1057,Ni35Fe9Cr54_3,-217.490554504688, 146.145183994378,Ni35Fe9Cr54,"# generated using pymatgen
 data_Cr30Fe5Ni19
_symmetry_space_group_name_H-M   'P 1'
_cell_length_a   7.53140754
_cell_length_b   7.53140754
_cell_length_c   10.65101869
_cell_angle_alpha   90.00000000
_cell_angle_beta   90.00000000
_cell_angle_gamma   90.00000000
_symmetry_Int_Tables_number   1
_chemical_formula_structural   Cr30Fe5Ni19
_chemical_formula_sum   'Cr30 Fe5 Ni19'
_cell_volume   604.14814248
_cell_formula_units_Z   1
loop_
 _symmetry_equiv_pos_site_id
 _symmetry_equiv_pos_as_xyz
  1  'x, y, z'
loop_
 _atom_site_type_symbol
 _atom_site_label
 _atom_site_symmetry_multiplicity
 _atom_site_fract_x
 _atom_site_fract_y
 _atom_site_fract_z
 _atom_site_occupancy
  Cr  Cr0  1  0.99562137  0.99435546  0.99314428  1
  Ni  Ni1  1  0.16577265  0.15922201  0.16452043  1
  Cr  Cr2  1  0.99276251  -0.00366602  0.32999886  1
  Cr  Cr3  1  -0.00399723  0.32827554  -0.00056882  1
  Cr  Cr4  1  0.15967212  0.49560740  0.16597384  1
  Ni  Ni5  1  -0.00339871  0.32975644  0.32894180  1
  Cr  Cr6  1  0.99528198  0.66404005  -0.00269174  1
  Cr  Cr7  1  0.16416443  0.83017088  0.16557565  1
  Fe  Fe8  1  0.99250011  0.66041415  0.33026836  1
  Fe  Fe9  1  0.33124505  -0.00393343  -0.00357226  1
  Ni  Ni10  1  0.49543183  0.15771035  0.16262085  1
  Fe  Fe11  1  0.33087336  -0.00113066  0.32942942  1
  Cr  Cr12  1  0.32870777  0.32834735  -0.00186657  1
  Cr  Cr13  1  0.49808146  0.49482285  0.15916247  1
  Cr  Cr14  1  0.32832760  0.32820996  0.33114988  1
  Cr  Cr15  1  0.33150549  0.66505043  0.99371230  1
  Fe  Fe16  1  0.49813374  0.83208478  0.16201652  1
  Cr  Cr17  1  0.33208553  0.65996552  0.33106561  1
  Ni  Ni18  1  0.65962348  0.99319313  -0.00201581  1
  Cr  Cr19  1  0.82703698  0.16296582  0.16166258  1
  Ni  Ni20  1  0.66133153  0.99474938  0.32822139  1
  Ni  Ni21  1  0.66067684  0.32662143  -0.00130787  1
  Ni  Ni22  1  0.82750966  0.49802452  0.16243130  1
  Cr  Cr23  1  0.66143900  0.33040741  0.33171789  1
  Fe  Fe24  1  0.66403532  0.66370656  -0.00287867  1
  Ni  Ni25  1  0.82701821  0.82880948  0.16273185  1
  Cr  Cr26  1  0.66417265  0.66496655  0.32706040  1
  Ni  Ni27  1  0.16373120  0.16387104  0.49248362  1
  Cr  Cr28  1  -0.00397597  0.99323817  0.66412954  1
  Cr  Cr29  1  0.16335348  0.16090339  0.83097565  1
  Ni  Ni30  1  0.16041227  0.49621218  0.49534064  1
  Cr  Cr31  1  -0.00403724  0.32856533  0.66068711  1
  Cr  Cr32  1  0.16235392  0.49946640  0.82622499  1
  Cr  Cr33  1  0.16148571  0.82739203  0.49600497  1
  Ni  Ni34  1  -0.00314302  0.66209774  0.65907635  1
  Ni  Ni35  1  0.16597391  0.82694200  0.82701170  1
  Ni  Ni36  1  0.49528308  0.16375898  0.49421642  1
  Cr  Cr37  1  0.32911100  0.99546051  0.66320069  1
  Cr  Cr38  1  0.49914202  0.16287122  0.82935183  1
  Ni  Ni39  1  0.49569926  0.49554807  0.49876718  1
  Cr  Cr40  1  0.32995136  0.33074854  0.65743376  1
  Cr  Cr41  1  0.49753112  0.49601056  0.82803808  1
  Cr  Cr42  1  0.49554986  0.83088233  0.49333383  1
  Ni  Ni43  1  0.32822049  0.66312214  0.66263126  1
  Ni  Ni44  1  0.49416210  0.82981823  0.83237194  1
  Cr  Cr45  1  0.82725518  0.16173063  0.49723030  1
  Cr  Cr46  1  0.66196636  0.99501481  0.65952118  1
  Cr  Cr47  1  0.82481404  0.16444776  0.82927324  1
  Ni  Ni48  1  0.83076059  0.49683778  0.49517763  1
  Ni  Ni49  1  0.66119744  0.33145432  0.65806269  1
  Cr  Cr50  1  0.82745425  0.49359084  0.83035044  1
  Ni  Ni51  1  0.82953920  0.82551226  0.49379527  1
  Cr  Cr52  1  0.66111370  0.66275886  0.66062397  1
  Cr  Cr53  1  0.82875041  0.82826699  0.82745224  1
" 