5826,Ni35Fe15Cr49_6,-220.163530301512, 163.055389099721,Ni35Fe15Cr49,"# generated using pymatgen
 data_Cr27Fe8Ni19
_symmetry_space_group_name_H-M   'P 1'
_cell_length_a   7.50350848
_cell_length_b   7.50350848
_cell_length_c   10.61156346
_cell_angle_alpha   90.00000000
_cell_angle_beta   90.00000000
_cell_angle_gamma   90.00000000
_symmetry_Int_Tables_number   1
_chemical_formula_structural   Cr27Fe8Ni19
_chemical_formula_sum   'Cr27 Fe8 Ni19'
_cell_volume   597.45903167
_cell_formula_units_Z   1
loop_
 _symmetry_equiv_pos_site_id
 _symmetry_equiv_pos_as_xyz
  1  'x, y, z'
loop_
 _atom_site_type_symbol
 _atom_site_label
 _atom_site_symmetry_multiplicity
 _atom_site_fract_x
 _atom_site_fract_y
 _atom_site_fract_z
 _atom_site_occupancy
  Fe  Fe0  1  0.00018758  0.99362880  0.00016296  1
  Fe  Fe1  1  0.16455118  0.16394909  0.16168642  1
  Cr  Cr2  1  -0.00114634  0.99538599  0.32880274  1
  Fe  Fe3  1  -0.00045082  0.33517129  -0.00039145  1
  Ni  Ni4  1  0.16350218  0.50028083  0.16314262  1
  Cr  Cr5  1  0.99565355  0.33344111  0.32779654  1
  Ni  Ni6  1  0.99638692  0.66397636  -0.00073525  1
  Ni  Ni7  1  0.16508362  0.83045712  0.16220329  1
  Cr  Cr8  1  0.99748620  0.66391280  0.33111623  1
  Ni  Ni9  1  0.32794264  -0.00033834  -0.00030369  1
  Cr  Cr10  1  0.49747746  0.16198384  0.16630830  1
  Ni  Ni11  1  0.33393246  0.99468394  0.32917056  1
  Ni  Ni12  1  0.32893738  0.32874258  0.99688053  1
  Cr  Cr13  1  0.49687882  0.49878660  0.16332939  1
  Cr  Cr14  1  0.32898738  0.33010611  0.33070517  1
  Cr  Cr15  1  0.33121885  0.66535087  -0.00091306  1
  Fe  Fe16  1  0.49783507  0.83087921  0.16478088  1
  Ni  Ni17  1  0.33054288  0.66862038  0.32801283  1
  Cr  Cr18  1  0.66185410  0.99468856  -0.00195684  1
  Cr  Cr19  1  0.82976510  0.16352883  0.16295237  1
  Ni  Ni20  1  0.66189894  0.99529827  0.33243179  1
  Cr  Cr21  1  0.66328517  0.33416844  0.99538045  1
  Ni  Ni22  1  0.83384701  0.50048111  0.16141775  1
  Fe  Fe23  1  0.66397337  0.33099449  0.33123038  1
  Ni  Ni24  1  0.66968228  0.66350662  -0.00111099  1
  Ni  Ni25  1  0.83229165  0.82964483  0.16322414  1
  Cr  Cr26  1  0.66580199  0.66551373  0.32841379  1
  Cr  Cr27  1  0.16739836  0.16421037  0.49684005  1
  Cr  Cr28  1  0.99639014  0.99432562  0.66413694  1
  Cr  Cr29  1  0.16477084  0.16420098  0.83422352  1
  Cr  Cr30  1  0.16443120  0.49969464  0.49852865  1
  Cr  Cr31  1  0.99676743  0.33267564  0.66321799  1
  Cr  Cr32  1  0.16356202  0.49964123  0.82932989  1
  Cr  Cr33  1  0.16656866  0.82884790  0.49921406  1
  Ni  Ni34  1  0.99416852  0.66366224  0.66358061  1
  Fe  Fe35  1  0.16248729  0.83070575  0.83375239  1
  Ni  Ni36  1  0.49922441  0.16027484  0.49754764  1
  Cr  Cr37  1  0.33398563  -0.00103604  0.66512459  1
  Ni  Ni38  1  0.49544640  0.16377280  0.82983023  1
  Cr  Cr39  1  0.49620282  0.49821158  0.49663171  1
  Ni  Ni40  1  0.33423796  0.32899884  0.66595369  1
  Fe  Fe41  1  0.49811583  0.49584397  0.83279206  1
  Ni  Ni42  1  0.49849359  0.83426165  0.49379195  1
  Cr  Cr43  1  0.33173003  0.66459439  0.66567372  1
  Cr  Cr44  1  0.49789014  0.83182061  0.83375853  1
  Cr  Cr45  1  0.82671598  0.16297572  0.49622926  1
  Ni  Ni46  1  0.66152847  0.99678151  0.66185414  1
  Cr  Cr47  1  0.83004202  0.16323672  0.83246666  1
  Ni  Ni48  1  0.82997984  0.49942617  0.49762509  1
  Cr  Cr49  1  0.66176219  0.33014582  0.66575581  1
  Ni  Ni50  1  0.83363997  0.50057664  0.83353119  1
  Fe  Fe51  1  0.82742307  0.82997395  0.49734658  1
  Cr  Cr52  1  0.66541090  0.66481622  0.66538504  1
  Cr  Cr53  1  0.83302191  0.82931902  0.83094237  1
" 