6563,Ni35Fe39Cr24_5,-229.820902059535, 188.409079158787,Ni35Fe39Cr24,"# generated using pymatgen
 data_Cr14Fe21Ni19
_symmetry_space_group_name_H-M   'P 1'
_cell_length_a   7.45507488
_cell_length_b   7.45507488
_cell_length_c   10.54306801
_cell_angle_alpha   90.00000000
_cell_angle_beta   90.00000000
_cell_angle_gamma   90.00000000
_symmetry_Int_Tables_number   1
_chemical_formula_structural   Cr14Fe21Ni19
_chemical_formula_sum   'Cr14 Fe21 Ni19'
_cell_volume   585.96412538
_cell_formula_units_Z   1
loop_
 _symmetry_equiv_pos_site_id
 _symmetry_equiv_pos_as_xyz
  1  'x, y, z'
loop_
 _atom_site_type_symbol
 _atom_site_label
 _atom_site_symmetry_multiplicity
 _atom_site_fract_x
 _atom_site_fract_y
 _atom_site_fract_z
 _atom_site_occupancy
  Ni  Ni0  1  0.00309996  0.00168472  0.00093959  1
  Ni  Ni1  1  0.16671893  0.16607600  0.16539131  1
  Ni  Ni2  1  0.00268504  0.00145403  0.33441360  1
  Ni  Ni3  1  0.00117360  0.33549161  0.00268037  1
  Fe  Fe4  1  0.16683049  0.50094120  0.16538016  1
  Cr  Cr5  1  1.00006366  0.33208361  0.33444336  1
  Fe  Fe6  1  0.00168124  0.66875973  0.00098310  1
  Fe  Fe7  1  0.16690942  0.83673217  0.16665784  1
  Cr  Cr8  1  0.00231394  0.66865613  0.33355595  1
  Ni  Ni9  1  0.33261485  1.00004333  1.00017205  1
  Fe  Fe10  1  0.50131822  0.16877384  0.16626798  1
  Fe  Fe11  1  0.33118575  1.00050769  0.33456521  1
  Fe  Fe12  1  0.33266716  0.33079011  0.00203331  1
  Fe  Fe13  1  0.50243355  0.49928939  0.16711295  1
  Cr  Cr14  1  0.33402484  0.33424105  0.33362778  1
  Fe  Fe15  1  0.33140915  0.66957605  0.00123201  1
  Cr  Cr16  1  0.49846788  0.83232072  0.16882282  1
  Ni  Ni17  1  0.33506315  0.66835731  0.33294430  1
  Cr  Cr18  1  0.66588359  1.00050731  0.99909981  1
  Ni  Ni19  1  0.83604180  0.16949032  0.16754108  1
  Cr  Cr20  1  0.66851834  0.00251534  0.33547745  1
  Fe  Fe21  1  0.66805520  0.33385022  0.00288236  1
  Ni  Ni22  1  0.83144502  0.49915415  0.16588032  1
  Ni  Ni23  1  0.66680427  0.33559265  0.33327260  1
  Fe  Fe24  1  0.66903857  0.66631591  0.00122442  1
  Cr  Cr25  1  0.83469040  0.83584363  0.16728870  1
  Ni  Ni26  1  0.66582443  0.66530571  0.33614188  1
  Ni  Ni27  1  0.16777470  0.16363033  0.50351842  1
  Ni  Ni28  1  0.00214758  0.99853970  0.66721324  1
  Fe  Fe29  1  0.16927443  0.16523232  0.83462614  1
  Cr  Cr30  1  0.17183778  0.50245438  0.50322841  1
  Cr  Cr31  1  0.00117069  0.33326617  0.66546606  1
  Cr  Cr32  1  0.16828838  0.50065173  0.83353580  1
  Ni  Ni33  1  0.16855166  0.83630540  0.49982770  1
  Fe  Fe34  1  0.00180198  0.67158971  0.66712637  1
  Ni  Ni35  1  0.16795688  0.83522589  0.83434112  1
  Fe  Fe36  1  0.49833284  0.16661287  0.50124681  1
  Ni  Ni37  1  0.33264802  0.99895349  0.66792138  1
  Fe  Fe38  1  0.49583348  0.16668398  0.83389873  1
  Fe  Fe39  1  0.50152098  0.50269436  0.50080863  1
  Ni  Ni40  1  0.33478738  0.33286069  0.66820761  1
  Cr  Cr41  1  0.50065343  0.50081458  0.83493817  1
  Fe  Fe42  1  0.49832390  0.83318803  0.50014579  1
  Ni  Ni43  1  0.33486621  0.67011687  0.66704609  1
  Fe  Fe44  1  0.49711122  0.83386894  0.83437443  1
  Ni  Ni45  1  0.83456855  0.16558747  0.49869449  1
  Cr  Cr46  1  0.66671762  0.99906342  0.66835663  1
  Cr  Cr47  1  0.83713442  0.16728050  0.83593584  1
  Fe  Fe48  1  0.83304823  0.50246552  0.49909379  1
  Cr  Cr49  1  0.66767542  0.33413059  0.66532810  1
  Fe  Fe50  1  0.83533992  0.50319590  0.83648918  1
  Ni  Ni51  1  0.83433614  0.83497146  0.50203224  1
  Fe  Fe52  1  0.66718809  0.66843299  0.66600798  1
  Fe  Fe53  1  0.83750916  0.83119039  0.83392014  1
" 