6023,Ni35Fe16Cr47_2,-219.994926806039, 157.284569356321,Ni35Fe16Cr47,"# generated using pymatgen
 data_Cr27Fe8Ni19
_symmetry_space_group_name_H-M   'P 1'
_cell_length_a   7.51976598
_cell_length_b   7.51976598
_cell_length_c   10.63455504
_cell_angle_alpha   90.00000000
_cell_angle_beta   90.00000000
_cell_angle_gamma   90.00000000
_symmetry_Int_Tables_number   1
_chemical_formula_structural   Cr27Fe8Ni19
_chemical_formula_sum   'Cr27 Fe8 Ni19'
_cell_volume   601.35091200
_cell_formula_units_Z   1
loop_
 _symmetry_equiv_pos_site_id
 _symmetry_equiv_pos_as_xyz
  1  'x, y, z'
loop_
 _atom_site_type_symbol
 _atom_site_label
 _atom_site_symmetry_multiplicity
 _atom_site_fract_x
 _atom_site_fract_y
 _atom_site_fract_z
 _atom_site_occupancy
  Cr  Cr0  1  0.99613573  -0.00199057  0.99481749  1
  Fe  Fe1  1  0.15988926  0.16054544  0.16279010  1
  Fe  Fe2  1  -0.00211439  -0.00328710  0.33094226  1
  Ni  Ni3  1  -0.00347845  0.32844045  0.99555454  1
  Cr  Cr4  1  0.16042598  0.49790145  0.15901640  1
  Cr  Cr5  1  0.99381938  0.32578318  0.32940417  1
  Ni  Ni6  1  -0.00286819  0.66391280  0.99452122  1
  Ni  Ni7  1  0.16442835  0.83124985  0.16589511  1
  Cr  Cr8  1  0.99635313  0.66616944  0.33252888  1
  Cr  Cr9  1  0.32928468  0.99366849  0.99620218  1
  Cr  Cr10  1  0.49667500  0.15949209  0.16302127  1
  Ni  Ni11  1  0.32467822  0.99570759  0.32834754  1
  Cr  Cr12  1  0.32700329  0.33071999  0.99380432  1
  Fe  Fe13  1  0.49791229  0.49845984  0.16112123  1
  Cr  Cr14  1  0.33003395  0.32930146  0.32957974  1
  Cr  Cr15  1  0.32987568  0.66483230  0.99582896  1
  Fe  Fe16  1  0.49698424  0.83000059  0.16161649  1
  Cr  Cr17  1  0.33046121  0.66597514  0.32778373  1
  Ni  Ni18  1  0.66505159  0.99358771  0.99525646  1
  Ni  Ni19  1  0.83031240  0.16193270  0.16228090  1
  Cr  Cr20  1  0.66555920  -0.00296175  0.32874856  1
  Cr  Cr21  1  0.66547277  0.32819785  -0.00245526  1
  Cr  Cr22  1  0.83203752  0.49679533  0.15998632  1
  Cr  Cr23  1  0.66535400  0.33089572  0.33155235  1
  Ni  Ni24  1  0.66233827  0.66602797  0.99514531  1
  Cr  Cr25  1  0.83062964  0.82975345  0.16010154  1
  Cr  Cr26  1  0.66271686  0.66142788  0.33168460  1
  Fe  Fe27  1  0.16044906  0.16013983  0.49761642  1
  Ni  Ni28  1  0.99625579  -0.00305455  0.66177584  1
  Ni  Ni29  1  0.16038573  0.16400410  0.82851153  1
  Cr  Cr30  1  0.16310337  0.49604306  0.49882321  1
  Cr  Cr31  1  -0.00333320  0.32590918  0.66462074  1
  Ni  Ni32  1  0.16355048  0.49636237  0.83154868  1
  Fe  Fe33  1  0.15989193  0.83423643  0.49606842  1
  Cr  Cr34  1  0.99509354  0.66741074  0.66346771  1
  Ni  Ni35  1  0.16198389  0.82921241  0.82906799  1
  Cr  Cr36  1  0.49357399  0.16271859  0.49838776  1
  Cr  Cr37  1  0.32459704  0.99594301  0.66600920  1
  Cr  Cr38  1  0.49684008  0.16159680  0.82840180  1
  Fe  Fe39  1  0.49897294  0.49704196  0.49926494  1
  Ni  Ni40  1  0.32837461  0.33105841  0.66462759  1
  Ni  Ni41  1  0.49567484  0.49997702  0.82780365  1
  Cr  Cr42  1  0.49629415  0.83162892  0.49624916  1
  Cr  Cr43  1  0.33141781  0.66200877  0.66597919  1
  Ni  Ni44  1  0.49879202  0.82733445  0.83235898  1
  Ni  Ni45  1  0.83229478  0.16077211  0.49561136  1
  Cr  Cr46  1  0.66887719  0.99418938  0.66669986  1
  Ni  Ni47  1  0.83269562  0.16059543  0.83143163  1
  Ni  Ni48  1  0.82968931  0.49798358  0.49668275  1
  Cr  Cr49  1  0.66376193  0.33214736  0.66026568  1
  Cr  Cr50  1  0.83203343  0.49879658  0.83296358  1
  Ni  Ni51  1  0.83159575  0.83064428  0.49834167  1
  Ni  Ni52  1  0.66309171  0.66342404  0.66248236  1
  Fe  Fe53  1  0.82978334  0.83004917  0.83057463  1
" 