4463,Ni35Fe41Cr23_16,-230.424108785885, 193.750388251138,Ni35Fe41Cr23,"# generated using pymatgen
 data_Cr13Fe22Ni19
_symmetry_space_group_name_H-M   'P 1'
_cell_length_a   7.44767107
_cell_length_b   7.44767107
_cell_length_c   10.53259743
_cell_angle_alpha   90.00000000
_cell_angle_beta   90.00000000
_cell_angle_gamma   90.00000000
_symmetry_Int_Tables_number   1
_chemical_formula_structural   Cr13Fe22Ni19
_chemical_formula_sum   'Cr13 Fe22 Ni19'
_cell_volume   584.22005296
_cell_formula_units_Z   1
loop_
 _symmetry_equiv_pos_site_id
 _symmetry_equiv_pos_as_xyz
  1  'x, y, z'
loop_
 _atom_site_type_symbol
 _atom_site_label
 _atom_site_symmetry_multiplicity
 _atom_site_fract_x
 _atom_site_fract_y
 _atom_site_fract_z
 _atom_site_occupancy
  Cr  Cr0  1  1.00098100  0.00466574  0.00173908  1
  Fe  Fe1  1  0.16988837  0.17045703  0.17083703  1
  Ni  Ni2  1  0.99955944  0.00700705  0.33354873  1
  Cr  Cr3  1  0.00395700  0.33488830  0.00180297  1
  Ni  Ni4  1  0.16969869  0.50098137  0.16938850  1
  Ni  Ni5  1  0.00384408  0.33254187  0.33578899  1
  Fe  Fe6  1  0.99914977  0.66972392  1.00033754  1
  Cr  Cr7  1  0.16582846  0.83672211  0.17043588  1
  Fe  Fe8  1  1.00004491  0.66550646  0.33379252  1
  Fe  Fe9  1  0.33529101  0.00236508  0.99930188  1
  Fe  Fe10  1  0.49948019  0.16803169  0.16967867  1
  Fe  Fe11  1  0.33632008  0.00547697  0.33607566  1
  Fe  Fe12  1  0.33695103  0.33176502  0.00429568  1
  Ni  Ni13  1  0.50122445  0.49722906  0.16946045  1
  Ni  Ni14  1  0.33181524  0.33565176  0.33503791  1
  Cr  Cr15  1  0.33656848  0.66656780  0.00255558  1
  Fe  Fe16  1  0.50235208  0.83110222  0.17056024  1
  Fe  Fe17  1  0.33330999  0.66528751  0.33393804  1
  Cr  Cr18  1  0.66722043  0.99838253  0.00446926  1
  Fe  Fe19  1  0.83440670  0.16942914  0.17165060  1
  Fe  Fe20  1  0.66762108  0.00419482  0.33455978  1
  Fe  Fe21  1  0.66625904  0.33413321  0.00185294  1
  Cr  Cr22  1  0.83187438  0.50301718  0.16779857  1
  Fe  Fe23  1  0.66769164  0.33213780  0.33518839  1
  Ni  Ni24  1  0.66654068  0.66795887  0.99947922  1
  Ni  Ni25  1  0.83472863  0.83553557  0.16996239  1
  Ni  Ni26  1  0.66349571  0.67095818  0.33444521  1
  Fe  Fe27  1  0.16711412  0.16979256  0.50131190  1
  Ni  Ni28  1  0.00181172  0.00508593  0.66841787  1
  Fe  Fe29  1  0.16926749  0.16742203  0.83207252  1
  Ni  Ni30  1  0.16837495  0.50091089  0.50028316  1
  Ni  Ni31  1  0.00258377  0.33398563  0.66612053  1
  Fe  Fe32  1  0.16708997  0.50059168  0.83297608  1
  Cr  Cr33  1  0.16710854  0.83672848  0.49794492  1
  Fe  Fe34  1  0.00288477  0.66898210  0.66961903  1
  Ni  Ni35  1  0.16649388  0.83529750  0.83459880  1
  Ni  Ni36  1  0.50112776  0.16729871  0.50272274  1
  Ni  Ni37  1  0.33565332  1.00030264  0.66898963  1
  Ni  Ni38  1  0.49798265  0.16749587  0.83444139  1
  Cr  Cr39  1  0.50143004  0.49661629  0.50027166  1
  Fe  Fe40  1  0.33345464  0.32873412  0.66590523  1
  Cr  Cr41  1  0.50281015  0.49401968  0.83335490  1
  Fe  Fe42  1  0.50258249  0.83712039  0.49989319  1
  Cr  Cr43  1  0.33713197  0.66796108  0.66491410  1
  Fe  Fe44  1  0.50309624  0.83662081  0.83334982  1
  Ni  Ni45  1  0.83275343  0.16772742  0.50075684  1
  Ni  Ni46  1  0.66660895  0.00146067  0.66645911  1
  Cr  Cr47  1  0.82950499  0.16814700  0.83167273  1
  Cr  Cr48  1  0.83515889  0.49993267  0.50248771  1
  Ni  Ni49  1  0.66989139  0.33219017  0.66694173  1
  Fe  Fe50  1  0.83590694  0.50258120  0.83306875  1
  Cr  Cr51  1  0.83714960  0.83791945  0.50149419  1
  Fe  Fe52  1  0.67099940  0.66982062  0.66911406  1
  Ni  Ni53  1  0.83817104  0.83378186  0.83308138  1
" 