5008,Ni35Fe15Cr49_9,-220.289683635973, 160.1939889353,Ni35Fe15Cr49,"# generated using pymatgen
 data_Cr27Fe8Ni19
_symmetry_space_group_name_H-M   'P 1'
_cell_length_a   7.51236460
_cell_length_b   7.51236460
_cell_length_c   10.62408790
_cell_angle_alpha   90.00000000
_cell_angle_beta   90.00000000
_cell_angle_gamma   90.00000000
_symmetry_Int_Tables_number   1
_chemical_formula_structural   Cr27Fe8Ni19
_chemical_formula_sum   'Cr27 Fe8 Ni19'
_cell_volume   599.57700758
_cell_formula_units_Z   1
loop_
 _symmetry_equiv_pos_site_id
 _symmetry_equiv_pos_as_xyz
  1  'x, y, z'
loop_
 _atom_site_type_symbol
 _atom_site_label
 _atom_site_symmetry_multiplicity
 _atom_site_fract_x
 _atom_site_fract_y
 _atom_site_fract_z
 _atom_site_occupancy
  Cr  Cr0  1  -0.00129197  -0.00301160  -0.00159152  1
  Ni  Ni1  1  0.16251794  0.16408398  0.16283405  1
  Ni  Ni2  1  0.99602120  0.99301034  0.32888372  1
  Cr  Cr3  1  0.99695561  0.33026382  0.99531583  1
  Ni  Ni4  1  0.16415056  0.49786352  0.16082881  1
  Cr  Cr5  1  0.99639841  0.32941212  0.32956855  1
  Ni  Ni6  1  -0.00089174  0.66370536  -0.00049479  1
  Fe  Fe7  1  0.16151729  0.82989635  0.16271787  1
  Fe  Fe8  1  0.99644993  0.66630639  0.33064057  1
  Ni  Ni9  1  0.32810783  -0.00178274  -0.00232583  1
  Cr  Cr10  1  0.49533631  0.16307776  0.16233742  1
  Cr  Cr11  1  0.32523617  0.99487769  0.32972889  1
  Ni  Ni12  1  0.33005166  0.33069151  -0.00268760  1
  Fe  Fe13  1  0.49359476  0.49621198  0.16200089  1
  Cr  Cr14  1  0.33081785  0.33251433  0.32982906  1
  Ni  Ni15  1  0.32882188  0.66209970  -0.00142266  1
  Cr  Cr16  1  0.49728577  0.82920409  0.16125918  1
  Cr  Cr17  1  0.33000489  0.66333975  0.33105011  1
  Cr  Cr18  1  0.66419398  -0.00086519  0.99574125  1
  Ni  Ni19  1  0.83356464  0.16172748  0.16407135  1
  Cr  Cr20  1  0.66719159  0.99557993  0.32976230  1
  Cr  Cr21  1  0.66316133  0.33055107  0.99535205  1
  Cr  Cr22  1  0.83287427  0.49911816  0.16432633  1
  Cr  Cr23  1  0.66359628  0.33377221  0.33004102  1
  Cr  Cr24  1  0.66373677  0.66142928  -0.00299495  1
  Fe  Fe25  1  0.83451694  0.83105906  0.16491422  1
  Fe  Fe26  1  0.66593920  0.66373315  0.33249666  1
  Cr  Cr27  1  0.16294866  0.16293022  0.49739361  1
  Ni  Ni28  1  0.99573273  0.99641535  0.66260161  1
  Ni  Ni29  1  0.16611027  0.16411111  0.83055662  1
  Cr  Cr30  1  0.16392354  0.49745955  0.49943853  1
  Cr  Cr31  1  0.99611464  0.32905685  0.66611903  1
  Cr  Cr32  1  0.16505341  0.49595552  0.83158104  1
  Ni  Ni33  1  0.15988534  0.83014928  0.49651729  1
  Cr  Cr34  1  0.99591375  0.66561615  0.66190607  1
  Cr  Cr35  1  0.16491367  0.82988510  0.83197717  1
  Cr  Cr36  1  0.49629972  0.16492478  0.49816670  1
  Cr  Cr37  1  0.32719273  0.99602477  0.66331768  1
  Fe  Fe38  1  0.49328568  0.16632864  0.83080608  1
  Ni  Ni39  1  0.49908363  0.49961136  0.49814246  1
  Ni  Ni40  1  0.33356753  0.33218642  0.66500734  1
  Ni  Ni41  1  0.49633393  0.49639649  0.83034033  1
  Cr  Cr42  1  0.49897818  0.82864220  0.49992268  1
  Ni  Ni43  1  0.33423043  0.66153224  0.66255818  1
  Cr  Cr44  1  0.49655308  0.82941995  0.82948936  1
  Cr  Cr45  1  0.83133477  0.16191221  0.49735075  1
  Fe  Fe46  1  0.66579047  0.99529170  0.66388555  1
  Fe  Fe47  1  0.83151222  0.16384351  0.82909970  1
  Ni  Ni48  1  0.82740548  0.50206076  0.49626163  1
  Cr  Cr49  1  0.66299001  0.33350400  0.66555477  1
  Ni  Ni50  1  0.82798937  0.49746027  0.83036447  1
  Ni  Ni51  1  0.83188072  0.82818343  0.49593437  1
  Ni  Ni52  1  0.66268248  0.66158257  0.66146180  1
  Cr  Cr53  1  0.82956159  0.82877339  0.82918974  1
" 