5020,Ni35Cr65_18,-225.901515983493, 137.096205663404,Ni35Cr65,"# generated using pymatgen
 data_CrNi2
_symmetry_space_group_name_H-M   'P 1'
_cell_length_a   7.49838248
_cell_length_b   7.49838248
_cell_length_c   10.60431420
_cell_angle_alpha   90.00000000
_cell_angle_beta   90.00000000
_cell_angle_gamma   90.00000000
_symmetry_Int_Tables_number   1
_chemical_formula_structural   CrNi2
_chemical_formula_sum   'Cr18 Ni36'
_cell_volume   596.23541064
_cell_formula_units_Z   18
loop_
 _symmetry_equiv_pos_site_id
 _symmetry_equiv_pos_as_xyz
  1  'x, y, z'
loop_
 _atom_site_type_symbol
 _atom_site_label
 _atom_site_symmetry_multiplicity
 _atom_site_fract_x
 _atom_site_fract_y
 _atom_site_fract_z
 _atom_site_occupancy
  Ni  Ni0  1  0.99603713  -0.00182199  -0.00171256  1
  Ni  Ni1  1  0.16312042  0.16258448  0.16653243  1
  Ni  Ni2  1  -0.00125871  0.00306143  0.32955840  1
  Ni  Ni3  1  0.99388074  0.32913219  0.99776127  1
  Cr  Cr4  1  0.16277738  0.49606156  0.16386795  1
  Ni  Ni5  1  0.99765539  0.32736333  0.33316307  1
  Ni  Ni6  1  0.99757323  0.66642223  0.99569765  1
  Ni  Ni7  1  0.16440096  0.83526030  0.16371559  1
  Cr  Cr8  1  0.99684568  0.66365613  0.33218475  1
  Cr  Cr9  1  0.33162991  0.99652623  -0.00087213  1
  Ni  Ni10  1  0.49953248  0.16255828  0.16599064  1
  Ni  Ni11  1  0.33226301  0.00069163  0.33024858  1
  Cr  Cr12  1  0.33200565  0.32916502  0.00050689  1
  Cr  Cr13  1  0.50001184  0.49533108  0.16573545  1
  Ni  Ni14  1  0.33137401  0.32756813  0.33258655  1
  Cr  Cr15  1  0.33037205  0.66783169  -0.00182508  1
  Ni  Ni16  1  0.49802336  0.83539330  0.16648824  1
  Cr  Cr17  1  0.33356320  0.66527644  0.33103039  1
  Ni  Ni18  1  0.66679491  -0.00017385  0.99776590  1
  Ni  Ni19  1  0.83113293  0.16414797  0.16408081  1
  Ni  Ni20  1  0.66270012  0.00014751  0.33093786  1
  Ni  Ni21  1  0.66911136  0.32755710  0.99784490  1
  Cr  Cr22  1  0.83095343  0.49530324  0.16452096  1
  Ni  Ni23  1  0.66469706  0.32919872  0.33261980  1
  Cr  Cr24  1  0.66558413  0.66638794  0.99705766  1
  Cr  Cr25  1  0.83136883  0.83443721  0.16607249  1
  Ni  Ni26  1  0.66233589  0.66445285  0.33318699  1
  Ni  Ni27  1  0.16486272  0.16668121  0.49570496  1
  Cr  Cr28  1  0.99631578  -0.00013908  0.66524958  1
  Cr  Cr29  1  0.16224650  0.16336877  0.83086910  1
  Ni  Ni30  1  0.16383829  0.49511012  0.49901996  1
  Ni  Ni31  1  0.99406718  0.33313507  0.66277694  1
  Cr  Cr32  1  0.16142540  0.49943002  0.83093093  1
  Cr  Cr33  1  0.16606433  0.83291497  0.49893279  1
  Ni  Ni34  1  0.99688610  0.66202229  0.66628090  1
  Ni  Ni35  1  0.16333834  0.83020222  0.83089333  1
  Ni  Ni36  1  0.49872278  0.16393777  0.49706694  1
  Ni  Ni37  1  0.33388457  0.99478906  0.66369256  1
  Cr  Cr38  1  0.50185152  0.16270397  0.83042928  1
  Ni  Ni39  1  0.49961479  0.49753513  0.49772268  1
  Cr  Cr40  1  0.33111714  0.33055625  0.66071683  1
  Cr  Cr41  1  0.50066208  0.49791532  0.83037510  1
  Ni  Ni42  1  0.49874277  0.83218082  0.49887929  1
  Ni  Ni43  1  0.33238371  0.66711246  0.66421214  1
  Ni  Ni44  1  0.49914357  0.83218718  0.82833456  1
  Ni  Ni45  1  0.83010743  0.16742504  0.49698181  1
  Ni  Ni46  1  0.66289672  0.99779213  0.66505756  1
  Ni  Ni47  1  0.83022985  0.16511499  0.83259427  1
  Ni  Ni48  1  0.83016426  0.49531828  0.49903823  1
  Ni  Ni49  1  0.66825976  0.33139119  0.66338657  1
  Ni  Ni50  1  0.83220971  0.49736250  0.83056299  1
  Cr  Cr51  1  0.82791406  0.83186487  0.49676055  1
  Ni  Ni52  1  0.66447412  0.66450901  0.66436300  1
  Ni  Ni53  1  0.83126027  0.83122842  0.83159186  1
" 