7962,Ni35Fe20Cr43_1,-222.692933603005, 169.378436607965,Ni35Fe20Cr43,"# generated using pymatgen
 data_Cr24Fe11Ni19
_symmetry_space_group_name_H-M   'P 1'
_cell_length_a   7.49693986
_cell_length_b   7.49693986
_cell_length_c   10.60227402
_cell_angle_alpha   90.00000000
_cell_angle_beta   90.00000000
_cell_angle_gamma   90.00000000
_symmetry_Int_Tables_number   1
_chemical_formula_structural   Cr24Fe11Ni19
_chemical_formula_sum   'Cr24 Fe11 Ni19'
_cell_volume   595.89134618
_cell_formula_units_Z   1
loop_
 _symmetry_equiv_pos_site_id
 _symmetry_equiv_pos_as_xyz
  1  'x, y, z'
loop_
 _atom_site_type_symbol
 _atom_site_label
 _atom_site_symmetry_multiplicity
 _atom_site_fract_x
 _atom_site_fract_y
 _atom_site_fract_z
 _atom_site_occupancy
  Ni  Ni0  1  0.99493313  0.99780598  -0.00064138  1
  Cr  Cr1  1  0.16295069  0.16764031  0.16536886  1
  Cr  Cr2  1  -0.00169632  0.99773267  0.32816896  1
  Cr  Cr3  1  0.99470510  0.33170609  0.99710577  1
  Cr  Cr4  1  0.16297572  0.49883411  0.16411701  1
  Ni  Ni5  1  0.99346567  0.33473068  0.33249695  1
  Ni  Ni6  1  0.99749632  0.66309747  -0.00106439  1
  Fe  Fe7  1  0.16365758  0.82778999  0.16264840  1
  Fe  Fe8  1  0.99478418  0.66386379  0.33209121  1
  Cr  Cr9  1  0.32966873  -0.00093864  0.00088938  1
  Cr  Cr10  1  0.50044928  0.16731814  0.16365848  1
  Cr  Cr11  1  0.32957301  0.99172603  0.33186820  1
  Ni  Ni12  1  0.33303931  0.33406387  0.99303647  1
  Cr  Cr13  1  0.50131956  0.49738266  0.16261367  1
  Cr  Cr14  1  0.33195917  0.33071469  0.33237034  1
  Ni  Ni15  1  0.33044865  0.66153848  0.99765266  1
  Cr  Cr16  1  0.50112046  0.82680676  0.16269782  1
  Fe  Fe17  1  0.33301794  0.66259192  0.33224522  1
  Ni  Ni18  1  0.66714232  0.00225409  0.99705423  1
  Fe  Fe19  1  0.82942066  0.16857089  0.16427893  1
  Cr  Cr20  1  0.66539653  0.99729563  0.33206570  1
  Ni  Ni21  1  0.66544224  0.33309768  0.99635655  1
  Ni  Ni22  1  0.83095916  0.49867814  0.16702228  1
  Ni  Ni23  1  0.66940017  0.33796609  0.33188740  1
  Ni  Ni24  1  0.66655384  0.66071690  0.99565990  1
  Cr  Cr25  1  0.83043736  0.82688523  0.15970192  1
  Ni  Ni26  1  0.66673560  0.66192478  0.33589746  1
  Cr  Cr27  1  0.16260839  0.16492323  0.50124127  1
  Fe  Fe28  1  0.99688046  0.99310354  0.66425837  1
  Cr  Cr29  1  0.16451944  0.16635168  0.82679635  1
  Cr  Cr30  1  0.16383490  0.49640175  0.49906917  1
  Fe  Fe31  1  0.99641355  0.33439443  0.66635628  1
  Fe  Fe32  1  0.16380857  0.49876311  0.83151722  1
  Ni  Ni33  1  0.15923971  0.82729023  0.49548693  1
  Ni  Ni34  1  0.99788765  0.66327157  0.66357955  1
  Cr  Cr35  1  0.16151966  0.82940317  0.83494439  1
  Cr  Cr36  1  0.49907976  0.16854036  0.49799999  1
  Cr  Cr37  1  0.33374283  0.99643627  0.66102006  1
  Ni  Ni38  1  0.49874875  0.16829737  0.83194592  1
  Ni  Ni39  1  0.49849032  0.50014694  0.49730120  1
  Ni  Ni40  1  0.33135330  0.33319345  0.66700281  1
  Fe  Fe41  1  0.49861372  0.49816784  0.83291761  1
  Fe  Fe42  1  0.49921431  0.82950914  0.49731896  1
  Cr  Cr43  1  0.33057638  0.66423952  0.66490970  1
  Cr  Cr44  1  0.50203804  0.83421735  0.83467594  1
  Cr  Cr45  1  0.83233152  0.16439536  0.49951686  1
  Ni  Ni46  1  0.66725373  -0.00059362  0.66465027  1
  Fe  Fe47  1  0.82887014  0.16349575  0.83142637  1
  Fe  Fe48  1  0.83169582  0.49949383  0.49763548  1
  Cr  Cr49  1  0.66400481  0.33364330  0.66682083  1
  Ni  Ni50  1  0.83317206  0.49857270  0.83147829  1
  Ni  Ni51  1  0.83232074  0.82938480  0.49980762  1
  Cr  Cr52  1  0.66690578  0.66557418  0.66288883  1
  Cr  Cr53  1  0.83186358  0.82993228  0.83252973  1
" 