103,Ni35Fe15Cr49_4,-220.231038668247, 163.45198952861,Ni35Fe15Cr49,"# generated using pymatgen
 data_Cr27Fe8Ni19
_symmetry_space_group_name_H-M   'P 1'
_cell_length_a   7.50850098
_cell_length_b   7.50850098
_cell_length_c   10.61862392
_cell_angle_alpha   90.00000000
_cell_angle_beta   90.00000000
_cell_angle_gamma   90.00000000
_symmetry_Int_Tables_number   1
_chemical_formula_structural   Cr27Fe8Ni19
_chemical_formula_sum   'Cr27 Fe8 Ni19'
_cell_volume   598.65239342
_cell_formula_units_Z   1
loop_
 _symmetry_equiv_pos_site_id
 _symmetry_equiv_pos_as_xyz
  1  'x, y, z'
loop_
 _atom_site_type_symbol
 _atom_site_label
 _atom_site_symmetry_multiplicity
 _atom_site_fract_x
 _atom_site_fract_y
 _atom_site_fract_z
 _atom_site_occupancy
  Cr  Cr0  1  -0.00236823  0.99549169  0.00069570  1
  Ni  Ni1  1  0.16721500  0.16630956  0.16480709  1
  Cr  Cr2  1  -0.00083635  0.99623725  0.32863284  1
  Cr  Cr3  1  0.99688335  0.33089371  -0.00205335  1
  Ni  Ni4  1  0.16938675  0.49898972  0.16334974  1
  Cr  Cr5  1  -0.00143605  0.32915605  0.32916402  1
  Fe  Fe6  1  -0.00077937  0.66293401  -0.00090751  1
  Ni  Ni7  1  0.16612067  0.82628633  0.16243583  1
  Cr  Cr8  1  -0.00129601  0.66659398  0.32690617  1
  Cr  Cr9  1  0.32910174  0.99526498  -0.00126484  1
  Cr  Cr10  1  0.49630549  0.16703337  0.16134267  1
  Cr  Cr11  1  0.32897809  0.99485067  0.33007807  1
  Ni  Ni12  1  0.33344341  0.33475579  -0.00091013  1
  Ni  Ni13  1  0.49452990  0.49884979  0.16525798  1
  Ni  Ni14  1  0.33378335  0.33383460  0.32775131  1
  Ni  Ni15  1  0.33239956  0.66266158  -0.00122401  1
  Ni  Ni16  1  0.49660898  0.82664761  0.16491233  1
  Ni  Ni17  1  0.33416705  0.66379759  0.32956140  1
  Fe  Fe18  1  0.66259596  0.99648911  -0.00054363  1
  Cr  Cr19  1  0.82723827  0.16435043  0.16413522  1
  Cr  Cr20  1  0.66301841  0.99459997  0.32717503  1
  Ni  Ni21  1  0.66185983  0.33452366  0.99520423  1
  Cr  Cr22  1  0.82886159  0.49904950  0.16494633  1
  Ni  Ni23  1  0.65989004  0.33460096  0.33100182  1
  Cr  Cr24  1  0.66196387  0.66216558  -0.00226302  1
  Ni  Ni25  1  0.82899683  0.82842511  0.16307275  1
  Ni  Ni26  1  0.65902930  0.66253401  0.33073419  1
  Cr  Cr27  1  0.16518774  0.16419955  0.49859704  1
  Ni  Ni28  1  -0.00169520  0.99660909  0.66336166  1
  Cr  Cr29  1  0.16543318  0.16319726  0.82813667  1
  Cr  Cr30  1  0.16561611  0.49870612  0.49384807  1
  Ni  Ni31  1  0.99345410  0.32943542  0.66494090  1
  Cr  Cr32  1  0.16487282  0.49896814  0.83416078  1
  Ni  Ni33  1  0.16622273  0.83004404  0.49952547  1
  Cr  Cr34  1  0.99706307  0.66291984  0.66663619  1
  Fe  Fe35  1  0.16470221  0.83035720  0.83065970  1
  Cr  Cr36  1  0.49734309  0.16402629  0.49700149  1
  Ni  Ni37  1  0.33031005  0.99465697  0.66300208  1
  Cr  Cr38  1  0.49724431  0.16384451  0.83294617  1
  Fe  Fe39  1  0.49699524  0.49886979  0.49484888  1
  Cr  Cr40  1  0.33264561  0.33225014  0.66473695  1
  Ni  Ni41  1  0.49874568  0.49763997  0.83099443  1
  Fe  Fe42  1  0.49610670  0.82884495  0.49619142  1
  Cr  Cr43  1  0.33418862  0.66457196  0.66321633  1
  Cr  Cr44  1  0.49635146  0.83115971  0.83014876  1
  Cr  Cr45  1  0.82925356  0.16429229  0.49855465  1
  Fe  Fe46  1  0.66272256  0.99621177  0.66332259  1
  Cr  Cr47  1  0.82859706  0.16323233  0.82913194  1
  Cr  Cr48  1  0.82889155  0.49781026  0.49748356  1
  Fe  Fe49  1  0.66328973  0.33317605  0.66522446  1
  Ni  Ni50  1  0.82823654  0.49728933  0.82892331  1
  Cr  Cr51  1  0.82941556  0.82931915  0.49687290  1
  Fe  Fe52  1  0.66301886  0.66202972  0.66437071  1
  Cr  Cr53  1  0.83106243  0.82994837  0.83210149  1
" 