2306,Ni35Fe39Cr24_8,-230.351019156938, 194.04656106545,Ni35Fe39Cr24,"# generated using pymatgen
 data_Cr14Fe21Ni19
_symmetry_space_group_name_H-M   'P 1'
_cell_length_a   7.45526565
_cell_length_b   7.45526565
_cell_length_c   10.54333779
_cell_angle_alpha   90.00000000
_cell_angle_beta   90.00000000
_cell_angle_gamma   90.00000000
_symmetry_Int_Tables_number   1
_chemical_formula_structural   Cr14Fe21Ni19
_chemical_formula_sum   'Cr14 Fe21 Ni19'
_cell_volume   586.00910853
_cell_formula_units_Z   1
loop_
 _symmetry_equiv_pos_site_id
 _symmetry_equiv_pos_as_xyz
  1  'x, y, z'
loop_
 _atom_site_type_symbol
 _atom_site_label
 _atom_site_symmetry_multiplicity
 _atom_site_fract_x
 _atom_site_fract_y
 _atom_site_fract_z
 _atom_site_occupancy
  Fe  Fe0  1  0.00175570  0.99724578  0.99989161  1
  Fe  Fe1  1  0.16948490  0.16536081  0.16678396  1
  Fe  Fe2  1  0.99978091  0.99693267  0.33405480  1
  Cr  Cr3  1  0.00356208  0.33342029  0.00195519  1
  Ni  Ni4  1  0.16831803  0.50392774  0.16718035  1
  Cr  Cr5  1  0.00306219  0.33602819  0.33334888  1
  Ni  Ni6  1  0.00190644  0.66838243  0.00169425  1
  Ni  Ni7  1  0.16833265  0.83327003  0.16738540  1
  Ni  Ni8  1  0.00281190  0.66702610  0.33512080  1
  Ni  Ni9  1  0.33451028  1.00071627  0.99971317  1
  Cr  Cr10  1  0.50101531  0.16540884  0.16843873  1
  Fe  Fe11  1  0.33314290  0.99793805  0.33158661  1
  Fe  Fe12  1  0.33428677  0.33272790  0.00097528  1
  Fe  Fe13  1  0.49787807  0.50162443  0.16778894  1
  Fe  Fe14  1  0.33448461  0.33792514  0.33470631  1
  Fe  Fe15  1  0.33233687  0.67100363  0.00268539  1
  Ni  Ni16  1  0.49808304  0.83560055  0.16675774  1
  Ni  Ni17  1  0.33217687  0.66763020  0.33268753  1
  Ni  Ni18  1  0.66547763  0.99957653  0.99925822  1
  Cr  Cr19  1  0.83425855  0.16461144  0.16674656  1
  Ni  Ni20  1  0.66712245  0.99952428  0.33485292  1
  Fe  Fe21  1  0.66708969  0.33239291  0.00107905  1
  Ni  Ni22  1  0.83635913  0.50187691  0.16668699  1
  Cr  Cr23  1  0.66830161  0.33505059  0.33713164  1
  Cr  Cr24  1  0.66709899  0.67090825  0.00459058  1
  Fe  Fe25  1  0.83673213  0.83425808  0.16776874  1
  Cr  Cr26  1  0.66761957  0.66920022  0.33187788  1
  Cr  Cr27  1  0.16836808  0.16426360  0.49780008  1
  Fe  Fe28  1  0.00097943  0.99959440  0.66834351  1
  Ni  Ni29  1  0.16753979  0.16429773  0.83575729  1
  Ni  Ni30  1  0.16939154  0.50342195  0.50153124  1
  Cr  Cr31  1  0.00215891  0.33259363  0.66628764  1
  Cr  Cr32  1  0.16857931  0.50316812  0.83330193  1
  Fe  Fe33  1  0.16579553  0.83112549  0.49990165  1
  Fe  Fe34  1  0.00252131  0.67025707  0.66558127  1
  Fe  Fe35  1  0.16688266  0.83511991  0.83522715  1
  Fe  Fe36  1  0.50148231  0.16869270  0.50179105  1
  Fe  Fe37  1  0.33409972  0.00097989  0.66989943  1
  Fe  Fe38  1  0.50035120  0.16677190  0.83411740  1
  Ni  Ni39  1  0.49771358  0.50182637  0.50091567  1
  Ni  Ni40  1  0.33343886  0.33285308  0.66642098  1
  Cr  Cr41  1  0.49984216  0.50172566  0.83540444  1
  Cr  Cr42  1  0.49737791  0.83589945  0.49968351  1
  Ni  Ni43  1  0.33282937  0.66873147  0.66767686  1
  Fe  Fe44  1  0.49944591  0.83719774  0.83403059  1
  Ni  Ni45  1  0.83292133  0.16405074  0.50202075  1
  Ni  Ni46  1  0.66736201  0.00230030  0.66816440  1
  Ni  Ni47  1  0.83302894  0.16374166  0.83430920  1
  Ni  Ni48  1  0.83524818  0.50085854  0.50220426  1
  Fe  Fe49  1  0.66494225  0.33208462  0.66541861  1
  Cr  Cr50  1  0.83374457  0.49979465  0.83359092  1
  Fe  Fe51  1  0.83660140  0.83504048  0.50037960  1
  Cr  Cr52  1  0.66708279  0.67054169  0.66552603  1
  Fe  Fe53  1  0.83595126  0.83616852  0.83463661  1
" 