4801,Ni35Cr65_0,-226.02893787496, 140.620347792606,Ni35Cr65,"# generated using pymatgen
 data_CrNi2
_symmetry_space_group_name_H-M   'P 1'
_cell_length_a   7.49536971
_cell_length_b   7.49536971
_cell_length_c   10.60005350
_cell_angle_alpha   90.00000000
_cell_angle_beta   90.00000000
_cell_angle_gamma   90.00000000
_symmetry_Int_Tables_number   1
_chemical_formula_structural   CrNi2
_chemical_formula_sum   'Cr18 Ni36'
_cell_volume   595.51701763
_cell_formula_units_Z   18
loop_
 _symmetry_equiv_pos_site_id
 _symmetry_equiv_pos_as_xyz
  1  'x, y, z'
loop_
 _atom_site_type_symbol
 _atom_site_label
 _atom_site_symmetry_multiplicity
 _atom_site_fract_x
 _atom_site_fract_y
 _atom_site_fract_z
 _atom_site_occupancy
  Ni  Ni0  1  0.99695572  -0.00088170  0.99731502  1
  Ni  Ni1  1  0.15941484  0.16471069  0.16726597  1
  Ni  Ni2  1  -0.00021167  -0.00183485  0.33132782  1
  Ni  Ni3  1  0.99549184  0.33036897  0.99712533  1
  Cr  Cr4  1  0.15908813  0.49729397  0.16426187  1
  Ni  Ni5  1  -0.00048443  0.33033011  0.33042735  1
  Ni  Ni6  1  0.99564707  0.66478624  0.99619941  1
  Cr  Cr7  1  0.16239858  0.83113382  0.16390541  1
  Ni  Ni8  1  0.99551875  0.66593623  0.33249795  1
  Cr  Cr9  1  0.32704704  0.99797855  0.00038220  1
  Cr  Cr10  1  0.49749213  0.16585661  0.16738481  1
  Ni  Ni11  1  0.32725785  -0.00013197  0.33114800  1
  Cr  Cr12  1  0.32805152  0.33191210  0.99622155  1
  Cr  Cr13  1  0.50057796  0.49943199  0.16403656  1
  Ni  Ni14  1  0.32877170  0.32972952  0.33390544  1
  Ni  Ni15  1  0.33106767  0.66437624  0.99520454  1
  Ni  Ni16  1  0.49973136  0.82907507  0.16458689  1
  Cr  Cr17  1  0.33041778  0.66488151  0.33350821  1
  Cr  Cr18  1  0.66947533  -0.00168575  -0.00088320  1
  Ni  Ni19  1  0.83566644  0.16703673  0.16442691  1
  Cr  Cr20  1  0.66738347  0.99611265  0.32961790  1
  Ni  Ni21  1  0.66967077  0.33431865  0.99723239  1
  Ni  Ni22  1  0.83197756  0.49822640  0.16473981  1
  Ni  Ni23  1  0.66590695  0.33389467  0.32993494  1
  Ni  Ni24  1  0.66753183  0.66345618  -0.00146485  1
  Ni  Ni25  1  0.83283376  0.82920679  0.16501842  1
  Ni  Ni26  1  0.66751489  0.66404842  0.33030952  1
  Ni  Ni27  1  0.16431241  0.16462646  0.49775204  1
  Ni  Ni28  1  -0.00039705  -0.00151317  0.66577163  1
  Ni  Ni29  1  0.16048804  0.16457946  0.82965105  1
  Ni  Ni30  1  0.16560529  0.49626748  0.49829004  1
  Ni  Ni31  1  0.00279266  0.32975198  0.66697954  1
  Ni  Ni32  1  0.16380203  0.49840625  0.83135894  1
  Ni  Ni33  1  0.16285634  0.83328998  0.49841555  1
  Cr  Cr34  1  0.00022617  0.66451018  0.66441975  1
  Ni  Ni35  1  0.16242604  0.83128058  0.83148752  1
  Cr  Cr36  1  0.49595802  0.16601811  0.49927700  1
  Ni  Ni37  1  0.32617538  -0.00169996  0.66438727  1
  Cr  Cr38  1  0.49843151  0.16528375  0.82840119  1
  Ni  Ni39  1  0.49547423  0.49730597  0.49738169  1
  Ni  Ni40  1  0.32726534  0.33351697  0.66423684  1
  Ni  Ni41  1  0.49719512  0.49921663  0.83207799  1
  Cr  Cr42  1  0.49770977  0.83214883  0.49956740  1
  Ni  Ni43  1  0.32918997  0.66253717  0.66531295  1
  Cr  Cr44  1  0.49638430  0.83010502  0.83139037  1
  Cr  Cr45  1  0.83553601  0.16379412  0.49952461  1
  Ni  Ni46  1  0.66876341  0.99680313  0.66612365  1
  Ni  Ni47  1  0.83597237  0.16491994  0.83140006  1
  Cr  Cr48  1  0.83384845  0.49744835  0.49376161  1
  Cr  Cr49  1  0.66640918  0.33321726  0.66704686  1
  Ni  Ni50  1  0.83337635  0.49725251  0.83503240  1
  Ni  Ni51  1  0.83511964  0.83260887  0.49697221  1
  Cr  Cr52  1  0.66621958  0.66453721  0.66437399  1
  Ni  Ni53  1  0.83464200  0.83219654  0.83194715  1
" 