2965,Ni35Cr65_8,-226.11015012106, 141.263219519437,Ni35Cr65,"# generated using pymatgen
 data_CrNi2
_symmetry_space_group_name_H-M   'P 1'
_cell_length_a   7.49310348
_cell_length_b   7.49310348
_cell_length_c   10.59684856
_cell_angle_alpha   90.00000000
_cell_angle_beta   90.00000000
_cell_angle_gamma   90.00000000
_symmetry_Int_Tables_number   1
_chemical_formula_structural   CrNi2
_chemical_formula_sum   'Cr18 Ni36'
_cell_volume   594.97701409
_cell_formula_units_Z   18
loop_
 _symmetry_equiv_pos_site_id
 _symmetry_equiv_pos_as_xyz
  1  'x, y, z'
loop_
 _atom_site_type_symbol
 _atom_site_label
 _atom_site_symmetry_multiplicity
 _atom_site_fract_x
 _atom_site_fract_y
 _atom_site_fract_z
 _atom_site_occupancy
  Ni  Ni0  1  -0.00079248  -0.00060879  -0.00088353  1
  Ni  Ni1  1  0.16370368  0.16735206  0.16373726  1
  Ni  Ni2  1  0.99411461  0.00079712  0.33076979  1
  Ni  Ni3  1  -0.00042330  0.33103121  -0.00093815  1
  Ni  Ni4  1  0.16708413  0.49524909  0.16442962  1
  Ni  Ni5  1  0.99766216  0.32934401  0.33081730  1
  Ni  Ni6  1  -0.00172609  0.66442424  0.99818180  1
  Cr  Cr7  1  0.16498251  0.83118597  0.16333816  1
  Cr  Cr8  1  0.99707749  0.66399865  0.33033491  1
  Ni  Ni9  1  0.32966226  0.00288648  0.99772741  1
  Ni  Ni10  1  0.49900551  0.16833891  0.16477907  1
  Cr  Cr11  1  0.33301648  0.00138722  0.33255330  1
  Ni  Ni12  1  0.33180089  0.33059449  -0.00084734  1
  Ni  Ni13  1  0.49534870  0.49439601  0.16485049  1
  Ni  Ni14  1  0.33303698  0.33284788  0.32964242  1
  Ni  Ni15  1  0.33086630  0.66121207  -0.00057206  1
  Cr  Cr16  1  0.49810150  0.83150652  0.16522734  1
  Ni  Ni17  1  0.33355330  0.66078668  0.33175981  1
  Cr  Cr18  1  0.66598733  0.00018774  -0.00031552  1
  Ni  Ni19  1  0.83194506  0.16484855  0.16633217  1
  Ni  Ni20  1  0.66753491  0.00081160  0.33234238  1
  Ni  Ni21  1  0.66305809  0.33175743  0.99794242  1
  Cr  Cr22  1  0.83138384  0.49336827  0.16353368  1
  Ni  Ni23  1  0.66399829  0.32949352  0.33256122  1
  Cr  Cr24  1  0.66745737  0.66237373  0.99721680  1
  Ni  Ni25  1  0.83353347  0.83545949  0.16452330  1
  Cr  Cr26  1  0.66527826  0.66489949  0.33268261  1
  Cr  Cr27  1  0.16066863  0.16640438  0.49815168  1
  Ni  Ni28  1  0.99606393  -0.00163440  0.66502578  1
  Ni  Ni29  1  0.16372502  0.16521216  0.83348048  1
  Cr  Cr30  1  0.16449308  0.49787452  0.49735719  1
  Ni  Ni31  1  0.99518052  0.33186614  0.66473303  1
  Cr  Cr32  1  0.16354270  0.49770626  0.83193452  1
  Cr  Cr33  1  0.16498014  0.83053566  0.49984406  1
  Ni  Ni34  1  0.99405698  0.66454614  0.66509744  1
  Cr  Cr35  1  0.16390036  0.83225168  0.83178001  1
  Ni  Ni36  1  0.50236583  0.16715694  0.49650508  1
  Cr  Cr37  1  0.33200274  0.00106644  0.66585117  1
  Ni  Ni38  1  0.49762403  0.16882979  0.83383214  1
  Ni  Ni39  1  0.50041166  0.49789569  0.49807534  1
  Cr  Cr40  1  0.33377034  0.33089785  0.66594947  1
  Ni  Ni41  1  0.50001116  0.49652147  0.83171857  1
  Ni  Ni42  1  0.50044553  0.82977367  0.49820155  1
  Ni  Ni43  1  0.33452842  0.66326615  0.66340930  1
  Cr  Cr44  1  0.49771364  0.82962752  0.83199060  1
  Ni  Ni45  1  0.83001211  0.16631738  0.49705237  1
  Cr  Cr46  1  0.66510098  -0.00127717  0.66326154  1
  Cr  Cr47  1  0.83254171  0.16801324  0.83142908  1
  Ni  Ni48  1  0.82948763  0.49563493  0.50058374  1
  Ni  Ni49  1  0.66543298  0.33445291  0.66425016  1
  Ni  Ni50  1  0.83050186  0.49812163  0.83043061  1
  Ni  Ni51  1  0.83062309  0.83284986  0.49913070  1
  Ni  Ni52  1  0.66650902  0.66253589  0.66434275  1
  Ni  Ni53  1  0.83416721  0.82973614  0.83096752  1
" 