1139,Ni35Fe20Cr43_4,-222.23570774933, 168.321771174242,Ni35Fe20Cr43,"# generated using pymatgen
 data_Cr24Fe11Ni19
_symmetry_space_group_name_H-M   'P 1'
_cell_length_a   7.49252623
_cell_length_b   7.49252623
_cell_length_c   10.59603220
_cell_angle_alpha   90.00000000
_cell_angle_beta   90.00000000
_cell_angle_gamma   90.00000000
_symmetry_Int_Tables_number   1
_chemical_formula_structural   Cr24Fe11Ni19
_chemical_formula_sum   'Cr24 Fe11 Ni19'
_cell_volume   594.83951802
_cell_formula_units_Z   1
loop_
 _symmetry_equiv_pos_site_id
 _symmetry_equiv_pos_as_xyz
  1  'x, y, z'
loop_
 _atom_site_type_symbol
 _atom_site_label
 _atom_site_symmetry_multiplicity
 _atom_site_fract_x
 _atom_site_fract_y
 _atom_site_fract_z
 _atom_site_occupancy
  Ni  Ni0  1  0.99630101  0.99819430  -0.00023905  1
  Ni  Ni1  1  0.16672194  0.16622352  0.16428579  1
  Ni  Ni2  1  -0.00078740  0.00140614  0.33276475  1
  Cr  Cr3  1  0.00091629  0.33098916  0.00075437  1
  Ni  Ni4  1  0.16792722  0.49475787  0.16614769  1
  Ni  Ni5  1  0.00384324  0.32915363  0.33188233  1
  Cr  Cr6  1  -0.00095400  0.66668936  0.99778794  1
  Cr  Cr7  1  0.16572679  0.83613722  0.16476206  1
  Cr  Cr8  1  0.00243508  0.66582615  0.33145845  1
  Fe  Fe9  1  0.33314420  0.00223329  -0.00018094  1
  Ni  Ni10  1  0.49656275  0.16484353  0.16372236  1
  Cr  Cr11  1  0.32956278  0.00168263  0.33318234  1
  Ni  Ni12  1  0.33299840  0.33010118  0.00043176  1
  Ni  Ni13  1  0.49551252  0.49650017  0.16652886  1
  Fe  Fe14  1  0.33007580  0.33192597  0.33109950  1
  Cr  Cr15  1  0.33135849  0.66180887  -0.00035303  1
  Cr  Cr16  1  0.49985653  0.83361255  0.16655818  1
  Fe  Fe17  1  0.33120416  0.66201070  0.33275730  1
  Ni  Ni18  1  0.66630051  -0.00047179  0.99798655  1
  Cr  Cr19  1  0.83316664  0.16440496  0.16675943  1
  Ni  Ni20  1  0.66527819  -0.00099569  0.33192649  1
  Cr  Cr21  1  0.66129515  0.32960748  0.99659256  1
  Cr  Cr22  1  0.83127509  0.49816509  0.16904638  1
  Cr  Cr23  1  0.66117106  0.32936677  0.33284398  1
  Cr  Cr24  1  0.66514111  0.66567603  -0.00017180  1
  Fe  Fe25  1  0.83152962  0.83486454  0.16731279  1
  Ni  Ni26  1  0.66130284  0.66474891  0.32960585  1
  Ni  Ni27  1  0.16378571  0.16604267  0.49712355  1
  Ni  Ni28  1  0.99690218  -0.00138185  0.66282465  1
  Cr  Cr29  1  0.16726557  0.16482271  0.83487896  1
  Ni  Ni30  1  0.16701599  0.49493793  0.49826464  1
  Cr  Cr31  1  0.00033495  0.32870654  0.66346061  1
  Fe  Fe32  1  0.16880574  0.49574317  0.83115387  1
  Ni  Ni33  1  0.16302472  0.83352318  0.49919250  1
  Fe  Fe34  1  -0.00081491  0.66611663  0.66311679  1
  Cr  Cr35  1  0.16400065  0.83413797  0.82969195  1
  Fe  Fe36  1  0.49654551  0.16618411  0.49830239  1
  Cr  Cr37  1  0.33151660  0.00174560  0.66144169  1
  Ni  Ni38  1  0.49820154  0.16511313  0.83175333  1
  Ni  Ni39  1  0.49574962  0.49615475  0.49697796  1
  Ni  Ni40  1  0.33154633  0.33160312  0.66354465  1
  Fe  Fe41  1  0.49379791  0.49510893  0.83138331  1
  Cr  Cr42  1  0.49873107  0.83143745  0.49588743  1
  Cr  Cr43  1  0.32957946  0.66305181  0.66226188  1
  Cr  Cr44  1  0.49789717  0.83645700  0.83264013  1
  Fe  Fe45  1  0.83372538  0.16314901  0.49627886  1
  Ni  Ni46  1  0.66771949  0.00072368  0.66486230  1
  Fe  Fe47  1  0.83182003  0.15984278  0.83198456  1
  Cr  Cr48  1  0.83111361  0.49605439  0.49575639  1
  Cr  Cr49  1  0.66181368  0.32752277  0.66515417  1
  Cr  Cr50  1  0.83369768  0.49732832  0.82992029  1
  Cr  Cr51  1  0.83056830  0.83243529  0.49737606  1
  Cr  Cr52  1  0.66327251  0.66491782  0.66680859  1
  Fe  Fe53  1  0.83170300  0.83724403  0.83089108  1
" 