624,Ni35Fe16Cr47_0,-220.315864188906, 165.320821473501,Ni35Fe16Cr47,"# generated using pymatgen
 data_Cr27Fe8Ni19
_symmetry_space_group_name_H-M   'P 1'
_cell_length_a   7.50811695
_cell_length_b   7.50811695
_cell_length_c   10.61808083
_cell_angle_alpha   90.00000000
_cell_angle_beta   90.00000000
_cell_angle_gamma   90.00000000
_symmetry_Int_Tables_number   1
_chemical_formula_structural   Cr27Fe8Ni19
_chemical_formula_sum   'Cr27 Fe8 Ni19'
_cell_volume   598.56054324
_cell_formula_units_Z   1
loop_
 _symmetry_equiv_pos_site_id
 _symmetry_equiv_pos_as_xyz
  1  'x, y, z'
loop_
 _atom_site_type_symbol
 _atom_site_label
 _atom_site_symmetry_multiplicity
 _atom_site_fract_x
 _atom_site_fract_y
 _atom_site_fract_z
 _atom_site_occupancy
  Cr  Cr0  1  -0.00147093  0.00081899  0.99693132  1
  Cr  Cr1  1  0.16410219  0.16569064  0.16436659  1
  Fe  Fe2  1  -0.00090796  0.00232280  0.33244405  1
  Fe  Fe3  1  -0.00071598  0.32722387  0.99672132  1
  Ni  Ni4  1  0.16607917  0.49499787  0.16465612  1
  Ni  Ni5  1  -0.00145055  0.33050763  0.33001337  1
  Cr  Cr6  1  -0.00036367  0.66112919  -0.00199971  1
  Cr  Cr7  1  0.16544790  0.83208701  0.16689232  1
  Cr  Cr8  1  0.00013670  0.66024474  0.33345230  1
  Ni  Ni9  1  0.33081745  0.00067908  0.99520650  1
  Cr  Cr10  1  0.49433241  0.16561283  0.16571628  1
  Ni  Ni11  1  0.32951732  -0.00175859  0.33205325  1
  Ni  Ni12  1  0.32787553  0.32903234  -0.00228461  1
  Cr  Cr13  1  0.49308354  0.49535332  0.16304932  1
  Ni  Ni14  1  0.32635791  0.33045366  0.33161047  1
  Fe  Fe15  1  0.32891356  0.66425870  0.99726394  1
  Cr  Cr16  1  0.49401749  0.83072876  0.16327005  1
  Ni  Ni17  1  0.32590689  0.66293269  0.33029950  1
  Cr  Cr18  1  0.66267313  -0.00022055  0.99621671  1
  Ni  Ni19  1  0.83346621  0.16634398  0.16415607  1
  Cr  Cr20  1  0.66322409  0.00140002  0.33146628  1
  Fe  Fe21  1  0.66429833  0.32628283  0.99630649  1
  Cr  Cr22  1  0.83243865  0.49312510  0.16213529  1
  Cr  Cr23  1  0.66485826  0.32803214  0.33245663  1
  Cr  Cr24  1  0.66294668  0.66443833  0.99688522  1
  Cr  Cr25  1  0.83282167  0.83368939  0.16684028  1
  Cr  Cr26  1  0.66371444  0.66246661  0.33097013  1
  Cr  Cr27  1  0.16471196  0.16343705  0.49783778  1
  Ni  Ni28  1  -0.00154400  0.00235815  0.66387749  1
  Ni  Ni29  1  0.16369443  0.16404800  0.82988180  1
  Fe  Fe30  1  0.16442496  0.49372090  0.49727759  1
  Ni  Ni31  1  0.99643354  0.32621649  0.66478032  1
  Cr  Cr32  1  0.16600437  0.49202518  0.82990503  1
  Fe  Fe33  1  0.16642887  0.83241623  0.49824430  1
  Cr  Cr34  1  0.00020278  0.66141912  0.66063937  1
  Cr  Cr35  1  0.16606717  0.83469117  0.82860157  1
  Ni  Ni36  1  0.49547216  0.16434408  0.49890931  1
  Ni  Ni37  1  0.32962897  -0.00103749  0.66490670  1
  Cr  Cr38  1  0.49445922  0.16564067  0.82745294  1
  Cr  Cr39  1  0.49464313  0.49378470  0.49769547  1
  Ni  Ni40  1  0.32966720  0.32813710  0.66264489  1
  Cr  Cr41  1  0.49576218  0.49640973  0.83087698  1
  Cr  Cr42  1  0.49333038  0.83281673  0.49845096  1
  Ni  Ni43  1  0.32986674  0.66508010  0.66422496  1
  Fe  Fe44  1  0.49437166  0.83295424  0.82916925  1
  Ni  Ni45  1  0.83248542  0.16677535  0.49954413  1
  Fe  Fe46  1  0.66370514  0.00305919  0.66253030  1
  Ni  Ni47  1  0.83293033  0.16477913  0.82797121  1
  Ni  Ni48  1  0.83347741  0.49221321  0.49886505  1
  Ni  Ni49  1  0.66578003  0.32645320  0.66223629  1
  Cr  Cr50  1  0.83005616  0.49197396  0.83008751  1
  Cr  Cr51  1  0.83432305  0.83403822  0.49749957  1
  Cr  Cr52  1  0.66322700  0.66285204  0.66368814  1
  Cr  Cr53  1  0.83057952  0.83383042  0.82741577  1
" 