182,Ni35Fe26Cr37_7,-225.20155017583, 184.122798888966,Ni35Fe26Cr37,"# generated using pymatgen
 data_Cr21Fe14Ni19
_symmetry_space_group_name_H-M   'P 1'
_cell_length_a   7.47728932
_cell_length_b   7.47728932
_cell_length_c   10.57448396
_cell_angle_alpha   90.00000000
_cell_angle_beta   90.00000000
_cell_angle_gamma   90.00000000
_symmetry_Int_Tables_number   1
_chemical_formula_structural   Cr21Fe14Ni19
_chemical_formula_sum   'Cr21 Fe14 Ni19'
_cell_volume   591.21787028
_cell_formula_units_Z   1
loop_
 _symmetry_equiv_pos_site_id
 _symmetry_equiv_pos_as_xyz
  1  'x, y, z'
loop_
 _atom_site_type_symbol
 _atom_site_label
 _atom_site_symmetry_multiplicity
 _atom_site_fract_x
 _atom_site_fract_y
 _atom_site_fract_z
 _atom_site_occupancy
  Fe  Fe0  1  0.00079964  0.99589643  0.99880719  1
  Cr  Cr1  1  0.16627011  0.16176295  0.16625174  1
  Ni  Ni2  1  0.00176882  0.99738411  0.33320703  1
  Cr  Cr3  1  0.00131733  0.33554425  0.99679007  1
  Fe  Fe4  1  0.16921868  0.50069989  0.16638074  1
  Cr  Cr5  1  0.00407297  0.33375712  0.33484505  1
  Fe  Fe6  1  0.99879409  0.66839244  0.99735163  1
  Ni  Ni7  1  0.16585014  0.83092849  0.16499475  1
  Cr  Cr8  1  0.99908151  0.66585208  0.33080087  1
  Fe  Fe9  1  0.33164882  0.99636772  0.99723011  1
  Cr  Cr10  1  0.49928631  0.16875174  0.16389267  1
  Cr  Cr11  1  0.33303053  0.99794591  0.33268111  1
  Cr  Cr12  1  0.32976805  0.33117381  0.99653550  1
  Fe  Fe13  1  0.49709343  0.50180950  0.16749376  1
  Ni  Ni14  1  0.33203759  0.33556501  0.33345811  1
  Cr  Cr15  1  0.33353237  0.66765924  0.99930643  1
  Ni  Ni16  1  0.49692378  0.82970621  0.16708345  1
  Fe  Fe17  1  0.33236283  0.66617177  0.33247362  1
  Cr  Cr18  1  0.66240227  0.99471895  0.99763862  1
  Cr  Cr19  1  0.83225581  0.16585805  0.16793839  1
  Cr  Cr20  1  0.66486334  0.99315485  0.33332889  1
  Fe  Fe21  1  0.66546889  0.33510607  0.99687790  1
  Cr  Cr22  1  0.82936552  0.50032597  0.16417172  1
  Fe  Fe23  1  0.66349618  0.33520123  0.33338509  1
  Ni  Ni24  1  0.66690386  0.66906405  0.99912116  1
  Fe  Fe25  1  0.83309364  0.83267732  0.16495531  1
  Ni  Ni26  1  0.66206899  0.66606536  0.33133784  1
  Fe  Fe27  1  0.16767255  0.16555505  0.50001065  1
  Fe  Fe28  1  0.99926600  0.99670499  0.66713246  1
  Ni  Ni29  1  0.16761355  0.16320395  0.83169691  1
  Ni  Ni30  1  0.17080851  0.50388936  0.49990986  1
  Cr  Cr31  1  0.00375276  0.33606915  0.66588671  1
  Ni  Ni32  1  0.16560986  0.50224955  0.83142771  1
  Ni  Ni33  1  0.16681802  0.83074518  0.50012381  1
  Ni  Ni34  1  0.00254680  0.66563228  0.66950617  1
  Ni  Ni35  1  0.16481197  0.83218090  0.83296990  1
  Cr  Cr36  1  0.50006823  0.16864977  0.50083601  1
  Cr  Cr37  1  0.33398441  0.99814248  0.66833399  1
  Ni  Ni38  1  0.49801518  0.16537714  0.83281589  1
  Ni  Ni39  1  0.49590917  0.49998498  0.49691589  1
  Fe  Fe40  1  0.33367371  0.33496550  0.66628466  1
  Cr  Cr41  1  0.50007497  0.49938194  0.83165353  1
  Fe  Fe42  1  0.49752673  0.82845504  0.50005985  1
  Fe  Fe43  1  0.33134719  0.66524078  0.66613308  1
  Ni  Ni44  1  0.49813807  0.83321549  0.83194542  1
  Cr  Cr45  1  0.83243066  0.16451104  0.49920939  1
  Ni  Ni46  1  0.66406167  0.99815008  0.66773232  1
  Cr  Cr47  1  0.83119872  0.16552492  0.83115891  1
  Cr  Cr48  1  0.82993060  0.50033259  0.50112090  1
  Ni  Ni49  1  0.66480193  0.33233893  0.66765495  1
  Ni  Ni50  1  0.83293250  0.50227941  0.83320674  1
  Cr  Cr51  1  0.83645929  0.83266253  0.50022090  1
  Cr  Cr52  1  0.66608357  0.66922360  0.66727568  1
  Ni  Ni53  1  0.83470573  0.83081074  0.83345682  1
" 