4099,Ni35Fe15Cr49_19,-220.227633597231, 158.438036550498,Ni35Fe15Cr49,"# generated using pymatgen
 data_Cr27Fe8Ni19
_symmetry_space_group_name_H-M   'P 1'
_cell_length_a   7.51139962
_cell_length_b   7.51139962
_cell_length_c   10.62272321
_cell_angle_alpha   90.00000000
_cell_angle_beta   90.00000000
_cell_angle_gamma   90.00000000
_symmetry_Int_Tables_number   1
_chemical_formula_structural   Cr27Fe8Ni19
_chemical_formula_sum   'Cr27 Fe8 Ni19'
_cell_volume   599.34598591
_cell_formula_units_Z   1
loop_
 _symmetry_equiv_pos_site_id
 _symmetry_equiv_pos_as_xyz
  1  'x, y, z'
loop_
 _atom_site_type_symbol
 _atom_site_label
 _atom_site_symmetry_multiplicity
 _atom_site_fract_x
 _atom_site_fract_y
 _atom_site_fract_z
 _atom_site_occupancy
  Cr  Cr0  1  0.99560644  -0.00219049  -0.00253601  1
  Cr  Cr1  1  0.16462662  0.16249023  0.16708114  1
  Ni  Ni2  1  0.99648272  0.99453291  0.33264512  1
  Cr  Cr3  1  0.99554429  0.33127251  0.99236287  1
  Cr  Cr4  1  0.16364286  0.49834280  0.16358644  1
  Cr  Cr5  1  0.99526920  0.32761661  0.33195092  1
  Ni  Ni6  1  0.99379095  0.66299326  -0.00286949  1
  Cr  Cr7  1  0.15929845  0.83025282  0.16504793  1
  Fe  Fe8  1  0.99486769  0.66693468  0.33169322  1
  Cr  Cr9  1  0.33172637  0.99538790  0.99627871  1
  Cr  Cr10  1  0.49742166  0.16600240  0.16582401  1
  Ni  Ni11  1  0.32733350  -0.00282519  0.33208075  1
  Cr  Cr12  1  0.32959758  0.33165042  0.99670409  1
  Ni  Ni13  1  0.49915936  0.49708417  0.16384278  1
  Ni  Ni14  1  0.33148458  0.33022429  0.33032450  1
  Fe  Fe15  1  0.33000917  0.66306698  0.99631743  1
  Cr  Cr16  1  0.49864715  0.83008676  0.16068672  1
  Cr  Cr17  1  0.33269615  0.66555776  0.32961961  1
  Fe  Fe18  1  0.66537182  0.99527757  0.99580015  1
  Cr  Cr19  1  0.82921593  0.16217472  0.16279484  1
  Cr  Cr20  1  0.66685026  0.99452236  0.33144791  1
  Fe  Fe21  1  0.66414852  0.33193258  0.99693940  1
  Cr  Cr22  1  0.82937092  0.49936139  0.16426524  1
  Ni  Ni23  1  0.66301314  0.33255627  0.32892594  1
  Fe  Fe24  1  0.66435343  0.66377403  0.99700742  1
  Ni  Ni25  1  0.83064213  0.82822393  0.16415211  1
  Ni  Ni26  1  0.66539462  0.66379073  0.32900740  1
  Ni  Ni27  1  0.16245145  0.16162942  0.49642505  1
  Ni  Ni28  1  0.99537108  -0.00285030  0.66193218  1
  Ni  Ni29  1  0.16274470  0.16454981  0.82816769  1
  Cr  Cr30  1  0.16354901  0.49727294  0.49839125  1
  Cr  Cr31  1  -0.00227374  0.32886334  0.66682901  1
  Fe  Fe32  1  0.16278038  0.49893155  0.82973079  1
  Ni  Ni33  1  0.15822784  0.83329264  0.49653829  1
  Ni  Ni34  1  0.99487563  0.66541804  0.66311530  1
  Cr  Cr35  1  0.16136438  0.82988059  0.83036443  1
  Cr  Cr36  1  0.49633490  0.16528946  0.49574517  1
  Cr  Cr37  1  0.32899653  0.99684522  0.66296035  1
  Cr  Cr38  1  0.49823003  0.16190585  0.82930039  1
  Cr  Cr39  1  0.49834286  0.49538302  0.49580992  1
  Ni  Ni40  1  0.32800121  0.32946130  0.66427317  1
  Cr  Cr41  1  0.49880880  0.49787028  0.82935966  1
  Cr  Cr42  1  0.49984676  0.83034021  0.50027466  1
  Cr  Cr43  1  0.33085202  0.66413168  0.66542136  1
  Ni  Ni44  1  0.50054914  0.82897296  0.83150682  1
  Ni  Ni45  1  0.83206531  0.16062378  0.49837390  1
  Ni  Ni46  1  0.66741886  0.99441614  0.66482826  1
  Fe  Fe47  1  0.82999754  0.16086109  0.82891500  1
  Cr  Cr48  1  0.82912679  0.50081284  0.49665409  1
  Cr  Cr49  1  0.66616718  0.32982097  0.66304476  1
  Fe  Fe50  1  0.83088696  0.49986652  0.82986976  1
  Ni  Ni51  1  0.83341178  0.83110908  0.49799540  1
  Ni  Ni52  1  0.66632453  0.66637618  0.66462370  1
  Cr  Cr53  1  0.83055766  0.82940609  0.82914355  1
" 