3108,Ni35Fe39Cr24_7,-229.206253867136, 187.317202949261,Ni35Fe39Cr24,"# generated using pymatgen
 data_Cr14Fe21Ni19
_symmetry_space_group_name_H-M   'P 1'
_cell_length_a   7.44817984
_cell_length_b   7.44817984
_cell_length_c   10.53331695
_cell_angle_alpha   90.00000000
_cell_angle_beta   90.00000000
_cell_angle_gamma   90.00000000
_symmetry_Int_Tables_number   1
_chemical_formula_structural   Cr14Fe21Ni19
_chemical_formula_sum   'Cr14 Fe21 Ni19'
_cell_volume   584.33979124
_cell_formula_units_Z   1
loop_
 _symmetry_equiv_pos_site_id
 _symmetry_equiv_pos_as_xyz
  1  'x, y, z'
loop_
 _atom_site_type_symbol
 _atom_site_label
 _atom_site_symmetry_multiplicity
 _atom_site_fract_x
 _atom_site_fract_y
 _atom_site_fract_z
 _atom_site_occupancy
  Fe  Fe0  1  1.00123074  0.99970735  0.00225373  1
  Ni  Ni1  1  0.16851123  0.16667366  0.16687037  1
  Ni  Ni2  1  1.00120162  0.99987027  0.33094532  1
  Ni  Ni3  1  1.00034994  0.33470934  0.00405801  1
  Fe  Fe4  1  0.16439475  0.50302479  0.16507646  1
  Cr  Cr5  1  1.00094561  0.33519628  0.33227206  1
  Ni  Ni6  1  0.00149654  0.66936009  0.00395753  1
  Ni  Ni7  1  0.16563828  0.83793284  0.16880704  1
  Ni  Ni8  1  0.99968684  0.67011273  0.33409496  1
  Ni  Ni9  1  0.33579357  0.00154013  0.00176847  1
  Fe  Fe10  1  0.50224030  0.16497492  0.16602516  1
  Fe  Fe11  1  0.33257441  0.00266653  0.33203300  1
  Ni  Ni12  1  0.33331277  0.33068328  0.00429198  1
  Cr  Cr13  1  0.50160611  0.50058759  0.16463753  1
  Fe  Fe14  1  0.33481447  0.33204763  0.33258124  1
  Fe  Fe15  1  0.33199299  0.67346526  0.00337780  1
  Fe  Fe16  1  0.50142262  0.83869914  0.16702271  1
  Cr  Cr17  1  0.33310671  0.66840940  0.33210527  1
  Ni  Ni18  1  0.66706707  0.00194321  0.99944372  1
  Fe  Fe19  1  0.83521194  0.16596814  0.16531634  1
  Fe  Fe20  1  0.66956886  0.00174514  0.33004765  1
  Fe  Fe21  1  0.66962642  0.33093831  1.00105217  1
  Ni  Ni22  1  0.83408694  0.50203360  0.16959422  1
  Fe  Fe23  1  0.66763771  0.33426545  0.33466081  1
  Cr  Cr24  1  0.67098323  0.67303397  0.00237374  1
  Ni  Ni25  1  0.83554898  0.83498746  0.16886034  1
  Fe  Fe26  1  0.67112206  0.66774979  0.33278844  1
  Cr  Cr27  1  0.16707196  0.16391421  0.50137071  1
  Ni  Ni28  1  0.00181187  0.99812627  0.67113086  1
  Cr  Cr29  1  0.16602299  0.16613697  0.83615920  1
  Cr  Cr30  1  0.16741598  0.50228961  0.50331107  1
  Fe  Fe31  1  0.99879352  0.33218340  0.66947852  1
  Cr  Cr32  1  0.16835558  0.50296031  0.83986214  1
  Fe  Fe33  1  0.16606714  0.83573976  0.50123030  1
  Fe  Fe34  1  0.00141853  0.66986861  0.66947267  1
  Ni  Ni35  1  0.16962561  0.83540853  0.83363635  1
  Fe  Fe36  1  0.50276313  0.16743323  0.50065813  1
  Ni  Ni37  1  0.33460606  0.99887067  0.66692022  1
  Ni  Ni38  1  0.50257717  0.16564795  0.83503099  1
  Fe  Fe39  1  0.50505681  0.50012358  0.50030617  1
  Cr  Cr40  1  0.33733951  0.33202100  0.66734887  1
  Cr  Cr41  1  0.50075439  0.50289075  0.83767935  1
  Cr  Cr42  1  0.50232684  0.83577161  0.49918222  1
  Fe  Fe43  1  0.33632455  0.67092050  0.66850852  1
  Ni  Ni44  1  0.50012547  0.83676203  0.83487507  1
  Cr  Cr45  1  0.83425973  0.16555503  0.50251884  1
  Fe  Fe46  1  0.66684464  0.00176987  0.67196448  1
  Ni  Ni47  1  0.83293969  0.16584103  0.83571585  1
  Fe  Fe48  1  0.83255181  0.50185784  0.50146171  1
  Ni  Ni49  1  0.66817653  0.33505002  0.66750937  1
  Cr  Cr50  1  0.83499550  0.49939654  0.83383109  1
  Cr  Cr51  1  0.83521958  0.83522753  0.50101307  1
  Ni  Ni52  1  0.66827361  0.66789097  0.66703887  1
  Fe  Fe53  1  0.83550563  0.83641239  0.83486584  1
" 