4293,Ni35Fe9Cr54_9,-217.227501320063, 141.438541803055,Ni35Fe9Cr54,"# generated using pymatgen
 data_Cr30Fe5Ni19
_symmetry_space_group_name_H-M   'P 1'
_cell_length_a   7.53113684
_cell_length_b   7.53113684
_cell_length_c   10.65063585
_cell_angle_alpha   90.00000000
_cell_angle_beta   90.00000000
_cell_angle_gamma   90.00000000
_symmetry_Int_Tables_number   1
_chemical_formula_structural   Cr30Fe5Ni19
_chemical_formula_sum   'Cr30 Fe5 Ni19'
_cell_volume   604.08299917
_cell_formula_units_Z   1
loop_
 _symmetry_equiv_pos_site_id
 _symmetry_equiv_pos_as_xyz
  1  'x, y, z'
loop_
 _atom_site_type_symbol
 _atom_site_label
 _atom_site_symmetry_multiplicity
 _atom_site_fract_x
 _atom_site_fract_y
 _atom_site_fract_z
 _atom_site_occupancy
  Cr  Cr0  1  -0.00229686  -0.00267835  -0.00189252  1
  Ni  Ni1  1  0.16716101  0.16010823  0.16280163  1
  Cr  Cr2  1  -0.00143683  0.99366940  0.32779728  1
  Cr  Cr3  1  0.99492273  0.32772106  0.99190290  1
  Cr  Cr4  1  0.16389241  0.49298040  0.16217544  1
  Cr  Cr5  1  -0.00392665  0.32913715  0.32922091  1
  Cr  Cr6  1  0.99394972  0.66179527  -0.00401655  1
  Ni  Ni7  1  0.16267375  0.83114183  0.16155990  1
  Cr  Cr8  1  0.99556952  0.66426368  0.32993267  1
  Ni  Ni9  1  0.33154143  -0.00317407  -0.00284093  1
  Ni  Ni10  1  0.49404671  0.16403559  0.16238671  1
  Cr  Cr11  1  0.32898907  -0.00306342  0.32884197  1
  Cr  Cr12  1  0.33038286  0.32493492  0.99479578  1
  Ni  Ni13  1  0.49766311  0.49310773  0.16365912  1
  Ni  Ni14  1  0.33180521  0.32701476  0.32841557  1
  Cr  Cr15  1  0.33095568  0.66425218  -0.00225612  1
  Fe  Fe16  1  0.49607913  0.83064517  0.16040903  1
  Cr  Cr17  1  0.32896250  0.66391431  0.32872136  1
  Fe  Fe18  1  0.66013869  -0.00266159  -0.00377917  1
  Cr  Cr19  1  0.82877068  0.16345187  0.16316686  1
  Cr  Cr20  1  0.65977117  -0.00327901  0.32748607  1
  Cr  Cr21  1  0.66179053  0.32887595  0.99511218  1
  Ni  Ni22  1  0.82528219  0.49726776  0.16264489  1
  Ni  Ni23  1  0.65944298  0.32923549  0.32825074  1
  Fe  Fe24  1  0.66219378  0.66254647  -0.00199670  1
  Ni  Ni25  1  0.82831277  0.82767267  0.16015899  1
  Cr  Cr26  1  0.66284041  0.66153185  0.32674556  1
  Fe  Fe27  1  0.16494173  0.16394443  0.49559974  1
  Cr  Cr28  1  -0.00265148  -0.00169012  0.66107084  1
  Ni  Ni29  1  0.16455101  0.16004524  0.82900529  1
  Ni  Ni30  1  0.16216853  0.49470272  0.49571058  1
  Cr  Cr31  1  0.99527907  0.32932643  0.66604168  1
  Fe  Fe32  1  0.16195300  0.49416329  0.82933414  1
  Ni  Ni33  1  0.16394469  0.82980767  0.49681983  1
  Cr  Cr34  1  -0.00392679  0.65988380  0.66123816  1
  Cr  Cr35  1  0.16401128  0.83031938  0.82866959  1
  Ni  Ni36  1  0.49362718  0.16281742  0.49615737  1
  Ni  Ni37  1  0.33015270  -0.00118987  0.66197341  1
  Ni  Ni38  1  0.49484111  0.15953059  0.82871511  1
  Cr  Cr39  1  0.49510776  0.49165873  0.49275740  1
  Cr  Cr40  1  0.32872283  0.32650327  0.66370166  1
  Cr  Cr41  1  0.49503065  0.49595439  0.82968387  1
  Cr  Cr42  1  0.49523581  0.83229923  0.49983206  1
  Cr  Cr43  1  0.32715157  0.66254084  0.66120610  1
  Cr  Cr44  1  0.49547864  0.83147711  0.82865922  1
  Cr  Cr45  1  0.82573127  0.16330863  0.49515825  1
  Ni  Ni46  1  0.65940997  -0.00018974  0.66499892  1
  Ni  Ni47  1  0.82768700  0.16237904  0.82890742  1
  Ni  Ni48  1  0.83089626  0.49348732  0.49421074  1
  Cr  Cr49  1  0.66263736  0.32734674  0.66295756  1
  Ni  Ni50  1  0.82868356  0.49507639  0.82983783  1
  Cr  Cr51  1  0.82888706  0.83062103  0.49721405  1
  Cr  Cr52  1  0.66366540  0.66054249  0.66221133  1
  Cr  Cr53  1  0.82753782  0.83111896  0.82915697  1
" 