1334,Ni35Fe47Cr17_14,-231.281414341637, 196.087932198678,Ni35Fe47Cr17,"# generated using pymatgen
 data_Cr11Fe25Ni18
_symmetry_space_group_name_H-M   'P 1'
_cell_length_a   7.44178304
_cell_length_b   7.44178304
_cell_length_c   10.52427050
_cell_angle_alpha   90.00000000
_cell_angle_beta   90.00000000
_cell_angle_gamma   90.00000000
_symmetry_Int_Tables_number   1
_chemical_formula_structural   Cr11Fe25Ni18
_chemical_formula_sum   'Cr11 Fe25 Ni18'
_cell_volume   582.83551905
_cell_formula_units_Z   1
loop_
 _symmetry_equiv_pos_site_id
 _symmetry_equiv_pos_as_xyz
  1  'x, y, z'
loop_
 _atom_site_type_symbol
 _atom_site_label
 _atom_site_symmetry_multiplicity
 _atom_site_fract_x
 _atom_site_fract_y
 _atom_site_fract_z
 _atom_site_occupancy
  Fe  Fe0  1  1.00066075  1.00055324  1.00144385  1
  Fe  Fe1  1  0.16635623  0.16888917  0.16658742  1
  Fe  Fe2  1  1.00070211  1.00133948  0.33435217  1
  Fe  Fe3  1  0.00193999  0.33628567  0.00187341  1
  Fe  Fe4  1  0.16612070  0.50351425  0.16714686  1
  Cr  Cr5  1  0.99922437  0.33592968  0.33500221  1
  Ni  Ni6  1  1.00091045  0.66736985  1.00132354  1
  Fe  Fe7  1  0.16630451  0.83269312  0.16798834  1
  Ni  Ni8  1  0.00258298  0.66925066  0.33324060  1
  Cr  Cr9  1  0.33480275  0.00256346  0.00262183  1
  Fe  Fe10  1  0.50486647  0.16845709  0.16790212  1
  Cr  Cr11  1  0.33566132  1.00035051  0.33511011  1
  Fe  Fe12  1  0.33320839  0.33636793  1.00138906  1
  Cr  Cr13  1  0.50174888  0.50346195  0.16814517  1
  Cr  Cr14  1  0.33641716  0.33483000  0.33614383  1
  Ni  Ni15  1  0.33236215  0.66860132  0.00206349  1
  Fe  Fe16  1  0.50362566  0.83441476  0.16836461  1
  Ni  Ni17  1  0.33369643  0.67048126  0.33657238  1
  Fe  Fe18  1  0.67045072  1.00104257  0.00268603  1
  Ni  Ni19  1  0.83497060  0.16730298  0.16821651  1
  Fe  Fe20  1  0.66926713  0.00250210  0.33458384  1
  Fe  Fe21  1  0.66994014  0.33502812  0.00230665  1
  Ni  Ni22  1  0.83510499  0.50161859  0.16784582  1
  Ni  Ni23  1  0.66978093  0.33321228  0.33519686  1
  Ni  Ni24  1  0.67182025  0.66830561  0.00248845  1
  Fe  Fe25  1  0.83516377  0.83417091  0.16819999  1
  Fe  Fe26  1  0.66726242  0.66816897  0.33431476  1
  Fe  Fe27  1  0.16802615  0.16786814  0.50432598  1
  Fe  Fe28  1  0.00283991  0.00384094  0.66928841  1
  Ni  Ni29  1  0.16627943  0.16866809  0.83429131  1
  Ni  Ni30  1  0.17233924  0.50238859  0.50200885  1
  Fe  Fe31  1  0.00308556  0.33315647  0.66886472  1
  Ni  Ni32  1  0.16823647  0.50103890  0.83662053  1
  Fe  Fe33  1  0.17048332  0.83385714  0.50204804  1
  Cr  Cr34  1  0.00432275  0.66762038  0.67053504  1
  Ni  Ni35  1  0.16709638  0.83539020  0.83443691  1
  Fe  Fe36  1  0.50372575  0.16909853  0.50323932  1
  Ni  Ni37  1  0.33421295  0.00261798  0.66755124  1
  Fe  Fe38  1  0.50085910  0.16901175  0.83395160  1
  Ni  Ni39  1  0.49889873  0.50272429  0.50147140  1
  Fe  Fe40  1  0.33434106  0.33516509  0.66765120  1
  Cr  Cr41  1  0.50002832  0.50157482  0.83542513  1
  Ni  Ni42  1  0.49951641  0.83400085  0.50122696  1
  Ni  Ni43  1  0.33295151  0.67000045  0.66645565  1
  Cr  Cr44  1  0.50118359  0.83442147  0.83499043  1
  Ni  Ni45  1  0.83471096  0.16723398  0.50223662  1
  Fe  Fe46  1  0.66757491  0.00411402  0.66781821  1
  Fe  Fe47  1  0.83585503  0.16859337  0.83462071  1
  Cr  Cr48  1  0.83384646  0.49872796  0.50006378  1
  Ni  Ni49  1  0.66896148  0.33147208  0.66808156  1
  Fe  Fe50  1  0.83727611  0.50085758  0.83695548  1
  Cr  Cr51  1  0.83462549  0.83889012  0.49946631  1
  Cr  Cr52  1  0.66778100  0.66699052  0.66818110  1
  Fe  Fe53  1  0.83765364  0.83563473  0.83674757  1
" 