728,Ni35Fe26Cr37_8,-225.131826083683, 181.098814915306,Ni35Fe26Cr37,"# generated using pymatgen
 data_Cr21Fe14Ni19
_symmetry_space_group_name_H-M   'P 1'
_cell_length_a   7.48144594
_cell_length_b   7.48144594
_cell_length_c   10.58036232
_cell_angle_alpha   90.00000000
_cell_angle_beta   90.00000000
_cell_angle_gamma   90.00000000
_symmetry_Int_Tables_number   1
_chemical_formula_structural   Cr21Fe14Ni19
_chemical_formula_sum   'Cr21 Fe14 Ni19'
_cell_volume   592.20439266
_cell_formula_units_Z   1
loop_
 _symmetry_equiv_pos_site_id
 _symmetry_equiv_pos_as_xyz
  1  'x, y, z'
loop_
 _atom_site_type_symbol
 _atom_site_label
 _atom_site_symmetry_multiplicity
 _atom_site_fract_x
 _atom_site_fract_y
 _atom_site_fract_z
 _atom_site_occupancy
  Ni  Ni0  1  0.99647267  0.99889366  0.00056341  1
  Cr  Cr1  1  0.16388282  0.16559978  0.16652110  1
  Fe  Fe2  1  0.99820335  0.00128769  0.33220159  1
  Ni  Ni3  1  0.00178778  0.33444289  0.99789015  1
  Ni  Ni4  1  0.16648663  0.49994806  0.16728208  1
  Fe  Fe5  1  0.99875768  0.33204268  0.33296448  1
  Ni  Ni6  1  0.99769303  0.66403223  0.99867914  1
  Cr  Cr7  1  0.16474207  0.83157140  0.16600315  1
  Fe  Fe8  1  -0.00090902  0.66321080  0.33194116  1
  Cr  Cr9  1  0.33247996  0.00005464  0.99669427  1
  Cr  Cr10  1  0.49970392  0.16918165  0.16541364  1
  Ni  Ni11  1  0.33290853  0.00115713  0.33576978  1
  Cr  Cr12  1  0.33029613  0.33645075  0.99869719  1
  Ni  Ni13  1  0.49872283  0.50054413  0.16745630  1
  Ni  Ni14  1  0.33014779  0.33371785  0.33293385  1
  Fe  Fe15  1  0.33017676  0.66510533  0.00091957  1
  Ni  Ni16  1  0.49821378  0.82954739  0.16934713  1
  Fe  Fe17  1  0.33482629  0.66412781  0.33140891  1
  Cr  Cr18  1  0.66843825  0.99577414  0.00378810  1
  Fe  Fe19  1  0.83458205  0.16663459  0.16609201  1
  Cr  Cr20  1  0.66720247  0.99746510  0.33001822  1
  Fe  Fe21  1  0.66959465  0.33330517  0.00102762  1
  Cr  Cr22  1  0.83276309  0.49718466  0.16706144  1
  Ni  Ni23  1  0.66462661  0.33282195  0.33074333  1
  Cr  Cr24  1  0.66666892  0.66734617  -0.00003756  1
  Ni  Ni25  1  0.83485008  0.83121910  0.16735551  1
  Ni  Ni26  1  0.66682572  0.66558791  0.33203619  1
  Fe  Fe27  1  0.16305018  0.16791204  0.49674989  1
  Cr  Cr28  1  0.99789716  0.00008282  0.66565572  1
  Ni  Ni29  1  0.16287848  0.16753839  0.83127297  1
  Ni  Ni30  1  0.16432811  0.49807159  0.49614187  1
  Fe  Fe31  1  0.99742403  0.33316137  0.66622095  1
  Ni  Ni32  1  0.16250352  0.49879556  0.83332761  1
  Cr  Cr33  1  0.16654300  0.83149259  0.49589484  1
  Ni  Ni34  1  0.99857593  0.66332557  0.66740567  1
  Cr  Cr35  1  0.16224234  0.83271299  0.83554873  1
  Fe  Fe36  1  0.50034068  0.16614021  0.49794161  1
  Fe  Fe37  1  0.33242617  -0.00018075  0.66322437  1
  Cr  Cr38  1  0.49996551  0.16628959  0.83077639  1
  Cr  Cr39  1  0.50103122  0.49801403  0.49628495  1
  Cr  Cr40  1  0.32819967  0.33124419  0.66426382  1
  Cr  Cr41  1  0.50272532  0.49773488  0.83433280  1
  Fe  Fe42  1  0.50001833  0.83288069  0.49839867  1
  Cr  Cr43  1  0.32910884  0.66277262  0.66550432  1
  Cr  Cr44  1  0.49990051  0.83310500  0.82820217  1
  Ni  Ni45  1  0.83070911  0.16711093  0.49679151  1
  Ni  Ni46  1  0.66643940  0.00017703  0.66265532  1
  Cr  Cr47  1  0.83223951  0.16699567  0.83582930  1
  Cr  Cr48  1  0.83272606  0.49655600  0.50149613  1
  Ni  Ni49  1  0.66644410  0.32977235  0.66559664  1
  Fe  Fe50  1  0.83576307  0.49994923  0.83143959  1
  Cr  Cr51  1  0.83318778  0.83101115  0.49933903  1
  Fe  Fe52  1  0.66786256  0.66546631  0.66600203  1
  Ni  Ni53  1  0.83336202  0.83165073  0.83096878  1
" 