5138,Ni35Fe20Cr43_15,-223.006521542405, 171.420241519833,Ni35Fe20Cr43,"# generated using pymatgen
 data_Cr24Fe11Ni19
_symmetry_space_group_name_H-M   'P 1'
_cell_length_a   7.49797864
_cell_length_b   7.49797864
_cell_length_c   10.60374309
_cell_angle_alpha   90.00000000
_cell_angle_beta   90.00000000
_cell_angle_gamma   90.00000000
_symmetry_Int_Tables_number   1
_chemical_formula_structural   Cr24Fe11Ni19
_chemical_formula_sum   'Cr24 Fe11 Ni19'
_cell_volume   596.13908234
_cell_formula_units_Z   1
loop_
 _symmetry_equiv_pos_site_id
 _symmetry_equiv_pos_as_xyz
  1  'x, y, z'
loop_
 _atom_site_type_symbol
 _atom_site_label
 _atom_site_symmetry_multiplicity
 _atom_site_fract_x
 _atom_site_fract_y
 _atom_site_fract_z
 _atom_site_occupancy
  Cr  Cr0  1  -0.00006370  0.99586428  0.99735750  1
  Ni  Ni1  1  0.16507718  0.16123062  0.16528991  1
  Ni  Ni2  1  -0.00185135  0.99731255  0.33078971  1
  Fe  Fe3  1  -0.00011782  0.33117672  -0.00085905  1
  Cr  Cr4  1  0.16528077  0.50137017  0.16458268  1
  Cr  Cr5  1  0.99775142  0.33074605  0.33052856  1
  Ni  Ni6  1  0.99692587  0.66258446  0.99778376  1
  Fe  Fe7  1  0.16717062  0.83159108  0.16435833  1
  Ni  Ni8  1  -0.00081030  0.66691725  0.32908446  1
  Ni  Ni9  1  0.33590148  0.99656871  -0.00005601  1
  Fe  Fe10  1  0.49809930  0.15974251  0.16341227  1
  Ni  Ni11  1  0.33221778  0.99566165  0.32708396  1
  Cr  Cr12  1  0.33189174  0.32817381  0.99757886  1
  Cr  Cr13  1  0.49820109  0.50159311  0.16334836  1
  Cr  Cr14  1  0.33161817  0.32818322  0.32945345  1
  Ni  Ni15  1  0.33182512  0.66500972  0.99490000  1
  Ni  Ni16  1  0.49649427  0.83254531  0.16493680  1
  Ni  Ni17  1  0.33147727  0.66832021  0.33187677  1
  Ni  Ni18  1  0.66146177  0.99708320  0.99524466  1
  Cr  Cr19  1  0.82987825  0.16292097  0.16380297  1
  Ni  Ni20  1  0.66332940  0.99748881  0.33251787  1
  Fe  Fe21  1  0.66306663  0.33040092  0.99766404  1
  Fe  Fe22  1  0.83189396  0.49904369  0.16205772  1
  Cr  Cr23  1  0.66435608  0.32995376  0.32958020  1
  Fe  Fe24  1  0.66135104  0.66859413  0.99663136  1
  Cr  Cr25  1  0.82981479  0.83163095  0.16360305  1
  Cr  Cr26  1  0.66519093  0.66593021  0.33096485  1
  Cr  Cr27  1  0.16312733  0.16269094  0.49872236  1
  Ni  Ni28  1  0.99507087  -0.00150778  0.66456707  1
  Cr  Cr29  1  0.16474740  0.16589436  0.83055804  1
  Cr  Cr30  1  0.16711792  0.49963135  0.50004044  1
  Fe  Fe31  1  -0.00167784  0.33108447  0.66465804  1
  Ni  Ni32  1  0.16677057  0.49811277  0.83060659  1
  Cr  Cr33  1  0.16626095  0.83159054  0.49412267  1
  Cr  Cr34  1  0.99649933  0.66669709  0.66648477  1
  Cr  Cr35  1  0.16499450  0.83013778  0.83397768  1
  Cr  Cr36  1  0.49979573  0.16330202  0.49714415  1
  Cr  Cr37  1  0.33304372  -0.00181190  0.66735457  1
  Ni  Ni38  1  0.49947847  0.16458986  0.83303016  1
  Cr  Cr39  1  0.49510508  0.49988728  0.49949041  1
  Ni  Ni40  1  0.33397383  0.33218848  0.66780558  1
  Ni  Ni41  1  0.49631276  0.49813361  0.83083125  1
  Fe  Fe42  1  0.49700316  0.83338793  0.49654615  1
  Fe  Fe43  1  0.33147988  0.66540638  0.66752626  1
  Ni  Ni44  1  0.49925498  0.83122088  0.83253997  1
  Ni  Ni45  1  0.83038629  0.16171377  0.49957490  1
  Fe  Fe46  1  0.66384117  -0.00170217  0.66622064  1
  Cr  Cr47  1  0.82973134  0.16258083  0.82934739  1
  Cr  Cr48  1  0.83129815  0.49597205  0.49576382  1
  Fe  Fe49  1  0.66344242  0.32988731  0.66558267  1
  Cr  Cr50  1  0.83104433  0.49741143  0.83629482  1
  Cr  Cr51  1  0.83133471  0.83543879  0.49740107  1
  Cr  Cr52  1  0.66322792  0.66682077  0.66636044  1
  Ni  Ni53  1  0.82852153  0.83222138  0.83254931  1
" 