18,Ni35Fe16Cr47_9,-220.455288804774, 168.792330809694,Ni35Fe16Cr47,"# generated using pymatgen
 data_Cr27Fe8Ni19
_symmetry_space_group_name_H-M   'P 1'
_cell_length_a   7.50729829
_cell_length_b   7.50729829
_cell_length_c   10.61692306
_cell_angle_alpha   90.00000000
_cell_angle_beta   90.00000000
_cell_angle_gamma   90.00000000
_symmetry_Int_Tables_number   1
_chemical_formula_structural   Cr27Fe8Ni19
_chemical_formula_sum   'Cr27 Fe8 Ni19'
_cell_volume   598.36476793
_cell_formula_units_Z   1
loop_
 _symmetry_equiv_pos_site_id
 _symmetry_equiv_pos_as_xyz
  1  'x, y, z'
loop_
 _atom_site_type_symbol
 _atom_site_label
 _atom_site_symmetry_multiplicity
 _atom_site_fract_x
 _atom_site_fract_y
 _atom_site_fract_z
 _atom_site_occupancy
  Ni  Ni0  1  -0.00060884  0.99638245  -0.00181258  1
  Ni  Ni1  1  0.16617515  0.16301004  0.16265833  1
  Cr  Cr2  1  -0.00162429  0.99605179  0.33016722  1
  Cr  Cr3  1  0.99656965  0.33345867  0.99639346  1
  Cr  Cr4  1  0.16547787  0.49833471  0.16475726  1
  Cr  Cr5  1  -0.00189663  0.33239816  0.33067832  1
  Ni  Ni6  1  0.99646694  0.66320068  -0.00206621  1
  Ni  Ni7  1  0.16493222  0.83107100  0.16151658  1
  Fe  Fe8  1  -0.00267084  0.66306335  0.32981632  1
  Ni  Ni9  1  0.32841205  -0.00244240  0.00024897  1
  Fe  Fe10  1  0.49462510  0.16530474  0.16258985  1
  Cr  Cr11  1  0.33123705  -0.00168262  0.32994566  1
  Ni  Ni12  1  0.33002390  0.33068283  -0.00096421  1
  Cr  Cr13  1  0.49672942  0.49722317  0.16238745  1
  Ni  Ni14  1  0.33149952  0.32981538  0.33088984  1
  Ni  Ni15  1  0.32933311  0.66359099  0.99663070  1
  Cr  Cr16  1  0.49627083  0.82833925  0.16291038  1
  Ni  Ni17  1  0.33093371  0.66434172  0.33037666  1
  Cr  Cr18  1  0.66309534  0.99652502  -0.00250453  1
  Cr  Cr19  1  0.83158690  0.16454623  0.16090497  1
  Fe  Fe20  1  0.66297921  0.99708619  0.33112937  1
  Fe  Fe21  1  0.66447886  0.33349667  0.99663121  1
  Ni  Ni22  1  0.82918135  0.49899003  0.16329039  1
  Cr  Cr23  1  0.66378107  0.33225545  0.32952104  1
  Ni  Ni24  1  0.66603905  0.66110760  -0.00207914  1
  Cr  Cr25  1  0.83258670  0.82927476  0.16520949  1
  Fe  Fe26  1  0.66528632  0.66331272  0.33085486  1
  Ni  Ni27  1  0.16533822  0.16446150  0.49583705  1
  Cr  Cr28  1  -0.00254775  0.99692509  0.66437711  1
  Cr  Cr29  1  0.16234796  0.16400064  0.83310017  1
  Cr  Cr30  1  0.16410485  0.49733924  0.49656017  1
  Cr  Cr31  1  0.99615066  0.33340997  0.66482782  1
  Ni  Ni32  1  0.16360506  0.49908594  0.83135049  1
  Cr  Cr33  1  0.16199178  0.82846397  0.49824615  1
  Fe  Fe34  1  0.99405123  0.66211116  0.66484303  1
  Cr  Cr35  1  0.16412222  0.82842249  0.83312267  1
  Fe  Fe36  1  0.49791475  0.16574100  0.49677187  1
  Cr  Cr37  1  0.33084149  0.99679587  0.66287749  1
  Cr  Cr38  1  0.49869429  0.16616768  0.83211322  1
  Cr  Cr39  1  0.49743355  0.49736419  0.49747734  1
  Cr  Cr40  1  0.33009791  0.33040472  0.66238027  1
  Cr  Cr41  1  0.49688114  0.49814797  0.83151349  1
  Cr  Cr42  1  0.49885633  0.82800842  0.49751537  1
  Fe  Fe43  1  0.33084325  0.66235869  0.66495936  1
  Cr  Cr44  1  0.49640001  0.82774341  0.83122528  1
  Cr  Cr45  1  0.83059035  0.16414859  0.49875340  1
  Cr  Cr46  1  0.66381174  0.99643588  0.66249671  1
  Ni  Ni47  1  0.82976095  0.16663161  0.83139155  1
  Ni  Ni48  1  0.82912283  0.50045675  0.49773140  1
  Ni  Ni49  1  0.66614780  0.33498020  0.66522625  1
  Ni  Ni50  1  0.82974377  0.49752332  0.83092743  1
  Ni  Ni51  1  0.82936158  0.82723469  0.49554936  1
  Ni  Ni52  1  0.66731215  0.66132473  0.66259544  1
  Cr  Cr53  1  0.83135959  0.83081211  0.83138688  1
" 