7146,Ni35Fe16Cr47_7,-219.65632562779, 155.682267116062,Ni35Fe16Cr47,"# generated using pymatgen
 data_Cr27Fe8Ni19
_symmetry_space_group_name_H-M   'P 1'
_cell_length_a   7.51442159
_cell_length_b   7.51442159
_cell_length_c   10.62699692
_cell_angle_alpha   90.00000000
_cell_angle_beta   90.00000000
_cell_angle_gamma   90.00000000
_symmetry_Int_Tables_number   1
_chemical_formula_structural   Cr27Fe8Ni19
_chemical_formula_sum   'Cr27 Fe8 Ni19'
_cell_volume   600.06965949
_cell_formula_units_Z   1
loop_
 _symmetry_equiv_pos_site_id
 _symmetry_equiv_pos_as_xyz
  1  'x, y, z'
loop_
 _atom_site_type_symbol
 _atom_site_label
 _atom_site_symmetry_multiplicity
 _atom_site_fract_x
 _atom_site_fract_y
 _atom_site_fract_z
 _atom_site_occupancy
  Ni  Ni0  1  -0.00194068  -0.00105236  0.99444542  1
  Cr  Cr1  1  0.16464475  0.16713367  0.16381615  1
  Cr  Cr2  1  -0.00120068  0.99507329  0.33022277  1
  Ni  Ni3  1  -0.00223572  0.32741884  0.99620866  1
  Cr  Cr4  1  0.16357826  0.49573676  0.16251033  1
  Fe  Fe5  1  0.99599197  0.33034521  0.33066358  1
  Ni  Ni6  1  -0.00253753  0.66517948  -0.00115617  1
  Ni  Ni7  1  0.16337555  0.82902000  0.16629957  1
  Ni  Ni8  1  -0.00031015  0.66267273  0.33176645  1
  Cr  Cr9  1  0.32797966  -0.00218152  -0.00043466  1
  Cr  Cr10  1  0.49648726  0.16300230  0.16792400  1
  Ni  Ni11  1  0.32956377  0.99595667  0.32915063  1
  Ni  Ni12  1  0.32977401  0.33020312  0.99457237  1
  Ni  Ni13  1  0.49561371  0.49669917  0.16511623  1
  Ni  Ni14  1  0.33268815  0.33164049  0.33031444  1
  Cr  Cr15  1  0.33249645  0.66200631  -0.00017808  1
  Ni  Ni16  1  0.49727011  0.82937509  0.16464062  1
  Fe  Fe17  1  0.33126166  0.66435472  0.32789024  1
  Ni  Ni18  1  0.66449166  0.99658941  -0.00178525  1
  Cr  Cr19  1  0.82909724  0.16316305  0.16401766  1
  Ni  Ni20  1  0.66116426  -0.00288241  0.32825328  1
  Cr  Cr21  1  0.66115950  0.33128545  -0.00292850  1
  Cr  Cr22  1  0.83298107  0.49697383  0.16440233  1
  Ni  Ni23  1  0.66105019  0.33178815  0.33205279  1
  Ni  Ni24  1  0.66191552  0.66177457  -0.00218471  1
  Cr  Cr25  1  0.82930041  0.82982765  0.15917736  1
  Cr  Cr26  1  0.66424063  0.66090581  0.33062742  1
  Cr  Cr27  1  0.16601078  0.16607368  0.49767436  1
  Fe  Fe28  1  0.99681420  0.00067039  0.66446393  1
  Ni  Ni29  1  0.16114591  0.16578221  0.82757841  1
  Cr  Cr30  1  0.16370218  0.49627608  0.49376760  1
  Ni  Ni31  1  0.99517100  0.32866796  0.66331028  1
  Cr  Cr32  1  0.16401645  0.49321590  0.83336004  1
  Fe  Fe33  1  0.16509192  0.83190832  0.49495434  1
  Cr  Cr34  1  -0.00234598  0.66344948  0.66008362  1
  Cr  Cr35  1  0.16221497  0.83126384  0.82837549  1
  Cr  Cr36  1  0.49626198  0.16335124  0.49499055  1
  Ni  Ni37  1  0.32564284  -0.00101773  0.66234230  1
  Cr  Cr38  1  0.49322533  0.16342233  0.82838652  1
  Fe  Fe39  1  0.49688713  0.49395744  0.49618693  1
  Fe  Fe40  1  0.33065511  0.33082542  0.66433570  1
  Ni  Ni41  1  0.49768312  0.49327417  0.82849989  1
  Cr  Cr42  1  0.49606337  0.83274536  0.49555206  1
  Cr  Cr43  1  0.33085200  0.66417764  0.66208885  1
  Cr  Cr44  1  0.49884096  0.82937000  0.83194271  1
  Cr  Cr45  1  0.82861915  0.16401295  0.49497441  1
  Cr  Cr46  1  0.66386893  -0.00058747  0.66527004  1
  Fe  Fe47  1  0.83123371  0.16605000  0.83135130  1
  Fe  Fe48  1  0.83062609  0.49344351  0.49569069  1
  Ni  Ni49  1  0.66512315  0.33050488  0.66233774  1
  Cr  Cr50  1  0.83227615  0.49852181  0.83202230  1
  Cr  Cr51  1  0.83000533  0.82920949  0.49711128  1
  Cr  Cr52  1  0.66247634  0.65821963  0.66317705  1
  Cr  Cr53  1  0.82971786  0.83098298  0.83454765  1
" 