7128,Ni35Cr65_4,-225.877150307475, 136.912844098084,Ni35Cr65,"# generated using pymatgen
 data_CrNi2
_symmetry_space_group_name_H-M   'P 1'
_cell_length_a   7.49268971
_cell_length_b   7.49268971
_cell_length_c   10.59626341
_cell_angle_alpha   90.00000000
_cell_angle_beta   90.00000000
_cell_angle_gamma   90.00000000
_symmetry_Int_Tables_number   1
_chemical_formula_structural   CrNi2
_chemical_formula_sum   'Cr18 Ni36'
_cell_volume   594.87845713
_cell_formula_units_Z   18
loop_
 _symmetry_equiv_pos_site_id
 _symmetry_equiv_pos_as_xyz
  1  'x, y, z'
loop_
 _atom_site_type_symbol
 _atom_site_label
 _atom_site_symmetry_multiplicity
 _atom_site_fract_x
 _atom_site_fract_y
 _atom_site_fract_z
 _atom_site_occupancy
  Cr  Cr0  1  -0.00169118  0.00052341  -0.00139944  1
  Ni  Ni1  1  0.16451028  0.16867517  0.16654200  1
  Ni  Ni2  1  0.99736406  0.00274272  0.33113211  1
  Ni  Ni3  1  0.00078265  0.33257711  -0.00051761  1
  Ni  Ni4  1  0.16435928  0.49346644  0.16385927  1
  Ni  Ni5  1  -0.00048152  0.32992067  0.33128593  1
  Cr  Cr6  1  -0.00107879  0.66175250  0.99815179  1
  Cr  Cr7  1  0.16537869  0.83345309  0.16632522  1
  Cr  Cr8  1  0.99560968  0.66044987  0.33105750  1
  Cr  Cr9  1  0.33369703  -0.00071388  0.99622191  1
  Ni  Ni10  1  0.49721813  0.16300724  0.16558593  1
  Ni  Ni11  1  0.33270193  0.00311769  0.33087074  1
  Ni  Ni12  1  0.32845438  0.33042483  -0.00169946  1
  Cr  Cr13  1  0.49473449  0.49704930  0.16507804  1
  Ni  Ni14  1  0.32855130  0.32741792  0.33179536  1
  Ni  Ni15  1  0.33056355  0.66462921  0.99708324  1
  Ni  Ni16  1  0.50046003  0.83400414  0.16569214  1
  Cr  Cr17  1  0.33115901  0.66401370  0.33138670  1
  Ni  Ni18  1  0.66269252  -0.00134101  0.00005412  1
  Ni  Ni19  1  0.83286762  0.16413350  0.16564672  1
  Ni  Ni20  1  0.66469150  -0.00032513  0.32949240  1
  Cr  Cr21  1  0.66690541  0.32880634  -0.00126292  1
  Ni  Ni22  1  0.83391183  0.49642214  0.16581861  1
  Cr  Cr23  1  0.66742054  0.33094218  0.33262255  1
  Cr  Cr24  1  0.66570864  0.66672532  0.00020301  1
  Ni  Ni25  1  0.82857206  0.83446245  0.16718190  1
  Ni  Ni26  1  0.66718259  0.66622788  0.32968697  1
  Ni  Ni27  1  0.16341939  0.16790696  0.49704895  1
  Ni  Ni28  1  -0.00082826  0.00064163  0.66473727  1
  Ni  Ni29  1  0.16499060  0.16843112  0.83082272  1
  Ni  Ni30  1  0.16364109  0.49414585  0.49992746  1
  Ni  Ni31  1  -0.00089701  0.33259499  0.66418214  1
  Ni  Ni32  1  0.16480476  0.49654085  0.83125387  1
  Cr  Cr33  1  0.16323230  0.83334137  0.49916339  1
  Ni  Ni34  1  -0.00064586  0.66181540  0.66586237  1
  Ni  Ni35  1  0.16611515  0.82987281  0.82934251  1
  Ni  Ni36  1  0.49835422  0.16544673  0.49834760  1
  Cr  Cr37  1  0.33133166  0.00063807  0.66631893  1
  Ni  Ni38  1  0.49774502  0.16492528  0.83076674  1
  Cr  Cr39  1  0.49730801  0.49673498  0.50021630  1
  Ni  Ni40  1  0.32984832  0.33083894  0.66472541  1
  Cr  Cr41  1  0.49689867  0.49673334  0.83011439  1
  Cr  Cr42  1  0.49988766  0.83219125  0.49745370  1
  Ni  Ni43  1  0.32949861  0.66360900  0.66723810  1
  Ni  Ni44  1  0.49814929  0.83150504  0.83110104  1
  Ni  Ni45  1  0.83295957  0.16563739  0.49916717  1
  Ni  Ni46  1  0.66392863  0.00066101  0.66518367  1
  Cr  Cr47  1  0.83249848  0.16658763  0.83013037  1
  Ni  Ni48  1  0.83325508  0.49649393  0.50044071  1
  Ni  Ni49  1  0.66597342  0.33037168  0.66399748  1
  Ni  Ni50  1  0.83439538  0.49708975  0.82891672  1
  Cr  Cr51  1  0.83158684  0.83385585  0.49904419  1
  Ni  Ni52  1  0.66627200  0.66366819  0.66540686  1
  Cr  Cr53  1  0.83162965  0.83275452  0.82879360  1
" 