7943,Ni35Fe47Cr17_2,-231.389140442496, 192.478446326826,Ni35Fe47Cr17,"# generated using pymatgen
 data_Cr11Fe25Ni18
_symmetry_space_group_name_H-M   'P 1'
_cell_length_a   7.43822162
_cell_length_b   7.43822162
_cell_length_c   10.51923389
_cell_angle_alpha   90.00000000
_cell_angle_beta   90.00000000
_cell_angle_gamma   90.00000000
_symmetry_Int_Tables_number   1
_chemical_formula_structural   Cr11Fe25Ni18
_chemical_formula_sum   'Cr11 Fe25 Ni18'
_cell_volume   581.99913445
_cell_formula_units_Z   1
loop_
 _symmetry_equiv_pos_site_id
 _symmetry_equiv_pos_as_xyz
  1  'x, y, z'
loop_
 _atom_site_type_symbol
 _atom_site_label
 _atom_site_symmetry_multiplicity
 _atom_site_fract_x
 _atom_site_fract_y
 _atom_site_fract_z
 _atom_site_occupancy
  Cr  Cr0  1  0.99948816  0.99944077  1.00187186  1
  Cr  Cr1  1  0.16927859  0.16721186  0.17145962  1
  Ni  Ni2  1  0.00234596  0.99894348  0.33571622  1
  Cr  Cr3  1  1.00157134  0.33724299  0.00345739  1
  Fe  Fe4  1  0.16961824  0.50433667  0.17001257  1
  Ni  Ni5  1  0.00302020  0.33644114  0.33548605  1
  Ni  Ni6  1  0.00597466  0.66995974  0.00232676  1
  Fe  Fe7  1  0.16863758  0.83281332  0.16999167  1
  Ni  Ni8  1  0.00393777  0.67007946  0.33578024  1
  Fe  Fe9  1  0.33622525  0.99888870  1.00063687  1
  Cr  Cr10  1  0.50119203  0.16871327  0.16983789  1
  Fe  Fe11  1  0.33559685  0.99965852  0.33824652  1
  Fe  Fe12  1  0.33534661  0.33777367  1.00154834  1
  Ni  Ni13  1  0.49937670  0.50457420  0.16842462  1
  Fe  Fe14  1  0.33619862  0.33803818  0.33723822  1
  Fe  Fe15  1  0.33623136  0.66935615  0.00214428  1
  Fe  Fe16  1  0.50408685  0.83457509  0.16885373  1
  Fe  Fe17  1  0.33620748  0.66848552  0.33551083  1
  Ni  Ni18  1  0.66589634  1.00010589  1.00135090  1
  Ni  Ni19  1  0.83526644  0.16506446  0.17107368  1
  Ni  Ni20  1  0.66759623  1.00023715  0.33478009  1
  Cr  Cr21  1  0.66843791  0.33262871  1.00192818  1
  Cr  Cr22  1  0.83307857  0.50507873  0.17255104  1
  Ni  Ni23  1  0.66675781  0.33568389  0.33589562  1
  Fe  Fe24  1  0.66874438  0.67160942  0.00333600  1
  Ni  Ni25  1  0.83559026  0.83483505  0.16858373  1
  Ni  Ni26  1  0.66684419  0.67036245  0.33663630  1
  Fe  Fe27  1  0.17053778  0.16729209  0.50078244  1
  Fe  Fe28  1  1.00083701  0.99904231  0.66797131  1
  Cr  Cr29  1  0.17083889  0.16682583  0.83305302  1
  Fe  Fe30  1  0.16859997  0.50336369  0.50072325  1
  Cr  Cr31  1  0.00198589  0.33733083  0.66700010  1
  Fe  Fe32  1  0.17053047  0.50502834  0.83507289  1
  Fe  Fe33  1  0.16904339  0.83548343  0.50213462  1
  Ni  Ni34  1  0.00488941  0.67020479  0.66792935  1
  Fe  Fe35  1  0.16891576  0.83269110  0.83364279  1
  Ni  Ni36  1  0.49915395  0.16875766  0.50205060  1
  Ni  Ni37  1  0.33707217  0.99979392  0.66759579  1
  Fe  Fe38  1  0.50218921  0.16571815  0.83439734  1
  Ni  Ni39  1  0.50021911  0.50340285  0.50204218  1
  Fe  Fe40  1  0.33583348  0.33583386  0.66697633  1
  Fe  Fe41  1  0.49909467  0.50307118  0.83532102  1
  Fe  Fe42  1  0.50419308  0.83674654  0.50193273  1
  Fe  Fe43  1  0.33633203  0.66902915  0.66809723  1
  Fe  Fe44  1  0.50238593  0.83597615  0.83504990  1
  Cr  Cr45  1  0.83481978  0.16467987  0.49908567  1
  Ni  Ni46  1  0.66591071  1.00102918  0.66950824  1
  Ni  Ni47  1  0.83492335  0.16543013  0.83480497  1
  Fe  Fe48  1  0.83385123  0.50431511  0.49967229  1
  Cr  Cr49  1  0.66750860  0.33398397  0.66771005  1
  Cr  Cr50  1  0.83378163  0.50728981  0.83423660  1
  Ni  Ni51  1  0.83628452  0.83315436  0.50303513  1
  Fe  Fe52  1  0.66776608  0.67123055  0.66612768  1
  Fe  Fe53  1  0.83459100  0.83579217  0.83400273  1
" 