561,Ni35Fe47Cr17_16,-231.234399973166, 194.315338934194,Ni35Fe47Cr17,"# generated using pymatgen
 data_Cr11Fe25Ni18
_symmetry_space_group_name_H-M   'P 1'
_cell_length_a   7.44250871
_cell_length_b   7.44250871
_cell_length_c   10.52529676
_cell_angle_alpha   90.00000000
_cell_angle_beta   90.00000000
_cell_angle_gamma   90.00000000
_symmetry_Int_Tables_number   1
_chemical_formula_structural   Cr11Fe25Ni18
_chemical_formula_sum   'Cr11 Fe25 Ni18'
_cell_volume   583.00603784
_cell_formula_units_Z   1
loop_
 _symmetry_equiv_pos_site_id
 _symmetry_equiv_pos_as_xyz
  1  'x, y, z'
loop_
 _atom_site_type_symbol
 _atom_site_label
 _atom_site_symmetry_multiplicity
 _atom_site_fract_x
 _atom_site_fract_y
 _atom_site_fract_z
 _atom_site_occupancy
  Cr  Cr0  1  1.00029140  0.00489586  0.00203244  1
  Ni  Ni1  1  0.16890808  0.16977480  0.16921123  1
  Fe  Fe2  1  0.00293732  0.00262604  0.33553541  1
  Fe  Fe3  1  0.00184016  0.33380318  0.00292820  1
  Ni  Ni4  1  0.16696310  0.49939163  0.16837324  1
  Ni  Ni5  1  0.00213893  0.33467425  0.33337025  1
  Cr  Cr6  1  1.00152405  0.66591160  0.00321292  1
  Cr  Cr7  1  0.16931395  0.83651014  0.16902462  1
  Fe  Fe8  1  1.00071358  0.66850830  0.33536129  1
  Ni  Ni9  1  0.33694164  0.00175512  0.00213670  1
  Cr  Cr10  1  0.50046508  0.16811169  0.16764178  1
  Ni  Ni11  1  0.33386088  0.00234649  0.33653346  1
  Fe  Fe12  1  0.33386518  0.33584084  1.00101416  1
  Fe  Fe13  1  0.50277708  0.50157707  0.16720829  1
  Fe  Fe14  1  0.33355570  0.33373825  0.33569784  1
  Fe  Fe15  1  0.33847766  0.66718331  0.00185233  1
  Fe  Fe16  1  0.50280811  0.83424103  0.16646756  1
  Cr  Cr17  1  0.33496350  0.66812671  0.33516937  1
  Ni  Ni18  1  0.66765563  1.00028974  1.00086312  1
  Ni  Ni19  1  0.83500002  0.17119547  0.16775340  1
  Cr  Cr20  1  0.66894690  1.00109334  0.33484281  1
  Ni  Ni21  1  0.66877306  0.33567422  0.00315152  1
  Ni  Ni22  1  0.83391264  0.50101109  0.16950526  1
  Fe  Fe23  1  0.66864454  0.33596492  0.33423826  1
  Ni  Ni24  1  0.66575510  0.66898143  0.00266050  1
  Fe  Fe25  1  0.83326363  0.83435668  0.16840716  1
  Fe  Fe26  1  0.66935702  0.66767875  0.33394703  1
  Fe  Fe27  1  0.16783072  0.16789000  0.50162676  1
  Fe  Fe28  1  1.00113839  0.00236204  0.66781543  1
  Ni  Ni29  1  0.16956631  0.17056305  0.83454704  1
  Fe  Fe30  1  0.16794642  0.50160478  0.50292732  1
  Ni  Ni31  1  0.00519532  0.33432944  0.66997596  1
  Ni  Ni32  1  0.16962285  0.49940697  0.83352562  1
  Ni  Ni33  1  0.16772953  0.83636710  0.50242010  1
  Ni  Ni34  1  0.00293935  0.66922336  0.66679441  1
  Cr  Cr35  1  0.16906638  0.83497845  0.83359895  1
  Fe  Fe36  1  0.50007319  0.16745849  0.50167644  1
  Fe  Fe37  1  0.33373087  0.00242276  0.66691881  1
  Cr  Cr38  1  0.50053384  0.16746451  0.83661577  1
  Fe  Fe39  1  0.50026747  0.50233622  0.50194917  1
  Ni  Ni40  1  0.33220991  0.33622151  0.66713591  1
  Fe  Fe41  1  0.49933123  0.50346639  0.83578752  1
  Fe  Fe42  1  0.50154908  0.83515003  0.50253248  1
  Fe  Fe43  1  0.33431391  0.66628954  0.66743196  1
  Fe  Fe44  1  0.50292516  0.83386163  0.83594981  1
  Fe  Fe45  1  0.83704297  0.16660938  0.50114446  1
  Fe  Fe46  1  0.67007535  0.99967524  0.66790294  1
  Fe  Fe47  1  0.83707872  0.16711022  0.83566130  1
  Cr  Cr48  1  0.83558138  0.50307054  0.50058757  1
  Cr  Cr49  1  0.66806372  0.33365037  0.66730527  1
  Cr  Cr50  1  0.83548028  0.50236957  0.83493139  1
  Ni  Ni51  1  0.83623289  0.83439052  0.50219523  1
  Fe  Fe52  1  0.66804075  0.67047910  0.66868470  1
  Ni  Ni53  1  0.83180253  0.83500928  0.83323999  1
" 