7335,Ni35Cr65_5,-226.129731747115, 140.822882885377,Ni35Cr65,"# generated using pymatgen
 data_CrNi2
_symmetry_space_group_name_H-M   'P 1'
_cell_length_a   7.49508900
_cell_length_b   7.49508900
_cell_length_c   10.59965651
_cell_angle_alpha   90.00000000
_cell_angle_beta   90.00000000
_cell_angle_gamma   90.00000000
_symmetry_Int_Tables_number   1
_chemical_formula_structural   CrNi2
_chemical_formula_sum   'Cr18 Ni36'
_cell_volume   595.45011065
_cell_formula_units_Z   18
loop_
 _symmetry_equiv_pos_site_id
 _symmetry_equiv_pos_as_xyz
  1  'x, y, z'
loop_
 _atom_site_type_symbol
 _atom_site_label
 _atom_site_symmetry_multiplicity
 _atom_site_fract_x
 _atom_site_fract_y
 _atom_site_fract_z
 _atom_site_occupancy
  Cr  Cr0  1  0.00109811  -0.00087171  0.00235874  1
  Ni  Ni1  1  0.16520989  0.16506798  0.16681865  1
  Ni  Ni2  1  0.99711471  0.99714392  0.32806960  1
  Ni  Ni3  1  -0.00149720  0.33399124  0.99794603  1
  Ni  Ni4  1  0.16526913  0.49972697  0.16621866  1
  Ni  Ni5  1  -0.00032038  0.33312535  0.33047090  1
  Ni  Ni6  1  -0.00077443  0.66179325  0.00018036  1
  Ni  Ni7  1  0.16612795  0.82973806  0.16566727  1
  Ni  Ni8  1  0.00003614  0.66446719  0.33096833  1
  Ni  Ni9  1  0.33198053  0.99659679  0.00019077  1
  Ni  Ni10  1  0.49825431  0.16496750  0.16715655  1
  Ni  Ni11  1  0.33212362  0.99678848  0.32716832  1
  Cr  Cr12  1  0.32950560  0.33353537  -0.00027856  1
  Ni  Ni13  1  0.49620073  0.49819798  0.16482111  1
  Ni  Ni14  1  0.33096076  0.33435975  0.32931981  1
  Ni  Ni15  1  0.33223367  0.66481551  -0.00012854  1
  Ni  Ni16  1  0.49573934  0.83074818  0.16421345  1
  Ni  Ni17  1  0.33089446  0.66308311  0.32999802  1
  Cr  Cr18  1  0.66442561  0.99571261  0.00219047  1
  Ni  Ni19  1  0.83132978  0.16614226  0.16734347  1
  Ni  Ni20  1  0.66511737  0.99670225  0.32909920  1
  Ni  Ni21  1  0.66470901  0.33503215  0.00029028  1
  Cr  Cr22  1  0.83207694  0.49780453  0.16274719  1
  Ni  Ni23  1  0.66369551  0.33168680  0.32949257  1
  Ni  Ni24  1  0.66277847  0.66260122  -0.00184659  1
  Ni  Ni25  1  0.83296060  0.83129820  0.16628131  1
  Cr  Cr26  1  0.66437941  0.66491484  0.33174051  1
  Cr  Cr27  1  0.16469409  0.16708380  0.49586393  1
  Cr  Cr28  1  0.99796872  -0.00140206  0.66516525  1
  Ni  Ni29  1  0.16357350  0.16825011  0.83309206  1
  Ni  Ni30  1  0.16405870  0.49978502  0.49647125  1
  Ni  Ni31  1  -0.00109546  0.33794626  0.66620393  1
  Ni  Ni32  1  0.16297880  0.49942378  0.83160937  1
  Cr  Cr33  1  0.16591824  0.82795419  0.49541875  1
  Ni  Ni34  1  0.99729335  0.65990287  0.66304776  1
  Cr  Cr35  1  0.16741157  0.82777038  0.83388869  1
  Cr  Cr36  1  0.49734716  0.16499669  0.49211993  1
  Cr  Cr37  1  0.33235331  0.99641331  0.66783288  1
  Cr  Cr38  1  0.49764581  0.16453666  0.83412145  1
  Ni  Ni39  1  0.49708939  0.50146415  0.49611778  1
  Cr  Cr40  1  0.32842743  0.33628451  0.66513437  1
  Ni  Ni41  1  0.49882397  0.50310051  0.83321457  1
  Ni  Ni42  1  0.49837167  0.82787634  0.49717843  1
  Ni  Ni43  1  0.33321928  0.66232807  0.66450587  1
  Ni  Ni44  1  0.49710166  0.82516114  0.83277026  1
  Cr  Cr45  1  0.83146892  0.16700983  0.49435501  1
  Cr  Cr46  1  0.66488250  0.99147819  0.66224367  1
  Cr  Cr47  1  0.83200608  0.17075687  0.83288361  1
  Ni  Ni48  1  0.83323528  0.50012078  0.49821276  1
  Cr  Cr49  1  0.66413994  0.33696272  0.66405755  1
  Ni  Ni50  1  0.83215015  0.49960674  0.83281496  1
  Ni  Ni51  1  0.83143180  0.82749573  0.49606528  1
  Ni  Ni52  1  0.66397989  0.66259444  0.66388623  1
  Cr  Cr53  1  0.83087946  0.82491405  0.83221134  1
" 