5902,Ni35Fe39Cr24_11,-229.996889715862, 198.611233053044,Ni35Fe39Cr24,"# generated using pymatgen
 data_Cr14Fe21Ni19
_symmetry_space_group_name_H-M   'P 1'
_cell_length_a   7.45129856
_cell_length_b   7.45129856
_cell_length_c   10.53772747
_cell_angle_alpha   90.00000000
_cell_angle_beta   90.00000000
_cell_angle_gamma   90.00000000
_symmetry_Int_Tables_number   1
_chemical_formula_structural   Cr14Fe21Ni19
_chemical_formula_sum   'Cr14 Fe21 Ni19'
_cell_volume   585.07412593
_cell_formula_units_Z   1
loop_
 _symmetry_equiv_pos_site_id
 _symmetry_equiv_pos_as_xyz
  1  'x, y, z'
loop_
 _atom_site_type_symbol
 _atom_site_label
 _atom_site_symmetry_multiplicity
 _atom_site_fract_x
 _atom_site_fract_y
 _atom_site_fract_z
 _atom_site_occupancy
  Fe  Fe0  1  0.99986802  0.00189690  0.00271483  1
  Ni  Ni1  1  0.16563226  0.16586639  0.16778932  1
  Fe  Fe2  1  0.00160400  1.00095977  0.33198643  1
  Ni  Ni3  1  0.99893671  0.33351763  1.00027766  1
  Cr  Cr4  1  0.16355160  0.50323423  0.16584216  1
  Ni  Ni5  1  1.00074295  0.33171560  0.33404912  1
  Ni  Ni6  1  0.99673158  0.67040614  1.00023973  1
  Ni  Ni7  1  0.16664469  0.83568238  0.16684895  1
  Fe  Fe8  1  1.00093983  0.67046176  0.33171964  1
  Ni  Ni9  1  0.33125196  0.00241315  1.00037432  1
  Ni  Ni10  1  0.50341330  0.16603305  0.16623324  1
  Ni  Ni11  1  0.33254966  1.00066372  0.33550162  1
  Cr  Cr12  1  0.33506271  0.32978068  0.00479411  1
  Fe  Fe13  1  0.50468876  0.50186776  0.16676933  1
  Cr  Cr14  1  0.33399763  0.33214662  0.33031669  1
  Fe  Fe15  1  0.33330442  0.66888324  0.00205342  1
  Cr  Cr16  1  0.50101271  0.83721124  0.16646599  1
  Fe  Fe17  1  0.33529585  0.67083722  0.33473794  1
  Fe  Fe18  1  0.67028798  0.00418307  0.00201198  1
  Ni  Ni19  1  0.83380530  0.16856481  0.16875485  1
  Ni  Ni20  1  0.66800932  0.99856622  0.33307522  1
  Ni  Ni21  1  0.67000695  0.33579657  0.00226963  1
  Fe  Fe22  1  0.83377555  0.50061124  0.16686858  1
  Fe  Fe23  1  0.66868821  0.33250739  0.33097972  1
  Ni  Ni24  1  0.67214199  0.66770799  0.00193375  1
  Ni  Ni25  1  0.83508804  0.83499557  0.16709820  1
  Ni  Ni26  1  0.66814036  0.66785049  0.33318339  1
  Fe  Fe27  1  0.16627390  0.16447300  0.49872473  1
  Cr  Cr28  1  0.00157068  0.00120340  0.66849383  1
  Fe  Fe29  1  0.16754816  0.16662881  0.83668742  1
  Cr  Cr30  1  0.16500253  0.50248414  0.50191560  1
  Fe  Fe31  1  0.99725151  0.33237840  0.66907505  1
  Cr  Cr32  1  0.16323038  0.50270640  0.83509108  1
  Ni  Ni33  1  0.17019594  0.83388432  0.50038172  1
  Fe  Fe34  1  0.00112583  0.66971644  0.66961327  1
  Fe  Fe35  1  0.16681832  0.83559128  0.83668549  1
  Cr  Cr36  1  0.50603722  0.16452726  0.50122501  1
  Fe  Fe37  1  0.33568173  0.99922013  0.66779316  1
  Ni  Ni38  1  0.50334829  0.16510376  0.83556448  1
  Fe  Fe39  1  0.50100377  0.50429111  0.49951968  1
  Cr  Cr40  1  0.33350234  0.33214268  0.66768620  1
  Cr  Cr41  1  0.50238882  0.49974665  0.83630829  1
  Ni  Ni42  1  0.49920926  0.83646570  0.50078509  1
  Fe  Fe43  1  0.33375786  0.67198577  0.66680927  1
  Cr  Cr44  1  0.50100715  0.83907135  0.83675481  1
  Fe  Fe45  1  0.83608472  0.16562548  0.49873659  1
  Ni  Ni46  1  0.66897800  1.00082155  0.66932032  1
  Fe  Fe47  1  0.83256568  0.16887632  0.83654572  1
  Cr  Cr48  1  0.83526217  0.49681869  0.49992803  1
  Fe  Fe49  1  0.67032588  0.33084311  0.67046158  1
  Ni  Ni50  1  0.83702006  0.49974816  0.83557858  1
  Cr  Cr51  1  0.83368169  0.83562310  0.49781313  1
  Cr  Cr52  1  0.66853905  0.66842580  0.66772293  1
  Fe  Fe53  1  0.83448389  0.83430354  0.83695626  1
" 