2361,Ni35Fe26Cr37_9,-224.662333225597, 177.728191067361,Ni35Fe26Cr37,"# generated using pymatgen
 data_Cr21Fe14Ni19
_symmetry_space_group_name_H-M   'P 1'
_cell_length_a   7.47853085
_cell_length_b   7.47853085
_cell_length_c   10.57623975
_cell_angle_alpha   90.00000000
_cell_angle_beta   90.00000000
_cell_angle_gamma   90.00000000
_symmetry_Int_Tables_number   1
_chemical_formula_structural   Cr21Fe14Ni19
_chemical_formula_sum   'Cr21 Fe14 Ni19'
_cell_volume   591.51241782
_cell_formula_units_Z   1
loop_
 _symmetry_equiv_pos_site_id
 _symmetry_equiv_pos_as_xyz
  1  'x, y, z'
loop_
 _atom_site_type_symbol
 _atom_site_label
 _atom_site_symmetry_multiplicity
 _atom_site_fract_x
 _atom_site_fract_y
 _atom_site_fract_z
 _atom_site_occupancy
  Fe  Fe0  1  0.00299453  0.99709464  0.00022214  1
  Ni  Ni1  1  0.16693357  0.16840071  0.16771254  1
  Cr  Cr2  1  0.99853093  0.00273400  0.33458152  1
  Fe  Fe3  1  0.00064616  0.33736138  0.00008094  1
  Ni  Ni4  1  0.16280786  0.49841980  0.16717959  1
  Fe  Fe5  1  0.00000072  0.33408297  0.33281312  1
  Ni  Ni6  1  -0.00039360  0.66363032  0.99779540  1
  Cr  Cr7  1  0.16824052  0.83243477  0.16670432  1
  Fe  Fe8  1  0.99852653  0.66403231  0.33073219  1
  Ni  Ni9  1  0.32944557  0.00024406  0.99820270  1
  Cr  Cr10  1  0.49698050  0.16349590  0.16590847  1
  Ni  Ni11  1  0.33270205  0.00181276  0.33412034  1
  Cr  Cr12  1  0.33107340  0.33398678  0.00043306  1
  Fe  Fe13  1  0.49713359  0.49875931  0.16884483  1
  Ni  Ni14  1  0.33093394  0.33277225  0.33332950  1
  Cr  Cr15  1  0.33015373  0.66492353  -0.00076550  1
  Fe  Fe16  1  0.49853601  0.83177503  0.16931573  1
  Ni  Ni17  1  0.33426959  0.66267576  0.32965322  1
  Cr  Cr18  1  0.66562898  0.99794499  0.00143958  1
  Cr  Cr19  1  0.83549616  0.16785536  0.16418449  1
  Ni  Ni20  1  0.66559785  0.99850874  0.33232928  1
  Cr  Cr21  1  0.66647117  0.33557396  0.99800558  1
  Ni  Ni22  1  0.83628341  0.50100391  0.16715204  1
  Cr  Cr23  1  0.66589642  0.33295994  0.33422641  1
  Cr  Cr24  1  0.66796018  0.66367628  0.00288077  1
  Fe  Fe25  1  0.83483590  0.83030253  0.16799177  1
  Ni  Ni26  1  0.66592510  0.66458943  0.32934175  1
  Fe  Fe27  1  0.16751261  0.16731516  0.49846160  1
  Cr  Cr28  1  -0.00031440  -0.00048790  0.66425342  1
  Cr  Cr29  1  0.16598641  0.16743761  0.83372598  1
  Cr  Cr30  1  0.16442066  0.49902797  0.49726247  1
  Ni  Ni31  1  0.99901811  0.33375002  0.66457024  1
  Ni  Ni32  1  0.16173466  0.49935201  0.83262349  1
  Cr  Cr33  1  0.16778237  0.82885455  0.49925470  1
  Ni  Ni34  1  0.99822498  0.66153733  0.66796015  1
  Ni  Ni35  1  0.16546676  0.83135160  0.83295614  1
  Ni  Ni36  1  0.49980171  0.16671356  0.50154293  1
  Fe  Fe37  1  0.33282534  0.00120002  0.66538709  1
  Fe  Fe38  1  0.49758980  0.16584187  0.82993130  1
  Fe  Fe39  1  0.50004665  0.49928422  0.49880187  1
  Fe  Fe40  1  0.33134893  0.33120207  0.66401938  1
  Cr  Cr41  1  0.50104209  0.49683346  0.82913879  1
  Cr  Cr42  1  0.49946687  0.83260803  0.49673908  1
  Cr  Cr43  1  0.33010839  0.66447038  0.66904746  1
  Cr  Cr44  1  0.49887318  0.83538979  0.83152797  1
  Ni  Ni45  1  0.82983549  0.16861083  0.49936246  1
  Ni  Ni46  1  0.66494623  0.00251766  0.66445778  1
  Cr  Cr47  1  0.83115008  0.16925984  0.83401809  1
  Fe  Fe48  1  0.83097972  0.49905941  0.50049428  1
  Fe  Fe49  1  0.66860504  0.33346980  0.66343782  1
  Ni  Ni50  1  0.83634687  0.49868179  0.82960203  1
  Cr  Cr51  1  0.83045376  0.82986537  0.49844170  1
  Ni  Ni52  1  0.66773647  0.66383374  0.66493522  1
  Cr  Cr53  1  0.83394211  0.83051005  0.83217243  1
" 