5373,Ni35Fe15Cr49_12,-220.135240724371, 162.475573077516,Ni35Fe15Cr49,"# generated using pymatgen
 data_Cr27Fe8Ni19
_symmetry_space_group_name_H-M   'P 1'
_cell_length_a   7.50856789
_cell_length_b   7.50856789
_cell_length_c   10.61871855
_cell_angle_alpha   90.00000000
_cell_angle_beta   90.00000000
_cell_angle_gamma   90.00000000
_symmetry_Int_Tables_number   1
_chemical_formula_structural   Cr27Fe8Ni19
_chemical_formula_sum   'Cr27 Fe8 Ni19'
_cell_volume   598.66839829
_cell_formula_units_Z   1
loop_
 _symmetry_equiv_pos_site_id
 _symmetry_equiv_pos_as_xyz
  1  'x, y, z'
loop_
 _atom_site_type_symbol
 _atom_site_label
 _atom_site_symmetry_multiplicity
 _atom_site_fract_x
 _atom_site_fract_y
 _atom_site_fract_z
 _atom_site_occupancy
  Ni  Ni0  1  0.99717106  -0.00264095  0.99661281  1
  Cr  Cr1  1  0.16102045  0.16498854  0.15986271  1
  Fe  Fe2  1  0.99546721  0.99620674  0.33315008  1
  Ni  Ni3  1  -0.00253916  0.33094180  -0.00260484  1
  Cr  Cr4  1  0.16237388  0.49494157  0.16493938  1
  Ni  Ni5  1  0.99586063  0.33331736  0.33250123  1
  Cr  Cr6  1  0.99440016  0.66381163  0.99608509  1
  Cr  Cr7  1  0.16337715  0.83209748  0.16378307  1
  Ni  Ni8  1  0.99610263  0.66317951  0.33361354  1
  Fe  Fe9  1  0.33220804  -0.00131259  -0.00275893  1
  Fe  Fe10  1  0.49676186  0.16304334  0.16354777  1
  Cr  Cr11  1  0.33285430  -0.00259571  0.33054460  1
  Ni  Ni12  1  0.33204570  0.32889097  -0.00221355  1
  Ni  Ni13  1  0.49759168  0.49716248  0.16168675  1
  Cr  Cr14  1  0.33064840  0.33072031  0.33113712  1
  Cr  Cr15  1  0.33220878  0.66263673  -0.00064581  1
  Ni  Ni16  1  0.49818530  0.83081762  0.16374136  1
  Cr  Cr17  1  0.32804875  0.66374386  0.33091350  1
  Cr  Cr18  1  0.66325365  0.99638177  -0.00247008  1
  Cr  Cr19  1  0.83265664  0.16484207  0.16583105  1
  Ni  Ni20  1  0.66453244  -0.00264130  0.33200511  1
  Cr  Cr21  1  0.66282363  0.33203206  0.99716797  1
  Fe  Fe22  1  0.83196059  0.49650448  0.16527588  1
  Cr  Cr23  1  0.66373671  0.32927893  0.33144144  1
  Cr  Cr24  1  0.66493023  0.66320769  -0.00219826  1
  Cr  Cr25  1  0.83053799  0.83297107  0.16517443  1
  Cr  Cr26  1  0.66568058  0.66474259  0.32765128  1
  Cr  Cr27  1  0.16229337  0.16401192  0.49622404  1
  Cr  Cr28  1  -0.00213271  0.99441178  0.66185571  1
  Cr  Cr29  1  0.16420327  0.16404092  0.83506326  1
  Ni  Ni30  1  0.16000571  0.50090828  0.49708229  1
  Cr  Cr31  1  0.99511678  0.33272597  0.66160064  1
  Cr  Cr32  1  0.16415445  0.49672802  0.82993660  1
  Ni  Ni33  1  0.16160737  0.82743943  0.49851320  1
  Ni  Ni34  1  0.99512808  0.66404697  0.66192412  1
  Cr  Cr35  1  0.16420216  0.83094660  0.82999183  1
  Ni  Ni36  1  0.50091982  0.16296818  0.49807427  1
  Ni  Ni37  1  0.33152476  -0.00267391  0.66401852  1
  Ni  Ni38  1  0.49739226  0.16516781  0.83108098  1
  Cr  Cr39  1  0.49881667  0.49838071  0.50085503  1
  Cr  Cr40  1  0.33183488  0.32769045  0.66283842  1
  Fe  Fe41  1  0.49807349  0.49499371  0.82952465  1
  Cr  Cr42  1  0.49846250  0.82986022  0.49856515  1
  Fe  Fe43  1  0.32851841  0.66444957  0.66257837  1
  Cr  Cr44  1  0.49780527  0.82879016  0.82811293  1
  Ni  Ni45  1  0.82840391  0.16452550  0.49532840  1
  Cr  Cr46  1  0.66443930  -0.00029996  0.66218172  1
  Cr  Cr47  1  0.83072306  0.16546607  0.83081611  1
  Ni  Ni48  1  0.83201061  0.49780680  0.49765912  1
  Ni  Ni49  1  0.66319815  0.33206341  0.66377091  1
  Fe  Fe50  1  0.82905181  0.49772974  0.82815749  1
  Ni  Ni51  1  0.83170042  0.82930331  0.49689878  1
  Ni  Ni52  1  0.66845746  0.66212225  0.66547480  1
  Fe  Fe53  1  0.83088699  0.82982356  0.82879546  1
" 