5810,Ni35Cr65_1,-225.938664068165, 141.788898914506,Ni35Cr65,"# generated using pymatgen
 data_CrNi2
_symmetry_space_group_name_H-M   'P 1'
_cell_length_a   7.49705227
_cell_length_b   7.49705227
_cell_length_c   10.60243300
_cell_angle_alpha   90.00000000
_cell_angle_beta   90.00000000
_cell_angle_gamma   90.00000000
_symmetry_Int_Tables_number   1
_chemical_formula_structural   CrNi2
_chemical_formula_sum   'Cr18 Ni36'
_cell_volume   595.91815197
_cell_formula_units_Z   18
loop_
 _symmetry_equiv_pos_site_id
 _symmetry_equiv_pos_as_xyz
  1  'x, y, z'
loop_
 _atom_site_type_symbol
 _atom_site_label
 _atom_site_symmetry_multiplicity
 _atom_site_fract_x
 _atom_site_fract_y
 _atom_site_fract_z
 _atom_site_occupancy
  Cr  Cr0  1  -0.00132711  -0.00097261  0.99473176  1
  Ni  Ni1  1  0.16128557  0.16351282  0.16681361  1
  Ni  Ni2  1  0.99656916  -0.00176447  0.33368233  1
  Cr  Cr3  1  0.99753633  0.32969466  0.99790760  1
  Cr  Cr4  1  0.16387229  0.50087067  0.16526280  1
  Cr  Cr5  1  0.99704793  0.32993577  0.33171751  1
  Ni  Ni6  1  0.99758439  0.66488944  0.99536660  1
  Cr  Cr7  1  0.16461162  0.83070487  0.16713355  1
  Ni  Ni8  1  0.99772700  0.66537316  0.33512076  1
  Cr  Cr9  1  0.33074098  0.99769704  0.99664470  1
  Cr  Cr10  1  0.50115096  0.16247737  0.16382284  1
  Cr  Cr11  1  0.33191690  0.99761697  0.33239077  1
  Cr  Cr12  1  0.33071873  0.32945167  -0.00164055  1
  Ni  Ni13  1  0.49960228  0.50122677  0.16253962  1
  Cr  Cr14  1  0.33187960  0.33193457  0.33229733  1
  Ni  Ni15  1  0.33164350  0.66478443  0.99777618  1
  Ni  Ni16  1  0.49934281  0.82868303  0.16417519  1
  Ni  Ni17  1  0.33190207  0.66528780  0.33380600  1
  Ni  Ni18  1  0.66581254  -0.00153331  0.99697473  1
  Ni  Ni19  1  0.83062255  0.16421941  0.16496202  1
  Ni  Ni20  1  0.66633587  0.99747774  0.33358943  1
  Ni  Ni21  1  0.66556413  0.33041966  -0.00085609  1
  Ni  Ni22  1  0.82968531  0.49828944  0.16287694  1
  Cr  Cr23  1  0.66522008  0.33184080  0.33252331  1
  Ni  Ni24  1  0.66515599  0.66513685  -0.00024440  1
  Cr  Cr25  1  0.83121430  0.83239335  0.16530085  1
  Cr  Cr26  1  0.66358462  0.66498894  0.33544291  1
  Ni  Ni27  1  0.16361633  0.16357459  0.50023641  1
  Ni  Ni28  1  -0.00188476  -0.00014065  0.66495361  1
  Ni  Ni29  1  0.16458348  0.16469697  0.82630631  1
  Ni  Ni30  1  0.16539212  0.49887947  0.49928842  1
  Ni  Ni31  1  -0.00118213  0.32885726  0.66383896  1
  Ni  Ni32  1  0.16546494  0.49862791  0.82997256  1
  Ni  Ni33  1  0.16448646  0.83147674  0.49773252  1
  Cr  Cr34  1  -0.00196738  0.66667294  0.66455973  1
  Ni  Ni35  1  0.16428897  0.83044385  0.82990487  1
  Ni  Ni36  1  0.49913463  0.16350557  0.50164901  1
  Ni  Ni37  1  0.33044989  -0.00105897  0.66423373  1
  Ni  Ni38  1  0.49998494  0.16423316  0.82887632  1
  Ni  Ni39  1  0.49535585  0.49729646  0.50049815  1
  Ni  Ni40  1  0.33032025  0.32965603  0.66350326  1
  Cr  Cr41  1  0.49683105  0.49558856  0.83032127  1
  Ni  Ni42  1  0.49644333  0.83345169  0.49846011  1
  Ni  Ni43  1  0.32955714  0.66519401  0.66235665  1
  Cr  Cr44  1  0.49895048  0.83249617  0.83118766  1
  Ni  Ni45  1  0.83117887  0.16264789  0.49963440  1
  Ni  Ni46  1  0.66555552  0.00035781  0.66366236  1
  Ni  Ni47  1  0.82945759  0.16291081  0.82915676  1
  Ni  Ni48  1  0.83308595  0.49613217  0.49898086  1
  Ni  Ni49  1  0.66488257  0.32813305  0.66209576  1
  Cr  Cr50  1  0.83096521  0.49664580  0.83190240  1
  Ni  Ni51  1  0.83287925  0.83537900  0.49706766  1
  Cr  Cr52  1  0.66478689  0.66697070  0.65923509  1
  Ni  Ni53  1  0.83232288  0.83467491  0.83220762  1
" 