2436,Ni35Fe26Cr37_4,-225.508689044815, 183.062382653338,Ni35Fe26Cr37,"# generated using pymatgen
 data_Cr21Fe14Ni19
_symmetry_space_group_name_H-M   'P 1'
_cell_length_a   7.48251087
_cell_length_b   7.48251087
_cell_length_c   10.58186836
_cell_angle_alpha   90.00000000
_cell_angle_beta   90.00000000
_cell_angle_gamma   90.00000000
_symmetry_Int_Tables_number   1
_chemical_formula_structural   Cr21Fe14Ni19
_chemical_formula_sum   'Cr21 Fe14 Ni19'
_cell_volume   592.45731749
_cell_formula_units_Z   1
loop_
 _symmetry_equiv_pos_site_id
 _symmetry_equiv_pos_as_xyz
  1  'x, y, z'
loop_
 _atom_site_type_symbol
 _atom_site_label
 _atom_site_symmetry_multiplicity
 _atom_site_fract_x
 _atom_site_fract_y
 _atom_site_fract_z
 _atom_site_occupancy
  Ni  Ni0  1  -0.00071396  0.99652824  0.00102184  1
  Cr  Cr1  1  0.16834278  0.16446925  0.16499462  1
  Ni  Ni2  1  0.00126170  0.99618227  0.33159878  1
  Cr  Cr3  1  0.99684455  0.33303137  0.00067155  1
  Ni  Ni4  1  0.16832785  0.50124592  0.16634047  1
  Cr  Cr5  1  0.00115066  0.33173639  0.32927545  1
  Cr  Cr6  1  0.00020527  0.66546536  0.00153684  1
  Fe  Fe7  1  0.16556118  0.83186264  0.16596667  1
  Fe  Fe8  1  -0.00103062  0.66492906  0.33021738  1
  Fe  Fe9  1  0.33581080  0.99697599  0.00092039  1
  Ni  Ni10  1  0.49797527  0.16597816  0.16723224  1
  Fe  Fe11  1  0.33252283  0.00088143  0.33276081  1
  Cr  Cr12  1  0.33404745  0.33713607  0.00150715  1
  Ni  Ni13  1  0.49931463  0.49979360  0.16480368  1
  Ni  Ni14  1  0.33336840  0.33196514  0.33357334  1
  Ni  Ni15  1  0.33635907  0.66821075  0.00042813  1
  Fe  Fe16  1  0.50145032  0.83178757  0.16442247  1
  Cr  Cr17  1  0.33420363  0.66450141  0.32854316  1
  Fe  Fe18  1  0.66298960  0.99625116  0.00083314  1
  Cr  Cr19  1  0.83017463  0.16292752  0.16252860  1
  Fe  Fe20  1  0.66419940  0.99760874  0.33003086  1
  Ni  Ni21  1  0.66238355  0.33465787  0.00051064  1
  Ni  Ni22  1  0.82903916  0.50359073  0.16555554  1
  Cr  Cr23  1  0.66258142  0.33436011  0.33115441  1
  Ni  Ni24  1  0.66194504  0.66517438  0.00003270  1
  Ni  Ni25  1  0.83174587  0.83076670  0.16750381  1
  Ni  Ni26  1  0.66542229  0.66595639  0.33042237  1
  Ni  Ni27  1  0.16827494  0.16572183  0.49824691  1
  Cr  Cr28  1  0.00051868  0.99809974  0.66500231  1
  Cr  Cr29  1  0.16683140  0.16624755  0.83446905  1
  Fe  Fe30  1  0.16695270  0.49987511  0.49707691  1
  Cr  Cr31  1  0.99815390  0.33434803  0.66734602  1
  Fe  Fe32  1  0.16773785  0.50125444  0.83354989  1
  Ni  Ni33  1  0.16496706  0.83357922  0.49687291  1
  Ni  Ni34  1  0.00222767  0.66306780  0.66272897  1
  Cr  Cr35  1  0.16706384  0.83232304  0.83356969  1
  Fe  Fe36  1  0.49549833  0.16671623  0.49801506  1
  Fe  Fe37  1  0.33171097  -0.00052559  0.66398590  1
  Cr  Cr38  1  0.49821722  0.16793537  0.83123298  1
  Ni  Ni39  1  0.49865405  0.49599391  0.49866647  1
  Fe  Fe40  1  0.33344568  0.33407806  0.66301074  1
  Ni  Ni41  1  0.49946925  0.49995867  0.83364538  1
  Cr  Cr42  1  0.49830236  0.82978473  0.49761233  1
  Cr  Cr43  1  0.33215204  0.66631927  0.66771397  1
  Ni  Ni44  1  0.49813365  0.82956970  0.83581253  1
  Cr  Cr45  1  0.83202488  0.16523126  0.49697076  1
  Cr  Cr46  1  0.66240765  0.00002066  0.66535243  1
  Cr  Cr47  1  0.83068385  0.16604729  0.83752572  1
  Fe  Fe48  1  0.83208336  0.49946462  0.49759522  1
  Ni  Ni49  1  0.66318343  0.33432688  0.66469987  1
  Fe  Fe50  1  0.82852275  0.49919567  0.83378078  1
  Cr  Cr51  1  0.83466549  0.82861480  0.49574210  1
  Cr  Cr52  1  0.66515227  0.66317388  0.66685603  1
  Cr  Cr53  1  0.83168410  0.82980575  0.83273417  1
" 