2491,Ni35Cr65_10,-225.856726981129, 138.616979933834,Ni35Cr65,"# generated using pymatgen
 data_CrNi2
_symmetry_space_group_name_H-M   'P 1'
_cell_length_a   7.49591474
_cell_length_b   7.49591474
_cell_length_c   10.60082428
_cell_angle_alpha   90.00000000
_cell_angle_beta   90.00000000
_cell_angle_gamma   90.00000000
_symmetry_Int_Tables_number   1
_chemical_formula_structural   CrNi2
_chemical_formula_sum   'Cr18 Ni36'
_cell_volume   595.64693554
_cell_formula_units_Z   18
loop_
 _symmetry_equiv_pos_site_id
 _symmetry_equiv_pos_as_xyz
  1  'x, y, z'
loop_
 _atom_site_type_symbol
 _atom_site_label
 _atom_site_symmetry_multiplicity
 _atom_site_fract_x
 _atom_site_fract_y
 _atom_site_fract_z
 _atom_site_occupancy
  Ni  Ni0  1  -0.00146587  0.99752441  -0.00177337  1
  Ni  Ni1  1  0.16384763  0.16624517  0.16315507  1
  Cr  Cr2  1  -0.00106530  0.99710971  0.32607498  1
  Ni  Ni3  1  -0.00113779  0.33153170  0.99698601  1
  Cr  Cr4  1  0.16513946  0.49699758  0.16227965  1
  Ni  Ni5  1  0.00003039  0.33328525  0.33113441  1
  Ni  Ni6  1  0.99760448  0.66531272  0.99701456  1
  Ni  Ni7  1  0.16209938  0.83005352  0.16121593  1
  Ni  Ni8  1  0.99533465  0.66165519  0.33032676  1
  Cr  Cr9  1  0.32970633  0.99520996  -0.00105294  1
  Ni  Ni10  1  0.49538128  0.16768560  0.16434293  1
  Cr  Cr11  1  0.33098833  0.99739923  0.33009061  1
  Ni  Ni12  1  0.33068585  0.33198824  0.99663091  1
  Ni  Ni13  1  0.49930196  0.49866067  0.16263187  1
  Ni  Ni14  1  0.32939125  0.33038679  0.33096331  1
  Ni  Ni15  1  0.33159212  0.66383738  0.99675804  1
  Ni  Ni16  1  0.49889070  0.82676980  0.16331134  1
  Cr  Cr17  1  0.32921729  0.66536336  0.32938131  1
  Cr  Cr18  1  0.66719700  0.99638948  0.00035763  1
  Ni  Ni19  1  0.83535823  0.16669050  0.16233006  1
  Cr  Cr20  1  0.66330037  0.99540656  0.32574367  1
  Cr  Cr21  1  0.66684701  0.33309627  0.99580726  1
  Ni  Ni22  1  0.83227374  0.49999188  0.16446447  1
  Cr  Cr23  1  0.66731479  0.33152904  0.32949162  1
  Ni  Ni24  1  0.66538606  0.66457237  0.99799979  1
  Ni  Ni25  1  0.83320989  0.82716253  0.16267079  1
  Ni  Ni26  1  0.66660135  0.66406013  0.32888207  1
  Ni  Ni27  1  0.16594826  0.16627311  0.49794324  1
  Ni  Ni28  1  0.00126571  0.99798264  0.66947906  1
  Ni  Ni29  1  0.16410246  0.16409114  0.83303378  1
  Ni  Ni30  1  0.16135622  0.49692955  0.49564687  1
  Cr  Cr31  1  -0.00071971  0.33538966  0.66606359  1
  Ni  Ni32  1  0.16310103  0.49907468  0.83558054  1
  Cr  Cr33  1  0.16171844  0.83173880  0.50062247  1
  Ni  Ni34  1  0.99633282  0.66468942  0.66674812  1
  Ni  Ni35  1  0.16260203  0.83112616  0.83234889  1
  Ni  Ni36  1  0.49420869  0.16341238  0.49824335  1
  Ni  Ni37  1  0.32974338  -0.00176453  0.66570141  1
  Ni  Ni38  1  0.49522451  0.16432127  0.83196451  1
  Cr  Cr39  1  0.49983761  0.49928915  0.49657947  1
  Cr  Cr40  1  0.32967590  0.33211784  0.66624469  1
  Ni  Ni41  1  0.49767603  0.50079022  0.83496485  1
  Ni  Ni42  1  0.49856170  0.83152484  0.49953642  1
  Cr  Cr43  1  0.32830663  0.66500387  0.66822715  1
  Ni  Ni44  1  0.49847139  0.82940289  0.83133824  1
  Cr  Cr45  1  0.83351469  0.16450111  0.49881264  1
  Cr  Cr46  1  0.66303919  -0.00156708  0.66790018  1
  Ni  Ni47  1  0.83544511  0.16335068  0.83333571  1
  Ni  Ni48  1  0.83426845  0.50146734  0.49711696  1
  Cr  Cr49  1  0.66662489  0.33469957  0.66966800  1
  Ni  Ni50  1  0.83313684  0.50236789  0.83293523  1
  Cr  Cr51  1  0.82986797  0.82916549  0.49969497  1
  Ni  Ni52  1  0.66629507  0.66511614  0.66724853  1
  Ni  Ni53  1  0.83338582  0.82961240  0.83182406  1
" 