3969,Ni35Fe39Cr24_9,-230.032002192212, 197.909401258706,Ni35Fe39Cr24,"# generated using pymatgen
 data_Cr14Fe21Ni19
_symmetry_space_group_name_H-M   'P 1'
_cell_length_a   7.45080850
_cell_length_b   7.45080850
_cell_length_c   10.53703443
_cell_angle_alpha   90.00000000
_cell_angle_beta   90.00000000
_cell_angle_gamma   90.00000000
_symmetry_Int_Tables_number   1
_chemical_formula_structural   Cr14Fe21Ni19
_chemical_formula_sum   'Cr14 Fe21 Ni19'
_cell_volume   584.95869577
_cell_formula_units_Z   1
loop_
 _symmetry_equiv_pos_site_id
 _symmetry_equiv_pos_as_xyz
  1  'x, y, z'
loop_
 _atom_site_type_symbol
 _atom_site_label
 _atom_site_symmetry_multiplicity
 _atom_site_fract_x
 _atom_site_fract_y
 _atom_site_fract_z
 _atom_site_occupancy
  Fe  Fe0  1  0.00209029  1.00070754  0.99876146  1
  Ni  Ni1  1  0.17089912  0.16899316  0.16944042  1
  Fe  Fe2  1  0.00339709  0.00149290  0.33575906  1
  Cr  Cr3  1  0.99998063  0.33281963  0.00267246  1
  Fe  Fe4  1  0.16767769  0.50117737  0.16965194  1
  Fe  Fe5  1  0.00408476  0.33617005  0.33543592  1
  Fe  Fe6  1  0.00195780  0.66940131  0.00159915  1
  Cr  Cr7  1  0.16809323  0.83405938  0.16706589  1
  Ni  Ni8  1  0.00143399  0.66551320  0.33454554  1
  Ni  Ni9  1  0.33332227  0.99978942  1.00004653  1
  Ni  Ni10  1  0.49883895  0.16801963  0.16775180  1
  Ni  Ni11  1  0.33341448  0.00210292  0.33574307  1
  Cr  Cr12  1  0.33551749  0.33364627  0.00419246  1
  Fe  Fe13  1  0.50077713  0.49999951  0.16835735  1
  Fe  Fe14  1  0.33256230  0.33478349  0.33484905  1
  Ni  Ni15  1  0.33399316  0.66986287  0.99974979  1
  Cr  Cr16  1  0.50118543  0.83630890  0.16902299  1
  Ni  Ni17  1  0.33382166  0.66800535  0.33613137  1
  Ni  Ni18  1  0.66774008  0.00211677  0.99974044  1
  Cr  Cr19  1  0.83329456  0.16766453  0.16665791  1
  Fe  Fe20  1  0.66560492  0.99965188  0.33562367  1
  Ni  Ni21  1  0.66813676  0.33364339  0.00122535  1
  Ni  Ni22  1  0.83531220  0.50217049  0.16929185  1
  Cr  Cr23  1  0.66812563  0.33573628  0.33450079  1
  Cr  Cr24  1  0.66675528  0.66694270  1.00079591  1
  Cr  Cr25  1  0.83399157  0.83236818  0.16830098  1
  Ni  Ni26  1  0.66801122  0.66666303  0.33485105  1
  Ni  Ni27  1  0.16887624  0.17006393  0.50106619  1
  Fe  Fe28  1  0.00148983  0.00320216  0.66874213  1
  Ni  Ni29  1  0.16745869  0.16580859  0.83276806  1
  Ni  Ni30  1  0.16782059  0.49957908  0.50080920  1
  Ni  Ni31  1  0.00362425  0.33225534  0.66540080  1
  Cr  Cr32  1  0.16892417  0.50096731  0.83295806  1
  Fe  Fe33  1  0.16932534  0.83400385  0.49986340  1
  Fe  Fe34  1  0.00269727  0.66761517  0.66662243  1
  Fe  Fe35  1  0.16829150  0.83609327  0.83535965  1
  Fe  Fe36  1  0.49876898  0.16646609  0.50103127  1
  Fe  Fe37  1  0.33389567  0.00192330  0.66733975  1
  Cr  Cr38  1  0.50059500  0.16620868  0.83530534  1
  Fe  Fe39  1  0.49791961  0.50170643  0.50024710  1
  Ni  Ni40  1  0.33091914  0.33408888  0.66596341  1
  Fe  Fe41  1  0.49942829  0.50276710  0.83467020  1
  Fe  Fe42  1  0.49818773  0.83509714  0.50016999  1
  Fe  Fe43  1  0.33408173  0.66749825  0.66719914  1
  Ni  Ni44  1  0.50128459  0.83555591  0.83417290  1
  Fe  Fe45  1  0.83670236  0.16823627  0.50165040  1
  Ni  Ni46  1  0.66822248  1.00037309  0.66766606  1
  Fe  Fe47  1  0.83533417  0.16418957  0.83450268  1
  Fe  Fe48  1  0.83779345  0.50018007  0.49972486  1
  Cr  Cr49  1  0.66869333  0.33349978  0.66804076  1
  Cr  Cr50  1  0.83495229  0.50150489  0.83394815  1
  Cr  Cr51  1  0.83332662  0.83419612  0.49856323  1
  Cr  Cr52  1  0.66605441  0.66931351  0.66790643  1
  Ni  Ni53  1  0.83415938  0.83664285  0.83539098  1
" 