5716,Ni35Fe9Cr54_8,-217.578052362321, 150.39613045222,Ni35Fe9Cr54,"# generated using pymatgen
 data_Cr30Fe5Ni19
_symmetry_space_group_name_H-M   'P 1'
_cell_length_a   7.52393015
_cell_length_b   7.52393015
_cell_length_c   10.64044407
_cell_angle_alpha   90.00000000
_cell_angle_beta   90.00000000
_cell_angle_gamma   90.00000000
_symmetry_Int_Tables_number   1
_chemical_formula_structural   Cr30Fe5Ni19
_chemical_formula_sum   'Cr30 Fe5 Ni19'
_cell_volume   602.35048404
_cell_formula_units_Z   1
loop_
 _symmetry_equiv_pos_site_id
 _symmetry_equiv_pos_as_xyz
  1  'x, y, z'
loop_
 _atom_site_type_symbol
 _atom_site_label
 _atom_site_symmetry_multiplicity
 _atom_site_fract_x
 _atom_site_fract_y
 _atom_site_fract_z
 _atom_site_occupancy
  Cr  Cr0  1  -0.00321177  0.99464889  0.99459531  1
  Cr  Cr1  1  0.16769532  0.16137020  0.16174207  1
  Cr  Cr2  1  -0.00270632  0.99580888  0.33128025  1
  Cr  Cr3  1  0.99458126  0.32991125  -0.00148791  1
  Cr  Cr4  1  0.16230477  0.49836460  0.16338505  1
  Cr  Cr5  1  -0.00345262  0.32951923  0.32743302  1
  Cr  Cr6  1  0.00032762  0.66294201  0.99563840  1
  Ni  Ni7  1  0.16554922  0.83122166  0.16463356  1
  Fe  Fe8  1  -0.00229121  0.66304098  0.33021862  1
  Ni  Ni9  1  0.33032514  0.99182158  -0.00238729  1
  Ni  Ni10  1  0.49349168  0.15994698  0.16426633  1
  Ni  Ni11  1  0.32859235  0.99527840  0.32699439  1
  Cr  Cr12  1  0.33060171  0.33258635  0.99339645  1
  Cr  Cr13  1  0.49635666  0.49800020  0.16411647  1
  Ni  Ni14  1  0.32964421  0.32980226  0.33230743  1
  Cr  Cr15  1  0.32922865  0.66725108  0.99247015  1
  Ni  Ni16  1  0.49326239  0.83198345  0.16357420  1
  Cr  Cr17  1  0.32884820  0.66393617  0.33062997  1
  Cr  Cr18  1  0.66026574  0.99567883  -0.00166556  1
  Ni  Ni19  1  0.82866445  0.16301723  0.16278619  1
  Cr  Cr20  1  0.66158870  -0.00352614  0.32617058  1
  Cr  Cr21  1  0.66368094  0.32821346  -0.00123683  1
  Ni  Ni22  1  0.82892388  0.49790344  0.16532023  1
  Cr  Cr23  1  0.66232296  0.32843231  0.32862429  1
  Cr  Cr24  1  0.65879736  0.66409408  0.99429982  1
  Cr  Cr25  1  0.82943785  0.82445122  0.16405966  1
  Ni  Ni26  1  0.66155008  0.66182813  0.32891215  1
  Cr  Cr27  1  0.16661233  0.16124979  0.49818782  1
  Fe  Fe28  1  -0.00110780  0.99106642  0.66380616  1
  Cr  Cr29  1  0.16544456  0.16167806  0.82882810  1
  Ni  Ni30  1  0.16383459  0.49712425  0.49657731  1
  Cr  Cr31  1  -0.00181996  0.33162321  0.66287953  1
  Ni  Ni32  1  0.16348441  0.49896296  0.82735343  1
  Fe  Fe33  1  0.16428317  0.82783973  0.49755716  1
  Ni  Ni34  1  -0.00117175  0.66377138  0.66277490  1
  Ni  Ni35  1  0.16392102  0.83007460  0.82681443  1
  Cr  Cr36  1  0.49295824  0.16410918  0.49712467  1
  Ni  Ni37  1  0.32748304  0.99279779  0.66375727  1
  Cr  Cr38  1  0.49372858  0.16308823  0.82819127  1
  Ni  Ni39  1  0.49520988  0.49687083  0.49819045  1
  Fe  Fe40  1  0.33103472  0.33338818  0.66262246  1
  Ni  Ni41  1  0.49618787  0.49838417  0.82515761  1
  Cr  Cr42  1  0.49732913  0.82853040  0.49445431  1
  Cr  Cr43  1  0.32912033  0.66291227  0.66423199  1
  Ni  Ni44  1  0.49408784  0.82953768  0.82902259  1
  Cr  Cr45  1  0.82980871  0.16208092  0.49934578  1
  Cr  Cr46  1  0.66139523  0.99483799  0.66453098  1
  Cr  Cr47  1  0.83012909  0.16206969  0.82727524  1
  Cr  Cr48  1  0.82748278  0.50015128  0.49507139  1
  Ni  Ni49  1  0.66065310  0.33345293  0.66246705  1
  Cr  Cr50  1  0.82855730  0.49872689  0.82922548  1
  Cr  Cr51  1  0.83060279  0.82568029  0.49869847  1
  Ni  Ni52  1  0.66200972  0.66129358  0.66480349  1
  Fe  Fe53  1  0.83023601  0.82704470  0.82684778  1
" 