3550,Ni35Fe20Cr43_9,-222.619650068445, 172.231685977373,Ni35Fe20Cr43,"# generated using pymatgen
 data_Cr24Fe11Ni19
_symmetry_space_group_name_H-M   'P 1'
_cell_length_a   7.49437345
_cell_length_b   7.49437345
_cell_length_c   10.59864457
_cell_angle_alpha   90.00000000
_cell_angle_beta   90.00000000
_cell_angle_gamma   90.00000000
_symmetry_Int_Tables_number   1
_chemical_formula_structural   Cr24Fe11Ni19
_chemical_formula_sum   'Cr24 Fe11 Ni19'
_cell_volume   595.27958506
_cell_formula_units_Z   1
loop_
 _symmetry_equiv_pos_site_id
 _symmetry_equiv_pos_as_xyz
  1  'x, y, z'
loop_
 _atom_site_type_symbol
 _atom_site_label
 _atom_site_symmetry_multiplicity
 _atom_site_fract_x
 _atom_site_fract_y
 _atom_site_fract_z
 _atom_site_occupancy
  Ni  Ni0  1  -0.00170057  -0.00040309  0.99808325  1
  Fe  Fe1  1  0.16517999  0.16599232  0.16699117  1
  Cr  Cr2  1  0.99798412  -0.00018418  0.33277232  1
  Cr  Cr3  1  -0.00099607  0.32922479  0.99721118  1
  Cr  Cr4  1  0.16490734  0.49800593  0.16494677  1
  Fe  Fe5  1  0.00044843  0.32930847  0.33263647  1
  Ni  Ni6  1  -0.00097306  0.66502309  0.99647791  1
  Cr  Cr7  1  0.16583778  0.83287980  0.16203403  1
  Cr  Cr8  1  0.99742919  0.66446176  0.33543226  1
  Cr  Cr9  1  0.33210642  0.00135487  -0.00033874  1
  Ni  Ni10  1  0.49671904  0.16520911  0.16597216  1
  Ni  Ni11  1  0.33231893  0.00103524  0.33059725  1
  Cr  Cr12  1  0.33310367  0.33166490  0.99750998  1
  Ni  Ni13  1  0.49731733  0.49796438  0.16543161  1
  Ni  Ni14  1  0.33136186  0.33063080  0.33200391  1
  Fe  Fe15  1  0.33288245  0.66325936  0.99803326  1
  Fe  Fe16  1  0.49886805  0.83087919  0.16559012  1
  Cr  Cr17  1  0.33333025  0.66327824  0.33242662  1
  Cr  Cr18  1  0.66499194  0.00106789  0.99815836  1
  Ni  Ni19  1  0.83173254  0.16427980  0.16459079  1
  Cr  Cr20  1  0.66414204  0.99785806  0.33209363  1
  Cr  Cr21  1  0.66233873  0.33010169  -0.00107591  1
  Cr  Cr22  1  0.83116169  0.49765235  0.16398111  1
  Cr  Cr23  1  0.66266902  0.33150487  0.32869109  1
  Ni  Ni24  1  0.66326590  0.66445487  0.00136247  1
  Cr  Cr25  1  0.83276358  0.83089215  0.16295067  1
  Fe  Fe26  1  0.66180133  0.66544271  0.33212112  1
  Ni  Ni27  1  0.16544325  0.16793139  0.49720318  1
  Cr  Cr28  1  0.99743313  -0.00021041  0.66420074  1
  Fe  Fe29  1  0.16456254  0.16558461  0.82942453  1
  Ni  Ni30  1  0.16645567  0.49418241  0.49958817  1
  Fe  Fe31  1  -0.00097312  0.33032389  0.66479720  1
  Ni  Ni32  1  0.16615867  0.49720315  0.83049346  1
  Cr  Cr33  1  0.17040420  0.83388273  0.49911319  1
  Cr  Cr34  1  0.00019964  0.66318360  0.66379419  1
  Cr  Cr35  1  0.16673775  0.83074723  0.83384268  1
  Cr  Cr36  1  0.49700970  0.16347645  0.50099951  1
  Ni  Ni37  1  0.33233943  -0.00061061  0.66435012  1
  Fe  Fe38  1  0.49837009  0.16498370  0.82824303  1
  Fe  Fe39  1  0.49614041  0.49678777  0.49951880  1
  Fe  Fe40  1  0.33017009  0.33188853  0.66410915  1
  Cr  Cr41  1  0.49821381  0.49862089  0.82908899  1
  Ni  Ni42  1  0.49858142  0.83122460  0.49919786  1
  Ni  Ni43  1  0.33229948  0.66287221  0.66378562  1
  Cr  Cr44  1  0.49780551  0.83231346  0.83025666  1
  Ni  Ni45  1  0.83172999  0.16673659  0.49966878  1
  Ni  Ni46  1  0.66395342  0.00012642  0.66425084  1
  Ni  Ni47  1  0.83104806  0.16514119  0.83001182  1
  Cr  Cr48  1  0.82988990  0.49512181  0.49800613  1
  Ni  Ni49  1  0.66470964  0.32999700  0.66604109  1
  Cr  Cr50  1  0.83122660  0.49720816  0.83256644  1
  Fe  Fe51  1  0.82858633  0.83351333  0.49993129  1
  Ni  Ni52  1  0.66196444  0.66449191  0.66033196  1
  Cr  Cr53  1  0.83010117  0.83199174  0.83205279  1
" 