6962,Ni35Fe39Cr24_12,-229.808234896876, 194.660762125906,Ni35Fe39Cr24,"# generated using pymatgen
 data_Cr14Fe21Ni19
_symmetry_space_group_name_H-M   'P 1'
_cell_length_a   7.44952589
_cell_length_b   7.44952589
_cell_length_c   10.53522054
_cell_angle_alpha   90.00000000
_cell_angle_beta   90.00000000
_cell_angle_gamma   90.00000000
_symmetry_Int_Tables_number   1
_chemical_formula_structural   Cr14Fe21Ni19
_chemical_formula_sum   'Cr14 Fe21 Ni19'
_cell_volume   584.65665714
_cell_formula_units_Z   1
loop_
 _symmetry_equiv_pos_site_id
 _symmetry_equiv_pos_as_xyz
  1  'x, y, z'
loop_
 _atom_site_type_symbol
 _atom_site_label
 _atom_site_symmetry_multiplicity
 _atom_site_fract_x
 _atom_site_fract_y
 _atom_site_fract_z
 _atom_site_occupancy
  Cr  Cr0  1  0.00384788  0.99976284  0.99994765  1
  Fe  Fe1  1  0.17072042  0.16823619  0.16871090  1
  Ni  Ni2  1  0.00282902  1.00078967  0.33721266  1
  Fe  Fe3  1  0.00412886  0.33683127  1.00054360  1
  Ni  Ni4  1  0.17034152  0.50046476  0.16688585  1
  Fe  Fe5  1  0.00356556  0.33308131  0.33514118  1
  Cr  Cr6  1  0.00119919  0.66768708  0.00235859  1
  Ni  Ni7  1  0.16973962  0.83378777  0.16987885  1
  Cr  Cr8  1  0.00156861  0.66989047  0.33151682  1
  Fe  Fe9  1  0.33356581  0.99904994  1.00097467  1
  Fe  Fe10  1  0.49686093  0.16819050  0.16921797  1
  Ni  Ni11  1  0.33280324  0.00272891  0.33565695  1
  Fe  Fe12  1  0.33224134  0.33743528  0.00211547  1
  Ni  Ni13  1  0.49754645  0.50147870  0.16818180  1
  Ni  Ni14  1  0.33451566  0.33317066  0.33309317  1
  Ni  Ni15  1  0.33517049  0.66657894  0.99917913  1
  Cr  Cr16  1  0.49957480  0.83431930  0.16702518  1
  Ni  Ni17  1  0.33368349  0.66766905  0.33549292  1
  Fe  Fe18  1  0.66711331  0.99696463  0.00160288  1
  Cr  Cr19  1  0.83451165  0.16671839  0.16975654  1
  Ni  Ni20  1  0.66800215  0.00164389  0.33528371  1
  Cr  Cr21  1  0.66595546  0.33769011  0.00170699  1
  Fe  Fe22  1  0.83479132  0.50233420  0.16740991  1
  Cr  Cr23  1  0.66539566  0.33529516  0.33786538  1
  Ni  Ni24  1  0.66687959  0.66708569  0.99966401  1
  Fe  Fe25  1  0.83457308  0.83424348  0.16844123  1
  Cr  Cr26  1  0.66801919  0.66793923  0.33478932  1
  Fe  Fe27  1  0.16648473  0.16619407  0.50017348  1
  Fe  Fe28  1  0.00301266  1.00056957  0.66688835  1
  Ni  Ni29  1  0.16592460  0.16800578  0.83600253  1
  Cr  Cr30  1  0.16787801  0.50264418  0.50037956  1
  Ni  Ni31  1  1.00007363  0.33540882  0.66869013  1
  Fe  Fe32  1  0.16854237  0.50054748  0.83472475  1
  Ni  Ni33  1  0.16832284  0.83527620  0.50058987  1
  Fe  Fe34  1  1.00063224  0.66919741  0.66765145  1
  Ni  Ni35  1  0.16860534  0.83292290  0.83295400  1
  Ni  Ni36  1  0.50276787  0.16680769  0.49810928  1
  Cr  Cr37  1  0.33227718  1.00020955  0.66732877  1
  Cr  Cr38  1  0.50118631  0.16803884  0.83903374  1
  Fe  Fe39  1  0.50128005  0.50369450  0.50163044  1
  Cr  Cr40  1  0.33530790  0.33400403  0.66817219  1
  Ni  Ni41  1  0.50142443  0.50492749  0.83340509  1
  Ni  Ni42  1  0.50020550  0.83531556  0.50043243  1
  Fe  Fe43  1  0.33476625  0.66888332  0.66847646  1
  Fe  Fe44  1  0.50007063  0.83160005  0.83594271  1
  Fe  Fe45  1  0.83642751  0.16652022  0.50110869  1
  Cr  Cr46  1  0.66784485  0.99977374  0.66634365  1
  Cr  Cr47  1  0.83628713  0.16902019  0.83200784  1
  Ni  Ni48  1  0.83471461  0.49947103  0.50384569  1
  Fe  Fe49  1  0.66849094  0.33713607  0.66601886  1
  Fe  Fe50  1  0.83487203  0.50274314  0.83212337  1
  Ni  Ni51  1  0.83506869  0.83564392  0.50112925  1
  Fe  Fe52  1  0.66810726  0.66569461  0.66728751  1
  Fe  Fe53  1  0.83378576  0.83218779  0.83340218  1
" 