60,Ni35Fe41Cr23_11,-230.674913602763, 194.511288968483,Ni35Fe41Cr23,"# generated using pymatgen
 data_Cr13Fe22Ni19
_symmetry_space_group_name_H-M   'P 1'
_cell_length_a   7.44659304
_cell_length_b   7.44659304
_cell_length_c   10.53107287
_cell_angle_alpha   90.00000000
_cell_angle_beta   90.00000000
_cell_angle_gamma   90.00000000
_symmetry_Int_Tables_number   1
_chemical_formula_structural   Cr13Fe22Ni19
_chemical_formula_sum   'Cr13 Fe22 Ni19'
_cell_volume   583.96639853
_cell_formula_units_Z   1
loop_
 _symmetry_equiv_pos_site_id
 _symmetry_equiv_pos_as_xyz
  1  'x, y, z'
loop_
 _atom_site_type_symbol
 _atom_site_label
 _atom_site_symmetry_multiplicity
 _atom_site_fract_x
 _atom_site_fract_y
 _atom_site_fract_z
 _atom_site_occupancy
  Fe  Fe0  1  0.00199182  0.99978605  0.00170700  1
  Ni  Ni1  1  0.16780875  0.16690642  0.16928286  1
  Fe  Fe2  1  1.00096896  0.00296326  0.33535576  1
  Fe  Fe3  1  1.00054304  0.33374724  0.00419320  1
  Ni  Ni4  1  0.16765787  0.50205802  0.16746096  1
  Cr  Cr5  1  0.00173525  0.33363593  0.33545838  1
  Fe  Fe6  1  0.00283461  0.67066345  0.00334967  1
  Fe  Fe7  1  0.16699071  0.83670011  0.16617205  1
  Cr  Cr8  1  0.99965670  0.67055998  0.33412123  1
  Ni  Ni9  1  0.33555220  1.00007093  1.00113038  1
  Ni  Ni10  1  0.50140502  0.16488718  0.16816007  1
  Fe  Fe11  1  0.33340000  0.00339589  0.33534195  1
  Cr  Cr12  1  0.33638620  0.33398681  0.00176257  1
  Fe  Fe13  1  0.49993708  0.49958438  0.16824870  1
  Ni  Ni14  1  0.33488017  0.33279393  0.33338470  1
  Ni  Ni15  1  0.33376875  0.66999172  0.00160928  1
  Cr  Cr16  1  0.50056341  0.83638802  0.16947786  1
  Fe  Fe17  1  0.33403514  0.66692368  0.33374005  1
  Ni  Ni18  1  0.66882379  0.00224236  1.00033379  1
  Ni  Ni19  1  0.83481115  0.16692409  0.16543884  1
  Fe  Fe20  1  0.66986369  0.00221706  0.33444525  1
  Fe  Fe21  1  0.66721556  0.33224226  0.00163448  1
  Ni  Ni22  1  0.83597913  0.50104211  0.16741182  1
  Cr  Cr23  1  0.66837862  0.33390479  0.33238685  1
  Cr  Cr24  1  0.66711587  0.66907087  0.00222164  1
  Fe  Fe25  1  0.83588484  0.83802432  0.16749223  1
  Fe  Fe26  1  0.66856573  0.66829320  0.33416728  1
  Fe  Fe27  1  0.16865580  0.16443340  0.50069851  1
  Ni  Ni28  1  1.00032713  0.99825383  0.66730201  1
  Cr  Cr29  1  0.16687820  0.16422673  0.83462616  1
  Cr  Cr30  1  0.16829574  0.50259878  0.50342128  1
  Cr  Cr31  1  0.99882419  0.33185083  0.66524835  1
  Cr  Cr32  1  0.16759801  0.50507250  0.83401544  1
  Fe  Fe33  1  0.16800005  0.83653957  0.50316890  1
  Fe  Fe34  1  1.00112878  0.67237043  0.66718328  1
  Ni  Ni35  1  0.16898575  0.83538378  0.83498286  1
  Fe  Fe36  1  0.50278951  0.16644799  0.50130567  1
  Ni  Ni37  1  0.33456613  0.99803550  0.66720227  1
  Ni  Ni38  1  0.50411248  0.16436071  0.83422016  1
  Cr  Cr39  1  0.50242209  0.50357263  0.50097406  1
  Cr  Cr40  1  0.33856646  0.33259900  0.66883779  1
  Ni  Ni41  1  0.50289311  0.50339922  0.83449579  1
  Fe  Fe42  1  0.50215265  0.83639025  0.50172985  1
  Ni  Ni43  1  0.33627863  0.67242103  0.66955406  1
  Ni  Ni44  1  0.50008537  0.83645566  0.83347250  1
  Ni  Ni45  1  0.83319676  0.16550742  0.50268960  1
  Fe  Fe46  1  0.66718877  0.00213615  0.66857842  1
  Fe  Fe47  1  0.83270088  0.16480790  0.83449590  1
  Ni  Ni48  1  0.83276651  0.50216892  0.50313654  1
  Ni  Ni49  1  0.66837053  0.33382448  0.66902214  1
  Cr  Cr50  1  0.83508577  0.50002000  0.83346537  1
  Fe  Fe51  1  0.83351059  0.83512312  0.50210322  1
  Fe  Fe52  1  0.66721769  0.67002248  0.66851100  1
  Fe  Fe53  1  0.83481292  0.83713817  0.83423461  1
" 