2603,Ni35Cr65_12,-226.125899129072, 145.191117921568,Ni35Cr65,"# generated using pymatgen
 data_CrNi2
_symmetry_space_group_name_H-M   'P 1'
_cell_length_a   7.48976369
_cell_length_b   7.48976369
_cell_length_c   10.59212538
_cell_angle_alpha   90.00000000
_cell_angle_beta   90.00000000
_cell_angle_gamma   90.00000000
_symmetry_Int_Tables_number   1
_chemical_formula_structural   CrNi2
_chemical_formula_sum   'Cr18 Ni36'
_cell_volume   594.18179771
_cell_formula_units_Z   18
loop_
 _symmetry_equiv_pos_site_id
 _symmetry_equiv_pos_as_xyz
  1  'x, y, z'
loop_
 _atom_site_type_symbol
 _atom_site_label
 _atom_site_symmetry_multiplicity
 _atom_site_fract_x
 _atom_site_fract_y
 _atom_site_fract_z
 _atom_site_occupancy
  Cr  Cr0  1  -0.00095637  0.99813253  -0.00109018  1
  Ni  Ni1  1  0.16687992  0.16302086  0.16497012  1
  Ni  Ni2  1  -0.00109582  0.99778397  0.33144774  1
  Ni  Ni3  1  0.00091219  0.33355865  0.00043894  1
  Ni  Ni4  1  0.16116677  0.50093076  0.16290195  1
  Cr  Cr5  1  -0.00014120  0.33102845  0.33153389  1
  Ni  Ni6  1  -0.00098720  0.66441006  0.00173270  1
  Ni  Ni7  1  0.16519600  0.83150145  0.16518043  1
  Ni  Ni8  1  0.99692697  0.66618935  0.32838212  1
  Ni  Ni9  1  0.33420010  0.99781257  -0.00020325  1
  Ni  Ni10  1  0.49766120  0.16040325  0.16569689  1
  Ni  Ni11  1  0.33189138  0.99844593  0.32931607  1
  Cr  Cr12  1  0.32983159  0.32950757  -0.00120676  1
  Cr  Cr13  1  0.49967120  0.49843916  0.16629566  1
  Cr  Cr14  1  0.33078535  0.33016820  0.33207190  1
  Ni  Ni15  1  0.33118296  0.66755397  -0.00095835  1
  Ni  Ni16  1  0.49798412  0.83559875  0.16509981  1
  Cr  Cr17  1  0.33231322  0.66616083  0.33281796  1
  Ni  Ni18  1  0.66165856  0.99610000  0.99817195  1
  Cr  Cr19  1  0.82938323  0.16519988  0.16659895  1
  Ni  Ni20  1  0.66461036  0.99690143  0.33062302  1
  Cr  Cr21  1  0.66482521  0.33058615  0.99818055  1
  Ni  Ni22  1  0.83496984  0.50109246  0.16589543  1
  Ni  Ni23  1  0.66536748  0.33200308  0.33196077  1
  Cr  Cr24  1  0.66540665  0.66896014  0.99767892  1
  Ni  Ni25  1  0.83224414  0.82989255  0.16672192  1
  Ni  Ni26  1  0.66600646  0.66650165  0.33083104  1
  Ni  Ni27  1  0.16364363  0.16502775  0.50054363  1
  Ni  Ni28  1  0.99846483  0.00089844  0.66482156  1
  Ni  Ni29  1  0.16729752  0.16501291  0.82997467  1
  Ni  Ni30  1  0.16589752  0.49798099  0.50152614  1
  Ni  Ni31  1  0.00088539  0.32948491  0.66353677  1
  Cr  Cr32  1  0.16564049  0.49880160  0.83146381  1
  Cr  Cr33  1  0.16610300  0.83239820  0.49947199  1
  Ni  Ni34  1  -0.00001496  0.66509292  0.66539659  1
  Cr  Cr35  1  0.16607182  0.83176339  0.83082971  1
  Cr  Cr36  1  0.50012595  0.16419588  0.49802493  1
  Ni  Ni37  1  0.33233787  -0.00018631  0.66624001  1
  Ni  Ni38  1  0.49727662  0.16304788  0.83073432  1
  Ni  Ni39  1  0.49758616  0.49879170  0.49986586  1
  Ni  Ni40  1  0.33130578  0.33186630  0.66519670  1
  Ni  Ni41  1  0.49675138  0.49823312  0.82931676  1
  Ni  Ni42  1  0.49802449  0.83193714  0.49838177  1
  Ni  Ni43  1  0.33312670  0.66378386  0.66426213  1
  Ni  Ni44  1  0.49808279  0.83414975  0.83195656  1
  Ni  Ni45  1  0.83237059  0.16478162  0.49961723  1
  Ni  Ni46  1  0.66464142  -0.00088705  0.66659409  1
  Cr  Cr47  1  0.83124634  0.16420734  0.82941015  1
  Cr  Cr48  1  0.83151143  0.49657902  0.49773116  1
  Ni  Ni49  1  0.66326715  0.33032950  0.66494116  1
  Cr  Cr50  1  0.83351892  0.49859923  0.83216083  1
  Cr  Cr51  1  0.83184222  0.83462316  0.49762815  1
  Cr  Cr52  1  0.66235231  0.66676727  0.66634236  1
  Ni  Ni53  1  0.83085871  0.83294619  0.83105115  1
" 