9006,Ni35Fe39Cr24_17,-230.132341837743, 193.173530477722,Ni35Fe39Cr24,"# generated using pymatgen
 data_Cr14Fe21Ni19
_symmetry_space_group_name_H-M   'P 1'
_cell_length_a   7.45609300
_cell_length_b   7.45609300
_cell_length_c   10.54450784
_cell_angle_alpha   90.00000000
_cell_angle_beta   90.00000000
_cell_angle_gamma   90.00000000
_symmetry_Int_Tables_number   1
_chemical_formula_structural   Cr14Fe21Ni19
_chemical_formula_sum   'Cr14 Fe21 Ni19'
_cell_volume   586.20422758
_cell_formula_units_Z   1
loop_
 _symmetry_equiv_pos_site_id
 _symmetry_equiv_pos_as_xyz
  1  'x, y, z'
loop_
 _atom_site_type_symbol
 _atom_site_label
 _atom_site_symmetry_multiplicity
 _atom_site_fract_x
 _atom_site_fract_y
 _atom_site_fract_z
 _atom_site_occupancy
  Cr  Cr0  1  0.99969388  0.99736673  0.00095728  1
  Ni  Ni1  1  0.16712218  0.16979545  0.16913830  1
  Fe  Fe2  1  0.00127730  1.00051576  0.33322255  1
  Ni  Ni3  1  0.00156907  0.33701890  0.00180657  1
  Fe  Fe4  1  0.16633887  0.50166034  0.16937814  1
  Cr  Cr5  1  1.00014263  0.33535509  0.33610756  1
  Cr  Cr6  1  1.00062377  0.66688324  0.99914352  1
  Fe  Fe7  1  0.16487756  0.83507353  0.16976665  1
  Fe  Fe8  1  0.99899088  0.66951775  0.33522572  1
  Cr  Cr9  1  0.33615972  0.99997712  0.00348721  1
  Fe  Fe10  1  0.50229497  0.16730162  0.16778303  1
  Fe  Fe11  1  0.33300388  0.00206744  0.33380682  1
  Cr  Cr12  1  0.33503622  0.33522585  0.00120007  1
  Fe  Fe13  1  0.50088208  0.50196395  0.16925925  1
  Ni  Ni14  1  0.33299497  0.33449553  0.33431556  1
  Fe  Fe15  1  0.33500731  0.66763924  0.00307601  1
  Fe  Fe16  1  0.50106596  0.83296131  0.16885748  1
  Ni  Ni17  1  0.33144695  0.66951448  0.33272966  1
  Ni  Ni18  1  0.66681040  0.99917799  0.00164664  1
  Ni  Ni19  1  0.83645888  0.16634107  0.16384246  1
  Cr  Cr20  1  0.66833086  0.99950156  0.33410112  1
  Fe  Fe21  1  0.66899582  0.33491834  0.00232192  1
  Fe  Fe22  1  0.83374857  0.50046675  0.16672826  1
  Cr  Cr23  1  0.66705480  0.33106216  0.33453702  1
  Ni  Ni24  1  0.66761541  0.66842968  0.00229247  1
  Ni  Ni25  1  0.83087340  0.83357612  0.16769711  1
  Fe  Fe26  1  0.66699491  0.66691488  0.33260054  1
  Ni  Ni27  1  0.16804404  0.16557277  0.49898216  1
  Fe  Fe28  1  0.99991403  0.00079827  0.66594616  1
  Cr  Cr29  1  0.16540634  0.16699161  0.83380299  1
  Ni  Ni30  1  0.16883503  0.50048518  0.49737105  1
  Cr  Cr31  1  0.99981375  0.33989343  0.66543064  1
  Ni  Ni32  1  0.17039977  0.50262732  0.83600563  1
  Fe  Fe33  1  0.16626802  0.83334032  0.49964884  1
  Cr  Cr34  1  1.00062618  0.66934319  0.66767015  1
  Ni  Ni35  1  0.17051512  0.83186787  0.83247945  1
  Fe  Fe36  1  0.50147895  0.16610052  0.50150479  1
  Fe  Fe37  1  0.33385055  0.99888977  0.66522725  1
  Fe  Fe38  1  0.50249200  0.16691315  0.83349132  1
  Cr  Cr39  1  0.50098461  0.50421960  0.49962112  1
  Cr  Cr40  1  0.33537312  0.33383190  0.66625277  1
  Fe  Fe41  1  0.50344986  0.50102432  0.83401790  1
  Ni  Ni42  1  0.49983656  0.83364830  0.49973413  1
  Fe  Fe43  1  0.33335950  0.66728885  0.66588537  1
  Cr  Cr44  1  0.50156019  0.83145212  0.83351543  1
  Ni  Ni45  1  0.83690414  0.16577375  0.50256551  1
  Fe  Fe46  1  0.66802886  1.00001019  0.66534000  1
  Cr  Cr47  1  0.83352295  0.16752612  0.83613858  1
  Ni  Ni48  1  0.83242840  0.50237431  0.49931195  1
  Ni  Ni49  1  0.66742785  0.33222991  0.66720714  1
  Ni  Ni50  1  0.83175819  0.50064692  0.83653060  1
  Ni  Ni51  1  0.83119612  0.83401549  0.50044557  1
  Fe  Fe52  1  0.66890219  0.66516198  0.66727251  1
  Ni  Ni53  1  0.83188131  0.83291978  0.83324095  1
" 