3544,Ni35Fe47Cr17_17,-231.691023943511, 198.867764305533,Ni35Fe47Cr17,"# generated using pymatgen
 data_Cr11Fe25Ni18
_symmetry_space_group_name_H-M   'P 1'
_cell_length_a   7.44279996
_cell_length_b   7.44279996
_cell_length_c   10.52570865
_cell_angle_alpha   90.00000000
_cell_angle_beta   90.00000000
_cell_angle_gamma   90.00000000
_symmetry_Int_Tables_number   1
_chemical_formula_structural   Cr11Fe25Ni18
_chemical_formula_sum   'Cr11 Fe25 Ni18'
_cell_volume   583.07448610
_cell_formula_units_Z   1
loop_
 _symmetry_equiv_pos_site_id
 _symmetry_equiv_pos_as_xyz
  1  'x, y, z'
loop_
 _atom_site_type_symbol
 _atom_site_label
 _atom_site_symmetry_multiplicity
 _atom_site_fract_x
 _atom_site_fract_y
 _atom_site_fract_z
 _atom_site_occupancy
  Ni  Ni0  1  1.00142410  1.00019839  1.00047472  1
  Ni  Ni1  1  0.16913783  0.16888528  0.16733846  1
  Cr  Cr2  1  1.00160603  0.00263224  0.33539086  1
  Cr  Cr3  1  0.00297749  0.33329341  1.00086435  1
  Fe  Fe4  1  0.16956590  0.50081711  0.16984050  1
  Ni  Ni5  1  0.00351238  0.33489317  0.33598255  1
  Fe  Fe6  1  1.00003858  0.67000237  1.00111694  1
  Fe  Fe7  1  0.16894480  0.83520681  0.16839500  1
  Fe  Fe8  1  0.00406169  0.66622668  0.33407730  1
  Fe  Fe9  1  0.33422753  0.00402446  0.00242248  1
  Fe  Fe10  1  0.50104891  0.16886332  0.16823549  1
  Fe  Fe11  1  0.33667038  0.00253122  0.33535321  1
  Ni  Ni12  1  0.33644279  0.33361461  1.00117246  1
  Ni  Ni13  1  0.50221165  0.50086732  0.16690368  1
  Ni  Ni14  1  0.33364898  0.33473584  0.33418508  1
  Cr  Cr15  1  0.33604191  0.66681604  0.00165463  1
  Ni  Ni16  1  0.50232505  0.83513080  0.16862485  1
  Fe  Fe17  1  0.33382230  0.66867684  0.33426062  1
  Fe  Fe18  1  0.66880243  0.00190252  0.00239273  1
  Fe  Fe19  1  0.83333158  0.16824392  0.16942329  1
  Ni  Ni20  1  0.66638291  0.00293314  0.33516081  1
  Fe  Fe21  1  0.66621427  0.33526596  0.00179991  1
  Fe  Fe22  1  0.83420610  0.50150275  0.16875111  1
  Ni  Ni23  1  0.66772647  0.33222574  0.33345334  1
  Ni  Ni24  1  0.66949406  0.66859851  1.00154834  1
  Fe  Fe25  1  0.83420538  0.83513980  0.16617041  1
  Cr  Cr26  1  0.66694275  0.67005866  0.33381313  1
  Ni  Ni27  1  0.16706781  0.16849818  0.50255670  1
  Fe  Fe28  1  0.00184313  0.00389280  0.66884783  1
  Fe  Fe29  1  0.16830519  0.16669711  0.83532012  1
  Fe  Fe30  1  0.16780949  0.50108250  0.50017025  1
  Ni  Ni31  1  0.00299250  0.33210371  0.66789847  1
  Fe  Fe32  1  0.16847336  0.50121798  0.83487497  1
  Ni  Ni33  1  0.17200896  0.83602261  0.50184277  1
  Cr  Cr34  1  0.00206660  0.66895121  0.66952302  1
  Fe  Fe35  1  0.16660920  0.83696741  0.83474779  1
  Fe  Fe36  1  0.50176981  0.16487507  0.50012871  1
  Fe  Fe37  1  0.33432406  1.00085387  0.66711418  1
  Ni  Ni38  1  0.50072323  0.16923633  0.83734908  1
  Cr  Cr39  1  0.50070541  0.50324337  0.50168231  1
  Cr  Cr40  1  0.33271508  0.33425677  0.66918602  1
  Fe  Fe41  1  0.50299754  0.50116180  0.83620068  1
  Ni  Ni42  1  0.49904377  0.83627523  0.50299392  1
  Fe  Fe43  1  0.33513845  0.66950211  0.66781487  1
  Cr  Cr44  1  0.50313400  0.83493372  0.83312301  1
  Ni  Ni45  1  0.83672789  0.16922832  0.50203368  1
  Fe  Fe46  1  0.66871938  1.00157185  0.66781992  1
  Fe  Fe47  1  0.83482191  0.16628601  0.83438803  1
  Cr  Cr48  1  0.83651995  0.49841382  0.50036152  1
  Cr  Cr49  1  0.66946497  0.33411001  0.66929362  1
  Fe  Fe50  1  0.83341963  0.50286281  0.83505694  1
  Cr  Cr51  1  0.83323418  0.83678995  0.50258002  1
  Ni  Ni52  1  0.66667835  0.67107340  0.67006874  1
  Ni  Ni53  1  0.83563430  0.83456751  0.83617896  1
" 