2710,Ni35Fe16Cr47_5,-220.230536390702, 164.054788339473,Ni35Fe16Cr47,"# generated using pymatgen
 data_Cr27Fe8Ni19
_symmetry_space_group_name_H-M   'P 1'
_cell_length_a   7.51014591
_cell_length_b   7.51014591
_cell_length_c   10.62095021
_cell_angle_alpha   90.00000000
_cell_angle_beta   90.00000000
_cell_angle_gamma   90.00000000
_symmetry_Int_Tables_number   1
_chemical_formula_structural   Cr27Fe8Ni19
_chemical_formula_sum   'Cr27 Fe8 Ni19'
_cell_volume   599.04593084
_cell_formula_units_Z   1
loop_
 _symmetry_equiv_pos_site_id
 _symmetry_equiv_pos_as_xyz
  1  'x, y, z'
loop_
 _atom_site_type_symbol
 _atom_site_label
 _atom_site_symmetry_multiplicity
 _atom_site_fract_x
 _atom_site_fract_y
 _atom_site_fract_z
 _atom_site_occupancy
  Cr  Cr0  1  -0.00245855  0.00231432  -0.00223699  1
  Ni  Ni1  1  0.16428908  0.16870466  0.16418345  1
  Cr  Cr2  1  -0.00046016  0.00094263  0.32814084  1
  Ni  Ni3  1  -0.00276732  0.33065629  0.99647085  1
  Fe  Fe4  1  0.16417422  0.49257066  0.16057332  1
  Cr  Cr5  1  -0.00124226  0.33068417  0.33106868  1
  Ni  Ni6  1  -0.00238760  0.65774245  -0.00181091  1
  Cr  Cr7  1  0.16450082  0.82861013  0.16146647  1
  Cr  Cr8  1  0.99706616  0.65971652  0.33065830  1
  Cr  Cr9  1  0.32961519  0.00132001  0.99514260  1
  Cr  Cr10  1  0.49720197  0.16804848  0.16656592  1
  Ni  Ni11  1  0.32992651  0.00146281  0.33134833  1
  Ni  Ni12  1  0.32862336  0.33130550  -0.00233769  1
  Ni  Ni13  1  0.49638550  0.49327958  0.16386923  1
  Ni  Ni14  1  0.33079194  0.32962481  0.33120433  1
  Ni  Ni15  1  0.32922392  0.65824599  -0.00079441  1
  Cr  Cr16  1  0.49570288  0.83044153  0.16508833  1
  Cr  Cr17  1  0.33090599  0.65920527  0.32966064  1
  Cr  Cr18  1  0.66433389  0.00155285  0.99518703  1
  Ni  Ni19  1  0.83098104  0.16996929  0.16449694  1
  Ni  Ni20  1  0.66255037  0.00063956  0.32989619  1
  Fe  Fe21  1  0.66497019  0.33053930  -0.00200763  1
  Ni  Ni22  1  0.83020071  0.49266774  0.16104866  1
  Ni  Ni23  1  0.66294860  0.33182905  0.32837698  1
  Cr  Cr24  1  0.66310690  0.65992741  -0.00258361  1
  Cr  Cr25  1  0.83110265  0.83067148  0.16554840  1
  Cr  Cr26  1  0.66336840  0.65891989  0.33201768  1
  Ni  Ni27  1  0.16723091  0.16803513  0.49849104  1
  Cr  Cr28  1  -0.00172745  0.00248298  0.66523496  1
  Ni  Ni29  1  0.16427822  0.16806386  0.82897893  1
  Fe  Fe30  1  0.16554150  0.49308319  0.49876221  1
  Fe  Fe31  1  -0.00184072  0.32991040  0.66411484  1
  Cr  Cr32  1  0.16302606  0.49580431  0.83221152  1
  Cr  Cr33  1  0.16592379  0.83137819  0.49767469  1
  Cr  Cr34  1  -0.00283047  0.65988776  0.66181318  1
  Cr  Cr35  1  0.16492549  0.82754520  0.83177689  1
  Cr  Cr36  1  0.49599785  0.16501347  0.49496186  1
  Fe  Fe37  1  0.33155279  -0.00005259  0.66457396  1
  Ni  Ni38  1  0.49672444  0.16607820  0.82942254  1
  Fe  Fe39  1  0.49574846  0.49396377  0.49635816  1
  Fe  Fe40  1  0.32880903  0.32888202  0.66385870  1
  Cr  Cr41  1  0.49465206  0.49446121  0.83242795  1
  Cr  Cr42  1  0.49670997  0.83285453  0.49768962  1
  Ni  Ni43  1  0.33044065  0.66067003  0.66206009  1
  Cr  Cr44  1  0.49502878  0.83107562  0.82839953  1
  Cr  Cr45  1  0.82924703  0.16596315  0.49499198  1
  Ni  Ni46  1  0.66234737  0.00034733  0.66601610  1
  Ni  Ni47  1  0.83045444  0.16798378  0.83072560  1
  Ni  Ni48  1  0.83078275  0.49440587  0.49790466  1
  Cr  Cr49  1  0.66421863  0.33011258  0.66601795  1
  Fe  Fe50  1  0.83248574  0.49261197  0.83249591  1
  Cr  Cr51  1  0.82894277  0.83147283  0.49556999  1
  Cr  Cr52  1  0.66215931  0.66181783  0.66217804  1
  Cr  Cr53  1  0.83157191  0.82961074  0.83010288  1
" 