782,Ni35Fe20Cr43_7,-222.525832719705, 170.902750025527,Ni35Fe20Cr43,"# generated using pymatgen
 data_Cr24Fe11Ni19
_symmetry_space_group_name_H-M   'P 1'
_cell_length_a   7.49329962
_cell_length_b   7.49329962
_cell_length_c   10.59712595
_cell_angle_alpha   90.00000000
_cell_angle_beta   90.00000000
_cell_angle_gamma   90.00000000
_symmetry_Int_Tables_number   1
_chemical_formula_structural   Cr24Fe11Ni19
_chemical_formula_sum   'Cr24 Fe11 Ni19'
_cell_volume   595.02373855
_cell_formula_units_Z   1
loop_
 _symmetry_equiv_pos_site_id
 _symmetry_equiv_pos_as_xyz
  1  'x, y, z'
loop_
 _atom_site_type_symbol
 _atom_site_label
 _atom_site_symmetry_multiplicity
 _atom_site_fract_x
 _atom_site_fract_y
 _atom_site_fract_z
 _atom_site_occupancy
  Ni  Ni0  1  0.00031275  0.00071256  -0.00108709  1
  Ni  Ni1  1  0.16373767  0.16355761  0.16200778  1
  Fe  Fe2  1  -0.00039778  0.00054138  0.33069487  1
  Cr  Cr3  1  -0.00059015  0.33077142  -0.00019876  1
  Ni  Ni4  1  0.16843886  0.49806736  0.16072570  1
  Cr  Cr5  1  -0.00010475  0.33228171  0.32881828  1
  Cr  Cr6  1  -0.00173675  0.66479678  0.99575111  1
  Cr  Cr7  1  0.16613925  0.83335145  0.16412483  1
  Cr  Cr8  1  -0.00064449  0.66377765  0.33302579  1
  Ni  Ni9  1  0.33116996  -0.00137759  0.99787307  1
  Cr  Cr10  1  0.49951812  0.16606689  0.16322495  1
  Cr  Cr11  1  0.33337314  0.99774067  0.33362000  1
  Ni  Ni12  1  0.33015834  0.33056735  -0.00073387  1
  Ni  Ni13  1  0.49694256  0.49859354  0.16344512  1
  Cr  Cr14  1  0.33120875  0.33011815  0.32894724  1
  Ni  Ni15  1  0.33272982  0.66514622  -0.00129361  1
  Ni  Ni16  1  0.49760546  0.82970870  0.16428403  1
  Cr  Cr17  1  0.33171035  0.66575902  0.33152259  1
  Cr  Cr18  1  0.66384215  0.99721687  0.99518505  1
  Ni  Ni19  1  0.83194232  0.16443977  0.16573944  1
  Fe  Fe20  1  0.66337685  -0.00142497  0.33170939  1
  Ni  Ni21  1  0.66367419  0.33130350  -0.00021318  1
  Cr  Cr22  1  0.82667442  0.49694642  0.16735955  1
  Ni  Ni23  1  0.66521041  0.33021935  0.33291016  1
  Cr  Cr24  1  0.66355339  0.66707808  0.99747347  1
  Cr  Cr25  1  0.83197275  0.83569271  0.16542143  1
  Fe  Fe26  1  0.66180558  0.66520890  0.33172447  1
  Cr  Cr27  1  0.16402341  0.16218608  0.50025811  1
  Ni  Ni28  1  -0.00074085  0.99652196  0.66503790  1
  Ni  Ni29  1  0.16490243  0.16352210  0.83176248  1
  Cr  Cr30  1  0.16599116  0.49974391  0.50394570  1
  Fe  Fe31  1  -0.00061583  0.32841667  0.66664787  1
  Fe  Fe32  1  0.16696700  0.49675638  0.83075416  1
  Ni  Ni33  1  0.16633797  0.83206856  0.50096077  1
  Ni  Ni34  1  -0.00031907  0.66387690  0.66506490  1
  Cr  Cr35  1  0.16551097  0.83380572  0.83126086  1
  Fe  Fe36  1  0.49832510  0.16235501  0.49997511  1
  Ni  Ni37  1  0.33243721  -0.00054903  0.66336988  1
  Cr  Cr38  1  0.49606419  0.16506578  0.82992406  1
  Cr  Cr39  1  0.49936114  0.49554208  0.49896049  1
  Fe  Fe40  1  0.32969683  0.32966011  0.66707538  1
  Cr  Cr41  1  0.49583647  0.49786835  0.83477837  1
  Ni  Ni42  1  0.49811600  0.83126109  0.49934124  1
  Fe  Fe43  1  0.33214072  0.67005685  0.66579021  1
  Ni  Ni44  1  0.49487158  0.83213706  0.83074686  1
  Cr  Cr45  1  0.83014785  0.16615549  0.49768780  1
  Ni  Ni46  1  0.66243670  -0.00148667  0.66401552  1
  Cr  Cr47  1  0.83293483  0.16310368  0.83201317  1
  Fe  Fe48  1  0.83194337  0.49897572  0.49958395  1
  Fe  Fe49  1  0.66482635  0.32918884  0.66424208  1
  Cr  Cr50  1  0.83052960  0.49643663  0.82860422  1
  Cr  Cr51  1  0.83407631  0.83376522  0.49693444  1
  Cr  Cr52  1  0.66563345  0.66806210  0.66567700  1
  Fe  Fe53  1  0.83235020  0.83405015  0.82893391  1
" 