2359,Ni35Fe26Cr37_3,-224.858040037018, 181.281615222944,Ni35Fe26Cr37,"# generated using pymatgen
 data_Cr21Fe14Ni19
_symmetry_space_group_name_H-M   'P 1'
_cell_length_a   7.47432618
_cell_length_b   7.47432618
_cell_length_c   10.57029346
_cell_angle_alpha   90.00000000
_cell_angle_beta   90.00000000
_cell_angle_gamma   90.00000000
_symmetry_Int_Tables_number   1
_chemical_formula_structural   Cr21Fe14Ni19
_chemical_formula_sum   'Cr21 Fe14 Ni19'
_cell_volume   590.51527770
_cell_formula_units_Z   1
loop_
 _symmetry_equiv_pos_site_id
 _symmetry_equiv_pos_as_xyz
  1  'x, y, z'
loop_
 _atom_site_type_symbol
 _atom_site_label
 _atom_site_symmetry_multiplicity
 _atom_site_fract_x
 _atom_site_fract_y
 _atom_site_fract_z
 _atom_site_occupancy
  Cr  Cr0  1  0.00028325  0.99774966  -0.00046694  1
  Ni  Ni1  1  0.16465878  0.16629249  0.16512389  1
  Cr  Cr2  1  0.99690803  0.99794814  0.33060540  1
  Ni  Ni3  1  0.00264160  0.33125440  0.00227084  1
  Ni  Ni4  1  0.16749772  0.50218327  0.16876638  1
  Fe  Fe5  1  0.00271093  0.33286719  0.33061009  1
  Fe  Fe6  1  0.00063675  0.66515866  0.00196553  1
  Ni  Ni7  1  0.16923560  0.82935153  0.16338896  1
  Ni  Ni8  1  0.00354653  0.66558691  0.32976055  1
  Fe  Fe9  1  0.33018067  0.99679509  0.00029231  1
  Cr  Cr10  1  0.49816804  0.16415307  0.16562547  1
  Cr  Cr11  1  0.33406857  0.99866436  0.33109649  1
  Cr  Cr12  1  0.33041926  0.33568856  0.00264621  1
  Ni  Ni13  1  0.49768875  0.50541895  0.16480049  1
  Ni  Ni14  1  0.33232633  0.33876054  0.33119498  1
  Ni  Ni15  1  0.33263731  0.66562677  -0.00018920  1
  Fe  Fe16  1  0.49773757  0.82850776  0.16659996  1
  Ni  Ni17  1  0.33222762  0.66151358  0.33394920  1
  Cr  Cr18  1  0.67008956  0.99661419  0.00386840  1
  Ni  Ni19  1  0.83466332  0.16594121  0.16777569  1
  Ni  Ni20  1  0.66740344  0.99848672  0.33295067  1
  Cr  Cr21  1  0.66466424  0.33514614  0.99815051  1
  Cr  Cr22  1  0.83406024  0.49963652  0.16635389  1
  Cr  Cr23  1  0.66195612  0.33135820  0.33426319  1
  Ni  Ni24  1  0.66437871  0.66761503  0.00061318  1
  Fe  Fe25  1  0.83327724  0.83041055  0.16832518  1
  Fe  Fe26  1  0.66178867  0.66739706  0.33216682  1
  Cr  Cr27  1  0.16439483  0.16747642  0.49915918  1
  Ni  Ni28  1  0.00097662  0.00064867  0.66845543  1
  Ni  Ni29  1  0.16571777  0.16353857  0.83291699  1
  Ni  Ni30  1  0.16891044  0.50022024  0.49571816  1
  Fe  Fe31  1  0.00048262  0.33116007  0.66554725  1
  Cr  Cr32  1  0.16474758  0.50014423  0.83423765  1
  Cr  Cr33  1  0.16997522  0.83112587  0.50223415  1
  Cr  Cr34  1  0.00053881  0.66889997  0.66764790  1
  Fe  Fe35  1  0.16668474  0.83525137  0.83345938  1
  Fe  Fe36  1  0.49885206  0.16699467  0.49868382  1
  Ni  Ni37  1  0.33032185  0.00096344  0.66777517  1
  Cr  Cr38  1  0.49629099  0.16379060  0.83326229  1
  Ni  Ni39  1  0.49890433  0.50350130  0.50156924  1
  Cr  Cr40  1  0.33441768  0.33616582  0.66470971  1
  Fe  Fe41  1  0.49868377  0.50161442  0.83267845  1
  Fe  Fe42  1  0.49927929  0.83099682  0.49953342  1
  Fe  Fe43  1  0.33524694  0.66801630  0.66517349  1
  Cr  Cr44  1  0.49715680  0.83113527  0.83345908  1
  Ni  Ni45  1  0.83163321  0.16671375  0.50064467  1
  Cr  Cr46  1  0.66791935  0.99873897  0.66240128  1
  Cr  Cr47  1  0.83522529  0.16926063  0.83062820  1
  Cr  Cr48  1  0.83585333  0.49825634  0.49814114  1
  Fe  Fe49  1  0.66596120  0.33392868  0.66361192  1
  Cr  Cr50  1  0.83076865  0.50120096  0.83355895  1
  Cr  Cr51  1  0.83190566  0.83196974  0.49723885  1
  Ni  Ni52  1  0.66401416  0.66366736  0.66627298  1
  Fe  Fe53  1  0.83298906  0.83220008  0.83248023  1
" 