5517,Ni35Fe9Cr54_1,-217.792759533252, 158.183610418695,Ni35Fe9Cr54,"# generated using pymatgen
 data_Cr30Fe5Ni19
_symmetry_space_group_name_H-M   'P 1'
_cell_length_a   7.51992507
_cell_length_b   7.51992507
_cell_length_c   10.63478003
_cell_angle_alpha   90.00000000
_cell_angle_beta   90.00000000
_cell_angle_gamma   90.00000000
_symmetry_Int_Tables_number   1
_chemical_formula_structural   Cr30Fe5Ni19
_chemical_formula_sum   'Cr30 Fe5 Ni19'
_cell_volume   601.38908031
_cell_formula_units_Z   1
loop_
 _symmetry_equiv_pos_site_id
 _symmetry_equiv_pos_as_xyz
  1  'x, y, z'
loop_
 _atom_site_type_symbol
 _atom_site_label
 _atom_site_symmetry_multiplicity
 _atom_site_fract_x
 _atom_site_fract_y
 _atom_site_fract_z
 _atom_site_occupancy
  Cr  Cr0  1  0.99349656  0.99581031  0.00090918  1
  Cr  Cr1  1  0.16208885  0.16195297  0.16123114  1
  Fe  Fe2  1  0.99565066  0.99638682  0.32807029  1
  Ni  Ni3  1  0.99578467  0.33093920  0.99422590  1
  Cr  Cr4  1  0.16433122  0.49677683  0.15858368  1
  Cr  Cr5  1  0.99512288  0.32981167  0.33196351  1
  Ni  Ni6  1  0.99494577  0.66174155  -0.00346679  1
  Ni  Ni7  1  0.16033009  0.82826628  0.16449181  1
  Cr  Cr8  1  -0.00156375  0.66262967  0.32858935  1
  Cr  Cr9  1  0.33126412  0.99645149  0.99421373  1
  Cr  Cr10  1  0.49775238  0.16721674  0.16285482  1
  Cr  Cr11  1  0.32793080  0.99601059  0.33174888  1
  Fe  Fe12  1  0.33047936  0.33215660  0.99457067  1
  Ni  Ni13  1  0.49661378  0.49764016  0.16343190  1
  Cr  Cr14  1  0.32968067  0.33262220  0.32972388  1
  Cr  Cr15  1  0.33030175  0.66254112  -0.00320673  1
  Cr  Cr16  1  0.49629981  0.82725805  0.16383132  1
  Ni  Ni17  1  0.32890632  0.66361457  0.32959180  1
  Cr  Cr18  1  0.66455519  0.99506146  0.99197092  1
  Ni  Ni19  1  0.83165808  0.16320873  0.16409992  1
  Cr  Cr20  1  0.66502212  -0.00209679  0.32963377  1
  Cr  Cr21  1  0.66351804  0.32948120  -0.00247931  1
  Cr  Cr22  1  0.82703270  0.49551723  0.16178131  1
  Ni  Ni23  1  0.66395884  0.32918264  0.32967978  1
  Ni  Ni24  1  0.66414334  0.66243924  0.99571421  1
  Ni  Ni25  1  0.83210971  0.82911925  0.16088676  1
  Cr  Cr26  1  0.66442870  0.66175157  0.32855631  1
  Ni  Ni27  1  0.16312022  0.16535553  0.49716337  1
  Cr  Cr28  1  0.99467058  -0.00347246  0.66389011  1
  Cr  Cr29  1  0.16186515  0.16570920  0.83149740  1
  Fe  Fe30  1  0.16285888  0.49625516  0.49696086  1
  Fe  Fe31  1  -0.00308038  0.33124639  0.66296851  1
  Fe  Fe32  1  0.16261095  0.49721148  0.83174526  1
  Cr  Cr33  1  0.16304741  0.83064444  0.49537321  1
  Ni  Ni34  1  -0.00263837  0.65851539  0.66348929  1
  Cr  Cr35  1  0.16062615  0.82845689  0.83027019  1
  Ni  Ni36  1  0.49409374  0.16402029  0.49568660  1
  Cr  Cr37  1  0.33267906  -0.00241216  0.66329671  1
  Ni  Ni38  1  0.49667632  0.16655868  0.83020699  1
  Cr  Cr39  1  0.50024497  0.49753104  0.49191280  1
  Cr  Cr40  1  0.32856086  0.33120038  0.66451726  1
  Ni  Ni41  1  0.49642103  0.49656833  0.83349462  1
  Ni  Ni42  1  0.49462492  0.83023436  0.49602748  1
  Cr  Cr43  1  0.32903183  0.66122452  0.66238263  1
  Ni  Ni44  1  0.49802734  0.82660011  0.82949339  1
  Cr  Cr45  1  0.82956164  0.16548202  0.49639353  1
  Cr  Cr46  1  0.66130956  -0.00330256  0.66845948  1
  Ni  Ni47  1  0.83062984  0.16466801  0.83014467  1
  Ni  Ni48  1  0.83317242  0.49515724  0.49783936  1
  Cr  Cr49  1  0.66242303  0.32908710  0.66220463  1
  Cr  Cr50  1  0.83067396  0.49726659  0.82882562  1
  Cr  Cr51  1  0.82891702  0.82634081  0.49849049  1
  Cr  Cr52  1  0.66354974  0.66345237  0.66498101  1
  Ni  Ni53  1  0.83062498  0.82705499  0.83122804  1
" 