5798,Ni35Fe20Cr43_12,-222.480859771513, 165.158261889172,Ni35Fe20Cr43,"# generated using pymatgen
 data_Cr24Fe11Ni19
_symmetry_space_group_name_H-M   'P 1'
_cell_length_a   7.49928022
_cell_length_b   7.49928022
_cell_length_c   10.60558379
_cell_angle_alpha   90.00000000
_cell_angle_beta   90.00000000
_cell_angle_gamma   90.00000000
_symmetry_Int_Tables_number   1
_chemical_formula_structural   Cr24Fe11Ni19
_chemical_formula_sum   'Cr24 Fe11 Ni19'
_cell_volume   596.44958818
_cell_formula_units_Z   1
loop_
 _symmetry_equiv_pos_site_id
 _symmetry_equiv_pos_as_xyz
  1  'x, y, z'
loop_
 _atom_site_type_symbol
 _atom_site_label
 _atom_site_symmetry_multiplicity
 _atom_site_fract_x
 _atom_site_fract_y
 _atom_site_fract_z
 _atom_site_occupancy
  Cr  Cr0  1  0.99717906  0.99754446  0.99758739  1
  Fe  Fe1  1  0.16420751  0.16533930  0.16381219  1
  Ni  Ni2  1  -0.00098268  0.00110055  0.33025784  1
  Cr  Cr3  1  -0.00098413  0.33285620  0.99449733  1
  Ni  Ni4  1  0.16627564  0.49717149  0.15959854  1
  Ni  Ni5  1  -0.00015278  0.32920261  0.32978032  1
  Ni  Ni6  1  0.00022688  0.66338222  0.99540986  1
  Fe  Fe7  1  0.16429475  0.82974234  0.16162518  1
  Cr  Cr8  1  -0.00048771  0.66435978  0.33201174  1
  Ni  Ni9  1  0.33263776  0.99744913  0.00066869  1
  Fe  Fe10  1  0.49783658  0.16488001  0.16121131  1
  Cr  Cr11  1  0.32971817  0.99680544  0.32937143  1
  Ni  Ni12  1  0.33015179  0.33032777  -0.00114868  1
  Ni  Ni13  1  0.49316553  0.49913636  0.16233505  1
  Cr  Cr14  1  0.32820736  0.33045999  0.33126264  1
  Fe  Fe15  1  0.33045392  0.66467187  -0.00123447  1
  Ni  Ni16  1  0.49499613  0.83263304  0.15892373  1
  Cr  Cr17  1  0.33279771  0.66660893  0.32752128  1
  Ni  Ni18  1  0.66164220  0.99660456  0.99687084  1
  Ni  Ni19  1  0.83292789  0.16208375  0.16355567  1
  Cr  Cr20  1  0.66175377  0.99555854  0.33017386  1
  Cr  Cr21  1  0.66540926  0.32978059  -0.00191498  1
  Cr  Cr22  1  0.83274036  0.49702532  0.16667713  1
  Cr  Cr23  1  0.66487558  0.33221718  0.32922983  1
  Cr  Cr24  1  0.66513431  0.66619880  0.99734871  1
  Cr  Cr25  1  0.83247887  0.83291982  0.16476335  1
  Cr  Cr26  1  0.66137519  0.66643926  0.33493685  1
  Ni  Ni27  1  0.16183507  0.16211525  0.49907119  1
  Fe  Fe28  1  0.99717371  0.99616715  0.66469175  1
  Cr  Cr29  1  0.16828264  0.16176969  0.82849669  1
  Cr  Cr30  1  0.16432318  0.49756369  0.50155998  1
  Cr  Cr31  1  -0.00159437  0.33163630  0.66788088  1
  Fe  Fe32  1  0.16599274  0.49848449  0.83150431  1
  Cr  Cr33  1  0.16397015  0.83379588  0.49872664  1
  Fe  Fe34  1  0.99676562  0.66605248  0.66680192  1
  Cr  Cr35  1  0.16612212  0.82996950  0.83272606  1
  Cr  Cr36  1  0.49485315  0.16272570  0.50236219  1
  Ni  Ni37  1  0.33158245  0.99548962  0.66325972  1
  Cr  Cr38  1  0.49756743  0.16163331  0.83064193  1
  Cr  Cr39  1  0.49887833  0.49966399  0.50115598  1
  Ni  Ni40  1  0.32774738  0.33075133  0.66471393  1
  Cr  Cr41  1  0.49633442  0.49863951  0.83033893  1
  Ni  Ni42  1  0.49717912  0.83167901  0.50367924  1
  Ni  Ni43  1  0.33238469  0.66725546  0.66689534  1
  Fe  Fe44  1  0.49843246  0.83169446  0.83038755  1
  Cr  Cr45  1  0.83267383  0.16361279  0.49616398  1
  Ni  Ni46  1  0.66518255  0.99181848  0.66710071  1
  Fe  Fe47  1  0.83009023  0.16193819  0.83154459  1
  Ni  Ni48  1  0.83343585  0.49978897  0.49795973  1
  Cr  Cr49  1  0.66699027  0.33202184  0.66622001  1
  Ni  Ni50  1  0.83211663  0.50324256  0.83066232  1
  Fe  Fe51  1  0.83078767  0.83194336  0.49941135  1
  Ni  Ni52  1  0.66680366  0.66865087  0.66359721  1
  Fe  Fe53  1  0.83016159  0.83134828  0.83126473  1
" 