3188,Ni35Fe41Cr23_1,-230.764280979373, 197.847435413407,Ni35Fe41Cr23,"# generated using pymatgen
 data_Cr13Fe22Ni19
_symmetry_space_group_name_H-M   'P 1'
_cell_length_a   7.44760748
_cell_length_b   7.44760748
_cell_length_c   10.53250751
_cell_angle_alpha   90.00000000
_cell_angle_beta   90.00000000
_cell_angle_gamma   90.00000000
_symmetry_Int_Tables_number   1
_chemical_formula_structural   Cr13Fe22Ni19
_chemical_formula_sum   'Cr13 Fe22 Ni19'
_cell_volume   584.20509010
_cell_formula_units_Z   1
loop_
 _symmetry_equiv_pos_site_id
 _symmetry_equiv_pos_as_xyz
  1  'x, y, z'
loop_
 _atom_site_type_symbol
 _atom_site_label
 _atom_site_symmetry_multiplicity
 _atom_site_fract_x
 _atom_site_fract_y
 _atom_site_fract_z
 _atom_site_occupancy
  Cr  Cr0  1  0.00393690  0.00220354  0.00284824  1
  Fe  Fe1  1  0.16678000  0.16954343  0.17042278  1
  Fe  Fe2  1  0.00215122  1.00050126  0.33463061  1
  Ni  Ni3  1  0.00149420  0.33514266  0.99994165  1
  Fe  Fe4  1  0.16614669  0.49944953  0.16949166  1
  Ni  Ni5  1  1.00063659  0.33430507  0.33568797  1
  Ni  Ni6  1  0.00162877  0.66595491  0.99897880  1
  Fe  Fe7  1  0.16642582  0.83498561  0.16920987  1
  Ni  Ni8  1  0.00179876  0.66829411  0.33533849  1
  Ni  Ni9  1  0.33274384  0.00227531  0.00388102  1
  Ni  Ni10  1  0.49856126  0.16967773  0.16655920  1
  Ni  Ni11  1  0.33443980  1.00084076  0.33395040  1
  Fe  Fe12  1  0.33351101  0.33513659  0.00276767  1
  Fe  Fe13  1  0.50293716  0.49947293  0.16757929  1
  Fe  Fe14  1  0.33488440  0.33273905  0.33415376  1
  Cr  Cr15  1  0.33406787  0.66960164  0.00344793  1
  Fe  Fe16  1  0.50262140  0.83566402  0.16930255  1
  Fe  Fe17  1  0.33480798  0.66926891  0.33348592  1
  Cr  Cr18  1  0.66777406  0.00135368  0.00178679  1
  Ni  Ni19  1  0.83428745  0.16905333  0.16959619  1
  Cr  Cr20  1  0.66619957  0.00196845  0.33550098  1
  Ni  Ni21  1  0.66888833  0.33616662  0.00227475  1
  Cr  Cr22  1  0.83710241  0.50197116  0.16765562  1
  Fe  Fe23  1  0.66657493  0.33450777  0.33436396  1
  Ni  Ni24  1  0.66805868  0.66473787  0.00223446  1
  Ni  Ni25  1  0.83682480  0.83259132  0.16671917  1
  Fe  Fe26  1  0.66832796  0.66842892  0.33519876  1
  Ni  Ni27  1  0.17000556  0.16956571  0.49837898  1
  Cr  Cr28  1  0.00209140  1.00124391  0.66583841  1
  Fe  Fe29  1  0.16937466  0.16810815  0.83605854  1
  Cr  Cr30  1  0.16678687  0.50261715  0.50169872  1
  Cr  Cr31  1  1.00032887  0.33582275  0.66955577  1
  Fe  Fe32  1  0.16806109  0.50119619  0.83493094  1
  Fe  Fe33  1  0.16860219  0.83553521  0.49934359  1
  Ni  Ni34  1  0.00139178  0.66780699  0.66953307  1
  Ni  Ni35  1  0.16578109  0.83138469  0.83377668  1
  Ni  Ni36  1  0.49921512  0.16810123  0.50155741  1
  Cr  Cr37  1  0.33478494  1.00095221  0.66663320  1
  Cr  Cr38  1  0.50210994  0.16991610  0.83517031  1
  Fe  Fe39  1  0.50064443  0.50179570  0.49950072  1
  Fe  Fe40  1  0.33412806  0.33704126  0.66733313  1
  Ni  Ni41  1  0.49977635  0.49980244  0.83554824  1
  Ni  Ni42  1  0.50166281  0.83448312  0.50075704  1
  Fe  Fe43  1  0.33276954  0.66584789  0.66886752  1
  Cr  Cr44  1  0.50126507  0.83456110  0.83509379  1
  Fe  Fe45  1  0.83558637  0.16730592  0.49880070  1
  Fe  Fe46  1  0.67110867  0.00134462  0.66527550  1
  Ni  Ni47  1  0.83527096  0.16979950  0.83543144  1
  Fe  Fe48  1  0.83445856  0.50265901  0.49770951  1
  Cr  Cr49  1  0.66823918  0.33468111  0.66463459  1
  Fe  Fe50  1  0.83351194  0.50221064  0.83758668  1
  Ni  Ni51  1  0.83584840  0.83188814  0.50141687  1
  Cr  Cr52  1  0.66824305  0.66644199  0.66758714  1
  Fe  Fe53  1  0.83581802  0.83252790  0.83544979  1
" 