2547,Ni35Fe15Cr49_8,-219.893810098621, 159.585290020744,Ni35Fe15Cr49,"# generated using pymatgen
 data_Cr27Fe8Ni19
_symmetry_space_group_name_H-M   'P 1'
_cell_length_a   7.51232427
_cell_length_b   7.51232427
_cell_length_c   10.62403087
_cell_angle_alpha   90.00000000
_cell_angle_beta   90.00000000
_cell_angle_gamma   90.00000000
_symmetry_Int_Tables_number   1
_chemical_formula_structural   Cr27Fe8Ni19
_chemical_formula_sum   'Cr27 Fe8 Ni19'
_cell_volume   599.56735107
_cell_formula_units_Z   1
loop_
 _symmetry_equiv_pos_site_id
 _symmetry_equiv_pos_as_xyz
  1  'x, y, z'
loop_
 _atom_site_type_symbol
 _atom_site_label
 _atom_site_symmetry_multiplicity
 _atom_site_fract_x
 _atom_site_fract_y
 _atom_site_fract_z
 _atom_site_occupancy
  Cr  Cr0  1  0.99478155  0.99518625  0.99682379  1
  Cr  Cr1  1  0.16401064  0.16199498  0.16726669  1
  Cr  Cr2  1  -0.00232829  -0.00173146  0.32958377  1
  Cr  Cr3  1  0.99659240  0.33030714  0.99686608  1
  Cr  Cr4  1  0.16386843  0.49872465  0.16355903  1
  Ni  Ni5  1  -0.00272435  0.32831922  0.33039923  1
  Ni  Ni6  1  -0.00100972  0.66635659  0.99514400  1
  Ni  Ni7  1  0.16920165  0.82867212  0.16233476  1
  Cr  Cr8  1  -0.00052584  0.66420536  0.32870428  1
  Fe  Fe9  1  0.33044868  0.99157542  -0.00264611  1
  Cr  Cr10  1  0.49760713  0.16236964  0.16154849  1
  Fe  Fe11  1  0.33085242  -0.00233271  0.33037371  1
  Cr  Cr12  1  0.33120961  0.33349027  0.99629358  1
  Fe  Fe13  1  0.49683240  0.49980408  0.16452516  1
  Ni  Ni14  1  0.33188180  0.33104257  0.33239525  1
  Ni  Ni15  1  0.32991858  0.66572854  -0.00245221  1
  Ni  Ni16  1  0.49366501  0.82839718  0.16282403  1
  Ni  Ni17  1  0.33258342  0.66326500  0.32731698  1
  Ni  Ni18  1  0.66475853  0.99618489  0.99654373  1
  Ni  Ni19  1  0.82795692  0.16622002  0.16321365  1
  Cr  Cr20  1  0.66230785  -0.00238960  0.33051679  1
  Fe  Fe21  1  0.66514309  0.33035574  -0.00217926  1
  Cr  Cr22  1  0.82836444  0.49504234  0.16522674  1
  Ni  Ni23  1  0.66158477  0.32885969  0.32845015  1
  Ni  Ni24  1  0.66208886  0.66725528  -0.00118795  1
  Cr  Cr25  1  0.82906665  0.82925742  0.16249959  1
  Fe  Fe26  1  0.66002652  0.66121741  0.32821008  1
  Fe  Fe27  1  0.16653369  0.16532159  0.49769786  1
  Fe  Fe28  1  -0.00069538  -0.00185545  0.66604645  1
  Cr  Cr29  1  0.16437608  0.16234904  0.82672857  1
  Cr  Cr30  1  0.16396659  0.49442192  0.49838165  1
  Ni  Ni31  1  0.00028761  0.32772297  0.66410610  1
  Fe  Fe32  1  0.16392054  0.49942589  0.82958526  1
  Cr  Cr33  1  0.16617374  0.83276396  0.49738319  1
  Cr  Cr34  1  -0.00119158  0.66450323  0.66721602  1
  Ni  Ni35  1  0.16366659  0.82868024  0.83086050  1
  Ni  Ni36  1  0.49264912  0.16484365  0.49679171  1
  Ni  Ni37  1  0.32855031  -0.00184074  0.66212801  1
  Cr  Cr38  1  0.49701698  0.16239107  0.83147177  1
  Cr  Cr39  1  0.49600072  0.49595605  0.49541383  1
  Ni  Ni40  1  0.32706693  0.32907150  0.66206586  1
  Cr  Cr41  1  0.49533223  0.49796584  0.83091812  1
  Cr  Cr42  1  0.49415613  0.83122710  0.49664040  1
  Ni  Ni43  1  0.32726431  0.66381199  0.66599031  1
  Cr  Cr44  1  0.49487355  0.83055186  0.83119783  1
  Cr  Cr45  1  0.83243140  0.16611301  0.49703881  1
  Cr  Cr46  1  0.66477851  -0.00251350  0.66458214  1
  Ni  Ni47  1  0.83136360  0.16257778  0.83102017  1
  Cr  Cr48  1  0.83084471  0.49558167  0.49377319  1
  Cr  Cr49  1  0.66235348  0.32779931  0.66447868  1
  Cr  Cr50  1  0.83130373  0.49714964  0.83167795  1
  Cr  Cr51  1  0.83060648  0.82901937  0.49780709  1
  Cr  Cr52  1  0.66276946  0.66559478  0.66217434  1
  Ni  Ni53  1  0.83270876  0.83125962  0.83194161  1
" 