3042,Ni35Fe47Cr17_11,-231.230048077284, 196.564098163944,Ni35Fe47Cr17,"# generated using pymatgen
 data_Cr11Fe25Ni18
_symmetry_space_group_name_H-M   'P 1'
_cell_length_a   7.43972342
_cell_length_b   7.43972342
_cell_length_c   10.52135776
_cell_angle_alpha   90.00000000
_cell_angle_beta   90.00000000
_cell_angle_gamma   90.00000000
_symmetry_Int_Tables_number   1
_chemical_formula_structural   Cr11Fe25Ni18
_chemical_formula_sum   'Cr11 Fe25 Ni18'
_cell_volume   582.35172965
_cell_formula_units_Z   1
loop_
 _symmetry_equiv_pos_site_id
 _symmetry_equiv_pos_as_xyz
  1  'x, y, z'
loop_
 _atom_site_type_symbol
 _atom_site_label
 _atom_site_symmetry_multiplicity
 _atom_site_fract_x
 _atom_site_fract_y
 _atom_site_fract_z
 _atom_site_occupancy
  Ni  Ni0  1  1.00033361  0.00339908  0.00293416  1
  Fe  Fe1  1  0.16638407  0.16776305  0.16807531  1
  Fe  Fe2  1  1.00139820  0.00189324  0.33594016  1
  Ni  Ni3  1  0.00371694  0.33294528  1.00001999  1
  Cr  Cr4  1  0.16726293  0.50043495  0.16717266  1
  Ni  Ni5  1  1.00028916  0.33335658  0.33535056  1
  Fe  Fe6  1  1.00022906  0.66972827  1.00109085  1
  Fe  Fe7  1  0.16757850  0.83687569  0.16817786  1
  Ni  Ni8  1  1.00120340  0.67016097  0.33634678  1
  Fe  Fe9  1  0.33392901  0.00210326  0.00245537  1
  Cr  Cr10  1  0.50113629  0.16760483  0.16961869  1
  Fe  Fe11  1  0.33346308  0.00363924  0.33558271  1
  Fe  Fe12  1  0.33270974  0.33487585  1.00018337  1
  Fe  Fe13  1  0.50191779  0.50290787  0.16820667  1
  Fe  Fe14  1  0.33568102  0.33290519  0.33642003  1
  Fe  Fe15  1  0.33660624  0.66852910  1.00146585  1
  Fe  Fe16  1  0.50288392  0.83476164  0.16792135  1
  Cr  Cr17  1  0.33470550  0.66893791  0.33470089  1
  Ni  Ni18  1  0.67028593  0.99878134  0.00201024  1
  Fe  Fe19  1  0.83708885  0.16680494  0.16902257  1
  Ni  Ni20  1  0.66995072  0.00304314  0.33405855  1
  Cr  Cr21  1  0.67002865  0.33448220  1.00012055  1
  Cr  Cr22  1  0.83550232  0.50307326  0.16979794  1
  Ni  Ni23  1  0.66892882  0.33386456  0.33771709  1
  Fe  Fe24  1  0.66867348  0.67095091  1.00063857  1
  Fe  Fe25  1  0.83504864  0.83699311  0.16834741  1
  Fe  Fe26  1  0.67123150  0.66790676  0.33555120  1
  Ni  Ni27  1  0.17045307  0.16625664  0.50046662  1
  Ni  Ni28  1  0.00184298  1.00056137  0.66711371  1
  Ni  Ni29  1  0.16866923  0.16937483  0.83697860  1
  Cr  Cr30  1  0.16679411  0.50197406  0.50250167  1
  Cr  Cr31  1  1.00155382  0.33408666  0.67035352  1
  Fe  Fe32  1  0.16949646  0.50097745  0.83550733  1
  Ni  Ni33  1  0.16559558  0.83798641  0.50246936  1
  Ni  Ni34  1  0.00215808  0.67044729  0.66830326  1
  Cr  Cr35  1  0.16692664  0.83610511  0.83313081  1
  Fe  Fe36  1  0.50131930  0.17036100  0.50078709  1
  Fe  Fe37  1  0.33122162  0.00253087  0.66747083  1
  Cr  Cr38  1  0.49949019  0.16864500  0.83406703  1
  Fe  Fe39  1  0.50351811  0.50000878  0.50329593  1
  Ni  Ni40  1  0.33670097  0.33702239  0.66847583  1
  Ni  Ni41  1  0.50178647  0.50259701  0.83464233  1
  Cr  Cr42  1  0.50202566  0.83626131  0.50338863  1
  Ni  Ni43  1  0.33570497  0.66694365  0.66982828  1
  Fe  Fe44  1  0.50257827  0.83317056  0.83588689  1
  Fe  Fe45  1  0.83594232  0.16806070  0.49987576  1
  Cr  Cr46  1  0.67095523  0.00213463  0.66962030  1
  Fe  Fe47  1  0.83769669  0.16709301  0.83661320  1
  Ni  Ni48  1  0.83313176  0.50334159  0.50096567  1
  Fe  Fe49  1  0.66760389  0.33828919  0.66753367  1
  Fe  Fe50  1  0.83560791  0.50311868  0.83496210  1
  Ni  Ni51  1  0.83754956  0.83315619  0.50036734  1
  Fe  Fe52  1  0.66974372  0.66627762  0.66932452  1
  Ni  Ni53  1  0.83493006  0.83365984  0.83630639  1
" 