1037,Ni35Fe41Cr23_18,-230.768636440551, 197.460120302534,Ni35Fe41Cr23,"# generated using pymatgen
 data_Cr13Fe22Ni19
_symmetry_space_group_name_H-M   'P 1'
_cell_length_a   7.44827247
_cell_length_b   7.44827247
_cell_length_c   10.53344794
_cell_angle_alpha   90.00000000
_cell_angle_beta   90.00000000
_cell_angle_gamma   90.00000000
_symmetry_Int_Tables_number   1
_chemical_formula_structural   Cr13Fe22Ni19
_chemical_formula_sum   'Cr13 Fe22 Ni19'
_cell_volume   584.36159177
_cell_formula_units_Z   1
loop_
 _symmetry_equiv_pos_site_id
 _symmetry_equiv_pos_as_xyz
  1  'x, y, z'
loop_
 _atom_site_type_symbol
 _atom_site_label
 _atom_site_symmetry_multiplicity
 _atom_site_fract_x
 _atom_site_fract_y
 _atom_site_fract_z
 _atom_site_occupancy
  Fe  Fe0  1  0.00130449  0.00190521  1.00094554  1
  Fe  Fe1  1  0.16504903  0.16859591  0.16852947  1
  Fe  Fe2  1  0.00152727  1.00070969  0.33430402  1
  Ni  Ni3  1  0.00172458  0.33594509  0.00168045  1
  Ni  Ni4  1  0.16735795  0.50225367  0.16944589  1
  Fe  Fe5  1  0.00281509  0.33532668  0.33283103  1
  Ni  Ni6  1  0.00325731  0.66810321  1.00017500  1
  Fe  Fe7  1  0.16514134  0.83291258  0.16826333  1
  Ni  Ni8  1  0.00183043  0.66752465  0.33472717  1
  Fe  Fe9  1  0.33063002  1.00004759  0.00260568  1
  Fe  Fe10  1  0.50169249  0.16775322  0.16817976  1
  Cr  Cr11  1  0.33415984  0.00293404  0.33596666  1
  Cr  Cr12  1  0.33132530  0.33278381  0.00206623  1
  Cr  Cr13  1  0.49889180  0.50312557  0.16714562  1
  Ni  Ni14  1  0.33135129  0.33464887  0.33573526  1
  Fe  Fe15  1  0.32983938  0.66851816  0.00134285  1
  Fe  Fe16  1  0.50115237  0.83497910  0.16970446  1
  Fe  Fe17  1  0.33425608  0.66724752  0.33632910  1
  Cr  Cr18  1  0.66904372  0.00140622  0.00316948  1
  Ni  Ni19  1  0.83668143  0.16670239  0.16791263  1
  Ni  Ni20  1  0.66716502  0.99952758  0.33304911  1
  Ni  Ni21  1  0.67172332  0.33329085  1.00086528  1
  Fe  Fe22  1  0.83841612  0.50152883  0.16787255  1
  Cr  Cr23  1  0.66665713  0.33445799  0.33447354  1
  Cr  Cr24  1  0.67357159  0.66832973  0.00254278  1
  Ni  Ni25  1  0.83632573  0.83639698  0.17011424  1
  Ni  Ni26  1  0.67023194  0.66974389  0.33446979  1
  Ni  Ni27  1  0.16581537  0.16849223  0.50103389  1
  Ni  Ni28  1  0.00387156  0.00131409  0.66934227  1
  Ni  Ni29  1  0.16350356  0.16753911  0.83496512  1
  Fe  Fe30  1  0.16674794  0.50304460  0.49972513  1
  Fe  Fe31  1  1.00091961  0.33534645  0.66957043  1
  Ni  Ni32  1  0.16608510  0.50241534  0.83425577  1
  Ni  Ni33  1  0.16872975  0.83394697  0.50228586  1
  Fe  Fe34  1  0.00254681  0.66804897  0.66829914  1
  Fe  Fe35  1  0.16623069  0.83482751  0.83355259  1
  Fe  Fe36  1  0.49996759  0.16582930  0.50080932  1
  Fe  Fe37  1  0.33167647  0.99872942  0.66590960  1
  Cr  Cr38  1  0.50168229  0.16819798  0.83431958  1
  Fe  Fe39  1  0.50078724  0.50345103  0.50086366  1
  Cr  Cr40  1  0.33177084  0.33367480  0.66558327  1
  Cr  Cr41  1  0.50054923  0.50273094  0.83505628  1
  Ni  Ni42  1  0.50041286  0.83062773  0.50026985  1
  Ni  Ni43  1  0.33299860  0.66737158  0.66629635  1
  Cr  Cr44  1  0.49857571  0.83260960  0.83447800  1
  Cr  Cr45  1  0.83780765  0.16829797  0.50063080  1
  Cr  Cr46  1  0.66862214  1.00016150  0.66704800  1
  Ni  Ni47  1  0.83825473  0.16890822  0.83482715  1
  Fe  Fe48  1  0.83608129  0.50315973  0.50147589  1
  Fe  Fe49  1  0.67064641  0.33700867  0.66783227  1
  Fe  Fe50  1  0.83716018  0.49948860  0.83418867  1
  Cr  Cr51  1  0.83568016  0.83499361  0.50005330  1
  Ni  Ni52  1  0.66918965  0.66680186  0.66701126  1
  Fe  Fe53  1  0.83862446  0.83434311  0.83392954  1
" 