8759,Ni35Cr65_19,-225.820221437655, 136.671702476084,Ni35Cr65,"# generated using pymatgen
 data_CrNi2
_symmetry_space_group_name_H-M   'P 1'
_cell_length_a   7.49446511
_cell_length_b   7.49446511
_cell_length_c   10.59877420
_cell_angle_alpha   90.00000000
_cell_angle_beta   90.00000000
_cell_angle_gamma   90.00000000
_symmetry_Int_Tables_number   1
_chemical_formula_structural   CrNi2
_chemical_formula_sum   'Cr18 Ni36'
_cell_volume   595.30142758
_cell_formula_units_Z   18
loop_
 _symmetry_equiv_pos_site_id
 _symmetry_equiv_pos_as_xyz
  1  'x, y, z'
loop_
 _atom_site_type_symbol
 _atom_site_label
 _atom_site_symmetry_multiplicity
 _atom_site_fract_x
 _atom_site_fract_y
 _atom_site_fract_z
 _atom_site_occupancy
  Ni  Ni0  1  0.00038606  -0.00036606  -0.00118698  1
  Ni  Ni1  1  0.16186077  0.16575452  0.16366316  1
  Ni  Ni2  1  0.99713212  -0.00019593  0.33007066  1
  Ni  Ni3  1  -0.00025119  0.32904407  0.99710057  1
  Ni  Ni4  1  0.16525682  0.49744637  0.16611160  1
  Ni  Ni5  1  0.00110512  0.33019511  0.33155389  1
  Cr  Cr6  1  -0.00052183  0.66339736  0.99765222  1
  Ni  Ni7  1  0.16272024  0.83169880  0.16446633  1
  Ni  Ni8  1  -0.00023024  0.66510898  0.33009999  1
  Ni  Ni9  1  0.32648887  0.99763085  0.99724043  1
  Cr  Cr10  1  0.49719652  0.16835862  0.16166441  1
  Cr  Cr11  1  0.32889794  0.00254650  0.33252338  1
  Ni  Ni12  1  0.32761462  0.33288440  -0.00182060  1
  Cr  Cr13  1  0.49684860  0.49755827  0.16531511  1
  Ni  Ni14  1  0.32957572  0.33434011  0.33263613  1
  Ni  Ni15  1  0.32904841  0.66350213  0.99589973  1
  Cr  Cr16  1  0.49449040  0.82973350  0.16411285  1
  Ni  Ni17  1  0.33001220  0.66224720  0.33252144  1
  Cr  Cr18  1  0.66935308  0.99713114  -0.00130840  1
  Ni  Ni19  1  0.83559170  0.16569781  0.16476184  1
  Cr  Cr20  1  0.66662887  -0.00119355  0.33286731  1
  Ni  Ni21  1  0.66713102  0.33146033  0.99619193  1
  Cr  Cr22  1  0.83267911  0.49553947  0.16746736  1
  Ni  Ni23  1  0.66484126  0.33143160  0.33332722  1
  Cr  Cr24  1  0.66600909  0.66349649  0.99565922  1
  Ni  Ni25  1  0.83599197  0.83282347  0.16786729  1
  Ni  Ni26  1  0.66504616  0.66506022  0.33320372  1
  Ni  Ni27  1  0.16193489  0.16814302  0.49608271  1
  Cr  Cr28  1  0.99767577  0.00088974  0.66544116  1
  Ni  Ni29  1  0.16167040  0.16556662  0.83413221  1
  Ni  Ni30  1  0.16658365  0.49652616  0.49615072  1
  Ni  Ni31  1  0.99777396  0.33056119  0.66585659  1
  Ni  Ni32  1  0.16567430  0.49653172  0.83218185  1
  Cr  Cr33  1  0.16307911  0.82873296  0.49726589  1
  Cr  Cr34  1  0.00086962  0.66110181  0.66857210  1
  Ni  Ni35  1  0.16671867  0.83158685  0.83363396  1
  Ni  Ni36  1  0.49913958  0.16853089  0.49688517  1
  Cr  Cr37  1  0.33152456  -0.00133723  0.66367668  1
  Cr  Cr38  1  0.49726791  0.16578381  0.83467724  1
  Ni  Ni39  1  0.49779867  0.49836171  0.49634701  1
  Cr  Cr40  1  0.32871971  0.33403619  0.66216916  1
  Ni  Ni41  1  0.49687803  0.49792082  0.83268786  1
  Ni  Ni42  1  0.49764082  0.82821089  0.49755653  1
  Ni  Ni43  1  0.33273022  0.66303811  0.66612883  1
  Ni  Ni44  1  0.49460861  0.82912598  0.83244356  1
  Ni  Ni45  1  0.83290865  0.16711141  0.49714211  1
  Cr  Cr46  1  0.66536586  -0.00100960  0.66230996  1
  Ni  Ni47  1  0.83397068  0.16764531  0.83238642  1
  Cr  Cr48  1  0.83398249  0.49754865  0.49696626  1
  Ni  Ni49  1  0.66566850  0.33166340  0.66509057  1
  Ni  Ni50  1  0.83184400  0.49314987  0.83151465  1
  Ni  Ni51  1  0.83118089  0.83226926  0.49489991  1
  Cr  Cr52  1  0.66368260  0.66423869  0.66709918  1
  Ni  Ni53  1  0.83342854  0.83296406  0.83226401  1
" 