7162,Ni35Fe16Cr47_12,-220.078025066092, 158.360149144221,Ni35Fe16Cr47,"# generated using pymatgen
 data_Cr27Fe8Ni19
_symmetry_space_group_name_H-M   'P 1'
_cell_length_a   7.51536421
_cell_length_b   7.51536421
_cell_length_c   10.62832999
_cell_angle_alpha   90.00000000
_cell_angle_beta   90.00000000
_cell_angle_gamma   90.00000000
_symmetry_Int_Tables_number   1
_chemical_formula_structural   Cr27Fe8Ni19
_chemical_formula_sum   'Cr27 Fe8 Ni19'
_cell_volume   600.29550860
_cell_formula_units_Z   1
loop_
 _symmetry_equiv_pos_site_id
 _symmetry_equiv_pos_as_xyz
  1  'x, y, z'
loop_
 _atom_site_type_symbol
 _atom_site_label
 _atom_site_symmetry_multiplicity
 _atom_site_fract_x
 _atom_site_fract_y
 _atom_site_fract_z
 _atom_site_occupancy
  Cr  Cr0  1  0.99539202  -0.00245247  -0.00192885  1
  Fe  Fe1  1  0.16401014  0.16504540  0.16476689  1
  Ni  Ni2  1  0.00044444  -0.00036510  0.33115351  1
  Fe  Fe3  1  0.99356307  0.32954719  0.99599964  1
  Fe  Fe4  1  0.16455169  0.49576510  0.16556639  1
  Ni  Ni5  1  0.00152058  0.32762771  0.32875141  1
  Cr  Cr6  1  0.99443813  0.66289418  0.99353532  1
  Cr  Cr7  1  0.16545017  0.83145107  0.16342851  1
  Cr  Cr8  1  -0.00241687  0.66530549  0.33049204  1
  Ni  Ni9  1  0.33238876  -0.00161845  0.99384872  1
  Cr  Cr10  1  0.49644536  0.16328374  0.16035332  1
  Cr  Cr11  1  0.32849431  -0.00218787  0.33211311  1
  Cr  Cr12  1  0.32990472  0.33034841  -0.00021980  1
  Ni  Ni13  1  0.49643318  0.49631980  0.16551789  1
  Ni  Ni14  1  0.32764656  0.33276580  0.32923743  1
  Cr  Cr15  1  0.33192496  0.66245630  -0.00249106  1
  Cr  Cr16  1  0.49744426  0.82876227  0.16179661  1
  Ni  Ni17  1  0.33220137  0.66085815  0.33128132  1
  Ni  Ni18  1  0.66328558  -0.00263404  0.99280623  1
  Cr  Cr19  1  0.83073558  0.16436795  0.16473068  1
  Cr  Cr20  1  0.66540575  0.99542781  0.33113234  1
  Ni  Ni21  1  0.66396027  0.33008450  0.99448539  1
  Cr  Cr22  1  0.82824688  0.49626920  0.16293289  1
  Cr  Cr23  1  0.66053163  0.33198975  0.33145692  1
  Ni  Ni24  1  0.66344348  0.66268526  0.99555057  1
  Cr  Cr25  1  0.82773646  0.83004230  0.16456528  1
  Ni  Ni26  1  0.65820642  0.66176000  0.33080609  1
  Ni  Ni27  1  0.16415803  0.16315503  0.49485666  1
  Cr  Cr28  1  0.99553914  0.99571063  0.66121876  1
  Cr  Cr29  1  0.16555329  0.16352254  0.82976590  1
  Cr  Cr30  1  0.16179084  0.49614839  0.49785713  1
  Ni  Ni31  1  0.99499771  0.32913411  0.66526066  1
  Cr  Cr32  1  0.15896748  0.49583123  0.82876109  1
  Ni  Ni33  1  0.16584800  0.83115374  0.49750915  1
  Ni  Ni34  1  0.99531590  0.66373404  0.66516312  1
  Cr  Cr35  1  0.16586357  0.83078676  0.82845301  1
  Cr  Cr36  1  0.49660538  0.16381911  0.49989290  1
  Fe  Fe37  1  0.33170941  0.99654713  0.66297182  1
  Fe  Fe38  1  0.50038488  0.16191645  0.83049416  1
  Fe  Fe39  1  0.49552710  0.49762270  0.49530828  1
  Cr  Cr40  1  0.33138018  0.32900903  0.66209604  1
  Cr  Cr41  1  0.49933717  0.49577142  0.83038477  1
  Fe  Fe42  1  0.49561673  0.82978391  0.49710112  1
  Cr  Cr43  1  0.33033643  0.66482167  0.66213110  1
  Ni  Ni44  1  0.50012443  0.83456354  0.83099677  1
  Cr  Cr45  1  0.83183991  0.16570931  0.49675312  1
  Ni  Ni46  1  0.66249950  -0.00233615  0.66662187  1
  Fe  Fe47  1  0.82774071  0.16368223  0.82955881  1
  Cr  Cr48  1  0.82966931  0.49530338  0.49870825  1
  Ni  Ni49  1  0.66511673  0.32757363  0.66571836  1
  Ni  Ni50  1  0.82842118  0.49476067  0.82931069  1
  Cr  Cr51  1  0.83042999  0.82959065  0.49418103  1
  Cr  Cr52  1  0.66393340  0.66413285  0.66319280  1
  Ni  Ni53  1  0.82632056  0.82916842  0.83047966  1
" 