5281,Ni35Fe47Cr17_0,-231.491581520241, 195.406672535255,Ni35Fe47Cr17,"# generated using pymatgen
 data_Cr11Fe25Ni18
_symmetry_space_group_name_H-M   'P 1'
_cell_length_a   7.44416442
_cell_length_b   7.44416442
_cell_length_c   10.52763828
_cell_angle_alpha   90.00000000
_cell_angle_beta   90.00000000
_cell_angle_gamma   90.00000000
_symmetry_Int_Tables_number   1
_chemical_formula_structural   Cr11Fe25Ni18
_chemical_formula_sum   'Cr11 Fe25 Ni18'
_cell_volume   583.39522228
_cell_formula_units_Z   1
loop_
 _symmetry_equiv_pos_site_id
 _symmetry_equiv_pos_as_xyz
  1  'x, y, z'
loop_
 _atom_site_type_symbol
 _atom_site_label
 _atom_site_symmetry_multiplicity
 _atom_site_fract_x
 _atom_site_fract_y
 _atom_site_fract_z
 _atom_site_occupancy
  Fe  Fe0  1  0.00217310  0.00256913  1.00096772  1
  Fe  Fe1  1  0.16997207  0.16983895  0.16690268  1
  Ni  Ni2  1  0.00260456  0.00317825  0.33499085  1
  Ni  Ni3  1  0.00208364  0.33515546  1.00089461  1
  Fe  Fe4  1  0.16837863  0.49913843  0.16613137  1
  Fe  Fe5  1  0.00529998  0.33265513  0.33448641  1
  Fe  Fe6  1  1.00071355  0.66594103  0.00223356  1
  Fe  Fe7  1  0.16845341  0.83601481  0.16664325  1
  Cr  Cr8  1  0.00324129  0.66739934  0.33341514  1
  Fe  Fe9  1  0.33533903  0.00292501  0.00211178  1
  Fe  Fe10  1  0.49999992  0.16899041  0.16860768  1
  Ni  Ni11  1  0.33326013  0.00243865  0.33263387  1
  Fe  Fe12  1  0.33321817  0.33586320  1.00062869  1
  Ni  Ni13  1  0.50095008  0.50268954  0.16760323  1
  Fe  Fe14  1  0.33259024  0.33325593  0.33507526  1
  Ni  Ni15  1  0.33441421  0.66801076  1.00145666  1
  Fe  Fe16  1  0.50274649  0.83527775  0.16667388  1
  Cr  Cr17  1  0.33480426  0.66599581  0.33588483  1
  Fe  Fe18  1  0.66791815  0.99967327  0.99964755  1
  Cr  Cr19  1  0.83654452  0.16901724  0.16857506  1
  Ni  Ni20  1  0.66870349  0.00252305  0.33286046  1
  Cr  Cr21  1  0.66822171  0.33317966  0.99750091  1
  Ni  Ni22  1  0.83395709  0.50191539  0.16766586  1
  Cr  Cr23  1  0.66724766  0.33606943  0.33649169  1
  Fe  Fe24  1  0.66804374  0.66780643  1.00046222  1
  Fe  Fe25  1  0.83323322  0.83402817  0.16800759  1
  Fe  Fe26  1  0.66743095  0.67029549  0.33284705  1
  Fe  Fe27  1  0.16732887  0.17075212  0.50229747  1
  Fe  Fe28  1  1.00124331  0.00487902  0.66924629  1
  Ni  Ni29  1  0.16774546  0.16862577  0.83533905  1
  Ni  Ni30  1  0.16904292  0.49872331  0.50312238  1
  Fe  Fe31  1  0.00180692  0.33448508  0.67048554  1
  Fe  Fe32  1  0.16795753  0.49965171  0.83468155  1
  Cr  Cr33  1  0.16985763  0.83667564  0.50528600  1
  Fe  Fe34  1  1.00091434  0.66537110  0.66936019  1
  Cr  Cr35  1  0.17060232  0.83404483  0.83350405  1
  Cr  Cr36  1  0.50210479  0.16729784  0.50258070  1
  Fe  Fe37  1  0.33774914  0.00325396  0.67044887  1
  Fe  Fe38  1  0.50031440  0.16679466  0.83273923  1
  Ni  Ni39  1  0.49969366  0.50102411  0.50348202  1
  Ni  Ni40  1  0.33289134  0.33660274  0.66956454  1
  Fe  Fe41  1  0.49981024  0.50287625  0.83378013  1
  Cr  Cr42  1  0.50161738  0.83437982  0.50164134  1
  Ni  Ni43  1  0.33554484  0.66461995  0.66860501  1
  Ni  Ni44  1  0.50086249  0.83396227  0.83513459  1
  Ni  Ni45  1  0.83740259  0.16807824  0.50252294  1
  Ni  Ni46  1  0.67082711  0.00294496  0.67106616  1
  Ni  Ni47  1  0.83665625  0.16924943  0.83386716  1
  Cr  Cr48  1  0.83391509  0.49922117  0.50180870  1
  Fe  Fe49  1  0.66693709  0.33544053  0.67009986  1
  Ni  Ni50  1  0.83520809  0.50127305  0.83463991  1
  Cr  Cr51  1  0.83351412  0.83719039  0.50197885  1
  Ni  Ni52  1  0.66618376  0.66842954  0.67020643  1
  Fe  Fe53  1  0.83372241  0.83530415  0.83410854  1
" 