3099,Ni35Fe41Cr23_17,-230.483563167975, 197.117759590861,Ni35Fe41Cr23,"# generated using pymatgen
 data_Cr13Fe22Ni19
_symmetry_space_group_name_H-M   'P 1'
_cell_length_a   7.44515473
_cell_length_b   7.44515473
_cell_length_c   10.52903879
_cell_angle_alpha   90.00000000
_cell_angle_beta   90.00000000
_cell_angle_gamma   90.00000000
_symmetry_Int_Tables_number   1
_chemical_formula_structural   Cr13Fe22Ni19
_chemical_formula_sum   'Cr13 Fe22 Ni19'
_cell_volume   583.62808295
_cell_formula_units_Z   1
loop_
 _symmetry_equiv_pos_site_id
 _symmetry_equiv_pos_as_xyz
  1  'x, y, z'
loop_
 _atom_site_type_symbol
 _atom_site_label
 _atom_site_symmetry_multiplicity
 _atom_site_fract_x
 _atom_site_fract_y
 _atom_site_fract_z
 _atom_site_occupancy
  Fe  Fe0  1  0.00221793  0.00295920  1.00097323  1
  Ni  Ni1  1  0.16708023  0.16747793  0.16806876  1
  Fe  Fe2  1  1.00042977  0.00489094  0.33414425  1
  Fe  Fe3  1  1.00095679  0.33263967  1.00113079  1
  Cr  Cr4  1  0.17069649  0.50048978  0.16986304  1
  Fe  Fe5  1  0.00244785  0.33374544  0.33618432  1
  Ni  Ni6  1  0.99920158  0.66629745  1.00097532  1
  Cr  Cr7  1  0.16778312  0.83675152  0.16899387  1
  Fe  Fe8  1  0.99957594  0.66590887  0.33371875  1
  Ni  Ni9  1  0.33503705  0.00218783  1.00097995  1
  Fe  Fe10  1  0.49855655  0.16704244  0.16657836  1
  Ni  Ni11  1  0.33528815  0.00307396  0.33391510  1
  Ni  Ni12  1  0.33310478  0.33332148  0.00411258  1
  Ni  Ni13  1  0.50269680  0.50145527  0.16666901  1
  Fe  Fe14  1  0.33606818  0.33480355  0.33460513  1
  Fe  Fe15  1  0.33528569  0.67018262  0.00256425  1
  Ni  Ni16  1  0.50182426  0.83419165  0.16797448  1
  Ni  Ni17  1  0.33815477  0.66855588  0.33551491  1
  Ni  Ni18  1  0.66770780  1.00098059  0.00352879  1
  Fe  Fe19  1  0.83482023  0.16693777  0.16722298  1
  Fe  Fe20  1  0.66574206  1.00042212  0.33326420  1
  Fe  Fe21  1  0.66977925  0.33407461  0.00318552  1
  Fe  Fe22  1  0.83515316  0.50305219  0.16691942  1
  Cr  Cr23  1  0.66888449  0.33594431  0.33428170  1
  Fe  Fe24  1  0.66794462  0.66868077  0.00372485  1
  Fe  Fe25  1  0.83377026  0.83424434  0.16750966  1
  Ni  Ni26  1  0.66786918  0.66755068  0.33230057  1
  Ni  Ni27  1  0.16786225  0.16783232  0.49800696  1
  Cr  Cr28  1  0.00256216  0.00377889  0.67057607  1
  Fe  Fe29  1  0.16735179  0.16896395  0.83852380  1
  Fe  Fe30  1  0.16633274  0.50100492  0.49823661  1
  Cr  Cr31  1  1.00044256  0.33647408  0.66880980  1
  Fe  Fe32  1  0.16664338  0.50211128  0.83781152  1
  Cr  Cr33  1  0.16779898  0.83421369  0.49947373  1
  Fe  Fe34  1  0.00301471  0.66654564  0.66982328  1
  Ni  Ni35  1  0.16969808  0.83273389  0.83720583  1
  Fe  Fe36  1  0.50338374  0.16758542  0.50078903  1
  Cr  Cr37  1  0.33571165  0.99990084  0.66924183  1
  Cr  Cr38  1  0.50489516  0.16969048  0.83502933  1
  Ni  Ni39  1  0.50140210  0.50160282  0.50030266  1
  Cr  Cr40  1  0.33302510  0.33500828  0.66465050  1
  Cr  Cr41  1  0.50143753  0.50009496  0.83744673  1
  Fe  Fe42  1  0.50268377  0.83501308  0.49803092  1
  Fe  Fe43  1  0.33438961  0.66761574  0.66762046  1
  Fe  Fe44  1  0.50263823  0.83559654  0.83759268  1
  Ni  Ni45  1  0.83409888  0.16862103  0.50202057  1
  Ni  Ni46  1  0.66738826  0.00273009  0.66575049  1
  Ni  Ni47  1  0.83298310  0.16922129  0.83580261  1
  Ni  Ni48  1  0.83321079  0.50100959  0.50081369  1
  Ni  Ni49  1  0.66995692  0.33503314  0.66734559  1
  Ni  Ni50  1  0.83420496  0.49966001  0.83683620  1
  Cr  Cr51  1  0.83511627  0.83562254  0.49956342  1
  Cr  Cr52  1  0.66797663  0.66735338  0.66771798  1
  Cr  Cr53  1  0.83510866  0.83651422  0.83546891  1
" 