796,Ni35Fe26Cr37_16,-225.305144583265, 183.206958037339,Ni35Fe26Cr37,"# generated using pymatgen
 data_Cr21Fe14Ni19
_symmetry_space_group_name_H-M   'P 1'
_cell_length_a   7.48188243
_cell_length_b   7.48188243
_cell_length_c   10.58097961
_cell_angle_alpha   90.00000000
_cell_angle_beta   90.00000000
_cell_angle_gamma   90.00000000
_symmetry_Int_Tables_number   1
_chemical_formula_structural   Cr21Fe14Ni19
_chemical_formula_sum   'Cr21 Fe14 Ni19'
_cell_volume   592.30805146
_cell_formula_units_Z   1
loop_
 _symmetry_equiv_pos_site_id
 _symmetry_equiv_pos_as_xyz
  1  'x, y, z'
loop_
 _atom_site_type_symbol
 _atom_site_label
 _atom_site_symmetry_multiplicity
 _atom_site_fract_x
 _atom_site_fract_y
 _atom_site_fract_z
 _atom_site_occupancy
  Cr  Cr0  1  -0.00049984  0.00018702  -0.00008159  1
  Fe  Fe1  1  0.16453701  0.16886969  0.16590156  1
  Ni  Ni2  1  0.99859970  0.00043403  0.33177378  1
  Ni  Ni3  1  -0.00052640  0.33336952  0.00011236  1
  Fe  Fe4  1  0.16618673  0.49726514  0.16319234  1
  Cr  Cr5  1  0.99756380  0.33215050  0.33110830  1
  Ni  Ni6  1  0.99899784  0.66328207  0.00107562  1
  Cr  Cr7  1  0.16263390  0.82785365  0.16692765  1
  Ni  Ni8  1  0.99628718  0.66624698  0.33014861  1
  Cr  Cr9  1  0.33196839  -0.00050502  0.99471276  1
  Cr  Cr10  1  0.50218878  0.16974285  0.16610280  1
  Cr  Cr11  1  0.32996588  0.00076667  0.33458603  1
  Ni  Ni12  1  0.33239608  0.33412960  -0.00070546  1
  Ni  Ni13  1  0.49863889  0.49643665  0.16398911  1
  Fe  Fe14  1  0.33219736  0.33376478  0.33107237  1
  Ni  Ni15  1  0.33311159  0.66270328  0.99633376  1
  Cr  Cr16  1  0.50031522  0.83113922  0.16289898  1
  Cr  Cr17  1  0.33377429  0.66406154  0.33345986  1
  Fe  Fe18  1  0.66594475  -0.00015916  0.99863377  1
  Ni  Ni19  1  0.83155474  0.16684662  0.16541562  1
  Fe  Fe20  1  0.66937348  -0.00071897  0.33161323  1
  Ni  Ni21  1  0.66509676  0.33414403  -0.00005443  1
  Fe  Fe22  1  0.83093055  0.49829331  0.16392847  1
  Ni  Ni23  1  0.66598509  0.33378519  0.33215209  1
  Ni  Ni24  1  0.66479740  0.66321905  -0.00048074  1
  Fe  Fe25  1  0.83187808  0.83203445  0.16563829  1
  Cr  Cr26  1  0.66719716  0.66229641  0.33434967  1
  Ni  Ni27  1  0.16460958  0.16627836  0.49904998  1
  Fe  Fe28  1  0.00159809  0.99807490  0.66619592  1
  Fe  Fe29  1  0.16550933  0.16734496  0.83249587  1
  Cr  Cr30  1  0.16427938  0.50019262  0.49969750  1
  Fe  Fe31  1  0.00050312  0.33421349  0.66538506  1
  Fe  Fe32  1  0.16650657  0.50062574  0.83377519  1
  Cr  Cr33  1  0.16487346  0.83126273  0.49977627  1
  Ni  Ni34  1  -0.00090579  0.66497625  0.66575150  1
  Ni  Ni35  1  0.16716074  0.82764036  0.83070791  1
  Cr  Cr36  1  0.49917816  0.16661002  0.49384158  1
  Cr  Cr37  1  0.33036380  0.99781719  0.66761434  1
  Ni  Ni38  1  0.49814643  0.16764738  0.83630947  1
  Fe  Fe39  1  0.50062637  0.50081238  0.49892635  1
  Cr  Cr40  1  0.33143979  0.33231010  0.66613485  1
  Fe  Fe41  1  0.49772191  0.50074044  0.83504197  1
  Ni  Ni42  1  0.49918695  0.82992159  0.50127600  1
  Ni  Ni43  1  0.33369010  0.66679309  0.66748094  1
  Fe  Fe44  1  0.49854282  0.82916875  0.83247919  1
  Cr  Cr45  1  0.83347674  0.16704917  0.50005476  1
  Cr  Cr46  1  0.66374462  0.99664873  0.66671526  1
  Cr  Cr47  1  0.83060337  0.16790915  0.83204505  1
  Ni  Ni48  1  0.83233185  0.49992618  0.49991678  1
  Cr  Cr49  1  0.66635049  0.33680090  0.66434777  1
  Cr  Cr50  1  0.83395583  0.49939671  0.83255020  1
  Cr  Cr51  1  0.83357477  0.83035265  0.49866418  1
  Ni  Ni52  1  0.66440333  0.66447551  0.66343526  1
  Cr  Cr53  1  0.83389910  0.82983685  0.83299136  1
" 