4174,Ni35Fe9Cr54_11,-217.693428966916, 153.393598352,Ni35Fe9Cr54,"# generated using pymatgen
 data_Cr30Fe5Ni19
_symmetry_space_group_name_H-M   'P 1'
_cell_length_a   7.52036592
_cell_length_b   7.52036592
_cell_length_c   10.63540347
_cell_angle_alpha   90.00000000
_cell_angle_beta   90.00000000
_cell_angle_gamma   90.00000000
_symmetry_Int_Tables_number   1
_chemical_formula_structural   Cr30Fe5Ni19
_chemical_formula_sum   'Cr30 Fe5 Ni19'
_cell_volume   601.49485264
_cell_formula_units_Z   1
loop_
 _symmetry_equiv_pos_site_id
 _symmetry_equiv_pos_as_xyz
  1  'x, y, z'
loop_
 _atom_site_type_symbol
 _atom_site_label
 _atom_site_symmetry_multiplicity
 _atom_site_fract_x
 _atom_site_fract_y
 _atom_site_fract_z
 _atom_site_occupancy
  Ni  Ni0  1  -0.00141980  -0.00066333  -0.00302152  1
  Ni  Ni1  1  0.16150228  0.16244527  0.16247422  1
  Cr  Cr2  1  -0.00184630  -0.00309635  0.32857614  1
  Ni  Ni3  1  -0.00182427  0.32876366  -0.00177154  1
  Fe  Fe4  1  0.16196786  0.49603331  0.16322883  1
  Fe  Fe5  1  -0.00196146  0.33021426  0.33158534  1
  Cr  Cr6  1  -0.00146756  0.66356937  -0.00187599  1
  Ni  Ni7  1  0.16348889  0.83047624  0.16248983  1
  Ni  Ni8  1  -0.00157585  0.65982686  0.32968403  1
  Cr  Cr9  1  0.32691749  -0.00216160  0.99641950  1
  Cr  Cr10  1  0.49522296  0.16337236  0.16489451  1
  Ni  Ni11  1  0.32697372  -0.00191233  0.33079961  1
  Cr  Cr12  1  0.32799623  0.33076822  0.99518679  1
  Cr  Cr13  1  0.49694187  0.49594743  0.15896193  1
  Cr  Cr14  1  0.32599024  0.32822077  0.32985145  1
  Ni  Ni15  1  0.32987189  0.66148001  -0.00293143  1
  Cr  Cr16  1  0.49316494  0.82969049  0.16505970  1
  Cr  Cr17  1  0.32648551  0.66189106  0.32927212  1
  Cr  Cr18  1  0.66439935  0.99636889  0.99551441  1
  Cr  Cr19  1  0.83175429  0.16558267  0.16176359  1
  Cr  Cr20  1  0.66225790  -0.00273102  0.33434017  1
  Fe  Fe21  1  0.66315236  0.33030212  0.99432768  1
  Cr  Cr22  1  0.83066491  0.49403103  0.16377870  1
  Cr  Cr23  1  0.66417617  0.32960900  0.33296438  1
  Fe  Fe24  1  0.66239601  0.66152604  0.99538744  1
  Cr  Cr25  1  0.83149894  0.82977274  0.16167828  1
  Cr  Cr26  1  0.66632641  0.66264930  0.33104451  1
  Ni  Ni27  1  0.16226723  0.16543468  0.49591293  1
  Cr  Cr28  1  -0.00332314  -0.00064031  0.66541493  1
  Ni  Ni29  1  0.16239881  0.16552703  0.83120252  1
  Ni  Ni30  1  0.15861529  0.49530662  0.49662145  1
  Ni  Ni31  1  0.99602629  0.33070132  0.65963772  1
  Cr  Cr32  1  0.16208974  0.49655435  0.82704573  1
  Cr  Cr33  1  0.16520313  0.82824276  0.49843222  1
  Ni  Ni34  1  -0.00231181  0.65851516  0.66077463  1
  Cr  Cr35  1  0.16355378  0.82948780  0.82817907  1
  Ni  Ni36  1  0.49557117  0.16254630  0.49629818  1
  Cr  Cr37  1  0.33041291  -0.00044076  0.66229200  1
  Ni  Ni38  1  0.49697604  0.16599933  0.82962248  1
  Cr  Cr39  1  0.49519188  0.49630678  0.49902639  1
  Cr  Cr40  1  0.32865883  0.32875918  0.66356838  1
  Fe  Fe41  1  0.49599466  0.49499630  0.82950909  1
  Ni  Ni42  1  0.49328461  0.83127778  0.49572914  1
  Ni  Ni43  1  0.32870398  0.66097061  0.66205088  1
  Cr  Cr44  1  0.49377300  0.82765772  0.82925684  1
  Ni  Ni45  1  0.83115574  0.16867867  0.49776854  1
  Cr  Cr46  1  0.66261390  -0.00081931  0.65994604  1
  Cr  Cr47  1  0.83197281  0.16637680  0.83093520  1
  Ni  Ni48  1  0.83418603  0.49302174  0.49750401  1
  Ni  Ni49  1  0.66394041  0.32908765  0.66298633  1
  Cr  Cr50  1  0.82994352  0.49413926  0.82872063  1
  Cr  Cr51  1  0.83230588  0.82812281  0.49747722  1
  Cr  Cr52  1  0.66418846  0.66179278  0.66235104  1
  Cr  Cr53  1  0.83212578  0.82899440  0.83062765  1
" 