2264,Ni35Cr65_17,-226.020362755669, 141.125848970139,Ni35Cr65,"# generated using pymatgen
 data_CrNi2
_symmetry_space_group_name_H-M   'P 1'
_cell_length_a   7.49208205
_cell_length_b   7.49208205
_cell_length_c   10.59540405
_cell_angle_alpha   90.00000000
_cell_angle_beta   90.00000000
_cell_angle_gamma   90.00000000
_symmetry_Int_Tables_number   1
_chemical_formula_structural   CrNi2
_chemical_formula_sum   'Cr18 Ni36'
_cell_volume   594.73373439
_cell_formula_units_Z   18
loop_
 _symmetry_equiv_pos_site_id
 _symmetry_equiv_pos_as_xyz
  1  'x, y, z'
loop_
 _atom_site_type_symbol
 _atom_site_label
 _atom_site_symmetry_multiplicity
 _atom_site_fract_x
 _atom_site_fract_y
 _atom_site_fract_z
 _atom_site_occupancy
  Ni  Ni0  1  0.99769634  -0.00137773  -0.00150447  1
  Ni  Ni1  1  0.16274129  0.16501053  0.16232677  1
  Ni  Ni2  1  0.99486297  -0.00075888  0.33258604  1
  Ni  Ni3  1  -0.00124794  0.33271542  0.00132457  1
  Ni  Ni4  1  0.16379105  0.49724753  0.16061099  1
  Cr  Cr5  1  0.99624459  0.33195637  0.32909946  1
  Ni  Ni6  1  -0.00105448  0.66348135  0.99703251  1
  Cr  Cr7  1  0.16533534  0.83211790  0.16290334  1
  Cr  Cr8  1  0.99729107  0.66260009  0.33303161  1
  Ni  Ni9  1  0.33288202  0.99743735  0.99728981  1
  Cr  Cr10  1  0.49939440  0.16366467  0.16389888  1
  Cr  Cr11  1  0.33173474  0.99629835  0.33205815  1
  Ni  Ni12  1  0.33092338  0.33274982  0.99722683  1
  Cr  Cr13  1  0.50085262  0.50095620  0.16395340  1
  Cr  Cr14  1  0.33021607  0.33485209  0.33107061  1
  Ni  Ni15  1  0.33198938  0.66473495  0.99705531  1
  Ni  Ni16  1  0.50012742  0.83146327  0.16379189  1
  Cr  Cr17  1  0.33274869  0.66419102  0.33308919  1
  Ni  Ni18  1  0.66431774  0.99773214  0.99739326  1
  Ni  Ni19  1  0.83196918  0.16503332  0.16457839  1
  Ni  Ni20  1  0.66782177  0.99751131  0.33243129  1
  Ni  Ni21  1  0.66529507  0.33152553  -0.00145809  1
  Ni  Ni22  1  0.83086373  0.49736338  0.16322673  1
  Ni  Ni23  1  0.66809953  0.33261237  0.33266522  1
  Ni  Ni24  1  0.66407758  0.66558080  0.99743091  1
  Cr  Cr25  1  0.82944629  0.83069345  0.16382461  1
  Ni  Ni26  1  0.66545719  0.66482385  0.33342410  1
  Cr  Cr27  1  0.16346665  0.16537062  0.49944461  1
  Cr  Cr28  1  0.99618321  0.99514229  0.66415691  1
  Cr  Cr29  1  0.16604308  0.16698666  0.83239476  1
  Ni  Ni30  1  0.16403670  0.49928634  0.50132267  1
  Ni  Ni31  1  0.99773682  0.33548899  0.66278629  1
  Ni  Ni32  1  0.16567102  0.49951955  0.83235317  1
  Ni  Ni33  1  0.16271240  0.82970699  0.49838743  1
  Ni  Ni34  1  0.99749729  0.66383357  0.66444731  1
  Ni  Ni35  1  0.16380708  0.82911975  0.83400356  1
  Cr  Cr36  1  0.50046725  0.16758506  0.49915106  1
  Cr  Cr37  1  0.33386020  0.99608998  0.66678141  1
  Ni  Ni38  1  0.49810073  0.16744693  0.83328428  1
  Ni  Ni39  1  0.50129872  0.49955407  0.49924128  1
  Ni  Ni40  1  0.33287027  0.33520138  0.66617750  1
  Ni  Ni41  1  0.49802711  0.49778921  0.83198062  1
  Ni  Ni42  1  0.50162773  0.82894129  0.49661976  1
  Cr  Cr43  1  0.33237949  0.66495689  0.66481253  1
  Ni  Ni44  1  0.49932633  0.82990972  0.83516301  1
  Ni  Ni45  1  0.83073567  0.16604792  0.49708080  1
  Cr  Cr46  1  0.66493647  0.99625696  0.66661974  1
  Cr  Cr47  1  0.83094651  0.16641414  0.83275083  1
  Ni  Ni48  1  0.82972534  0.49895694  0.49961198  1
  Ni  Ni49  1  0.66442777  0.33402813  0.66402812  1
  Cr  Cr50  1  0.83165327  0.50026435  0.83156040  1
  Ni  Ni51  1  0.83080508  0.83007458  0.49790912  1
  Ni  Ni52  1  0.66564250  0.66430429  0.66408056  1
  Ni  Ni53  1  0.83191903  0.82928769  0.83326971  1
" 