6651,Ni35Fe41Cr23_10,-230.930498025214, 196.120340588756,Ni35Fe41Cr23,"# generated using pymatgen
 data_Cr13Fe22Ni19
_symmetry_space_group_name_H-M   'P 1'
_cell_length_a   7.45268205
_cell_length_b   7.45268205
_cell_length_c   10.53968403
_cell_angle_alpha   90.00000000
_cell_angle_beta   90.00000000
_cell_angle_gamma   90.00000000
_symmetry_Int_Tables_number   1
_chemical_formula_structural   Cr13Fe22Ni19
_chemical_formula_sum   'Cr13 Fe22 Ni19'
_cell_volume   585.40008074
_cell_formula_units_Z   1
loop_
 _symmetry_equiv_pos_site_id
 _symmetry_equiv_pos_as_xyz
  1  'x, y, z'
loop_
 _atom_site_type_symbol
 _atom_site_label
 _atom_site_symmetry_multiplicity
 _atom_site_fract_x
 _atom_site_fract_y
 _atom_site_fract_z
 _atom_site_occupancy
  Ni  Ni0  1  0.99965175  1.00000669  0.00112419  1
  Cr  Cr1  1  0.16994946  0.16728880  0.16675756  1
  Cr  Cr2  1  0.99848537  1.00060607  0.33633230  1
  Fe  Fe3  1  0.99758528  0.33490201  0.00277156  1
  Fe  Fe4  1  0.16838594  0.50098697  0.16910706  1
  Ni  Ni5  1  0.00113018  0.33423877  0.33362702  1
  Ni  Ni6  1  0.99871495  0.66833621  0.00252898  1
  Ni  Ni7  1  0.16781366  0.83310275  0.16689343  1
  Ni  Ni8  1  0.00265882  0.66879820  0.33280930  1
  Ni  Ni9  1  0.33549164  0.00196789  0.00260311  1
  Ni  Ni10  1  0.50134748  0.16741372  0.16754464  1
  Fe  Fe11  1  0.33552931  1.00054502  0.33370758  1
  Ni  Ni12  1  0.33803524  0.33410303  0.00103594  1
  Fe  Fe13  1  0.49946800  0.50028239  0.16732835  1
  Ni  Ni14  1  0.33553204  0.33543947  0.33582050  1
  Cr  Cr15  1  0.33545312  0.66712635  1.00059514  1
  Fe  Fe16  1  0.50069240  0.83549308  0.16947867  1
  Ni  Ni17  1  0.33426852  0.66759068  0.33438538  1
  Cr  Cr18  1  0.66844635  0.00250909  1.00047000  1
  Fe  Fe19  1  0.83428867  0.16687948  0.16794101  1
  Ni  Ni20  1  0.66686764  0.00113789  0.33568462  1
  Ni  Ni21  1  0.66720578  0.33478190  0.00118735  1
  Fe  Fe22  1  0.83548445  0.50151144  0.16658585  1
  Cr  Cr23  1  0.66702505  0.33147183  0.33220499  1
  Ni  Ni24  1  0.66924696  0.66573592  0.00117645  1
  Fe  Fe25  1  0.83414128  0.83394654  0.16745796  1
  Fe  Fe26  1  0.66742279  0.66910783  0.33341151  1
  Fe  Fe27  1  0.16665424  0.16768228  0.50026421  1
  Ni  Ni28  1  0.99830527  0.00332498  0.66556987  1
  Cr  Cr29  1  0.16787392  0.16729616  0.83610585  1
  Cr  Cr30  1  0.16674874  0.50031468  0.49960449  1
  Fe  Fe31  1  0.99814425  0.33271157  0.66720638  1
  Cr  Cr32  1  0.16395350  0.49860902  0.83616982  1
  Ni  Ni33  1  0.17007679  0.83527011  0.49918122  1
  Cr  Cr34  1  0.99984408  0.67143070  0.66759820  1
  Cr  Cr35  1  0.16741130  0.83694961  0.83707424  1
  Fe  Fe36  1  0.50117009  0.16708235  0.49930495  1
  Cr  Cr37  1  0.33398951  0.00112145  0.66579292  1
  Fe  Fe38  1  0.50182685  0.16982681  0.83558905  1
  Fe  Fe39  1  0.50168648  0.50225742  0.50032328  1
  Fe  Fe40  1  0.33667513  0.33361548  0.66708797  1
  Fe  Fe41  1  0.50398926  0.49900218  0.83486870  1
  Ni  Ni42  1  0.50263546  0.83480505  0.49863375  1
  Cr  Cr43  1  0.33665792  0.66619249  0.66843191  1
  Fe  Fe44  1  0.50485955  0.83397495  0.83389987  1
  Ni  Ni45  1  0.83251776  0.16800430  0.50235643  1
  Fe  Fe46  1  0.66870122  0.99895566  0.66602582  1
  Fe  Fe47  1  0.83473970  0.16880307  0.83279683  1
  Cr  Cr48  1  0.83251585  0.50082828  0.49943371  1
  Fe  Fe49  1  0.66775205  0.33342096  0.66907916  1
  Ni  Ni50  1  0.83057223  0.50037601  0.83563617  1
  Fe  Fe51  1  0.83214141  0.83507245  0.50095781  1
  Ni  Ni52  1  0.66692323  0.66663130  0.66781581  1
  Fe  Fe53  1  0.83335645  0.83317505  0.83466550  1
" 