943,Ni35Fe47Cr17_8,-231.778349897424, 204.218180226428,Ni35Fe47Cr17,"# generated using pymatgen
 data_Cr11Fe25Ni18
_symmetry_space_group_name_H-M   'P 1'
_cell_length_a   7.44064175
_cell_length_b   7.44064175
_cell_length_c   10.52265647
_cell_angle_alpha   90.00000000
_cell_angle_beta   90.00000000
_cell_angle_gamma   90.00000000
_symmetry_Int_Tables_number   1
_chemical_formula_structural   Cr11Fe25Ni18
_chemical_formula_sum   'Cr11 Fe25 Ni18'
_cell_volume   582.56740415
_cell_formula_units_Z   1
loop_
 _symmetry_equiv_pos_site_id
 _symmetry_equiv_pos_as_xyz
  1  'x, y, z'
loop_
 _atom_site_type_symbol
 _atom_site_label
 _atom_site_symmetry_multiplicity
 _atom_site_fract_x
 _atom_site_fract_y
 _atom_site_fract_z
 _atom_site_occupancy
  Fe  Fe0  1  0.99988739  1.00111145  1.00088080  1
  Ni  Ni1  1  0.16697312  0.16956521  0.16969802  1
  Fe  Fe2  1  1.00031077  0.00223577  0.33598948  1
  Cr  Cr3  1  0.00211346  0.33657210  0.00266122  1
  Ni  Ni4  1  0.16679040  0.50207935  0.16741833  1
  Fe  Fe5  1  0.99918765  0.33514284  0.33401739  1
  Ni  Ni6  1  1.00098456  0.66813554  1.00099520  1
  Cr  Cr7  1  0.16667082  0.83342822  0.17102236  1
  Ni  Ni8  1  1.00077748  0.66864998  0.33416168  1
  Cr  Cr9  1  0.33626942  0.00420716  1.00064251  1
  Ni  Ni10  1  0.50379861  0.16871569  0.16863699  1
  Fe  Fe11  1  0.33638848  1.00106301  0.33614531  1
  Fe  Fe12  1  0.33453557  0.33495594  0.00257257  1
  Cr  Cr13  1  0.50168160  0.50165605  0.16809515  1
  Cr  Cr14  1  0.33553693  0.33332101  0.33339898  1
  Fe  Fe15  1  0.33282335  0.66677213  1.00072493  1
  Cr  Cr16  1  0.50345525  0.83514316  0.16921222  1
  Ni  Ni17  1  0.33414802  0.67017521  0.33569294  1
  Fe  Fe18  1  0.67069323  0.00281553  1.00114307  1
  Fe  Fe19  1  0.83424693  0.16802861  0.16964030  1
  Ni  Ni20  1  0.66865201  0.00313425  0.33506616  1
  Fe  Fe21  1  0.66870499  0.33353969  1.00112559  1
  Fe  Fe22  1  0.83630574  0.50238370  0.16904184  1
  Ni  Ni23  1  0.67018244  0.33322363  0.33500402  1
  Fe  Fe24  1  0.67120003  0.66896786  1.00081201  1
  Fe  Fe25  1  0.83552155  0.83491459  0.16880303  1
  Ni  Ni26  1  0.67039833  0.66896516  0.33654370  1
  Fe  Fe27  1  0.16769427  0.16719382  0.50071306  1
  Cr  Cr28  1  0.00192749  1.00152721  0.66968750  1
  Fe  Fe29  1  0.16819828  0.17026571  0.83560392  1
  Cr  Cr30  1  0.16791001  0.50352074  0.50327675  1
  Fe  Fe31  1  0.99993185  0.33654657  0.66951468  1
  Fe  Fe32  1  0.16707794  0.50231419  0.83457065  1
  Fe  Fe33  1  0.16850633  0.83463374  0.50044603  1
  Ni  Ni34  1  1.00141782  0.66674516  0.67016725  1
  Fe  Fe35  1  0.16720355  0.83274645  0.83567754  1
  Fe  Fe36  1  0.50352166  0.16901307  0.50087527  1
  Cr  Cr37  1  0.33573748  0.00202032  0.66736848  1
  Ni  Ni38  1  0.50333886  0.16891616  0.83554916  1
  Fe  Fe39  1  0.50462696  0.50297653  0.50249161  1
  Fe  Fe40  1  0.33574656  0.33591880  0.66866151  1
  Cr  Cr41  1  0.50163169  0.50199544  0.83427130  1
  Ni  Ni42  1  0.50148505  0.83322052  0.50050296  1
  Ni  Ni43  1  0.33449515  0.66832968  0.66910520  1
  Fe  Fe44  1  0.50328423  0.83449723  0.83497790  1
  Ni  Ni45  1  0.83478761  0.16967027  0.50036975  1
  Cr  Cr46  1  0.66765981  0.00252121  0.66950201  1
  Ni  Ni47  1  0.83427388  0.16875092  0.83588281  1
  Fe  Fe48  1  0.83281373  0.50216318  0.50231073  1
  Ni  Ni49  1  0.66925455  0.33597428  0.66798177  1
  Ni  Ni50  1  0.83617892  0.50235799  0.83302056  1
  Fe  Fe51  1  0.83463162  0.83351941  0.50011217  1
  Ni  Ni52  1  0.66940868  0.66620004  0.66761840  1
  Fe  Fe53  1  0.83483733  0.83337799  0.83641470  1
" 