1141,Ni35Fe16Cr47_17,-220.308176397074, 165.381843370115,Ni35Fe16Cr47,"# generated using pymatgen
 data_Cr27Fe8Ni19
_symmetry_space_group_name_H-M   'P 1'
_cell_length_a   7.50697144
_cell_length_b   7.50697144
_cell_length_c   10.61646083
_cell_angle_alpha   90.00000000
_cell_angle_beta   90.00000000
_cell_angle_gamma   90.00000000
_symmetry_Int_Tables_number   1
_chemical_formula_structural   Cr27Fe8Ni19
_chemical_formula_sum   'Cr27 Fe8 Ni19'
_cell_volume   598.28661856
_cell_formula_units_Z   1
loop_
 _symmetry_equiv_pos_site_id
 _symmetry_equiv_pos_as_xyz
  1  'x, y, z'
loop_
 _atom_site_type_symbol
 _atom_site_label
 _atom_site_symmetry_multiplicity
 _atom_site_fract_x
 _atom_site_fract_y
 _atom_site_fract_z
 _atom_site_occupancy
  Cr  Cr0  1  0.99695907  -0.00236175  0.99502771  1
  Cr  Cr1  1  0.16618027  0.16606504  0.16570248  1
  Cr  Cr2  1  -0.00143738  0.99723061  0.33370667  1
  Fe  Fe3  1  -0.00122861  0.32999394  0.99462468  1
  Cr  Cr4  1  0.16481014  0.49495090  0.16734309  1
  Ni  Ni5  1  -0.00020546  0.32902293  0.33281588  1
  Cr  Cr6  1  -0.00060675  0.66554832  0.99684053  1
  Cr  Cr7  1  0.16567765  0.83084027  0.17017894  1
  Ni  Ni8  1  -0.00007714  0.66328279  0.33134391  1
  Cr  Cr9  1  0.32726360  -0.00029862  0.99435191  1
  Fe  Fe10  1  0.49510001  0.16710037  0.16423315  1
  Ni  Ni11  1  0.33003641  -0.00168635  0.33470863  1
  Ni  Ni12  1  0.32885813  0.33105483  -0.00248581  1
  Ni  Ni13  1  0.49582582  0.49753935  0.16497889  1
  Ni  Ni14  1  0.33041047  0.33053285  0.32979964  1
  Cr  Cr15  1  0.32936955  0.66056903  0.99431602  1
  Cr  Cr16  1  0.49641944  0.83364676  0.16200288  1
  Ni  Ni17  1  0.33153548  0.66321376  0.33369600  1
  Ni  Ni18  1  0.66571490  -0.00079127  -0.00050551  1
  Cr  Cr19  1  0.83180341  0.16502927  0.16465629  1
  Cr  Cr20  1  0.66391683  -0.00247462  0.32938331  1
  Cr  Cr21  1  0.66144935  0.33174805  0.99673761  1
  Cr  Cr22  1  0.83360927  0.49736051  0.16494299  1
  Cr  Cr23  1  0.66233660  0.33147473  0.33563851  1
  Ni  Ni24  1  0.66394852  0.66485870  0.00001634  1
  Fe  Fe25  1  0.83127628  0.82943203  0.16345833  1
  Cr  Cr26  1  0.66272182  0.66340105  0.33017443  1
  Ni  Ni27  1  0.16255215  0.16313129  0.49756427  1
  Ni  Ni28  1  -0.00082787  -0.00102442  0.66373415  1
  Fe  Fe29  1  0.16237821  0.16521105  0.82829047  1
  Cr  Cr30  1  0.16343536  0.49585588  0.49389170  1
  Ni  Ni31  1  0.00008906  0.32726617  0.66537214  1
  Ni  Ni32  1  0.16268265  0.49599755  0.83015563  1
  Fe  Fe33  1  0.16658255  0.82997146  0.49856069  1
  Ni  Ni34  1  0.00161384  0.66474493  0.66501186  1
  Ni  Ni35  1  0.16240459  0.83045957  0.82367061  1
  Cr  Cr36  1  0.49293612  0.16289449  0.49659477  1
  Fe  Fe37  1  0.32616464  0.99579487  0.66180721  1
  Cr  Cr38  1  0.49813730  0.16176365  0.83153492  1
  Ni  Ni39  1  0.49477299  0.49889210  0.49756301  1
  Cr  Cr40  1  0.33050852  0.33287047  0.66484160  1
  Cr  Cr41  1  0.49643814  0.49825997  0.82916688  1
  Ni  Ni42  1  0.49324384  0.83008631  0.49762307  1
  Ni  Ni43  1  0.32643981  0.66407092  0.66243984  1
  Cr  Cr44  1  0.49440453  0.83196615  0.82943244  1
  Fe  Fe45  1  0.83360249  0.16512593  0.49981136  1
  Cr  Cr46  1  0.66627493  -0.00117650  0.66170873  1
  Ni  Ni47  1  0.83341104  0.16418469  0.82808570  1
  Cr  Cr48  1  0.83477408  0.49539368  0.50045009  1
  Fe  Fe49  1  0.66617744  0.32989835  0.66233365  1
  Cr  Cr50  1  0.83427234  0.49575831  0.82777654  1
  Cr  Cr51  1  0.83326322  0.82892719  0.49671814  1
  Cr  Cr52  1  0.66026821  0.66266383  0.66138991  1
  Cr  Cr53  1  0.82873981  0.83113628  0.83319078  1
" 