868,Ni35Fe15Cr49_5,-220.330605210409, 164.446222574361,Ni35Fe15Cr49,"# generated using pymatgen
 data_Cr27Fe8Ni19
_symmetry_space_group_name_H-M   'P 1'
_cell_length_a   7.50649952
_cell_length_b   7.50649952
_cell_length_c   10.61579343
_cell_angle_alpha   90.00000000
_cell_angle_beta   90.00000000
_cell_angle_gamma   90.00000000
_symmetry_Int_Tables_number   1
_chemical_formula_structural   Cr27Fe8Ni19
_chemical_formula_sum   'Cr27 Fe8 Ni19'
_cell_volume   598.17379306
_cell_formula_units_Z   1
loop_
 _symmetry_equiv_pos_site_id
 _symmetry_equiv_pos_as_xyz
  1  'x, y, z'
loop_
 _atom_site_type_symbol
 _atom_site_label
 _atom_site_symmetry_multiplicity
 _atom_site_fract_x
 _atom_site_fract_y
 _atom_site_fract_z
 _atom_site_occupancy
  Ni  Ni0  1  -0.00131383  0.99495960  0.99647103  1
  Cr  Cr1  1  0.16509903  0.16310185  0.16689015  1
  Ni  Ni2  1  0.00086878  0.99528753  0.33028400  1
  Cr  Cr3  1  0.00150207  0.33093589  0.99501547  1
  Fe  Fe4  1  0.16587239  0.49835273  0.16490443  1
  Ni  Ni5  1  0.00283888  0.33180366  0.33309015  1
  Ni  Ni6  1  0.00126982  0.66604989  -0.00150962  1
  Ni  Ni7  1  0.16106370  0.82866613  0.16472039  1
  Ni  Ni8  1  0.00240201  0.66505759  0.32954552  1
  Cr  Cr9  1  0.32657129  -0.00139509  0.99630771  1
  Ni  Ni10  1  0.49370261  0.16850536  0.16345404  1
  Fe  Fe11  1  0.32688966  0.99608218  0.33066864  1
  Ni  Ni12  1  0.33044894  0.33354761  -0.00141986  1
  Ni  Ni13  1  0.49315029  0.49534962  0.16377832  1
  Ni  Ni14  1  0.32820679  0.33336865  0.33054144  1
  Fe  Fe15  1  0.32574156  0.66279983  -0.00080881  1
  Cr  Cr16  1  0.49140646  0.83046975  0.16464989  1
  Ni  Ni17  1  0.32675458  0.66093506  0.32969509  1
  Cr  Cr18  1  0.66787342  -0.00147137  -0.00136352  1
  Cr  Cr19  1  0.83443468  0.16431849  0.16420590  1
  Cr  Cr20  1  0.66589480  0.99677523  0.32836141  1
  Fe  Fe21  1  0.66392508  0.33063015  -0.00105379  1
  Cr  Cr22  1  0.83468410  0.49817755  0.16463077  1
  Cr  Cr23  1  0.66193111  0.33161736  0.32798824  1
  Cr  Cr24  1  0.66494882  0.66377682  0.00050604  1
  Ni  Ni25  1  0.83695648  0.82918314  0.16459462  1
  Cr  Cr26  1  0.66370628  0.66376625  0.33049167  1
  Ni  Ni27  1  0.16384573  0.16465060  0.49487773  1
  Cr  Cr28  1  -0.00009054  -0.00201024  0.66578361  1
  Ni  Ni29  1  0.16179902  0.16465264  0.83081292  1
  Fe  Fe30  1  0.16355767  0.49861912  0.49509201  1
  Fe  Fe31  1  -0.00007593  0.33157940  0.66433381  1
  Fe  Fe32  1  0.16329111  0.49851696  0.83185082  1
  Ni  Ni33  1  0.16382268  0.83004828  0.49493284  1
  Ni  Ni34  1  0.00012167  0.66321373  0.66397223  1
  Ni  Ni35  1  0.16175809  0.82935745  0.83241114  1
  Cr  Cr36  1  0.49268288  0.16415943  0.49424498  1
  Cr  Cr37  1  0.32629192  -0.00173199  0.66403078  1
  Cr  Cr38  1  0.49575279  0.16543579  0.83342013  1
  Fe  Fe39  1  0.49398414  0.49779638  0.49566321  1
  Cr  Cr40  1  0.32591987  0.33148042  0.66300911  1
  Cr  Cr41  1  0.49672681  0.49841481  0.83256938  1
  Cr  Cr42  1  0.49341354  0.82863231  0.49885264  1
  Cr  Cr43  1  0.32675504  0.66221048  0.66433283  1
  Cr  Cr44  1  0.49407163  0.82827293  0.82883235  1
  Cr  Cr45  1  0.83555866  0.16630752  0.49643869  1
  Cr  Cr46  1  0.66584370  0.99730500  0.66514187  1
  Ni  Ni47  1  0.83527917  0.16624347  0.83149809  1
  Cr  Cr48  1  0.83347618  0.49805976  0.49856544  1
  Cr  Cr49  1  0.66353522  0.33053423  0.66410628  1
  Cr  Cr50  1  0.83217436  0.49779397  0.82894404  1
  Cr  Cr51  1  0.83421071  0.82799426  0.49703860  1
  Ni  Ni52  1  0.66486255  0.66176563  0.66227017  1
  Cr  Cr53  1  0.83269761  0.82814229  0.83043106  1
" 