5506,Ni35Fe47Cr17_18,-231.380851926879, 192.585393568717,Ni35Fe47Cr17,"# generated using pymatgen
 data_Cr11Fe25Ni18
_symmetry_space_group_name_H-M   'P 1'
_cell_length_a   7.44677300
_cell_length_b   7.44677300
_cell_length_c   10.53132737
_cell_angle_alpha   90.00000000
_cell_angle_beta   90.00000000
_cell_angle_gamma   90.00000000
_symmetry_Int_Tables_number   1
_chemical_formula_structural   Cr11Fe25Ni18
_chemical_formula_sum   'Cr11 Fe25 Ni18'
_cell_volume   584.00873630
_cell_formula_units_Z   1
loop_
 _symmetry_equiv_pos_site_id
 _symmetry_equiv_pos_as_xyz
  1  'x, y, z'
loop_
 _atom_site_type_symbol
 _atom_site_label
 _atom_site_symmetry_multiplicity
 _atom_site_fract_x
 _atom_site_fract_y
 _atom_site_fract_z
 _atom_site_occupancy
  Ni  Ni0  1  1.00124257  0.00177692  0.00278305  1
  Fe  Fe1  1  0.16923250  0.16691970  0.16756511  1
  Ni  Ni2  1  1.00106248  0.00280890  0.33454687  1
  Fe  Fe3  1  0.00232017  0.33439485  1.00119767  1
  Fe  Fe4  1  0.17093216  0.50024612  0.16774882  1
  Cr  Cr5  1  0.00253137  0.33225775  0.33575652  1
  Ni  Ni6  1  0.00255414  0.66791134  1.00073144  1
  Fe  Fe7  1  0.16797687  0.83691603  0.16819695  1
  Cr  Cr8  1  0.00256976  0.66912121  0.33373611  1
  Fe  Fe9  1  0.33495782  0.00242536  0.00202038  1
  Ni  Ni10  1  0.50153387  0.16736987  0.16717912  1
  Ni  Ni11  1  0.33591087  0.00176177  0.33428936  1
  Ni  Ni12  1  0.33375032  0.33245102  0.00161161  1
  Fe  Fe13  1  0.50005095  0.49961161  0.16959641  1
  Ni  Ni14  1  0.33606253  0.33484579  0.33505769  1
  Cr  Cr15  1  0.33275452  0.66781218  0.00291410  1
  Ni  Ni16  1  0.50079424  0.83625516  0.16941894  1
  Ni  Ni17  1  0.33710110  0.66747616  0.33482368  1
  Ni  Ni18  1  0.66736261  0.00330775  0.00263035  1
  Ni  Ni19  1  0.83374301  0.16539314  0.16742687  1
  Ni  Ni20  1  0.66711134  0.00176634  0.33356279  1
  Fe  Fe21  1  0.66771296  0.33191081  0.00220871  1
  Cr  Cr22  1  0.83437517  0.50078747  0.16678826  1
  Fe  Fe23  1  0.66569961  0.33295389  0.33523649  1
  Cr  Cr24  1  0.66902512  0.67003338  1.00134800  1
  Fe  Fe25  1  0.83373792  0.83861126  0.16787321  1
  Ni  Ni26  1  0.66431021  0.66908190  0.33518500  1
  Fe  Fe27  1  0.16793692  0.16780900  0.50163739  1
  Fe  Fe28  1  0.00355647  0.00199142  0.66716684  1
  Fe  Fe29  1  0.16916996  0.16828278  0.83488499  1
  Ni  Ni30  1  0.17051809  0.50124008  0.50329543  1
  Ni  Ni31  1  0.00385080  0.33654855  0.66804315  1
  Fe  Fe32  1  0.16536604  0.50069314  0.83364538  1
  Fe  Fe33  1  0.16933602  0.83531805  0.50157026  1
  Ni  Ni34  1  0.00281875  0.66521403  0.66900300  1
  Fe  Fe35  1  0.16781022  0.83510612  0.83431841  1
  Fe  Fe36  1  0.50000792  0.16813824  0.49905089  1
  Fe  Fe37  1  0.33323375  1.00094022  0.66777039  1
  Fe  Fe38  1  0.49891624  0.16667749  0.83693664  1
  Fe  Fe39  1  0.50088230  0.50219927  0.50045149  1
  Fe  Fe40  1  0.33222845  0.33512373  0.66731816  1
  Cr  Cr41  1  0.50047076  0.50092681  0.83458147  1
  Fe  Fe42  1  0.49984854  0.83374727  0.49963529  1
  Fe  Fe43  1  0.33369485  0.66801958  0.66691353  1
  Fe  Fe44  1  0.50026524  0.83671663  0.83436007  1
  Ni  Ni45  1  0.83565290  0.16794557  0.50015722  1
  Cr  Cr46  1  0.66554949  1.00054591  0.66793092  1
  Cr  Cr47  1  0.83595139  0.16851680  0.83677205  1
  Fe  Fe48  1  0.83457936  0.50080304  0.50262931  1
  Cr  Cr49  1  0.66925253  0.33552019  0.66630993  1
  Fe  Fe50  1  0.83761171  0.50204713  0.83423066  1
  Cr  Cr51  1  0.83474438  0.83581085  0.50018245  1
  Ni  Ni52  1  0.66788201  0.66773272  0.66779265  1
  Cr  Cr53  1  0.83595905  0.83368802  0.83548880  1
" 