6613,Ni35Fe9Cr54_12,-217.690349227979, 155.903506680232,Ni35Fe9Cr54,"# generated using pymatgen
 data_Cr30Fe5Ni19
_symmetry_space_group_name_H-M   'P 1'
_cell_length_a   7.52462108
_cell_length_b   7.52462108
_cell_length_c   10.64142118
_cell_angle_alpha   90.00000000
_cell_angle_beta   90.00000000
_cell_angle_gamma   90.00000000
_symmetry_Int_Tables_number   1
_chemical_formula_structural   Cr30Fe5Ni19
_chemical_formula_sum   'Cr30 Fe5 Ni19'
_cell_volume   602.51644100
_cell_formula_units_Z   1
loop_
 _symmetry_equiv_pos_site_id
 _symmetry_equiv_pos_as_xyz
  1  'x, y, z'
loop_
 _atom_site_type_symbol
 _atom_site_label
 _atom_site_symmetry_multiplicity
 _atom_site_fract_x
 _atom_site_fract_y
 _atom_site_fract_z
 _atom_site_occupancy
  Cr  Cr0  1  -0.00359286  -0.00277484  0.99614701  1
  Cr  Cr1  1  0.16125204  0.16548520  0.16139381  1
  Cr  Cr2  1  -0.00337108  0.99449078  0.32746140  1
  Fe  Fe3  1  0.99417767  0.32860358  0.99477446  1
  Cr  Cr4  1  0.16357196  0.49396687  0.16107135  1
  Cr  Cr5  1  0.99435480  0.33181766  0.33145381  1
  Cr  Cr6  1  0.99560033  0.66302501  0.99606630  1
  Ni  Ni7  1  0.16621688  0.82664122  0.16590849  1
  Cr  Cr8  1  -0.00204909  0.66253019  0.33162928  1
  Cr  Cr9  1  0.33042958  -0.00242519  0.99549479  1
  Cr  Cr10  1  0.49702664  0.16466694  0.16487322  1
  Cr  Cr11  1  0.32985883  0.99411678  0.32853374  1
  Ni  Ni12  1  0.33125567  0.32894153  0.99335184  1
  Fe  Fe13  1  0.49699751  0.49339671  0.16282982  1
  Ni  Ni14  1  0.33151885  0.33281537  0.32934202  1
  Cr  Cr15  1  0.33079921  0.66281469  -0.00027471  1
  Ni  Ni16  1  0.49513563  0.82796757  0.16563755  1
  Fe  Fe17  1  0.33034794  0.66130260  0.32917011  1
  Cr  Cr18  1  0.66182067  -0.00174946  0.99511397  1
  Ni  Ni19  1  0.82670231  0.16761020  0.16353831  1
  Ni  Ni20  1  0.66189950  -0.00300133  0.32717519  1
  Ni  Ni21  1  0.66259537  0.32841571  -0.00208052  1
  Ni  Ni22  1  0.82831555  0.49140470  0.16326659  1
  Ni  Ni23  1  0.66125321  0.33024062  0.32716904  1
  Cr  Cr24  1  0.66264829  0.66121818  -0.00194452  1
  Cr  Cr25  1  0.82885348  0.83131989  0.16205146  1
  Cr  Cr26  1  0.66248663  0.66031590  0.32631536  1
  Cr  Cr27  1  0.16510998  0.16444498  0.49538517  1
  Cr  Cr28  1  -0.00275348  -0.00179936  0.66435550  1
  Ni  Ni29  1  0.16344022  0.16616847  0.83084593  1
  Ni  Ni30  1  0.16528684  0.49885850  0.49578457  1
  Cr  Cr31  1  -0.00328806  0.33000355  0.66285148  1
  Ni  Ni32  1  0.16381496  0.49308555  0.83025141  1
  Fe  Fe33  1  0.16588414  0.82855897  0.49730263  1
  Cr  Cr34  1  -0.00379900  0.66043258  0.66083330  1
  Cr  Cr35  1  0.16325346  0.82730114  0.82775185  1
  Cr  Cr36  1  0.49723825  0.16097620  0.49540204  1
  Ni  Ni37  1  0.33068412  0.99593394  0.66460797  1
  Ni  Ni38  1  0.49643883  0.16306323  0.82858814  1
  Cr  Cr39  1  0.49479363  0.49708620  0.49515767  1
  Cr  Cr40  1  0.32876355  0.32823635  0.66492643  1
  Cr  Cr41  1  0.49420572  0.49668801  0.83045544  1
  Cr  Cr42  1  0.49745653  0.83004023  0.49941400  1
  Ni  Ni43  1  0.32808955  0.66280096  0.66065638  1
  Cr  Cr44  1  0.49838993  0.82910102  0.82506887  1
  Cr  Cr45  1  0.82627608  0.16132416  0.49295921  1
  Ni  Ni46  1  0.66214348  -0.00341590  0.66644818  1
  Ni  Ni47  1  0.82850994  0.16244562  0.83103263  1
  Fe  Fe48  1  0.82755370  0.49618596  0.49560496  1
  Cr  Cr49  1  0.66289318  0.32899802  0.66261267  1
  Cr  Cr50  1  0.83001617  0.49736870  0.82998972  1
  Cr  Cr51  1  0.82642686  0.83053811  0.49907346  1
  Ni  Ni52  1  0.66277123  0.66402374  0.66354419  1
  Ni  Ni53  1  0.82770834  0.83180769  0.82704072  1
" 