684,Ni35Fe47Cr17_13,-231.862600787424, 199.719360883373,Ni35Fe47Cr17,"# generated using pymatgen
 data_Cr11Fe25Ni18
_symmetry_space_group_name_H-M   'P 1'
_cell_length_a   7.44299303
_cell_length_b   7.44299303
_cell_length_c   10.52598168
_cell_angle_alpha   90.00000000
_cell_angle_beta   90.00000000
_cell_angle_gamma   90.00000000
_symmetry_Int_Tables_number   1
_chemical_formula_structural   Cr11Fe25Ni18
_chemical_formula_sum   'Cr11 Fe25 Ni18'
_cell_volume   583.11986183
_cell_formula_units_Z   1
loop_
 _symmetry_equiv_pos_site_id
 _symmetry_equiv_pos_as_xyz
  1  'x, y, z'
loop_
 _atom_site_type_symbol
 _atom_site_label
 _atom_site_symmetry_multiplicity
 _atom_site_fract_x
 _atom_site_fract_y
 _atom_site_fract_z
 _atom_site_occupancy
  Fe  Fe0  1  0.00199067  0.00183576  1.00101449  1
  Fe  Fe1  1  0.16910989  0.16737283  0.16854369  1
  Cr  Cr2  1  1.00150028  1.00064192  0.33340684  1
  Cr  Cr3  1  0.00207750  0.33320580  1.00095912  1
  Cr  Cr4  1  0.16947244  0.50248026  0.16936116  1
  Fe  Fe5  1  1.00128933  0.33696807  0.33547131  1
  Cr  Cr6  1  0.00163852  0.67053907  1.00114598  1
  Ni  Ni7  1  0.16877946  0.83511254  0.16904028  1
  Ni  Ni8  1  1.00103815  0.66745893  0.33508907  1
  Cr  Cr9  1  0.33364454  0.00333697  0.00264458  1
  Fe  Fe10  1  0.50097530  0.16927972  0.17005815  1
  Fe  Fe11  1  0.33680212  1.00073579  0.33460900  1
  Fe  Fe12  1  0.33625971  0.33438863  1.00110834  1
  Fe  Fe13  1  0.50218921  0.50241314  0.16862019  1
  Ni  Ni14  1  0.33543946  0.33448957  0.33466437  1
  Fe  Fe15  1  0.33526779  0.66799612  0.00251904  1
  Fe  Fe16  1  0.50119256  0.83315685  0.17000684  1
  Ni  Ni17  1  0.33487610  0.66772401  0.33505371  1
  Cr  Cr18  1  0.66960739  0.00289895  1.00079695  1
  Fe  Fe19  1  0.83476310  0.16836540  0.16851970  1
  Ni  Ni20  1  0.66701827  1.00154618  0.33505266  1
  Fe  Fe21  1  0.66707222  0.33450045  0.00198600  1
  Fe  Fe22  1  0.83282660  0.50260014  0.16969604  1
  Fe  Fe23  1  0.66769667  0.33539696  0.33535982  1
  Fe  Fe24  1  0.66770284  0.66751727  0.00361512  1
  Fe  Fe25  1  0.83473002  0.83388241  0.17011127  1
  Ni  Ni26  1  0.66893300  0.66872790  0.33388995  1
  Fe  Fe27  1  0.16851481  0.16999546  0.50227815  1
  Ni  Ni28  1  0.99927578  0.00277543  0.67123596  1
  Ni  Ni29  1  0.16671731  0.16866250  0.83469703  1
  Ni  Ni30  1  0.16907836  0.50129150  0.50139380  1
  Fe  Fe31  1  0.00223699  0.33261923  0.66822753  1
  Fe  Fe32  1  0.17099289  0.49964582  0.83359470  1
  Fe  Fe33  1  0.16877607  0.83367792  0.50044275  1
  Cr  Cr34  1  0.00233845  0.66904885  0.66784501  1
  Fe  Fe35  1  0.16697679  0.83610836  0.83520679  1
  Ni  Ni36  1  0.50264935  0.16865410  0.50116931  1
  Cr  Cr37  1  0.33520923  0.00337022  0.66678087  1
  Ni  Ni38  1  0.50226117  0.17030098  0.83461644  1
  Fe  Fe39  1  0.50117696  0.50185497  0.50209287  1
  Ni  Ni40  1  0.33492045  0.33558843  0.66965532  1
  Cr  Cr41  1  0.50007524  0.50063982  0.83486536  1
  Fe  Fe42  1  0.50293185  0.83377766  0.50110378  1
  Ni  Ni43  1  0.33438100  0.66561801  0.66798310  1
  Cr  Cr44  1  0.50272663  0.83392295  0.83270472  1
  Fe  Fe45  1  0.83382195  0.16823759  0.50323556  1
  Ni  Ni46  1  0.67094104  0.00331842  0.66833578  1
  Ni  Ni47  1  0.83587176  0.16632092  0.83291183  1
  Fe  Fe48  1  0.83391894  0.50159672  0.50101984  1
  Ni  Ni49  1  0.66738132  0.33264226  0.66792001  1
  Cr  Cr50  1  0.83372543  0.50080946  0.83344322  1
  Ni  Ni51  1  0.83303507  0.83481702  0.50206673  1
  Ni  Ni52  1  0.66824187  0.66888703  0.66696161  1
  Fe  Fe53  1  0.83518991  0.83850647  0.83312799  1
" 