7701,Ni35Cr65_7,-225.949164974132, 140.498314288023,Ni35Cr65,"# generated using pymatgen
 data_CrNi2
_symmetry_space_group_name_H-M   'P 1'
_cell_length_a   7.49235039
_cell_length_b   7.49235039
_cell_length_c   10.59578353
_cell_angle_alpha   90.00000000
_cell_angle_beta   90.00000000
_cell_angle_gamma   90.00000000
_symmetry_Int_Tables_number   1
_chemical_formula_structural   CrNi2
_chemical_formula_sum   'Cr18 Ni36'
_cell_volume   594.79763951
_cell_formula_units_Z   18
loop_
 _symmetry_equiv_pos_site_id
 _symmetry_equiv_pos_as_xyz
  1  'x, y, z'
loop_
 _atom_site_type_symbol
 _atom_site_label
 _atom_site_symmetry_multiplicity
 _atom_site_fract_x
 _atom_site_fract_y
 _atom_site_fract_z
 _atom_site_occupancy
  Ni  Ni0  1  0.99613035  0.00013810  0.99610012  1
  Cr  Cr1  1  0.16496557  0.16720595  0.16189306  1
  Cr  Cr2  1  0.99557907  0.00022290  0.33211487  1
  Ni  Ni3  1  0.99803393  0.32944082  0.99630985  1
  Ni  Ni4  1  0.16633713  0.49579705  0.16708745  1
  Ni  Ni5  1  -0.00086464  0.33231739  0.33205534  1
  Cr  Cr6  1  -0.00134216  0.66480437  0.99693578  1
  Cr  Cr7  1  0.16558226  0.83263223  0.16629006  1
  Ni  Ni8  1  -0.00052187  0.66282587  0.33170720  1
  Ni  Ni9  1  0.33160282  -0.00052075  0.99307971  1
  Cr  Cr10  1  0.49813613  0.16704189  0.16256584  1
  Ni  Ni11  1  0.33130118  0.00079297  0.33377749  1
  Ni  Ni12  1  0.33187723  0.33192985  0.99530026  1
  Ni  Ni13  1  0.49687996  0.49582677  0.16409831  1
  Ni  Ni14  1  0.33192545  0.33366771  0.33351761  1
  Cr  Cr15  1  0.33350595  0.66163165  0.99634121  1
  Cr  Cr16  1  0.49741483  0.83324842  0.16234761  1
  Ni  Ni17  1  0.32999913  0.65992998  0.33077712  1
  Ni  Ni18  1  0.66730644  -0.00112663  0.99587268  1
  Ni  Ni19  1  0.83133403  0.16512312  0.16249175  1
  Cr  Cr20  1  0.66586189  0.00161814  0.33315766  1
  Ni  Ni21  1  0.66480553  0.33123842  0.99695523  1
  Cr  Cr22  1  0.83208924  0.49428810  0.16303732  1
  Ni  Ni23  1  0.66400486  0.33128331  0.33192565  1
  Ni  Ni24  1  0.66501883  0.66465688  0.99606200  1
  Ni  Ni25  1  0.83163895  0.83253726  0.16238781  1
  Cr  Cr26  1  0.66378420  0.66364881  0.32917406  1
  Ni  Ni27  1  0.16705016  0.16892994  0.49641056  1
  Cr  Cr28  1  0.99592429  0.00020758  0.66599536  1
  Ni  Ni29  1  0.16631879  0.16669493  0.83523651  1
  Ni  Ni30  1  0.16639251  0.49552749  0.49689957  1
  Cr  Cr31  1  0.00195829  0.33103845  0.66725773  1
  Ni  Ni32  1  0.16416782  0.49540642  0.83195151  1
  Cr  Cr33  1  0.16390250  0.82871120  0.49723823  1
  Ni  Ni34  1  0.99743228  0.66529874  0.66767394  1
  Ni  Ni35  1  0.16401144  0.83320737  0.83254522  1
  Ni  Ni36  1  0.49720540  0.16799138  0.49779626  1
  Cr  Cr37  1  0.33248946  0.00409466  0.66760518  1
  Ni  Ni38  1  0.49850091  0.16533445  0.83332673  1
  Ni  Ni39  1  0.49637061  0.49534310  0.49745969  1
  Ni  Ni40  1  0.33204326  0.33230098  0.66538377  1
  Ni  Ni41  1  0.50045619  0.49626646  0.83307641  1
  Cr  Cr42  1  0.49865682  0.83104610  0.50029912  1
  Cr  Cr43  1  0.33205060  0.65941411  0.66956241  1
  Ni  Ni44  1  0.50145617  0.83316724  0.83266932  1
  Ni  Ni45  1  0.83061307  0.16621509  0.49735932  1
  Ni  Ni46  1  0.66614464  0.99803694  0.66576267  1
  Ni  Ni47  1  0.83050070  0.16484121  0.83505035  1
  Cr  Cr48  1  0.83285896  0.50037021  0.50040508  1
  Cr  Cr49  1  0.66187603  0.32948705  0.66551668  1
  Ni  Ni50  1  0.83086987  0.49877028  0.83245999  1
  Ni  Ni51  1  0.83125456  0.83156679  0.50109096  1
  Ni  Ni52  1  0.66607013  0.66592696  0.66840469  1
  Ni  Ni53  1  0.82985525  0.83142131  0.83101669  1
" 