7044,Ni35Fe26Cr37_14,-225.182581297807, 184.853142682433,Ni35Fe26Cr37,"# generated using pymatgen
 data_Cr21Fe14Ni19
_symmetry_space_group_name_H-M   'P 1'
_cell_length_a   7.47710982
_cell_length_b   7.47710982
_cell_length_c   10.57423011
_cell_angle_alpha   90.00000000
_cell_angle_beta   90.00000000
_cell_angle_gamma   90.00000000
_symmetry_Int_Tables_number   1
_chemical_formula_structural   Cr21Fe14Ni19
_chemical_formula_sum   'Cr21 Fe14 Ni19'
_cell_volume   591.17529359
_cell_formula_units_Z   1
loop_
 _symmetry_equiv_pos_site_id
 _symmetry_equiv_pos_as_xyz
  1  'x, y, z'
loop_
 _atom_site_type_symbol
 _atom_site_label
 _atom_site_symmetry_multiplicity
 _atom_site_fract_x
 _atom_site_fract_y
 _atom_site_fract_z
 _atom_site_occupancy
  Fe  Fe0  1  -0.00031188  0.00001705  0.99889279  1
  Ni  Ni1  1  0.16541670  0.16519159  0.16561313  1
  Fe  Fe2  1  0.00062378  0.99917645  0.33209873  1
  Fe  Fe3  1  0.00146430  0.33165981  0.99865297  1
  Ni  Ni4  1  0.16689670  0.50032074  0.16609559  1
  Cr  Cr5  1  0.00233116  0.33433087  0.33170882  1
  Fe  Fe6  1  0.00113263  0.66636018  -0.00041151  1
  Ni  Ni7  1  0.16425450  0.83236678  0.16700248  1
  Ni  Ni8  1  0.00361110  0.66681931  0.33294267  1
  Cr  Cr9  1  0.33132495  0.99897163  0.99748799  1
  Ni  Ni10  1  0.49661537  0.16669733  0.16948305  1
  Cr  Cr11  1  0.33195958  0.00081946  0.33338681  1
  Cr  Cr12  1  0.33091498  0.33439256  0.00241691  1
  Ni  Ni13  1  0.49759511  0.49999425  0.16726081  1
  Fe  Fe14  1  0.33179630  0.33583102  0.33172598  1
  Ni  Ni15  1  0.33075010  0.66431728  0.00127766  1
  Cr  Cr16  1  0.49821932  0.82999705  0.16527641  1
  Fe  Fe17  1  0.33149016  0.66260626  0.33178740  1
  Cr  Cr18  1  0.66844551  -0.00014706  0.00078890  1
  Fe  Fe19  1  0.83604869  0.16591657  0.16591272  1
  Fe  Fe20  1  0.66631760  0.99928444  0.33205356  1
  Cr  Cr21  1  0.66632600  0.33176182  0.00105173  1
  Cr  Cr22  1  0.83293951  0.50236454  0.16415114  1
  Cr  Cr23  1  0.66350590  0.33135557  0.33057517  1
  Ni  Ni24  1  0.66451153  0.66609293  0.99581906  1
  Cr  Cr25  1  0.83440089  0.83156573  0.16858189  1
  Ni  Ni26  1  0.66559471  0.66442513  0.33385879  1
  Fe  Fe27  1  0.16615084  0.16603586  0.50061395  1
  Ni  Ni28  1  0.00029231  0.00014086  0.66570152  1
  Ni  Ni29  1  0.16173943  0.16687705  0.83010556  1
  Fe  Fe30  1  0.16711121  0.49890925  0.49792684  1
  Ni  Ni31  1  0.00045818  0.33008169  0.66802961  1
  Ni  Ni32  1  0.16680170  0.49799963  0.83493069  1
  Fe  Fe33  1  0.16640389  0.83378872  0.49783951  1
  Cr  Cr34  1  0.00176745  0.66616965  0.66516668  1
  Cr  Cr35  1  0.16633738  0.83430061  0.83375758  1
  Ni  Ni36  1  0.49632017  0.16799546  0.49882559  1
  Fe  Fe37  1  0.32886482  0.00151188  0.66423831  1
  Cr  Cr38  1  0.49614513  0.16786687  0.82987605  1
  Ni  Ni39  1  0.49779313  0.49801445  0.49767344  1
  Cr  Cr40  1  0.33135888  0.33519796  0.66391856  1
  Ni  Ni41  1  0.49889736  0.50178785  0.83278847  1
  Cr  Cr42  1  0.49898175  0.83216426  0.49991829  1
  Cr  Cr43  1  0.33276400  0.66650868  0.66655106  1
  Fe  Fe44  1  0.50059613  0.82962988  0.83400240  1
  Cr  Cr45  1  0.83335531  0.16624073  0.50020883  1
  Cr  Cr46  1  0.66654469  0.99834302  0.66828056  1
  Ni  Ni47  1  0.83665160  0.16449190  0.83228183  1
  Cr  Cr48  1  0.83171865  0.49906975  0.50231750  1
  Ni  Ni49  1  0.66541890  0.33169081  0.66584344  1
  Cr  Cr50  1  0.83305648  0.49799680  0.83107158  1
  Cr  Cr51  1  0.83481132  0.83160707  0.49641009  1
  Fe  Fe52  1  0.66540824  0.66395248  0.66718407  1
  Ni  Ni53  1  0.83374099  0.83280271  0.83271148  1
" 