6898,Ni35Fe16Cr47_16,-220.158074284807, 165.712825277387,Ni35Fe16Cr47,"# generated using pymatgen
 data_Cr27Fe8Ni19
_symmetry_space_group_name_H-M   'P 1'
_cell_length_a   7.50833834
_cell_length_b   7.50833834
_cell_length_c   10.61839391
_cell_angle_alpha   90.00000000
_cell_angle_beta   90.00000000
_cell_angle_gamma   90.00000000
_symmetry_Int_Tables_number   1
_chemical_formula_structural   Cr27Fe8Ni19
_chemical_formula_sum   'Cr27 Fe8 Ni19'
_cell_volume   598.61349307
_cell_formula_units_Z   1
loop_
 _symmetry_equiv_pos_site_id
 _symmetry_equiv_pos_as_xyz
  1  'x, y, z'
loop_
 _atom_site_type_symbol
 _atom_site_label
 _atom_site_symmetry_multiplicity
 _atom_site_fract_x
 _atom_site_fract_y
 _atom_site_fract_z
 _atom_site_occupancy
  Cr  Cr0  1  -0.00134460  0.99626116  0.99609929  1
  Ni  Ni1  1  0.16323855  0.16448469  0.16500470  1
  Cr  Cr2  1  0.99610367  -0.00273055  0.33025202  1
  Cr  Cr3  1  0.00189482  0.33036073  -0.00107350  1
  Fe  Fe4  1  0.16531245  0.49662108  0.16550592  1
  Ni  Ni5  1  0.00247294  0.33223885  0.32980765  1
  Ni  Ni6  1  -0.00189936  0.66606921  0.99706503  1
  Cr  Cr7  1  0.16698368  0.82625655  0.16319884  1
  Cr  Cr8  1  0.99662324  0.66195826  0.33160188  1
  Cr  Cr9  1  0.32970261  -0.00076606  0.99534784  1
  Cr  Cr10  1  0.49915533  0.16399532  0.16592730  1
  Cr  Cr11  1  0.33023318  0.00036979  0.32946206  1
  Cr  Cr12  1  0.32983252  0.33044675  -0.00249641  1
  Cr  Cr13  1  0.49698355  0.49889209  0.16337030  1
  Ni  Ni14  1  0.32832335  0.33351284  0.33065811  1
  Fe  Fe15  1  0.33074740  0.66479522  0.99548873  1
  Ni  Ni16  1  0.49539796  0.82893104  0.16449669  1
  Fe  Fe17  1  0.33096475  0.66018684  0.33123132  1
  Cr  Cr18  1  0.66342121  0.99400167  -0.00182201  1
  Cr  Cr19  1  0.82875923  0.16683891  0.16599929  1
  Ni  Ni20  1  0.66361384  0.99452901  0.32936854  1
  Ni  Ni21  1  0.66112716  0.33273246  0.99541667  1
  Cr  Cr22  1  0.83150806  0.49557574  0.16188459  1
  Ni  Ni23  1  0.66120647  0.33223994  0.33200982  1
  Cr  Cr24  1  0.66401039  0.66538277  0.99456362  1
  Fe  Fe25  1  0.82933279  0.83014512  0.16456672  1
  Cr  Cr26  1  0.66408565  0.66561159  0.33314690  1
  Cr  Cr27  1  0.16345378  0.16404095  0.50007520  1
  Ni  Ni28  1  -0.00059900  0.99488452  0.66644591  1
  Fe  Fe29  1  0.16500629  0.16394552  0.82693633  1
  Ni  Ni30  1  0.16603292  0.49731496  0.49661047  1
  Ni  Ni31  1  0.00204040  0.33149840  0.66351721  1
  Cr  Cr32  1  0.16305459  0.50228157  0.83068936  1
  Cr  Cr33  1  0.16439846  0.82713359  0.50073396  1
  Ni  Ni34  1  -0.00135044  0.66516402  0.66372302  1
  Ni  Ni35  1  0.16448845  0.83010330  0.82886395  1
  Cr  Cr36  1  0.49840344  0.16576639  0.49618751  1
  Fe  Fe37  1  0.32909889  -0.00219211  0.66668967  1
  Cr  Cr38  1  0.49903258  0.16557490  0.82892224  1
  Ni  Ni39  1  0.49352549  0.49564157  0.49815072  1
  Ni  Ni40  1  0.33014270  0.33300436  0.66366911  1
  Ni  Ni41  1  0.49571322  0.49878403  0.82962532  1
  Cr  Cr42  1  0.49318544  0.83015475  0.49604778  1
  Fe  Fe43  1  0.33024690  0.66060400  0.66466859  1
  Ni  Ni44  1  0.49091982  0.82840042  0.83039533  1
  Cr  Cr45  1  0.82977367  0.16503531  0.49650985  1
  Cr  Cr46  1  0.66455214  0.99347899  0.66322930  1
  Cr  Cr47  1  0.83106028  0.16660849  0.82904771  1
  Cr  Cr48  1  0.83230238  0.49375175  0.49973299  1
  Ni  Ni49  1  0.65955323  0.33320879  0.66400152  1
  Cr  Cr50  1  0.83085562  0.49480418  0.83039513  1
  Ni  Ni51  1  0.83245421  0.83175189  0.49818414  1
  Cr  Cr52  1  0.66320421  0.66314212  0.66363856  1
  Fe  Fe53  1  0.83317792  0.82869074  0.82874563  1
" 