2155,Ni35Fe16Cr47_4,-220.199881752049, 161.266332790331,Ni35Fe16Cr47,"# generated using pymatgen
 data_Cr27Fe8Ni19
_symmetry_space_group_name_H-M   'P 1'
_cell_length_a   7.50940350
_cell_length_b   7.50940350
_cell_length_c   10.61990027
_cell_angle_alpha   90.00000000
_cell_angle_beta   90.00000000
_cell_angle_gamma   90.00000000
_symmetry_Int_Tables_number   1
_chemical_formula_structural   Cr27Fe8Ni19
_chemical_formula_sum   'Cr27 Fe8 Ni19'
_cell_volume   598.86829274
_cell_formula_units_Z   1
loop_
 _symmetry_equiv_pos_site_id
 _symmetry_equiv_pos_as_xyz
  1  'x, y, z'
loop_
 _atom_site_type_symbol
 _atom_site_label
 _atom_site_symmetry_multiplicity
 _atom_site_fract_x
 _atom_site_fract_y
 _atom_site_fract_z
 _atom_site_occupancy
  Cr  Cr0  1  -0.00151619  0.99644680  0.99590576  1
  Ni  Ni1  1  0.16743626  0.16284874  0.16384205  1
  Ni  Ni2  1  0.00064551  0.99569473  0.33071719  1
  Cr  Cr3  1  0.00135658  0.33096514  -0.00261343  1
  Ni  Ni4  1  0.16668741  0.49778764  0.16140334  1
  Cr  Cr5  1  0.00073480  0.32957361  0.32875912  1
  Fe  Fe6  1  0.00106467  0.66444232  0.99580614  1
  Fe  Fe7  1  0.16551909  0.83106070  0.16348996  1
  Cr  Cr8  1  -0.00053568  0.66507283  0.32992613  1
  Ni  Ni9  1  0.32961867  0.99685810  -0.00115165  1
  Ni  Ni10  1  0.49079869  0.16292585  0.16358443  1
  Ni  Ni11  1  0.32814226  -0.00249626  0.32824561  1
  Ni  Ni12  1  0.32884885  0.33150023  0.99661285  1
  Cr  Cr13  1  0.49524014  0.49785279  0.16269113  1
  Cr  Cr14  1  0.33078143  0.33013821  0.33220051  1
  Ni  Ni15  1  0.32875318  0.66346006  0.99613399  1
  Cr  Cr16  1  0.49394809  0.83127530  0.16264310  1
  Fe  Fe17  1  0.32955479  0.66419324  0.33023305  1
  Cr  Cr18  1  0.66155689  0.99603217  0.99435404  1
  Cr  Cr19  1  0.83068503  0.16303183  0.16383413  1
  Cr  Cr20  1  0.66146070  0.99709699  0.33113653  1
  Cr  Cr21  1  0.66080541  0.32952170  -0.00227421  1
  Cr  Cr22  1  0.83184680  0.49858849  0.16320851  1
  Cr  Cr23  1  0.66048744  0.33013034  0.33078488  1
  Cr  Cr24  1  0.66201194  0.66584229  0.99393042  1
  Cr  Cr25  1  0.83187979  0.82998168  0.16419056  1
  Cr  Cr26  1  0.66174227  0.66433816  0.33309396  1
  Cr  Cr27  1  0.16608495  0.16103175  0.49929840  1
  Fe  Fe28  1  0.99605647  0.99362000  0.66458140  1
  Cr  Cr29  1  0.16609368  0.16390790  0.82886557  1
  Cr  Cr30  1  0.16667029  0.49896174  0.50040252  1
  Cr  Cr31  1  -0.00161344  0.33137935  0.66545002  1
  Ni  Ni32  1  0.16731169  0.49857856  0.83044072  1
  Cr  Cr33  1  0.16392532  0.83172978  0.49712031  1
  Ni  Ni34  1  0.99672896  0.66552307  0.66554389  1
  Cr  Cr35  1  0.16669563  0.82973584  0.82998806  1
  Fe  Fe36  1  0.49639478  0.16343058  0.49944950  1
  Ni  Ni37  1  0.33264448  0.99587468  0.66393024  1
  Cr  Cr38  1  0.49501254  0.16369893  0.82990976  1
  Ni  Ni39  1  0.49673368  0.49684255  0.50062247  1
  Fe  Fe40  1  0.33352047  0.33370015  0.66495939  1
  Ni  Ni41  1  0.49470462  0.49875173  0.82889162  1
  Cr  Cr42  1  0.49538857  0.82955503  0.49827672  1
  Ni  Ni43  1  0.33252339  0.66497460  0.66503742  1
  Ni  Ni44  1  0.49667249  0.82933155  0.82944890  1
  Cr  Cr45  1  0.83117823  0.16177604  0.49883679  1
  Fe  Fe46  1  0.66322351  0.99421328  0.66516214  1
  Fe  Fe47  1  0.82903020  0.16293088  0.82804476  1
  Cr  Cr48  1  0.82882020  0.49885823  0.49732666  1
  Ni  Ni49  1  0.66128605  0.33120471  0.66337294  1
  Cr  Cr50  1  0.83023978  0.49820369  0.83105839  1
  Ni  Ni51  1  0.83058185  0.83150548  0.49987750  1
  Ni  Ni52  1  0.66261143  0.66377192  0.66439033  1
  Ni  Ni53  1  0.82963513  0.83045401  0.82673520  1
" 