3841,Ni35Fe9Cr54_6,-217.793749089079, 160.654261017622,Ni35Fe9Cr54,"# generated using pymatgen
 data_Cr30Fe5Ni19
_symmetry_space_group_name_H-M   'P 1'
_cell_length_a   7.51582917
_cell_length_b   7.51582917
_cell_length_c   10.62898754
_cell_angle_alpha   90.00000000
_cell_angle_beta   90.00000000
_cell_angle_gamma   90.00000000
_symmetry_Int_Tables_number   1
_chemical_formula_structural   Cr30Fe5Ni19
_chemical_formula_sum   'Cr30 Fe5 Ni19'
_cell_volume   600.40693267
_cell_formula_units_Z   1
loop_
 _symmetry_equiv_pos_site_id
 _symmetry_equiv_pos_as_xyz
  1  'x, y, z'
loop_
 _atom_site_type_symbol
 _atom_site_label
 _atom_site_symmetry_multiplicity
 _atom_site_fract_x
 _atom_site_fract_y
 _atom_site_fract_z
 _atom_site_occupancy
  Fe  Fe0  1  -0.00231095  0.99665693  -0.00153693  1
  Ni  Ni1  1  0.16401136  0.16383161  0.16160295  1
  Cr  Cr2  1  -0.00110844  0.99470764  0.32959682  1
  Cr  Cr3  1  -0.00282513  0.33077791  0.99569707  1
  Fe  Fe4  1  0.16490111  0.49676292  0.16226768  1
  Ni  Ni5  1  0.99612518  0.32962538  0.32755095  1
  Cr  Cr6  1  0.99575832  0.66219278  -0.00137758  1
  Ni  Ni7  1  0.16607154  0.82997610  0.16165676  1
  Cr  Cr8  1  0.99613783  0.66284535  0.33025738  1
  Cr  Cr9  1  0.33129359  -0.00295547  -0.00285863  1
  Cr  Cr10  1  0.49930481  0.16422323  0.16409613  1
  Cr  Cr11  1  0.33126592  0.99490402  0.32969872  1
  Ni  Ni12  1  0.33085026  0.33118394  -0.00048585  1
  Fe  Fe13  1  0.49780934  0.49811575  0.16159901  1
  Cr  Cr14  1  0.33078607  0.33181605  0.32682290  1
  Ni  Ni15  1  0.33320874  0.66332967  0.00070311  1
  Ni  Ni16  1  0.49694102  0.82677041  0.16068589  1
  Cr  Cr17  1  0.33254548  0.66426472  0.32695744  1
  Ni  Ni18  1  0.66116117  0.99495680  -0.00156767  1
  Cr  Cr19  1  0.82919011  0.16376085  0.16424502  1
  Fe  Fe20  1  0.66252323  0.99323933  0.32875579  1
  Ni  Ni21  1  0.66163587  0.33184777  0.99645451  1
  Cr  Cr22  1  0.82670108  0.49634927  0.16385264  1
  Ni  Ni23  1  0.66320775  0.33476661  0.33001533  1
  Ni  Ni24  1  0.65986680  0.66318177  -0.00319169  1
  Cr  Cr25  1  0.82722063  0.82956981  0.16281525  1
  Ni  Ni26  1  0.66164153  0.66268425  0.32971489  1
  Cr  Cr27  1  0.16308237  0.16407161  0.49677899  1
  Cr  Cr28  1  0.99619818  0.99634204  0.66403275  1
  Ni  Ni29  1  0.16482265  0.16300822  0.83327416  1
  Cr  Cr30  1  0.16731544  0.49870830  0.49673957  1
  Cr  Cr31  1  0.99365858  0.33044177  0.66670823  1
  Cr  Cr32  1  0.16662007  0.49867620  0.83022443  1
  Ni  Ni33  1  0.16293032  0.82814441  0.49808187  1
  Cr  Cr34  1  0.99260753  0.66399748  0.66157367  1
  Cr  Cr35  1  0.16684242  0.82810313  0.83017239  1
  Cr  Cr36  1  0.49969239  0.16760844  0.49467819  1
  Cr  Cr37  1  0.33081742  0.99587542  0.66337591  1
  Cr  Cr38  1  0.49712045  0.16451741  0.83113407  1
  Ni  Ni39  1  0.50011221  0.49882456  0.49639295  1
  Cr  Cr40  1  0.33280812  0.33020761  0.66337932  1
  Cr  Cr41  1  0.49670545  0.49912354  0.83118570  1
  Cr  Cr42  1  0.49722215  0.82686060  0.49738050  1
  Ni  Ni43  1  0.33449291  0.66443001  0.66188382  1
  Fe  Fe44  1  0.49730733  0.82778516  0.83205999  1
  Cr  Cr45  1  0.82809220  0.16351310  0.49206796  1
  Cr  Cr46  1  0.66348212  0.99517561  0.66290848  1
  Cr  Cr47  1  0.82778195  0.16376723  0.83402175  1
  Cr  Cr48  1  0.82744145  0.49653862  0.49649405  1
  Ni  Ni49  1  0.66313180  0.33412045  0.66356050  1
  Ni  Ni50  1  0.82472119  0.49807331  0.83033198  1
  Ni  Ni51  1  0.82763581  0.82812092  0.49450109  1
  Ni  Ni52  1  0.66105203  0.66172588  0.66386612  1
  Cr  Cr53  1  0.82714750  0.82760982  0.83391992  1
" 