7048,Ni35Fe26Cr37_0,-224.950794323629, 176.406348051731,Ni35Fe26Cr37,"# generated using pymatgen
 data_Cr21Fe14Ni19
_symmetry_space_group_name_H-M   'P 1'
_cell_length_a   7.48145812
_cell_length_b   7.48145812
_cell_length_c   10.58037954
_cell_angle_alpha   90.00000000
_cell_angle_beta   90.00000000
_cell_angle_gamma   90.00000000
_symmetry_Int_Tables_number   1
_chemical_formula_structural   Cr21Fe14Ni19
_chemical_formula_sum   'Cr21 Fe14 Ni19'
_cell_volume   592.20728435
_cell_formula_units_Z   1
loop_
 _symmetry_equiv_pos_site_id
 _symmetry_equiv_pos_as_xyz
  1  'x, y, z'
loop_
 _atom_site_type_symbol
 _atom_site_label
 _atom_site_symmetry_multiplicity
 _atom_site_fract_x
 _atom_site_fract_y
 _atom_site_fract_z
 _atom_site_occupancy
  Ni  Ni0  1  0.99782679  0.99637514  0.00149073  1
  Cr  Cr1  1  0.16376024  0.16313653  0.16495507  1
  Fe  Fe2  1  0.99480699  0.00000662  0.33140236  1
  Cr  Cr3  1  0.99605645  0.33125613  0.00213675  1
  Cr  Cr4  1  0.16710080  0.50025225  0.16624238  1
  Ni  Ni5  1  0.99685085  0.33296132  0.33384088  1
  Cr  Cr6  1  0.99601106  0.66854925  0.00098009  1
  Fe  Fe7  1  0.16538986  0.83261638  0.16779589  1
  Fe  Fe8  1  0.99601266  0.66364995  0.33116403  1
  Cr  Cr9  1  0.33287296  0.99777235  -0.00071228  1
  Cr  Cr10  1  0.50154613  0.16466824  0.16664049  1
  Fe  Fe11  1  0.33670022  0.99637024  0.33296401  1
  Ni  Ni12  1  0.33581863  0.33350345  0.99488182  1
  Cr  Cr13  1  0.50200560  0.50229623  0.16115597  1
  Cr  Cr14  1  0.33102759  0.33272969  0.33569975  1
  Fe  Fe15  1  0.33577326  0.66650229  -0.00089505  1
  Ni  Ni16  1  0.49964924  0.82960278  0.16832379  1
  Ni  Ni17  1  0.33202433  0.67037618  0.33107433  1
  Cr  Cr18  1  0.66769382  0.99777423  0.99827048  1
  Ni  Ni19  1  0.83403071  0.16430617  0.16641369  1
  Ni  Ni20  1  0.66609643  0.99635650  0.33417825  1
  Ni  Ni21  1  0.66407882  0.33440309  -0.00009680  1
  Ni  Ni22  1  0.83120066  0.50066569  0.16757673  1
  Cr  Cr23  1  0.67111959  0.33049976  0.33185204  1
  Ni  Ni24  1  0.66450792  0.66586039  0.99867569  1
  Fe  Fe25  1  0.82964180  0.83270818  0.16756695  1
  Ni  Ni26  1  0.66537055  0.66972606  0.33137910  1
  Cr  Cr27  1  0.16370801  0.16526808  0.50038725  1
  Ni  Ni28  1  0.99605267  -0.00031429  0.66666205  1
  Cr  Cr29  1  0.16552795  0.16549124  0.83241155  1
  Fe  Fe30  1  0.16317388  0.49944171  0.49833964  1
  Fe  Fe31  1  0.99545330  0.33265654  0.66252175  1
  Cr  Cr32  1  0.16790634  0.49831086  0.83108796  1
  Cr  Cr33  1  0.16513275  0.83102156  0.49567678  1
  Fe  Fe34  1  0.99521354  0.66618945  0.66516306  1
  Cr  Cr35  1  0.16185365  0.83325361  0.83331009  1
  Ni  Ni36  1  0.50320930  0.16329036  0.50021278  1
  Cr  Cr37  1  0.33672302  -0.00080216  0.66402829  1
  Ni  Ni38  1  0.50107160  0.16862873  0.83085075  1
  Cr  Cr39  1  0.50165044  0.50156968  0.49885612  1
  Fe  Fe40  1  0.33727917  0.33089262  0.66578722  1
  Fe  Fe41  1  0.50128073  0.49693684  0.83312737  1
  Ni  Ni42  1  0.50109663  0.83253464  0.49730208  1
  Cr  Cr43  1  0.33343448  0.66536647  0.66619803  1
  Fe  Fe44  1  0.50345983  0.83143895  0.83167735  1
  Ni  Ni45  1  0.83150302  0.16601151  0.50012707  1
  Ni  Ni46  1  0.66646735  -0.00028576  0.66520233  1
  Cr  Cr47  1  0.83052876  0.16376998  0.83160423  1
  Fe  Fe48  1  0.83232801  0.49831172  0.49934607  1
  Ni  Ni49  1  0.66599351  0.33123571  0.66414304  1
  Cr  Cr50  1  0.82789774  0.50095976  0.83066019  1
  Cr  Cr51  1  0.82943426  0.83245036  0.50155228  1
  Ni  Ni52  1  0.66581277  0.66618417  0.66671556  1
  Fe  Fe53  1  0.82982692  0.83325618  0.83008557  1
" 