6177,Ni35Cr65_16,-226.204967045705, 142.791472524014,Ni35Cr65,"# generated using pymatgen
 data_CrNi2
_symmetry_space_group_name_H-M   'P 1'
_cell_length_a   7.48980689
_cell_length_b   7.48980689
_cell_length_c   10.59218649
_cell_angle_alpha   90.00000000
_cell_angle_beta   90.00000000
_cell_angle_gamma   90.00000000
_symmetry_Int_Tables_number   1
_chemical_formula_structural   CrNi2
_chemical_formula_sum   'Cr18 Ni36'
_cell_volume   594.19208097
_cell_formula_units_Z   18
loop_
 _symmetry_equiv_pos_site_id
 _symmetry_equiv_pos_as_xyz
  1  'x, y, z'
loop_
 _atom_site_type_symbol
 _atom_site_label
 _atom_site_symmetry_multiplicity
 _atom_site_fract_x
 _atom_site_fract_y
 _atom_site_fract_z
 _atom_site_occupancy
  Cr  Cr0  1  0.99751464  0.00285546  0.99609903  1
  Cr  Cr1  1  0.16821430  0.16770228  0.16541620  1
  Cr  Cr2  1  0.99671345  0.99794452  0.33343490  1
  Ni  Ni3  1  0.99484304  0.33195329  -0.00138036  1
  Ni  Ni4  1  0.16395889  0.49796702  0.16539321  1
  Cr  Cr5  1  0.99571044  0.33333146  0.32986484  1
  Cr  Cr6  1  0.99817783  0.66194843  -0.00053057  1
  Cr  Cr7  1  0.16805382  0.83146955  0.16524746  1
  Ni  Ni8  1  0.99685738  0.66345880  0.33194146  1
  Ni  Ni9  1  0.33587712  -0.00108241  -0.00151612  1
  Ni  Ni10  1  0.50059522  0.16230001  0.16550553  1
  Ni  Ni11  1  0.33668876  -0.00142685  0.33275530  1
  Cr  Cr12  1  0.33364049  0.33136987  0.99736531  1
  Cr  Cr13  1  0.49966261  0.49812677  0.16425626  1
  Ni  Ni14  1  0.33445320  0.33029605  0.33203519  1
  Ni  Ni15  1  0.33507402  0.66584386  -0.00079260  1
  Ni  Ni16  1  0.49968450  0.83407350  0.16414853  1
  Cr  Cr17  1  0.33317115  0.66568887  0.33296281  1
  Ni  Ni18  1  0.66209753  0.00184073  -0.00033676  1
  Ni  Ni19  1  0.82781668  0.16698828  0.16314143  1
  Ni  Ni20  1  0.66110386  -0.00117855  0.33165621  1
  Ni  Ni21  1  0.66724487  0.33085612  0.99720041  1
  Ni  Ni22  1  0.83153681  0.49769965  0.16428691  1
  Cr  Cr23  1  0.66432778  0.33063001  0.33389498  1
  Ni  Ni24  1  0.66317888  0.66280565  -0.00144765  1
  Cr  Cr25  1  0.82581831  0.83138057  0.16549025  1
  Ni  Ni26  1  0.66527173  0.66552618  0.33272997  1
  Cr  Cr27  1  0.16738077  0.16526288  0.50024773  1
  Ni  Ni28  1  0.99831128  0.00057289  0.66532707  1
  Ni  Ni29  1  0.16560464  0.16611502  0.82989727  1
  Cr  Cr30  1  0.16544544  0.49735843  0.49916654  1
  Ni  Ni31  1  0.99527933  0.33085124  0.66675219  1
  Cr  Cr32  1  0.16629012  0.49661200  0.83025212  1
  Ni  Ni33  1  0.16677887  0.83175283  0.50067219  1
  Ni  Ni34  1  0.99769256  0.66403853  0.66355891  1
  Cr  Cr35  1  0.16703258  0.83335194  0.82927197  1
  Ni  Ni36  1  0.49925734  0.16448381  0.49892414  1
  Ni  Ni37  1  0.33334290  -0.00085221  0.66443052  1
  Ni  Ni38  1  0.49957806  0.16591288  0.83109790  1
  Ni  Ni39  1  0.50027550  0.49804824  0.50085985  1
  Ni  Ni40  1  0.33540720  0.33088922  0.66565568  1
  Ni  Ni41  1  0.50144660  0.49719381  0.83052782  1
  Ni  Ni42  1  0.49875600  0.83286984  0.49890327  1
  Ni  Ni43  1  0.33430028  0.66529362  0.66369212  1
  Cr  Cr44  1  0.49982536  0.83130833  0.83315334  1
  Ni  Ni45  1  0.82883262  0.16584672  0.50131785  1
  Ni  Ni46  1  0.66374822  0.00145786  0.66419895  1
  Ni  Ni47  1  0.83016875  0.16773642  0.83094862  1
  Ni  Ni48  1  0.83000272  0.49868274  0.50012811  1
  Ni  Ni49  1  0.66484504  0.33176778  0.66531082  1
  Ni  Ni50  1  0.82913179  0.49585310  0.83114289  1
  Cr  Cr51  1  0.82984747  0.83130009  0.49984244  1
  Ni  Ni52  1  0.66362187  0.66229041  0.66415514  1
  Cr  Cr53  1  0.82846442  0.83158755  0.82969748  1
" 