4391,Ni35Fe39Cr24_2,-230.060537996998, 193.378938751899,Ni35Fe39Cr24,"# generated using pymatgen
 data_Cr14Fe21Ni19
_symmetry_space_group_name_H-M   'P 1'
_cell_length_a   7.45533104
_cell_length_b   7.45533104
_cell_length_c   10.54343027
_cell_angle_alpha   90.00000000
_cell_angle_beta   90.00000000
_cell_angle_gamma   90.00000000
_symmetry_Int_Tables_number   1
_chemical_formula_structural   Cr14Fe21Ni19
_chemical_formula_sum   'Cr14 Fe21 Ni19'
_cell_volume   586.02452997
_cell_formula_units_Z   1
loop_
 _symmetry_equiv_pos_site_id
 _symmetry_equiv_pos_as_xyz
  1  'x, y, z'
loop_
 _atom_site_type_symbol
 _atom_site_label
 _atom_site_symmetry_multiplicity
 _atom_site_fract_x
 _atom_site_fract_y
 _atom_site_fract_z
 _atom_site_occupancy
  Fe  Fe0  1  0.00213639  0.00249100  0.00120892  1
  Ni  Ni1  1  0.16785175  0.17011235  0.16765205  1
  Ni  Ni2  1  0.99910657  0.00080262  0.33402877  1
  Fe  Fe3  1  0.00113233  0.33518474  0.00277522  1
  Ni  Ni4  1  0.16634982  0.49476175  0.16876656  1
  Ni  Ni5  1  0.00165031  0.33510010  0.33235319  1
  Cr  Cr6  1  0.00175608  0.66571390  0.99949540  1
  Cr  Cr7  1  0.16736254  0.83708778  0.16946656  1
  Ni  Ni8  1  1.00052604  0.66645535  0.33595625  1
  Fe  Fe9  1  0.33416896  0.00249241  1.00055399  1
  Fe  Fe10  1  0.49921064  0.16837812  0.16748490  1
  Ni  Ni11  1  0.33441097  0.00359832  0.33417868  1
  Fe  Fe12  1  0.33382934  0.33384183  0.00206033  1
  Fe  Fe13  1  0.50070237  0.49849905  0.16746093  1
  Ni  Ni14  1  0.33357879  0.33402044  0.33184191  1
  Cr  Cr15  1  0.33330468  0.66559178  0.99874753  1
  Cr  Cr16  1  0.50297358  0.83476215  0.16832771  1
  Cr  Cr17  1  0.33142516  0.66430308  0.33440159  1
  Fe  Fe18  1  0.66605374  0.00176719  0.00110754  1
  Fe  Fe19  1  0.83609333  0.16845226  0.16786831  1
  Ni  Ni20  1  0.66884344  0.00246986  0.33437000  1
  Fe  Fe21  1  0.66739321  0.33558174  0.00140653  1
  Ni  Ni22  1  0.83391244  0.49913558  0.16752709  1
  Cr  Cr23  1  0.66671821  0.33256334  0.33550510  1
  Fe  Fe24  1  0.66739321  0.66500878  0.99968335  1
  Cr  Cr25  1  0.83202160  0.83389392  0.16958561  1
  Fe  Fe26  1  0.66990254  0.66687752  0.33506221  1
  Cr  Cr27  1  0.16607799  0.16680593  0.49952012  1
  Ni  Ni28  1  0.00107927  0.99892985  0.66665700  1
  Cr  Cr29  1  0.16745920  0.16658232  0.83446499  1
  Ni  Ni30  1  0.16676249  0.50184646  0.50030609  1
  Fe  Fe31  1  0.99855925  0.33676357  0.66654839  1
  Ni  Ni32  1  0.16737023  0.50167886  0.83328100  1
  Ni  Ni33  1  0.16609793  0.83398655  0.50187189  1
  Fe  Fe34  1  0.00236891  0.66716794  0.66699484  1
  Ni  Ni35  1  0.17042852  0.83441322  0.83197336  1
  Fe  Fe36  1  0.50074311  0.16840843  0.49930232  1
  Fe  Fe37  1  0.33289488  0.99715830  0.66786634  1
  Fe  Fe38  1  0.50043316  0.16773501  0.83556975  1
  Ni  Ni39  1  0.50192325  0.50117645  0.50134867  1
  Cr  Cr40  1  0.33577552  0.33694203  0.66683737  1
  Fe  Fe41  1  0.50179384  0.50171347  0.83300771  1
  Cr  Cr42  1  0.50050626  0.83325042  0.49987140  1
  Ni  Ni43  1  0.33280336  0.66690810  0.66943858  1
  Fe  Fe44  1  0.49900331  0.83290971  0.83372699  1
  Ni  Ni45  1  0.83441679  0.16727464  0.50057173  1
  Cr  Cr46  1  0.66829281  0.00271548  0.66617206  1
  Cr  Cr47  1  0.83461976  0.17019983  0.83510179  1
  Fe  Fe48  1  0.83535291  0.50161902  0.50120143  1
  Fe  Fe49  1  0.66836644  0.33676549  0.66651061  1
  Ni  Ni50  1  0.83220840  0.50022201  0.83271857  1
  Fe  Fe51  1  0.83690444  0.83363779  0.49981989  1
  Ni  Ni52  1  0.66697220  0.66452057  0.66855727  1
  Cr  Cr53  1  0.83341011  0.83215395  0.83431596  1
" 