7939,Ni35Fe20Cr43_0,-222.59119407478, 174.904246731411,Ni35Fe20Cr43,"# generated using pymatgen
 data_Cr24Fe11Ni19
_symmetry_space_group_name_H-M   'P 1'
_cell_length_a   7.49177851
_cell_length_b   7.49177851
_cell_length_c   10.59497477
_cell_angle_alpha   90.00000000
_cell_angle_beta   90.00000000
_cell_angle_gamma   90.00000000
_symmetry_Int_Tables_number   1
_chemical_formula_structural   Cr24Fe11Ni19
_chemical_formula_sum   'Cr24 Fe11 Ni19'
_cell_volume   594.66144997
_cell_formula_units_Z   1
loop_
 _symmetry_equiv_pos_site_id
 _symmetry_equiv_pos_as_xyz
  1  'x, y, z'
loop_
 _atom_site_type_symbol
 _atom_site_label
 _atom_site_symmetry_multiplicity
 _atom_site_fract_x
 _atom_site_fract_y
 _atom_site_fract_z
 _atom_site_occupancy
  Cr  Cr0  1  0.99805966  0.00354928  0.00010089  1
  Ni  Ni1  1  0.16827622  0.16359584  0.16229310  1
  Ni  Ni2  1  -0.00009095  0.00400071  0.32923124  1
  Ni  Ni3  1  0.00055395  0.33007255  0.99672315  1
  Ni  Ni4  1  0.16662487  0.49582433  0.16466553  1
  Cr  Cr5  1  -0.00029620  0.32955973  0.33193791  1
  Cr  Cr6  1  0.00065246  0.66136312  -0.00034493  1
  Ni  Ni7  1  0.16506221  0.83403293  0.16664751  1
  Cr  Cr8  1  0.00181137  0.66361849  0.32859522  1
  Ni  Ni9  1  0.33434602  0.00078429  -0.00133388  1
  Ni  Ni10  1  0.49868914  0.16375331  0.16373536  1
  Cr  Cr11  1  0.33245984  0.00001217  0.33146710  1
  Fe  Fe12  1  0.32917957  0.32909781  0.00030605  1
  Cr  Cr13  1  0.49799292  0.49255986  0.16593498  1
  Fe  Fe14  1  0.33079918  0.32928790  0.33048199  1
  Cr  Cr15  1  0.33188781  0.66512938  -0.00085613  1
  Fe  Fe16  1  0.49488375  0.83253616  0.16353711  1
  Ni  Ni17  1  0.32894216  0.66205919  0.32969404  1
  Ni  Ni18  1  0.66217894  -0.00007650  0.00082344  1
  Fe  Fe19  1  0.83320081  0.16655567  0.16394368  1
  Cr  Cr20  1  0.66610440  0.00290413  0.33027729  1
  Fe  Fe21  1  0.66636554  0.32756177  0.00044274  1
  Cr  Cr22  1  0.83019375  0.49719452  0.16196036  1
  Ni  Ni23  1  0.66438342  0.32821195  0.33187367  1
  Ni  Ni24  1  0.66232845  0.66776856  -0.00142999  1
  Fe  Fe25  1  0.83208593  0.83457511  0.16383961  1
  Cr  Cr26  1  0.66147841  0.66584118  0.33024396  1
  Ni  Ni27  1  0.16647476  0.16716234  0.50012548  1
  Cr  Cr28  1  0.99794856  0.00562252  0.66413544  1
  Fe  Fe29  1  0.16369401  0.16905297  0.83260925  1
  Ni  Ni30  1  0.16749413  0.49411120  0.49681877  1
  Fe  Fe31  1  0.00007797  0.33048039  0.66603040  1
  Ni  Ni32  1  0.16616106  0.49422483  0.83332087  1
  Cr  Cr33  1  0.16452858  0.83411265  0.49642604  1
  Cr  Cr34  1  0.00023705  0.65949361  0.66606434  1
  Cr  Cr35  1  0.16777359  0.83696278  0.83077693  1
  Ni  Ni36  1  0.49723046  0.16846854  0.49833327  1
  Ni  Ni37  1  0.33194633  0.00482923  0.66591600  1
  Cr  Cr38  1  0.49575095  0.16413520  0.83383915  1
  Cr  Cr39  1  0.49784002  0.49397893  0.49571426  1
  Fe  Fe40  1  0.32960523  0.33076578  0.66444782  1
  Cr  Cr41  1  0.49935879  0.49404603  0.83410695  1
  Cr  Cr42  1  0.49637367  0.83240661  0.50069271  1
  Cr  Cr43  1  0.33248340  0.66360815  0.66625180  1
  Fe  Fe44  1  0.49974306  0.83237906  0.83236642  1
  Ni  Ni45  1  0.83150599  0.16775265  0.49701994  1
  Cr  Cr46  1  0.66302689  -0.00016590  0.66371483  1
  Ni  Ni47  1  0.82931377  0.16709903  0.83396583  1
  Cr  Cr48  1  0.83025349  0.49699254  0.50041864  1
  Fe  Fe49  1  0.66480742  0.32900866  0.66384896  1
  Cr  Cr50  1  0.83041609  0.49588020  0.83286156  1
  Cr  Cr51  1  0.83469778  0.83267287  0.49674666  1
  Ni  Ni52  1  0.66273130  0.66203936  0.66707016  1
  Cr  Cr53  1  0.83124307  0.83237738  0.83245755  1
" 