17,Ni35Fe20Cr43_17,-222.325824405722, 168.523297381805,Ni35Fe20Cr43,"# generated using pymatgen
 data_Cr24Fe11Ni19
_symmetry_space_group_name_H-M   'P 1'
_cell_length_a   7.49240050
_cell_length_b   7.49240050
_cell_length_c   10.59585441
_cell_angle_alpha   90.00000000
_cell_angle_beta   90.00000000
_cell_angle_gamma   90.00000000
_symmetry_Int_Tables_number   1
_chemical_formula_structural   Cr24Fe11Ni19
_chemical_formula_sum   'Cr24 Fe11 Ni19'
_cell_volume   594.80957493
_cell_formula_units_Z   1
loop_
 _symmetry_equiv_pos_site_id
 _symmetry_equiv_pos_as_xyz
  1  'x, y, z'
loop_
 _atom_site_type_symbol
 _atom_site_label
 _atom_site_symmetry_multiplicity
 _atom_site_fract_x
 _atom_site_fract_y
 _atom_site_fract_z
 _atom_site_occupancy
  Cr  Cr0  1  0.99712727  0.99575964  0.00026196  1
  Cr  Cr1  1  0.16351832  0.16497008  0.16457938  1
  Cr  Cr2  1  0.99758344  0.99523265  0.33128305  1
  Fe  Fe3  1  0.99733266  0.33343849  0.99827763  1
  Ni  Ni4  1  0.16514762  0.50181174  0.16314393  1
  Cr  Cr5  1  0.99610741  0.33199840  0.32998370  1
  Cr  Cr6  1  0.99621265  0.66498077  -0.00020248  1
  Ni  Ni7  1  0.16728733  0.82786396  0.16664636  1
  Cr  Cr8  1  0.99572712  0.66730907  0.33149678  1
  Cr  Cr9  1  0.33005924  0.99633839  0.99553405  1
  Cr  Cr10  1  0.50127505  0.16330314  0.16684387  1
  Fe  Fe11  1  0.33130518  0.99381068  0.33334402  1
  Cr  Cr12  1  0.33049091  0.33455120  0.99667038  1
  Ni  Ni13  1  0.49828242  0.50248737  0.16602709  1
  Cr  Cr14  1  0.33292675  0.33375243  0.33323976  1
  Fe  Fe15  1  0.33176399  0.66470946  -0.00116880  1
  Cr  Cr16  1  0.49734663  0.82986992  0.16574927  1
  Fe  Fe17  1  0.33233827  0.66624325  0.33206815  1
  Cr  Cr18  1  0.66774913  0.99462562  0.99800502  1
  Ni  Ni19  1  0.83140951  0.16601609  0.16539346  1
  Fe  Fe20  1  0.66797349  0.99552813  0.33364540  1
  Cr  Cr21  1  0.66636605  0.33567158  0.00117157  1
  Ni  Ni22  1  0.83152821  0.49805323  0.16374569  1
  Cr  Cr23  1  0.66614716  0.33550949  0.33197922  1
  Fe  Fe24  1  0.66558406  0.66505465  0.99775888  1
  Fe  Fe25  1  0.83067618  0.82923719  0.16628168  1
  Ni  Ni26  1  0.66421106  0.66571030  0.33179794  1
  Fe  Fe27  1  0.16035273  0.16208073  0.49948776  1
  Ni  Ni28  1  0.99610557  0.99752901  0.66316339  1
  Fe  Fe29  1  0.16100979  0.16666519  0.83039805  1
  Cr  Cr30  1  0.16169686  0.50035147  0.49946654  1
  Ni  Ni31  1  0.99813362  0.33111884  0.66612122  1
  Ni  Ni32  1  0.16050105  0.49714681  0.83246777  1
  Ni  Ni33  1  0.16559899  0.83227984  0.49782456  1
  Fe  Fe34  1  0.99441830  0.66570845  0.66475467  1
  Cr  Cr35  1  0.16367994  0.82883268  0.83021656  1
  Cr  Cr36  1  0.50089530  0.16139122  0.49715999  1
  Cr  Cr37  1  0.33044398  0.99746115  0.66530546  1
  Cr  Cr38  1  0.50018456  0.16126176  0.83087840  1
  Fe  Fe39  1  0.50234709  0.50462552  0.49720061  1
  Cr  Cr40  1  0.32984688  0.33191270  0.66497585  1
  Cr  Cr41  1  0.49945597  0.50249063  0.83187555  1
  Ni  Ni42  1  0.49973103  0.83134417  0.49734112  1
  Cr  Cr43  1  0.33400088  0.66555213  0.66419133  1
  Ni  Ni44  1  0.50160434  0.83037344  0.83121849  1
  Ni  Ni45  1  0.83239243  0.16381528  0.49994658  1
  Ni  Ni46  1  0.66825744  0.99259758  0.66381561  1
  Cr  Cr47  1  0.83298731  0.16526833  0.82980913  1
  Ni  Ni48  1  0.83176862  0.49953660  0.50095957  1
  Cr  Cr49  1  0.66643494  0.33544993  0.66194758  1
  Ni  Ni50  1  0.83580945  0.50046229  0.83014914  1
  Ni  Ni51  1  0.82988652  0.83158332  0.50042457  1
  Ni  Ni52  1  0.66819786  0.66849156  0.66532180  1
  Ni  Ni53  1  0.82941844  0.82946944  0.82865873  1
" 