6674,Ni35Fe16Cr47_14,-220.476351674322, 169.042514258061,Ni35Fe16Cr47,"# generated using pymatgen
 data_Cr27Fe8Ni19
_symmetry_space_group_name_H-M   'P 1'
_cell_length_a   7.50463504
_cell_length_b   7.50463504
_cell_length_c   10.61315666
_cell_angle_alpha   90.00000000
_cell_angle_beta   90.00000000
_cell_angle_gamma   90.00000000
_symmetry_Int_Tables_number   1
_chemical_formula_structural   Cr27Fe8Ni19
_chemical_formula_sum   'Cr27 Fe8 Ni19'
_cell_volume   597.72817672
_cell_formula_units_Z   1
loop_
 _symmetry_equiv_pos_site_id
 _symmetry_equiv_pos_as_xyz
  1  'x, y, z'
loop_
 _atom_site_type_symbol
 _atom_site_label
 _atom_site_symmetry_multiplicity
 _atom_site_fract_x
 _atom_site_fract_y
 _atom_site_fract_z
 _atom_site_occupancy
  Ni  Ni0  1  0.00081295  0.99650390  0.99676063  1
  Cr  Cr1  1  0.16471738  0.16088342  0.16239631  1
  Cr  Cr2  1  -0.00150354  0.99403464  0.33196655  1
  Cr  Cr3  1  0.00027619  0.33046215  0.99601033  1
  Fe  Fe4  1  0.16651459  0.50084976  0.16526408  1
  Cr  Cr5  1  0.00242707  0.33088335  0.33081997  1
  Cr  Cr6  1  -0.00098576  0.66437639  -0.00226336  1
  Ni  Ni7  1  0.16853552  0.82909148  0.16351766  1
  Ni  Ni8  1  0.00148518  0.66740791  0.33157156  1
  Ni  Ni9  1  0.32942430  0.99641409  -0.00177276  1
  Cr  Cr10  1  0.49688769  0.16137024  0.16687991  1
  Fe  Fe11  1  0.32929940  0.99468155  0.33024054  1
  Cr  Cr12  1  0.33010162  0.33167424  0.99513896  1
  Cr  Cr13  1  0.49649302  0.50050350  0.16514171  1
  Ni  Ni14  1  0.33052635  0.33063873  0.33128874  1
  Ni  Ni15  1  0.33223818  0.66511611  -0.00117361  1
  Ni  Ni16  1  0.49327386  0.83009673  0.16377883  1
  Ni  Ni17  1  0.32807559  0.66468629  0.32916960  1
  Cr  Cr18  1  0.66277095  0.99574142  0.99667945  1
  Cr  Cr19  1  0.83059274  0.16443630  0.16499702  1
  Ni  Ni20  1  0.66262702  0.99598363  0.33173426  1
  Cr  Cr21  1  0.66146921  0.33341357  0.99660156  1
  Cr  Cr22  1  0.83200296  0.49736789  0.16598791  1
  Fe  Fe23  1  0.66200832  0.33097979  0.33089505  1
  Ni  Ni24  1  0.66184369  0.66474916  0.99495905  1
  Cr  Cr25  1  0.83153458  0.83090041  0.16132181  1
  Cr  Cr26  1  0.66382284  0.66837323  0.33142302  1
  Ni  Ni27  1  0.16656646  0.16326908  0.49948023  1
  Cr  Cr28  1  -0.00212327  0.99715079  0.66224988  1
  Ni  Ni29  1  0.16578719  0.16451420  0.82994385  1
  Cr  Cr30  1  0.16565740  0.49808504  0.49796027  1
  Ni  Ni31  1  0.00120210  0.32917162  0.66597849  1
  Ni  Ni32  1  0.16463720  0.49683375  0.82945484  1
  Ni  Ni33  1  0.16591113  0.83140449  0.49666216  1
  Cr  Cr34  1  -0.00189770  0.66483174  0.66244981  1
  Cr  Cr35  1  0.16730862  0.83125409  0.83223352  1
  Cr  Cr36  1  0.49493086  0.16347576  0.49648428  1
  Fe  Fe37  1  0.32907130  -0.00135003  0.66473351  1
  Fe  Fe38  1  0.49363240  0.16374735  0.82989540  1
  Cr  Cr39  1  0.49464123  0.49786668  0.49737188  1
  Ni  Ni40  1  0.32824601  0.32933132  0.66676917  1
  Fe  Fe41  1  0.49375139  0.49881637  0.83044491  1
  Cr  Cr42  1  0.49344272  0.83122261  0.49780508  1
  Ni  Ni43  1  0.33030969  0.66239718  0.66469268  1
  Cr  Cr44  1  0.49544623  0.83082128  0.83140565  1
  Cr  Cr45  1  0.83090954  0.16506899  0.49557351  1
  Fe  Fe46  1  0.66332134  -0.00230272  0.66376606  1
  Cr  Cr47  1  0.83321049  0.16376619  0.83175748  1
  Cr  Cr48  1  0.83242685  0.49736336  0.49581776  1
  Cr  Cr49  1  0.66152358  0.33134764  0.66594006  1
  Ni  Ni50  1  0.83121828  0.49729248  0.83099389  1
  Ni  Ni51  1  0.83109844  0.83192830  0.49770453  1
  Cr  Cr52  1  0.66434371  0.66612539  0.66617137  1
  Fe  Fe53  1  0.83292373  0.82971599  0.83169376  1
" 