2906,Ni35Fe41Cr23_19,-231.104539910033, 197.604002667901,Ni35Fe41Cr23,"# generated using pymatgen
 data_Cr13Fe22Ni19
_symmetry_space_group_name_H-M   'P 1'
_cell_length_a   7.45260007
_cell_length_b   7.45260007
_cell_length_c   10.53956810
_cell_angle_alpha   90.00000000
_cell_angle_beta   90.00000000
_cell_angle_gamma   90.00000000
_symmetry_Int_Tables_number   1
_chemical_formula_structural   Cr13Fe22Ni19
_chemical_formula_sum   'Cr13 Fe22 Ni19'
_cell_volume   585.38076426
_cell_formula_units_Z   1
loop_
 _symmetry_equiv_pos_site_id
 _symmetry_equiv_pos_as_xyz
  1  'x, y, z'
loop_
 _atom_site_type_symbol
 _atom_site_label
 _atom_site_symmetry_multiplicity
 _atom_site_fract_x
 _atom_site_fract_y
 _atom_site_fract_z
 _atom_site_occupancy
  Cr  Cr0  1  0.00471860  0.99921094  0.00284257  1
  Fe  Fe1  1  0.16988407  0.17044716  0.16953369  1
  Ni  Ni2  1  0.00393912  0.99976583  0.33295132  1
  Ni  Ni3  1  0.00291543  0.33522013  0.00257372  1
  Ni  Ni4  1  0.16832132  0.49882454  0.16870484  1
  Ni  Ni5  1  1.00096637  0.33546800  0.33120357  1
  Cr  Cr6  1  0.99895307  0.66637537  0.00172151  1
  Fe  Fe7  1  0.16993202  0.83139798  0.17088380  1
  Ni  Ni8  1  0.99888819  0.66807437  0.33293966  1
  Fe  Fe9  1  0.33556764  1.00022787  0.00534530  1
  Fe  Fe10  1  0.49885600  0.16954466  0.16887408  1
  Ni  Ni11  1  0.33467887  0.00114639  0.33409203  1
  Ni  Ni12  1  0.33433582  0.33410066  0.00121009  1
  Ni  Ni13  1  0.49810997  0.50233256  0.16794838  1
  Ni  Ni14  1  0.33701365  0.33311105  0.33500423  1
  Fe  Fe15  1  0.33314815  0.66357506  0.00267227  1
  Fe  Fe16  1  0.50107444  0.83153107  0.16873631  1
  Fe  Fe17  1  0.33394679  0.66716574  0.33278895  1
  Fe  Fe18  1  0.66990658  1.00049514  0.00460903  1
  Fe  Fe19  1  0.83575428  0.16931067  0.16955347  1
  Fe  Fe20  1  0.66690451  1.00062159  0.33275819  1
  Cr  Cr21  1  0.66808370  0.33947015  0.00281218  1
  Fe  Fe22  1  0.83354117  0.50220530  0.17034592  1
  Fe  Fe23  1  0.66677605  0.33602693  0.33422230  1
  Ni  Ni24  1  0.66702178  0.66774661  0.00127049  1
  Fe  Fe25  1  0.83191514  0.83183098  0.16973057  1
  Ni  Ni26  1  0.66672706  0.66490991  0.33443023  1
  Cr  Cr27  1  0.16613052  0.17041054  0.50029837  1
  Fe  Fe28  1  0.99892429  0.99694097  0.66790027  1
  Cr  Cr29  1  0.16739100  0.17276259  0.83430442  1
  Cr  Cr30  1  0.16726970  0.50235869  0.49807994  1
  Fe  Fe31  1  0.99941872  0.33899160  0.66766622  1
  Ni  Ni32  1  0.16882909  0.50214645  0.83471680  1
  Fe  Fe33  1  0.16903774  0.83320116  0.49748968  1
  Fe  Fe34  1  1.00027407  0.66747493  0.66833119  1
  Fe  Fe35  1  0.16750434  0.83270013  0.83321267  1
  Ni  Ni36  1  0.50075104  0.16654785  0.49826526  1
  Cr  Cr37  1  0.33323815  1.00031697  0.66425188  1
  Cr  Cr38  1  0.50110674  0.16646301  0.83632142  1
  Ni  Ni39  1  0.50027278  0.50407486  0.49943708  1
  Fe  Fe40  1  0.33615528  0.33798601  0.66647313  1
  Fe  Fe41  1  0.49947789  0.50212166  0.83502543  1
  Ni  Ni42  1  0.50171957  0.83263842  0.49821189  1
  Fe  Fe43  1  0.33750325  0.66675600  0.66710488  1
  Cr  Cr44  1  0.50371765  0.83244507  0.83864976  1
  Cr  Cr45  1  0.83443869  0.16706868  0.49960026  1
  Ni  Ni46  1  0.66498540  0.99829410  0.66627436  1
  Cr  Cr47  1  0.83386113  0.16476863  0.83301832  1
  Ni  Ni48  1  0.83441668  0.50265930  0.49858517  1
  Cr  Cr49  1  0.66487292  0.33786253  0.66381697  1
  Fe  Fe50  1  0.83538812  0.50224402  0.83311531  1
  Cr  Cr51  1  0.83250122  0.83322988  0.50036630  1
  Ni  Ni52  1  0.66846355  0.66719994  0.66797450  1
  Ni  Ni53  1  0.83281260  0.83254126  0.83409172  1
" 