3996,Ni35Fe9Cr54_14,-218.028237268958, 160.301661595389,Ni35Fe9Cr54,"# generated using pymatgen
 data_Cr30Fe5Ni19
_symmetry_space_group_name_H-M   'P 1'
_cell_length_a   7.51804995
_cell_length_b   7.51804995
_cell_length_c   10.63212820
_cell_angle_alpha   90.00000000
_cell_angle_beta   90.00000000
_cell_angle_gamma   90.00000000
_symmetry_Int_Tables_number   1
_chemical_formula_structural   Cr30Fe5Ni19
_chemical_formula_sum   'Cr30 Fe5 Ni19'
_cell_volume   600.93931600
_cell_formula_units_Z   1
loop_
 _symmetry_equiv_pos_site_id
 _symmetry_equiv_pos_as_xyz
  1  'x, y, z'
loop_
 _atom_site_type_symbol
 _atom_site_label
 _atom_site_symmetry_multiplicity
 _atom_site_fract_x
 _atom_site_fract_y
 _atom_site_fract_z
 _atom_site_occupancy
  Cr  Cr0  1  -0.00066354  -0.00194618  0.99514213  1
  Cr  Cr1  1  0.16429247  0.16693675  0.16735926  1
  Cr  Cr2  1  -0.00015494  0.99651078  0.33197156  1
  Ni  Ni3  1  -0.00019969  0.33063622  -0.00315023  1
  Ni  Ni4  1  0.16156056  0.49710315  0.16483250  1
  Ni  Ni5  1  -0.00218243  0.33183718  0.33032672  1
  Cr  Cr6  1  -0.00046394  0.66349199  -0.00302217  1
  Ni  Ni7  1  0.16289065  0.82800742  0.16560957  1
  Fe  Fe8  1  -0.00066903  0.66212671  0.33192960  1
  Cr  Cr9  1  0.32727113  0.99589869  0.99552791  1
  Cr  Cr10  1  0.49548264  0.16191313  0.16468192  1
  Ni  Ni11  1  0.32814984  0.99480812  0.33194148  1
  Cr  Cr12  1  0.32764746  0.33005138  0.99480408  1
  Cr  Cr13  1  0.49168184  0.49542679  0.16435019  1
  Ni  Ni14  1  0.32792359  0.32997857  0.33172818  1
  Cr  Cr15  1  0.32738907  0.66462318  0.99550590  1
  Cr  Cr16  1  0.49668521  0.83271675  0.16445045  1
  Cr  Cr17  1  0.33093600  0.66511486  0.33043512  1
  Ni  Ni18  1  0.66248507  -0.00187107  -0.00332488  1
  Cr  Cr19  1  0.83017319  0.16246442  0.16230537  1
  Fe  Fe20  1  0.66142616  -0.00294325  0.33247781  1
  Cr  Cr21  1  0.66495989  0.32929080  0.99470341  1
  Cr  Cr22  1  0.83465885  0.49648769  0.16479275  1
  Cr  Cr23  1  0.66484133  0.33319952  0.33246512  1
  Cr  Cr24  1  0.66257526  0.66238722  -0.00259536  1
  Cr  Cr25  1  0.82961257  0.83071908  0.16482427  1
  Fe  Fe26  1  0.66326641  0.66322883  0.33381455  1
  Fe  Fe27  1  0.16412921  0.16345786  0.49532110  1
  Ni  Ni28  1  -0.00132364  0.99479353  0.66325112  1
  Fe  Fe29  1  0.16378430  0.16472511  0.82781772  1
  Cr  Cr30  1  0.16414770  0.49537734  0.49654714  1
  Cr  Cr31  1  -0.00326922  0.32811688  0.66253209  1
  Ni  Ni32  1  0.16186505  0.49577976  0.82923363  1
  Ni  Ni33  1  0.16377093  0.83024571  0.49716355  1
  Ni  Ni34  1  -0.00076070  0.66457384  0.66151395  1
  Ni  Ni35  1  0.16093063  0.82803021  0.82701714  1
  Cr  Cr36  1  0.49321411  0.16366125  0.49658155  1
  Cr  Cr37  1  0.32643557  -0.00325370  0.66223996  1
  Ni  Ni38  1  0.49626754  0.16261170  0.82783333  1
  Ni  Ni39  1  0.49566020  0.49512993  0.49734390  1
  Ni  Ni40  1  0.33064804  0.32855576  0.66345984  1
  Cr  Cr41  1  0.49299585  0.49303375  0.82704580  1
  Ni  Ni42  1  0.49547006  0.83110606  0.49484852  1
  Cr  Cr43  1  0.32899378  0.66402372  0.66361323  1
  Cr  Cr44  1  0.49797673  0.83382865  0.82997679  1
  Cr  Cr45  1  0.83128850  0.16301571  0.49819955  1
  Ni  Ni46  1  0.66259516  -0.00154049  0.66199720  1
  Cr  Cr47  1  0.82792331  0.16117042  0.82949246  1
  Ni  Ni48  1  0.83167827  0.49658321  0.49628281  1
  Ni  Ni49  1  0.66145283  0.32835708  0.66176920  1
  Cr  Cr50  1  0.83377039  0.49676144  0.82749228  1
  Cr  Cr51  1  0.83189200  0.82963058  0.49879394  1
  Cr  Cr52  1  0.66276842  0.65986975  0.65858036  1
  Cr  Cr53  1  0.83095173  0.83098860  0.82699700  1
" 