7414,Ni35Fe39Cr24_19,-230.466590523991, 193.171495435272,Ni35Fe39Cr24,"# generated using pymatgen
 data_Cr14Fe21Ni19
_symmetry_space_group_name_H-M   'P 1'
_cell_length_a   7.45587487
_cell_length_b   7.45587487
_cell_length_c   10.54419936
_cell_angle_alpha   90.00000000
_cell_angle_beta   90.00000000
_cell_angle_gamma   90.00000000
_symmetry_Int_Tables_number   1
_chemical_formula_structural   Cr14Fe21Ni19
_chemical_formula_sum   'Cr14 Fe21 Ni19'
_cell_volume   586.15278160
_cell_formula_units_Z   1
loop_
 _symmetry_equiv_pos_site_id
 _symmetry_equiv_pos_as_xyz
  1  'x, y, z'
loop_
 _atom_site_type_symbol
 _atom_site_label
 _atom_site_symmetry_multiplicity
 _atom_site_fract_x
 _atom_site_fract_y
 _atom_site_fract_z
 _atom_site_occupancy
  Ni  Ni0  1  0.00517865  0.00277261  0.00216343  1
  Ni  Ni1  1  0.16646229  0.16616114  0.16599319  1
  Fe  Fe2  1  0.00134551  0.00103567  0.33468821  1
  Ni  Ni3  1  0.00200259  0.33204052  0.00159732  1
  Cr  Cr4  1  0.16759102  0.49930928  0.16683212  1
  Fe  Fe5  1  0.00087547  0.33256840  0.33584164  1
  Ni  Ni6  1  0.00342155  0.66743657  1.00017241  1
  Fe  Fe7  1  0.16733021  0.83605309  0.16595082  1
  Fe  Fe8  1  0.00085537  0.66864219  0.33669965  1
  Ni  Ni9  1  0.32975712  1.00050450  0.00126496  1
  Cr  Cr10  1  0.49869398  0.16846514  0.16789931  1
  Fe  Fe11  1  0.33297964  0.00191669  0.33557889  1
  Fe  Fe12  1  0.33321159  0.33442808  1.00012421  1
  Ni  Ni13  1  0.50105529  0.49938864  0.16409995  1
  Fe  Fe14  1  0.33451215  0.33275457  0.33554085  1
  Ni  Ni15  1  0.33408348  0.66713654  1.00061317  1
  Cr  Cr16  1  0.49956061  0.83353509  0.16630332  1
  Cr  Cr17  1  0.33348599  0.66760262  0.33548676  1
  Cr  Cr18  1  0.66786479  0.00202030  1.00063858  1
  Fe  Fe19  1  0.83628918  0.16832090  0.16757926  1
  Ni  Ni20  1  0.66844154  0.00320934  0.33742589  1
  Fe  Fe21  1  0.66639743  0.33628912  1.00056845  1
  Cr  Cr22  1  0.83350589  0.50017619  0.16556552  1
  Fe  Fe23  1  0.66685894  0.33324159  0.33591387  1
  Ni  Ni24  1  0.66474455  0.66396062  0.00138050  1
  Cr  Cr25  1  0.83577763  0.83428630  0.16566267  1
  Cr  Cr26  1  0.66639182  0.66667882  0.33601416  1
  Ni  Ni27  1  0.16724823  0.16864970  0.50052179  1
  Fe  Fe28  1  1.00021488  0.00090585  0.66586819  1
  Fe  Fe29  1  0.16733437  0.16782913  0.83535756  1
  Ni  Ni30  1  0.16556802  0.49816028  0.50145354  1
  Ni  Ni31  1  0.00083927  0.33358997  0.66513240  1
  Fe  Fe32  1  0.16724176  0.50028701  0.83500686  1
  Ni  Ni33  1  0.16526782  0.83543850  0.49967873  1
  Fe  Fe34  1  0.99980324  0.66651885  0.66542645  1
  Fe  Fe35  1  0.16592096  0.83413044  0.83620302  1
  Fe  Fe36  1  0.50135776  0.16791824  0.49995100  1
  Cr  Cr37  1  0.33320690  0.00129425  0.66620410  1
  Fe  Fe38  1  0.49985660  0.16984023  0.83418915  1
  Ni  Ni39  1  0.50190626  0.49903404  0.50194531  1
  Fe  Fe40  1  0.33434203  0.33482867  0.66657817  1
  Fe  Fe41  1  0.50109435  0.49942049  0.83481503  1
  Ni  Ni42  1  0.50337146  0.83573135  0.50070677  1
  Cr  Cr43  1  0.33413016  0.66631704  0.66591284  1
  Cr  Cr44  1  0.50122420  0.83372399  0.83545471  1
  Fe  Fe45  1  0.83435669  0.16769877  0.50120552  1
  Fe  Fe46  1  0.66836976  0.00116166  0.66466956  1
  Cr  Cr47  1  0.83530184  0.16789924  0.83409172  1
  Ni  Ni48  1  0.83477211  0.50101238  0.50214456  1
  Ni  Ni49  1  0.66797802  0.33478753  0.66547787  1
  Cr  Cr50  1  0.83466054  0.50179975  0.83465294  1
  Ni  Ni51  1  0.83360313  0.83405150  0.50290024  1
  Ni  Ni52  1  0.66772558  0.66594820  0.66447360  1
  Cr  Cr53  1  0.83508967  0.83254836  0.83283917  1
" 