4508,Ni35Fe26Cr37_10,-225.305369922285, 187.154600816806,Ni35Fe26Cr37,"# generated using pymatgen
 data_Cr21Fe14Ni19
_symmetry_space_group_name_H-M   'P 1'
_cell_length_a   7.47657969
_cell_length_b   7.47657969
_cell_length_c   10.57348040
_cell_angle_alpha   90.00000000
_cell_angle_beta   90.00000000
_cell_angle_gamma   90.00000000
_symmetry_Int_Tables_number   1
_chemical_formula_structural   Cr21Fe14Ni19
_chemical_formula_sum   'Cr21 Fe14 Ni19'
_cell_volume   591.04955902
_cell_formula_units_Z   1
loop_
 _symmetry_equiv_pos_site_id
 _symmetry_equiv_pos_as_xyz
  1  'x, y, z'
loop_
 _atom_site_type_symbol
 _atom_site_label
 _atom_site_symmetry_multiplicity
 _atom_site_fract_x
 _atom_site_fract_y
 _atom_site_fract_z
 _atom_site_occupancy
  Fe  Fe0  1  -0.00037089  0.99700601  0.99880202  1
  Cr  Cr1  1  0.16605130  0.16734730  0.16250783  1
  Cr  Cr2  1  0.99840013  0.00163688  0.33008158  1
  Ni  Ni3  1  0.99613237  0.33223783  0.00069299  1
  Cr  Cr4  1  0.16735651  0.49907127  0.16741296  1
  Cr  Cr5  1  0.99772847  0.33287824  0.33661598  1
  Cr  Cr6  1  0.99713103  0.66567717  0.99873461  1
  Fe  Fe7  1  0.16688777  0.83289360  0.16417189  1
  Cr  Cr8  1  0.99858889  0.66377164  0.33215295  1
  Ni  Ni9  1  0.33139398  0.99659983  0.99765892  1
  Cr  Cr10  1  0.49876875  0.16700739  0.16448975  1
  Cr  Cr11  1  0.33531243  0.99730332  0.33399812  1
  Fe  Fe12  1  0.33214335  0.33404750  0.99671364  1
  Cr  Cr13  1  0.49816642  0.50046890  0.16361360  1
  Fe  Fe14  1  0.33123893  0.33222304  0.33526024  1
  Ni  Ni15  1  0.33494786  0.66983338  0.00078522  1
  Ni  Ni16  1  0.50014341  0.83143193  0.16809949  1
  Fe  Fe17  1  0.33396257  0.66600079  0.33279321  1
  Cr  Cr18  1  0.66523637  0.99693256  0.00335002  1
  Ni  Ni19  1  0.83369853  0.16524694  0.16443322  1
  Fe  Fe20  1  0.66811961  0.99762834  0.33175406  1
  Fe  Fe21  1  0.66852742  0.33598056  0.99903579  1
  Ni  Ni22  1  0.83210090  0.50030996  0.16356733  1
  Cr  Cr23  1  0.67001874  0.33169774  0.33160952  1
  Ni  Ni24  1  0.66521593  0.66557160  0.99881681  1
  Ni  Ni25  1  0.83087870  0.83230769  0.16549768  1
  Fe  Fe26  1  0.66705202  0.66734980  0.33071933  1
  Ni  Ni27  1  0.16640364  0.16640941  0.50236537  1
  Ni  Ni28  1  0.99826680  -0.00030914  0.66800833  1
  Fe  Fe29  1  0.16485515  0.16535814  0.83281033  1
  Ni  Ni30  1  0.16699996  0.49898488  0.49855864  1
  Cr  Cr31  1  0.99912723  0.33466142  0.66172606  1
  Cr  Cr32  1  0.16642899  0.49883204  0.83341181  1
  Cr  Cr33  1  0.16361189  0.83205305  0.50162706  1
  Ni  Ni34  1  0.99791317  0.66556328  0.66688978  1
  Fe  Fe35  1  0.16417880  0.83382850  0.83242646  1
  Cr  Cr36  1  0.50039799  0.16501280  0.50118926  1
  Fe  Fe37  1  0.32952651  0.00099536  0.66696607  1
  Cr  Cr38  1  0.49820989  0.16837552  0.83203966  1
  Cr  Cr39  1  0.49975960  0.50076654  0.49927908  1
  Ni  Ni40  1  0.33305111  0.33256978  0.66557807  1
  Ni  Ni41  1  0.50026224  0.49938043  0.83457840  1
  Fe  Fe42  1  0.50095637  0.83188066  0.49949723  1
  Cr  Cr43  1  0.33242394  0.66510613  0.66624689  1
  Cr  Cr44  1  0.50174047  0.83252466  0.83060682  1
  Ni  Ni45  1  0.83273605  0.16404555  0.50040659  1
  Ni  Ni46  1  0.66592080  0.99914951  0.66315337  1
  Cr  Cr47  1  0.83322927  0.16419299  0.83313772  1
  Ni  Ni48  1  0.83240469  0.50138962  0.50172955  1
  Fe  Fe49  1  0.66717579  0.33448383  0.66630890  1
  Ni  Ni50  1  0.83095552  0.50141477  0.83263767  1
  Cr  Cr51  1  0.83136355  0.83269209  0.50183079  1
  Fe  Fe52  1  0.66868861  0.66381541  0.66860317  1
  Ni  Ni53  1  0.83415751  0.83193861  0.83059518  1
" 