6326,Ni35Fe41Cr23_7,-230.66395716633, 198.873723386265,Ni35Fe41Cr23,"# generated using pymatgen
 data_Cr13Fe22Ni19
_symmetry_space_group_name_H-M   'P 1'
_cell_length_a   7.44022310
_cell_length_b   7.44022310
_cell_length_c   10.52206441
_cell_angle_alpha   90.00000000
_cell_angle_beta   90.00000000
_cell_angle_gamma   90.00000000
_symmetry_Int_Tables_number   1
_chemical_formula_structural   Cr13Fe22Ni19
_chemical_formula_sum   'Cr13 Fe22 Ni19'
_cell_volume   582.46907527
_cell_formula_units_Z   1
loop_
 _symmetry_equiv_pos_site_id
 _symmetry_equiv_pos_as_xyz
  1  'x, y, z'
loop_
 _atom_site_type_symbol
 _atom_site_label
 _atom_site_symmetry_multiplicity
 _atom_site_fract_x
 _atom_site_fract_y
 _atom_site_fract_z
 _atom_site_occupancy
  Ni  Ni0  1  0.00409728  0.00220766  0.00362994  1
  Ni  Ni1  1  0.16804922  0.16643290  0.16701587  1
  Ni  Ni2  1  0.00290257  0.99970238  0.33457102  1
  Ni  Ni3  1  0.00471903  0.33240862  0.00240050  1
  Cr  Cr4  1  0.16966831  0.50247794  0.16827383  1
  Fe  Fe5  1  1.00015091  0.33396309  0.33526589  1
  Fe  Fe6  1  0.00243589  0.66846686  0.00253082  1
  Fe  Fe7  1  0.16867204  0.83698652  0.16854878  1
  Ni  Ni8  1  1.00109081  0.67135931  0.33620378  1
  Fe  Fe9  1  0.33608034  0.00389366  0.00183549  1
  Ni  Ni10  1  0.50192464  0.16717732  0.16935445  1
  Fe  Fe11  1  0.33558234  1.00014415  0.33511502  1
  Ni  Ni12  1  0.33482109  0.33286168  1.00073438  1
  Ni  Ni13  1  0.50063826  0.50207841  0.16849999  1
  Cr  Cr14  1  0.33541772  0.33285088  0.33513211  1
  Fe  Fe15  1  0.33570378  0.66868037  0.00259923  1
  Fe  Fe16  1  0.50098946  0.83568789  0.16905760  1
  Fe  Fe17  1  0.33600718  0.67155397  0.33471347  1
  Fe  Fe18  1  0.66678361  0.00299239  0.00275466  1
  Fe  Fe19  1  0.83576351  0.16690644  0.16931575  1
  Ni  Ni20  1  0.66831492  1.00027438  0.33328998  1
  Cr  Cr21  1  0.66583426  0.33542498  1.00135598  1
  Cr  Cr22  1  0.83532577  0.50133157  0.17109615  1
  Ni  Ni23  1  0.66725765  0.33518090  0.33372574  1
  Cr  Cr24  1  0.66725463  0.66994444  1.00104750  1
  Fe  Fe25  1  0.83577828  0.83768190  0.17017354  1
  Ni  Ni26  1  0.66935866  0.67003235  0.33544235  1
  Fe  Fe27  1  0.16975206  0.16627223  0.50142997  1
  Fe  Fe28  1  0.00271452  1.00019167  0.66661293  1
  Fe  Fe29  1  0.17143727  0.16699154  0.83663674  1
  Fe  Fe30  1  0.16636125  0.50390921  0.50201428  1
  Cr  Cr31  1  0.00436605  0.33613358  0.66765757  1
  Cr  Cr32  1  0.16963430  0.50146195  0.83666004  1
  Fe  Fe33  1  0.16750286  0.83510567  0.50203708  1
  Ni  Ni34  1  0.99996766  0.66949224  0.66698502  1
  Cr  Cr35  1  0.16929610  0.83525733  0.83509559  1
  Fe  Fe36  1  0.50144080  0.16501395  0.50208010  1
  Ni  Ni37  1  0.33590361  0.00336050  0.66781433  1
  Ni  Ni38  1  0.49996449  0.16714653  0.83390984  1
  Cr  Cr39  1  0.50105432  0.50273045  0.50170510  1
  Ni  Ni40  1  0.33467413  0.33191151  0.66977687  1
  Fe  Fe41  1  0.50061885  0.50284387  0.83452431  1
  Fe  Fe42  1  0.50360389  0.83701026  0.50258814  1
  Fe  Fe43  1  0.33644113  0.66946034  0.66807202  1
  Ni  Ni44  1  0.50143818  0.83642101  0.83357492  1
  Cr  Cr45  1  0.83344619  0.16558104  0.49921080  1
  Ni  Ni46  1  0.66476456  0.99826285  0.66868242  1
  Cr  Cr47  1  0.83518754  0.16654373  0.83641208  1
  Fe  Fe48  1  0.83587373  0.50541630  0.49997214  1
  Cr  Cr49  1  0.66610790  0.33662886  0.67030950  1
  Fe  Fe50  1  0.83505185  0.50349337  0.83516547  1
  Ni  Ni51  1  0.83571681  0.83479799  0.50241470  1
  Ni  Ni52  1  0.66969184  0.67087546  0.66873551  1
  Cr  Cr53  1  0.83471007  0.83632766  0.83358282  1
" 