7657,Ni35Fe41Cr23_0,-231.302848279983, 198.355707001128,Ni35Fe41Cr23,"# generated using pymatgen
 data_Cr13Fe22Ni19
_symmetry_space_group_name_H-M   'P 1'
_cell_length_a   7.45733315
_cell_length_b   7.45733315
_cell_length_c   10.54626168
_cell_angle_alpha   90.00000000
_cell_angle_beta   90.00000000
_cell_angle_gamma   90.00000000
_symmetry_Int_Tables_number   1
_chemical_formula_structural   Cr13Fe22Ni19
_chemical_formula_sum   'Cr13 Fe22 Ni19'
_cell_volume   586.49678252
_cell_formula_units_Z   1
loop_
 _symmetry_equiv_pos_site_id
 _symmetry_equiv_pos_as_xyz
  1  'x, y, z'
loop_
 _atom_site_type_symbol
 _atom_site_label
 _atom_site_symmetry_multiplicity
 _atom_site_fract_x
 _atom_site_fract_y
 _atom_site_fract_z
 _atom_site_occupancy
  Ni  Ni0  1  0.99937247  0.99991322  0.00085880  1
  Fe  Fe1  1  0.16484147  0.16803373  0.16666309  1
  Cr  Cr2  1  1.00060871  0.99811009  0.33508930  1
  Fe  Fe3  1  0.99783358  0.33519158  0.00253149  1
  Fe  Fe4  1  0.16641098  0.50373391  0.16806990  1
  Cr  Cr5  1  0.99908677  0.33411212  0.33355881  1
  Ni  Ni6  1  0.99767044  0.66775133  0.00175005  1
  Fe  Fe7  1  0.16482955  0.83023273  0.16646616  1
  Fe  Fe8  1  0.99916229  0.66733822  0.33364659  1
  Cr  Cr9  1  0.33388812  0.99890805  0.00264991  1
  Fe  Fe10  1  0.50274020  0.16968200  0.16892072  1
  Cr  Cr11  1  0.33291272  0.99981621  0.33440504  1
  Cr  Cr12  1  0.33441067  0.33670610  0.00231823  1
  Fe  Fe13  1  0.50331322  0.50331420  0.16888199  1
  Ni  Ni14  1  0.33572282  0.33486434  0.33407338  1
  Fe  Fe15  1  0.33635507  0.66798423  0.00140772  1
  Fe  Fe16  1  0.50295027  0.82879944  0.16788872  1
  Ni  Ni17  1  0.33517788  0.66664491  0.33306007  1
  Cr  Cr18  1  0.66939358  0.99779633  1.00063749  1
  Fe  Fe19  1  0.83417495  0.16792165  0.16739328  1
  Cr  Cr20  1  0.66845342  0.99971554  0.33323105  1
  Cr  Cr21  1  0.66863372  0.33786651  0.99976420  1
  Ni  Ni22  1  0.83366220  0.50318625  0.16886624  1
  Ni  Ni23  1  0.66621413  0.33630349  0.33533280  1
  Ni  Ni24  1  0.66919525  0.66656350  0.99903996  1
  Ni  Ni25  1  0.83424459  0.83103440  0.16707259  1
  Ni  Ni26  1  0.66741787  0.66587460  0.33508871  1
  Fe  Fe27  1  0.16732828  0.16614293  0.50311202  1
  Fe  Fe28  1  0.99769273  0.99783827  0.66575267  1
  Cr  Cr29  1  0.16512559  0.16790577  0.83195064  1
  Cr  Cr30  1  0.16839211  0.50185372  0.49984001  1
  Fe  Fe31  1  0.99748000  0.33649869  0.66588486  1
  Cr  Cr32  1  0.16568376  0.50158700  0.83551207  1
  Fe  Fe33  1  0.16734602  0.83283783  0.50280057  1
  Ni  Ni34  1  0.99822850  0.66792531  0.66568179  1
  Cr  Cr35  1  0.16604567  0.83273068  0.83336036  1
  Fe  Fe36  1  0.50231700  0.16832986  0.50169773  1
  Fe  Fe37  1  0.33542811  0.99669564  0.66513547  1
  Cr  Cr38  1  0.50155293  0.16606743  0.83019446  1
  Fe  Fe39  1  0.50308041  0.50279784  0.50086494  1
  Fe  Fe40  1  0.33572150  0.33738045  0.66579839  1
  Ni  Ni41  1  0.50205714  0.50325205  0.83290735  1
  Ni  Ni42  1  0.50137305  0.83256503  0.50094544  1
  Ni  Ni43  1  0.33619159  0.66780905  0.66848615  1
  Ni  Ni44  1  0.50328036  0.83131549  0.83406235  1
  Ni  Ni45  1  0.83263450  0.16754516  0.50214860  1
  Fe  Fe46  1  0.66855676  0.99623312  0.66588806  1
  Fe  Fe47  1  0.83442417  0.16686811  0.83170207  1
  Fe  Fe48  1  0.83087054  0.50261918  0.50109274  1
  Fe  Fe49  1  0.66874195  0.33752006  0.66633908  1
  Ni  Ni50  1  0.83404256  0.50258302  0.83277974  1
  Ni  Ni51  1  0.83218676  0.83299126  0.50035541  1
  Ni  Ni52  1  0.66753631  0.66746796  0.66848946  1
  Ni  Ni53  1  0.83317689  0.83241254  0.83372343  1
" 