6425,Ni35Fe16Cr47_10,-220.110537795123, 160.708354882383,Ni35Fe16Cr47,"# generated using pymatgen
 data_Cr27Fe8Ni19
_symmetry_space_group_name_H-M   'P 1'
_cell_length_a   7.50449470
_cell_length_b   7.50449470
_cell_length_c   10.61295818
_cell_angle_alpha   90.00000000
_cell_angle_beta   90.00000000
_cell_angle_gamma   90.00000000
_symmetry_Int_Tables_number   1
_chemical_formula_structural   Cr27Fe8Ni19
_chemical_formula_sum   'Cr27 Fe8 Ni19'
_cell_volume   597.69464209
_cell_formula_units_Z   1
loop_
 _symmetry_equiv_pos_site_id
 _symmetry_equiv_pos_as_xyz
  1  'x, y, z'
loop_
 _atom_site_type_symbol
 _atom_site_label
 _atom_site_symmetry_multiplicity
 _atom_site_fract_x
 _atom_site_fract_y
 _atom_site_fract_z
 _atom_site_occupancy
  Ni  Ni0  1  0.99711740  -0.00226429  0.99718141  1
  Cr  Cr1  1  0.16059488  0.16071961  0.16347720  1
  Ni  Ni2  1  -0.00106792  -0.00208205  0.32930366  1
  Ni  Ni3  1  -0.00074251  0.33042943  0.99706135  1
  Ni  Ni4  1  0.16448518  0.50060049  0.16010704  1
  Cr  Cr5  1  0.00042172  0.32994277  0.33147369  1
  Ni  Ni6  1  0.00062340  0.66374698  0.99703819  1
  Ni  Ni7  1  0.16366904  0.83031642  0.16179935  1
  Cr  Cr8  1  -0.00003406  0.66255549  0.33045153  1
  Fe  Fe9  1  0.32636038  0.99556199  0.99688515  1
  Cr  Cr10  1  0.49794286  0.16598426  0.16229320  1
  Fe  Fe11  1  0.32777952  0.99737122  0.33031316  1
  Cr  Cr12  1  0.32645528  0.33257343  0.99632771  1
  Ni  Ni13  1  0.49681024  0.50066907  0.16190259  1
  Cr  Cr14  1  0.32612324  0.33254174  0.33271694  1
  Ni  Ni15  1  0.32872851  0.66305845  0.00051826  1
  Ni  Ni16  1  0.49197234  0.83022630  0.16240059  1
  Cr  Cr17  1  0.32948577  0.66177907  0.32743127  1
  Cr  Cr18  1  0.66577585  0.99692659  -0.00231682  1
  Ni  Ni19  1  0.83324781  0.16253383  0.16141024  1
  Cr  Cr20  1  0.66668227  0.99563713  0.32741989  1
  Fe  Fe21  1  0.66696918  0.33251256  -0.00209932  1
  Cr  Cr22  1  0.83231346  0.49475225  0.16121296  1
  Cr  Cr23  1  0.66524519  0.33056238  0.32855779  1
  Cr  Cr24  1  0.66459204  0.66751541  0.99727612  1
  Fe  Fe25  1  0.83519520  0.83153378  0.16203911  1
  Cr  Cr26  1  0.66449137  0.66590265  0.33022419  1
  Ni  Ni27  1  0.16221612  0.16421592  0.50061003  1
  Fe  Fe28  1  -0.00130106  -0.00181265  0.66608333  1
  Ni  Ni29  1  0.16119367  0.16449399  0.82927563  1
  Ni  Ni30  1  0.16090298  0.49576049  0.50126325  1
  Ni  Ni31  1  0.00044893  0.33173221  0.66438156  1
  Fe  Fe32  1  0.16060005  0.49647247  0.83207980  1
  Cr  Cr33  1  0.16287734  0.83313957  0.49788475  1
  Ni  Ni34  1  -0.00220570  0.65939113  0.66606041  1
  Cr  Cr35  1  0.16148470  0.83111544  0.83248578  1
  Cr  Cr36  1  0.49482126  0.16466108  0.50032971  1
  Ni  Ni37  1  0.32643863  0.00197704  0.66497119  1
  Cr  Cr38  1  0.49451340  0.16609045  0.83004326  1
  Cr  Cr39  1  0.50024714  0.49575610  0.49870545  1
  Fe  Fe40  1  0.32712557  0.33035652  0.66476284  1
  Cr  Cr41  1  0.49935801  0.49627608  0.83152116  1
  Cr  Cr42  1  0.49427971  0.83191402  0.49790849  1
  Cr  Cr43  1  0.32687727  0.66260657  0.66455051  1
  Cr  Cr44  1  0.49337847  0.83049245  0.83068461  1
  Cr  Cr45  1  0.83337133  0.16600839  0.49708970  1
  Cr  Cr46  1  0.66494939  0.99720836  0.66661424  1
  Cr  Cr47  1  0.83376925  0.16747575  0.83266309  1
  Ni  Ni48  1  0.83443272  0.49584886  0.50161458  1
  Ni  Ni49  1  0.66846799  0.33152545  0.66561416  1
  Fe  Fe50  1  0.83610534  0.49805734  0.83086428  1
  Cr  Cr51  1  0.83536259  0.82876597  0.49858636  1
  Cr  Cr52  1  0.66828589  0.66518562  0.66473186  1
  Ni  Ni53  1  0.83603263  0.82894969  0.83148472  1
" 