7407,Ni35Fe26Cr37_6,-225.408014055706, 180.734177462338,Ni35Fe26Cr37,"# generated using pymatgen
 data_Cr21Fe14Ni19
_symmetry_space_group_name_H-M   'P 1'
_cell_length_a   7.47992286
_cell_length_b   7.47992286
_cell_length_c   10.57820836
_cell_angle_alpha   90.00000000
_cell_angle_beta   90.00000000
_cell_angle_gamma   90.00000000
_symmetry_Int_Tables_number   1
_chemical_formula_structural   Cr21Fe14Ni19
_chemical_formula_sum   'Cr21 Fe14 Ni19'
_cell_volume   591.84278216
_cell_formula_units_Z   1
loop_
 _symmetry_equiv_pos_site_id
 _symmetry_equiv_pos_as_xyz
  1  'x, y, z'
loop_
 _atom_site_type_symbol
 _atom_site_label
 _atom_site_symmetry_multiplicity
 _atom_site_fract_x
 _atom_site_fract_y
 _atom_site_fract_z
 _atom_site_occupancy
  Cr  Cr0  1  0.99913919  0.00011381  0.00153617  1
  Ni  Ni1  1  0.16914503  0.16484120  0.16801078  1
  Fe  Fe2  1  -0.00040509  0.99720360  0.33113781  1
  Cr  Cr3  1  0.99582351  0.33106522  0.99884491  1
  Cr  Cr4  1  0.16858699  0.49732384  0.16402641  1
  Cr  Cr5  1  0.99823389  0.33277919  0.33144120  1
  Cr  Cr6  1  0.99768067  0.66687108  0.00101207  1
  Fe  Fe7  1  0.16682285  0.83535498  0.16685805  1
  Cr  Cr8  1  0.99782368  0.66581134  0.33286918  1
  Cr  Cr9  1  0.33560986  0.99740969  -0.00001176  1
  Ni  Ni10  1  0.49834249  0.16561367  0.16792874  1
  Ni  Ni11  1  0.33578374  0.00054649  0.33165676  1
  Ni  Ni12  1  0.33532315  0.33042392  0.00095074  1
  Fe  Fe13  1  0.50097696  0.49731899  0.16711759  1
  Ni  Ni14  1  0.33388003  0.32983128  0.33328362  1
  Fe  Fe15  1  0.33256858  0.66690694  0.00006630  1
  Ni  Ni16  1  0.50184650  0.83444968  0.16596837  1
  Cr  Cr17  1  0.33502209  0.66905019  0.33093957  1
  Fe  Fe18  1  0.66656925  0.00154073  0.00249431  1
  Fe  Fe19  1  0.82943246  0.16443166  0.16762432  1
  Ni  Ni20  1  0.66271877  0.99752810  0.33174703  1
  Fe  Fe21  1  0.66499365  0.33002899  0.00102268  1
  Ni  Ni22  1  0.82826008  0.50058476  0.16756503  1
  Fe  Fe23  1  0.66274851  0.33157258  0.33169863  1
  Cr  Cr24  1  0.66372380  0.66747472  0.00176989  1
  Ni  Ni25  1  0.82970730  0.83323831  0.16898880  1
  Ni  Ni26  1  0.66596466  0.66887005  0.33188649  1
  Cr  Cr27  1  0.16909666  0.16526064  0.49708807  1
  Ni  Ni28  1  0.99878408  0.99610655  0.66540156  1
  Cr  Cr29  1  0.16604995  0.16444034  0.83132969  1
  Ni  Ni30  1  0.16875646  0.50162685  0.50210936  1
  Cr  Cr31  1  0.99620328  0.33143788  0.66624469  1
  Cr  Cr32  1  0.16852556  0.50141384  0.83151521  1
  Fe  Fe33  1  0.16542108  0.83208184  0.50009835  1
  Ni  Ni34  1  0.00172557  0.66922634  0.66413207  1
  Ni  Ni35  1  0.16586703  0.83153531  0.83195087  1
  Ni  Ni36  1  0.49916174  0.16414215  0.49778412  1
  Cr  Cr37  1  0.33562873  0.99657150  0.66404032  1
  Cr  Cr38  1  0.50140805  0.16544799  0.83147335  1
  Cr  Cr39  1  0.49778596  0.49753735  0.49775183  1
  Fe  Fe40  1  0.33341842  0.33373594  0.66365205  1
  Cr  Cr41  1  0.49768027  0.49893375  0.83349622  1
  Fe  Fe42  1  0.50120926  0.83326435  0.49695942  1
  Ni  Ni43  1  0.33385546  0.66922476  0.66666273  1
  Fe  Fe44  1  0.49864529  0.83176001  0.83275871  1
  Cr  Cr45  1  0.82963162  0.16036366  0.49738450  1
  Fe  Fe46  1  0.66678908  0.99802122  0.66331841  1
  Ni  Ni47  1  0.82844617  0.16207095  0.83227245  1
  Cr  Cr48  1  0.83123169  0.50358563  0.50004479  1
  Ni  Ni49  1  0.66419040  0.33028178  0.66546438  1
  Cr  Cr50  1  0.83012210  0.50047203  0.82954562  1
  Ni  Ni51  1  0.83169271  0.83292749  0.49907178  1
  Fe  Fe52  1  0.66411295  0.66865864  0.66367563  1
  Cr  Cr53  1  0.83176248  0.83521088  0.82986478  1
" 