394,Ni35Fe39Cr24_6,-229.732850126441, 195.651351855683,Ni35Fe39Cr24,"# generated using pymatgen
 data_Cr14Fe21Ni19
_symmetry_space_group_name_H-M   'P 1'
_cell_length_a   7.45051821
_cell_length_b   7.45051821
_cell_length_c   10.53662390
_cell_angle_alpha   90.00000000
_cell_angle_beta   90.00000000
_cell_angle_gamma   90.00000000
_symmetry_Int_Tables_number   1
_chemical_formula_structural   Cr14Fe21Ni19
_chemical_formula_sum   'Cr14 Fe21 Ni19'
_cell_volume   584.89032716
_cell_formula_units_Z   1
loop_
 _symmetry_equiv_pos_site_id
 _symmetry_equiv_pos_as_xyz
  1  'x, y, z'
loop_
 _atom_site_type_symbol
 _atom_site_label
 _atom_site_symmetry_multiplicity
 _atom_site_fract_x
 _atom_site_fract_y
 _atom_site_fract_z
 _atom_site_occupancy
  Cr  Cr0  1  1.00075395  0.00185705  0.00153411  1
  Cr  Cr1  1  0.16891041  0.16671528  0.16679570  1
  Fe  Fe2  1  0.99869821  0.99734479  0.33434789  1
  Ni  Ni3  1  0.00266291  0.33566042  0.99937772  1
  Fe  Fe4  1  0.16690627  0.50332801  0.16734145  1
  Cr  Cr5  1  0.00239696  0.33544707  0.33336638  1
  Cr  Cr6  1  0.00130108  0.66572679  0.00330113  1
  Ni  Ni7  1  0.17001379  0.83396456  0.16933223  1
  Ni  Ni8  1  0.00192558  0.66915801  0.33352355  1
  Ni  Ni9  1  0.33623457  0.00263244  0.99994713  1
  Fe  Fe10  1  0.50249808  0.16588544  0.16779350  1
  Fe  Fe11  1  0.33478640  0.99778010  0.33211586  1
  Ni  Ni12  1  0.33330433  0.33371124  1.00067428  1
  Cr  Cr13  1  0.50216402  0.50175301  0.16835578  1
  Fe  Fe14  1  0.33611799  0.33685953  0.33433006  1
  Fe  Fe15  1  0.33306078  0.66867710  0.00129368  1
  Ni  Ni16  1  0.49916045  0.83509781  0.16853587  1
  Ni  Ni17  1  0.33326649  0.66682679  0.33488087  1
  Cr  Cr18  1  0.66656412  1.00082201  0.00165015  1
  Ni  Ni19  1  0.83332893  0.16926623  0.16821561  1
  Ni  Ni20  1  0.66888916  1.00072614  0.33263998  1
  Fe  Fe21  1  0.66893597  0.33335781  1.00031115  1
  Ni  Ni22  1  0.83445118  0.50064675  0.16784619  1
  Fe  Fe23  1  0.66827008  0.33465394  0.33368120  1
  Cr  Cr24  1  0.66832461  0.66921390  1.00086337  1
  Ni  Ni25  1  0.83412591  0.83342486  0.17208790  1
  Ni  Ni26  1  0.66804131  0.67045294  0.33391265  1
  Cr  Cr27  1  0.16606894  0.16498935  0.50180915  1
  Ni  Ni28  1  1.00089667  1.00034643  0.66754732  1
  Ni  Ni29  1  0.16878539  0.16742943  0.83403697  1
  Fe  Fe30  1  0.16863595  0.50395701  0.50131606  1
  Fe  Fe31  1  0.99947231  0.33444112  0.66995071  1
  Ni  Ni32  1  0.16634386  0.50094890  0.83475548  1
  Fe  Fe33  1  0.16527743  0.83299707  0.50065447  1
  Ni  Ni34  1  0.00278963  0.66879836  0.66779670  1
  Fe  Fe35  1  0.16862717  0.83468288  0.83337570  1
  Cr  Cr36  1  0.50221974  0.16789062  0.49812406  1
  Fe  Fe37  1  0.33194064  0.99902859  0.67075642  1
  Ni  Ni38  1  0.49922121  0.16738964  0.83576443  1
  Fe  Fe39  1  0.50018888  0.50088538  0.49898005  1
  Cr  Cr40  1  0.33406501  0.33583504  0.66719663  1
  Fe  Fe41  1  0.49964023  0.49896914  0.83551631  1
  Cr  Cr42  1  0.49928043  0.83283565  0.49981419  1
  Fe  Fe43  1  0.33131188  0.66890321  0.66805482  1
  Fe  Fe44  1  0.49762232  0.83458548  0.83503779  1
  Ni  Ni45  1  0.83502867  0.16753868  0.50218932  1
  Cr  Cr46  1  0.66959220  0.00215422  0.66964232  1
  Fe  Fe47  1  0.83622355  0.17083035  0.83375840  1
  Cr  Cr48  1  0.83390706  0.50154222  0.50120293  1
  Fe  Fe49  1  0.67013611  0.33404032  0.66930094  1
  Ni  Ni50  1  0.83541746  0.49962695  0.83407343  1
  Fe  Fe51  1  0.83715851  0.83653745  0.49929041  1
  Cr  Cr52  1  0.66785108  0.66755926  0.66884338  1
  Fe  Fe53  1  0.83710522  0.83416828  0.83305727  1
" 