7873,Ni35Fe41Cr23_12,-230.76730636375, 199.562441439834,Ni35Fe41Cr23,"# generated using pymatgen
 data_Cr13Fe22Ni19
_symmetry_space_group_name_H-M   'P 1'
_cell_length_a   7.44744896
_cell_length_b   7.44744896
_cell_length_c   10.53228333
_cell_angle_alpha   90.00000000
_cell_angle_beta   90.00000000
_cell_angle_gamma   90.00000000
_symmetry_Int_Tables_number   1
_chemical_formula_structural   Cr13Fe22Ni19
_chemical_formula_sum   'Cr13 Fe22 Ni19'
_cell_volume   584.16778681
_cell_formula_units_Z   1
loop_
 _symmetry_equiv_pos_site_id
 _symmetry_equiv_pos_as_xyz
  1  'x, y, z'
loop_
 _atom_site_type_symbol
 _atom_site_label
 _atom_site_symmetry_multiplicity
 _atom_site_fract_x
 _atom_site_fract_y
 _atom_site_fract_z
 _atom_site_occupancy
  Fe  Fe0  1  0.99992567  0.00415254  0.00305644  1
  Fe  Fe1  1  0.16698280  0.16900479  0.16624933  1
  Fe  Fe2  1  0.00229795  0.99789890  0.33415064  1
  Ni  Ni3  1  1.00103405  0.33466269  0.99955577  1
  Ni  Ni4  1  0.16699805  0.50034891  0.16455726  1
  Cr  Cr5  1  0.99977592  0.33393083  0.33144345  1
  Fe  Fe6  1  1.00110410  0.66306330  0.00353236  1
  Ni  Ni7  1  0.16434663  0.83471848  0.17013664  1
  Fe  Fe8  1  0.99910620  0.66857778  0.33285243  1
  Cr  Cr9  1  0.33460174  0.99959957  1.00023222  1
  Cr  Cr10  1  0.50035568  0.17214613  0.16905993  1
  Fe  Fe11  1  0.33420486  0.00147357  0.33238880  1
  Ni  Ni12  1  0.33328225  0.33695345  1.00012545  1
  Ni  Ni13  1  0.50313141  0.50022497  0.16821635  1
  Ni  Ni14  1  0.33388702  0.33598836  0.33395585  1
  Fe  Fe15  1  0.33550748  0.66288870  0.00284815  1
  Ni  Ni16  1  0.50359912  0.83340279  0.16495759  1
  Cr  Cr17  1  0.33633304  0.66654452  0.32948615  1
  Fe  Fe18  1  0.66877600  0.00420917  0.00187784  1
  Fe  Fe19  1  0.83599641  0.16893825  0.16460852  1
  Cr  Cr20  1  0.67137626  1.00023175  0.33218109  1
  Ni  Ni21  1  0.67007323  0.33780284  1.00119156  1
  Ni  Ni22  1  0.83375047  0.50393551  0.16796509  1
  Fe  Fe23  1  0.66613918  0.33859589  0.33475349  1
  Ni  Ni24  1  0.66622562  0.66681175  0.00168429  1
  Ni  Ni25  1  0.83565057  0.83265369  0.16693209  1
  Ni  Ni26  1  0.66906500  0.66760982  0.33490317  1
  Cr  Cr27  1  0.17309244  0.16799010  0.50039993  1
  Cr  Cr28  1  1.00005831  0.00488416  0.66716773  1
  Ni  Ni29  1  0.17019260  0.17119356  0.83446357  1
  Cr  Cr30  1  0.16608764  0.50144897  0.50291177  1
  Fe  Fe31  1  0.99985541  0.33653259  0.67087083  1
  Ni  Ni32  1  0.16658574  0.49793992  0.83579732  1
  Fe  Fe33  1  0.16700557  0.83479072  0.49990910  1
  Fe  Fe34  1  0.99783666  0.66582761  0.66778530  1
  Cr  Cr35  1  0.16515725  0.83309781  0.83427923  1
  Ni  Ni36  1  0.50153957  0.17140095  0.50125548  1
  Fe  Fe37  1  0.33607755  0.00439952  0.67010656  1
  Ni  Ni38  1  0.50042642  0.17048162  0.83410436  1
  Fe  Fe39  1  0.50406497  0.49867005  0.50050942  1
  Fe  Fe40  1  0.33683189  0.33270604  0.67025537  1
  Ni  Ni41  1  0.50296715  0.49733233  0.83577943  1
  Cr  Cr42  1  0.50251896  0.83718643  0.50212571  1
  Cr  Cr43  1  0.33658189  0.66568112  0.67161785  1
  Fe  Fe44  1  0.50160309  0.83188376  0.83693707  1
  Fe  Fe45  1  0.83232205  0.16914580  0.50101529  1
  Cr  Cr46  1  0.66807802  0.00287559  0.67220117  1
  Fe  Fe47  1  0.83524451  0.17310035  0.83714275  1
  Fe  Fe48  1  0.83079458  0.50138660  0.50167686  1
  Fe  Fe49  1  0.66737568  0.33630516  0.66916480  1
  Ni  Ni50  1  0.83464070  0.50154632  0.83347978  1
  Ni  Ni51  1  0.83667821  0.83086755  0.50007922  1
  Fe  Fe52  1  0.67054717  0.66474599  0.66810775  1
  Cr  Cr53  1  0.83336227  0.83126344  0.83900735  1
" 