2006,Ni35Cr65_14,-225.896771238805, 140.528327050217,Ni35Cr65,"# generated using pymatgen
 data_CrNi2
_symmetry_space_group_name_H-M   'P 1'
_cell_length_a   7.49320563
_cell_length_b   7.49320563
_cell_length_c   10.59699303
_cell_angle_alpha   90.00000000
_cell_angle_beta   90.00000000
_cell_angle_gamma   90.00000000
_symmetry_Int_Tables_number   1
_chemical_formula_structural   CrNi2
_chemical_formula_sum   'Cr18 Ni36'
_cell_volume   595.00134912
_cell_formula_units_Z   18
loop_
 _symmetry_equiv_pos_site_id
 _symmetry_equiv_pos_as_xyz
  1  'x, y, z'
loop_
 _atom_site_type_symbol
 _atom_site_label
 _atom_site_symmetry_multiplicity
 _atom_site_fract_x
 _atom_site_fract_y
 _atom_site_fract_z
 _atom_site_occupancy
  Ni  Ni0  1  0.99789367  -0.00148337  -0.00117209  1
  Ni  Ni1  1  0.16305146  0.16486486  0.16425920  1
  Ni  Ni2  1  0.99770555  0.00008410  0.33073014  1
  Ni  Ni3  1  0.00061426  0.33073731  -0.00058942  1
  Ni  Ni4  1  0.16520181  0.49802261  0.16380218  1
  Ni  Ni5  1  -0.00028766  0.32866000  0.33070532  1
  Ni  Ni6  1  -0.00133197  0.66547451  0.99804087  1
  Ni  Ni7  1  0.16626079  0.83172594  0.16497406  1
  Cr  Cr8  1  0.00132406  0.66584723  0.33184955  1
  Cr  Cr9  1  0.33052113  -0.00066179  0.00144569  1
  Ni  Ni10  1  0.49832102  0.16147931  0.16495731  1
  Ni  Ni11  1  0.33316278  0.99669462  0.32990709  1
  Ni  Ni12  1  0.32891711  0.33203830  -0.00130074  1
  Cr  Cr13  1  0.49755156  0.50192817  0.16369095  1
  Cr  Cr14  1  0.33113340  0.33113832  0.33112544  1
  Ni  Ni15  1  0.33102221  0.66384829  0.00038229  1
  Ni  Ni16  1  0.49756226  0.83230935  0.16614111  1
  Ni  Ni17  1  0.33298406  0.66678521  0.33150640  1
  Ni  Ni18  1  0.66648926  0.99637455  0.00034709  1
  Ni  Ni19  1  0.83363409  0.16286987  0.16560114  1
  Ni  Ni20  1  0.66381719  0.99758389  0.33232292  1
  Cr  Cr21  1  0.66373313  0.33010330  0.99819496  1
  Cr  Cr22  1  0.83327887  0.49732104  0.16414443  1
  Cr  Cr23  1  0.66458741  0.32804570  0.33245255  1
  Ni  Ni24  1  0.66504316  0.66665155  0.99569461  1
  Cr  Cr25  1  0.82970870  0.83245377  0.16445630  1
  Ni  Ni26  1  0.66156534  0.66870634  0.33409282  1
  Cr  Cr27  1  0.16371745  0.16521581  0.50071433  1
  Ni  Ni28  1  0.99620065  -0.00063600  0.66527557  1
  Ni  Ni29  1  0.16377365  0.16606991  0.83057308  1
  Ni  Ni30  1  0.16793635  0.49700384  0.49855984  1
  Ni  Ni31  1  -0.00054668  0.33048759  0.66463485  1
  Cr  Cr32  1  0.16652773  0.49581861  0.83178378  1
  Cr  Cr33  1  0.16750398  0.83292804  0.49842055  1
  Cr  Cr34  1  0.99604912  0.66588306  0.66494838  1
  Cr  Cr35  1  0.16445566  0.83459870  0.83127480  1
  Ni  Ni36  1  0.49861414  0.16190211  0.49913435  1
  Ni  Ni37  1  0.33262875  -0.00092204  0.66384718  1
  Cr  Cr38  1  0.49454437  0.16495664  0.83054913  1
  Ni  Ni39  1  0.49587868  0.50112587  0.49978109  1
  Ni  Ni40  1  0.33140512  0.33234226  0.66453275  1
  Ni  Ni41  1  0.49797156  0.50021537  0.83142722  1
  Ni  Ni42  1  0.49970084  0.83173921  0.49784375  1
  Ni  Ni43  1  0.33462855  0.66339096  0.66261085  1
  Cr  Cr44  1  0.49978144  0.83030879  0.83109588  1
  Ni  Ni45  1  0.83191635  0.16136861  0.49755929  1
  Ni  Ni46  1  0.66581847  0.99585833  0.66214621  1
  Cr  Cr47  1  0.83456386  0.16277633  0.83160394  1
  Cr  Cr48  1  0.83208944  0.49754011  0.49669671  1
  Cr  Cr49  1  0.66409496  0.33265678  0.66374892  1
  Ni  Ni50  1  0.83109196  0.50025732  0.83293994  1
  Ni  Ni51  1  0.82798899  0.83530471  0.49892413  1
  Ni  Ni52  1  0.66348937  0.66670871  0.66513127  1
  Ni  Ni53  1  0.83045634  0.83124313  0.83222577  1
" 