4748,Ni35Fe16Cr47_13,-220.196888218208, 168.866832847323,Ni35Fe16Cr47,"# generated using pymatgen
 data_Cr27Fe8Ni19
_symmetry_space_group_name_H-M   'P 1'
_cell_length_a   7.50273087
_cell_length_b   7.50273087
_cell_length_c   10.61046376
_cell_angle_alpha   90.00000000
_cell_angle_beta   90.00000000
_cell_angle_gamma   90.00000000
_symmetry_Int_Tables_number   1
_chemical_formula_structural   Cr27Fe8Ni19
_chemical_formula_sum   'Cr27 Fe8 Ni19'
_cell_volume   597.27330311
_cell_formula_units_Z   1
loop_
 _symmetry_equiv_pos_site_id
 _symmetry_equiv_pos_as_xyz
  1  'x, y, z'
loop_
 _atom_site_type_symbol
 _atom_site_label
 _atom_site_symmetry_multiplicity
 _atom_site_fract_x
 _atom_site_fract_y
 _atom_site_fract_z
 _atom_site_occupancy
  Cr  Cr0  1  -0.00231348  -0.00202665  -0.00161193  1
  Cr  Cr1  1  0.16237591  0.16500659  0.16438665  1
  Ni  Ni2  1  0.99587073  0.99602105  0.32869739  1
  Ni  Ni3  1  -0.00173531  0.33099352  0.99388636  1
  Cr  Cr4  1  0.16642309  0.50028213  0.16130838  1
  Cr  Cr5  1  -0.00224307  0.33130078  0.33303752  1
  Ni  Ni6  1  0.99567140  0.66284707  -0.00045286  1
  Ni  Ni7  1  0.16167175  0.82947952  0.16512048  1
  Fe  Fe8  1  -0.00164888  0.66726134  0.32955676  1
  Cr  Cr9  1  0.32927920  -0.00027050  0.99524407  1
  Fe  Fe10  1  0.49863410  0.16457062  0.16440030  1
  Cr  Cr11  1  0.32913148  0.99624169  0.33244539  1
  Ni  Ni12  1  0.33029787  0.33077628  -0.00139914  1
  Ni  Ni13  1  0.49642142  0.49770803  0.16246696  1
  Cr  Cr14  1  0.33061720  0.33302198  0.32877620  1
  Ni  Ni15  1  0.33116157  0.66271219  0.00016203  1
  Cr  Cr16  1  0.49817712  0.82883495  0.16452129  1
  Ni  Ni17  1  0.33054635  0.66545096  0.33017979  1
  Cr  Cr18  1  0.66589243  0.99699911  -0.00127905  1
  Fe  Fe19  1  0.83115120  0.16257313  0.16472972  1
  Ni  Ni20  1  0.66723027  0.99687621  0.32825465  1
  Cr  Cr21  1  0.66465192  0.33065309  0.99720972  1
  Cr  Cr22  1  0.83161217  0.49871692  0.16257910  1
  Cr  Cr23  1  0.66461915  0.33187646  0.32962148  1
  Ni  Ni24  1  0.66604462  0.66259727  -0.00172255  1
  Ni  Ni25  1  0.83300310  0.83269907  0.16561567  1
  Cr  Cr26  1  0.66495815  0.66447468  0.33221207  1
  Fe  Fe27  1  0.16158260  0.16280441  0.49946808  1
  Ni  Ni28  1  -0.00008100  0.00042586  0.66518886  1
  Ni  Ni29  1  0.16258606  0.16545441  0.82839236  1
  Cr  Cr30  1  0.16270352  0.49942386  0.49721742  1
  Fe  Fe31  1  0.99607877  0.33119976  0.66610637  1
  Cr  Cr32  1  0.16309129  0.49827597  0.83445013  1
  Cr  Cr33  1  0.16420939  0.83180170  0.49859865  1
  Ni  Ni34  1  0.99679707  0.66237471  0.66368886  1
  Cr  Cr35  1  0.16435581  0.82969004  0.83042918  1
  Cr  Cr36  1  0.49863144  0.16140113  0.49765800  1
  Ni  Ni37  1  0.32761145  -0.00135998  0.66380606  1
  Fe  Fe38  1  0.49673364  0.16572740  0.83033260  1
  Cr  Cr39  1  0.49721332  0.49832494  0.49756464  1
  Cr  Cr40  1  0.32878866  0.32930435  0.66482233  1
  Cr  Cr41  1  0.49721390  0.49846751  0.83361333  1
  Fe  Fe42  1  0.49709063  0.83075050  0.49816811  1
  Ni  Ni43  1  0.32949952  0.66575421  0.66267242  1
  Cr  Cr44  1  0.49527836  0.82962774  0.82909709  1
  Cr  Cr45  1  0.83191587  0.16379996  0.49729799  1
  Cr  Cr46  1  0.66408995  -0.00206803  0.66641523  1
  Ni  Ni47  1  0.83355326  0.16767413  0.82982620  1
  Ni  Ni48  1  0.83264651  0.49645434  0.50098634  1
  Fe  Fe49  1  0.66757335  0.33106746  0.66581836  1
  Ni  Ni50  1  0.83226538  0.49432549  0.82993386  1
  Cr  Cr51  1  0.83298283  0.83281101  0.49584394  1
  Cr  Cr52  1  0.66652899  0.66123611  0.66358336  1
  Cr  Cr53  1  0.83314499  0.82916051  0.83266079  1
" 