6799,Ni35Fe47Cr17_5,-231.495952853252, 200.078535799166,Ni35Fe47Cr17,"# generated using pymatgen
 data_Cr11Fe25Ni18
_symmetry_space_group_name_H-M   'P 1'
_cell_length_a   7.43657777
_cell_length_b   7.43657777
_cell_length_c   10.51690914
_cell_angle_alpha   90.00000000
_cell_angle_beta   90.00000000
_cell_angle_gamma   90.00000000
_symmetry_Int_Tables_number   1
_chemical_formula_structural   Cr11Fe25Ni18
_chemical_formula_sum   'Cr11 Fe25 Ni18'
_cell_volume   581.61335518
_cell_formula_units_Z   1
loop_
 _symmetry_equiv_pos_site_id
 _symmetry_equiv_pos_as_xyz
  1  'x, y, z'
loop_
 _atom_site_type_symbol
 _atom_site_label
 _atom_site_symmetry_multiplicity
 _atom_site_fract_x
 _atom_site_fract_y
 _atom_site_fract_z
 _atom_site_occupancy
  Fe  Fe0  1  0.00256525  0.99969811  0.00292403  1
  Fe  Fe1  1  0.16674740  0.16721639  0.17052078  1
  Ni  Ni2  1  0.00378918  1.00118156  0.33467045  1
  Cr  Cr3  1  0.99908838  0.33461969  0.00242742  1
  Fe  Fe4  1  0.16828090  0.50326357  0.16897783  1
  Fe  Fe5  1  0.00301443  0.33756391  0.33342747  1
  Fe  Fe6  1  1.00188423  0.66935964  0.00324048  1
  Fe  Fe7  1  0.16868915  0.83533494  0.16708299  1
  Ni  Ni8  1  0.00222391  0.67037877  0.33356506  1
  Fe  Fe9  1  0.33243581  0.00306865  0.99965802  1
  Cr  Cr10  1  0.49843066  0.16819950  0.16796279  1
  Fe  Fe11  1  0.33544338  1.00159952  0.33861008  1
  Fe  Fe12  1  0.33448696  0.33741712  1.00076564  1
  Cr  Cr13  1  0.50048200  0.50386803  0.16850342  1
  Ni  Ni14  1  0.33263303  0.33306549  0.33712886  1
  Ni  Ni15  1  0.33355718  0.66951946  0.99879481  1
  Cr  Cr16  1  0.50399762  0.83489175  0.16742785  1
  Cr  Cr17  1  0.33437775  0.66814169  0.34027813  1
  Fe  Fe18  1  0.67187745  0.00306401  0.00271822  1
  Fe  Fe19  1  0.83549579  0.16448602  0.16895737  1
  Ni  Ni20  1  0.67018644  1.00095822  0.33663796  1
  Fe  Fe21  1  0.66687399  0.33680459  0.99947436  1
  Fe  Fe22  1  0.83532032  0.50550411  0.16973686  1
  Cr  Cr23  1  0.66820954  0.33573561  0.33364344  1
  Ni  Ni24  1  0.66989420  0.66671649  1.00114879  1
  Ni  Ni25  1  0.83736393  0.83395457  0.17064060  1
  Ni  Ni26  1  0.67188446  0.67006289  0.33872970  1
  Ni  Ni27  1  0.16929066  0.17081033  0.49978542  1
  Fe  Fe28  1  0.00292076  0.00582017  0.66885533  1
  Ni  Ni29  1  0.16760412  0.16951899  0.83540560  1
  Fe  Fe30  1  0.16775934  0.49939453  0.50182108  1
  Fe  Fe31  1  0.00279101  0.33486232  0.67009354  1
  Fe  Fe32  1  0.17070944  0.50089966  0.83574681  1
  Fe  Fe33  1  0.16629102  0.83794790  0.50252595  1
  Cr  Cr34  1  0.00445018  0.66909976  0.66986464  1
  Ni  Ni35  1  0.16739755  0.83540009  0.83748904  1
  Ni  Ni36  1  0.50049847  0.16742154  0.50117946  1
  Cr  Cr37  1  0.33465550  1.00190522  0.66816867  1
  Ni  Ni38  1  0.50204546  0.17180931  0.83707463  1
  Fe  Fe39  1  0.50380157  0.49825669  0.50416062  1
  Fe  Fe40  1  0.33583637  0.33509811  0.66791907  1
  Ni  Ni41  1  0.50100080  0.50082637  0.83454702  1
  Ni  Ni42  1  0.50409260  0.83367333  0.50159917  1
  Fe  Fe43  1  0.33730974  0.66671604  0.66852016  1
  Cr  Cr44  1  0.50247589  0.83353987  0.83766067  1
  Cr  Cr45  1  0.83823848  0.17070264  0.50210612  1
  Fe  Fe46  1  0.66787775  0.00431020  0.66723524  1
  Ni  Ni47  1  0.83597377  0.16883167  0.83467450  1
  Ni  Ni48  1  0.83747011  0.50471667  0.50119682  1
  Ni  Ni49  1  0.66884075  0.33446367  0.67138912  1
  Fe  Fe50  1  0.83303802  0.50016803  0.83374679  1
  Fe  Fe51  1  0.83607942  0.83642329  0.50042809  1
  Fe  Fe52  1  0.66706251  0.66609309  0.66617780  1
  Cr  Cr53  1  0.83588227  0.83624311  0.83360213  1
" 