1768,Ni35Fe47Cr17_9,-231.612091369741, 200.928845507955,Ni35Fe47Cr17,"# generated using pymatgen
 data_Cr11Fe25Ni18
_symmetry_space_group_name_H-M   'P 1'
_cell_length_a   7.44153463
_cell_length_b   7.44153463
_cell_length_c   10.52391920
_cell_angle_alpha   90.00000000
_cell_angle_beta   90.00000000
_cell_angle_gamma   90.00000000
_symmetry_Int_Tables_number   1
_chemical_formula_structural   Cr11Fe25Ni18
_chemical_formula_sum   'Cr11 Fe25 Ni18'
_cell_volume   582.77715554
_cell_formula_units_Z   1
loop_
 _symmetry_equiv_pos_site_id
 _symmetry_equiv_pos_as_xyz
  1  'x, y, z'
loop_
 _atom_site_type_symbol
 _atom_site_label
 _atom_site_symmetry_multiplicity
 _atom_site_fract_x
 _atom_site_fract_y
 _atom_site_fract_z
 _atom_site_occupancy
  Fe  Fe0  1  1.00015845  1.00041871  0.00256043  1
  Ni  Ni1  1  0.16829549  0.16944891  0.16834438  1
  Fe  Fe2  1  1.00154933  0.00287809  0.33453035  1
  Fe  Fe3  1  0.00434696  0.33573750  0.00184030  1
  Fe  Fe4  1  0.16986169  0.50069790  0.16800539  1
  Ni  Ni5  1  0.00185828  0.33431804  0.33481668  1
  Ni  Ni6  1  1.00121656  0.66840583  1.00023971  1
  Fe  Fe7  1  0.16890541  0.83528498  0.16846419  1
  Cr  Cr8  1  0.00262624  0.66820111  0.33663253  1
  Cr  Cr9  1  0.33720170  0.00300796  1.00133844  1
  Ni  Ni10  1  0.49961001  0.16622607  0.16980696  1
  Fe  Fe11  1  0.33469192  0.00225292  0.33302359  1
  Ni  Ni12  1  0.33198522  0.33396970  1.00115767  1
  Cr  Cr13  1  0.49932532  0.50368126  0.16928999  1
  Ni  Ni14  1  0.33510881  0.33467391  0.33563443  1
  Fe  Fe15  1  0.33436863  0.66818379  0.00208705  1
  Ni  Ni16  1  0.50308150  0.83578842  0.16790078  1
  Ni  Ni17  1  0.33428692  0.66826611  0.33511635  1
  Ni  Ni18  1  0.66825622  0.99907734  0.00233767  1
  Fe  Fe19  1  0.83510428  0.16554470  0.16943627  1
  Fe  Fe20  1  0.66889684  0.00242448  0.33388647  1
  Cr  Cr21  1  0.66802560  0.33309365  0.00178791  1
  Cr  Cr22  1  0.83598253  0.50242990  0.16696771  1
  Fe  Fe23  1  0.66832933  0.33411592  0.33667318  1
  Ni  Ni24  1  0.67154180  0.67283623  1.00046272  1
  Ni  Ni25  1  0.83320498  0.83740421  0.16693504  1
  Fe  Fe26  1  0.66771225  0.66860334  0.33528515  1
  Cr  Cr27  1  0.16697903  0.16946160  0.50148877  1
  Fe  Fe28  1  1.00103548  1.00014749  0.66805259  1
  Fe  Fe29  1  0.16793572  0.17058430  0.83553732  1
  Ni  Ni30  1  0.16957963  0.50113433  0.50199730  1
  Fe  Fe31  1  1.00145138  0.33672036  0.66763318  1
  Ni  Ni32  1  0.16824008  0.50086863  0.83622209  1
  Fe  Fe33  1  0.16598370  0.83304564  0.50163608  1
  Fe  Fe34  1  1.00127202  0.66827271  0.66876518  1
  Fe  Fe35  1  0.16591199  0.83259459  0.83504617  1
  Fe  Fe36  1  0.50381701  0.17168299  0.49994689  1
  Cr  Cr37  1  0.33473022  0.00230234  0.66992273  1
  Fe  Fe38  1  0.50081583  0.16889554  0.83588494  1
  Fe  Fe39  1  0.50197914  0.50033092  0.50126671  1
  Fe  Fe40  1  0.33480497  0.33652232  0.66857245  1
  Cr  Cr41  1  0.50078076  0.50328414  0.83485493  1
  Cr  Cr42  1  0.50192024  0.83274418  0.49946465  1
  Fe  Fe43  1  0.33339903  0.66688655  0.66779657  1
  Fe  Fe44  1  0.50348830  0.83363759  0.83636526  1
  Ni  Ni45  1  0.83551615  0.16897707  0.49999365  1
  Cr  Cr46  1  0.66903238  0.00230840  0.66947980  1
  Cr  Cr47  1  0.83720270  0.16730751  0.83636261  1
  Ni  Ni48  1  0.83443661  0.50091260  0.50365594  1
  Fe  Fe49  1  0.66888833  0.33628746  0.66693305  1
  Ni  Ni50  1  0.83712435  0.50454816  0.83406373  1
  Ni  Ni51  1  0.83527814  0.83525475  0.50214651  1
  Fe  Fe52  1  0.67047216  0.66730678  0.66885461  1
  Ni  Ni53  1  0.83496072  0.83357844  0.83606327  1
" 