5234,Ni35Fe47Cr17_7,-231.367178013114, 200.269308855078,Ni35Fe47Cr17,"# generated using pymatgen
 data_Cr11Fe25Ni18
_symmetry_space_group_name_H-M   'P 1'
_cell_length_a   7.43759596
_cell_length_b   7.43759596
_cell_length_c   10.51834908
_cell_angle_alpha   90.00000000
_cell_angle_beta   90.00000000
_cell_angle_gamma   90.00000000
_symmetry_Int_Tables_number   1
_chemical_formula_structural   Cr11Fe25Ni18
_chemical_formula_sum   'Cr11 Fe25 Ni18'
_cell_volume   581.85228459
_cell_formula_units_Z   1
loop_
 _symmetry_equiv_pos_site_id
 _symmetry_equiv_pos_as_xyz
  1  'x, y, z'
loop_
 _atom_site_type_symbol
 _atom_site_label
 _atom_site_symmetry_multiplicity
 _atom_site_fract_x
 _atom_site_fract_y
 _atom_site_fract_z
 _atom_site_occupancy
  Fe  Fe0  1  1.00065092  1.00125586  0.00303970  1
  Fe  Fe1  1  0.16935541  0.16721278  0.16721650  1
  Cr  Cr2  1  0.00278387  1.00193987  0.33610481  1
  Fe  Fe3  1  0.00228077  0.33393058  1.00040506  1
  Cr  Cr4  1  0.16869525  0.50143269  0.16769812  1
  Fe  Fe5  1  1.00046179  0.33553859  0.33745680  1
  Fe  Fe6  1  1.00136780  0.67075743  1.00063259  1
  Fe  Fe7  1  0.16907076  0.83615121  0.16891528  1
  Ni  Ni8  1  0.00311882  0.66850466  0.33627898  1
  Ni  Ni9  1  0.33600150  0.00292778  0.00431342  1
  Ni  Ni10  1  0.50033652  0.16742756  0.16720819  1
  Fe  Fe11  1  0.33539067  1.00035450  0.33558599  1
  Fe  Fe12  1  0.33566850  0.33248441  0.00344789  1
  Ni  Ni13  1  0.50181380  0.50186811  0.17109220  1
  Cr  Cr14  1  0.33671490  0.33515778  0.33539510  1
  Cr  Cr15  1  0.33399457  0.66971670  1.00157301  1
  Fe  Fe16  1  0.50150260  0.83595558  0.16897531  1
  Ni  Ni17  1  0.33500228  0.66955819  0.33606636  1
  Ni  Ni18  1  0.66860444  0.00319574  1.00158238  1
  Fe  Fe19  1  0.83456682  0.16812489  0.16796372  1
  Cr  Cr20  1  0.66772521  0.00319897  0.33406890  1
  Cr  Cr21  1  0.66881787  0.33209699  1.00134385  1
  Cr  Cr22  1  0.83472532  0.50288643  0.17126384  1
  Ni  Ni23  1  0.66908059  0.33585815  0.33627589  1
  Cr  Cr24  1  0.66971448  0.67134540  0.00320900  1
  Ni  Ni25  1  0.83573283  0.83581681  0.16742377  1
  Fe  Fe26  1  0.66763138  0.66759588  0.33592713  1
  Ni  Ni27  1  0.16835910  0.16790713  0.50159308  1
  Fe  Fe28  1  1.00060827  0.99991629  0.66740546  1
  Cr  Cr29  1  0.16912980  0.16763293  0.83682755  1
  Fe  Fe30  1  0.16831325  0.50356017  0.50149192  1
  Cr  Cr31  1  1.00114468  0.33668713  0.66699574  1
  Fe  Fe32  1  0.16632793  0.50356543  0.83534184  1
  Fe  Fe33  1  0.16936062  0.83513845  0.50252933  1
  Ni  Ni34  1  1.00195586  0.66882517  0.66996854  1
  Fe  Fe35  1  0.16795219  0.83458590  0.83450029  1
  Fe  Fe36  1  0.50216670  0.16787893  0.50309773  1
  Ni  Ni37  1  0.33736761  1.00150493  0.66715441  1
  Fe  Fe38  1  0.50357306  0.16555842  0.83528541  1
  Fe  Fe39  1  0.50287824  0.50234669  0.50189861  1
  Fe  Fe40  1  0.33671613  0.33507933  0.66689738  1
  Cr  Cr41  1  0.50195594  0.50265438  0.83315428  1
  Ni  Ni42  1  0.50073825  0.83376879  0.50170986  1
  Fe  Fe43  1  0.33555603  0.67063679  0.66768949  1
  Ni  Ni44  1  0.50209775  0.83754274  0.83465263  1
  Ni  Ni45  1  0.83623133  0.17005354  0.50202487  1
  Ni  Ni46  1  0.66732919  0.00205192  0.67014443  1
  Ni  Ni47  1  0.83499797  0.16748009  0.83613656  1
  Fe  Fe48  1  0.83475046  0.50258852  0.50160278  1
  Fe  Fe49  1  0.66884705  0.33446181  0.66792730  1
  Ni  Ni50  1  0.83751486  0.50292534  0.83467042  1
  Fe  Fe51  1  0.83538800  0.83443035  0.50325778  1
  Ni  Ni52  1  0.66983164  0.67004554  0.66775777  1
  Fe  Fe53  1  0.83501391  0.83579528  0.83473632  1
" 