2166,Ni35Fe26Cr37_18,-224.965754316544, 179.3594247747,Ni35Fe26Cr37,"# generated using pymatgen
 data_Cr21Fe14Ni19
_symmetry_space_group_name_H-M   'P 1'
_cell_length_a   7.47777543
_cell_length_b   7.47777543
_cell_length_c   10.57517143
_cell_angle_alpha   90.00000000
_cell_angle_beta   90.00000000
_cell_angle_gamma   90.00000000
_symmetry_Int_Tables_number   1
_chemical_formula_structural   Cr21Fe14Ni19
_chemical_formula_sum   'Cr21 Fe14 Ni19'
_cell_volume   591.33318623
_cell_formula_units_Z   1
loop_
 _symmetry_equiv_pos_site_id
 _symmetry_equiv_pos_as_xyz
  1  'x, y, z'
loop_
 _atom_site_type_symbol
 _atom_site_label
 _atom_site_symmetry_multiplicity
 _atom_site_fract_x
 _atom_site_fract_y
 _atom_site_fract_z
 _atom_site_occupancy
  Cr  Cr0  1  0.99800611  0.99419274  0.99765665  1
  Cr  Cr1  1  0.16310132  0.16438716  0.16820060  1
  Ni  Ni2  1  0.99873160  0.99373385  0.33445860  1
  Cr  Cr3  1  0.99730913  0.33571909  0.99697883  1
  Ni  Ni4  1  0.16421434  0.50245480  0.16650370  1
  Fe  Fe5  1  0.00061371  0.33411759  0.33205535  1
  Ni  Ni6  1  0.99553654  0.66622127  0.00171089  1
  Ni  Ni7  1  0.16394050  0.83043139  0.16664079  1
  Ni  Ni8  1  0.99653971  0.66971403  0.32911202  1
  Cr  Cr9  1  0.33332287  0.00102785  0.99839443  1
  Fe  Fe10  1  0.50116421  0.16708811  0.16547097  1
  Cr  Cr11  1  0.33092359  -0.00029036  0.33458009  1
  Cr  Cr12  1  0.33520906  0.33123904  0.00157770  1
  Ni  Ni13  1  0.50163972  0.49976406  0.16599194  1
  Cr  Cr14  1  0.33422821  0.33230876  0.33267995  1
  Cr  Cr15  1  0.32947252  0.66616385  0.00126768  1
  Cr  Cr16  1  0.50128511  0.83343575  0.16582985  1
  Cr  Cr17  1  0.33121347  0.66590358  0.33315535  1
  Fe  Fe18  1  0.66721321  0.00012256  0.99623403  1
  Cr  Cr19  1  0.83093074  0.16355227  0.16761574  1
  Fe  Fe20  1  0.66745025  0.99583529  0.33455316  1
  Fe  Fe21  1  0.66761554  0.33232728  0.99914468  1
  Ni  Ni22  1  0.83226064  0.49994262  0.16677942  1
  Cr  Cr23  1  0.66360816  0.33485604  0.33247292  1
  Cr  Cr24  1  0.67218541  0.66539782  0.99902490  1
  Fe  Fe25  1  0.83533211  0.82966211  0.16799704  1
  Fe  Fe26  1  0.66758504  0.66775144  0.33313965  1
  Ni  Ni27  1  0.16485053  0.16189796  0.50041634  1
  Fe  Fe28  1  0.99765091  0.99761669  0.66552107  1
  Ni  Ni29  1  0.16442741  0.16394419  0.82891539  1
  Cr  Cr30  1  0.16499513  0.50022867  0.50110398  1
  Fe  Fe31  1  0.99790959  0.33031819  0.66822533  1
  Cr  Cr32  1  0.16443633  0.50049961  0.83065926  1
  Ni  Ni33  1  0.16461439  0.83508594  0.50100228  1
  Ni  Ni34  1  0.99521648  0.66933569  0.66712407  1
  Cr  Cr35  1  0.16708345  0.83237396  0.83071615  1
  Fe  Fe36  1  0.49941080  0.16291552  0.50088191  1
  Ni  Ni37  1  0.33276503  -0.00038631  0.66488945  1
  Fe  Fe38  1  0.50128550  0.16256685  0.83167002  1
  Ni  Ni39  1  0.50022804  0.50320858  0.49978938  1
  Cr  Cr40  1  0.33242408  0.32885779  0.66377305  1
  Cr  Cr41  1  0.50044966  0.50308417  0.83183703  1
  Fe  Fe42  1  0.50027731  0.83309165  0.50180539  1
  Fe  Fe43  1  0.33533064  0.67009447  0.66326254  1
  Fe  Fe44  1  0.50257165  0.83550057  0.82998783  1
  Cr  Cr45  1  0.83535592  0.16264855  0.49904807  1
  Ni  Ni46  1  0.66520925  0.99611910  0.66683723  1
  Ni  Ni47  1  0.83119762  0.16383825  0.83157799  1
  Cr  Cr48  1  0.83220953  0.50155776  0.49985977  1
  Cr  Cr49  1  0.66695197  0.33301478  0.66780073  1
  Ni  Ni50  1  0.83182519  0.50023327  0.83144946  1
  Ni  Ni51  1  0.83212540  0.83363491  0.49795467  1
  Ni  Ni52  1  0.66934210  0.66936239  0.66432706  1
  Ni  Ni53  1  0.83048835  0.83356189  0.83160270  1
" 