3348,Ni35Cr65_6,-225.9307568122, 139.475609947277,Ni35Cr65,"# generated using pymatgen
 data_CrNi2
_symmetry_space_group_name_H-M   'P 1'
_cell_length_a   7.49377843
_cell_length_b   7.49377843
_cell_length_c   10.59780309
_cell_angle_alpha   90.00000000
_cell_angle_beta   90.00000000
_cell_angle_gamma   90.00000000
_symmetry_Int_Tables_number   1
_chemical_formula_structural   CrNi2
_chemical_formula_sum   'Cr18 Ni36'
_cell_volume   595.13780933
_cell_formula_units_Z   18
loop_
 _symmetry_equiv_pos_site_id
 _symmetry_equiv_pos_as_xyz
  1  'x, y, z'
loop_
 _atom_site_type_symbol
 _atom_site_label
 _atom_site_symmetry_multiplicity
 _atom_site_fract_x
 _atom_site_fract_y
 _atom_site_fract_z
 _atom_site_occupancy
  Ni  Ni0  1  0.99740875  -0.00156385  0.99740597  1
  Cr  Cr1  1  0.16339926  0.16488315  0.16528140  1
  Cr  Cr2  1  0.99755859  0.99379785  0.33177630  1
  Ni  Ni3  1  0.99685954  0.33221287  0.99631117  1
  Ni  Ni4  1  0.16400349  0.50113386  0.16559712  1
  Ni  Ni5  1  0.99640477  0.33514567  0.32944623  1
  Cr  Cr6  1  -0.00093786  0.66506138  -0.00042904  1
  Ni  Ni7  1  0.16495621  0.82852181  0.16575503  1
  Ni  Ni8  1  0.99760410  0.66529031  0.33001423  1
  Cr  Cr9  1  0.33073253  0.99707460  0.99584568  1
  Cr  Cr10  1  0.50110921  0.16395377  0.16588273  1
  Ni  Ni11  1  0.33338114  0.99457070  0.33396975  1
  Cr  Cr12  1  0.33350560  0.33516092  0.99714076  1
  Ni  Ni13  1  0.49911101  0.50004097  0.16578778  1
  Cr  Cr14  1  0.33459057  0.33260803  0.33118459  1
  Ni  Ni15  1  0.33072349  0.66371361  0.99714502  1
  Cr  Cr16  1  0.49800767  0.83060978  0.16484846  1
  Ni  Ni17  1  0.33202074  0.66605512  0.33110013  1
  Ni  Ni18  1  0.66686058  -0.00036046  0.99630305  1
  Cr  Cr19  1  0.83048998  0.16542189  0.16323908  1
  Ni  Ni20  1  0.66358408  0.99623142  0.33326686  1
  Ni  Ni21  1  0.66609407  0.33212210  0.99671445  1
  Ni  Ni22  1  0.83152399  0.49789193  0.16663128  1
  Ni  Ni23  1  0.66436123  0.33363693  0.33146178  1
  Cr  Cr24  1  0.66367883  0.66238839  -0.00174214  1
  Ni  Ni25  1  0.83157427  0.83071096  0.16612308  1
  Ni  Ni26  1  0.66509772  0.66484294  0.33175819  1
  Cr  Cr27  1  0.16595940  0.16480931  0.49785890  1
  Cr  Cr28  1  -0.00131199  0.99783359  0.66548313  1
  Ni  Ni29  1  0.16323092  0.16490853  0.83149181  1
  Cr  Cr30  1  0.16510815  0.50050152  0.49780635  1
  Ni  Ni31  1  0.99663494  0.33144504  0.66921860  1
  Ni  Ni32  1  0.16498620  0.49858375  0.83167338  1
  Ni  Ni33  1  0.16857813  0.83010884  0.49718274  1
  Cr  Cr34  1  0.99764580  0.66562713  0.66536197  1
  Ni  Ni35  1  0.16855591  0.83114395  0.83164628  1
  Ni  Ni36  1  0.50034747  0.16269729  0.49791414  1
  Ni  Ni37  1  0.33414665  0.99633634  0.66508407  1
  Ni  Ni38  1  0.50108200  0.16368921  0.83063610  1
  Ni  Ni39  1  0.49985161  0.50078489  0.49801388  1
  Cr  Cr40  1  0.33412948  0.33093897  0.66628316  1
  Ni  Ni41  1  0.49899199  0.49973686  0.83079253  1
  Ni  Ni42  1  0.49805127  0.83103749  0.49865649  1
  Ni  Ni43  1  0.33423438  0.66687713  0.66623064  1
  Ni  Ni44  1  0.49626636  0.83128747  0.82987900  1
  Cr  Cr45  1  0.82933523  0.16672159  0.49878820  1
  Ni  Ni46  1  0.66177368  -0.00170778  0.66473995  1
  Ni  Ni47  1  0.83046241  0.16726284  0.83258103  1
  Cr  Cr48  1  0.83030113  0.49851931  0.49857465  1
  Ni  Ni49  1  0.66376208  0.33154156  0.66664197  1
  Ni  Ni50  1  0.83045404  0.49393485  0.83040322  1
  Ni  Ni51  1  0.82795470  0.83044241  0.49682593  1
  Ni  Ni52  1  0.66154588  0.66470146  0.66447819  1
  Cr  Cr53  1  0.82790776  0.83276895  0.83162389  1
" 