6104,Ni35Fe26Cr37_5,-224.871292471707, 179.852843255344,Ni35Fe26Cr37,"# generated using pymatgen
 data_Cr21Fe14Ni19
_symmetry_space_group_name_H-M   'P 1'
_cell_length_a   7.48359580
_cell_length_b   7.48359580
_cell_length_c   10.58340268
_cell_angle_alpha   90.00000000
_cell_angle_beta   90.00000000
_cell_angle_gamma   90.00000000
_symmetry_Int_Tables_number   1
_chemical_formula_structural   Cr21Fe14Ni19
_chemical_formula_sum   'Cr21 Fe14 Ni19'
_cell_volume   592.71506499
_cell_formula_units_Z   1
loop_
 _symmetry_equiv_pos_site_id
 _symmetry_equiv_pos_as_xyz
  1  'x, y, z'
loop_
 _atom_site_type_symbol
 _atom_site_label
 _atom_site_symmetry_multiplicity
 _atom_site_fract_x
 _atom_site_fract_y
 _atom_site_fract_z
 _atom_site_occupancy
  Fe  Fe0  1  0.99878313  0.00291699  -0.00107602  1
  Cr  Cr1  1  0.16752882  0.16775845  0.16672424  1
  Ni  Ni2  1  0.99628054  0.00130181  0.33218923  1
  Ni  Ni3  1  0.99812955  0.33057850  0.99818439  1
  Ni  Ni4  1  0.16386982  0.49947329  0.16464947  1
  Ni  Ni5  1  -0.00027358  0.33470143  0.33274715  1
  Fe  Fe6  1  0.99792621  0.66113623  0.00056724  1
  Cr  Cr7  1  0.16269534  0.82905829  0.16523172  1
  Fe  Fe8  1  0.99852971  0.66154943  0.33195739  1
  Fe  Fe9  1  0.33229016  0.00235441  0.99851823  1
  Ni  Ni10  1  0.50059840  0.16835339  0.16557555  1
  Cr  Cr11  1  0.33279673  0.00052864  0.33257692  1
  Ni  Ni12  1  0.33056892  0.33308383  0.00144804  1
  Fe  Fe13  1  0.49749511  0.49501031  0.16327488  1
  Ni  Ni14  1  0.32990728  0.33484054  0.33092439  1
  Ni  Ni15  1  0.33406055  0.66571259  -0.00080868  1
  Cr  Cr16  1  0.49850686  0.83544111  0.16308606  1
  Cr  Cr17  1  0.33417699  0.66180688  0.33361559  1
  Fe  Fe18  1  0.66570110  0.00140053  -0.00092973  1
  Cr  Cr19  1  0.82942473  0.16706788  0.16735192  1
  Ni  Ni20  1  0.66723750  0.99721192  0.33012312  1
  Ni  Ni21  1  0.66791478  0.33172714  0.00121575  1
  Ni  Ni22  1  0.83416857  0.49888728  0.16547230  1
  Fe  Fe23  1  0.66544331  0.33364159  0.33072458  1
  Fe  Fe24  1  0.66610953  0.66210861  0.00109689  1
  Fe  Fe25  1  0.83329166  0.83211502  0.16540724  1
  Cr  Cr26  1  0.66673182  0.66434963  0.33059938  1
  Fe  Fe27  1  0.16273881  0.16846524  0.49640187  1
  Fe  Fe28  1  0.99772318  -0.00064822  0.66630956  1
  Ni  Ni29  1  0.16422059  0.16365200  0.83441576  1
  Ni  Ni30  1  0.16481606  0.50035569  0.49821449  1
  Cr  Cr31  1  0.99874909  0.33055925  0.66724648  1
  Cr  Cr32  1  0.16648937  0.50076115  0.83397560  1
  Cr  Cr33  1  0.16403172  0.83057303  0.49885797  1
  Ni  Ni34  1  -0.00064917  0.66414853  0.66343217  1
  Cr  Cr35  1  0.16586844  0.82950126  0.83287815  1
  Cr  Cr36  1  0.50162081  0.16683504  0.49569124  1
  Cr  Cr37  1  0.33266583  0.99870396  0.66572601  1
  Cr  Cr38  1  0.50171640  0.16833687  0.83451159  1
  Fe  Fe39  1  0.49965506  0.49768374  0.49967209  1
  Cr  Cr40  1  0.32892138  0.33255750  0.66405337  1
  Cr  Cr41  1  0.49832732  0.49786733  0.83295533  1
  Fe  Fe42  1  0.50090780  0.83203320  0.49903853  1
  Ni  Ni43  1  0.33247037  0.66692513  0.66375823  1
  Fe  Fe44  1  0.49897939  0.83229038  0.83431069  1
  Cr  Cr45  1  0.82935979  0.16631106  0.49878341  1
  Ni  Ni46  1  0.66580924  0.99832333  0.66712741  1
  Ni  Ni47  1  0.83099333  0.16397431  0.83210499  1
  Ni  Ni48  1  0.83406372  0.49797705  0.49837934  1
  Ni  Ni49  1  0.66774558  0.33074866  0.66441967  1
  Cr  Cr50  1  0.83124777  0.49648649  0.83195618  1
  Cr  Cr51  1  0.83416582  0.83330660  0.49721252  1
  Cr  Cr52  1  0.66444623  0.66601615  0.66478679  1
  Cr  Cr53  1  0.83331845  0.83243547  0.83362921  1
" 