4035,Ni35Fe20Cr43_6,-222.907615478431, 177.915766359211,Ni35Fe20Cr43,"# generated using pymatgen
 data_Cr24Fe11Ni19
_symmetry_space_group_name_H-M   'P 1'
_cell_length_a   7.49161899
_cell_length_b   7.49161899
_cell_length_c   10.59474918
_cell_angle_alpha   90.00000000
_cell_angle_beta   90.00000000
_cell_angle_gamma   90.00000000
_symmetry_Int_Tables_number   1
_chemical_formula_structural   Cr24Fe11Ni19
_chemical_formula_sum   'Cr24 Fe11 Ni19'
_cell_volume   594.62346479
_cell_formula_units_Z   1
loop_
 _symmetry_equiv_pos_site_id
 _symmetry_equiv_pos_as_xyz
  1  'x, y, z'
loop_
 _atom_site_type_symbol
 _atom_site_label
 _atom_site_symmetry_multiplicity
 _atom_site_fract_x
 _atom_site_fract_y
 _atom_site_fract_z
 _atom_site_occupancy
  Fe  Fe0  1  -0.00012167  0.00125384  0.99758146  1
  Fe  Fe1  1  0.16539739  0.16422846  0.16512727  1
  Fe  Fe2  1  -0.00125015  0.99772347  0.33416911  1
  Ni  Ni3  1  0.99756740  0.33013921  -0.00148290  1
  Cr  Cr4  1  0.16679833  0.49688862  0.16561884  1
  Cr  Cr5  1  0.99708772  0.33073378  0.33174973  1
  Cr  Cr6  1  0.00489518  0.66376041  0.99457120  1
  Cr  Cr7  1  0.16552109  0.83490233  0.16648613  1
  Cr  Cr8  1  -0.00042018  0.66666410  0.33781004  1
  Cr  Cr9  1  0.33296097  0.99614197  0.99508035  1
  Ni  Ni10  1  0.49562691  0.16487518  0.16659321  1
  Fe  Fe11  1  0.33335359  0.99811662  0.33399970  1
  Cr  Cr12  1  0.33213421  0.33454767  -0.00135304  1
  Fe  Fe13  1  0.49716999  0.49985518  0.16638032  1
  Ni  Ni14  1  0.33318098  0.32963231  0.32852372  1
  Ni  Ni15  1  0.33239359  0.66571304  0.99626325  1
  Cr  Cr16  1  0.49949866  0.83003857  0.16632295  1
  Ni  Ni17  1  0.33221168  0.66618542  0.33209015  1
  Cr  Cr18  1  0.66375596  0.00121532  0.99551652  1
  Fe  Fe19  1  0.83328556  0.16376132  0.16342914  1
  Cr  Cr20  1  0.66584492  -0.00002092  0.33505994  1
  Cr  Cr21  1  0.66424897  0.32951383  -0.00070832  1
  Cr  Cr22  1  0.82900576  0.50116592  0.16407493  1
  Cr  Cr23  1  0.66416986  0.32969671  0.33157103  1
  Fe  Fe24  1  0.66067558  0.66320727  0.99647774  1
  Cr  Cr25  1  0.83083080  0.83217341  0.16224749  1
  Ni  Ni26  1  0.66361586  0.66686812  0.33266360  1
  Cr  Cr27  1  0.16885367  0.16601152  0.49830001  1
  Cr  Cr28  1  -0.00156672  0.99491336  0.66419675  1
  Cr  Cr29  1  0.16472279  0.16680142  0.82970049  1
  Cr  Cr30  1  0.16638550  0.49543626  0.50150698  1
  Ni  Ni31  1  0.99801652  0.33307174  0.66526160  1
  Ni  Ni32  1  0.16602189  0.49602925  0.83001957  1
  Ni  Ni33  1  0.16624966  0.83359440  0.49857192  1
  Ni  Ni34  1  0.99802910  0.66395020  0.66332904  1
  Fe  Fe35  1  0.16611541  0.83032008  0.82970285  1
  Ni  Ni36  1  0.49553862  0.16400339  0.49986569  1
  Ni  Ni37  1  0.33397430  0.99769803  0.66435712  1
  Fe  Fe38  1  0.49793771  0.16649396  0.82947013  1
  Cr  Cr39  1  0.49774096  0.49847572  0.49580338  1
  Ni  Ni40  1  0.33278216  0.33082749  0.66790391  1
  Ni  Ni41  1  0.49621613  0.50140456  0.83315183  1
  Ni  Ni42  1  0.49904449  0.83246947  0.49726421  1
  Cr  Cr43  1  0.32987794  0.66728402  0.66735225  1
  Ni  Ni44  1  0.49763177  0.82956026  0.83090057  1
  Fe  Fe45  1  0.83262214  0.16369463  0.50064647  1
  Cr  Cr46  1  0.66187603  0.99826520  0.66495506  1
  Ni  Ni47  1  0.83466863  0.16586082  0.83294246  1
  Fe  Fe48  1  0.83002022  0.50082302  0.50071568  1
  Cr  Cr49  1  0.66397238  0.33002886  0.66442233  1
  Cr  Cr50  1  0.83162522  0.49796321  0.82883445  1
  Ni  Ni51  1  0.83006599  0.82960366  0.49855705  1
  Ni  Ni52  1  0.66458131  0.66646805  0.66395308  1
  Cr  Cr53  1  0.82900129  0.83141033  0.83389563  1
" 