2393,Ni35Fe9Cr54_16,-217.667052173218, 153.106981048887,Ni35Fe9Cr54,"# generated using pymatgen
 data_Cr30Fe5Ni19
_symmetry_space_group_name_H-M   'P 1'
_cell_length_a   7.52404427
_cell_length_b   7.52404427
_cell_length_c   10.64060545
_cell_angle_alpha   90.00000000
_cell_angle_beta   90.00000000
_cell_angle_gamma   90.00000000
_symmetry_Int_Tables_number   1
_chemical_formula_structural   Cr30Fe5Ni19
_chemical_formula_sum   'Cr30 Fe5 Ni19'
_cell_volume   602.37789125
_cell_formula_units_Z   1
loop_
 _symmetry_equiv_pos_site_id
 _symmetry_equiv_pos_as_xyz
  1  'x, y, z'
loop_
 _atom_site_type_symbol
 _atom_site_label
 _atom_site_symmetry_multiplicity
 _atom_site_fract_x
 _atom_site_fract_y
 _atom_site_fract_z
 _atom_site_occupancy
  Cr  Cr0  1  0.99411875  -0.00348045  -0.00198786  1
  Cr  Cr1  1  0.16644599  0.16366694  0.16165705  1
  Cr  Cr2  1  -0.00263639  0.99557535  0.32976930  1
  Cr  Cr3  1  -0.00328481  0.32735326  -0.00336288  1
  Fe  Fe4  1  0.16236408  0.49729845  0.16331609  1
  Cr  Cr5  1  0.99464246  0.32792489  0.33100537  1
  Ni  Ni6  1  -0.00189806  0.66386734  -0.00098586  1
  Fe  Fe7  1  0.16293130  0.82766161  0.16462104  1
  Ni  Ni8  1  0.00076019  0.66234112  0.32971084  1
  Fe  Fe9  1  0.33136069  -0.00306097  0.99540880  1
  Cr  Cr10  1  0.49542696  0.16227837  0.16296377  1
  Ni  Ni11  1  0.32605344  0.99444651  0.32974114  1
  Ni  Ni12  1  0.33116346  0.32944373  0.99482050  1
  Cr  Cr13  1  0.49639733  0.49556258  0.16418194  1
  Cr  Cr14  1  0.32972606  0.33166174  0.33058330  1
  Cr  Cr15  1  0.32974368  0.66070605  -0.00302626  1
  Cr  Cr16  1  0.49488367  0.83116279  0.16404008  1
  Fe  Fe17  1  0.32678365  0.66322777  0.33160972  1
  Ni  Ni18  1  0.66267348  -0.00258459  0.99532232  1
  Ni  Ni19  1  0.82899186  0.16335512  0.16392571  1
  Cr  Cr20  1  0.66556865  0.00015496  0.32901677  1
  Cr  Cr21  1  0.66135644  0.32727256  0.99605968  1
  Cr  Cr22  1  0.83100030  0.49687227  0.16299955  1
  Ni  Ni23  1  0.66373971  0.33021170  0.33120914  1
  Ni  Ni24  1  0.66161841  0.66426737  0.99480610  1
  Cr  Cr25  1  0.82877777  0.82645274  0.16067677  1
  Cr  Cr26  1  0.66197920  0.66030793  0.33223740  1
  Ni  Ni27  1  0.16367863  0.16281598  0.49759592  1
  Cr  Cr28  1  0.99593475  -0.00113359  0.66034477  1
  Cr  Cr29  1  0.16541582  0.16351070  0.82777682  1
  Ni  Ni30  1  0.16046292  0.49531591  0.49417594  1
  Ni  Ni31  1  0.99582628  0.32835429  0.65931360  1
  Cr  Cr32  1  0.16072657  0.49415936  0.83103481  1
  Ni  Ni33  1  0.16411117  0.83072158  0.49294752  1
  Cr  Cr34  1  -0.00118247  0.66188204  0.66096165  1
  Cr  Cr35  1  0.16294910  0.83082928  0.82940309  1
  Cr  Cr36  1  0.49383384  0.16189173  0.49483952  1
  Ni  Ni37  1  0.33014246  -0.00229020  0.66208703  1
  Ni  Ni38  1  0.49649323  0.16211373  0.83144282  1
  Ni  Ni39  1  0.49664109  0.49481712  0.49381568  1
  Cr  Cr40  1  0.33042777  0.33212190  0.66391663  1
  Ni  Ni41  1  0.49654236  0.49405385  0.83206358  1
  Cr  Cr42  1  0.49464435  0.83254626  0.49601148  1
  Cr  Cr43  1  0.32963512  0.66188801  0.65914488  1
  Cr  Cr44  1  0.49687502  0.83259654  0.82861018  1
  Fe  Fe45  1  0.82973351  0.16530155  0.49689913  1
  Ni  Ni46  1  0.66166011  0.00002420  0.66463118  1
  Ni  Ni47  1  0.82741989  0.16242603  0.82777878  1
  Ni  Ni48  1  0.83137622  0.49436600  0.49492707  1
  Cr  Cr49  1  0.66286984  0.32957263  0.66225421  1
  Cr  Cr50  1  0.83122177  0.49675590  0.83062230  1
  Cr  Cr51  1  0.82938037  0.82739986  0.49793198  1
  Cr  Cr52  1  0.65941566  0.66080440  0.66349391  1
  Cr  Cr53  1  0.82854409  0.82867555  0.83112375  1
" 