8278,Ni35Fe16Cr47_6,-220.148946266774, 162.282349221673,Ni35Fe16Cr47,"# generated using pymatgen
 data_Cr27Fe8Ni19
_symmetry_space_group_name_H-M   'P 1'
_cell_length_a   7.50958761
_cell_length_b   7.50958761
_cell_length_c   10.62016065
_cell_angle_alpha   90.00000000
_cell_angle_beta   90.00000000
_cell_angle_gamma   90.00000000
_symmetry_Int_Tables_number   1
_chemical_formula_structural   Cr27Fe8Ni19
_chemical_formula_sum   'Cr27 Fe8 Ni19'
_cell_volume   598.91234268
_cell_formula_units_Z   1
loop_
 _symmetry_equiv_pos_site_id
 _symmetry_equiv_pos_as_xyz
  1  'x, y, z'
loop_
 _atom_site_type_symbol
 _atom_site_label
 _atom_site_symmetry_multiplicity
 _atom_site_fract_x
 _atom_site_fract_y
 _atom_site_fract_z
 _atom_site_occupancy
  Cr  Cr0  1  0.99623648  -0.00252831  0.99519299  1
  Cr  Cr1  1  0.16642161  0.16134459  0.16716789  1
  Cr  Cr2  1  0.99335962  -0.00239827  0.33095632  1
  Cr  Cr3  1  0.99408021  0.32786302  -0.00159541  1
  Cr  Cr4  1  0.16596171  0.49708418  0.16378751  1
  Cr  Cr5  1  -0.00249161  0.33049400  0.33061488  1
  Cr  Cr6  1  -0.00137334  0.66493593  -0.00166135  1
  Ni  Ni7  1  0.16687413  0.83175374  0.16203410  1
  Cr  Cr8  1  -0.00253929  0.66293183  0.33131833  1
  Ni  Ni9  1  0.33023935  0.99578146  0.99704879  1
  Cr  Cr10  1  0.49765542  0.16491605  0.16594513  1
  Fe  Fe11  1  0.33000210  -0.00261058  0.33318893  1
  Cr  Cr12  1  0.33304863  0.32915659  0.99323698  1
  Cr  Cr13  1  0.49929740  0.49667878  0.16248278  1
  Ni  Ni14  1  0.33262220  0.32907286  0.33646874  1
  Fe  Fe15  1  0.33307489  0.66426991  0.99532769  1
  Cr  Cr16  1  0.49478672  0.83117985  0.16415989  1
  Cr  Cr17  1  0.33078600  0.66072834  0.33294079  1
  Cr  Cr18  1  0.66364366  0.00150204  0.99498314  1
  Ni  Ni19  1  0.82843819  0.16614936  0.16410220  1
  Cr  Cr20  1  0.66296540  -0.00029084  0.33424555  1
  Ni  Ni21  1  0.66182792  0.33084728  0.99524501  1
  Cr  Cr22  1  0.82664261  0.49524705  0.16292661  1
  Fe  Fe23  1  0.66371458  0.33065983  0.33398494  1
  Ni  Ni24  1  0.66273284  0.66319579  0.99374746  1
  Cr  Cr25  1  0.82892502  0.82993528  0.16405132  1
  Cr  Cr26  1  0.66386610  0.66473294  0.33693822  1
  Fe  Fe27  1  0.16272626  0.16592635  0.49863949  1
  Fe  Fe28  1  0.99389242  -0.00021041  0.66283050  1
  Cr  Cr29  1  0.16374714  0.16294630  0.82473661  1
  Fe  Fe30  1  0.16370177  0.49342888  0.49911865  1
  Ni  Ni31  1  0.99628203  0.32892899  0.66085247  1
  Cr  Cr32  1  0.16434422  0.49587958  0.82834313  1
  Cr  Cr33  1  0.16390032  0.83318355  0.49834463  1
  Cr  Cr34  1  0.99551747  0.66387183  0.66219304  1
  Fe  Fe35  1  0.16407536  0.83174292  0.83024935  1
  Ni  Ni36  1  0.49584546  0.16677286  0.49647508  1
  Cr  Cr37  1  0.33447515  -0.00035041  0.66261388  1
  Ni  Ni38  1  0.49757107  0.16672341  0.82987372  1
  Fe  Fe39  1  0.50090423  0.49471952  0.50016900  1
  Ni  Ni40  1  0.33199556  0.32983127  0.66130753  1
  Ni  Ni41  1  0.49949152  0.49479389  0.82823689  1
  Ni  Ni42  1  0.49766009  0.83157856  0.49722430  1
  Cr  Cr43  1  0.33419233  0.66041071  0.66390649  1
  Cr  Cr44  1  0.49854025  0.82912905  0.83186053  1
  Ni  Ni45  1  0.82887548  0.16739422  0.49936896  1
  Cr  Cr46  1  0.66498970  -0.00215605  0.66358012  1
  Ni  Ni47  1  0.82855250  0.16502710  0.82737284  1
  Ni  Ni48  1  0.83009849  0.49477122  0.49952184  1
  Ni  Ni49  1  0.66300337  0.32973588  0.66303415  1
  Cr  Cr50  1  0.82728016  0.49640080  0.82951817  1
  Ni  Ni51  1  0.82854553  0.83001017  0.50015617  1
  Ni  Ni52  1  0.66495926  0.66296201  0.66120890  1
  Ni  Ni53  1  0.83108582  0.83096665  0.82747566  1
" 