8290,Ni35Fe39Cr24_15,-229.546474276066, 191.574200587972,Ni35Fe39Cr24,"# generated using pymatgen
 data_Cr14Fe21Ni19
_symmetry_space_group_name_H-M   'P 1'
_cell_length_a   7.45460193
_cell_length_b   7.45460193
_cell_length_c   10.54239915
_cell_angle_alpha   90.00000000
_cell_angle_beta   90.00000000
_cell_angle_gamma   90.00000000
_symmetry_Int_Tables_number   1
_chemical_formula_structural   Cr14Fe21Ni19
_chemical_formula_sum   'Cr14 Fe21 Ni19'
_cell_volume   585.85261148
_cell_formula_units_Z   1
loop_
 _symmetry_equiv_pos_site_id
 _symmetry_equiv_pos_as_xyz
  1  'x, y, z'
loop_
 _atom_site_type_symbol
 _atom_site_label
 _atom_site_symmetry_multiplicity
 _atom_site_fract_x
 _atom_site_fract_y
 _atom_site_fract_z
 _atom_site_occupancy
  Ni  Ni0  1  0.00194655  0.99758199  0.99931145  1
  Cr  Cr1  1  0.16636424  0.16677413  0.16962058  1
  Fe  Fe2  1  0.00208181  0.99972093  0.33469787  1
  Fe  Fe3  1  1.00022298  0.33300678  0.99980127  1
  Ni  Ni4  1  0.17007900  0.50184617  0.16746427  1
  Fe  Fe5  1  0.00165714  0.33653562  0.33488219  1
  Ni  Ni6  1  0.00159859  0.67031451  0.99910624  1
  Fe  Fe7  1  0.16894845  0.83223743  0.16624151  1
  Cr  Cr8  1  0.00317996  0.66869063  0.33563004  1
  Fe  Fe9  1  0.33387970  0.99882626  0.00091180  1
  Fe  Fe10  1  0.50175617  0.16852893  0.16942034  1
  Ni  Ni11  1  0.33413054  1.00001862  0.33287889  1
  Cr  Cr12  1  0.33595708  0.33165487  0.00128586  1
  Ni  Ni13  1  0.49929592  0.50187272  0.16845946  1
  Ni  Ni14  1  0.33477452  0.33510183  0.33405513  1
  Fe  Fe15  1  0.33364087  0.67010429  0.00186392  1
  Fe  Fe16  1  0.49862040  0.83440182  0.16774176  1
  Fe  Fe17  1  0.33539627  0.66770364  0.33457306  1
  Fe  Fe18  1  0.66728140  0.00141798  0.99898079  1
  Cr  Cr19  1  0.83313501  0.16701328  0.16941009  1
  Ni  Ni20  1  0.66488705  1.00019257  0.33419583  1
  Ni  Ni21  1  0.66587463  0.33294392  0.99987038  1
  Cr  Cr22  1  0.83416469  0.49972135  0.16435817  1
  Ni  Ni23  1  0.66396833  0.33488483  0.33419809  1
  Fe  Fe24  1  0.66742074  0.66842309  0.99938543  1
  Cr  Cr25  1  0.83281072  0.83617584  0.16690358  1
  Cr  Cr26  1  0.66811757  0.66711302  0.33710777  1
  Cr  Cr27  1  0.16792850  0.16720939  0.50101076  1
  Fe  Fe28  1  1.00077203  0.99932313  0.66932494  1
  Fe  Fe29  1  0.16675868  0.16497745  0.83332712  1
  Ni  Ni30  1  0.16823019  0.50170709  0.50151094  1
  Fe  Fe31  1  0.99950171  0.33513375  0.66750609  1
  Cr  Cr32  1  0.16640011  0.50210677  0.83358300  1
  Ni  Ni33  1  0.17018390  0.83370371  0.50103119  1
  Fe  Fe34  1  0.00153406  0.66837329  0.66747560  1
  Ni  Ni35  1  0.16832567  0.83598169  0.83449190  1
  Cr  Cr36  1  0.50062036  0.16508561  0.49979797  1
  Fe  Fe37  1  0.33558951  0.99874108  0.66807668  1
  Fe  Fe38  1  0.50110333  0.16492810  0.83337328  1
  Fe  Fe39  1  0.49713270  0.50078761  0.50023480  1
  Ni  Ni40  1  0.33155698  0.33307805  0.66724457  1
  Cr  Cr41  1  0.50086831  0.50405050  0.83316060  1
  Ni  Ni42  1  0.49926992  0.83490330  0.50055131  1
  Fe  Fe43  1  0.33407867  0.67012733  0.66650115  1
  Ni  Ni44  1  0.50049972  0.83711398  0.83541929  1
  Cr  Cr45  1  0.83374858  0.16646349  0.49770696  1
  Ni  Ni46  1  0.66815734  0.99891401  0.66889397  1
  Fe  Fe47  1  0.83441344  0.16582998  0.83547452  1
  Ni  Ni48  1  0.83606128  0.49931174  0.50082101  1
  Cr  Cr49  1  0.66604414  0.33359284  0.66755648  1
  Ni  Ni50  1  0.83495119  0.50065303  0.83709938  1
  Fe  Fe51  1  0.83563534  0.83600235  0.50197287  1
  Cr  Cr52  1  0.67050824  0.66938833  0.66552261  1
  Ni  Ni53  1  0.83401308  0.83478264  0.83405254  1
" 