3716,Ni35Fe26Cr37_17,-225.091993639509, 183.975347626684,Ni35Fe26Cr37,"# generated using pymatgen
 data_Cr21Fe14Ni19
_symmetry_space_group_name_H-M   'P 1'
_cell_length_a   7.47574128
_cell_length_b   7.47574128
_cell_length_c   10.57229470
_cell_angle_alpha   90.00000000
_cell_angle_beta   90.00000000
_cell_angle_gamma   90.00000000
_symmetry_Int_Tables_number   1
_chemical_formula_structural   Cr21Fe14Ni19
_chemical_formula_sum   'Cr21 Fe14 Ni19'
_cell_volume   590.85074343
_cell_formula_units_Z   1
loop_
 _symmetry_equiv_pos_site_id
 _symmetry_equiv_pos_as_xyz
  1  'x, y, z'
loop_
 _atom_site_type_symbol
 _atom_site_label
 _atom_site_symmetry_multiplicity
 _atom_site_fract_x
 _atom_site_fract_y
 _atom_site_fract_z
 _atom_site_occupancy
  Ni  Ni0  1  0.99938294  0.99836060  0.99783973  1
  Cr  Cr1  1  0.16637864  0.16515703  0.16801929  1
  Fe  Fe2  1  0.00072774  -0.00034876  0.33502312  1
  Cr  Cr3  1  0.99921070  0.33455966  0.99673065  1
  Cr  Cr4  1  0.16692776  0.49733576  0.16797427  1
  Ni  Ni5  1  0.99675175  0.33379455  0.33488552  1
  Cr  Cr6  1  0.99750760  0.66602964  0.00076559  1
  Ni  Ni7  1  0.16592396  0.83462214  0.16907038  1
  Ni  Ni8  1  0.00303999  0.66611361  0.33034889  1
  Cr  Cr9  1  0.33198811  0.00309809  0.00076084  1
  Fe  Fe10  1  0.49941633  0.16700743  0.17010709  1
  Fe  Fe11  1  0.33178940  -0.00049015  0.33574890  1
  Ni  Ni12  1  0.33376280  0.33012994  0.99828185  1
  Cr  Cr13  1  0.50023433  0.49793892  0.16804484  1
  Fe  Fe14  1  0.33397350  0.33139586  0.33534420  1
  Cr  Cr15  1  0.32866771  0.66529959  0.99761346  1
  Cr  Cr16  1  0.49961056  0.83227007  0.16742377  1
  Ni  Ni17  1  0.33033548  0.67005657  0.33687090  1
  Cr  Cr18  1  0.66698947  0.00151763  0.99685085  1
  Cr  Cr19  1  0.83424065  0.16608863  0.17014369  1
  Ni  Ni20  1  0.66226238  0.00325825  0.33564171  1
  Cr  Cr21  1  0.66628953  0.33178658  0.99872499  1
  Ni  Ni22  1  0.83022582  0.49942527  0.16857914  1
  Ni  Ni23  1  0.66624164  0.32929084  0.33443010  1
  Fe  Fe24  1  0.66897575  0.66468368  0.99825166  1
  Cr  Cr25  1  0.83355183  0.83313192  0.16734054  1
  Fe  Fe26  1  0.66659187  0.66440411  0.33382331  1
  Ni  Ni27  1  0.16448384  0.16444782  0.49731469  1
  Fe  Fe28  1  0.99726211  0.00157341  0.66605545  1
  Ni  Ni29  1  0.16315086  0.16904476  0.83339513  1
  Cr  Cr30  1  0.16636631  0.49922074  0.50025733  1
  Fe  Fe31  1  0.99716629  0.33011137  0.66623850  1
  Ni  Ni32  1  0.16569774  0.49512180  0.83042554  1
  Ni  Ni33  1  0.16640928  0.83344029  0.49887145  1
  Ni  Ni34  1  0.00172884  0.66601460  0.66820087  1
  Cr  Cr35  1  0.16301943  0.83432856  0.83099967  1
  Ni  Ni36  1  0.50176620  0.16658156  0.49758996  1
  Cr  Cr37  1  0.33378639  -0.00030018  0.66289114  1
  Fe  Fe38  1  0.49871779  0.16660693  0.83031321  1
  Fe  Fe39  1  0.49968209  0.49693514  0.49738590  1
  Cr  Cr40  1  0.33279067  0.33067799  0.66535758  1
  Cr  Cr41  1  0.49798919  0.49829502  0.83216229  1
  Fe  Fe42  1  0.49867764  0.83552503  0.49744624  1
  Fe  Fe43  1  0.33186274  0.66631452  0.66390374  1
  Cr  Cr44  1  0.50329364  0.83252572  0.83115816  1
  Ni  Ni45  1  0.83143123  0.16547700  0.50054366  1
  Ni  Ni46  1  0.66706275  0.00382313  0.66616687  1
  Fe  Fe47  1  0.83494154  0.16443393  0.82912324  1
  Cr  Cr48  1  0.83213672  0.49601234  0.49779114  1
  Ni  Ni49  1  0.66773982  0.32795433  0.66547762  1
  Fe  Fe50  1  0.83555047  0.50037373  0.82978516  1
  Cr  Cr51  1  0.83385653  0.83649299  0.49811580  1
  Cr  Cr52  1  0.66820738  0.66639138  0.66440916  1
  Ni  Ni53  1  0.83282552  0.83525987  0.83258250  1
" 