4708,Ni35Fe20Cr43_5,-222.848244158337, 170.065360419998,Ni35Fe20Cr43,"# generated using pymatgen
 data_Cr24Fe11Ni19
_symmetry_space_group_name_H-M   'P 1'
_cell_length_a   7.49537909
_cell_length_b   7.49537909
_cell_length_c   10.60006676
_cell_angle_alpha   90.00000000
_cell_angle_beta   90.00000000
_cell_angle_gamma   90.00000000
_symmetry_Int_Tables_number   1
_chemical_formula_structural   Cr24Fe11Ni19
_chemical_formula_sum   'Cr24 Fe11 Ni19'
_cell_volume   595.51925261
_cell_formula_units_Z   1
loop_
 _symmetry_equiv_pos_site_id
 _symmetry_equiv_pos_as_xyz
  1  'x, y, z'
loop_
 _atom_site_type_symbol
 _atom_site_label
 _atom_site_symmetry_multiplicity
 _atom_site_fract_x
 _atom_site_fract_y
 _atom_site_fract_z
 _atom_site_occupancy
  Fe  Fe0  1  0.99550158  0.00106705  0.99808231  1
  Ni  Ni1  1  0.16323739  0.16651579  0.16447257  1
  Ni  Ni2  1  0.00037118  0.00265399  0.32719375  1
  Cr  Cr3  1  -0.00049489  0.33317021  -0.00113137  1
  Ni  Ni4  1  0.16636821  0.49643494  0.16450517  1
  Ni  Ni5  1  -0.00093952  0.33151568  0.32854215  1
  Fe  Fe6  1  0.99798764  0.66299044  0.99697670  1
  Cr  Cr7  1  0.16478064  0.83130093  0.16318968  1
  Cr  Cr8  1  -0.00128822  0.66007226  0.33184433  1
  Fe  Fe9  1  0.33029609  0.00021559  -0.00014401  1
  Cr  Cr10  1  0.49658145  0.16797057  0.16640069  1
  Ni  Ni11  1  0.33005092  0.99808560  0.32766476  1
  Fe  Fe12  1  0.33043446  0.33035126  0.99733933  1
  Cr  Cr13  1  0.49800755  0.49870171  0.16564965  1
  Fe  Fe14  1  0.32812019  0.33328102  0.33171551  1
  Fe  Fe15  1  0.32959353  0.66243058  -0.00022854  1
  Ni  Ni16  1  0.49519223  0.82986755  0.16553524  1
  Ni  Ni17  1  0.33326548  0.66332116  0.33035949  1
  Cr  Cr18  1  0.66279315  -0.00129789  -0.00164329  1
  Ni  Ni19  1  0.83425451  0.16658798  0.16771708  1
  Cr  Cr20  1  0.66270207  0.99692015  0.32912511  1
  Cr  Cr21  1  0.66938316  0.32961125  -0.00138437  1
  Fe  Fe22  1  0.83342444  0.49664492  0.16665015  1
  Fe  Fe23  1  0.66723324  0.33367100  0.33135774  1
  Cr  Cr24  1  0.66649927  0.66559561  -0.00087641  1
  Cr  Cr25  1  0.83267924  0.83164672  0.16507809  1
  Ni  Ni26  1  0.66260179  0.66153342  0.33117112  1
  Cr  Cr27  1  0.16331630  0.16434839  0.49615122  1
  Ni  Ni28  1  0.99702210  0.00017969  0.66902690  1
  Fe  Fe29  1  0.16389600  0.16627523  0.83283923  1
  Fe  Fe30  1  0.16583960  0.49572959  0.49557770  1
  Cr  Cr31  1  0.00028019  0.33317637  0.66518059  1
  Ni  Ni32  1  0.16583412  0.49626180  0.83301006  1
  Cr  Cr33  1  0.16235392  0.83441490  0.49518378  1
  Cr  Cr34  1  0.99729546  0.66162202  0.66537201  1
  Cr  Cr35  1  0.16170736  0.83112490  0.83437133  1
  Cr  Cr36  1  0.49751590  0.16947226  0.49844166  1
  Cr  Cr37  1  0.33217382  0.00045219  0.66570716  1
  Fe  Fe38  1  0.49827533  0.16510044  0.83153252  1
  Ni  Ni39  1  0.49800115  0.49758268  0.49691224  1
  Ni  Ni40  1  0.32992540  0.33207604  0.66649908  1
  Cr  Cr41  1  0.49703082  0.49570491  0.83152887  1
  Cr  Cr42  1  0.49898471  0.82922603  0.49679894  1
  Cr  Cr43  1  0.33023302  0.66189419  0.66087955  1
  Cr  Cr44  1  0.49819495  0.82926885  0.83142064  1
  Cr  Cr45  1  0.83391286  0.16417757  0.49620703  1
  Ni  Ni46  1  0.66639911  0.99758374  0.66883166  1
  Ni  Ni47  1  0.83306540  0.16330169  0.83036591  1
  Ni  Ni48  1  0.82760785  0.49779010  0.49561034  1
  Cr  Cr49  1  0.66616166  0.33158424  0.66640000  1
  Ni  Ni50  1  0.83293335  0.49885593  0.83240228  1
  Cr  Cr51  1  0.83291606  0.83277133  0.50189949  1
  Ni  Ni52  1  0.66624348  0.66402471  0.66487940  1
  Ni  Ni53  1  0.83218709  0.83308451  0.82975155  1
" 