8615,Ni35Fe20Cr43_8,-222.551879474686, 171.031099307033,Ni35Fe20Cr43,"# generated using pymatgen
 data_Cr24Fe11Ni19
_symmetry_space_group_name_H-M   'P 1'
_cell_length_a   7.49234822
_cell_length_b   7.49234822
_cell_length_c   10.59578047
_cell_angle_alpha   90.00000000
_cell_angle_beta   90.00000000
_cell_angle_gamma   90.00000000
_symmetry_Int_Tables_number   1
_chemical_formula_structural   Cr24Fe11Ni19
_chemical_formula_sum   'Cr24 Fe11 Ni19'
_cell_volume   594.79712351
_cell_formula_units_Z   1
loop_
 _symmetry_equiv_pos_site_id
 _symmetry_equiv_pos_as_xyz
  1  'x, y, z'
loop_
 _atom_site_type_symbol
 _atom_site_label
 _atom_site_symmetry_multiplicity
 _atom_site_fract_x
 _atom_site_fract_y
 _atom_site_fract_z
 _atom_site_occupancy
  Ni  Ni0  1  0.99787374  0.99701833  -0.00135589  1
  Ni  Ni1  1  0.16487216  0.16344126  0.16811451  1
  Fe  Fe2  1  -0.00156253  0.99681726  0.32979375  1
  Cr  Cr3  1  0.99758053  0.33044610  0.99618501  1
  Cr  Cr4  1  0.16566856  0.49737718  0.16548845  1
  Ni  Ni5  1  0.00057127  0.33668083  0.33293857  1
  Fe  Fe6  1  0.99674206  0.66891777  -0.00109210  1
  Cr  Cr7  1  0.16290743  0.83180707  0.16362975  1
  Ni  Ni8  1  0.99672696  0.66635309  0.33269115  1
  Cr  Cr9  1  0.33137852  0.99814944  0.99812932  1
  Fe  Fe10  1  0.49930265  0.16274729  0.16649843  1
  Ni  Ni11  1  0.33275234  0.99716231  0.32917761  1
  Cr  Cr12  1  0.33355078  0.32795651  -0.00028389  1
  Cr  Cr13  1  0.49703878  0.50148494  0.16502806  1
  Ni  Ni14  1  0.32915051  0.32950223  0.33030232  1
  Ni  Ni15  1  0.33266166  0.66751876  -0.00156051  1
  Fe  Fe16  1  0.49976472  0.83326455  0.16457605  1
  Fe  Fe17  1  0.32975935  0.66637975  0.33118722  1
  Ni  Ni18  1  0.66580540  0.99792331  -0.00019628  1
  Cr  Cr19  1  0.83423396  0.16180326  0.16550049  1
  Ni  Ni20  1  0.66296943  0.99302618  0.33012231  1
  Ni  Ni21  1  0.66544447  0.33123081  0.99558227  1
  Cr  Cr22  1  0.83183737  0.50026029  0.16208999  1
  Cr  Cr23  1  0.66534543  0.33238104  0.33115003  1
  Ni  Ni24  1  0.66577463  0.66649611  0.00082917  1
  Ni  Ni25  1  0.82887730  0.83321396  0.16584987  1
  Fe  Fe26  1  0.66729979  0.66664326  0.33130791  1
  Cr  Cr27  1  0.16362834  0.16524711  0.49364603  1
  Cr  Cr28  1  -0.00092961  0.99542004  0.66452166  1
  Ni  Ni29  1  0.16008617  0.16288566  0.83315087  1
  Ni  Ni30  1  0.16437979  0.50146186  0.49496121  1
  Cr  Cr31  1  0.99785715  0.33396110  0.66522343  1
  Cr  Cr32  1  0.16711914  0.50179869  0.83470998  1
  Fe  Fe33  1  0.16512560  0.83001189  0.49546652  1
  Cr  Cr34  1  0.99798815  0.66529247  0.66412341  1
  Ni  Ni35  1  0.16438674  0.83236368  0.83351623  1
  Cr  Cr36  1  0.49920537  0.16279014  0.49850864  1
  Cr  Cr37  1  0.33039140  0.99717278  0.66881316  1
  Fe  Fe38  1  0.50086926  0.16246901  0.83271800  1
  Cr  Cr39  1  0.49568465  0.50117676  0.49860058  1
  Cr  Cr40  1  0.32994187  0.32979951  0.66623299  1
  Cr  Cr41  1  0.49986438  0.50128073  0.83152320  1
  Cr  Cr42  1  0.49908936  0.83120924  0.49932770  1
  Fe  Fe43  1  0.33023334  0.66602944  0.66503313  1
  Cr  Cr44  1  0.49954068  0.82864404  0.83149863  1
  Cr  Cr45  1  0.83246545  0.16125198  0.49648272  1
  Ni  Ni46  1  0.66546408  0.99540047  0.66608915  1
  Ni  Ni47  1  0.83050364  0.16301787  0.83290936  1
  Ni  Ni48  1  0.83299447  0.50092025  0.49716049  1
  Cr  Cr49  1  0.66736027  0.33203908  0.66747179  1
  Fe  Fe50  1  0.83109129  0.50071590  0.83338308  1
  Fe  Fe51  1  0.83138520  0.83004195  0.49570455  1
  Ni  Ni52  1  0.66818845  0.66610169  0.66228627  1
  Cr  Cr53  1  0.83058293  0.83431856  0.83407843  1
" 