850,Ni35Fe15Cr49_10,-219.848164301361, 157.466797165645,Ni35Fe15Cr49,"# generated using pymatgen
 data_Cr27Fe8Ni19
_symmetry_space_group_name_H-M   'P 1'
_cell_length_a   7.51289144
_cell_length_b   7.51289144
_cell_length_c   10.62483296
_cell_angle_alpha   90.00000000
_cell_angle_beta   90.00000000
_cell_angle_gamma   90.00000000
_symmetry_Int_Tables_number   1
_chemical_formula_structural   Cr27Fe8Ni19
_chemical_formula_sum   'Cr27 Fe8 Ni19'
_cell_volume   599.70316018
_cell_formula_units_Z   1
loop_
 _symmetry_equiv_pos_site_id
 _symmetry_equiv_pos_as_xyz
  1  'x, y, z'
loop_
 _atom_site_type_symbol
 _atom_site_label
 _atom_site_symmetry_multiplicity
 _atom_site_fract_x
 _atom_site_fract_y
 _atom_site_fract_z
 _atom_site_occupancy
  Fe  Fe0  1  -0.00266746  -0.00282400  0.99537697  1
  Cr  Cr1  1  0.16446801  0.16378790  0.16241299  1
  Cr  Cr2  1  -0.00289149  0.99337945  0.32905243  1
  Cr  Cr3  1  0.99546122  0.33370107  -0.00131090  1
  Ni  Ni4  1  0.16850235  0.49637222  0.16250801  1
  Cr  Cr5  1  0.99639335  0.33516307  0.32688278  1
  Cr  Cr6  1  -0.00222922  0.66391661  -0.00014010  1
  Ni  Ni7  1  0.16795261  0.83042686  0.16093134  1
  Cr  Cr8  1  0.99684332  0.66284701  0.32890084  1
  Ni  Ni9  1  0.32933699  -0.00286219  -0.00186884  1
  Fe  Fe10  1  0.49522552  0.16732313  0.16269282  1
  Fe  Fe11  1  0.33016642  -0.00099174  0.32869817  1
  Ni  Ni12  1  0.33398988  0.32836012  -0.00223469  1
  Ni  Ni13  1  0.49734577  0.49431385  0.16032831  1
  Ni  Ni14  1  0.33408737  0.32851418  0.32761228  1
  Fe  Fe15  1  0.33174226  0.66058154  -0.00165041  1
  Cr  Cr16  1  0.49683300  0.82739776  0.16190879  1
  Cr  Cr17  1  0.32704988  0.66124394  0.32887623  1
  Cr  Cr18  1  0.66223671  0.00061556  0.99451299  1
  Cr  Cr19  1  0.82831577  0.16652869  0.16209473  1
  Cr  Cr20  1  0.66083174  0.00138935  0.33108588  1
  Ni  Ni21  1  0.66085570  0.33293481  0.99545059  1
  Ni  Ni22  1  0.82573995  0.49550348  0.16317001  1
  Ni  Ni23  1  0.65891691  0.33152407  0.32896820  1
  Ni  Ni24  1  0.66574817  0.66019403  0.99559361  1
  Cr  Cr25  1  0.82910522  0.83070590  0.16029746  1
  Cr  Cr26  1  0.66685408  0.66175307  0.33034593  1
  Cr  Cr27  1  0.16314293  0.16429212  0.49697235  1
  Fe  Fe28  1  0.99445573  -0.00274931  0.66587144  1
  Cr  Cr29  1  0.15985501  0.16346584  0.83104507  1
  Cr  Cr30  1  0.16350105  0.49308946  0.49825215  1
  Ni  Ni31  1  0.99373124  0.33132978  0.66518079  1
  Cr  Cr32  1  0.16622064  0.49633671  0.83137138  1
  Fe  Fe33  1  0.16162800  0.83073247  0.49675695  1
  Cr  Cr34  1  0.99627932  0.66393141  0.66245895  1
  Ni  Ni35  1  0.16317524  0.83339779  0.83319147  1
  Ni  Ni36  1  0.49628307  0.16609701  0.49397958  1
  Cr  Cr37  1  0.33078613  0.99659851  0.66199774  1
  Fe  Fe38  1  0.49761047  0.16411345  0.83216881  1
  Cr  Cr39  1  0.49903399  0.49575780  0.49879391  1
  Cr  Cr40  1  0.33510769  0.32746442  0.66607736  1
  Fe  Fe41  1  0.50123631  0.49348534  0.83344874  1
  Cr  Cr42  1  0.49720238  0.83032553  0.49435160  1
  Cr  Cr43  1  0.32839416  0.66458471  0.66647954  1
  Cr  Cr44  1  0.49622085  0.82504010  0.83493479  1
  Cr  Cr45  1  0.83065974  0.16678775  0.49813235  1
  Cr  Cr46  1  0.66241953  -0.00050294  0.66459522  1
  Ni  Ni47  1  0.82886771  0.16591998  0.82946237  1
  Ni  Ni48  1  0.82913064  0.49600370  0.49750770  1
  Ni  Ni49  1  0.66717390  0.32878172  0.66572070  1
  Ni  Ni50  1  0.82765204  0.49483609  0.83014762  1
  Ni  Ni51  1  0.83104876  0.83037118  0.49848834  1
  Cr  Cr52  1  0.66662906  0.66268635  0.66526773  1
  Ni  Ni53  1  0.83158582  0.83126869  0.83209432  1
" 