532,Ni35Fe15Cr49_18,-220.281913955562, 162.566649218116,Ni35Fe15Cr49,"# generated using pymatgen
 data_Cr27Fe8Ni19
_symmetry_space_group_name_H-M   'P 1'
_cell_length_a   7.50663943
_cell_length_b   7.50663943
_cell_length_c   10.61599129
_cell_angle_alpha   90.00000000
_cell_angle_beta   90.00000000
_cell_angle_gamma   90.00000000
_symmetry_Int_Tables_number   1
_chemical_formula_structural   Cr27Fe8Ni19
_chemical_formula_sum   'Cr27 Fe8 Ni19'
_cell_volume   598.20724061
_cell_formula_units_Z   1
loop_
 _symmetry_equiv_pos_site_id
 _symmetry_equiv_pos_as_xyz
  1  'x, y, z'
loop_
 _atom_site_type_symbol
 _atom_site_label
 _atom_site_symmetry_multiplicity
 _atom_site_fract_x
 _atom_site_fract_y
 _atom_site_fract_z
 _atom_site_occupancy
  Ni  Ni0  1  0.99534258  0.99648308  -0.00003782  1
  Cr  Cr1  1  0.16079913  0.16567308  0.16380215  1
  Cr  Cr2  1  -0.00248856  0.99420963  0.32994303  1
  Ni  Ni3  1  0.99410600  0.33158433  -0.00034293  1
  Ni  Ni4  1  0.16420470  0.50068623  0.16415020  1
  Fe  Fe5  1  0.99615830  0.33190488  0.32806807  1
  Ni  Ni6  1  -0.00248254  0.66363386  -0.00029640  1
  Ni  Ni7  1  0.16336453  0.82587718  0.16229794  1
  Cr  Cr8  1  -0.00160986  0.66183529  0.33131451  1
  Cr  Cr9  1  0.33084693  0.99468565  0.99680306  1
  Cr  Cr10  1  0.50008694  0.16618595  0.16552577  1
  Cr  Cr11  1  0.32997942  0.99655715  0.33192894  1
  Cr  Cr12  1  0.32863134  0.33351004  0.99584384  1
  Fe  Fe13  1  0.49480831  0.49754450  0.16535435  1
  Ni  Ni14  1  0.33114174  0.33364537  0.33096568  1
  Ni  Ni15  1  0.32992111  0.66603973  0.00191489  1
  Fe  Fe16  1  0.49558026  0.82949383  0.16344462  1
  Fe  Fe17  1  0.33075591  0.66202365  0.32808224  1
  Fe  Fe18  1  0.66701375  0.99625116  -0.00162542  1
  Ni  Ni19  1  0.82978046  0.16436347  0.16254158  1
  Cr  Cr20  1  0.66474711  0.99706048  0.32900793  1
  Cr  Cr21  1  0.66691348  0.33121133  0.99621291  1
  Fe  Fe22  1  0.83430513  0.49458478  0.16309848  1
  Ni  Ni23  1  0.66401185  0.33246904  0.32886046  1
  Cr  Cr24  1  0.66457939  0.66338801  -0.00068719  1
  Fe  Fe25  1  0.83416842  0.83124591  0.16252417  1
  Cr  Cr26  1  0.66816458  0.66185650  0.32882598  1
  Cr  Cr27  1  0.16418719  0.16784701  0.49651854  1
  Ni  Ni28  1  0.99403561  0.99586299  0.66339129  1
  Cr  Cr29  1  0.15924185  0.16418866  0.83133678  1
  Ni  Ni30  1  0.16353703  0.49681027  0.49538867  1
  Cr  Cr31  1  0.99725415  0.33271775  0.66477697  1
  Cr  Cr32  1  0.16165902  0.49977352  0.83261800  1
  Cr  Cr33  1  0.16051061  0.82769977  0.49966628  1
  Ni  Ni34  1  0.99298376  0.66275682  0.66177385  1
  Cr  Cr35  1  0.16184912  0.82916999  0.83106813  1
  Ni  Ni36  1  0.49827531  0.16842253  0.49527214  1
  Cr  Cr37  1  0.32968004  0.00070708  0.66319943  1
  Cr  Cr38  1  0.49907396  0.16394831  0.82946566  1
  Cr  Cr39  1  0.49707631  0.49580231  0.49603691  1
  Ni  Ni40  1  0.33042715  0.33184102  0.66172936  1
  Cr  Cr41  1  0.49770292  0.50120458  0.83022409  1
  Cr  Cr42  1  0.50142582  0.82890135  0.49753506  1
  Cr  Cr43  1  0.33026271  0.66357755  0.66471111  1
  Ni  Ni44  1  0.49945443  0.82866626  0.83301477  1
  Cr  Cr45  1  0.82917210  0.16275732  0.49469923  1
  Cr  Cr46  1  0.66361618  0.99673306  0.66447088  1
  Ni  Ni47  1  0.83250241  0.16346628  0.83473310  1
  Fe  Fe48  1  0.83130054  0.49758071  0.49768198  1
  Cr  Cr49  1  0.66517254  0.33317920  0.66552744  1
  Ni  Ni50  1  0.83263238  0.49816388  0.83148596  1
  Ni  Ni51  1  0.83117160  0.82763604  0.49935918  1
  Ni  Ni52  1  0.66873877  0.66388830  0.66425904  1
  Cr  Cr53  1  0.83182159  0.83028882  0.83013059  1
" 