8352,Ni35Fe16Cr47_3,-219.98100482561, 160.997282718292,Ni35Fe16Cr47,"# generated using pymatgen
 data_Cr27Fe8Ni19
_symmetry_space_group_name_H-M   'P 1'
_cell_length_a   7.51031958
_cell_length_b   7.51031958
_cell_length_c   10.62119581
_cell_angle_alpha   90.00000000
_cell_angle_beta   90.00000000
_cell_angle_gamma   90.00000000
_symmetry_Int_Tables_number   1
_chemical_formula_structural   Cr27Fe8Ni19
_chemical_formula_sum   'Cr27 Fe8 Ni19'
_cell_volume   599.08748915
_cell_formula_units_Z   1
loop_
 _symmetry_equiv_pos_site_id
 _symmetry_equiv_pos_as_xyz
  1  'x, y, z'
loop_
 _atom_site_type_symbol
 _atom_site_label
 _atom_site_symmetry_multiplicity
 _atom_site_fract_x
 _atom_site_fract_y
 _atom_site_fract_z
 _atom_site_occupancy
  Fe  Fe0  1  -0.00246137  -0.00166834  0.99506658  1
  Ni  Ni1  1  0.16031541  0.16279182  0.16190562  1
  Ni  Ni2  1  0.99470138  0.99359322  0.32799635  1
  Ni  Ni3  1  0.99548421  0.32762533  0.99595971  1
  Cr  Cr4  1  0.16215792  0.49796529  0.16405205  1
  Fe  Fe5  1  0.99569678  0.33006709  0.33029363  1
  Cr  Cr6  1  0.99291544  0.66417712  0.99563819  1
  Cr  Cr7  1  0.16195250  0.83194361  0.15961643  1
  Ni  Ni8  1  0.99128181  0.66601878  0.33265323  1
  Ni  Ni9  1  0.33039134  -0.00150194  0.99542740  1
  Cr  Cr10  1  0.49967791  0.16452918  0.16355356  1
  Cr  Cr11  1  0.32870199  0.99687716  0.33018095  1
  Cr  Cr12  1  0.32853788  0.32877092  0.99486264  1
  Cr  Cr13  1  0.49952194  0.49692745  0.16271990  1
  Cr  Cr14  1  0.32924252  0.32902779  0.33164495  1
  Ni  Ni15  1  0.33281558  0.66571904  0.99437379  1
  Cr  Cr16  1  0.49794554  0.82968990  0.16280579  1
  Cr  Cr17  1  0.33006956  0.66558070  0.33052699  1
  Cr  Cr18  1  0.66620721  0.99473602  0.99409680  1
  Cr  Cr19  1  0.83140092  0.16306576  0.16300531  1
  Cr  Cr20  1  0.66576903  0.99247582  0.33308047  1
  Fe  Fe21  1  0.66514044  0.33035988  0.99357405  1
  Cr  Cr22  1  0.82955552  0.49609477  0.16582943  1
  Ni  Ni23  1  0.66764759  0.33330551  0.33070636  1
  Cr  Cr24  1  0.66591226  0.66526173  0.99666583  1
  Ni  Ni25  1  0.83246568  0.83044271  0.16612193  1
  Fe  Fe26  1  0.66728507  0.66526135  0.33262952  1
  Cr  Cr27  1  0.15921961  0.16144314  0.49626049  1
  Ni  Ni28  1  0.99223506  0.99565103  0.66710117  1
  Ni  Ni29  1  0.16133352  0.16277205  0.83263460  1
  Cr  Cr30  1  0.16056168  0.50041152  0.49826620  1
  Cr  Cr31  1  0.99564457  0.32994357  0.66443104  1
  Cr  Cr32  1  0.16379552  0.50040103  0.82895049  1
  Cr  Cr33  1  0.16146286  0.82967509  0.50053064  1
  Fe  Fe34  1  0.99260952  0.66555638  0.66358863  1
  Cr  Cr35  1  0.16429915  0.83077677  0.83028162  1
  Cr  Cr36  1  0.50216479  0.16208406  0.49759316  1
  Cr  Cr37  1  0.33210656  -0.00203196  0.66401328  1
  Ni  Ni38  1  0.49911168  0.16199429  0.83158863  1
  Cr  Cr39  1  0.50001558  0.49833993  0.49713455  1
  Cr  Cr40  1  0.33006926  0.32982758  0.66479696  1
  Fe  Fe41  1  0.49881761  0.50013424  0.83024431  1
  Ni  Ni42  1  0.50106099  0.82754311  0.49987353  1
  Ni  Ni43  1  0.33602014  0.66574984  0.66535497  1
  Ni  Ni44  1  0.49838833  0.82979212  0.82919457  1
  Cr  Cr45  1  0.83026496  0.16238681  0.49679735  1
  Fe  Fe46  1  0.66543493  0.99386974  0.66610480  1
  Ni  Ni47  1  0.83076140  0.16298657  0.83199362  1
  Ni  Ni48  1  0.82946210  0.50004338  0.49584151  1
  Cr  Cr49  1  0.66548663  0.33167868  0.66792958  1
  Fe  Fe50  1  0.82923383  0.49754944  0.83026453  1
  Ni  Ni51  1  0.82999684  0.82847492  0.49878538  1
  Ni  Ni52  1  0.66601062  0.66659793  0.66304676  1
  Ni  Ni53  1  0.82853513  0.83164607  0.82684515  1
" 