2405,Ni35Fe20Cr43_16,-222.901829394061, 171.51094038559,Ni35Fe20Cr43,"# generated using pymatgen
 data_Cr24Fe11Ni19
_symmetry_space_group_name_H-M   'P 1'
_cell_length_a   7.49864758
_cell_length_b   7.49864758
_cell_length_c   10.60468911
_cell_angle_alpha   90.00000000
_cell_angle_beta   90.00000000
_cell_angle_gamma   90.00000000
_symmetry_Int_Tables_number   1
_chemical_formula_structural   Cr24Fe11Ni19
_chemical_formula_sum   'Cr24 Fe11 Ni19'
_cell_volume   596.29865254
_cell_formula_units_Z   1
loop_
 _symmetry_equiv_pos_site_id
 _symmetry_equiv_pos_as_xyz
  1  'x, y, z'
loop_
 _atom_site_type_symbol
 _atom_site_label
 _atom_site_symmetry_multiplicity
 _atom_site_fract_x
 _atom_site_fract_y
 _atom_site_fract_z
 _atom_site_occupancy
  Fe  Fe0  1  -0.00111754  -0.00157092  -0.00069511  1
  Ni  Ni1  1  0.16464741  0.16524790  0.16494191  1
  Fe  Fe2  1  -0.00160829  0.99766530  0.33071563  1
  Fe  Fe3  1  0.99606208  0.33035254  0.99767866  1
  Cr  Cr4  1  0.16432888  0.49482001  0.16161155  1
  Ni  Ni5  1  0.99763981  0.33080214  0.33069381  1
  Ni  Ni6  1  0.99592793  0.66382208  -0.00188926  1
  Ni  Ni7  1  0.16336231  0.83413051  0.16410504  1
  Cr  Cr8  1  0.99765062  0.66296753  0.33304845  1
  Cr  Cr9  1  0.33361863  -0.00098047  0.00002837  1
  Fe  Fe10  1  0.49773040  0.16650093  0.16455831  1
  Cr  Cr11  1  0.33306072  -0.00200646  0.32734331  1
  Ni  Ni12  1  0.33365503  0.32842844  -0.00204992  1
  Cr  Cr13  1  0.50017671  0.49806788  0.16571777  1
  Ni  Ni14  1  0.33025300  0.32909948  0.32989761  1
  Cr  Cr15  1  0.33248514  0.66606719  -0.00129277  1
  Ni  Ni16  1  0.50007275  0.83067716  0.16485847  1
  Cr  Cr17  1  0.33097206  0.66501369  0.33043865  1
  Cr  Cr18  1  0.66172803  0.00019545  0.99775564  1
  Cr  Cr19  1  0.83184729  0.16535976  0.16570058  1
  Ni  Ni20  1  0.66469446  0.99735942  0.32964103  1
  Ni  Ni21  1  0.66432726  0.33126372  0.99496704  1
  Cr  Cr22  1  0.82917257  0.49845127  0.16328458  1
  Fe  Fe23  1  0.66437916  0.33266991  0.33147145  1
  Ni  Ni24  1  0.66522592  0.66327248  0.99526853  1
  Cr  Cr25  1  0.82891293  0.83009240  0.16444135  1
  Ni  Ni26  1  0.66576703  0.66647595  0.33387194  1
  Cr  Cr27  1  0.16567235  0.16386191  0.49907280  1
  Fe  Fe28  1  -0.00147459  0.99730510  0.66334800  1
  Cr  Cr29  1  0.16513561  0.16463542  0.83016180  1
  Cr  Cr30  1  0.16759009  0.49369608  0.49675942  1
  Cr  Cr31  1  0.99313709  0.33340111  0.66644931  1
  Cr  Cr32  1  0.16568715  0.49616600  0.83545707  1
  Fe  Fe33  1  0.16308600  0.83354953  0.49839852  1
  Cr  Cr34  1  0.99468331  0.66270688  0.66171982  1
  Cr  Cr35  1  0.16442623  0.83306697  0.82999658  1
  Cr  Cr36  1  0.49691973  0.16668871  0.49677105  1
  Ni  Ni37  1  0.33381512  -0.00076123  0.66581908  1
  Ni  Ni38  1  0.49701553  0.16707143  0.83098315  1
  Fe  Fe39  1  0.50102135  0.49652785  0.49754664  1
  Ni  Ni40  1  0.33408380  0.33011543  0.66570398  1
  Ni  Ni41  1  0.50105706  0.49588642  0.83024881  1
  Cr  Cr42  1  0.50029715  0.83118784  0.49869268  1
  Cr  Cr43  1  0.33232141  0.66399867  0.66440643  1
  Ni  Ni44  1  0.49961794  0.83053493  0.83097733  1
  Cr  Cr45  1  0.83085867  0.16328673  0.49614353  1
  Cr  Cr46  1  0.66434912  0.00005108  0.66786850  1
  Fe  Fe47  1  0.82901179  0.16694007  0.83273062  1
  Ni  Ni48  1  0.82747005  0.49847525  0.49636038  1
  Fe  Fe49  1  0.66279848  0.33371326  0.66612394  1
  Ni  Ni50  1  0.82746927  0.49740037  0.83364848  1
  Ni  Ni51  1  0.82999224  0.83073316  0.49684934  1
  Fe  Fe52  1  0.66441080  0.66162490  0.66495210  1
  Cr  Cr53  1  0.83079451  0.83011046  0.83291757  1
" 