7829,Ni35Fe47Cr17_3,-231.378941930026, 198.698418340394,Ni35Fe47Cr17,"# generated using pymatgen
 data_Cr11Fe25Ni18
_symmetry_space_group_name_H-M   'P 1'
_cell_length_a   7.44255848
_cell_length_b   7.44255848
_cell_length_c   10.52536714
_cell_angle_alpha   90.00000000
_cell_angle_beta   90.00000000
_cell_angle_gamma   90.00000000
_symmetry_Int_Tables_number   1
_chemical_formula_structural   Cr11Fe25Ni18
_chemical_formula_sum   'Cr11 Fe25 Ni18'
_cell_volume   583.01773359
_cell_formula_units_Z   1
loop_
 _symmetry_equiv_pos_site_id
 _symmetry_equiv_pos_as_xyz
  1  'x, y, z'
loop_
 _atom_site_type_symbol
 _atom_site_label
 _atom_site_symmetry_multiplicity
 _atom_site_fract_x
 _atom_site_fract_y
 _atom_site_fract_z
 _atom_site_occupancy
  Fe  Fe0  1  1.00066324  0.00365341  1.00096829  1
  Fe  Fe1  1  0.16510133  0.16923135  0.16803202  1
  Ni  Ni2  1  0.00205917  0.00406510  0.33600860  1
  Ni  Ni3  1  1.00110185  0.33346472  0.00261877  1
  Fe  Fe4  1  0.16659536  0.50106306  0.16730225  1
  Ni  Ni5  1  1.00017580  0.33250545  0.33470921  1
  Ni  Ni6  1  1.00118154  0.66697719  1.00155587  1
  Cr  Cr7  1  0.16833100  0.83363439  0.16822839  1
  Fe  Fe8  1  1.00132289  0.66639618  0.33573501  1
  Ni  Ni9  1  0.33404148  1.00127353  1.00134103  1
  Cr  Cr10  1  0.50296418  0.16838663  0.16877739  1
  Fe  Fe11  1  0.33370342  0.99949473  0.33566688  1
  Fe  Fe12  1  0.33395714  0.33563321  0.00196380  1
  Fe  Fe13  1  0.50272227  0.50338414  0.16899886  1
  Cr  Cr14  1  0.33236725  0.33690704  0.33385765  1
  Fe  Fe15  1  0.33505212  0.66728217  0.00297173  1
  Fe  Fe16  1  0.50104530  0.83358235  0.16926181  1
  Ni  Ni17  1  0.33764579  0.67012968  0.33486266  1
  Fe  Fe18  1  0.66956127  0.00255618  1.00043551  1
  Fe  Fe19  1  0.83667282  0.17090870  0.16869711  1
  Fe  Fe20  1  0.66937202  1.00105680  0.33576814  1
  Ni  Ni21  1  0.67059476  0.33579429  1.00127714  1
  Ni  Ni22  1  0.83579354  0.49947036  0.16929216  1
  Ni  Ni23  1  0.67192937  0.33745145  0.33497181  1
  Cr  Cr24  1  0.66740847  0.66747872  1.00010463  1
  Cr  Cr25  1  0.83621365  0.83377655  0.16919293  1
  Ni  Ni26  1  0.66589667  0.66824646  0.33559114  1
  Ni  Ni27  1  0.16848561  0.16724314  0.50216006  1
  Cr  Cr28  1  0.00294323  0.00373253  0.66920909  1
  Fe  Fe29  1  0.16674994  0.16945027  0.83516963  1
  Fe  Fe30  1  0.16795860  0.50163999  0.50257674  1
  Ni  Ni31  1  0.00241371  0.33448813  0.66760678  1
  Cr  Cr32  1  0.16647608  0.50150443  0.83486010  1
  Ni  Ni33  1  0.16851303  0.83431826  0.50076376  1
  Fe  Fe34  1  0.99920696  0.66594227  0.66795024  1
  Cr  Cr35  1  0.16716810  0.83453990  0.83566397  1
  Cr  Cr36  1  0.50178048  0.16945045  0.50162790  1
  Fe  Fe37  1  0.33428476  0.00212676  0.66764124  1
  Cr  Cr38  1  0.50128376  0.17008679  0.83452809  1
  Fe  Fe39  1  0.50177089  0.50375132  0.50235900  1
  Ni  Ni40  1  0.33336677  0.33599390  0.66841068  1
  Fe  Fe41  1  0.50372280  0.50247073  0.83357173  1
  Fe  Fe42  1  0.50005195  0.83262836  0.50061818  1
  Fe  Fe43  1  0.33671545  0.66735441  0.66608079  1
  Fe  Fe44  1  0.50247797  0.83305855  0.83505615  1
  Fe  Fe45  1  0.83770902  0.16988313  0.49986852  1
  Cr  Cr46  1  0.66940202  0.99849587  0.66926135  1
  Fe  Fe47  1  0.83658697  0.17069600  0.83637729  1
  Fe  Fe48  1  0.83520243  0.50087030  0.50166277  1
  Ni  Ni49  1  0.66915864  0.33964027  0.66868577  1
  Ni  Ni50  1  0.83428849  0.50179193  0.83369338  1
  Fe  Fe51  1  0.83560547  0.83418271  0.50037379  1
  Ni  Ni52  1  0.66700631  0.66694418  0.66913319  1
  Ni  Ni53  1  0.83503814  0.83275289  0.83574034  1
" 