2558,Ni35Fe26Cr37_1,-224.951185810827, 182.4689040542,Ni35Fe26Cr37,"# generated using pymatgen
 data_Cr21Fe14Ni19
_symmetry_space_group_name_H-M   'P 1'
_cell_length_a   7.48162886
_cell_length_b   7.48162886
_cell_length_c   10.58062100
_cell_angle_alpha   90.00000000
_cell_angle_beta   90.00000000
_cell_angle_gamma   90.00000000
_symmetry_Int_Tables_number   1
_chemical_formula_structural   Cr21Fe14Ni19
_chemical_formula_sum   'Cr21 Fe14 Ni19'
_cell_volume   592.24783134
_cell_formula_units_Z   1
loop_
 _symmetry_equiv_pos_site_id
 _symmetry_equiv_pos_as_xyz
  1  'x, y, z'
loop_
 _atom_site_type_symbol
 _atom_site_label
 _atom_site_symmetry_multiplicity
 _atom_site_fract_x
 _atom_site_fract_y
 _atom_site_fract_z
 _atom_site_occupancy
  Cr  Cr0  1  0.00051836  -0.00036882  0.00211706  1
  Cr  Cr1  1  0.16751566  0.16731202  0.16749954  1
  Ni  Ni2  1  0.00116680  0.99753109  0.33177812  1
  Fe  Fe3  1  -0.00014376  0.33572419  -0.00064399  1
  Cr  Cr4  1  0.16884143  0.50275454  0.16467114  1
  Cr  Cr5  1  0.99761514  0.33173759  0.33052143  1
  Ni  Ni6  1  0.99868024  0.66584138  0.99735493  1
  Ni  Ni7  1  0.16648542  0.82924615  0.16797964  1
  Ni  Ni8  1  -0.00095160  0.66810218  0.33262140  1
  Cr  Cr9  1  0.33089301  0.99721185  0.99873580  1
  Cr  Cr10  1  0.49804775  0.16625229  0.16599108  1
  Ni  Ni11  1  0.33060739  0.99645641  0.33374464  1
  Ni  Ni12  1  0.33350477  0.33252362  0.99660236  1
  Ni  Ni13  1  0.49782781  0.50031609  0.16751535  1
  Ni  Ni14  1  0.33472389  0.33318303  0.33469798  1
  Ni  Ni15  1  0.33291900  0.66556904  0.00103219  1
  Fe  Fe16  1  0.49724049  0.82865527  0.16648564  1
  Ni  Ni17  1  0.33470266  0.66738673  0.33261528  1
  Fe  Fe18  1  0.66488633  0.99744822  0.00033641  1
  Ni  Ni19  1  0.83002010  0.16479918  0.16785583  1
  Fe  Fe20  1  0.66401747  0.99602028  0.33118472  1
  Cr  Cr21  1  0.66710797  0.33374238  0.00062623  1
  Ni  Ni22  1  0.83159021  0.50123559  0.16482281  1
  Fe  Fe23  1  0.66473179  0.33549056  0.33010858  1
  Ni  Ni24  1  0.66540697  0.66387824  0.00080835  1
  Cr  Cr25  1  0.83297137  0.83135453  0.16685484  1
  Ni  Ni26  1  0.66335835  0.66413154  0.33131786  1
  Fe  Fe27  1  0.16526964  0.16438554  0.49713245  1
  Ni  Ni28  1  0.00403557  0.99784307  0.66481656  1
  Fe  Fe29  1  0.16752047  0.16592757  0.83287553  1
  Ni  Ni30  1  0.16824642  0.50225600  0.49696290  1
  Cr  Cr31  1  0.00051512  0.33278345  0.66769233  1
  Ni  Ni32  1  0.16388030  0.50095690  0.83495302  1
  Fe  Fe33  1  0.16506086  0.83264753  0.49624913  1
  Ni  Ni34  1  0.00200245  0.66870116  0.66707709  1
  Fe  Fe35  1  0.16558196  0.83023982  0.83295487  1
  Cr  Cr36  1  0.49779212  0.16426521  0.49864212  1
  Fe  Fe37  1  0.32949986  0.99826189  0.66553395  1
  Ni  Ni38  1  0.49726586  0.16392350  0.83148302  1
  Fe  Fe39  1  0.49797947  0.50051015  0.49456026  1
  Cr  Cr40  1  0.33168999  0.33167455  0.66514372  1
  Cr  Cr41  1  0.49396427  0.49873912  0.83447635  1
  Fe  Fe42  1  0.49818329  0.83132630  0.49628138  1
  Cr  Cr43  1  0.33114764  0.66744196  0.66292937  1
  Cr  Cr44  1  0.50013774  0.83403562  0.83371355  1
  Cr  Cr45  1  0.83127848  0.16157618  0.49675628  1
  Fe  Fe46  1  0.66474203  0.99856649  0.66554017  1
  Cr  Cr47  1  0.83058655  0.16254847  0.83250905  1
  Cr  Cr48  1  0.83594106  0.50212445  0.49852083  1
  Cr  Cr49  1  0.66463213  0.33456868  0.66518662  1
  Fe  Fe50  1  0.83427431  0.50060027  0.83459557  1
  Cr  Cr51  1  0.83357095  0.83320834  0.49956950  1
  Cr  Cr52  1  0.66466142  0.66369990  0.66505398  1
  Cr  Cr53  1  0.83363361  0.83103133  0.83093373  1
" 