6419,Ni35Fe41Cr23_14,-230.315510469655, 198.525451924567,Ni35Fe41Cr23,"# generated using pymatgen
 data_Cr13Fe22Ni19
_symmetry_space_group_name_H-M   'P 1'
_cell_length_a   7.44505869
_cell_length_b   7.44505869
_cell_length_c   10.52890297
_cell_angle_alpha   90.00000000
_cell_angle_beta   90.00000000
_cell_angle_gamma   90.00000000
_symmetry_Int_Tables_number   1
_chemical_formula_structural   Cr13Fe22Ni19
_chemical_formula_sum   'Cr13 Fe22 Ni19'
_cell_volume   583.60549718
_cell_formula_units_Z   1
loop_
 _symmetry_equiv_pos_site_id
 _symmetry_equiv_pos_as_xyz
  1  'x, y, z'
loop_
 _atom_site_type_symbol
 _atom_site_label
 _atom_site_symmetry_multiplicity
 _atom_site_fract_x
 _atom_site_fract_y
 _atom_site_fract_z
 _atom_site_occupancy
  Ni  Ni0  1  0.00195301  0.00192379  1.00141733  1
  Fe  Fe1  1  0.16914274  0.16639269  0.16843524  1
  Ni  Ni2  1  0.00275512  1.00141342  0.33462450  1
  Ni  Ni3  1  0.00156580  0.33354521  1.00050614  1
  Cr  Cr4  1  0.16739133  0.50104551  0.16792871  1
  Fe  Fe5  1  1.00086507  0.33547287  0.33662180  1
  Fe  Fe6  1  0.00193436  0.66899155  0.00264645  1
  Ni  Ni7  1  0.16631910  0.83696472  0.16705409  1
  Ni  Ni8  1  0.99953982  0.66859006  0.33476597  1
  Fe  Fe9  1  0.33358360  0.00308176  1.00104119  1
  Fe  Fe10  1  0.49989307  0.17040952  0.16686547  1
  Fe  Fe11  1  0.33302748  0.00355755  0.33523901  1
  Fe  Fe12  1  0.33530558  0.33326810  1.00132378  1
  Ni  Ni13  1  0.50379134  0.49980927  0.16732094  1
  Fe  Fe14  1  0.33540283  0.33346141  0.33583973  1
  Ni  Ni15  1  0.33344571  0.66754985  1.00069454  1
  Cr  Cr16  1  0.50146684  0.83448674  0.16661092  1
  Cr  Cr17  1  0.33529646  0.66682147  0.33632393  1
  Ni  Ni18  1  0.66903192  0.00372216  1.00076760  1
  Cr  Cr19  1  0.83556364  0.16890668  0.16737377  1
  Cr  Cr20  1  0.66943681  1.00114200  0.33633518  1
  Ni  Ni21  1  0.66762246  0.33354536  0.00148418  1
  Fe  Fe22  1  0.83305885  0.50292677  0.16866137  1
  Ni  Ni23  1  0.66723781  0.33709461  0.33579419  1
  Fe  Fe24  1  0.66891198  0.66726998  0.00399603  1
  Fe  Fe25  1  0.83707660  0.83277094  0.16812234  1
  Ni  Ni26  1  0.66995190  0.66534302  0.33500936  1
  Ni  Ni27  1  0.16930912  0.16883222  0.49814912  1
  Cr  Cr28  1  1.00004761  0.00222557  0.66850884  1
  Fe  Fe29  1  0.16886830  0.16735866  0.83635438  1
  Ni  Ni30  1  0.16685280  0.50022936  0.50179096  1
  Cr  Cr31  1  1.00091954  0.33507290  0.66743015  1
  Fe  Fe32  1  0.16880850  0.50284689  0.83587569  1
  Cr  Cr33  1  0.16814882  0.83535680  0.50181428  1
  Fe  Fe34  1  0.00243856  0.66797648  0.66639949  1
  Fe  Fe35  1  0.16976899  0.83422527  0.83577074  1
  Fe  Fe36  1  0.50151339  0.16816051  0.50226431  1
  Ni  Ni37  1  0.33721426  1.00006596  0.66835126  1
  Ni  Ni38  1  0.50175413  0.16706257  0.83594987  1
  Fe  Fe39  1  0.50275697  0.50189338  0.50086545  1
  Cr  Cr40  1  0.33467982  0.33612145  0.66801927  1
  Cr  Cr41  1  0.50106032  0.50043771  0.83548565  1
  Fe  Fe42  1  0.50270416  0.83437255  0.50339073  1
  Ni  Ni43  1  0.33453633  0.66844001  0.66765164  1
  Cr  Cr44  1  0.50005278  0.83697543  0.83373598  1
  Fe  Fe45  1  0.83510366  0.16883050  0.50052533  1
  Ni  Ni46  1  0.66697204  0.00234076  0.66703880  1
  Fe  Fe47  1  0.83253094  0.16796368  0.83705091  1
  Ni  Ni48  1  0.83397718  0.50242622  0.50001735  1
  Fe  Fe49  1  0.66733425  0.33296412  0.66707005  1
  Cr  Cr50  1  0.83555828  0.50039983  0.83599402  1
  Ni  Ni51  1  0.83310723  0.83292183  0.50077482  1
  Fe  Fe52  1  0.66789638  0.66903152  0.66476485  1
  Cr  Cr53  1  0.83525869  0.83570509  0.83589660  1
" 