1379,Ni35Fe41Cr23_15,-230.23605026569, 192.999026130628,Ni35Fe41Cr23,"# generated using pymatgen
 data_Cr13Fe22Ni19
_symmetry_space_group_name_H-M   'P 1'
_cell_length_a   7.44836274
_cell_length_b   7.44836274
_cell_length_c   10.53357561
_cell_angle_alpha   90.00000000
_cell_angle_beta   90.00000000
_cell_angle_gamma   90.00000000
_symmetry_Int_Tables_number   1
_chemical_formula_structural   Cr13Fe22Ni19
_chemical_formula_sum   'Cr13 Fe22 Ni19'
_cell_volume   584.38284091
_cell_formula_units_Z   1
loop_
 _symmetry_equiv_pos_site_id
 _symmetry_equiv_pos_as_xyz
  1  'x, y, z'
loop_
 _atom_site_type_symbol
 _atom_site_label
 _atom_site_symmetry_multiplicity
 _atom_site_fract_x
 _atom_site_fract_y
 _atom_site_fract_z
 _atom_site_occupancy
  Ni  Ni0  1  0.99953560  1.00115327  0.00137854  1
  Cr  Cr1  1  0.16839176  0.16744549  0.16617514  1
  Cr  Cr2  1  0.99895828  0.00187936  0.33562972  1
  Ni  Ni3  1  0.99882609  0.33395724  0.00134731  1
  Cr  Cr4  1  0.16496583  0.50097796  0.16711136  1
  Ni  Ni5  1  0.99831007  0.33392888  0.33536687  1
  Cr  Cr6  1  0.99969903  0.66922282  0.99803673  1
  Cr  Cr7  1  0.16869504  0.83503618  0.17019975  1
  Ni  Ni8  1  1.00003263  0.66853841  0.33620319  1
  Fe  Fe9  1  0.33717257  1.00066372  1.00047517  1
  Fe  Fe10  1  0.50398183  0.16746966  0.16705004  1
  Fe  Fe11  1  0.33673804  1.00006630  0.33650466  1
  Fe  Fe12  1  0.33724146  0.33305326  1.00080949  1
  Fe  Fe13  1  0.50345695  0.50196580  0.16780396  1
  Cr  Cr14  1  0.33728574  0.33508073  0.33537572  1
  Cr  Cr15  1  0.33680700  0.66877409  0.99991238  1
  Fe  Fe16  1  0.50425645  0.83443655  0.16946633  1
  Ni  Ni17  1  0.33786631  0.66941939  0.33557060  1
  Ni  Ni18  1  0.66736989  1.00045129  0.00136821  1
  Fe  Fe19  1  0.83326559  0.16904579  0.16661153  1
  Fe  Fe20  1  0.66588551  1.00101499  0.33456412  1
  Ni  Ni21  1  0.66790047  0.33443695  0.00314176  1
  Ni  Ni22  1  0.83210183  0.50104950  0.16899848  1
  Fe  Fe23  1  0.66962751  0.33486459  0.33481066  1
  Ni  Ni24  1  0.66746027  0.66901520  0.00230681  1
  Fe  Fe25  1  0.83254060  0.83393829  0.16688690  1
  Fe  Fe26  1  0.66868398  0.66778411  0.33493364  1
  Fe  Fe27  1  0.16996661  0.16584608  0.50218701  1
  Ni  Ni28  1  1.00092145  0.99849827  0.66651183  1
  Cr  Cr29  1  0.16984267  0.16662359  0.83576075  1
  Cr  Cr30  1  0.16658874  0.50328889  0.50163727  1
  Cr  Cr31  1  1.00074931  0.33256146  0.66770551  1
  Fe  Fe32  1  0.16738381  0.50156980  0.83295837  1
  Fe  Fe33  1  0.17029029  0.83520066  0.50202506  1
  Fe  Fe34  1  1.00032433  0.66925920  0.66884443  1
  Ni  Ni35  1  0.16757856  0.83558713  0.83197846  1
  Ni  Ni36  1  0.50202132  0.16552310  0.50123371  1
  Fe  Fe37  1  0.33612888  1.00089160  0.66718532  1
  Ni  Ni38  1  0.50064779  0.16606494  0.83540466  1
  Fe  Fe39  1  0.50162640  0.50416778  0.50230241  1
  Ni  Ni40  1  0.33591536  0.33441567  0.66767489  1
  Cr  Cr41  1  0.50374924  0.50003451  0.83381991  1
  Ni  Ni42  1  0.50207715  0.83554796  0.50109108  1
  Ni  Ni43  1  0.33594428  0.66972758  0.66772911  1
  Fe  Fe44  1  0.50367907  0.83638916  0.83327894  1
  Fe  Fe45  1  0.83278665  0.16623031  0.50089615  1
  Fe  Fe46  1  0.66636536  0.99957958  0.66803196  1
  Cr  Cr47  1  0.83145303  0.16658421  0.83649231  1
  Fe  Fe48  1  0.83132008  0.50335678  0.49975782  1
  Cr  Cr49  1  0.66659165  0.33394549  0.66595614  1
  Ni  Ni50  1  0.83345595  0.50379956  0.83496363  1
  Fe  Fe51  1  0.83262017  0.83387584  0.50296686  1
  Ni  Ni52  1  0.66688677  0.67070367  0.66750128  1
  Ni  Ni53  1  0.83376056  0.83378924  0.83379787  1
" 