3345,Ni35Fe16Cr47_8,-220.186840286848, 160.452161132841,Ni35Fe16Cr47,"# generated using pymatgen
 data_Cr27Fe8Ni19
_symmetry_space_group_name_H-M   'P 1'
_cell_length_a   7.51437229
_cell_length_b   7.51437229
_cell_length_c   10.62692721
_cell_angle_alpha   90.00000000
_cell_angle_beta   90.00000000
_cell_angle_gamma   90.00000000
_symmetry_Int_Tables_number   1
_chemical_formula_structural   Cr27Fe8Ni19
_chemical_formula_sum   'Cr27 Fe8 Ni19'
_cell_volume   600.05785061
_cell_formula_units_Z   1
loop_
 _symmetry_equiv_pos_site_id
 _symmetry_equiv_pos_as_xyz
  1  'x, y, z'
loop_
 _atom_site_type_symbol
 _atom_site_label
 _atom_site_symmetry_multiplicity
 _atom_site_fract_x
 _atom_site_fract_y
 _atom_site_fract_z
 _atom_site_occupancy
  Cr  Cr0  1  -0.00174807  0.99540781  -0.00249944  1
  Cr  Cr1  1  0.16334734  0.16491903  0.16400674  1
  Ni  Ni2  1  0.99505346  0.99633780  0.33129463  1
  Cr  Cr3  1  -0.00068034  0.33290871  0.99483431  1
  Fe  Fe4  1  0.16250265  0.49669392  0.16452064  1
  Ni  Ni5  1  0.99645271  0.32991150  0.33052992  1
  Ni  Ni6  1  -0.00009499  0.66287530  -0.00277577  1
  Cr  Cr7  1  0.16332773  0.82914908  0.16414965  1
  Fe  Fe8  1  -0.00289118  0.66372953  0.33030902  1
  Ni  Ni9  1  0.32998012  -0.00176521  0.99352346  1
  Fe  Fe10  1  0.49454578  0.16340053  0.16313896  1
  Cr  Cr11  1  0.32988874  -0.00291820  0.33260171  1
  Ni  Ni12  1  0.32956580  0.33043352  0.99599679  1
  Cr  Cr13  1  0.49229994  0.49641557  0.16512685  1
  Ni  Ni14  1  0.32806275  0.33130315  0.32889652  1
  Fe  Fe15  1  0.32777030  0.66202683  0.99479802  1
  Cr  Cr16  1  0.49502253  0.82803935  0.16097928  1
  Ni  Ni17  1  0.32661058  0.66244025  0.32930821  1
  Cr  Cr18  1  0.66248049  -0.00185300  0.00034651  1
  Ni  Ni19  1  0.83313944  0.16287277  0.16519000  1
  Cr  Cr20  1  0.66581794  -0.00235272  0.32853128  1
  Cr  Cr21  1  0.66189131  0.32965647  -0.00206129  1
  Cr  Cr22  1  0.83227036  0.49703458  0.16319353  1
  Cr  Cr23  1  0.66399723  0.32837117  0.32957901  1
  Cr  Cr24  1  0.66539560  0.66284389  0.99499293  1
  Ni  Ni25  1  0.83314640  0.83048276  0.16504099  1
  Cr  Cr26  1  0.66571249  0.66438778  0.33171861  1
  Cr  Cr27  1  0.16131800  0.16410951  0.49690269  1
  Cr  Cr28  1  -0.00025768  0.99677592  0.66221183  1
  Ni  Ni29  1  0.16601859  0.16345075  0.83043877  1
  Cr  Cr30  1  0.16285896  0.49612336  0.49278501  1
  Ni  Ni31  1  0.99635261  0.33170283  0.66443202  1
  Fe  Fe32  1  0.16439427  0.49605057  0.83120154  1
  Ni  Ni33  1  0.16098623  0.82923573  0.49394556  1
  Cr  Cr34  1  -0.00224780  0.66200581  0.66256286  1
  Ni  Ni35  1  0.16519495  0.82963522  0.83321127  1
  Ni  Ni36  1  0.49822205  0.16460142  0.49475531  1
  Cr  Cr37  1  0.32914904  -0.00289362  0.66485001  1
  Ni  Ni38  1  0.49344701  0.16626076  0.83306284  1
  Cr  Cr39  1  0.49731837  0.49703629  0.49562512  1
  Cr  Cr40  1  0.32887721  0.32913309  0.66419268  1
  Ni  Ni41  1  0.49612137  0.49788830  0.83075967  1
  Cr  Cr42  1  0.49567858  0.82771406  0.49857387  1
  Cr  Cr43  1  0.32876587  0.66420408  0.66569847  1
  Fe  Fe44  1  0.49539400  0.83133179  0.83110117  1
  Ni  Ni45  1  0.83216270  0.16574716  0.49557021  1
  Cr  Cr46  1  0.66173283  -0.00264975  0.66172416  1
  Cr  Cr47  1  0.83226806  0.16464998  0.82928425  1
  Ni  Ni48  1  0.83172669  0.49558233  0.49837367  1
  Cr  Cr49  1  0.66351068  0.33139662  0.66297973  1
  Fe  Fe50  1  0.83086787  0.49701225  0.82910627  1
  Fe  Fe51  1  0.83201847  0.83016332  0.49616737  1
  Ni  Ni52  1  0.66475192  0.66184669  0.66487299  1
  Cr  Cr53  1  0.83045905  0.82909036  0.83029658  1
" 