7055,Ni35Fe20Cr43_2,-222.682687681205, 169.637326305358,Ni35Fe20Cr43,"# generated using pymatgen
 data_Cr24Fe11Ni19
_symmetry_space_group_name_H-M   'P 1'
_cell_length_a   7.49709049
_cell_length_b   7.49709049
_cell_length_c   10.60248705
_cell_angle_alpha   90.00000000
_cell_angle_beta   90.00000000
_cell_angle_gamma   90.00000000
_symmetry_Int_Tables_number   1
_chemical_formula_structural   Cr24Fe11Ni19
_chemical_formula_sum   'Cr24 Fe11 Ni19'
_cell_volume   595.92726610
_cell_formula_units_Z   1
loop_
 _symmetry_equiv_pos_site_id
 _symmetry_equiv_pos_as_xyz
  1  'x, y, z'
loop_
 _atom_site_type_symbol
 _atom_site_label
 _atom_site_symmetry_multiplicity
 _atom_site_fract_x
 _atom_site_fract_y
 _atom_site_fract_z
 _atom_site_occupancy
  Cr  Cr0  1  -0.00177665  -0.00009533  0.99497336  1
  Cr  Cr1  1  0.16464715  0.16711885  0.16387497  1
  Cr  Cr2  1  0.99543717  0.00145060  0.33434902  1
  Ni  Ni3  1  0.99598765  0.32939174  0.99752413  1
  Cr  Cr4  1  0.16573079  0.49535702  0.16438379  1
  Cr  Cr5  1  0.99616836  0.33056048  0.33247538  1
  Cr  Cr6  1  0.99643424  0.66159913  -0.00057832  1
  Cr  Cr7  1  0.16706227  0.83139750  0.16675226  1
  Cr  Cr8  1  0.99550691  0.66228532  0.32763334  1
  Ni  Ni9  1  0.33380262  0.00113404  -0.00057704  1
  Fe  Fe10  1  0.49894666  0.16577027  0.16349024  1
  Cr  Cr11  1  0.33333138  -0.00052629  0.33120051  1
  Fe  Fe12  1  0.33037204  0.33276418  0.99711917  1
  Ni  Ni13  1  0.49887096  0.49688853  0.16488737  1
  Ni  Ni14  1  0.33338478  0.33347245  0.33172132  1
  Cr  Cr15  1  0.33351738  0.66404879  0.99649120  1
  Ni  Ni16  1  0.50119735  0.83252478  0.16503651  1
  Ni  Ni17  1  0.33577021  0.66119755  0.33020665  1
  Fe  Fe18  1  0.66466562  -0.00109316  0.00081616  1
  Ni  Ni19  1  0.82758019  0.16494925  0.16275844  1
  Ni  Ni20  1  0.66492626  -0.00092479  0.32680205  1
  Fe  Fe21  1  0.66447395  0.33126890  -0.00059211  1
  Fe  Fe22  1  0.82895265  0.49370191  0.16292883  1
  Cr  Cr23  1  0.66521273  0.33193518  0.33170386  1
  Cr  Cr24  1  0.66362078  0.66346819  -0.00136276  1
  Fe  Fe25  1  0.82854645  0.83432525  0.16455349  1
  Cr  Cr26  1  0.66334796  0.66257928  0.33075247  1
  Ni  Ni27  1  0.16268564  0.16778469  0.50008320  1
  Fe  Fe28  1  0.99698179  0.00061358  0.66540722  1
  Ni  Ni29  1  0.16288217  0.16876827  0.83143944  1
  Cr  Cr30  1  0.16536489  0.49753126  0.49792182  1
  Ni  Ni31  1  0.99724869  0.32961213  0.66460301  1
  Ni  Ni32  1  0.16405043  0.49312946  0.83020718  1
  Cr  Cr33  1  0.16422971  0.82949211  0.49795240  1
  Ni  Ni34  1  0.99756157  0.66077181  0.66633977  1
  Cr  Cr35  1  0.16341721  0.83021803  0.82926703  1
  Cr  Cr36  1  0.49868939  0.16822741  0.49589058  1
  Cr  Cr37  1  0.32869840  0.00124776  0.66468494  1
  Cr  Cr38  1  0.49924899  0.16821573  0.83574183  1
  Ni  Ni39  1  0.49971421  0.49699080  0.50092123  1
  Fe  Fe40  1  0.33113504  0.33409511  0.66524904  1
  Ni  Ni41  1  0.49816929  0.49560663  0.82802306  1
  Cr  Cr42  1  0.49883532  0.82812740  0.49790986  1
  Ni  Ni43  1  0.33214058  0.66048092  0.66577949  1
  Cr  Cr44  1  0.50049588  0.83060173  0.82977016  1
  Fe  Fe45  1  0.83114929  0.16759891  0.49956679  1
  Cr  Cr46  1  0.66605825  0.00108944  0.66547050  1
  Fe  Fe47  1  0.83271610  0.16792705  0.83127172  1
  Ni  Ni48  1  0.83001201  0.49679291  0.50052295  1
  Ni  Ni49  1  0.66720863  0.33399365  0.66414168  1
  Cr  Cr50  1  0.83098226  0.49668469  0.83066870  1
  Cr  Cr51  1  0.83034708  0.82952589  0.50017324  1
  Ni  Ni52  1  0.66432662  0.65984833  0.66473289  1
  Fe  Fe53  1  0.83173634  0.83027828  0.82873965  1
" 