2046,Ni35Fe41Cr23_3,-230.491173608304, 197.891621092407,Ni35Fe41Cr23,"# generated using pymatgen
 data_Cr13Fe22Ni19
_symmetry_space_group_name_H-M   'P 1'
_cell_length_a   7.44503656
_cell_length_b   7.44503656
_cell_length_c   10.52887168
_cell_angle_alpha   90.00000000
_cell_angle_beta   90.00000000
_cell_angle_gamma   90.00000000
_symmetry_Int_Tables_number   1
_chemical_formula_structural   Cr13Fe22Ni19
_chemical_formula_sum   'Cr13 Fe22 Ni19'
_cell_volume   583.60029499
_cell_formula_units_Z   1
loop_
 _symmetry_equiv_pos_site_id
 _symmetry_equiv_pos_as_xyz
  1  'x, y, z'
loop_
 _atom_site_type_symbol
 _atom_site_label
 _atom_site_symmetry_multiplicity
 _atom_site_fract_x
 _atom_site_fract_y
 _atom_site_fract_z
 _atom_site_occupancy
  Fe  Fe0  1  1.00083355  0.00395086  1.00051208  1
  Cr  Cr1  1  0.16624267  0.17201684  0.17037185  1
  Cr  Cr2  1  0.00234312  1.00019716  0.33790568  1
  Ni  Ni3  1  0.00174013  0.33640130  0.99895455  1
  Fe  Fe4  1  0.16787443  0.50386641  0.16957626  1
  Ni  Ni5  1  0.99859174  0.33573666  0.33629711  1
  Ni  Ni6  1  0.00309868  0.66879877  0.99933071  1
  Fe  Fe7  1  0.16815318  0.83364468  0.16929588  1
  Ni  Ni8  1  0.00289874  0.66789523  0.33777111  1
  Cr  Cr9  1  0.33476578  1.00005049  0.99920446  1
  Ni  Ni10  1  0.50147841  0.16729485  0.17068488  1
  Ni  Ni11  1  0.33555219  1.00071615  0.33777306  1
  Cr  Cr12  1  0.33620581  0.33452004  0.00176060  1
  Fe  Fe13  1  0.50224517  0.50012247  0.16982204  1
  Fe  Fe14  1  0.33644373  0.33327312  0.33587111  1
  Fe  Fe15  1  0.33420647  0.66561515  1.00015512  1
  Cr  Cr16  1  0.50253307  0.83381430  0.16828822  1
  Fe  Fe17  1  0.33457927  0.66780599  0.33495039  1
  Fe  Fe18  1  0.66892944  0.00392681  0.00207497  1
  Ni  Ni19  1  0.83339604  0.16992425  0.16797176  1
  Ni  Ni20  1  0.66635809  0.00454213  0.33560806  1
  Cr  Cr21  1  0.66768735  0.33568761  1.00044727  1
  Cr  Cr22  1  0.83781093  0.50151675  0.16766665  1
  Ni  Ni23  1  0.66564284  0.33502113  0.33587825  1
  Ni  Ni24  1  0.66697290  0.66776232  1.00044462  1
  Cr  Cr25  1  0.83480784  0.83590027  0.16685562  1
  Fe  Fe26  1  0.66972964  0.66762748  0.33642118  1
  Ni  Ni27  1  0.17192157  0.16894894  0.50131856  1
  Cr  Cr28  1  0.00453508  0.99921815  0.66296651  1
  Fe  Fe29  1  0.16812146  0.16922690  0.83310693  1
  Cr  Cr30  1  0.16891705  0.49867426  0.50144876  1
  Cr  Cr31  1  0.99797622  0.33392720  0.66820365  1
  Fe  Fe32  1  0.16684087  0.50138541  0.83386768  1
  Ni  Ni33  1  0.16918348  0.83244930  0.50200709  1
  Fe  Fe34  1  0.99949406  0.66644108  0.66680378  1
  Fe  Fe35  1  0.16885174  0.83267480  0.83263958  1
  Ni  Ni36  1  0.50126980  0.17023627  0.50271640  1
  Fe  Fe37  1  0.33710801  0.00323787  0.66753726  1
  Fe  Fe38  1  0.50412365  0.16804612  0.83144669  1
  Fe  Fe39  1  0.50219068  0.50031117  0.50353634  1
  Ni  Ni40  1  0.33693118  0.33357446  0.66925306  1
  Ni  Ni41  1  0.49874317  0.50318380  0.83296439  1
  Cr  Cr42  1  0.50362650  0.83560782  0.50363311  1
  Fe  Fe43  1  0.33458923  0.66630668  0.66931736  1
  Fe  Fe44  1  0.50230341  0.83350362  0.83287827  1
  Fe  Fe45  1  0.83223015  0.16840152  0.50047619  1
  Fe  Fe46  1  0.66999726  0.00539876  0.66715188  1
  Ni  Ni47  1  0.83528238  0.16829114  0.83612949  1
  Fe  Fe48  1  0.83213185  0.50106274  0.50020017  1
  Ni  Ni49  1  0.66576713  0.33768428  0.66868971  1
  Fe  Fe50  1  0.83225870  0.50176008  0.83505316  1
  Ni  Ni51  1  0.83369277  0.83138847  0.50105698  1
  Ni  Ni52  1  0.66772455  0.66621699  0.66756454  1
  Cr  Cr53  1  0.83289158  0.83503773  0.83596369  1
" 