7489,Ni35Fe41Cr23_2,-230.292502152921, 196.268072835899,Ni35Fe41Cr23,"# generated using pymatgen
 data_Cr13Fe22Ni19
_symmetry_space_group_name_H-M   'P 1'
_cell_length_a   7.44497643
_cell_length_b   7.44497643
_cell_length_c   10.52878664
_cell_angle_alpha   90.00000000
_cell_angle_beta   90.00000000
_cell_angle_gamma   90.00000000
_symmetry_Int_Tables_number   1
_chemical_formula_structural   Cr13Fe22Ni19
_chemical_formula_sum   'Cr13 Fe22 Ni19'
_cell_volume   583.58615362
_cell_formula_units_Z   1
loop_
 _symmetry_equiv_pos_site_id
 _symmetry_equiv_pos_as_xyz
  1  'x, y, z'
loop_
 _atom_site_type_symbol
 _atom_site_label
 _atom_site_symmetry_multiplicity
 _atom_site_fract_x
 _atom_site_fract_y
 _atom_site_fract_z
 _atom_site_occupancy
  Fe  Fe0  1  1.00116542  0.99966887  0.00187635  1
  Fe  Fe1  1  0.16755347  0.16741557  0.16682367  1
  Fe  Fe2  1  0.99859897  1.00129026  0.33694190  1
  Cr  Cr3  1  0.00305687  0.33578082  0.00273632  1
  Ni  Ni4  1  0.16800919  0.50421317  0.16785047  1
  Cr  Cr5  1  0.00173894  0.33502950  0.33428948  1
  Ni  Ni6  1  1.00087656  0.66825813  0.00174608  1
  Cr  Cr7  1  0.16696355  0.83400828  0.16909157  1
  Fe  Fe8  1  0.99907364  0.66858346  0.33573447  1
  Fe  Fe9  1  0.33520132  1.00073001  1.00145119  1
  Ni  Ni10  1  0.50040100  0.16462144  0.16853162  1
  Fe  Fe11  1  0.33552068  1.00128067  0.33503199  1
  Fe  Fe12  1  0.33407737  0.33585336  0.00154484  1
  Cr  Cr13  1  0.50054389  0.50383329  0.16806967  1
  Cr  Cr14  1  0.33237595  0.33313106  0.33355028  1
  Fe  Fe15  1  0.33422312  0.66754577  0.99917194  1
  Fe  Fe16  1  0.50425624  0.83575357  0.16864947  1
  Fe  Fe17  1  0.33397914  0.66941009  0.33572269  1
  Fe  Fe18  1  0.66796431  0.99914491  0.00451892  1
  Ni  Ni19  1  0.83407564  0.16406838  0.16734800  1
  Ni  Ni20  1  0.66898427  0.99969064  0.33398075  1
  Cr  Cr21  1  0.66812760  0.33668246  0.00394655  1
  Ni  Ni22  1  0.83642278  0.50526215  0.16777155  1
  Cr  Cr23  1  0.67014467  0.33362150  0.33404300  1
  Ni  Ni24  1  0.66819365  0.67103480  0.00180496  1
  Ni  Ni25  1  0.83536552  0.83491249  0.16897644  1
  Ni  Ni26  1  0.67118307  0.67205128  0.33304511  1
  Ni  Ni27  1  0.16851902  0.16593560  0.50207473  1
  Cr  Cr28  1  0.00283558  1.00079614  0.66713965  1
  Ni  Ni29  1  0.17067127  0.16745870  0.83612701  1
  Fe  Fe30  1  0.16687003  0.50261308  0.50314740  1
  Fe  Fe31  1  0.00360592  0.33837292  0.66724794  1
  Fe  Fe32  1  0.16725201  0.50168505  0.83426953  1
  Ni  Ni33  1  0.16812265  0.83425944  0.50133843  1
  Ni  Ni34  1  0.00207052  0.66750306  0.66653041  1
  Fe  Fe35  1  0.16908484  0.83348117  0.83483474  1
  Fe  Fe36  1  0.50144856  0.16700835  0.50258319  1
  Fe  Fe37  1  0.33329571  0.99898459  0.66774171  1
  Cr  Cr38  1  0.50098754  0.16833641  0.83149936  1
  Cr  Cr39  1  0.50241290  0.50228981  0.50264380  1
  Ni  Ni40  1  0.33236910  0.33382694  0.66824185  1
  Fe  Fe41  1  0.50163721  0.50341538  0.83354870  1
  Cr  Cr42  1  0.50003529  0.83384358  0.50074596  1
  Ni  Ni43  1  0.33342238  0.66734690  0.67037155  1
  Fe  Fe44  1  0.50059892  0.83269097  0.83425871  1
  Ni  Ni45  1  0.83472937  0.16862287  0.50357911  1
  Fe  Fe46  1  0.66667984  0.99954920  0.66550275  1
  Cr  Cr47  1  0.83617019  0.16988685  0.83371171  1
  Ni  Ni48  1  0.83519502  0.50294948  0.50313754  1
  Fe  Fe49  1  0.66977897  0.33798266  0.66718879  1
  Ni  Ni50  1  0.83453519  0.50402513  0.83345656  1
  Fe  Fe51  1  0.83571555  0.83347053  0.50030718  1
  Ni  Ni52  1  0.66861354  0.66824938  0.66948156  1
  Cr  Cr53  1  0.83530950  0.83258337  0.83508432  1
" 