7189,Ni35Fe16Cr47_11,-220.350185220231, 163.881750726556,Ni35Fe16Cr47,"# generated using pymatgen
 data_Cr27Fe8Ni19
_symmetry_space_group_name_H-M   'P 1'
_cell_length_a   7.50649070
_cell_length_b   7.50649070
_cell_length_c   10.61578096
_cell_angle_alpha   90.00000000
_cell_angle_beta   90.00000000
_cell_angle_gamma   90.00000000
_symmetry_Int_Tables_number   1
_chemical_formula_structural   Cr27Fe8Ni19
_chemical_formula_sum   'Cr27 Fe8 Ni19'
_cell_volume   598.17168395
_cell_formula_units_Z   1
loop_
 _symmetry_equiv_pos_site_id
 _symmetry_equiv_pos_as_xyz
  1  'x, y, z'
loop_
 _atom_site_type_symbol
 _atom_site_label
 _atom_site_symmetry_multiplicity
 _atom_site_fract_x
 _atom_site_fract_y
 _atom_site_fract_z
 _atom_site_occupancy
  Fe  Fe0  1  -0.00208352  0.00182466  -0.00064117  1
  Ni  Ni1  1  0.16555525  0.16677030  0.16422949  1
  Ni  Ni2  1  0.99472101  0.00332709  0.32804468  1
  Cr  Cr3  1  0.99627492  0.32959320  0.99702243  1
  Cr  Cr4  1  0.16484258  0.49367617  0.16529296  1
  Ni  Ni5  1  0.99671722  0.32852397  0.32939666  1
  Cr  Cr6  1  0.99621512  0.66231364  0.99635646  1
  Cr  Cr7  1  0.16434763  0.83611947  0.16520181  1
  Ni  Ni8  1  0.99643631  0.66210244  0.32940824  1
  Ni  Ni9  1  0.33341035  -0.00022065  -0.00093681  1
  Fe  Fe10  1  0.49648839  0.16236794  0.16441853  1
  Cr  Cr11  1  0.33346269  -0.00056128  0.33047134  1
  Ni  Ni12  1  0.33206485  0.32520449  -0.00116308  1
  Fe  Fe13  1  0.49538833  0.49415691  0.16381336  1
  Ni  Ni14  1  0.33095084  0.32895135  0.32943950  1
  Cr  Cr15  1  0.33166384  0.66502771  0.99712437  1
  Ni  Ni16  1  0.49745651  0.83362795  0.16406611  1
  Cr  Cr17  1  0.33245601  0.66295261  0.33275049  1
  Cr  Cr18  1  0.66236336  -0.00030150  0.99627252  1
  Ni  Ni19  1  0.83216349  0.16469008  0.16641926  1
  Ni  Ni20  1  0.66357876  -0.00085907  0.33237894  1
  Cr  Cr21  1  0.66466564  0.32825181  0.00166811  1
  Ni  Ni22  1  0.83101601  0.49393377  0.16670104  1
  Cr  Cr23  1  0.66296633  0.32774799  0.32769571  1
  Cr  Cr24  1  0.66351264  0.66300289  0.00255471  1
  Cr  Cr25  1  0.82961671  0.83286451  0.16685883  1
  Cr  Cr26  1  0.66212285  0.66284642  0.32736677  1
  Cr  Cr27  1  0.16217162  0.16729824  0.49353065  1
  Cr  Cr28  1  0.99565982  0.00044995  0.66345647  1
  Cr  Cr29  1  0.16657412  0.16664413  0.83309293  1
  Cr  Cr30  1  0.16671656  0.49400707  0.49956621  1
  Ni  Ni31  1  0.99627249  0.32812644  0.66516743  1
  Fe  Fe32  1  0.16617023  0.49558842  0.82881295  1
  Cr  Cr33  1  0.16364974  0.83109017  0.49315676  1
  Cr  Cr34  1  0.00099371  0.66330171  0.66577359  1
  Cr  Cr35  1  0.16617260  0.83424676  0.83350348  1
  Fe  Fe36  1  0.49872090  0.16561401  0.49735198  1
  Cr  Cr37  1  0.33315332  0.99621946  0.66163269  1
  Fe  Fe38  1  0.49883570  0.16253960  0.83006505  1
  Fe  Fe39  1  0.49736881  0.49350629  0.49924502  1
  Ni  Ni40  1  0.33339623  0.32965029  0.66434655  1
  Cr  Cr41  1  0.49555281  0.49420449  0.83076509  1
  Ni  Ni42  1  0.49888402  0.83098835  0.49846755  1
  Ni  Ni43  1  0.33494256  0.66276117  0.66429224  1
  Ni  Ni44  1  0.49541954  0.83164249  0.83005937  1
  Ni  Ni45  1  0.82745384  0.16590861  0.49731360  1
  Fe  Fe46  1  0.66226248  0.00068899  0.66260294  1
  Ni  Ni47  1  0.82981197  0.16629318  0.82789291  1
  Cr  Cr48  1  0.83068515  0.49376092  0.49644418  1
  Ni  Ni49  1  0.66333800  0.32545110  0.66342699  1
  Cr  Cr50  1  0.82728447  0.49488792  0.82900740  1
  Cr  Cr51  1  0.82898941  0.83508509  0.49250929  1
  Cr  Cr52  1  0.66272609  0.66484101  0.66263253  1
  Cr  Cr53  1  0.82654732  0.83539691  0.83180055  1
" 