6946,Ni35Fe15Cr49_2,-219.845597943856, 158.234463857795,Ni35Fe15Cr49,"# generated using pymatgen
 data_Cr27Fe8Ni19
_symmetry_space_group_name_H-M   'P 1'
_cell_length_a   7.50727206
_cell_length_b   7.50727206
_cell_length_c   10.61688597
_cell_angle_alpha   90.00000000
_cell_angle_beta   90.00000000
_cell_angle_gamma   90.00000000
_symmetry_Int_Tables_number   1
_chemical_formula_structural   Cr27Fe8Ni19
_chemical_formula_sum   'Cr27 Fe8 Ni19'
_cell_volume   598.35849713
_cell_formula_units_Z   1
loop_
 _symmetry_equiv_pos_site_id
 _symmetry_equiv_pos_as_xyz
  1  'x, y, z'
loop_
 _atom_site_type_symbol
 _atom_site_label
 _atom_site_symmetry_multiplicity
 _atom_site_fract_x
 _atom_site_fract_y
 _atom_site_fract_z
 _atom_site_occupancy
  Cr  Cr0  1  -0.00029567  0.99639831  0.99637904  1
  Cr  Cr1  1  0.16747187  0.16330846  0.16532586  1
  Cr  Cr2  1  0.99418736  -0.00114975  0.33255487  1
  Cr  Cr3  1  0.99560697  0.33250120  0.99597698  1
  Cr  Cr4  1  0.16691806  0.49675854  0.16526830  1
  Cr  Cr5  1  0.99606872  0.33036752  0.33280992  1
  Cr  Cr6  1  -0.00243643  0.66322082  0.99687818  1
  Cr  Cr7  1  0.16373835  0.83197472  0.16456741  1
  Cr  Cr8  1  0.99277534  0.66217222  0.33034833  1
  Ni  Ni9  1  0.33260248  0.99677569  0.99528222  1
  Fe  Fe10  1  0.49670509  0.16274571  0.16466288  1
  Ni  Ni11  1  0.33493196  0.00094976  0.33381317  1
  Fe  Fe12  1  0.33141891  0.32913770  0.99654996  1
  Cr  Cr13  1  0.49630554  0.49305502  0.16392299  1
  Ni  Ni14  1  0.33223246  0.32448103  0.33212991  1
  Fe  Fe15  1  0.33098705  0.66503532  0.99429762  1
  Cr  Cr16  1  0.49693688  0.83202869  0.16490685  1
  Cr  Cr17  1  0.33430126  0.66530387  0.33246838  1
  Cr  Cr18  1  0.66103530  -0.00244223  -0.00195404  1
  Cr  Cr19  1  0.82709841  0.16186811  0.16155756  1
  Ni  Ni20  1  0.66068518  -0.00210610  0.33282593  1
  Ni  Ni21  1  0.66127974  0.33226428  -0.00230777  1
  Ni  Ni22  1  0.82806273  0.49702395  0.16158455  1
  Cr  Cr23  1  0.66491521  0.32926899  0.33085284  1
  Cr  Cr24  1  0.66352602  0.66285071  0.99694648  1
  Ni  Ni25  1  0.82803746  0.83037003  0.16615856  1
  Cr  Cr26  1  0.66560152  0.66567506  0.33309672  1
  Fe  Fe27  1  0.16560505  0.16406524  0.49863465  1
  Cr  Cr28  1  -0.00097493  -0.00148078  0.66262594  1
  Cr  Cr29  1  0.16515192  0.16395691  0.82857644  1
  Cr  Cr30  1  0.16442601  0.49560483  0.49713568  1
  Ni  Ni31  1  0.99666146  0.33356584  0.66332166  1
  Ni  Ni32  1  0.16603922  0.49862581  0.82985980  1
  Cr  Cr33  1  0.16383961  0.83125396  0.49636807  1
  Ni  Ni34  1  0.99566334  0.66023822  0.66536763  1
  Ni  Ni35  1  0.16661391  0.82839917  0.83111076  1
  Ni  Ni36  1  0.49794955  0.16207795  0.49694166  1
  Ni  Ni37  1  0.33466429  -0.00060176  0.66334561  1
  Cr  Cr38  1  0.49892923  0.16466486  0.83049794  1
  Cr  Cr39  1  0.49773225  0.49559391  0.49843509  1
  Fe  Fe40  1  0.33004906  0.32915971  0.66237661  1
  Cr  Cr41  1  0.49886652  0.49628845  0.82904923  1
  Ni  Ni42  1  0.50038663  0.83582360  0.50020939  1
  Cr  Cr43  1  0.33192145  0.66793908  0.66626621  1
  Fe  Fe44  1  0.49591241  0.83241454  0.82818121  1
  Ni  Ni45  1  0.82686208  0.16313271  0.50050251  1
  Ni  Ni46  1  0.66016719  0.99689192  0.66088299  1
  Cr  Cr47  1  0.82772460  0.16571249  0.82850290  1
  Ni  Ni48  1  0.83038890  0.49685895  0.50303824  1
  Fe  Fe49  1  0.66512181  0.32958067  0.66177548  1
  Fe  Fe50  1  0.83212149  0.49732111  0.82756234  1
  Ni  Ni51  1  0.82731056  0.83200278  0.49879422  1
  Ni  Ni52  1  0.66552722  0.66458409  0.66253300  1
  Cr  Cr53  1  0.82997364  0.83182034  0.82653329  1
" 