4626,Ni35Fe20Cr43_19,-222.869018236913, 177.945425849777,Ni35Fe20Cr43,"# generated using pymatgen
 data_Cr24Fe11Ni19
_symmetry_space_group_name_H-M   'P 1'
_cell_length_a   7.49195107
_cell_length_b   7.49195107
_cell_length_c   10.59521881
_cell_angle_alpha   90.00000000
_cell_angle_beta   90.00000000
_cell_angle_gamma   90.00000000
_symmetry_Int_Tables_number   1
_chemical_formula_structural   Cr24Fe11Ni19
_chemical_formula_sum   'Cr24 Fe11 Ni19'
_cell_volume   594.70254221
_cell_formula_units_Z   1
loop_
 _symmetry_equiv_pos_site_id
 _symmetry_equiv_pos_as_xyz
  1  'x, y, z'
loop_
 _atom_site_type_symbol
 _atom_site_label
 _atom_site_symmetry_multiplicity
 _atom_site_fract_x
 _atom_site_fract_y
 _atom_site_fract_z
 _atom_site_occupancy
  Fe  Fe0  1  0.00084102  0.99817125  -0.00113701  1
  Cr  Cr1  1  0.16747201  0.16469783  0.16552579  1
  Cr  Cr2  1  0.99665687  0.99778393  0.33132727  1
  Cr  Cr3  1  0.99751439  0.33105872  0.99765799  1
  Ni  Ni4  1  0.16608815  0.50079829  0.16825720  1
  Cr  Cr5  1  0.00148575  0.33139330  0.33514517  1
  Fe  Fe6  1  -0.00000253  0.66539806  -0.00095758  1
  Fe  Fe7  1  0.16530323  0.83068003  0.16545146  1
  Ni  Ni8  1  0.00068762  0.66604490  0.33071341  1
  Ni  Ni9  1  0.33048382  0.00018395  0.99812883  1
  Ni  Ni10  1  0.49785116  0.16472455  0.16486765  1
  Fe  Fe11  1  0.33247714  0.99671729  0.33198004  1
  Cr  Cr12  1  0.33368150  0.33212802  0.99791555  1
  Fe  Fe13  1  0.49679700  0.49679500  0.16722350  1
  Fe  Fe14  1  0.33169129  0.33498284  0.33198233  1
  Cr  Cr15  1  0.33175410  0.66562020  0.00044994  1
  Cr  Cr16  1  0.49584209  0.83258784  0.16878440  1
  Ni  Ni17  1  0.33265773  0.66375479  0.33112293  1
  Cr  Cr18  1  0.66415810  -0.00008094  0.00001894  1
  Ni  Ni19  1  0.82930417  0.16484818  0.16412522  1
  Fe  Fe20  1  0.66380645  0.99490305  0.33244656  1
  Fe  Fe21  1  0.66248827  0.33117287  -0.00151098  1
  Cr  Cr22  1  0.83276397  0.49843876  0.16379953  1
  Cr  Cr23  1  0.66336678  0.33075557  0.32816000  1
  Cr  Cr24  1  0.66342208  0.66279677  0.99634534  1
  Cr  Cr25  1  0.83290747  0.83048509  0.16599406  1
  Ni  Ni26  1  0.66215049  0.66686315  0.33441196  1
  Ni  Ni27  1  0.16776319  0.16397379  0.49896704  1
  Ni  Ni28  1  -0.00138479  0.99764842  0.66512922  1
  Ni  Ni29  1  0.16708614  0.16211133  0.83073109  1
  Fe  Fe30  1  0.16807887  0.50174508  0.49701651  1
  Cr  Cr31  1  0.00091294  0.33032082  0.66213330  1
  Cr  Cr32  1  0.16361510  0.49985516  0.82901300  1
  Cr  Cr33  1  0.16619556  0.83116504  0.49947066  1
  Ni  Ni34  1  0.99778419  0.66751149  0.66486130  1
  Cr  Cr35  1  0.16576478  0.83408934  0.83339749  1
  Cr  Cr36  1  0.49595580  0.16259716  0.49766014  1
  Fe  Fe37  1  0.33094083  0.99730102  0.66475164  1
  Fe  Fe38  1  0.49663684  0.16455748  0.83202659  1
  Ni  Ni39  1  0.49607833  0.50252220  0.49662870  1
  Cr  Cr40  1  0.33122907  0.33318673  0.66422735  1
  Ni  Ni41  1  0.50062821  0.49830506  0.83170348  1
  Ni  Ni42  1  0.49928849  0.82889959  0.49861644  1
  Ni  Ni43  1  0.33449206  0.66464292  0.66349175  1
  Cr  Cr44  1  0.49678363  0.83215541  0.82662295  1
  Cr  Cr45  1  0.83170670  0.16176517  0.49846590  1
  Ni  Ni46  1  0.66557125  0.99462427  0.66218367  1
  Cr  Cr47  1  0.83234872  0.16525377  0.83193673  1
  Cr  Cr48  1  0.83114875  0.50344452  0.49984309  1
  Cr  Cr49  1  0.66310614  0.33383589  0.66928649  1
  Ni  Ni50  1  0.82941562  0.49950562  0.83186467  1
  Ni  Ni51  1  0.82974370  0.82945045  0.49938853  1
  Ni  Ni52  1  0.66284504  0.66696786  0.66370520  1
  Cr  Cr53  1  0.83286595  0.82911236  0.82889875  1
" 