5227,Ni35Fe47Cr17_4,-231.434047311309, 198.110810934745,Ni35Fe47Cr17,"# generated using pymatgen
 data_Cr11Fe25Ni18
_symmetry_space_group_name_H-M   'P 1'
_cell_length_a   7.43760410
_cell_length_b   7.43760410
_cell_length_c   10.51836059
_cell_angle_alpha   90.00000000
_cell_angle_beta   90.00000000
_cell_angle_gamma   90.00000000
_symmetry_Int_Tables_number   1
_chemical_formula_structural   Cr11Fe25Ni18
_chemical_formula_sum   'Cr11 Fe25 Ni18'
_cell_volume   581.85419534
_cell_formula_units_Z   1
loop_
 _symmetry_equiv_pos_site_id
 _symmetry_equiv_pos_as_xyz
  1  'x, y, z'
loop_
 _atom_site_type_symbol
 _atom_site_label
 _atom_site_symmetry_multiplicity
 _atom_site_fract_x
 _atom_site_fract_y
 _atom_site_fract_z
 _atom_site_occupancy
  Fe  Fe0  1  1.00120385  1.00050296  0.00289048  1
  Fe  Fe1  1  0.16942376  0.16665846  0.16989097  1
  Ni  Ni2  1  0.00338313  0.00469002  0.33479356  1
  Cr  Cr3  1  0.00238287  0.33416874  0.00507138  1
  Fe  Fe4  1  0.16771059  0.50234195  0.17131737  1
  Ni  Ni5  1  0.99990821  0.33393104  0.33555638  1
  Fe  Fe6  1  1.00016336  0.67076978  1.00170654  1
  Fe  Fe7  1  0.16921175  0.83716394  0.17028798  1
  Fe  Fe8  1  0.00497908  0.66714471  0.33467148  1
  Ni  Ni9  1  0.33426522  1.00109140  1.00190704  1
  Cr  Cr10  1  0.50168631  0.16777401  0.16873507  1
  Ni  Ni11  1  0.33332150  0.99920767  0.33562406  1
  Fe  Fe12  1  0.33408466  0.33219489  1.00142263  1
  Cr  Cr13  1  0.49945663  0.50182916  0.16949582  1
  Ni  Ni14  1  0.33222202  0.33567829  0.33608871  1
  Cr  Cr15  1  0.33485016  0.67173160  1.00177932  1
  Ni  Ni16  1  0.50300573  0.83558844  0.16977262  1
  Ni  Ni17  1  0.33605071  0.67078034  0.33718721  1
  Ni  Ni18  1  0.66841494  1.00031473  1.00092265  1
  Ni  Ni19  1  0.83656211  0.16479957  0.17013420  1
  Fe  Fe20  1  0.66939021  0.00355764  0.33375630  1
  Cr  Cr21  1  0.67368054  0.33452722  1.00124179  1
  Fe  Fe22  1  0.83505876  0.50329509  0.17053242  1
  Ni  Ni23  1  0.67299199  0.33679701  0.33687140  1
  Ni  Ni24  1  0.67024117  0.67121580  0.00234562  1
  Fe  Fe25  1  0.83444813  0.83613695  0.16901653  1
  Fe  Fe26  1  0.66818902  0.66833445  0.33531301  1
  Fe  Fe27  1  0.16623950  0.17071276  0.50102545  1
  Fe  Fe28  1  1.00153611  0.00336176  0.66886531  1
  Ni  Ni29  1  0.16853127  0.16886501  0.83556060  1
  Ni  Ni30  1  0.16844601  0.50246830  0.50151509  1
  Ni  Ni31  1  1.00036092  0.33434971  0.66745111  1
  Ni  Ni32  1  0.16623842  0.50182884  0.83533934  1
  Fe  Fe33  1  0.16810083  0.83585811  0.49914584  1
  Fe  Fe34  1  0.00317662  0.66713512  0.66915202  1
  Fe  Fe35  1  0.16630740  0.83718737  0.83598957  1
  Cr  Cr36  1  0.50305098  0.17038578  0.49960940  1
  Cr  Cr37  1  0.33504849  1.00069803  0.66725772  1
  Ni  Ni38  1  0.50160358  0.16688355  0.83610822  1
  Ni  Ni39  1  0.49977643  0.50131835  0.49989107  1
  Fe  Fe40  1  0.33221194  0.33546806  0.66829289  1
  Cr  Cr41  1  0.50001178  0.49880782  0.83630677  1
  Fe  Fe42  1  0.50262858  0.83515794  0.49828885  1
  Cr  Cr43  1  0.33531023  0.67110839  0.66705392  1
  Fe  Fe44  1  0.50285226  0.83803931  0.83715550  1
  Ni  Ni45  1  0.83654235  0.16675869  0.50264342  1
  Fe  Fe46  1  0.67050750  0.00418705  0.67081220  1
  Fe  Fe47  1  0.83670328  0.16768191  0.83360705  1
  Fe  Fe48  1  0.83619032  0.49910583  0.50158139  1
  Fe  Fe49  1  0.66926146  0.33334410  0.66794615  1
  Fe  Fe50  1  0.83817183  0.50196192  0.83441756  1
  Cr  Cr51  1  0.83806813  0.83768559  0.49961200  1
  Cr  Cr52  1  0.66709526  0.66806340  0.66810198  1
  Fe  Fe53  1  0.83662797  0.83623729  0.83582289  1
" 