7409,Ni35Fe41Cr23_9,-230.261857968396, 194.730386633939,Ni35Fe41Cr23,"# generated using pymatgen
 data_Cr13Fe22Ni19
_symmetry_space_group_name_H-M   'P 1'
_cell_length_a   7.44554401
_cell_length_b   7.44554401
_cell_length_c   10.52958932
_cell_angle_alpha   90.00000000
_cell_angle_beta   90.00000000
_cell_angle_gamma   90.00000000
_symmetry_Int_Tables_number   1
_chemical_formula_structural   Cr13Fe22Ni19
_chemical_formula_sum   'Cr13 Fe22 Ni19'
_cell_volume   583.71963638
_cell_formula_units_Z   1
loop_
 _symmetry_equiv_pos_site_id
 _symmetry_equiv_pos_as_xyz
  1  'x, y, z'
loop_
 _atom_site_type_symbol
 _atom_site_label
 _atom_site_symmetry_multiplicity
 _atom_site_fract_x
 _atom_site_fract_y
 _atom_site_fract_z
 _atom_site_occupancy
  Ni  Ni0  1  0.00506612  0.99908002  0.99954671  1
  Cr  Cr1  1  0.16699112  0.16497745  0.16812124  1
  Ni  Ni2  1  0.00196528  1.00120561  0.33588497  1
  Cr  Cr3  1  0.00372169  0.33866121  0.99913604  1
  Ni  Ni4  1  0.17002736  0.50420856  0.16889081  1
  Cr  Cr5  1  0.00367933  0.33552590  0.33776267  1
  Ni  Ni6  1  0.00263356  0.66806267  1.00081566  1
  Ni  Ni7  1  0.16961979  0.83273876  0.16842357  1
  Fe  Fe8  1  1.00106336  0.66773668  0.33407009  1
  Ni  Ni9  1  0.33574990  0.00208912  1.00110437  1
  Fe  Fe10  1  0.49903503  0.16762356  0.16724784  1
  Fe  Fe11  1  0.33557736  0.00196995  0.33463549  1
  Fe  Fe12  1  0.33527538  0.33501301  0.00266846  1
  Fe  Fe13  1  0.50007970  0.50193688  0.16976192  1
  Ni  Ni14  1  0.33541282  0.33513434  0.33460783  1
  Fe  Fe15  1  0.33128058  0.66989020  0.00203964  1
  Ni  Ni16  1  0.49832411  0.83298095  0.16862441  1
  Fe  Fe17  1  0.33587632  0.66848575  0.33384002  1
  Fe  Fe18  1  0.66635701  1.00076729  1.00053629  1
  Cr  Cr19  1  0.83362361  0.16910723  0.16677000  1
  Cr  Cr20  1  0.66551940  0.99910933  0.33574668  1
  Fe  Fe21  1  0.66618702  0.33434494  0.00150150  1
  Fe  Fe22  1  0.83574219  0.50361778  0.16863901  1
  Fe  Fe23  1  0.66685865  0.33550054  0.33484707  1
  Cr  Cr24  1  0.66806503  0.66835448  1.00003973  1
  Cr  Cr25  1  0.83858944  0.83631512  0.16689976  1
  Ni  Ni26  1  0.66688801  0.66792384  0.33614144  1
  Ni  Ni27  1  0.16910611  0.16853188  0.50167275  1
  Cr  Cr28  1  1.00086233  1.00111253  0.66877257  1
  Fe  Fe29  1  0.17130323  0.16659179  0.83481559  1
  Fe  Fe30  1  0.17028328  0.50115924  0.50249624  1
  Fe  Fe31  1  0.00223512  0.33677383  0.66713964  1
  Fe  Fe32  1  0.16779599  0.50373686  0.83383094  1
  Cr  Cr33  1  0.16938736  0.83408172  0.49810367  1
  Ni  Ni34  1  0.00226851  0.66573820  0.66897404  1
  Ni  Ni35  1  0.16678005  0.83331500  0.83728537  1
  Ni  Ni36  1  0.50017549  0.16872390  0.50173398  1
  Fe  Fe37  1  0.33467360  0.00146208  0.66789137  1
  Ni  Ni38  1  0.50010549  0.16965778  0.83517444  1
  Cr  Cr39  1  0.50174748  0.50287893  0.50236840  1
  Fe  Fe40  1  0.33273726  0.33183600  0.66685375  1
  Cr  Cr41  1  0.50078311  0.49976722  0.83336317  1
  Ni  Ni42  1  0.50109042  0.83451000  0.50361437  1
  Ni  Ni43  1  0.33264799  0.66679001  0.66855224  1
  Cr  Cr44  1  0.49963852  0.83555615  0.83203203  1
  Fe  Fe45  1  0.83310270  0.16734670  0.50228138  1
  Ni  Ni46  1  0.66588022  0.00222627  0.66783051  1
  Cr  Cr47  1  0.83334806  0.16763218  0.83631197  1
  Fe  Fe48  1  0.83531480  0.50284377  0.50318651  1
  Fe  Fe49  1  0.66932161  0.33348842  0.66787512  1
  Ni  Ni50  1  0.83563121  0.50224490  0.83329132  1
  Fe  Fe51  1  0.83345526  0.83385450  0.50250335  1
  Fe  Fe52  1  0.67139157  0.67051229  0.66738060  1
  Ni  Ni53  1  0.83770318  0.83324582  0.83434061  1
" 