7676,Ni35Fe47Cr17_15,-231.719118156015, 197.549026704517,Ni35Fe47Cr17,"# generated using pymatgen
 data_Cr11Fe25Ni18
_symmetry_space_group_name_H-M   'P 1'
_cell_length_a   7.44439403
_cell_length_b   7.44439403
_cell_length_c   10.52796300
_cell_angle_alpha   90.00000000
_cell_angle_beta   90.00000000
_cell_angle_gamma   90.00000000
_symmetry_Int_Tables_number   1
_chemical_formula_structural   Cr11Fe25Ni18
_chemical_formula_sum   'Cr11 Fe25 Ni18'
_cell_volume   583.44920743
_cell_formula_units_Z   1
loop_
 _symmetry_equiv_pos_site_id
 _symmetry_equiv_pos_as_xyz
  1  'x, y, z'
loop_
 _atom_site_type_symbol
 _atom_site_label
 _atom_site_symmetry_multiplicity
 _atom_site_fract_x
 _atom_site_fract_y
 _atom_site_fract_z
 _atom_site_occupancy
  Ni  Ni0  1  0.99941893  0.99971554  0.00240717  1
  Fe  Fe1  1  0.16662469  0.16745643  0.16612196  1
  Fe  Fe2  1  0.00252814  0.00242645  0.33340793  1
  Fe  Fe3  1  0.99970766  0.33323739  0.00387623  1
  Fe  Fe4  1  0.16642814  0.50098891  0.16761785  1
  Ni  Ni5  1  0.00169099  0.33514393  0.33386285  1
  Fe  Fe6  1  0.99917553  0.66824445  1.00132371  1
  Ni  Ni7  1  0.16712339  0.83412299  0.16567492  1
  Fe  Fe8  1  1.00048597  0.66860891  0.33399329  1
  Fe  Fe9  1  0.33559797  0.00284364  0.00187754  1
  Fe  Fe10  1  0.50174412  0.16864122  0.16550150  1
  Cr  Cr11  1  0.33433092  1.00089966  0.33439991  1
  Ni  Ni12  1  0.33708943  0.33705276  0.00575402  1
  Fe  Fe13  1  0.50171925  0.50096526  0.16504368  1
  Fe  Fe14  1  0.33220778  0.33304796  0.33424520  1
  Ni  Ni15  1  0.33125293  0.66848512  1.00086479  1
  Cr  Cr16  1  0.50331966  0.83407175  0.16426363  1
  Cr  Cr17  1  0.33370275  0.66476333  0.33610027  1
  Ni  Ni18  1  0.67125059  0.00533282  1.00011905  1
  Ni  Ni19  1  0.83708966  0.16963002  0.16760777  1
  Cr  Cr20  1  0.67121273  0.00257448  0.33547285  1
  Ni  Ni21  1  0.66913982  0.33268455  0.00155254  1
  Fe  Fe22  1  0.83547830  0.50247595  0.16704662  1
  Cr  Cr23  1  0.66595670  0.33434337  0.33362360  1
  Fe  Fe24  1  0.66856587  0.66807292  0.99966438  1
  Fe  Fe25  1  0.83758678  0.83618251  0.16609642  1
  Fe  Fe26  1  0.66951737  0.66826989  0.33522736  1
  Fe  Fe27  1  0.16723415  0.16876210  0.50224375  1
  Ni  Ni28  1  0.00197649  1.00149505  0.66625216  1
  Cr  Cr29  1  0.16797324  0.16688880  0.83507215  1
  Ni  Ni30  1  0.16801241  0.49880216  0.50078934  1
  Fe  Fe31  1  1.00016102  0.33300444  0.66747556  1
  Cr  Cr32  1  0.16670303  0.49817593  0.83657490  1
  Fe  Fe33  1  0.16811578  0.83480108  0.50144445  1
  Cr  Cr34  1  0.00524086  0.67024592  0.67262455  1
  Fe  Fe35  1  0.16732881  0.83579333  0.83726196  1
  Ni  Ni36  1  0.49892614  0.16727578  0.50287208  1
  Fe  Fe37  1  0.33464011  0.99941564  0.66707253  1
  Fe  Fe38  1  0.50380550  0.16936675  0.83664107  1
  Fe  Fe39  1  0.49991364  0.50046081  0.50488871  1
  Fe  Fe40  1  0.33447603  0.33360722  0.66637411  1
  Cr  Cr41  1  0.50222002  0.50387395  0.83227163  1
  Ni  Ni42  1  0.50258072  0.83420780  0.50310273  1
  Ni  Ni43  1  0.33382441  0.66914725  0.66657875  1
  Ni  Ni44  1  0.49992957  0.83663414  0.83588787  1
  Fe  Fe45  1  0.83678572  0.16863301  0.50167058  1
  Cr  Cr46  1  0.67001769  0.00551009  0.66990091  1
  Ni  Ni47  1  0.83750118  0.16915935  0.83426564  1
  Cr  Cr48  1  0.83556973  0.50208145  0.50346309  1
  Ni  Ni49  1  0.66798600  0.33324025  0.66917185  1
  Ni  Ni50  1  0.83406579  0.49899502  0.83626389  1
  Fe  Fe51  1  0.83610398  0.83565056  0.50210423  1
  Fe  Fe52  1  0.66847139  0.67049462  0.66975437  1
  Ni  Ni53  1  0.83265256  0.83615734  0.83739213  1
" 