5079,Ni35Cr65_11,-226.119099113897, 144.396080506661,Ni35Cr65,"# generated using pymatgen
 data_CrNi2
_symmetry_space_group_name_H-M   'P 1'
_cell_length_a   7.49346768
_cell_length_b   7.49346768
_cell_length_c   10.59736362
_cell_angle_alpha   90.00000000
_cell_angle_beta   90.00000000
_cell_angle_gamma   90.00000000
_symmetry_Int_Tables_number   1
_chemical_formula_structural   CrNi2
_chemical_formula_sum   'Cr18 Ni36'
_cell_volume   595.06377562
_cell_formula_units_Z   18
loop_
 _symmetry_equiv_pos_site_id
 _symmetry_equiv_pos_as_xyz
  1  'x, y, z'
loop_
 _atom_site_type_symbol
 _atom_site_label
 _atom_site_symmetry_multiplicity
 _atom_site_fract_x
 _atom_site_fract_y
 _atom_site_fract_z
 _atom_site_occupancy
  Ni  Ni0  1  -0.00139280  0.00256731  0.99501499  1
  Ni  Ni1  1  0.16254763  0.16608540  0.16256763  1
  Ni  Ni2  1  0.99812247  -0.00056623  0.33254522  1
  Ni  Ni3  1  -0.00077774  0.32962973  0.99747282  1
  Ni  Ni4  1  0.16589326  0.49695906  0.16360337  1
  Cr  Cr5  1  -0.00133296  0.33023958  0.33383912  1
  Cr  Cr6  1  -0.00080586  0.66404470  0.99172769  1
  Cr  Cr7  1  0.16308213  0.83011811  0.16435140  1
  Ni  Ni8  1  -0.00055589  0.66572892  0.33363269  1
  Cr  Cr9  1  0.33085607  0.99799574  0.99804912  1
  Ni  Ni10  1  0.49924033  0.16472713  0.16306923  1
  Cr  Cr11  1  0.33217279  -0.00163047  0.33249228  1
  Ni  Ni12  1  0.33009349  0.33108199  0.99705397  1
  Cr  Cr13  1  0.49598237  0.49828559  0.16324610  1
  Cr  Cr14  1  0.32918750  0.32963053  0.33105972  1
  Ni  Ni15  1  0.33018155  0.66216890  0.99723238  1
  Ni  Ni16  1  0.49770443  0.83148491  0.16799736  1
  Ni  Ni17  1  0.33117075  0.66766460  0.33115058  1
  Cr  Cr18  1  0.66555231  -0.00043046  -0.00152317  1
  Ni  Ni19  1  0.83299217  0.16414175  0.16393030  1
  Ni  Ni20  1  0.66554862  0.99738262  0.33034614  1
  Ni  Ni21  1  0.66562639  0.32953518  0.99554793  1
  Cr  Cr22  1  0.83404509  0.49775931  0.16552297  1
  Cr  Cr23  1  0.66685926  0.32953155  0.33330386  1
  Cr  Cr24  1  0.66352037  0.66473885  0.99441577  1
  Cr  Cr25  1  0.83229523  0.83425889  0.16621447  1
  Ni  Ni26  1  0.66402327  0.66776985  0.33320583  1
  Ni  Ni27  1  0.16270727  0.16066365  0.50115362  1
  Ni  Ni28  1  -0.00056184  0.99789809  0.66630671  1
  Ni  Ni29  1  0.16463338  0.16497360  0.83124504  1
  Cr  Cr30  1  0.16599726  0.50095766  0.49878008  1
  Cr  Cr31  1  0.99745770  0.33167383  0.66365346  1
  Ni  Ni32  1  0.16691910  0.49764897  0.83216648  1
  Ni  Ni33  1  0.16525275  0.83274312  0.49987905  1
  Ni  Ni34  1  -0.00156045  0.66624299  0.66698739  1
  Ni  Ni35  1  0.16293358  0.83203508  0.82896515  1
  Cr  Cr36  1  0.49876082  0.16346952  0.50450167  1
  Ni  Ni37  1  0.32960610  0.99772159  0.66471404  1
  Ni  Ni38  1  0.49827944  0.16852565  0.82949606  1
  Cr  Cr39  1  0.49889806  0.49985094  0.50206582  1
  Ni  Ni40  1  0.33117288  0.33015675  0.66830441  1
  Ni  Ni41  1  0.49684975  0.49536831  0.83025347  1
  Ni  Ni42  1  0.49763957  0.83102276  0.49885386  1
  Ni  Ni43  1  0.33044382  0.66637977  0.66632379  1
  Cr  Cr44  1  0.49679977  0.83182870  0.82806940  1
  Ni  Ni45  1  0.83208782  0.16269805  0.49922053  1
  Ni  Ni46  1  0.66563757  -0.00125685  0.66593041  1
  Ni  Ni47  1  0.83204023  0.16474967  0.83164885  1
  Ni  Ni48  1  0.83076035  0.49991030  0.49945979  1
  Ni  Ni49  1  0.66596947  0.33152657  0.66742200  1
  Ni  Ni50  1  0.83097814  0.49645289  0.82956810  1
  Cr  Cr51  1  0.83279730  0.83243372  0.49853210  1
  Ni  Ni52  1  0.66588341  0.66443804  0.66610958  1
  Ni  Ni53  1  0.83458937  0.83378843  0.82812416  1
" 