1730,Ni35Fe41Cr23_8,-230.537086788435, 195.470055815338,Ni35Fe41Cr23,"# generated using pymatgen
 data_Cr13Fe22Ni19
_symmetry_space_group_name_H-M   'P 1'
_cell_length_a   7.44920054
_cell_length_b   7.44920054
_cell_length_c   10.53476044
_cell_angle_alpha   90.00000000
_cell_angle_beta   90.00000000
_cell_angle_gamma   90.00000000
_symmetry_Int_Tables_number   1
_chemical_formula_structural   Cr13Fe22Ni19
_chemical_formula_sum   'Cr13 Fe22 Ni19'
_cell_volume   584.58005922
_cell_formula_units_Z   1
loop_
 _symmetry_equiv_pos_site_id
 _symmetry_equiv_pos_as_xyz
  1  'x, y, z'
loop_
 _atom_site_type_symbol
 _atom_site_label
 _atom_site_symmetry_multiplicity
 _atom_site_fract_x
 _atom_site_fract_y
 _atom_site_fract_z
 _atom_site_occupancy
  Cr  Cr0  1  0.00151352  0.00244032  0.00478766  1
  Fe  Fe1  1  0.17066182  0.17007877  0.16836669  1
  Fe  Fe2  1  0.00146637  0.00247818  0.33487600  1
  Ni  Ni3  1  0.00258661  0.33537882  0.00128894  1
  Fe  Fe4  1  0.16881929  0.49808789  0.16872684  1
  Ni  Ni5  1  0.99988599  0.33430976  0.33333483  1
  Cr  Cr6  1  0.00153129  0.66527627  0.00168956  1
  Fe  Fe7  1  0.17025627  0.83571436  0.16934630  1
  Cr  Cr8  1  1.00055267  0.66819526  0.33412334  1
  Ni  Ni9  1  0.33590222  0.00535754  1.00088741  1
  Fe  Fe10  1  0.50015068  0.16800262  0.16852503  1
  Ni  Ni11  1  0.33678956  0.00182886  0.33566646  1
  Ni  Ni12  1  0.33468624  0.33285667  0.99950184  1
  Cr  Cr13  1  0.50041099  0.49974605  0.16973220  1
  Ni  Ni14  1  0.33552344  0.33317812  0.33523063  1
  Fe  Fe15  1  0.33271442  0.66536920  0.00134647  1
  Cr  Cr16  1  0.49990314  0.83471597  0.16708208  1
  Ni  Ni17  1  0.33457565  0.66840590  0.33482888  1
  Fe  Fe18  1  0.66696863  0.00573877  0.00281143  1
  Fe  Fe19  1  0.83321914  0.16971452  0.16964809  1
  Ni  Ni20  1  0.66818957  0.00240260  0.33447911  1
  Fe  Fe21  1  0.66766674  0.33320267  1.00032312  1
  Fe  Fe22  1  0.83470484  0.49796766  0.16821355  1
  Fe  Fe23  1  0.66778840  0.33332242  0.33665168  1
  Cr  Cr24  1  0.66968245  0.66655787  0.99953695  1
  Fe  Fe25  1  0.83293600  0.83596410  0.17000885  1
  Fe  Fe26  1  0.66692970  0.66818804  0.33636966  1
  Cr  Cr27  1  0.16634142  0.16730207  0.50138081  1
  Ni  Ni28  1  1.00013777  1.00018566  0.66489837  1
  Ni  Ni29  1  0.16863867  0.16981365  0.83361246  1
  Cr  Cr30  1  0.16774026  0.49946761  0.50103140  1
  Fe  Fe31  1  0.99853876  0.33479347  0.66759284  1
  Fe  Fe32  1  0.16691972  0.49822011  0.83395878  1
  Ni  Ni33  1  0.16864230  0.83573573  0.50007003  1
  Ni  Ni34  1  0.99974559  0.66728601  0.66765270  1
  Cr  Cr35  1  0.16822689  0.83791700  0.83417190  1
  Fe  Fe36  1  0.50334921  0.16740963  0.50063978  1
  Fe  Fe37  1  0.33512757  0.00326915  0.66713061  1
  Fe  Fe38  1  0.50089296  0.16956456  0.83391923  1
  Fe  Fe39  1  0.50289625  0.50060128  0.50029961  1
  Fe  Fe40  1  0.33616159  0.33215137  0.66945936  1
  Ni  Ni41  1  0.50133207  0.49905203  0.83473261  1
  Fe  Fe42  1  0.50255735  0.83575212  0.49981757  1
  Cr  Cr43  1  0.33430342  0.66646358  0.66750129  1
  Cr  Cr44  1  0.50157512  0.83513563  0.83574553  1
  Ni  Ni45  1  0.83358705  0.16794258  0.50024451  1
  Ni  Ni46  1  0.66731572  0.00391438  0.66693364  1
  Cr  Cr47  1  0.83680206  0.16880132  0.83384917  1
  Ni  Ni48  1  0.83193232  0.50011142  0.50148954  1
  Ni  Ni49  1  0.66632311  0.33400541  0.66727456  1
  Ni  Ni50  1  0.83327500  0.49839234  0.83320779  1
  Ni  Ni51  1  0.83312383  0.83549371  0.50164617  1
  Fe  Fe52  1  0.66949510  0.66605100  0.66695591  1
  Cr  Cr53  1  0.83369084  0.83537556  0.83208780  1
" 