8482,Ni35Fe39Cr24_4,-229.842533482691, 198.233633535428,Ni35Fe39Cr24,"# generated using pymatgen
 data_Cr14Fe21Ni19
_symmetry_space_group_name_H-M   'P 1'
_cell_length_a   7.44517107
_cell_length_b   7.44517107
_cell_length_c   10.52906190
_cell_angle_alpha   90.00000000
_cell_angle_beta   90.00000000
_cell_angle_gamma   90.00000000
_symmetry_Int_Tables_number   1
_chemical_formula_structural   Cr14Fe21Ni19
_chemical_formula_sum   'Cr14 Fe21 Ni19'
_cell_volume   583.63192654
_cell_formula_units_Z   1
loop_
 _symmetry_equiv_pos_site_id
 _symmetry_equiv_pos_as_xyz
  1  'x, y, z'
loop_
 _atom_site_type_symbol
 _atom_site_label
 _atom_site_symmetry_multiplicity
 _atom_site_fract_x
 _atom_site_fract_y
 _atom_site_fract_z
 _atom_site_occupancy
  Ni  Ni0  1  0.00151710  1.00034196  0.00248540  1
  Cr  Cr1  1  0.16683806  0.16762075  0.16620644  1
  Ni  Ni2  1  0.99925382  1.00112614  0.33510141  1
  Ni  Ni3  1  0.00341596  0.33668390  1.00090452  1
  Ni  Ni4  1  0.16765355  0.50246127  0.16844062  1
  Ni  Ni5  1  0.00319320  0.33416526  0.33481916  1
  Ni  Ni6  1  0.00251097  0.66714901  0.00236154  1
  Fe  Fe7  1  0.16557165  0.83212199  0.16790491  1
  Fe  Fe8  1  0.00214531  0.66862110  0.33351823  1
  Fe  Fe9  1  0.33195271  0.00157269  1.00142016  1
  Fe  Fe10  1  0.50142606  0.17015888  0.16919620  1
  Fe  Fe11  1  0.33333676  1.00074912  0.33549183  1
  Fe  Fe12  1  0.33202130  0.33774846  1.00119486  1
  Ni  Ni13  1  0.50008671  0.50269216  0.16829471  1
  Fe  Fe14  1  0.33169831  0.33604186  0.33390148  1
  Fe  Fe15  1  0.33355537  0.66521877  0.00171908  1
  Cr  Cr16  1  0.50063500  0.83445995  0.16914052  1
  Ni  Ni17  1  0.33306677  0.66710817  0.33495122  1
  Cr  Cr18  1  0.67061050  0.99968295  0.00287629  1
  Ni  Ni19  1  0.83642318  0.16710928  0.17019394  1
  Ni  Ni20  1  0.67065315  1.00035286  0.33472908  1
  Cr  Cr21  1  0.66804119  0.33734986  0.00321798  1
  Ni  Ni22  1  0.83665025  0.50221014  0.16790016  1
  Cr  Cr23  1  0.66930507  0.33349996  0.33200939  1
  Fe  Fe24  1  0.67097349  0.66628547  1.00021551  1
  Fe  Fe25  1  0.83794099  0.83354865  0.16953541  1
  Fe  Fe26  1  0.66989701  0.67043456  0.33437591  1
  Fe  Fe27  1  0.16507166  0.16911854  0.49950457  1
  Cr  Cr28  1  0.00164882  0.00281147  0.66687257  1
  Fe  Fe29  1  0.16719288  0.17157262  0.83699779  1
  Ni  Ni30  1  0.16678721  0.50282843  0.50060757  1
  Ni  Ni31  1  0.00290632  0.33592096  0.66850517  1
  Ni  Ni32  1  0.16674957  0.50226433  0.83542424  1
  Fe  Fe33  1  0.16887290  0.83281318  0.50054582  1
  Fe  Fe34  1  0.00174225  0.66598939  0.66877222  1
  Cr  Cr35  1  0.16852122  0.83463318  0.83633892  1
  Cr  Cr36  1  0.50100684  0.16575443  0.49957291  1
  Fe  Fe37  1  0.33405783  0.99884993  0.66740105  1
  Cr  Cr38  1  0.49871816  0.16754694  0.83576151  1
  Cr  Cr39  1  0.50062413  0.50374737  0.50146552  1
  Cr  Cr40  1  0.33096733  0.33842336  0.66903461  1
  Ni  Ni41  1  0.50189411  0.50450389  0.83459631  1
  Fe  Fe42  1  0.50104915  0.83247046  0.50031530  1
  Ni  Ni43  1  0.33622206  0.66807562  0.66850581  1
  Fe  Fe44  1  0.50157734  0.82982253  0.83469093  1
  Fe  Fe45  1  0.83802533  0.16788783  0.49961270  1
  Cr  Cr46  1  0.66884639  0.99835388  0.66720013  1
  Cr  Cr47  1  0.83782175  0.17065824  0.83367207  1
  Cr  Cr48  1  0.83749215  0.50265020  0.50364793  1
  Fe  Fe49  1  0.66985597  0.33831600  0.66955258  1
  Ni  Ni50  1  0.83579375  0.50355947  0.83294534  1
  Ni  Ni51  1  0.83533733  0.83552964  0.49973422  1
  Ni  Ni52  1  0.66575761  0.66922179  0.67063112  1
  Fe  Fe53  1  0.83442205  0.82949667  0.83532066  1
" 