1658,Ni35Fe41Cr23_6,-230.632171995881, 195.489950003693,Ni35Fe41Cr23,"# generated using pymatgen
 data_Cr13Fe22Ni19
_symmetry_space_group_name_H-M   'P 1'
_cell_length_a   7.44471659
_cell_length_b   7.44471659
_cell_length_c   10.52841917
_cell_angle_alpha   90.00000000
_cell_angle_beta   90.00000000
_cell_angle_gamma   90.00000000
_symmetry_Int_Tables_number   1
_chemical_formula_structural   Cr13Fe22Ni19
_chemical_formula_sum   'Cr13 Fe22 Ni19'
_cell_volume   583.52505147
_cell_formula_units_Z   1
loop_
 _symmetry_equiv_pos_site_id
 _symmetry_equiv_pos_as_xyz
  1  'x, y, z'
loop_
 _atom_site_type_symbol
 _atom_site_label
 _atom_site_symmetry_multiplicity
 _atom_site_fract_x
 _atom_site_fract_y
 _atom_site_fract_z
 _atom_site_occupancy
  Fe  Fe0  1  1.00084202  0.99919321  1.00023771  1
  Cr  Cr1  1  0.16907525  0.16358941  0.16715519  1
  Cr  Cr2  1  1.00111308  0.99972880  0.33428398  1
  Cr  Cr3  1  0.00280374  0.33787116  1.00081793  1
  Fe  Fe4  1  0.16655593  0.50530680  0.17019281  1
  Ni  Ni5  1  0.00398197  0.33826488  0.33786279  1
  Ni  Ni6  1  1.00136844  0.66818885  0.00186547  1
  Ni  Ni7  1  0.16712464  0.83162244  0.16618830  1
  Fe  Fe8  1  0.00174568  0.66634779  0.33498975  1
  Ni  Ni9  1  0.33434455  1.00117658  1.00107303  1
  Ni  Ni10  1  0.50088426  0.16762057  0.16714095  1
  Fe  Fe11  1  0.33343851  0.00155788  0.33689394  1
  Cr  Cr12  1  0.33485791  0.33468476  1.00070259  1
  Cr  Cr13  1  0.50575522  0.50168363  0.16641407  1
  Cr  Cr14  1  0.33203038  0.33605653  0.33627736  1
  Fe  Fe15  1  0.33479544  0.66798585  0.99976853  1
  Cr  Cr16  1  0.49847544  0.83378294  0.16858217  1
  Fe  Fe17  1  0.33215487  0.66926018  0.33841643  1
  Cr  Cr18  1  0.66801352  1.00083543  1.00059664  1
  Cr  Cr19  1  0.83310610  0.17191793  0.16668964  1
  Cr  Cr20  1  0.66760349  0.99792256  0.33846133  1
  Ni  Ni21  1  0.66788980  0.33738929  0.99905880  1
  Ni  Ni22  1  0.83600288  0.50475042  0.16776570  1
  Cr  Cr23  1  0.66880116  0.33450922  0.33584429  1
  Ni  Ni24  1  0.67111975  0.66786902  0.99954332  1
  Ni  Ni25  1  0.83728510  0.82930329  0.16614110  1
  Fe  Fe26  1  0.67181768  0.66700144  0.33655659  1
  Ni  Ni27  1  0.16900133  0.16645483  0.50563755  1
  Ni  Ni28  1  1.00148870  1.00067477  0.66843910  1
  Fe  Fe29  1  0.16923973  0.16780439  0.83194700  1
  Ni  Ni30  1  0.16601832  0.50354633  0.50439804  1
  Fe  Fe31  1  0.99922450  0.33482684  0.66669050  1
  Fe  Fe32  1  0.16843365  0.50119503  0.83133073  1
  Ni  Ni33  1  0.16739538  0.83543572  0.50276204  1
  Fe  Fe34  1  1.00023940  0.66839531  0.66785085  1
  Cr  Cr35  1  0.16716496  0.83466840  0.83529621  1
  Ni  Ni36  1  0.50146470  0.16746462  0.50345855  1
  Fe  Fe37  1  0.33765293  0.00239950  0.66871458  1
  Ni  Ni38  1  0.50310410  0.16942799  0.83437660  1
  Ni  Ni39  1  0.50239771  0.50052068  0.50344385  1
  Fe  Fe40  1  0.33624285  0.33369748  0.66714285  1
  Fe  Fe41  1  0.50212972  0.50192855  0.83377990  1
  Fe  Fe42  1  0.49712004  0.83344607  0.50229230  1
  Fe  Fe43  1  0.33341860  0.66822374  0.66622383  1
  Fe  Fe44  1  0.50128998  0.83630996  0.83485788  1
  Fe  Fe45  1  0.83760512  0.17114690  0.50468281  1
  Ni  Ni46  1  0.66909411  0.00228283  0.66654789  1
  Fe  Fe47  1  0.83429505  0.16862848  0.83187374  1
  Ni  Ni48  1  0.83489812  0.50200681  0.50184019  1
  Ni  Ni49  1  0.66669150  0.33437580  0.66809653  1
  Fe  Fe50  1  0.83357826  0.50129493  0.83463122  1
  Fe  Fe51  1  0.83771693  0.83391482  0.50331964  1
  Cr  Cr52  1  0.66703027  0.66988046  0.66746346  1
  Fe  Fe53  1  0.83406590  0.83561654  0.83437040  1
" 