4843,Ni35Fe47Cr17_10,-231.215426619021, 197.460551037022,Ni35Fe47Cr17,"# generated using pymatgen
 data_Cr11Fe25Ni18
_symmetry_space_group_name_H-M   'P 1'
_cell_length_a   7.43994289
_cell_length_b   7.43994289
_cell_length_c   10.52166814
_cell_angle_alpha   90.00000000
_cell_angle_beta   90.00000000
_cell_angle_gamma   90.00000000
_symmetry_Int_Tables_number   1
_chemical_formula_structural   Cr11Fe25Ni18
_chemical_formula_sum   'Cr11 Fe25 Ni18'
_cell_volume   582.40326857
_cell_formula_units_Z   1
loop_
 _symmetry_equiv_pos_site_id
 _symmetry_equiv_pos_as_xyz
  1  'x, y, z'
loop_
 _atom_site_type_symbol
 _atom_site_label
 _atom_site_symmetry_multiplicity
 _atom_site_fract_x
 _atom_site_fract_y
 _atom_site_fract_z
 _atom_site_occupancy
  Cr  Cr0  1  1.00039279  0.00504766  0.00278053  1
  Fe  Fe1  1  0.16906479  0.16948410  0.16941462  1
  Fe  Fe2  1  0.00269426  0.00337895  0.33521381  1
  Ni  Ni3  1  0.00311514  0.33421869  1.00068286  1
  Fe  Fe4  1  0.17086474  0.50041813  0.16908205  1
  Ni  Ni5  1  0.00333075  0.33413909  0.33614184  1
  Cr  Cr6  1  0.00269563  0.66663112  1.00123559  1
  Fe  Fe7  1  0.17044250  0.83556266  0.16926716  1
  Fe  Fe8  1  0.00304831  0.66781329  0.33671792  1
  Fe  Fe9  1  0.33564160  0.00262587  0.00251252  1
  Ni  Ni10  1  0.50014701  0.16938756  0.16874457  1
  Fe  Fe11  1  0.33392546  0.00240166  0.33451293  1
  Fe  Fe12  1  0.33489677  0.33507177  1.00107855  1
  Fe  Fe13  1  0.50009400  0.50057279  0.16775885  1
  Ni  Ni14  1  0.33274867  0.33554459  0.33378844  1
  Ni  Ni15  1  0.33786813  0.66720807  0.00310567  1
  Ni  Ni16  1  0.49861312  0.83487609  0.16673645  1
  Fe  Fe17  1  0.33394181  0.66841987  0.33399918  1
  Cr  Cr18  1  0.66761271  1.00148274  0.00260892  1
  Ni  Ni19  1  0.83595212  0.17023852  0.16962635  1
  Cr  Cr20  1  0.66928626  0.00235640  0.33424941  1
  Fe  Fe21  1  0.66780563  0.33579184  1.00165438  1
  Cr  Cr22  1  0.83480332  0.50009332  0.16817965  1
  Ni  Ni23  1  0.66938506  0.33340989  0.33459318  1
  Fe  Fe24  1  0.66642834  0.66790711  1.00103327  1
  Fe  Fe25  1  0.83486085  0.83684974  0.16900439  1
  Cr  Cr26  1  0.66743947  0.67008035  0.33505245  1
  Ni  Ni27  1  0.16831070  0.16743463  0.50079211  1
  Fe  Fe28  1  1.00182136  1.00089194  0.66806471  1
  Ni  Ni29  1  0.17082316  0.16957797  0.83609425  1
  Fe  Fe30  1  0.16680968  0.50169685  0.50046603  1
  Cr  Cr31  1  0.00323036  0.33559203  0.66888289  1
  Fe  Fe32  1  0.16966371  0.49945717  0.83591470  1
  Fe  Fe33  1  0.16741311  0.83554246  0.50157748  1
  Ni  Ni34  1  0.99947599  0.66939496  0.66731517  1
  Cr  Cr35  1  0.16759983  0.83693311  0.83421033  1
  Cr  Cr36  1  0.49961046  0.16911181  0.50233588  1
  Fe  Fe37  1  0.33450884  0.00392439  0.66843878  1
  Ni  Ni38  1  0.49959644  0.17095882  0.83424295  1
  Cr  Cr39  1  0.50331235  0.50054582  0.50025937  1
  Ni  Ni40  1  0.33477822  0.33369797  0.67057386  1
  Ni  Ni41  1  0.50331258  0.49991662  0.83693129  1
  Ni  Ni42  1  0.50127173  0.83561658  0.50350542  1
  Cr  Cr43  1  0.33508139  0.66755427  0.66744273  1
  Fe  Fe44  1  0.50289339  0.83536937  0.83551135  1
  Fe  Fe45  1  0.83628821  0.16866938  0.50068004  1
  Fe  Fe46  1  0.66913033  1.00050159  0.66918343  1
  Fe  Fe47  1  0.83441425  0.16913617  0.83544118  1
  Ni  Ni48  1  0.83684409  0.50337075  0.50215473  1
  Fe  Fe49  1  0.66793815  0.33611413  0.66964866  1
  Fe  Fe50  1  0.83402517  0.50158042  0.83486445  1
  Ni  Ni51  1  0.83771112  0.83305049  0.50289906  1
  Fe  Fe52  1  0.67096907  0.66884617  0.66868156  1
  Ni  Ni53  1  0.83443171  0.83286691  0.83347672  1
" 