1718,Ni35Fe9Cr54_4,-217.504302819853, 147.896458714716,Ni35Fe9Cr54,"# generated using pymatgen
 data_Cr30Fe5Ni19
_symmetry_space_group_name_H-M   'P 1'
_cell_length_a   7.52721564
_cell_length_b   7.52721564
_cell_length_c   10.64509045
_cell_angle_alpha   90.00000000
_cell_angle_beta   90.00000000
_cell_angle_gamma   90.00000000
_symmetry_Int_Tables_number   1
_chemical_formula_structural   Cr30Fe5Ni19
_chemical_formula_sum   'Cr30 Fe5 Ni19'
_cell_volume   603.13991762
_cell_formula_units_Z   1
loop_
 _symmetry_equiv_pos_site_id
 _symmetry_equiv_pos_as_xyz
  1  'x, y, z'
loop_
 _atom_site_type_symbol
 _atom_site_label
 _atom_site_symmetry_multiplicity
 _atom_site_fract_x
 _atom_site_fract_y
 _atom_site_fract_z
 _atom_site_occupancy
  Cr  Cr0  1  0.99415202  0.99078558  -0.00183204  1
  Cr  Cr1  1  0.15948463  0.16160335  0.16476762  1
  Ni  Ni2  1  0.99354535  0.99445765  0.32809906  1
  Ni  Ni3  1  0.99451201  0.33309080  0.99303172  1
  Cr  Cr4  1  0.15895047  0.49698707  0.16265069  1
  Ni  Ni5  1  0.99334441  0.32984298  0.33198582  1
  Ni  Ni6  1  0.99299604  0.66098526  0.99450482  1
  Ni  Ni7  1  0.15874528  0.82755339  0.16607765  1
  Ni  Ni8  1  0.99567716  0.66411657  0.32694971  1
  Cr  Cr9  1  0.33035134  0.99555387  -0.00115142  1
  Cr  Cr10  1  0.49896795  0.16361730  0.16241942  1
  Ni  Ni11  1  0.32889126  0.99374601  0.32695160  1
  Cr  Cr12  1  0.33080271  0.32968704  0.99392070  1
  Cr  Cr13  1  0.50022100  0.49666982  0.16571567  1
  Cr  Cr14  1  0.33060243  0.33149717  0.33229318  1
  Cr  Cr15  1  0.32659102  0.66336921  -0.00117959  1
  Cr  Cr16  1  0.49585046  0.82805796  0.16858195  1
  Ni  Ni17  1  0.32854983  0.66325961  0.33061833  1
  Cr  Cr18  1  0.66367220  0.99457972  0.99403902  1
  Cr  Cr19  1  0.83043446  0.16575555  0.16594500  1
  Ni  Ni20  1  0.66540033  0.99580440  0.33068387  1
  Fe  Fe21  1  0.66610533  0.33044488  0.99533935  1
  Cr  Cr22  1  0.82991047  0.49551295  0.16252488  1
  Ni  Ni23  1  0.66422366  0.32938235  0.33059123  1
  Cr  Cr24  1  0.66681899  0.66482589  -0.00319714  1
  Ni  Ni25  1  0.83246399  0.82781958  0.16571303  1
  Ni  Ni26  1  0.66355529  0.66281922  0.32976593  1
  Cr  Cr27  1  0.15936592  0.16200662  0.49332008  1
  Cr  Cr28  1  0.99166576  0.99580161  0.66142011  1
  Cr  Cr29  1  0.16289700  0.16535938  0.82999857  1
  Fe  Fe30  1  0.16381747  0.49798027  0.49460269  1
  Cr  Cr31  1  -0.00238983  0.33162393  0.65944729  1
  Fe  Fe32  1  0.16021901  0.49707385  0.82946088  1
  Cr  Cr33  1  0.16372071  0.82808619  0.49321301  1
  Cr  Cr34  1  0.99413510  0.66091993  0.66518940  1
  Cr  Cr35  1  0.16261623  0.82745943  0.82979913  1
  Cr  Cr36  1  0.49780117  0.16217647  0.49639460  1
  Cr  Cr37  1  0.32967486  -0.00154822  0.66387494  1
  Fe  Fe38  1  0.49829215  0.16360596  0.82809320  1
  Ni  Ni39  1  0.49554073  0.49776112  0.49581027  1
  Ni  Ni40  1  0.33070149  0.33422166  0.66293538  1
  Cr  Cr41  1  0.49754399  0.49681677  0.82927513  1
  Cr  Cr42  1  0.49601860  0.82432863  0.49659385  1
  Ni  Ni43  1  0.33091741  0.65664963  0.66093990  1
  Cr  Cr44  1  0.49667037  0.82767411  0.82407353  1
  Ni  Ni45  1  0.82901244  0.16346775  0.49174556  1
  Fe  Fe46  1  0.66385371  0.99514863  0.66183704  1
  Cr  Cr47  1  0.83023982  0.16494062  0.82893814  1
  Cr  Cr48  1  0.82647183  0.49674480  0.49176176  1
  Cr  Cr49  1  0.66311272  0.33040753  0.66121933  1
  Ni  Ni50  1  0.82925447  0.49707518  0.83167853  1
  Cr  Cr51  1  0.82779058  0.82975709  0.49563488  1
  Ni  Ni52  1  0.66234261  0.66127795  0.66355309  1
  Ni  Ni53  1  0.82807185  0.82553617  0.82755789  1
" 