945,Ni35Fe9Cr54_0,-217.602951272644, 152.412187859722,Ni35Fe9Cr54,"# generated using pymatgen
 data_Cr30Fe5Ni19
_symmetry_space_group_name_H-M   'P 1'
_cell_length_a   7.52617450
_cell_length_b   7.52617450
_cell_length_c   10.64361805
_cell_angle_alpha   90.00000000
_cell_angle_beta   90.00000000
_cell_angle_gamma   90.00000000
_symmetry_Int_Tables_number   1
_chemical_formula_structural   Cr30Fe5Ni19
_chemical_formula_sum   'Cr30 Fe5 Ni19'
_cell_volume   602.88967763
_cell_formula_units_Z   1
loop_
 _symmetry_equiv_pos_site_id
 _symmetry_equiv_pos_as_xyz
  1  'x, y, z'
loop_
 _atom_site_type_symbol
 _atom_site_label
 _atom_site_symmetry_multiplicity
 _atom_site_fract_x
 _atom_site_fract_y
 _atom_site_fract_z
 _atom_site_occupancy
  Cr  Cr0  1  0.99513723  0.99203051  -0.00195091  1
  Cr  Cr1  1  0.16128332  0.16264511  0.16414335  1
  Fe  Fe2  1  0.99564073  -0.00376029  0.32740056  1
  Ni  Ni3  1  0.99298295  0.33356338  0.99362438  1
  Cr  Cr4  1  0.16189733  0.49724754  0.16087765  1
  Cr  Cr5  1  0.99535530  0.33281258  0.33207242  1
  Cr  Cr6  1  0.99468919  0.66227206  0.99469392  1
  Ni  Ni7  1  0.16135786  0.82803175  0.16782791  1
  Cr  Cr8  1  0.99203002  0.66442225  0.32666520  1
  Cr  Cr9  1  0.33326686  -0.00332477  -0.00140160  1
  Ni  Ni10  1  0.49999188  0.16463756  0.16262010  1
  Ni  Ni11  1  0.32900528  0.99478707  0.32827584  1
  Cr  Cr12  1  0.32992549  0.33006453  -0.00213810  1
  Fe  Fe13  1  0.50016507  0.49597256  0.16406950  1
  Cr  Cr14  1  0.33434779  0.32858026  0.32868360  1
  Cr  Cr15  1  0.32960778  0.66242712  -0.00226443  1
  Cr  Cr16  1  0.49647706  0.82600288  0.16322712  1
  Ni  Ni17  1  0.33153758  0.66262642  0.32799585  1
  Ni  Ni18  1  0.66413512  0.99490933  -0.00253065  1
  Cr  Cr19  1  0.82856562  0.16617211  0.16057033  1
  Cr  Cr20  1  0.66099560  0.99585909  0.32629623  1
  Ni  Ni21  1  0.66366254  0.33208660  -0.00078402  1
  Fe  Fe22  1  0.82629554  0.49801732  0.16084221  1
  Ni  Ni23  1  0.66444385  0.33425718  0.32794881  1
  Ni  Ni24  1  0.66586678  0.66214991  -0.00385906  1
  Ni  Ni25  1  0.82690599  0.82738144  0.16195368  1
  Ni  Ni26  1  0.66167480  0.65907321  0.32918606  1
  Ni  Ni27  1  0.16418666  0.16185410  0.49320089  1
  Cr  Cr28  1  0.99598943  0.99539631  0.66115791  1
  Cr  Cr29  1  0.16141697  0.16486062  0.82948243  1
  Cr  Cr30  1  0.16688126  0.49877106  0.49667276  1
  Cr  Cr31  1  0.99539429  0.33193232  0.66237991  1
  Ni  Ni32  1  0.15999702  0.49643434  0.82965098  1
  Cr  Cr33  1  0.16347380  0.83057648  0.49183746  1
  Cr  Cr34  1  0.99221596  0.66262512  0.66672932  1
  Cr  Cr35  1  0.16544638  0.82805772  0.82762308  1
  Cr  Cr36  1  0.49838734  0.16268266  0.49623587  1
  Ni  Ni37  1  0.32944648  0.99359118  0.65986953  1
  Cr  Cr38  1  0.49857305  0.16219261  0.83181587  1
  Ni  Ni39  1  0.50119018  0.49573153  0.49435862  1
  Cr  Cr40  1  0.33158652  0.32773278  0.66203761  1
  Cr  Cr41  1  0.49550664  0.49680364  0.82985681  1
  Cr  Cr42  1  0.49377249  0.82273651  0.49816541  1
  Ni  Ni43  1  0.32892413  0.65984042  0.66189590  1
  Cr  Cr44  1  0.49715173  0.82704660  0.82679829  1
  Cr  Cr45  1  0.83027500  0.16550561  0.49421905  1
  Cr  Cr46  1  0.66342212  -0.00354212  0.66647921  1
  Cr  Cr47  1  0.82796232  0.16467451  0.83391107  1
  Fe  Fe48  1  0.82636537  0.49723454  0.49655910  1
  Ni  Ni49  1  0.66388278  0.33391861  0.66180014  1
  Ni  Ni50  1  0.82628103  0.49610396  0.83075671  1
  Cr  Cr51  1  0.82585546  0.82852079  0.49465839  1
  Fe  Fe52  1  0.66127372  0.65949462  0.66335205  1
  Ni  Ni53  1  0.82578081  0.82616220  0.83233315  1
" 