3167,Ni35Fe26Cr37_11,-224.830000204674, 175.963370569094,Ni35Fe26Cr37,"# generated using pymatgen
 data_Cr21Fe14Ni19
_symmetry_space_group_name_H-M   'P 1'
_cell_length_a   7.48047572
_cell_length_b   7.48047572
_cell_length_c   10.57899021
_cell_angle_alpha   90.00000000
_cell_angle_beta   90.00000000
_cell_angle_gamma   90.00000000
_symmetry_Int_Tables_number   1
_chemical_formula_structural   Cr21Fe14Ni19
_chemical_formula_sum   'Cr21 Fe14 Ni19'
_cell_volume   591.97402462
_cell_formula_units_Z   1
loop_
 _symmetry_equiv_pos_site_id
 _symmetry_equiv_pos_as_xyz
  1  'x, y, z'
loop_
 _atom_site_type_symbol
 _atom_site_label
 _atom_site_symmetry_multiplicity
 _atom_site_fract_x
 _atom_site_fract_y
 _atom_site_fract_z
 _atom_site_occupancy
  Cr  Cr0  1  0.99862837  0.99907563  -0.00051601  1
  Ni  Ni1  1  0.16450793  0.16258448  0.16661034  1
  Ni  Ni2  1  0.00143558  0.99769942  0.33254644  1
  Fe  Fe3  1  0.99836733  0.33062690  0.99808714  1
  Cr  Cr4  1  0.16500927  0.49912350  0.16643620  1
  Fe  Fe5  1  -0.00048447  0.32910445  0.33194777  1
  Cr  Cr6  1  0.99834200  0.66554774  0.99733560  1
  Ni  Ni7  1  0.16833602  0.83572140  0.16893755  1
  Fe  Fe8  1  0.00021676  0.66988514  0.33184616  1
  Ni  Ni9  1  0.33406069  -0.00002912  0.00068277  1
  Fe  Fe10  1  0.49927292  0.16276274  0.16427019  1
  Ni  Ni11  1  0.32846738  0.99830968  0.33184017  1
  Cr  Cr12  1  0.33249691  0.33161790  0.99567066  1
  Cr  Cr13  1  0.50016348  0.50128396  0.16583190  1
  Cr  Cr14  1  0.33435123  0.33147180  0.33491558  1
  Fe  Fe15  1  0.33461485  0.66785204  0.00000961  1
  Ni  Ni16  1  0.49709506  0.83450069  0.16352546  1
  Ni  Ni17  1  0.33055770  0.66769685  0.33151945  1
  Ni  Ni18  1  0.66446661  -0.00068118  0.00046911  1
  Fe  Fe19  1  0.83237512  0.16455866  0.16582736  1
  Cr  Cr20  1  0.66670608  0.00020664  0.33049155  1
  Ni  Ni21  1  0.66536193  0.33207982  0.99766237  1
  Cr  Cr22  1  0.83214942  0.49585848  0.16693043  1
  Ni  Ni23  1  0.66553600  0.33207703  0.33348808  1
  Fe  Fe24  1  0.66536571  0.66704010  0.99850285  1
  Ni  Ni25  1  0.83184269  0.83453333  0.16572982  1
  Cr  Cr26  1  0.66546913  0.66542305  0.33244216  1
  Ni  Ni27  1  0.16684703  0.16409549  0.49790283  1
  Cr  Cr28  1  0.99888629  0.99659494  0.66537312  1
  Ni  Ni29  1  0.16804955  0.16788080  0.83288930  1
  Cr  Cr30  1  0.16652118  0.49919216  0.49735243  1
  Cr  Cr31  1  0.00126199  0.33347955  0.66933102  1
  Fe  Fe32  1  0.16574216  0.49767363  0.83250604  1
  Fe  Fe33  1  0.16406882  0.83318094  0.49612249  1
  Fe  Fe34  1  0.99629936  0.66678143  0.66690413  1
  Cr  Cr35  1  0.16644158  0.83383237  0.83267774  1
  Fe  Fe36  1  0.49824122  0.16835277  0.49903853  1
  Cr  Cr37  1  0.33157111  0.00340324  0.66456420  1
  Ni  Ni38  1  0.49766279  0.16839191  0.83253850  1
  Ni  Ni39  1  0.49959519  0.49767697  0.49993735  1
  Fe  Fe40  1  0.33442706  0.33127277  0.66655317  1
  Ni  Ni41  1  0.50147461  0.49752200  0.83164298  1
  Cr  Cr42  1  0.49797044  0.83151458  0.49799053  1
  Cr  Cr43  1  0.33249647  0.66177048  0.66610399  1
  Cr  Cr44  1  0.50062352  0.83269216  0.83661141  1
  Cr  Cr45  1  0.83350108  0.16586594  0.49669029  1
  Cr  Cr46  1  0.66679298  0.99878155  0.66579143  1
  Cr  Cr47  1  0.83181912  0.16677719  0.83494414  1
  Cr  Cr48  1  0.83066853  0.49971251  0.49819505  1
  Fe  Fe49  1  0.66215556  0.33461461  0.66686718  1
  Ni  Ni50  1  0.83020651  0.50008674  0.83210773  1
  Ni  Ni51  1  0.83477153  0.83154502  0.49994464  1
  Fe  Fe52  1  0.66790902  0.66401446  0.66643818  1
  Ni  Ni53  1  0.83081624  0.82889533  0.83147354  1
" 