230,Ni35Fe9Cr54_18,-217.774446186201, 157.95347009919,Ni35Fe9Cr54,"# generated using pymatgen
 data_Cr30Fe5Ni19
_symmetry_space_group_name_H-M   'P 1'
_cell_length_a   7.51783210
_cell_length_b   7.51783210
_cell_length_c   10.63182011
_cell_angle_alpha   90.00000000
_cell_angle_beta   90.00000000
_cell_angle_gamma   90.00000000
_symmetry_Int_Tables_number   1
_chemical_formula_structural   Cr30Fe5Ni19
_chemical_formula_sum   'Cr30 Fe5 Ni19'
_cell_volume   600.88707638
_cell_formula_units_Z   1
loop_
 _symmetry_equiv_pos_site_id
 _symmetry_equiv_pos_as_xyz
  1  'x, y, z'
loop_
 _atom_site_type_symbol
 _atom_site_label
 _atom_site_symmetry_multiplicity
 _atom_site_fract_x
 _atom_site_fract_y
 _atom_site_fract_z
 _atom_site_occupancy
  Cr  Cr0  1  0.99612804  0.00136355  0.99325289  1
  Ni  Ni1  1  0.16258670  0.16599388  0.16584663  1
  Ni  Ni2  1  -0.00273504  -0.00092660  0.32829005  1
  Ni  Ni3  1  0.99482022  0.33123643  0.99602292  1
  Ni  Ni4  1  0.16317069  0.49507520  0.16408827  1
  Cr  Cr5  1  0.99571133  0.33105659  0.33056398  1
  Cr  Cr6  1  0.99397969  0.65987017  -0.00173169  1
  Cr  Cr7  1  0.16046119  0.82948943  0.16325112  1
  Fe  Fe8  1  0.99543461  0.66422987  0.32715332  1
  Cr  Cr9  1  0.32933160  0.99468390  -0.00206351  1
  Cr  Cr10  1  0.49657194  0.16477937  0.16381635  1
  Ni  Ni11  1  0.32748527  0.99588468  0.32798564  1
  Cr  Cr12  1  0.32719009  0.33085737  -0.00182011  1
  Ni  Ni13  1  0.49637362  0.49701687  0.16119706  1
  Fe  Fe14  1  0.33007935  0.32936347  0.32764774  1
  Ni  Ni15  1  0.33281733  0.65940184  -0.00089612  1
  Ni  Ni16  1  0.49634624  0.82795668  0.16492329  1
  Cr  Cr17  1  0.33208975  0.66302085  0.32670541  1
  Cr  Cr18  1  0.66446128  0.99364892  -0.00267058  1
  Cr  Cr19  1  0.83090436  0.16323059  0.16104808  1
  Cr  Cr20  1  0.66259154  0.99486419  0.32953519  1
  Fe  Fe21  1  0.66558447  0.33297475  0.99644395  1
  Ni  Ni22  1  0.83088835  0.49764257  0.16337491  1
  Cr  Cr23  1  0.66561604  0.33272775  0.32828455  1
  Cr  Cr24  1  0.66175646  0.66193813  -0.00099864  1
  Ni  Ni25  1  0.82982294  0.82830712  0.16528106  1
  Cr  Cr26  1  0.66328773  0.66185090  0.32901903  1
  Cr  Cr27  1  0.16445491  0.16352774  0.49453527  1
  Cr  Cr28  1  0.99511503  -0.00054917  0.66785967  1
  Ni  Ni29  1  0.16232832  0.16762625  0.83019180  1
  Cr  Cr30  1  0.16379265  0.49758547  0.49553300  1
  Cr  Cr31  1  -0.00263294  0.32876980  0.66406436  1
  Cr  Cr32  1  0.16505169  0.49668919  0.83057680  1
  Cr  Cr33  1  0.16106092  0.82920829  0.49443185  1
  Cr  Cr34  1  0.99273318  0.66037722  0.66334329  1
  Cr  Cr35  1  0.16065223  0.82792723  0.83161141  1
  Cr  Cr36  1  0.49826789  0.16380486  0.49542396  1
  Cr  Cr37  1  0.33031797  -0.00160689  0.66398341  1
  Cr  Cr38  1  0.49898536  0.16693609  0.82979064  1
  Cr  Cr39  1  0.49652679  0.49502734  0.49951219  1
  Ni  Ni40  1  0.33094472  0.33063181  0.66419818  1
  Ni  Ni41  1  0.49965305  0.49653558  0.83024379  1
  Fe  Fe42  1  0.49683075  0.83107210  0.49686167  1
  Cr  Cr43  1  0.33314829  0.66254594  0.66508347  1
  Cr  Cr44  1  0.49797822  0.82837020  0.82870248  1
  Ni  Ni45  1  0.82959871  0.16045079  0.49672672  1
  Ni  Ni46  1  0.66521190  0.99501216  0.66248326  1
  Ni  Ni47  1  0.82939620  0.16488706  0.83093957  1
  Fe  Fe48  1  0.82962961  0.49530225  0.49677143  1
  Cr  Cr49  1  0.66706067  0.33057946  0.66380260  1
  Ni  Ni50  1  0.82722842  0.49644749  0.83001597  1
  Cr  Cr51  1  0.83071708  0.82974729  0.49604956  1
  Ni  Ni52  1  0.66378694  0.66370999  0.66320196  1
  Ni  Ni53  1  0.82701515  0.82945550  0.82812040  1
" 