3312,Ni35Fe26Cr37_12,-224.943719437595, 174.480372204511,Ni35Fe26Cr37,"# generated using pymatgen
 data_Cr21Fe14Ni19
_symmetry_space_group_name_H-M   'P 1'
_cell_length_a   7.48583391
_cell_length_b   7.48583391
_cell_length_c   10.58656784
_cell_angle_alpha   90.00000000
_cell_angle_beta   90.00000000
_cell_angle_gamma   90.00000000
_symmetry_Int_Tables_number   1
_chemical_formula_structural   Cr21Fe14Ni19
_chemical_formula_sum   'Cr21 Fe14 Ni19'
_cell_volume   593.24701098
_cell_formula_units_Z   1
loop_
 _symmetry_equiv_pos_site_id
 _symmetry_equiv_pos_as_xyz
  1  'x, y, z'
loop_
 _atom_site_type_symbol
 _atom_site_label
 _atom_site_symmetry_multiplicity
 _atom_site_fract_x
 _atom_site_fract_y
 _atom_site_fract_z
 _atom_site_occupancy
  Ni  Ni0  1  -0.00046388  0.99855756  -0.00019567  1
  Fe  Fe1  1  0.16339295  0.16401015  0.16528794  1
  Ni  Ni2  1  0.99812462  0.99763280  0.33028517  1
  Ni  Ni3  1  0.00151463  0.33133681  -0.00013637  1
  Fe  Fe4  1  0.16651470  0.49913579  0.16418463  1
  Cr  Cr5  1  0.00153553  0.33103405  0.33129856  1
  Ni  Ni6  1  0.00260855  0.66630958  -0.00009223  1
  Fe  Fe7  1  0.16187363  0.83173650  0.16471054  1
  Ni  Ni8  1  -0.00034450  0.66842312  0.33249589  1
  Cr  Cr9  1  0.33021322  -0.00092623  0.00001253  1
  Ni  Ni10  1  0.49653446  0.16600769  0.16991831  1
  Fe  Fe11  1  0.33017730  0.00005965  0.33140632  1
  Fe  Fe12  1  0.32961259  0.33289201  0.00026580  1
  Fe  Fe13  1  0.49883885  0.49815206  0.16599015  1
  Fe  Fe14  1  0.33376428  0.33032281  0.33288125  1
  Ni  Ni15  1  0.33046803  0.66185567  -0.00121051  1
  Cr  Cr16  1  0.49642900  0.83215376  0.16506907  1
  Cr  Cr17  1  0.33070577  0.66270743  0.33265349  1
  Cr  Cr18  1  0.66896474  -0.00121783  0.00073928  1
  Ni  Ni19  1  0.83326943  0.16403585  0.16630796  1
  Ni  Ni20  1  0.66604175  0.00024488  0.33011676  1
  Cr  Cr21  1  0.66385485  0.33137621  0.00262787  1
  Cr  Cr22  1  0.83669415  0.50027417  0.16672406  1
  Fe  Fe23  1  0.66390300  0.33179806  0.33086645  1
  Fe  Fe24  1  0.66777569  0.66535056  0.00025326  1
  Ni  Ni25  1  0.83493679  0.83278636  0.16653758  1
  Ni  Ni26  1  0.66502238  0.66660557  0.33031038  1
  Fe  Fe27  1  0.16773805  0.16598987  0.49593505  1
  Cr  Cr28  1  0.99861847  0.99654145  0.66618230  1
  Fe  Fe29  1  0.16565297  0.16688202  0.83495966  1
  Ni  Ni30  1  0.16573174  0.49990748  0.49639119  1
  Cr  Cr31  1  0.00229613  0.33272203  0.66555361  1
  Ni  Ni32  1  0.16543588  0.50127594  0.83581151  1
  Fe  Fe33  1  0.16387284  0.83357386  0.49558634  1
  Cr  Cr34  1  0.00102232  0.66680640  0.66240483  1
  Ni  Ni35  1  0.16369684  0.83014451  0.83475185  1
  Ni  Ni36  1  0.49839886  0.16528364  0.49652724  1
  Cr  Cr37  1  0.32972397  -0.00079850  0.66396607  1
  Cr  Cr38  1  0.49928843  0.16571372  0.82932891  1
  Ni  Ni39  1  0.49779914  0.49654196  0.49610974  1
  Cr  Cr40  1  0.33195771  0.33488604  0.66500376  1
  Ni  Ni41  1  0.49600968  0.49870838  0.83540605  1
  Cr  Cr42  1  0.49850394  0.83514450  0.49769298  1
  Cr  Cr43  1  0.33038394  0.66342990  0.66508600  1
  Cr  Cr44  1  0.49645135  0.83154766  0.83339352  1
  Cr  Cr45  1  0.83027522  0.16465617  0.49870281  1
  Ni  Ni46  1  0.66635423  -0.00051135  0.66446117  1
  Cr  Cr47  1  0.83340661  0.16607121  0.83133894  1
  Cr  Cr48  1  0.83247523  0.49903637  0.49664578  1
  Ni  Ni49  1  0.66180022  0.33182795  0.66270795  1
  Cr  Cr50  1  0.83409066  0.49690785  0.83298327  1
  Fe  Fe51  1  0.83050640  0.83250066  0.49441542  1
  Cr  Cr52  1  0.66445200  0.66466439  0.66682364  1
  Fe  Fe53  1  0.83433602  0.83013219  0.83476328  1
" 