7254,Ni35Fe39Cr24_0,-230.201155469326, 191.091008162133,Ni35Fe39Cr24,"# generated using pymatgen
 data_Cr14Fe21Ni19
_symmetry_space_group_name_H-M   'P 1'
_cell_length_a   7.45583403
_cell_length_b   7.45583403
_cell_length_c   10.54414161
_cell_angle_alpha   90.00000000
_cell_angle_beta   90.00000000
_cell_angle_gamma   90.00000000
_symmetry_Int_Tables_number   1
_chemical_formula_structural   Cr14Fe21Ni19
_chemical_formula_sum   'Cr14 Fe21 Ni19'
_cell_volume   586.14314955
_cell_formula_units_Z   1
loop_
 _symmetry_equiv_pos_site_id
 _symmetry_equiv_pos_as_xyz
  1  'x, y, z'
loop_
 _atom_site_type_symbol
 _atom_site_label
 _atom_site_symmetry_multiplicity
 _atom_site_fract_x
 _atom_site_fract_y
 _atom_site_fract_z
 _atom_site_occupancy
  Ni  Ni0  1  0.00203783  1.00019729  0.00117885  1
  Fe  Fe1  1  0.16856135  0.16542027  0.16837425  1
  Ni  Ni2  1  0.00322574  0.00155802  0.33261110  1
  Cr  Cr3  1  0.00353427  0.33122701  0.00261242  1
  Fe  Fe4  1  0.16911400  0.50276435  0.16927287  1
  Fe  Fe5  1  0.00264862  0.33472236  0.33332305  1
  Cr  Cr6  1  0.00089956  0.67154266  0.00129027  1
  Ni  Ni7  1  0.16837661  0.83662768  0.16865208  1
  Fe  Fe8  1  0.99964269  0.66808006  0.33241439  1
  Fe  Fe9  1  0.33282250  0.00171322  1.00051459  1
  Fe  Fe10  1  0.49865856  0.16502649  0.16797442  1
  Fe  Fe11  1  0.33443139  1.00074325  0.33453482  1
  Ni  Ni12  1  0.33440567  0.33058089  0.00263761  1
  Ni  Ni13  1  0.49924482  0.50059415  0.16917585  1
  Fe  Fe14  1  0.33290998  0.33340492  0.33450571  1
  Cr  Cr15  1  0.33395178  0.66856353  1.00019847  1
  Ni  Ni16  1  0.49888204  0.83371313  0.16877470  1
  Ni  Ni17  1  0.33488298  0.66629202  0.33408468  1
  Fe  Fe18  1  0.66734995  0.99966075  0.00245536  1
  Fe  Fe19  1  0.83528259  0.16424331  0.16793951  1
  Cr  Cr20  1  0.66798763  0.99906366  0.33483373  1
  Cr  Cr21  1  0.66528940  0.33323832  0.00313260  1
  Ni  Ni22  1  0.83354167  0.50113007  0.16977925  1
  Cr  Cr23  1  0.66610426  0.33492361  0.33347956  1
  Cr  Cr24  1  0.66733871  0.66942890  0.00323899  1
  Ni  Ni25  1  0.83498778  0.83461824  0.16899697  1
  Ni  Ni26  1  0.66617008  0.66702950  0.33390575  1
  Ni  Ni27  1  0.16868676  0.16721374  0.50010882  1
  Ni  Ni28  1  0.00297793  0.99982230  0.66816812  1
  Ni  Ni29  1  0.16938937  0.16471419  0.83315899  1
  Fe  Fe30  1  0.16862066  0.49835814  0.50074414  1
  Fe  Fe31  1  0.00375856  0.33208612  0.66612559  1
  Cr  Cr32  1  0.16913510  0.49974158  0.83200329  1
  Cr  Cr33  1  0.16743347  0.83503066  0.49977245  1
  Fe  Fe34  1  0.00244268  0.66919864  0.66730949  1
  Ni  Ni35  1  0.16738789  0.83783015  0.83297646  1
  Ni  Ni36  1  0.49874986  0.16849157  0.50243897  1
  Ni  Ni37  1  0.33198769  0.00231152  0.66746779  1
  Fe  Fe38  1  0.49817286  0.16546022  0.83230684  1
  Fe  Fe39  1  0.49792958  0.49995451  0.50020004  1
  Ni  Ni40  1  0.33409779  0.33172859  0.66573366  1
  Cr  Cr41  1  0.49952263  0.49832371  0.83359742  1
  Fe  Fe42  1  0.49936305  0.83574496  0.49969422  1
  Fe  Fe43  1  0.33347720  0.66902935  0.66620989  1
  Fe  Fe44  1  0.50010444  0.83781638  0.83357073  1
  Cr  Cr45  1  0.83546245  0.16699080  0.50265439  1
  Fe  Fe46  1  0.66458669  0.00169251  0.66672024  1
  Cr  Cr47  1  0.83328142  0.16587633  0.83275984  1
  Fe  Fe48  1  0.83563889  0.50111503  0.50014121  1
  Ni  Ni49  1  0.66469048  0.33448735  0.66581992  1
  Cr  Cr50  1  0.83397442  0.50032072  0.83262614  1
  Fe  Fe51  1  0.83547803  0.83476005  0.50023607  1
  Cr  Cr52  1  0.66698838  0.66886009  0.66533976  1
  Ni  Ni53  1  0.83498724  0.83754116  0.83283168  1
" 