5086,Ni35Fe41Cr23_13,-230.337600996838, 199.98535692831,Ni35Fe41Cr23,"# generated using pymatgen
 data_Cr13Fe22Ni19
_symmetry_space_group_name_H-M   'P 1'
_cell_length_a   7.44233844
_cell_length_b   7.44233844
_cell_length_c   10.52505596
_cell_angle_alpha   90.00000000
_cell_angle_beta   90.00000000
_cell_angle_gamma   90.00000000
_symmetry_Int_Tables_number   1
_chemical_formula_structural   Cr13Fe22Ni19
_chemical_formula_sum   'Cr13 Fe22 Ni19'
_cell_volume   582.96602560
_cell_formula_units_Z   1
loop_
 _symmetry_equiv_pos_site_id
 _symmetry_equiv_pos_as_xyz
  1  'x, y, z'
loop_
 _atom_site_type_symbol
 _atom_site_label
 _atom_site_symmetry_multiplicity
 _atom_site_fract_x
 _atom_site_fract_y
 _atom_site_fract_z
 _atom_site_occupancy
  Fe  Fe0  1  0.00335382  0.00178160  0.00219875  1
  Ni  Ni1  1  0.16570497  0.16840836  0.16937801  1
  Ni  Ni2  1  0.00212524  1.00097920  0.33641426  1
  Fe  Fe3  1  0.00322142  0.33263093  0.00396963  1
  Ni  Ni4  1  0.17029703  0.49962657  0.16733119  1
  Fe  Fe5  1  0.00422455  0.33199877  0.33446019  1
  Cr  Cr6  1  0.00293522  0.66812096  1.00066611  1
  Fe  Fe7  1  0.16867841  0.83514802  0.16979108  1
  Cr  Cr8  1  1.00035377  0.66754866  0.33627447  1
  Cr  Cr9  1  0.33714748  1.00042674  0.00228627  1
  Fe  Fe10  1  0.50416420  0.16843695  0.16929190  1
  Ni  Ni11  1  0.33355755  0.00205323  0.33309094  1
  Cr  Cr12  1  0.33624297  0.33553098  1.00070049  1
  Ni  Ni13  1  0.50095401  0.50712837  0.16855220  1
  Cr  Cr14  1  0.33722451  0.33378127  0.33407121  1
  Ni  Ni15  1  0.33448714  0.66695586  0.00168135  1
  Fe  Fe16  1  0.49840564  0.83568150  0.16862917  1
  Ni  Ni17  1  0.33395933  0.66969203  0.33177396  1
  Ni  Ni18  1  0.66855500  0.00417835  0.00196493  1
  Ni  Ni19  1  0.83827158  0.16723757  0.16847951  1
  Fe  Fe20  1  0.66787502  0.00188511  0.33513634  1
  Fe  Fe21  1  0.66642541  0.33602857  0.00457781  1
  Fe  Fe22  1  0.83521319  0.49828406  0.16685775  1
  Cr  Cr23  1  0.67085076  0.33524210  0.33704795  1
  Fe  Fe24  1  0.66218487  0.67003815  0.99987320  1
  Cr  Cr25  1  0.82972400  0.83710200  0.16648029  1
  Fe  Fe26  1  0.66641658  0.66941409  0.33549124  1
  Ni  Ni27  1  0.16840182  0.16697281  0.50149814  1
  Ni  Ni28  1  0.00449290  0.99858899  0.66844371  1
  Fe  Fe29  1  0.17067497  0.16666957  0.83331486  1
  Cr  Cr30  1  0.17189867  0.50261385  0.50287259  1
  Cr  Cr31  1  1.00121378  0.33497326  0.66605012  1
  Fe  Fe32  1  0.16940176  0.50399065  0.83338628  1
  Fe  Fe33  1  0.16826548  0.83910628  0.50210794  1
  Ni  Ni34  1  1.00003890  0.67068294  0.66858971  1
  Fe  Fe35  1  0.16906181  0.83447364  0.83310271  1
  Ni  Ni36  1  0.49899222  0.16782937  0.50276952  1
  Ni  Ni37  1  0.33432896  0.00381610  0.66929968  1
  Fe  Fe38  1  0.50382506  0.16837010  0.83360635  1
  Fe  Fe39  1  0.50296295  0.50178650  0.50316444  1
  Fe  Fe40  1  0.33671668  0.33338480  0.66887603  1
  Ni  Ni41  1  0.49820532  0.50387031  0.83169614  1
  Cr  Cr42  1  0.50054511  0.83354261  0.49803279  1
  Fe  Fe43  1  0.33506236  0.67228275  0.67005925  1
  Ni  Ni44  1  0.50188371  0.83308709  0.83632432  1
  Fe  Fe45  1  0.83632386  0.16472037  0.50042055  1
  Cr  Cr46  1  0.66754407  1.00072773  0.66755098  1
  Cr  Cr47  1  0.83790617  0.16537615  0.83743998  1
  Fe  Fe48  1  0.83294327  0.50291895  0.50369034  1
  Fe  Fe49  1  0.66601047  0.33535864  0.66652659  1
  Cr  Cr50  1  0.83194181  0.50186819  0.83716336  1
  Ni  Ni51  1  0.83521305  0.83478880  0.50356121  1
  Ni  Ni52  1  0.66923713  0.66670539  0.66867994  1
  Ni  Ni53  1  0.83399620  0.83579632  0.83494448  1
" 