2933,Ni35Fe26Cr37_13,-224.720115602347, 180.606246375695,Ni35Fe26Cr37,"# generated using pymatgen
 data_Cr21Fe14Ni19
_symmetry_space_group_name_H-M   'P 1'
_cell_length_a   7.47419001
_cell_length_b   7.47419001
_cell_length_c   10.57010089
_cell_angle_alpha   90.00000000
_cell_angle_beta   90.00000000
_cell_angle_gamma   90.00000000
_symmetry_Int_Tables_number   1
_chemical_formula_structural   Cr21Fe14Ni19
_chemical_formula_sum   'Cr21 Fe14 Ni19'
_cell_volume   590.48300396
_cell_formula_units_Z   1
loop_
 _symmetry_equiv_pos_site_id
 _symmetry_equiv_pos_as_xyz
  1  'x, y, z'
loop_
 _atom_site_type_symbol
 _atom_site_label
 _atom_site_symmetry_multiplicity
 _atom_site_fract_x
 _atom_site_fract_y
 _atom_site_fract_z
 _atom_site_occupancy
  Fe  Fe0  1  0.00136529  -0.00033213  0.00064577  1
  Ni  Ni1  1  0.16552274  0.16572432  0.16623466  1
  Ni  Ni2  1  0.00034144  0.00206042  0.33304389  1
  Ni  Ni3  1  0.00272438  0.33334540  0.00000685  1
  Fe  Fe4  1  0.16470187  0.49737397  0.16450475  1
  Ni  Ni5  1  -0.00013234  0.33081886  0.33308125  1
  Ni  Ni6  1  0.00284595  0.66225385  0.00186324  1
  Ni  Ni7  1  0.16651769  0.83235561  0.16608698  1
  Cr  Cr8  1  0.99628122  0.66527677  0.33208498  1
  Cr  Cr9  1  0.33434351  0.00031913  0.00249371  1
  Ni  Ni10  1  0.49855494  0.16848007  0.16551517  1
  Fe  Fe11  1  0.32934928  0.00033154  0.32992624  1
  Fe  Fe12  1  0.33175941  0.33405728  0.00035605  1
  Cr  Cr13  1  0.50106846  0.49843734  0.16588337  1
  Cr  Cr14  1  0.33045189  0.32971610  0.33192309  1
  Ni  Ni15  1  0.33081202  0.66544075  0.99897221  1
  Fe  Fe16  1  0.49838744  0.83418228  0.16545198  1
  Cr  Cr17  1  0.33408344  0.66691455  0.33085764  1
  Ni  Ni18  1  0.66372686  0.00105443  0.99914653  1
  Cr  Cr19  1  0.83242756  0.16905561  0.16363901  1
  Cr  Cr20  1  0.66551253  0.99756670  0.33028282  1
  Ni  Ni21  1  0.66647607  0.33169187  0.00107712  1
  Fe  Fe22  1  0.83506942  0.49738665  0.16591339  1
  Fe  Fe23  1  0.66900265  0.33522827  0.33166853  1
  Cr  Cr24  1  0.66534590  0.66899397  -0.00045745  1
  Cr  Cr25  1  0.83590159  0.83196409  0.16359717  1
  Ni  Ni26  1  0.66719959  0.66533685  0.33440193  1
  Ni  Ni27  1  0.16540856  0.16556909  0.50031487  1
  Ni  Ni28  1  -0.00024518  0.00266355  0.66541498  1
  Fe  Fe29  1  0.16473998  0.16530456  0.83273280  1
  Cr  Cr30  1  0.16620037  0.49873560  0.49985512  1
  Ni  Ni31  1  0.99908003  0.33101270  0.66542267  1
  Fe  Fe32  1  0.16712060  0.49868063  0.83419262  1
  Cr  Cr33  1  0.16574084  0.83643028  0.49939239  1
  Cr  Cr34  1  0.99753802  0.66427182  0.66416093  1
  Cr  Cr35  1  0.16708068  0.83145945  0.83184733  1
  Cr  Cr36  1  0.49818963  0.16766001  0.49796254  1
  Ni  Ni37  1  0.33302782  0.00021130  0.66512724  1
  Cr  Cr38  1  0.50074628  0.16703962  0.83425066  1
  Fe  Fe39  1  0.50191412  0.49956721  0.50004548  1
  Cr  Cr40  1  0.33133543  0.33337778  0.66869168  1
  Fe  Fe41  1  0.49894547  0.50182148  0.83476444  1
  Cr  Cr42  1  0.49724578  0.83243044  0.49997652  1
  Ni  Ni43  1  0.33799386  0.66593516  0.66873218  1
  Ni  Ni44  1  0.49731979  0.83237500  0.83235588  1
  Cr  Cr45  1  0.83404206  0.16716683  0.50050727  1
  Fe  Fe46  1  0.66572964  0.99753634  0.66678067  1
  Cr  Cr47  1  0.83387590  0.16679018  0.83427975  1
  Ni  Ni48  1  0.82963939  0.49799497  0.49763537  1
  Fe  Fe49  1  0.66697867  0.33556536  0.66626369  1
  Cr  Cr50  1  0.83379505  0.49713084  0.83511902  1
  Ni  Ni51  1  0.83177305  0.83227316  0.50124500  1
  Fe  Fe52  1  0.66568558  0.66518857  0.66557561  1
  Cr  Cr53  1  0.83365635  0.83497206  0.83335097  1
" 