8597,Ni35Cr65_9,-226.093571705898, 140.339647280566,Ni35Cr65,"# generated using pymatgen
 data_CrNi2
_symmetry_space_group_name_H-M   'P 1'
_cell_length_a   7.49397541
_cell_length_b   7.49397541
_cell_length_c   10.59808166
_cell_angle_alpha   90.00000000
_cell_angle_beta   90.00000000
_cell_angle_gamma   90.00000000
_symmetry_Int_Tables_number   1
_chemical_formula_structural   CrNi2
_chemical_formula_sum   'Cr18 Ni36'
_cell_volume   595.18474152
_cell_formula_units_Z   18
loop_
 _symmetry_equiv_pos_site_id
 _symmetry_equiv_pos_as_xyz
  1  'x, y, z'
loop_
 _atom_site_type_symbol
 _atom_site_label
 _atom_site_symmetry_multiplicity
 _atom_site_fract_x
 _atom_site_fract_y
 _atom_site_fract_z
 _atom_site_occupancy
  Cr  Cr0  1  -0.00156120  0.99657187  -0.00028831  1
  Ni  Ni1  1  0.16648153  0.16303833  0.16704115  1
  Ni  Ni2  1  -0.00163154  0.00011325  0.33042113  1
  Cr  Cr3  1  0.99685593  0.33482629  -0.00086678  1
  Ni  Ni4  1  0.16381650  0.49901003  0.16513455  1
  Cr  Cr5  1  0.99757620  0.32880978  0.32953270  1
  Ni  Ni6  1  0.99744460  0.66403808  -0.00118382  1
  Ni  Ni7  1  0.16526306  0.83257498  0.16515409  1
  Cr  Cr8  1  0.99810890  0.66625000  0.32718992  1
  Ni  Ni9  1  0.33370402  0.99759758  0.00001038  1
  Ni  Ni10  1  0.49788160  0.16131118  0.16571054  1
  Ni  Ni11  1  0.33260626  -0.00109865  0.32999671  1
  Cr  Cr12  1  0.33116110  0.32858505  -0.00110237  1
  Cr  Cr13  1  0.49905902  0.49857092  0.16801096  1
  Ni  Ni14  1  0.33331637  0.32969936  0.33168908  1
  Cr  Cr15  1  0.32843792  0.66770813  0.99815498  1
  Ni  Ni16  1  0.49927165  0.83403934  0.16555000  1
  Ni  Ni17  1  0.33425606  0.66598360  0.33131199  1
  Ni  Ni18  1  0.66276179  -0.00179108  -0.00038923  1
  Ni  Ni19  1  0.83022185  0.16283820  0.16670313  1
  Ni  Ni20  1  0.66363162  -0.00086805  0.33057333  1
  Cr  Cr21  1  0.66668499  0.32918261  0.99799025  1
  Ni  Ni22  1  0.83169958  0.50041975  0.16400635  1
  Ni  Ni23  1  0.66302501  0.32968516  0.33167692  1
  Ni  Ni24  1  0.66877382  0.66684552  0.00004163  1
  Ni  Ni25  1  0.83011629  0.83139544  0.16462235  1
  Ni  Ni26  1  0.66186416  0.66578377  0.33071472  1
  Ni  Ni27  1  0.16489393  0.16488597  0.49812603  1
  Ni  Ni28  1  0.99642214  0.00201653  0.66442379  1
  Cr  Cr29  1  0.16515801  0.16480469  0.82976905  1
  Cr  Cr30  1  0.16949351  0.49521383  0.49900414  1
  Ni  Ni31  1  0.99695229  0.32915636  0.66625454  1
  Ni  Ni32  1  0.16295838  0.49967856  0.82983891  1
  Cr  Cr33  1  0.16631374  0.83444204  0.49775532  1
  Cr  Cr34  1  -0.00050062  0.66427184  0.66817700  1
  Ni  Ni35  1  0.16448301  0.82962770  0.83168482  1
  Ni  Ni36  1  0.49891945  0.16611540  0.49760421  1
  Cr  Cr37  1  0.33287376  0.99800806  0.66475390  1
  Ni  Ni38  1  0.50065712  0.16427622  0.83131293  1
  Ni  Ni39  1  0.49802931  0.49819491  0.49850572  1
  Ni  Ni40  1  0.33241075  0.33258223  0.66403516  1
  Cr  Cr41  1  0.49892654  0.49726515  0.82866117  1
  Ni  Ni42  1  0.49926850  0.83027504  0.49740629  1
  Ni  Ni43  1  0.33305700  0.66298178  0.66481074  1
  Cr  Cr44  1  0.49879517  0.83307200  0.83232608  1
  Ni  Ni45  1  0.83079692  0.16365461  0.49976815  1
  Ni  Ni46  1  0.66577120  0.00130483  0.66444699  1
  Ni  Ni47  1  0.82932559  0.16585951  0.82817775  1
  Cr  Cr48  1  0.82712366  0.49617551  0.49883454  1
  Ni  Ni49  1  0.66522943  0.32973492  0.66517119  1
  Ni  Ni50  1  0.83269546  0.49753149  0.83119700  1
  Cr  Cr51  1  0.82865532  0.83513732  0.49816735  1
  Ni  Ni52  1  0.66228013  0.66359684  0.66387792  1
  Cr  Cr53  1  0.83116520  0.83199825  0.83148496  1
" 