6265,Ni35Fe9Cr54_15,-217.633988808499, 152.424953566926,Ni35Fe9Cr54,"# generated using pymatgen
 data_Cr30Fe5Ni19
_symmetry_space_group_name_H-M   'P 1'
_cell_length_a   7.52672573
_cell_length_b   7.52672573
_cell_length_c   10.64439761
_cell_angle_alpha   90.00000000
_cell_angle_beta   90.00000000
_cell_angle_gamma   90.00000000
_symmetry_Int_Tables_number   1
_chemical_formula_structural   Cr30Fe5Ni19
_chemical_formula_sum   'Cr30 Fe5 Ni19'
_cell_volume   603.02215787
_cell_formula_units_Z   1
loop_
 _symmetry_equiv_pos_site_id
 _symmetry_equiv_pos_as_xyz
  1  'x, y, z'
loop_
 _atom_site_type_symbol
 _atom_site_label
 _atom_site_symmetry_multiplicity
 _atom_site_fract_x
 _atom_site_fract_y
 _atom_site_fract_z
 _atom_site_occupancy
  Cr  Cr0  1  -0.00297276  0.99138785  -0.00139675  1
  Fe  Fe1  1  0.16343967  0.16245914  0.16008264  1
  Cr  Cr2  1  -0.00147138  0.99122012  0.32844995  1
  Fe  Fe3  1  -0.00383370  0.33106031  -0.00326479  1
  Cr  Cr4  1  0.16327033  0.49811882  0.15904616  1
  Cr  Cr5  1  0.99589813  0.33331546  0.32850134  1
  Ni  Ni6  1  0.99528849  0.66252678  0.99563079  1
  Ni  Ni7  1  0.16316067  0.82453581  0.16071529  1
  Cr  Cr8  1  0.99523668  0.66341357  0.33000740  1
  Cr  Cr9  1  0.33088531  0.99561154  -0.00264927  1
  Ni  Ni10  1  0.49652790  0.16231572  0.16010943  1
  Cr  Cr11  1  0.32669820  0.99352607  0.32521400  1
  Ni  Ni12  1  0.33014850  0.32977939  0.99580223  1
  Cr  Cr13  1  0.49406028  0.49878068  0.16358486  1
  Cr  Cr14  1  0.32700529  0.32852123  0.32950524  1
  Ni  Ni15  1  0.32891758  0.66299343  0.99593192  1
  Ni  Ni16  1  0.49432501  0.83035325  0.16085886  1
  Ni  Ni17  1  0.32625858  0.66512974  0.32874014  1
  Ni  Ni18  1  0.66273261  0.99509440  0.99549218  1
  Cr  Cr19  1  0.82822233  0.16292445  0.16139995  1
  Cr  Cr20  1  0.66291581  0.99221595  0.32560920  1
  Cr  Cr21  1  0.66143046  0.33270095  0.99336005  1
  Ni  Ni22  1  0.83274473  0.49819879  0.15871536  1
  Cr  Cr23  1  0.66466287  0.33378138  0.33080480  1
  Cr  Cr24  1  0.66445986  0.66576509  0.99593961  1
  Ni  Ni25  1  0.83045316  0.82833760  0.15973380  1
  Cr  Cr26  1  0.66704987  0.66327978  0.32636026  1
  Cr  Cr27  1  0.16060525  0.16117960  0.49749554  1
  Ni  Ni28  1  0.99469307  0.99111144  0.66186698  1
  Cr  Cr29  1  0.16109610  0.16392438  0.83169766  1
  Ni  Ni30  1  0.16155637  0.50185289  0.49719127  1
  Cr  Cr31  1  0.99574043  0.33270478  0.66200223  1
  Cr  Cr32  1  0.16351053  0.49887262  0.83258262  1
  Ni  Ni33  1  0.16109911  0.82344043  0.49905807  1
  Fe  Fe34  1  -0.00352703  0.66394369  0.66307291  1
  Cr  Cr35  1  0.16185560  0.82599550  0.82771488  1
  Cr  Cr36  1  0.49817549  0.16139594  0.49523826  1
  Cr  Cr37  1  0.32701718  0.99415448  0.66482247  1
  Ni  Ni38  1  0.49745693  0.16248767  0.83187446  1
  Cr  Cr39  1  0.49307500  0.49939530  0.49403969  1
  Cr  Cr40  1  0.32989394  0.33062386  0.66420859  1
  Fe  Fe41  1  0.49331271  0.49959749  0.83119363  1
  Cr  Cr42  1  0.49488726  0.82742658  0.49400506  1
  Ni  Ni43  1  0.32901121  0.66279959  0.66318902  1
  Ni  Ni44  1  0.49669046  0.82773492  0.83169734  1
  Cr  Cr45  1  0.82910594  0.15958495  0.49705558  1
  Cr  Cr46  1  0.66161053  0.99276485  0.66625143  1
  Cr  Cr47  1  0.82959959  0.15958153  0.82933614  1
  Ni  Ni48  1  0.83281312  0.49979499  0.49802818  1
  Cr  Cr49  1  0.66182874  0.33365802  0.66420859  1
  Fe  Fe50  1  0.83117593  0.49854451  0.83118924  1
  Ni  Ni51  1  0.83283978  0.82601785  0.49883909  1
  Cr  Cr52  1  0.66435636  0.66233453  0.66566595  1
  Ni  Ni53  1  0.82892750  0.82765194  0.83011209  1
" 