957,Ni35Fe39Cr24_16,-229.966822075723, 198.707440894484,Ni35Fe39Cr24,"# generated using pymatgen
 data_Cr14Fe21Ni19
_symmetry_space_group_name_H-M   'P 1'
_cell_length_a   7.44892129
_cell_length_b   7.44892129
_cell_length_c   10.53436552
_cell_angle_alpha   90.00000000
_cell_angle_beta   90.00000000
_cell_angle_gamma   90.00000000
_symmetry_Int_Tables_number   1
_chemical_formula_structural   Cr14Fe21Ni19
_chemical_formula_sum   'Cr14 Fe21 Ni19'
_cell_volume   584.51431810
_cell_formula_units_Z   1
loop_
 _symmetry_equiv_pos_site_id
 _symmetry_equiv_pos_as_xyz
  1  'x, y, z'
loop_
 _atom_site_type_symbol
 _atom_site_label
 _atom_site_symmetry_multiplicity
 _atom_site_fract_x
 _atom_site_fract_y
 _atom_site_fract_z
 _atom_site_occupancy
  Ni  Ni0  1  1.00080317  1.00115045  0.00202316  1
  Fe  Fe1  1  0.16646187  0.16838732  0.16673334  1
  Cr  Cr2  1  1.00087244  0.00234408  0.33374045  1
  Ni  Ni3  1  0.00286291  0.33413245  1.00067271  1
  Cr  Cr4  1  0.16791233  0.50305342  0.16765635  1
  Ni  Ni5  1  1.00022743  0.33488173  0.33682340  1
  Ni  Ni6  1  0.00229619  0.66836880  0.99906990  1
  Fe  Fe7  1  0.16618847  0.83366726  0.16632619  1
  Fe  Fe8  1  0.00247389  0.66725316  0.33589636  1
  Cr  Cr9  1  0.33398222  0.00217945  1.00052036  1
  Ni  Ni10  1  0.50540577  0.16786363  0.16747138  1
  Cr  Cr11  1  0.33541599  0.00126409  0.33560419  1
  Fe  Fe12  1  0.33303177  0.33407695  1.00016597  1
  Cr  Cr13  1  0.49942630  0.49922024  0.16733162  1
  Cr  Cr14  1  0.33277751  0.33288943  0.33520066  1
  Ni  Ni15  1  0.33187852  0.66771863  0.99987313  1
  Cr  Cr16  1  0.50093650  0.83587901  0.16784978  1
  Fe  Fe17  1  0.33189905  0.66926149  0.33615742  1
  Ni  Ni18  1  0.66898374  0.00173535  0.00189429  1
  Fe  Fe19  1  0.83301528  0.16740744  0.16760167  1
  Ni  Ni20  1  0.66796638  0.00237130  0.33536459  1
  Fe  Fe21  1  0.66842707  0.33130397  0.00212604  1
  Cr  Cr22  1  0.83631007  0.49846099  0.16752154  1
  Ni  Ni23  1  0.67043790  0.33190527  0.33572416  1
  Cr  Cr24  1  0.66939167  0.66986699  0.99916868  1
  Fe  Fe25  1  0.83599100  0.83734066  0.16601792  1
  Cr  Cr26  1  0.66891196  0.66950209  0.33562375  1
  Ni  Ni27  1  0.16573342  0.16812617  0.50284435  1
  Fe  Fe28  1  0.00219862  0.99894487  0.66725853  1
  Fe  Fe29  1  0.16859526  0.16791594  0.83429484  1
  Ni  Ni30  1  0.16699422  0.50288558  0.50019536  1
  Cr  Cr31  1  0.00389836  0.33558534  0.66620409  1
  Ni  Ni32  1  0.16869483  0.50317267  0.83627263  1
  Ni  Ni33  1  0.16844667  0.83263226  0.50168126  1
  Fe  Fe34  1  0.00189337  0.66897388  0.66873054  1
  Ni  Ni35  1  0.16619468  0.83247583  0.83488720  1
  Fe  Fe36  1  0.50182173  0.16622803  0.50176927  1
  Fe  Fe37  1  0.33436049  1.00098332  0.66719472  1
  Fe  Fe38  1  0.50007310  0.16680472  0.83445494  1
  Cr  Cr39  1  0.50016796  0.50156957  0.50032674  1
  Ni  Ni40  1  0.33318324  0.33204942  0.66832655  1
  Cr  Cr41  1  0.49910463  0.50052000  0.83599020  1
  Ni  Ni42  1  0.50097194  0.83540572  0.50274393  1
  Fe  Fe43  1  0.33289281  0.66870416  0.66803702  1
  Fe  Fe44  1  0.50128021  0.83520283  0.83311292  1
  Ni  Ni45  1  0.83323837  0.16779845  0.49906619  1
  Fe  Fe46  1  0.66708598  1.00035598  0.66697272  1
  Cr  Cr47  1  0.83376542  0.16577333  0.83704177  1
  Fe  Fe48  1  0.83667725  0.50082571  0.50062817  1
  Fe  Fe49  1  0.66682487  0.33426289  0.66647175  1
  Fe  Fe50  1  0.83717655  0.50393327  0.83501655  1
  Fe  Fe51  1  0.83476708  0.83497048  0.50309963  1
  Ni  Ni52  1  0.66926355  0.67059832  0.66831188  1
  Ni  Ni53  1  0.83611019  0.83551782  0.83460942  1
" 