5060,Ni35Cr65_13,-225.819216569982, 135.506832090157,Ni35Cr65,"# generated using pymatgen
 data_CrNi2
_symmetry_space_group_name_H-M   'P 1'
_cell_length_a   7.50107516
_cell_length_b   7.50107516
_cell_length_c   10.60812222
_cell_angle_alpha   90.00000000
_cell_angle_beta   90.00000000
_cell_angle_gamma   90.00000000
_symmetry_Int_Tables_number   1
_chemical_formula_structural   CrNi2
_chemical_formula_sum   'Cr18 Ni36'
_cell_volume   596.87796761
_cell_formula_units_Z   18
loop_
 _symmetry_equiv_pos_site_id
 _symmetry_equiv_pos_as_xyz
  1  'x, y, z'
loop_
 _atom_site_type_symbol
 _atom_site_label
 _atom_site_symmetry_multiplicity
 _atom_site_fract_x
 _atom_site_fract_y
 _atom_site_fract_z
 _atom_site_occupancy
  Cr  Cr0  1  -0.00200230  -0.00015085  0.99493068  1
  Ni  Ni1  1  0.16459352  0.16284560  0.16427421  1
  Ni  Ni2  1  0.99769794  0.00180657  0.33126861  1
  Ni  Ni3  1  0.99656311  0.32722713  0.99667887  1
  Cr  Cr4  1  0.16469506  0.49419873  0.16166204  1
  Ni  Ni5  1  0.99748994  0.32628310  0.33259099  1
  Cr  Cr6  1  0.99732218  0.66629509  0.99519390  1
  Ni  Ni7  1  0.16827428  0.83545446  0.16428136  1
  Cr  Cr8  1  -0.00224940  0.66264710  0.33259841  1
  Ni  Ni9  1  0.33282706  -0.00108993  0.99758288  1
  Ni  Ni10  1  0.49785987  0.16213056  0.16257882  1
  Ni  Ni11  1  0.33141642  0.00082958  0.32880108  1
  Ni  Ni12  1  0.33370600  0.32861723  0.99762583  1
  Ni  Ni13  1  0.49754749  0.49727405  0.15938473  1
  Cr  Cr14  1  0.33286961  0.32952648  0.33204360  1
  Ni  Ni15  1  0.33502426  0.66587316  -0.00183695  1
  Ni  Ni16  1  0.49632080  0.83389305  0.16267544  1
  Cr  Cr17  1  0.33251565  0.66230013  0.32902164  1
  Ni  Ni18  1  0.66200407  -0.00030689  0.99700948  1
  Ni  Ni19  1  0.83080862  0.16404030  0.16416058  1
  Ni  Ni20  1  0.66407224  0.00061681  0.33093086  1
  Ni  Ni21  1  0.66275248  0.32929167  0.99687630  1
  Cr  Cr22  1  0.82982594  0.49301614  0.16058348  1
  Cr  Cr23  1  0.66364944  0.32909236  0.33081080  1
  Ni  Ni24  1  0.66045499  0.66413229  0.99546618  1
  Cr  Cr25  1  0.82775872  0.83500605  0.16565064  1
  Cr  Cr26  1  0.66278815  0.66141523  0.33184128  1
  Ni  Ni27  1  0.16357030  0.16760243  0.49722152  1
  Cr  Cr28  1  0.99677205  0.00049965  0.66791995  1
  Ni  Ni29  1  0.16581245  0.16660979  0.83200676  1
  Ni  Ni30  1  0.16314924  0.49220606  0.49880109  1
  Ni  Ni31  1  0.99629437  0.32971110  0.66367037  1
  Cr  Cr32  1  0.16567824  0.49358113  0.83180447  1
  Cr  Cr33  1  0.16451702  0.83461850  0.49587865  1
  Cr  Cr34  1  0.99468072  0.66466544  0.66509862  1
  Ni  Ni35  1  0.16769063  0.83243116  0.83379597  1
  Ni  Ni36  1  0.49805624  0.16627558  0.49801454  1
  Cr  Cr37  1  0.33131856  0.00258035  0.66780008  1
  Ni  Ni38  1  0.49792727  0.16650833  0.83258509  1
  Ni  Ni39  1  0.49914940  0.49486015  0.50145842  1
  Ni  Ni40  1  0.33271493  0.32983766  0.66340941  1
  Ni  Ni41  1  0.50029365  0.49610206  0.83187676  1
  Cr  Cr42  1  0.49997502  0.83428112  0.49708037  1
  Cr  Cr43  1  0.33367975  0.66200509  0.66524152  1
  Ni  Ni44  1  0.49935234  0.83067408  0.83419352  1
  Ni  Ni45  1  0.83156463  0.16548126  0.49659869  1
  Cr  Cr46  1  0.66554770  0.00054080  0.66623942  1
  Ni  Ni47  1  0.82930116  0.16810344  0.83238588  1
  Ni  Ni48  1  0.83098644  0.49471941  0.50012316  1
  Ni  Ni49  1  0.66407912  0.33204328  0.66452853  1
  Ni  Ni50  1  0.82754479  0.49483496  0.83104958  1
  Ni  Ni51  1  0.82968742  0.83264738  0.49694004  1
  Ni  Ni52  1  0.66531712  0.66161372  0.66544851  1
  Ni  Ni53  1  0.82627169  0.83021930  0.83166171  1
" 