6987,Ni35Fe20Cr43_3,-222.995689051444, 171.39004522715,Ni35Fe20Cr43,"# generated using pymatgen
 data_Cr24Fe11Ni19
_symmetry_space_group_name_H-M   'P 1'
_cell_length_a   7.50165962
_cell_length_b   7.50165962
_cell_length_c   10.60894878
_cell_angle_alpha   90.00000000
_cell_angle_beta   90.00000000
_cell_angle_gamma   90.00000000
_symmetry_Int_Tables_number   1
_chemical_formula_structural   Cr24Fe11Ni19
_chemical_formula_sum   'Cr24 Fe11 Ni19'
_cell_volume   597.01750120
_cell_formula_units_Z   1
loop_
 _symmetry_equiv_pos_site_id
 _symmetry_equiv_pos_as_xyz
  1  'x, y, z'
loop_
 _atom_site_type_symbol
 _atom_site_label
 _atom_site_symmetry_multiplicity
 _atom_site_fract_x
 _atom_site_fract_y
 _atom_site_fract_z
 _atom_site_occupancy
  Cr  Cr0  1  0.99574250  0.99478414  0.99700670  1
  Ni  Ni1  1  0.16711992  0.15906877  0.16327004  1
  Ni  Ni2  1  0.00020375  0.99558815  0.33065345  1
  Fe  Fe3  1  0.00065414  0.32837545  -0.00032664  1
  Fe  Fe4  1  0.16538535  0.49844401  0.16400555  1
  Cr  Cr5  1  0.00072950  0.33118434  0.33380216  1
  Cr  Cr6  1  -0.00152829  0.66661376  -0.00042778  1
  Ni  Ni7  1  0.16742842  0.83311920  0.16665113  1
  Ni  Ni8  1  0.00007133  0.66658025  0.32875647  1
  Ni  Ni9  1  0.33232180  0.99728524  -0.00192529  1
  Fe  Fe10  1  0.49313641  0.16187912  0.16278025  1
  Ni  Ni11  1  0.32851410  0.99654462  0.32888839  1
  Ni  Ni12  1  0.33112818  0.33038504  0.00049830  1
  Cr  Cr13  1  0.49795442  0.50038643  0.16471080  1
  Cr  Cr14  1  0.32991982  0.33020185  0.33050583  1
  Ni  Ni15  1  0.33006023  0.66534140  -0.00193216  1
  Fe  Fe16  1  0.49322202  0.83147454  0.16415885  1
  Ni  Ni17  1  0.32845661  0.66597023  0.33099309  1
  Cr  Cr18  1  0.66335040  0.99629914  0.99734410  1
  Cr  Cr19  1  0.83578846  0.16483140  0.16624468  1
  Cr  Cr20  1  0.66366696  -0.00222654  0.32705634  1
  Cr  Cr21  1  0.66167989  0.32576787  0.99661657  1
  Cr  Cr22  1  0.82964180  0.49929603  0.16403168  1
  Cr  Cr23  1  0.66195184  0.32894912  0.33314917  1
  Fe  Fe24  1  0.66089345  0.66726213  -0.00209734  1
  Fe  Fe25  1  0.83350602  0.83101003  0.16660413  1
  Ni  Ni26  1  0.66443773  0.66744918  0.32813510  1
  Ni  Ni27  1  0.16192095  0.16256944  0.49770990  1
  Ni  Ni28  1  0.99336569  -0.00216299  0.66433261  1
  Cr  Cr29  1  0.16357808  0.16293534  0.83262145  1
  Ni  Ni30  1  0.16413831  0.49865449  0.49552032  1
  Fe  Fe31  1  0.99638578  0.32785398  0.66228278  1
  Cr  Cr32  1  0.16495492  0.49594091  0.83502133  1
  Cr  Cr33  1  0.16624213  0.83520092  0.49743396  1
  Cr  Cr34  1  0.00094241  0.66505027  0.66468690  1
  Cr  Cr35  1  0.16783135  0.83425654  0.82853193  1
  Cr  Cr36  1  0.49652293  0.16101959  0.49717852  1
  Fe  Fe37  1  0.33284867  0.00009965  0.66534502  1
  Ni  Ni38  1  0.49738816  0.16237936  0.83191865  1
  Cr  Cr39  1  0.49931378  0.50173418  0.49768546  1
  Cr  Cr40  1  0.33046096  0.33319091  0.66152191  1
  Cr  Cr41  1  0.49859120  0.49983882  0.83058808  1
  Cr  Cr42  1  0.49691005  0.83119711  0.49748435  1
  Fe  Fe43  1  0.33304852  0.66660283  0.66437999  1
  Ni  Ni44  1  0.49875133  0.83284014  0.83082741  1
  Fe  Fe45  1  0.83302905  0.16221377  0.50021819  1
  Ni  Ni46  1  0.66545182  -0.00101315  0.66818394  1
  Ni  Ni47  1  0.83027700  0.16290377  0.82754316  1
  Cr  Cr48  1  0.82944780  0.49756135  0.49730685  1
  Ni  Ni49  1  0.66363259  0.32599287  0.66489466  1
  Cr  Cr50  1  0.82986060  0.49499636  0.83279517  1
  Cr  Cr51  1  0.83144264  0.83216473  0.49378507  1
  Fe  Fe52  1  0.66592322  0.66781852  0.66566699  1
  Ni  Ni53  1  0.82772760  0.83171968  0.83080618  1
" 