597,Ni35Fe16Cr47_19,-220.252382436473, 166.068023123228,Ni35Fe16Cr47,"# generated using pymatgen
 data_Cr27Fe8Ni19
_symmetry_space_group_name_H-M   'P 1'
_cell_length_a   7.50772074
_cell_length_b   7.50772074
_cell_length_c   10.61752049
_cell_angle_alpha   90.00000000
_cell_angle_beta   90.00000000
_cell_angle_gamma   90.00000000
_symmetry_Int_Tables_number   1
_chemical_formula_structural   Cr27Fe8Ni19
_chemical_formula_sum   'Cr27 Fe8 Ni19'
_cell_volume   598.46578682
_cell_formula_units_Z   1
loop_
 _symmetry_equiv_pos_site_id
 _symmetry_equiv_pos_as_xyz
  1  'x, y, z'
loop_
 _atom_site_type_symbol
 _atom_site_label
 _atom_site_symmetry_multiplicity
 _atom_site_fract_x
 _atom_site_fract_y
 _atom_site_fract_z
 _atom_site_occupancy
  Cr  Cr0  1  0.99408833  -0.00170505  -0.00186706  1
  Cr  Cr1  1  0.16261740  0.16273640  0.16231071  1
  Fe  Fe2  1  -0.00259271  0.99453264  0.33151946  1
  Ni  Ni3  1  0.99433516  0.33171937  0.99719363  1
  Cr  Cr4  1  0.16410417  0.49725733  0.16350116  1
  Cr  Cr5  1  -0.00229609  0.33305074  0.32810715  1
  Cr  Cr6  1  0.99376802  0.66094781  0.99649877  1
  Cr  Cr7  1  0.16629280  0.83168117  0.16308570  1
  Ni  Ni8  1  -0.00261874  0.66307212  0.33242947  1
  Ni  Ni9  1  0.33535484  0.99611355  0.99596183  1
  Cr  Cr10  1  0.49797736  0.16218820  0.16447926  1
  Cr  Cr11  1  0.33428775  0.99673743  0.33393925  1
  Cr  Cr12  1  0.32902942  0.32995499  0.99712494  1
  Cr  Cr13  1  0.49910742  0.50003725  0.16376025  1
  Ni  Ni14  1  0.33085855  0.32919751  0.33267103  1
  Ni  Ni15  1  0.33361619  0.66695088  -0.00086949  1
  Ni  Ni16  1  0.49907981  0.83214705  0.16064573  1
  Cr  Cr17  1  0.32845211  0.66387313  0.33245518  1
  Ni  Ni18  1  0.66192688  0.99505379  -0.00249504  1
  Fe  Fe19  1  0.82865724  0.16434438  0.16443481  1
  Ni  Ni20  1  0.66310123  -0.00061971  0.33045460  1
  Cr  Cr21  1  0.66748819  0.33069352  0.99662021  1
  Ni  Ni22  1  0.83027144  0.49597067  0.16288688  1
  Fe  Fe23  1  0.66279165  0.32962327  0.32986741  1
  Ni  Ni24  1  0.66493906  0.66637193  0.99696535  1
  Cr  Cr25  1  0.82817724  0.83129194  0.16525221  1
  Cr  Cr26  1  0.66465623  0.66761451  0.32937070  1
  Cr  Cr27  1  0.16293643  0.16187662  0.49833505  1
  Ni  Ni28  1  0.99714724  0.99491305  0.66277266  1
  Cr  Cr29  1  0.16422562  0.16151126  0.83109990  1
  Fe  Fe30  1  0.16368456  0.50006563  0.49799523  1
  Fe  Fe31  1  0.99564937  0.33289146  0.66505017  1
  Cr  Cr32  1  0.16301379  0.49824411  0.83046985  1
  Ni  Ni33  1  0.16386341  0.82954590  0.49952779  1
  Ni  Ni34  1  0.99707968  0.66470222  0.66370001  1
  Cr  Cr35  1  0.16434370  0.83157502  0.82991934  1
  Ni  Ni36  1  0.49726661  0.16388230  0.49721521  1
  Fe  Fe37  1  0.33029775  0.99282443  0.66202855  1
  Fe  Fe38  1  0.49846295  0.16233410  0.83092079  1
  Cr  Cr39  1  0.49875878  0.49690127  0.49689631  1
  Cr  Cr40  1  0.33187266  0.32882873  0.66263573  1
  Cr  Cr41  1  0.50002640  0.50020173  0.83118682  1
  Ni  Ni42  1  0.49537056  0.83153700  0.49872897  1
  Ni  Ni43  1  0.32950003  0.66444002  0.66020894  1
  Cr  Cr44  1  0.49760005  0.82904826  0.83347930  1
  Cr  Cr45  1  0.82927120  0.16413150  0.49486421  1
  Cr  Cr46  1  0.66229697  0.99684654  0.66418313  1
  Cr  Cr47  1  0.83187583  0.16390583  0.82980113  1
  Cr  Cr48  1  0.82995655  0.49802290  0.50001743  1
  Fe  Fe49  1  0.66514531  0.33234588  0.66476312  1
  Ni  Ni50  1  0.82960730  0.49885267  0.82896908  1
  Cr  Cr51  1  0.83252575  0.83036915  0.49766496  1
  Ni  Ni52  1  0.66524642  0.66469420  0.66562026  1
  Ni  Ni53  1  0.82923143  0.82839871  0.82936925  1
" 