5361,Ni35Fe20Cr43_13,-222.916347547218, 176.331483558577,Ni35Fe20Cr43,"# generated using pymatgen
 data_Cr24Fe11Ni19
_symmetry_space_group_name_H-M   'P 1'
_cell_length_a   7.49323331
_cell_length_b   7.49323331
_cell_length_c   10.59703218
_cell_angle_alpha   90.00000000
_cell_angle_beta   90.00000000
_cell_angle_gamma   90.00000000
_symmetry_Int_Tables_number   1
_chemical_formula_structural   Cr24Fe11Ni19
_chemical_formula_sum   'Cr24 Fe11 Ni19'
_cell_volume   595.00794364
_cell_formula_units_Z   1
loop_
 _symmetry_equiv_pos_site_id
 _symmetry_equiv_pos_as_xyz
  1  'x, y, z'
loop_
 _atom_site_type_symbol
 _atom_site_label
 _atom_site_symmetry_multiplicity
 _atom_site_fract_x
 _atom_site_fract_y
 _atom_site_fract_z
 _atom_site_occupancy
  Fe  Fe0  1  0.00015570  0.99676851  -0.00167251  1
  Cr  Cr1  1  0.16604340  0.16234287  0.16484257  1
  Fe  Fe2  1  0.99573475  -0.00080480  0.33230264  1
  Cr  Cr3  1  -0.00067951  0.32987720  -0.00084869  1
  Cr  Cr4  1  0.16451183  0.50020444  0.16790203  1
  Ni  Ni5  1  0.99517806  0.32878060  0.33151130  1
  Cr  Cr6  1  0.99618503  0.66593871  -0.00014083  1
  Cr  Cr7  1  0.16804513  0.83178950  0.16667778  1
  Fe  Fe8  1  0.99371649  0.66504624  0.33046987  1
  Ni  Ni9  1  0.32945397  0.99644485  -0.00059827  1
  Ni  Ni10  1  0.50012896  0.16213185  0.16461628  1
  Fe  Fe11  1  0.33539442  0.99743166  0.33177086  1
  Fe  Fe12  1  0.33318548  0.33166140  0.99789835  1
  Cr  Cr13  1  0.49987832  0.50027383  0.16472500  1
  Cr  Cr14  1  0.33285077  0.32924035  0.33357833  1
  Ni  Ni15  1  0.33341238  0.66954119  0.99532409  1
  Ni  Ni16  1  0.49699139  0.83149475  0.16526244  1
  Ni  Ni17  1  0.33535802  0.66893161  0.33429621  1
  Cr  Cr18  1  0.66418256  0.99509772  0.00247190  1
  Ni  Ni19  1  0.83124489  0.16624408  0.16801527  1
  Cr  Cr20  1  0.66280138  0.99618851  0.33156797  1
  Cr  Cr21  1  0.66632234  0.33340600  0.00046859  1
  Ni  Ni22  1  0.82984835  0.49793457  0.16898527  1
  Ni  Ni23  1  0.66792003  0.33088556  0.33198770  1
  Ni  Ni24  1  0.66220742  0.66616440  0.00102296  1
  Fe  Fe25  1  0.82864655  0.83013811  0.16692364  1
  Ni  Ni26  1  0.66397988  0.66668227  0.33083553  1
  Fe  Fe27  1  0.16423600  0.16306556  0.49634097  1
  Fe  Fe28  1  0.99786371  0.99702721  0.66375073  1
  Ni  Ni29  1  0.16506814  0.15974101  0.83400149  1
  Cr  Cr30  1  0.16494417  0.50056959  0.49526493  1
  Cr  Cr31  1  0.00090936  0.32994980  0.66413892  1
  Cr  Cr32  1  0.16866732  0.50125666  0.83185845  1
  Cr  Cr33  1  0.16398230  0.83150632  0.49666565  1
  Fe  Fe34  1  -0.00067369  0.66933774  0.66465782  1
  Ni  Ni35  1  0.16502719  0.83448228  0.83114247  1
  Ni  Ni36  1  0.50053042  0.16372488  0.49690507  1
  Cr  Cr37  1  0.33253439  0.99720604  0.66232186  1
  Cr  Cr38  1  0.49788352  0.16499870  0.83450345  1
  Ni  Ni39  1  0.49903835  0.49908337  0.49638613  1
  Cr  Cr40  1  0.33123837  0.33206256  0.66529198  1
  Ni  Ni41  1  0.49598647  0.50046796  0.83365281  1
  Ni  Ni42  1  0.49952036  0.83197594  0.49673026  1
  Fe  Fe43  1  0.33334832  0.66536812  0.66397786  1
  Cr  Cr44  1  0.49674697  0.83060444  0.83248533  1
  Fe  Fe45  1  0.83019899  0.16200811  0.49618603  1
  Ni  Ni46  1  0.66636668  0.99593915  0.65988555  1
  Cr  Cr47  1  0.83168616  0.16125142  0.82875753  1
  Cr  Cr48  1  0.83062393  0.49879601  0.49496821  1
  Cr  Cr49  1  0.66267874  0.32986135  0.66204039  1
  Cr  Cr50  1  0.82744923  0.49975145  0.83132588  1
  Ni  Ni51  1  0.83165062  0.83419334  0.49825900  1
  Cr  Cr52  1  0.66233259  0.66800023  0.66359920  1
  Cr  Cr53  1  0.83310971  0.83358108  0.83035204  1
" 