4523,Ni35Fe20Cr43_10,-223.113235123828, 172.846046481879,Ni35Fe20Cr43,"# generated using pymatgen
 data_Cr24Fe11Ni19
_symmetry_space_group_name_H-M   'P 1'
_cell_length_a   7.49248541
_cell_length_b   7.49248541
_cell_length_c   10.59597449
_cell_angle_alpha   90.00000000
_cell_angle_beta   90.00000000
_cell_angle_gamma   90.00000000
_symmetry_Int_Tables_number   1
_chemical_formula_structural   Cr24Fe11Ni19
_chemical_formula_sum   'Cr24 Fe11 Ni19'
_cell_volume   594.82979741
_cell_formula_units_Z   1
loop_
 _symmetry_equiv_pos_site_id
 _symmetry_equiv_pos_as_xyz
  1  'x, y, z'
loop_
 _atom_site_type_symbol
 _atom_site_label
 _atom_site_symmetry_multiplicity
 _atom_site_fract_x
 _atom_site_fract_y
 _atom_site_fract_z
 _atom_site_occupancy
  Ni  Ni0  1  -0.00112875  -0.00090182  0.99688864  1
  Ni  Ni1  1  0.16574594  0.16429792  0.16292545  1
  Cr  Cr2  1  0.99715609  0.99580189  0.33243524  1
  Cr  Cr3  1  -0.00083516  0.32918062  -0.00088696  1
  Ni  Ni4  1  0.16351805  0.49881599  0.16612775  1
  Cr  Cr5  1  -0.00108979  0.33115985  0.32885857  1
  Cr  Cr6  1  0.99388169  0.66619047  0.00212962  1
  Cr  Cr7  1  0.16507042  0.83298686  0.16267979  1
  Ni  Ni8  1  0.99682275  0.66646006  0.33043612  1
  Ni  Ni9  1  0.33290183  -0.00047003  0.99706600  1
  Cr  Cr10  1  0.49907012  0.16106965  0.16719762  1
  Cr  Cr11  1  0.33087059  -0.00129376  0.33111948  1
  Cr  Cr12  1  0.33081030  0.32925925  -0.00107605  1
  Cr  Cr13  1  0.49944322  0.49887698  0.16325905  1
  Fe  Fe14  1  0.32883235  0.33286028  0.32979032  1
  Fe  Fe15  1  0.33254486  0.66712791  0.99760575  1
  Ni  Ni16  1  0.50113314  0.83310850  0.16098442  1
  Cr  Cr17  1  0.33101252  0.66683647  0.33103458  1
  Fe  Fe18  1  0.66530398  0.99577745  0.99568443  1
  Cr  Cr19  1  0.83000631  0.16207568  0.16220177  1
  Fe  Fe20  1  0.66859090  0.99533984  0.33243424  1
  Fe  Fe21  1  0.66484736  0.33096539  0.99605977  1
  Ni  Ni22  1  0.83171836  0.50032111  0.16418071  1
  Cr  Cr23  1  0.66655860  0.33161087  0.33226591  1
  Ni  Ni24  1  0.66326319  0.66681250  0.99784161  1
  Ni  Ni25  1  0.82919854  0.83140066  0.16340092  1
  Cr  Cr26  1  0.66872201  0.66845520  0.33127778  1
  Cr  Cr27  1  0.16433016  0.16271448  0.49995472  1
  Fe  Fe28  1  0.99693904  0.99750566  0.66585412  1
  Ni  Ni29  1  0.16620970  0.16157540  0.83132230  1
  Cr  Cr30  1  0.16378279  0.50222412  0.49936364  1
  Fe  Fe31  1  0.99711227  0.32871915  0.66652792  1
  Cr  Cr32  1  0.16350789  0.50109915  0.82950612  1
  Ni  Ni33  1  0.16219803  0.83090561  0.50209112  1
  Ni  Ni34  1  0.99743436  0.66862876  0.66256187  1
  Cr  Cr35  1  0.16450210  0.83282186  0.83065420  1
  Cr  Cr36  1  0.50147364  0.16403529  0.49592759  1
  Ni  Ni37  1  0.33218033  0.99798723  0.66644806  1
  Ni  Ni38  1  0.50042964  0.16209805  0.83135665  1
  Cr  Cr39  1  0.49777380  0.49675726  0.50078095  1
  Cr  Cr40  1  0.33304069  0.32916714  0.66587518  1
  Fe  Fe41  1  0.49780314  0.49774269  0.83207454  1
  Cr  Cr42  1  0.49690018  0.83426129  0.49985891  1
  Ni  Ni43  1  0.33064010  0.66843626  0.66679746  1
  Fe  Fe44  1  0.49833070  0.83400479  0.83234219  1
  Ni  Ni45  1  0.83033634  0.16219766  0.50279597  1
  Ni  Ni46  1  0.66585798  0.00000135  0.66552734  1
  Fe  Fe47  1  0.83261713  0.16201687  0.83060678  1
  Cr  Cr48  1  0.83330338  0.49717646  0.49978337  1
  Ni  Ni49  1  0.66620205  0.32788790  0.66797589  1
  Cr  Cr50  1  0.83072100  0.49820661  0.83097068  1
  Ni  Ni51  1  0.83450303  0.83398246  0.49983542  1
  Cr  Cr52  1  0.66493443  0.66736574  0.66559725  1
  Fe  Fe53  1  0.83129873  0.83468705  0.83201933  1
" 