6924,Ni35Cr65_15,-225.903254480062, 140.35345226474,Ni35Cr65,"# generated using pymatgen
 data_CrNi2
_symmetry_space_group_name_H-M   'P 1'
_cell_length_a   7.49507513
_cell_length_b   7.49507513
_cell_length_c   10.59963690
_cell_angle_alpha   90.00000000
_cell_angle_beta   90.00000000
_cell_angle_gamma   90.00000000
_symmetry_Int_Tables_number   1
_chemical_formula_structural   CrNi2
_chemical_formula_sum   'Cr18 Ni36'
_cell_volume   595.44680528
_cell_formula_units_Z   18
loop_
 _symmetry_equiv_pos_site_id
 _symmetry_equiv_pos_as_xyz
  1  'x, y, z'
loop_
 _atom_site_type_symbol
 _atom_site_label
 _atom_site_symmetry_multiplicity
 _atom_site_fract_x
 _atom_site_fract_y
 _atom_site_fract_z
 _atom_site_occupancy
  Ni  Ni0  1  -0.00150903  0.99788939  -0.00038860  1
  Ni  Ni1  1  0.16467280  0.16124623  0.16461032  1
  Ni  Ni2  1  -0.00023617  -0.00174343  0.33220514  1
  Ni  Ni3  1  0.99764504  0.33056493  -0.00105713  1
  Cr  Cr4  1  0.16437417  0.49804709  0.16283034  1
  Cr  Cr5  1  -0.00184771  0.32842476  0.33050104  1
  Ni  Ni6  1  0.99736727  0.66593910  -0.00162932  1
  Ni  Ni7  1  0.16503016  0.83481741  0.16306997  1
  Cr  Cr8  1  0.99684041  0.66787587  0.33194291  1
  Ni  Ni9  1  0.33106455  0.99805273  -0.00013896  1
  Ni  Ni10  1  0.49754095  0.16366584  0.16557243  1
  Ni  Ni11  1  0.32917811  0.00082290  0.33038656  1
  Cr  Cr12  1  0.33144501  0.33000008  0.99699708  1
  Ni  Ni13  1  0.50005149  0.49844149  0.16705211  1
  Ni  Ni14  1  0.33431954  0.32901602  0.33332312  1
  Ni  Ni15  1  0.33111628  0.66682631  -0.00012350  1
  Ni  Ni16  1  0.49726437  0.83229060  0.16349515  1
  Cr  Cr17  1  0.33255604  0.66483625  0.33120343  1
  Ni  Ni18  1  0.66484397  0.99775514  -0.00057768  1
  Ni  Ni19  1  0.83215636  0.16403881  0.16402373  1
  Cr  Cr20  1  0.66602005  -0.00126433  0.33037278  1
  Cr  Cr21  1  0.66579963  0.33063586  -0.00125087  1
  Ni  Ni22  1  0.82960679  0.49805811  0.16435554  1
  Ni  Ni23  1  0.66191315  0.33219922  0.33084236  1
  Cr  Cr24  1  0.66536046  0.66553222  -0.00103402  1
  Ni  Ni25  1  0.83206903  0.83227329  0.16389138  1
  Ni  Ni26  1  0.66446302  0.66297443  0.32997449  1
  Ni  Ni27  1  0.16568091  0.16371880  0.49753523  1
  Ni  Ni28  1  0.99781905  0.99610687  0.66258904  1
  Ni  Ni29  1  0.16573992  0.16422626  0.83220695  1
  Ni  Ni30  1  0.16742047  0.49724406  0.49951430  1
  Cr  Cr31  1  -0.00047539  0.33051338  0.66464378  1
  Cr  Cr32  1  0.16367198  0.49760176  0.83256398  1
  Ni  Ni33  1  0.16123578  0.83343598  0.49821169  1
  Ni  Ni34  1  0.99525386  0.66724465  0.66417065  1
  Cr  Cr35  1  0.16230700  0.83281006  0.83335612  1
  Ni  Ni36  1  0.49688296  0.16922198  0.49774743  1
  Cr  Cr37  1  0.32927193  0.00221578  0.66411558  1
  Ni  Ni38  1  0.49664194  0.16671452  0.83106467  1
  Ni  Ni39  1  0.49790530  0.49461910  0.49843697  1
  Ni  Ni40  1  0.33417253  0.33097448  0.66375886  1
  Ni  Ni41  1  0.49992164  0.49638577  0.82889927  1
  Cr  Cr42  1  0.49910702  0.83063405  0.49705126  1
  Cr  Cr43  1  0.33115474  0.66167555  0.66337114  1
  Cr  Cr44  1  0.49936077  0.83194053  0.83366981  1
  Ni  Ni45  1  0.83182421  0.16301339  0.49806332  1
  Cr  Cr46  1  0.66708717  -0.00118504  0.66490496  1
  Cr  Cr47  1  0.83216173  0.16410868  0.83233095  1
  Cr  Cr48  1  0.82886206  0.49866219  0.49870665  1
  Ni  Ni49  1  0.66130073  0.33348029  0.66473916  1
  Ni  Ni50  1  0.83048655  0.50047057  0.83075925  1
  Ni  Ni51  1  0.83454229  0.83229943  0.49982508  1
  Ni  Ni52  1  0.66765387  0.66207801  0.66566096  1
  Ni  Ni53  1  0.83293782  0.82960719  0.83068780  1
" 