4573,Ni35Fe9Cr54_5,-217.88643018253, 155.269210016943,Ni35Fe9Cr54,"# generated using pymatgen
 data_Cr30Fe5Ni19
_symmetry_space_group_name_H-M   'P 1'
_cell_length_a   7.52128323
_cell_length_b   7.52128323
_cell_length_c   10.63670075
_cell_angle_alpha   90.00000000
_cell_angle_beta   90.00000000
_cell_angle_gamma   90.00000000
_symmetry_Int_Tables_number   1
_chemical_formula_structural   Cr30Fe5Ni19
_chemical_formula_sum   'Cr30 Fe5 Ni19'
_cell_volume   601.71498609
_cell_formula_units_Z   1
loop_
 _symmetry_equiv_pos_site_id
 _symmetry_equiv_pos_as_xyz
  1  'x, y, z'
loop_
 _atom_site_type_symbol
 _atom_site_label
 _atom_site_symmetry_multiplicity
 _atom_site_fract_x
 _atom_site_fract_y
 _atom_site_fract_z
 _atom_site_occupancy
  Cr  Cr0  1  -0.00036000  0.99438047  0.99616675  1
  Fe  Fe1  1  0.16484795  0.16548006  0.16314944  1
  Cr  Cr2  1  -0.00217112  0.99636163  0.32987943  1
  Cr  Cr3  1  -0.00085126  0.32998732  -0.00338099  1
  Fe  Fe4  1  0.16420776  0.49778058  0.16330698  1
  Cr  Cr5  1  -0.00194767  0.32965612  0.33122360  1
  Ni  Ni6  1  -0.00198844  0.66380055  0.99546026  1
  Fe  Fe7  1  0.16303210  0.82599827  0.16369378  1
  Ni  Ni8  1  0.00088120  0.66402504  0.32801921  1
  Cr  Cr9  1  0.32806854  -0.00306009  0.99483824  1
  Cr  Cr10  1  0.49512301  0.16425456  0.16116690  1
  Cr  Cr11  1  0.32906168  0.99517995  0.32920184  1
  Ni  Ni12  1  0.32862695  0.32947360  0.99555043  1
  Cr  Cr13  1  0.49348279  0.49559148  0.16257393  1
  Ni  Ni14  1  0.32785133  0.33130842  0.32938294  1
  Cr  Cr15  1  0.32910348  0.66427035  0.99596894  1
  Cr  Cr16  1  0.49556034  0.82927897  0.16517270  1
  Ni  Ni17  1  0.32730448  0.66228594  0.33154965  1
  Cr  Cr18  1  0.66120376  0.99431736  0.99424523  1
  Cr  Cr19  1  0.82833469  0.16213594  0.16431685  1
  Ni  Ni20  1  0.66265983  0.99596782  0.33235189  1
  Ni  Ni21  1  0.66080352  0.33077723  0.99541071  1
  Cr  Cr22  1  0.83159499  0.49818541  0.16040908  1
  Cr  Cr23  1  0.66215848  0.33002885  0.33217747  1
  Ni  Ni24  1  0.66398429  0.66296160  0.99443538  1
  Cr  Cr25  1  0.83107658  0.82858069  0.16195989  1
  Cr  Cr26  1  0.66090045  0.66362371  0.33162890  1
  Ni  Ni27  1  0.16302289  0.16186681  0.49494543  1
  Cr  Cr28  1  -0.00146217  -0.00297356  0.66280536  1
  Ni  Ni29  1  0.16425648  0.16332461  0.83145061  1
  Cr  Cr30  1  0.16582266  0.49873831  0.49647220  1
  Cr  Cr31  1  -0.00178309  0.32814959  0.66184033  1
  Ni  Ni32  1  0.16462453  0.49774162  0.83162210  1
  Ni  Ni33  1  0.16612565  0.82911356  0.49501331  1
  Cr  Cr34  1  -0.00004930  0.66418963  0.66557834  1
  Ni  Ni35  1  0.16490865  0.82821370  0.83043971  1
  Cr  Cr36  1  0.49554986  0.16128447  0.49644589  1
  Cr  Cr37  1  0.32914130  0.99334872  0.66489971  1
  Fe  Fe38  1  0.49417563  0.16292442  0.83011770  1
  Ni  Ni39  1  0.49172008  0.49914779  0.49496013  1
  Cr  Cr40  1  0.32830966  0.33105703  0.66421198  1
  Cr  Cr41  1  0.49453529  0.49649232  0.83084603  1
  Ni  Ni42  1  0.49354672  0.82872061  0.49622532  1
  Ni  Ni43  1  0.32993016  0.66530839  0.66260137  1
  Ni  Ni44  1  0.49580892  0.82991800  0.82881668  1
  Ni  Ni45  1  0.82981663  0.15984420  0.49602162  1
  Ni  Ni46  1  0.66164443  0.99484527  0.66325989  1
  Cr  Cr47  1  0.82817979  0.16209783  0.82857412  1
  Cr  Cr48  1  0.83139876  0.49695166  0.49615721  1
  Cr  Cr49  1  0.66278030  0.32983802  0.66045968  1
  Cr  Cr50  1  0.83131361  0.49733503  0.83242158  1
  Cr  Cr51  1  0.83052936  0.83167852  0.49645556  1
  Cr  Cr52  1  0.65841750  0.66465684  0.66258793  1
  Fe  Fe53  1  0.83049025  0.82885904  0.83021501  1
" 