1501,Ni35Fe26Cr37_19,-224.900249805716, 177.943296604099,Ni35Fe26Cr37,"# generated using pymatgen
 data_Cr21Fe14Ni19
_symmetry_space_group_name_H-M   'P 1'
_cell_length_a   7.48313569
_cell_length_b   7.48313569
_cell_length_c   10.58275198
_cell_angle_alpha   90.00000000
_cell_angle_beta   90.00000000
_cell_angle_gamma   90.00000000
_symmetry_Int_Tables_number   1
_chemical_formula_structural   Cr21Fe14Ni19
_chemical_formula_sum   'Cr21 Fe14 Ni19'
_cell_volume   592.60574638
_cell_formula_units_Z   1
loop_
 _symmetry_equiv_pos_site_id
 _symmetry_equiv_pos_as_xyz
  1  'x, y, z'
loop_
 _atom_site_type_symbol
 _atom_site_label
 _atom_site_symmetry_multiplicity
 _atom_site_fract_x
 _atom_site_fract_y
 _atom_site_fract_z
 _atom_site_occupancy
  Cr  Cr0  1  0.99595051  0.99435287  -0.00042081  1
  Ni  Ni1  1  0.16691873  0.16499381  0.16886774  1
  Cr  Cr2  1  0.00085610  0.99804566  0.33220653  1
  Cr  Cr3  1  0.00175817  0.33460890  0.00080499  1
  Fe  Fe4  1  0.16778599  0.50001540  0.16432381  1
  Fe  Fe5  1  0.99841866  0.33355303  0.33022383  1
  Ni  Ni6  1  0.00099627  0.66739161  -0.00059865  1
  Fe  Fe7  1  0.16834932  0.83031435  0.16328056  1
  Cr  Cr8  1  0.99746426  0.66842141  0.32971223  1
  Cr  Cr9  1  0.33444547  0.99887847  -0.00006350  1
  Ni  Ni10  1  0.49803131  0.16245706  0.16672562  1
  Fe  Fe11  1  0.33404456  0.99656357  0.32939998  1
  Cr  Cr12  1  0.33505173  0.33546435  0.99770394  1
  Ni  Ni13  1  0.50058298  0.50180415  0.16714558  1
  Cr  Cr14  1  0.33329949  0.33134120  0.33114353  1
  Ni  Ni15  1  0.33134660  0.66548312  0.99788996  1
  Ni  Ni16  1  0.49817014  0.83207852  0.16629983  1
  Cr  Cr17  1  0.33379845  0.66441406  0.33219195  1
  Ni  Ni18  1  0.66388850  0.99642640  0.99722682  1
  Cr  Cr19  1  0.83034775  0.16712439  0.16504511  1
  Ni  Ni20  1  0.66618275  0.99779668  0.32963601  1
  Cr  Cr21  1  0.66095709  0.33172128  0.99872846  1
  Ni  Ni22  1  0.83356556  0.50194757  0.16810153  1
  Fe  Fe23  1  0.66439102  0.33473874  0.33054050  1
  Cr  Cr24  1  0.66480316  0.66808358  -0.00062540  1
  Fe  Fe25  1  0.82734269  0.83184580  0.16500656  1
  Ni  Ni26  1  0.66489179  0.66604225  0.33118771  1
  Fe  Fe27  1  0.16668970  0.16425053  0.49985414  1
  Fe  Fe28  1  -0.00021817  0.99521802  0.66639880  1
  Cr  Cr29  1  0.16575528  0.16494409  0.83132492  1
  Cr  Cr30  1  0.16494460  0.50013313  0.50132810  1
  Fe  Fe31  1  0.99871778  0.33385222  0.66592886  1
  Fe  Fe32  1  0.16771108  0.50468259  0.83201116  1
  Fe  Fe33  1  0.16651784  0.83323239  0.50251628  1
  Fe  Fe34  1  -0.00097642  0.66714284  0.66776971  1
  Ni  Ni35  1  0.16669821  0.82892123  0.83085461  1
  Cr  Cr36  1  0.49955880  0.16261877  0.49705500  1
  Fe  Fe37  1  0.33400656  0.99620170  0.66769989  1
  Ni  Ni38  1  0.49999484  0.16301676  0.83161034  1
  Ni  Ni39  1  0.49968277  0.49996640  0.49955430  1
  Cr  Cr40  1  0.33571595  0.33363545  0.66812432  1
  Ni  Ni41  1  0.49815659  0.50245566  0.82966445  1
  Cr  Cr42  1  0.49701702  0.83017859  0.49870720  1
  Ni  Ni43  1  0.33316140  0.66664671  0.66707371  1
  Ni  Ni44  1  0.49775848  0.83073090  0.83136168  1
  Cr  Cr45  1  0.83286998  0.16723686  0.50008385  1
  Fe  Fe46  1  0.66268948  0.99676936  0.66834865  1
  Cr  Cr47  1  0.82984558  0.16461681  0.83074883  1
  Cr  Cr48  1  0.82952256  0.49878137  0.49819448  1
  Ni  Ni49  1  0.66357429  0.33322698  0.66513233  1
  Cr  Cr50  1  0.83339855  0.50015044  0.83073690  1
  Cr  Cr51  1  0.82952817  0.83142216  0.50064822  1
  Ni  Ni52  1  0.66374567  0.66510251  0.66606620  1
  Ni  Ni53  1  0.83224676  0.83090968  0.83147107  1
" 