7780,Ni35Fe15Cr49_1,-220.087453704978, 162.010139453294,Ni35Fe15Cr49,"# generated using pymatgen
 data_Cr27Fe8Ni19
_symmetry_space_group_name_H-M   'P 1'
_cell_length_a   7.51098112
_cell_length_b   7.51098112
_cell_length_c   10.62213137
_cell_angle_alpha   90.00000000
_cell_angle_beta   90.00000000
_cell_angle_gamma   90.00000000
_symmetry_Int_Tables_number   1
_chemical_formula_structural   Cr27Fe8Ni19
_chemical_formula_sum   'Cr27 Fe8 Ni19'
_cell_volume   599.24581487
_cell_formula_units_Z   1
loop_
 _symmetry_equiv_pos_site_id
 _symmetry_equiv_pos_as_xyz
  1  'x, y, z'
loop_
 _atom_site_type_symbol
 _atom_site_label
 _atom_site_symmetry_multiplicity
 _atom_site_fract_x
 _atom_site_fract_y
 _atom_site_fract_z
 _atom_site_occupancy
  Fe  Fe0  1  0.99346920  -0.00239892  -0.00221890  1
  Cr  Cr1  1  0.16272504  0.15966285  0.16056024  1
  Ni  Ni2  1  0.99475289  0.99479090  0.33090972  1
  Cr  Cr3  1  -0.00259892  0.33192750  -0.00213673  1
  Ni  Ni4  1  0.16469399  0.49747416  0.16394549  1
  Cr  Cr5  1  -0.00272714  0.32955777  0.33009718  1
  Cr  Cr6  1  -0.00153017  0.66440756  0.99683734  1
  Fe  Fe7  1  0.16267245  0.82809159  0.16583543  1
  Ni  Ni8  1  -0.00069339  0.66402305  0.32939748  1
  Fe  Fe9  1  0.33338381  -0.00259600  -0.00291716  1
  Ni  Ni10  1  0.49645447  0.16377984  0.15919294  1
  Cr  Cr11  1  0.33176674  -0.00273978  0.32773339  1
  Ni  Ni12  1  0.32935428  0.33043067  -0.00192536  1
  Ni  Ni13  1  0.49559214  0.49715989  0.16463844  1
  Cr  Cr14  1  0.33092555  0.32949081  0.33048325  1
  Cr  Cr15  1  0.32904219  0.66399383  -0.00278479  1
  Cr  Cr16  1  0.49700620  0.82946563  0.16383495  1
  Ni  Ni17  1  0.32741593  0.66147333  0.32931946  1
  Ni  Ni18  1  0.66346436  -0.00162370  0.99467002  1
  Ni  Ni19  1  0.83057251  0.16142024  0.16270514  1
  Cr  Cr20  1  0.66316580  -0.00027678  0.33348177  1
  Cr  Cr21  1  0.66398534  0.32813944  0.00199453  1
  Ni  Ni22  1  0.83094247  0.49814401  0.16605727  1
  Cr  Cr23  1  0.66268363  0.32651782  0.32721353  1
  Cr  Cr24  1  0.66358518  0.66772672  0.99554337  1
  Cr  Cr25  1  0.83171831  0.83065431  0.16549578  1
  Ni  Ni26  1  0.66433694  0.66450344  0.32880694  1
  Cr  Cr27  1  0.16366412  0.16208977  0.49959675  1
  Fe  Fe28  1  0.99337809  0.99657313  0.66284712  1
  Cr  Cr29  1  0.16270754  0.16339497  0.83076698  1
  Ni  Ni30  1  0.16548230  0.49910948  0.49905025  1
  Cr  Cr31  1  -0.00225784  0.33149261  0.66328491  1
  Fe  Fe32  1  0.16636584  0.49600077  0.83011879  1
  Cr  Cr33  1  0.16237327  0.83076400  0.49312146  1
  Cr  Cr34  1  -0.00055534  0.66465521  0.66563537  1
  Cr  Cr35  1  0.16423820  0.83463790  0.83147099  1
  Ni  Ni36  1  0.49694655  0.16205813  0.50093926  1
  Ni  Ni37  1  0.33280610  0.99634318  0.66445037  1
  Cr  Cr38  1  0.49671541  0.16361965  0.83145681  1
  Cr  Cr39  1  0.49686479  0.49790628  0.49665514  1
  Fe  Fe40  1  0.33122726  0.32943417  0.66313350  1
  Cr  Cr41  1  0.49623905  0.49742461  0.82896883  1
  Cr  Cr42  1  0.49791811  0.82905153  0.49723968  1
  Fe  Fe43  1  0.33035360  0.66633930  0.66386842  1
  Ni  Ni44  1  0.49572475  0.83320528  0.82940894  1
  Ni  Ni45  1  0.83063230  0.15889340  0.49802709  1
  Ni  Ni46  1  0.66211500  -0.00269384  0.66446754  1
  Ni  Ni47  1  0.83157482  0.15864981  0.83074276  1
  Cr  Cr48  1  0.83029867  0.50101502  0.49188571  1
  Cr  Cr49  1  0.66644594  0.32533946  0.66130628  1
  Cr  Cr50  1  0.82907361  0.49490075  0.83238096  1
  Ni  Ni51  1  0.83133256  0.83281471  0.49749695  1
  Cr  Cr52  1  0.66543166  0.67005208  0.66666683  1
  Fe  Fe53  1  0.82881446  0.83579903  0.83031214  1
" 