4786,Ni35Fe9Cr54_19,-217.800023666114, 148.892778339633,Ni35Fe9Cr54,"# generated using pymatgen
 data_Cr30Fe5Ni19
_symmetry_space_group_name_H-M   'P 1'
_cell_length_a   7.52911521
_cell_length_b   7.52911521
_cell_length_c   10.64777684
_cell_angle_alpha   90.00000000
_cell_angle_beta   90.00000000
_cell_angle_gamma   90.00000000
_symmetry_Int_Tables_number   1
_chemical_formula_structural   Cr30Fe5Ni19
_chemical_formula_sum   'Cr30 Fe5 Ni19'
_cell_volume   603.59665675
_cell_formula_units_Z   1
loop_
 _symmetry_equiv_pos_site_id
 _symmetry_equiv_pos_as_xyz
  1  'x, y, z'
loop_
 _atom_site_type_symbol
 _atom_site_label
 _atom_site_symmetry_multiplicity
 _atom_site_fract_x
 _atom_site_fract_y
 _atom_site_fract_z
 _atom_site_occupancy
  Cr  Cr0  1  0.99553285  0.99482612  0.99490822  1
  Cr  Cr1  1  0.15858767  0.16256042  0.16458976  1
  Ni  Ni2  1  0.99358052  0.99344757  0.33059220  1
  Cr  Cr3  1  0.99009223  0.33101608  -0.00237246  1
  Cr  Cr4  1  0.15827966  0.49848789  0.16059199  1
  Cr  Cr5  1  0.99154937  0.33088839  0.32873041  1
  Ni  Ni6  1  0.99091991  0.66431651  0.99479570  1
  Ni  Ni7  1  0.15616590  0.82683532  0.16255386  1
  Ni  Ni8  1  0.99167084  0.66579090  0.32979788  1
  Cr  Cr9  1  0.32891290  0.99375663  -0.00254903  1
  Cr  Cr10  1  0.49984719  0.16208183  0.16475417  1
  Cr  Cr11  1  0.32646234  0.99298298  0.32886524  1
  Cr  Cr12  1  0.33171212  0.32859996  0.99514798  1
  Cr  Cr13  1  0.49780975  0.49797142  0.16403958  1
  Cr  Cr14  1  0.33061122  0.32972967  0.33160609  1
  Cr  Cr15  1  0.32738689  0.66529769  -0.00285693  1
  Cr  Cr16  1  0.50098288  0.82722499  0.16446848  1
  Cr  Cr17  1  0.32649795  0.66452188  0.33102742  1
  Cr  Cr18  1  0.66414008  -0.00210357  0.99382752  1
  Ni  Ni19  1  0.82819672  0.16234881  0.16548536  1
  Ni  Ni20  1  0.66722259  -0.00390985  0.32897231  1
  Cr  Cr21  1  0.66477221  0.32990887  0.99443205  1
  Fe  Fe22  1  0.82730041  0.49876197  0.16356605  1
  Ni  Ni23  1  0.66547422  0.33130924  0.32915552  1
  Ni  Ni24  1  0.66619816  0.66029721  0.99307786  1
  Cr  Cr25  1  0.82841123  0.82939709  0.16393354  1
  Ni  Ni26  1  0.66732210  0.66024023  0.33249457  1
  Ni  Ni27  1  0.15966415  0.15999265  0.49733883  1
  Ni  Ni28  1  0.99509989  0.99434878  0.66232248  1
  Cr  Cr29  1  0.16127660  0.16467527  0.82540640  1
  Cr  Cr30  1  0.16267877  0.49358435  0.49682210  1
  Cr  Cr31  1  0.99267573  0.32823664  0.66127726  1
  Cr  Cr32  1  0.16310690  0.49628654  0.83018608  1
  Ni  Ni33  1  0.15593363  0.83054861  0.49526360  1
  Cr  Cr34  1  0.99251975  0.66577549  0.66195089  1
  Fe  Fe35  1  0.15984629  0.82923267  0.82871366  1
  Cr  Cr36  1  0.49640231  0.16447631  0.49563810  1
  Cr  Cr37  1  0.32699684  0.99413396  0.66113835  1
  Fe  Fe38  1  0.49671175  0.16368627  0.82725330  1
  Ni  Ni39  1  0.50041443  0.49652849  0.49657154  1
  Ni  Ni40  1  0.33116756  0.32986874  0.66175187  1
  Ni  Ni41  1  0.49782023  0.49697242  0.82738607  1
  Cr  Cr42  1  0.50462563  0.82703082  0.49326951  1
  Cr  Cr43  1  0.33092237  0.66282556  0.65941469  1
  Cr  Cr44  1  0.50152148  0.82539698  0.83019043  1
  Cr  Cr45  1  0.83033207  0.15714445  0.49377635  1
  Cr  Cr46  1  0.66674881  0.99405451  0.66508305  1
  Ni  Ni47  1  0.83051649  0.15995189  0.82865227  1
  Fe  Fe48  1  0.82733776  0.49844320  0.49447892  1
  Cr  Cr49  1  0.66282540  0.33224890  0.66448434  1
  Fe  Fe50  1  0.82762172  0.49877880  0.82947860  1
  Ni  Ni51  1  0.83189811  0.82707387  0.49508427  1
  Ni  Ni52  1  0.66475118  0.66107398  0.66227083  1
  Ni  Ni53  1  0.83036498  0.82846432  0.82858159  1
" 