3787,Ni35Fe47Cr17_1,-231.054187586802, 194.49265941745,Ni35Fe47Cr17,"# generated using pymatgen
 data_Cr11Fe25Ni18
_symmetry_space_group_name_H-M   'P 1'
_cell_length_a   7.44240584
_cell_length_b   7.44240584
_cell_length_c   10.52515127
_cell_angle_alpha   90.00000000
_cell_angle_beta   90.00000000
_cell_angle_gamma   90.00000000
_symmetry_Int_Tables_number   1
_chemical_formula_structural   Cr11Fe25Ni18
_chemical_formula_sum   'Cr11 Fe25 Ni18'
_cell_volume   582.98186304
_cell_formula_units_Z   1
loop_
 _symmetry_equiv_pos_site_id
 _symmetry_equiv_pos_as_xyz
  1  'x, y, z'
loop_
 _atom_site_type_symbol
 _atom_site_label
 _atom_site_symmetry_multiplicity
 _atom_site_fract_x
 _atom_site_fract_y
 _atom_site_fract_z
 _atom_site_occupancy
  Fe  Fe0  1  0.00170295  0.99925848  0.99933337  1
  Cr  Cr1  1  0.16714613  0.16687474  0.16862276  1
  Ni  Ni2  1  1.00101239  1.00105562  0.33816970  1
  Fe  Fe3  1  1.00141868  0.33750302  0.99979847  1
  Fe  Fe4  1  0.16687186  0.50168351  0.16960361  1
  Fe  Fe5  1  0.00184650  0.33816742  0.33750899  1
  Ni  Ni6  1  0.00394573  0.66633281  0.00283066  1
  Cr  Cr7  1  0.16789424  0.83523629  0.16834796  1
  Ni  Ni8  1  0.00175466  0.66764563  0.33507816  1
  Fe  Fe9  1  0.33377267  0.99947854  0.99928841  1
  Cr  Cr10  1  0.50066754  0.16837410  0.17021299  1
  Fe  Fe11  1  0.33470839  0.99787144  0.33800857  1
  Fe  Fe12  1  0.33390989  0.33666371  0.99868103  1
  Cr  Cr13  1  0.50304626  0.50311093  0.17023627  1
  Fe  Fe14  1  0.33140573  0.33567958  0.33756669  1
  Fe  Fe15  1  0.33406744  0.66863020  1.00019308  1
  Ni  Ni16  1  0.50022014  0.83350394  0.16938639  1
  Ni  Ni17  1  0.33298784  0.66838939  0.33577308  1
  Cr  Cr18  1  0.66678023  0.00219608  0.00165976  1
  Cr  Cr19  1  0.83691699  0.16995947  0.16951762  1
  Fe  Fe20  1  0.66827841  0.99786786  0.33736516  1
  Fe  Fe21  1  0.67004313  0.33720409  0.99879704  1
  Ni  Ni22  1  0.83559858  0.50222963  0.16858314  1
  Fe  Fe23  1  0.67187017  0.33634257  0.33750477  1
  Cr  Cr24  1  0.67065969  0.67033063  1.00039873  1
  Fe  Fe25  1  0.83469905  0.83314361  0.17123863  1
  Ni  Ni26  1  0.67001354  0.67032254  0.33623198  1
  Ni  Ni27  1  0.16743652  0.16722465  0.50214050  1
  Fe  Fe28  1  0.00325219  0.00316197  0.66683618  1
  Ni  Ni29  1  0.16631075  0.16638449  0.83516768  1
  Ni  Ni30  1  0.16774028  0.50171880  0.50098096  1
  Fe  Fe31  1  0.00349796  0.33267882  0.66708806  1
  Fe  Fe32  1  0.16993319  0.50184585  0.83488701  1
  Ni  Ni33  1  0.16858214  0.83577226  0.50146799  1
  Cr  Cr34  1  0.00356053  0.66802109  0.66509763  1
  Ni  Ni35  1  0.16759795  0.83636425  0.83549147  1
  Ni  Ni36  1  0.50027206  0.16755133  0.49946496  1
  Fe  Fe37  1  0.33236358  0.00186789  0.66760098  1
  Fe  Fe38  1  0.49676469  0.16923357  0.83511619  1
  Cr  Cr39  1  0.50254886  0.50423882  0.50122258  1
  Fe  Fe40  1  0.33192732  0.33382198  0.66862583  1
  Ni  Ni41  1  0.50262846  0.50274688  0.83473562  1
  Ni  Ni42  1  0.50036301  0.83437279  0.50177233  1
  Fe  Fe43  1  0.33568634  0.66970725  0.66829606  1
  Fe  Fe44  1  0.49732478  0.83408384  0.83368476  1
  Ni  Ni45  1  0.83690877  0.16859505  0.50062234  1
  Cr  Cr46  1  0.66770685  1.00114329  0.66629755  1
  Fe  Fe47  1  0.83831094  0.16862255  0.83514906  1
  Ni  Ni48  1  0.83550483  0.50194705  0.50123872  1
  Cr  Cr49  1  0.66841767  0.33358887  0.66889027  1
  Fe  Fe50  1  0.83841797  0.50151397  0.83547048  1
  Ni  Ni51  1  0.83594507  0.83435308  0.49995960  1
  Fe  Fe52  1  0.66834680  0.66910387  0.66819841  1
  Fe  Fe53  1  0.83880853  0.83467679  0.83395664  1
" 