1310,Ni35Fe9Cr54_10,-217.654785752801, 153.093068723111,Ni35Fe9Cr54,"# generated using pymatgen
 data_Cr30Fe5Ni19
_symmetry_space_group_name_H-M   'P 1'
_cell_length_a   7.52486932
_cell_length_b   7.52486932
_cell_length_c   10.64177225
_cell_angle_alpha   90.00000000
_cell_angle_beta   90.00000000
_cell_angle_gamma   90.00000000
_symmetry_Int_Tables_number   1
_chemical_formula_structural   Cr30Fe5Ni19
_chemical_formula_sum   'Cr30 Fe5 Ni19'
_cell_volume   602.57607603
_cell_formula_units_Z   1
loop_
 _symmetry_equiv_pos_site_id
 _symmetry_equiv_pos_as_xyz
  1  'x, y, z'
loop_
 _atom_site_type_symbol
 _atom_site_label
 _atom_site_symmetry_multiplicity
 _atom_site_fract_x
 _atom_site_fract_y
 _atom_site_fract_z
 _atom_site_occupancy
  Cr  Cr0  1  -0.00277778  -0.00202346  -0.00306559  1
  Ni  Ni1  1  0.16198699  0.16347354  0.16313063  1
  Cr  Cr2  1  0.99305706  -0.00233399  0.32676179  1
  Ni  Ni3  1  0.99598537  0.32758135  -0.00290773  1
  Cr  Cr4  1  0.16264174  0.49521032  0.16536379  1
  Ni  Ni5  1  0.99448622  0.32903984  0.32953328  1
  Cr  Cr6  1  0.99543792  0.66326031  0.99586067  1
  Cr  Cr7  1  0.16469771  0.83029793  0.16593025  1
  Cr  Cr8  1  0.99449720  0.66034756  0.33230423  1
  Cr  Cr9  1  0.32993826  -0.00271523  -0.00109255  1
  Ni  Ni10  1  0.49804105  0.16207229  0.16495801  1
  Ni  Ni11  1  0.33429951  -0.00331175  0.32771897  1
  Cr  Cr12  1  0.32795321  0.32611813  0.99431412  1
  Cr  Cr13  1  0.49744871  0.49647230  0.16108073  1
  Cr  Cr14  1  0.32935447  0.32698104  0.33053745  1
  Cr  Cr15  1  0.32978826  0.66490096  0.99607810  1
  Ni  Ni16  1  0.49765170  0.83113376  0.16561670  1
  Ni  Ni17  1  0.33104580  0.66530030  0.33108348  1
  Cr  Cr18  1  0.66168762  -0.00344366  0.00005766  1
  Ni  Ni19  1  0.82858093  0.16382762  0.16347264  1
  Ni  Ni20  1  0.66003665  -0.00244978  0.32948531  1
  Ni  Ni21  1  0.66430732  0.32778109  -0.00176280  1
  Cr  Cr22  1  0.82832607  0.49320460  0.16142618  1
  Ni  Ni23  1  0.66449525  0.32585178  0.32954439  1
  Ni  Ni24  1  0.66306414  0.66367109  -0.00232664  1
  Ni  Ni25  1  0.82616207  0.83158324  0.16229259  1
  Cr  Cr26  1  0.66393708  0.66536163  0.33073880  1
  Cr  Cr27  1  0.16384307  0.16180538  0.49547803  1
  Fe  Fe28  1  0.99515290  0.99506956  0.66244217  1
  Fe  Fe29  1  0.16165015  0.16238712  0.82950260  1
  Ni  Ni30  1  0.16277301  0.49595575  0.49558358  1
  Cr  Cr31  1  -0.00173116  0.33102115  0.66210239  1
  Fe  Fe32  1  0.16178952  0.49570433  0.82956189  1
  Cr  Cr33  1  0.16368916  0.83037524  0.49366694  1
  Cr  Cr34  1  0.99576574  0.66176916  0.66086993  1
  Ni  Ni35  1  0.16208276  0.83083437  0.82823935  1
  Ni  Ni36  1  0.49705152  0.16031682  0.49532410  1
  Cr  Cr37  1  0.33089132  -0.00214864  0.66350750  1
  Cr  Cr38  1  0.49809750  0.16432794  0.82763644  1
  Cr  Cr39  1  0.49534373  0.49442581  0.49485998  1
  Fe  Fe40  1  0.32957108  0.32951517  0.66162598  1
  Cr  Cr41  1  0.49710973  0.49531029  0.83192156  1
  Fe  Fe42  1  0.49697390  0.83251441  0.49402349  1
  Cr  Cr43  1  0.32813107  0.66156097  0.66270277  1
  Cr  Cr44  1  0.49681430  0.82911409  0.82990016  1
  Cr  Cr45  1  0.82769038  0.16131985  0.49535633  1
  Ni  Ni46  1  0.66169881  0.99601384  0.65930484  1
  Cr  Cr47  1  0.82960563  0.16237681  0.82900446  1
  Ni  Ni48  1  0.83050894  0.49544439  0.49413226  1
  Cr  Cr49  1  0.66256339  0.32870984  0.65988414  1
  Cr  Cr50  1  0.82711272  0.49453753  0.83348445  1
  Ni  Ni51  1  0.82784663  0.83124353  0.49777364  1
  Cr  Cr52  1  0.66418060  0.66439872  0.66026602  1
  Cr  Cr53  1  0.83019289  0.83143355  0.82824029  1
" 