1359,Ni35Fe16Cr47_1,-220.286903753067, 160.218021327806,Ni35Fe16Cr47,"# generated using pymatgen
 data_Cr27Fe8Ni19
_symmetry_space_group_name_H-M   'P 1'
_cell_length_a   7.51163316
_cell_length_b   7.51163316
_cell_length_c   10.62305350
_cell_angle_alpha   90.00000000
_cell_angle_beta   90.00000000
_cell_angle_gamma   90.00000000
_symmetry_Int_Tables_number   1
_chemical_formula_structural   Cr27Fe8Ni19
_chemical_formula_sum   'Cr27 Fe8 Ni19'
_cell_volume   599.40189284
_cell_formula_units_Z   1
loop_
 _symmetry_equiv_pos_site_id
 _symmetry_equiv_pos_as_xyz
  1  'x, y, z'
loop_
 _atom_site_type_symbol
 _atom_site_label
 _atom_site_symmetry_multiplicity
 _atom_site_fract_x
 _atom_site_fract_y
 _atom_site_fract_z
 _atom_site_occupancy
  Cr  Cr0  1  -0.00155029  -0.00131388  -0.00194309  1
  Cr  Cr1  1  0.16684673  0.16559374  0.16292274  1
  Cr  Cr2  1  0.99699251  -0.00081664  0.33303673  1
  Cr  Cr3  1  0.00196651  0.33123899  0.99395598  1
  Ni  Ni4  1  0.16662084  0.49657507  0.16557153  1
  Ni  Ni5  1  0.00113784  0.33354785  0.33254000  1
  Fe  Fe6  1  -0.00087421  0.66086550  0.99545723  1
  Cr  Cr7  1  0.16407232  0.82688658  0.16437995  1
  Ni  Ni8  1  0.00002252  0.66026752  0.33021781  1
  Fe  Fe9  1  0.33338872  -0.00143425  -0.00263459  1
  Ni  Ni10  1  0.49392765  0.16364586  0.16242641  1
  Ni  Ni11  1  0.33152135  0.99677006  0.32696475  1
  Ni  Ni12  1  0.32976750  0.33216250  -0.00229125  1
  Ni  Ni13  1  0.49258950  0.49605091  0.16456885  1
  Fe  Fe14  1  0.32831070  0.33047370  0.32834124  1
  Cr  Cr15  1  0.33120531  0.66110596  0.99578443  1
  Ni  Ni16  1  0.49490691  0.83196077  0.16145151  1
  Fe  Fe17  1  0.32928262  0.66299530  0.32873164  1
  Ni  Ni18  1  0.66067537  0.99586223  -0.00076974  1
  Cr  Cr19  1  0.82854203  0.16486840  0.16350605  1
  Cr  Cr20  1  0.66373398  0.99619708  0.33054083  1
  Cr  Cr21  1  0.66074229  0.33148800  -0.00190032  1
  Cr  Cr22  1  0.83414455  0.49786802  0.16167000  1
  Cr  Cr23  1  0.66429658  0.32968747  0.32882755  1
  Cr  Cr24  1  0.66047848  0.66352613  0.99527376  1
  Cr  Cr25  1  0.83133589  0.82841626  0.16162728  1
  Cr  Cr26  1  0.66176652  0.66529980  0.32961080  1
  Cr  Cr27  1  0.16537071  0.16409294  0.49896079  1
  Ni  Ni28  1  0.99695119  -0.00290113  0.66193459  1
  Fe  Fe29  1  0.16470616  0.16525592  0.82927763  1
  Ni  Ni30  1  0.16088128  0.49766261  0.49462007  1
  Fe  Fe31  1  0.99701765  0.33075337  0.66394816  1
  Ni  Ni32  1  0.16351198  0.49746320  0.83016063  1
  Cr  Cr33  1  0.16302096  0.82791252  0.49623117  1
  Ni  Ni34  1  -0.00193306  0.66295028  0.66488545  1
  Cr  Cr35  1  0.16375115  0.83143106  0.83036817  1
  Cr  Cr36  1  0.49767027  0.16373451  0.49838297  1
  Ni  Ni37  1  0.32892061  -0.00200599  0.66749428  1
  Cr  Cr38  1  0.49646855  0.16313307  0.83068384  1
  Cr  Cr39  1  0.49339636  0.49463517  0.49506543  1
  Cr  Cr40  1  0.32835891  0.33257133  0.66555999  1
  Ni  Ni41  1  0.49513691  0.49413618  0.83018104  1
  Cr  Cr42  1  0.49466086  0.83304200  0.49981622  1
  Cr  Cr43  1  0.32902620  0.66255293  0.66444210  1
  Fe  Fe44  1  0.49700474  0.83152852  0.82983811  1
  Ni  Ni45  1  0.83109400  0.16380103  0.50061431  1
  Ni  Ni46  1  0.66592514  -0.00204982  0.66207711  1
  Cr  Cr47  1  0.82887148  0.16340023  0.82809477  1
  Cr  Cr48  1  0.83166627  0.49690528  0.49944265  1
  Ni  Ni49  1  0.66454417  0.32961402  0.66483658  1
  Fe  Fe50  1  0.83108870  0.49636620  0.82861673  1
  Ni  Ni51  1  0.83321464  0.83091293  0.49946851  1
  Cr  Cr52  1  0.66219978  0.66290077  0.66566946  1
  Cr  Cr53  1  0.83136428  0.83015245  0.83120176  1
" 