6993,Ni35Fe9Cr54_17,-217.618247043931, 151.944775699834,Ni35Fe9Cr54,"# generated using pymatgen
 data_Cr30Fe5Ni19
_symmetry_space_group_name_H-M   'P 1'
_cell_length_a   7.52818343
_cell_length_b   7.52818343
_cell_length_c   10.64645910
_cell_angle_alpha   90.00000000
_cell_angle_beta   90.00000000
_cell_angle_gamma   90.00000000
_symmetry_Int_Tables_number   1
_chemical_formula_structural   Cr30Fe5Ni19
_chemical_formula_sum   'Cr30 Fe5 Ni19'
_cell_volume   603.37258676
_cell_formula_units_Z   1
loop_
 _symmetry_equiv_pos_site_id
 _symmetry_equiv_pos_as_xyz
  1  'x, y, z'
loop_
 _atom_site_type_symbol
 _atom_site_label
 _atom_site_symmetry_multiplicity
 _atom_site_fract_x
 _atom_site_fract_y
 _atom_site_fract_z
 _atom_site_occupancy
  Ni  Ni0  1  -0.00111808  -0.00178014  -0.00102937  1
  Ni  Ni1  1  0.15766466  0.16330618  0.16142135  1
  Ni  Ni2  1  0.99461576  0.99408694  0.32812331  1
  Ni  Ni3  1  -0.00044488  0.32667018  -0.00239986  1
  Ni  Ni4  1  0.15871660  0.49315915  0.16175188  1
  Fe  Fe5  1  0.99542091  0.32967153  0.32750234  1
  Cr  Cr6  1  -0.00255433  0.66182474  -0.00270065  1
  Cr  Cr7  1  0.16352111  0.83038252  0.16331045  1
  Ni  Ni8  1  0.99243043  0.66348078  0.32997732  1
  Ni  Ni9  1  0.32603046  -0.00114088  0.99537379  1
  Cr  Cr10  1  0.49416621  0.16230891  0.16441016  1
  Cr  Cr11  1  0.32673816  -0.00176497  0.33211188  1
  Cr  Cr12  1  0.32836290  0.33134591  0.99514366  1
  Cr  Cr13  1  0.49620899  0.49802162  0.16486030  1
  Cr  Cr14  1  0.33032098  0.32945547  0.32938745  1
  Ni  Ni15  1  0.32633941  0.66081171  0.99534693  1
  Cr  Cr16  1  0.49608089  0.82798681  0.15904447  1
  Cr  Cr17  1  0.32545329  0.65936518  0.32929789  1
  Cr  Cr18  1  0.66673326  -0.00227442  -0.00195845  1
  Fe  Fe19  1  0.83358366  0.16285157  0.16431014  1
  Cr  Cr20  1  0.66605585  -0.00333344  0.32824556  1
  Cr  Cr21  1  0.66360028  0.32826353  -0.00372836  1
  Cr  Cr22  1  0.83052874  0.49399946  0.16659575  1
  Ni  Ni23  1  0.66468569  0.33159016  0.33227309  1
  Cr  Cr24  1  0.66434599  0.66135770  0.99585453  1
  Ni  Ni25  1  0.83314352  0.82974180  0.16415715  1
  Ni  Ni26  1  0.66717963  0.66089873  0.33153048  1
  Cr  Cr27  1  0.16054188  0.16231636  0.49590809  1
  Cr  Cr28  1  0.99564521  0.99448283  0.66061486  1
  Fe  Fe29  1  0.16277710  0.16422168  0.83090908  1
  Cr  Cr30  1  0.15768450  0.49390328  0.49450280  1
  Ni  Ni31  1  -0.00313917  0.33034990  0.66327622  1
  Fe  Fe32  1  0.16232495  0.49427972  0.83041731  1
  Fe  Fe33  1  0.15917119  0.82789363  0.49332199  1
  Cr  Cr34  1  0.99361206  0.66257596  0.65960983  1
  Cr  Cr35  1  0.16378556  0.83160233  0.83025176  1
  Ni  Ni36  1  0.49670148  0.16591396  0.49501629  1
  Cr  Cr37  1  0.32973128  -0.00166978  0.65963047  1
  Ni  Ni38  1  0.49306719  0.16367981  0.83012681  1
  Ni  Ni39  1  0.49922977  0.49564314  0.49466123  1
  Cr  Cr40  1  0.32955416  0.32931763  0.66370847  1
  Ni  Ni41  1  0.49440189  0.49578340  0.82895388  1
  Cr  Cr42  1  0.49674016  0.82741038  0.49503815  1
  Cr  Cr43  1  0.32797916  0.65957620  0.66173110  1
  Cr  Cr44  1  0.49401242  0.82843722  0.83266442  1
  Cr  Cr45  1  0.83137998  0.16696433  0.49424709  1
  Cr  Cr46  1  0.66287436  0.99575745  0.66188242  1
  Cr  Cr47  1  0.83398408  0.16462418  0.83061110  1
  Ni  Ni48  1  0.82831537  0.49855810  0.49520793  1
  Cr  Cr49  1  0.66039597  0.32963999  0.66159358  1
  Cr  Cr50  1  0.83043000  0.49360421  0.82594005  1
  Ni  Ni51  1  0.83025974  0.82676951  0.49384500  1
  Ni  Ni52  1  0.66206665  0.65985791  0.65992245  1
  Cr  Cr53  1  0.82939795  0.82895498  0.82892944  1
" 