1684,Ni35Fe39Cr24_3,-230.547065711057, 196.53902449137,Ni35Fe39Cr24,"# generated using pymatgen
 data_Cr14Fe21Ni19
_symmetry_space_group_name_H-M   'P 1'
_cell_length_a   7.45333806
_cell_length_b   7.45333806
_cell_length_c   10.54061176
_cell_angle_alpha   90.00000000
_cell_angle_beta   90.00000000
_cell_angle_gamma   90.00000000
_symmetry_Int_Tables_number   1
_chemical_formula_structural   Cr14Fe21Ni19
_chemical_formula_sum   'Cr14 Fe21 Ni19'
_cell_volume   585.55468060
_cell_formula_units_Z   1
loop_
 _symmetry_equiv_pos_site_id
 _symmetry_equiv_pos_as_xyz
  1  'x, y, z'
loop_
 _atom_site_type_symbol
 _atom_site_label
 _atom_site_symmetry_multiplicity
 _atom_site_fract_x
 _atom_site_fract_y
 _atom_site_fract_z
 _atom_site_occupancy
  Fe  Fe0  1  0.00498468  0.00278863  1.00067215  1
  Fe  Fe1  1  0.16660907  0.16633738  0.16775541  1
  Ni  Ni2  1  0.00277173  0.00225758  0.33634486  1
  Fe  Fe3  1  0.00442230  0.33353649  1.00040654  1
  Fe  Fe4  1  0.16749414  0.49873702  0.16838996  1
  Fe  Fe5  1  1.00078850  0.33440874  0.33532979  1
  Cr  Cr6  1  0.00254560  0.66607087  0.00227027  1
  Ni  Ni7  1  0.16891557  0.83478943  0.16857484  1
  Fe  Fe8  1  0.00264403  0.66770909  0.33523855  1
  Ni  Ni9  1  0.33238920  0.00226846  0.99993641  1
  Cr  Cr10  1  0.49880592  0.16764049  0.17036602  1
  Ni  Ni11  1  0.32986524  0.99956052  0.33412755  1
  Ni  Ni12  1  0.33325774  0.33258419  1.00068208  1
  Fe  Fe13  1  0.49954946  0.50020983  0.16970867  1
  Fe  Fe14  1  0.33336734  0.33513226  0.33392292  1
  Cr  Cr15  1  0.33395925  0.66816521  0.00144801  1
  Fe  Fe16  1  0.49904962  0.83552964  0.16947336  1
  Ni  Ni17  1  0.33106087  0.66630687  0.33322530  1
  Fe  Fe18  1  0.66374849  0.00146320  0.99966341  1
  Cr  Cr19  1  0.83434924  0.16797801  0.16719554  1
  Ni  Ni20  1  0.66958377  0.00310151  0.33475750  1
  Cr  Cr21  1  0.66796097  0.33457362  1.00001415  1
  Ni  Ni22  1  0.83668042  0.49951502  0.16819154  1
  Ni  Ni23  1  0.66996728  0.33555998  0.33559905  1
  Cr  Cr24  1  0.66588238  0.66647318  1.00058882  1
  Cr  Cr25  1  0.83683139  0.83517489  0.16918112  1
  Cr  Cr26  1  0.66747841  0.66554680  0.33543229  1
  Fe  Fe27  1  0.16606436  0.16673414  0.50098483  1
  Ni  Ni28  1  0.00305131  0.00319615  0.66663596  1
  Fe  Fe29  1  0.16812680  0.16707013  0.83422605  1
  Fe  Fe30  1  0.16805391  0.50019653  0.49978869  1
  Fe  Fe31  1  0.00163364  0.33213308  0.66731025  1
  Ni  Ni32  1  0.16779034  0.49878529  0.83481681  1
  Ni  Ni33  1  0.16616224  0.83501701  0.50009538  1
  Cr  Cr34  1  0.00168200  0.66789234  0.66497464  1
  Ni  Ni35  1  0.16742935  0.83508642  0.83425206  1
  Cr  Cr36  1  0.49894955  0.16946963  0.49869096  1
  Ni  Ni37  1  0.33054473  0.00269112  0.66878690  1
  Ni  Ni38  1  0.49962749  0.16885339  0.83418138  1
  Ni  Ni39  1  0.49984488  0.49812933  0.50153863  1
  Fe  Fe40  1  0.33285596  0.33238818  0.66931432  1
  Fe  Fe41  1  0.49917852  0.49892538  0.83240767  1
  Cr  Cr42  1  0.49850709  0.83494661  0.49987481  1
  Cr  Cr43  1  0.33354552  0.66801191  0.66875455  1
  Fe  Fe44  1  0.49826496  0.83722917  0.83386966  1
  Ni  Ni45  1  0.83556932  0.16874002  0.50009654  1
  Cr  Cr46  1  0.66867736  0.00318155  0.66633587  1
  Fe  Fe47  1  0.83716392  0.16884181  0.83326368  1
  Ni  Ni48  1  0.83456423  0.49894699  0.50167535  1
  Fe  Fe49  1  0.66833691  0.33509230  0.66725942  1
  Fe  Fe50  1  0.83601229  0.49839529  0.83236206  1
  Ni  Ni51  1  0.83817284  0.83512385  0.49913681  1
  Fe  Fe52  1  0.66825923  0.66642834  0.66620286  1
  Cr  Cr53  1  0.83663199  0.83473852  0.83433114  1
" 