2511,Ni35Fe39Cr24_1,-230.59274877463, 197.907815180422,Ni35Fe39Cr24,"# generated using pymatgen
 data_Cr14Fe21Ni19
_symmetry_space_group_name_H-M   'P 1'
_cell_length_a   7.45266280
_cell_length_b   7.45266280
_cell_length_c   10.53965681
_cell_angle_alpha   90.00000000
_cell_angle_beta   90.00000000
_cell_angle_gamma   90.00000000
_symmetry_Int_Tables_number   1
_chemical_formula_structural   Cr14Fe21Ni19
_chemical_formula_sum   'Cr14 Fe21 Ni19'
_cell_volume   585.39554584
_cell_formula_units_Z   1
loop_
 _symmetry_equiv_pos_site_id
 _symmetry_equiv_pos_as_xyz
  1  'x, y, z'
loop_
 _atom_site_type_symbol
 _atom_site_label
 _atom_site_symmetry_multiplicity
 _atom_site_fract_x
 _atom_site_fract_y
 _atom_site_fract_z
 _atom_site_occupancy
  Fe  Fe0  1  0.00197923  1.00077010  0.99881452  1
  Ni  Ni1  1  0.17033329  0.16871218  0.16802992  1
  Ni  Ni2  1  0.00269268  0.99761385  0.33574973  1
  Cr  Cr3  1  0.00256156  0.33636635  0.00137145  1
  Ni  Ni4  1  0.17144654  0.50273567  0.16859379  1
  Cr  Cr5  1  0.00366855  0.33634174  0.33333950  1
  Fe  Fe6  1  1.00027549  0.66934610  0.99948526  1
  Cr  Cr7  1  0.16506286  0.83351708  0.16359800  1
  Ni  Ni8  1  0.99920933  0.66897327  0.33356129  1
  Ni  Ni9  1  0.33398953  0.00342709  0.99856723  1
  Ni  Ni10  1  0.49804476  0.16995638  0.16586593  1
  Cr  Cr11  1  0.33438412  0.00264623  0.33565986  1
  Ni  Ni12  1  0.33361870  0.33203883  0.00151557  1
  Fe  Fe13  1  0.49849550  0.50192555  0.16443029  1
  Ni  Ni14  1  0.33438200  0.33332440  0.33317557  1
  Fe  Fe15  1  0.33822991  0.66737842  0.99924295  1
  Fe  Fe16  1  0.49889429  0.83363752  0.16419216  1
  Fe  Fe17  1  0.33304986  0.66788323  0.33342623  1
  Cr  Cr18  1  0.66384838  0.99717310  1.00007870  1
  Cr  Cr19  1  0.83405486  0.16118477  0.16608161  1
  Cr  Cr20  1  0.66451887  0.99666955  0.33451004  1
  Fe  Fe21  1  0.66427336  0.33503180  1.00056879  1
  Fe  Fe22  1  0.83692456  0.50271529  0.16566443  1
  Cr  Cr23  1  0.66631536  0.33607531  0.33028498  1
  Ni  Ni24  1  0.67057172  0.66693174  1.00035428  1
  Ni  Ni25  1  0.83453907  0.83073671  0.16784196  1
  Cr  Cr26  1  0.66839014  0.66755847  0.33350728  1
  Fe  Fe27  1  0.16830477  0.16996833  0.50249471  1
  Fe  Fe28  1  0.00261224  0.00144121  0.66944314  1
  Ni  Ni29  1  0.16794564  0.16899033  0.83435643  1
  Cr  Cr30  1  0.16756031  0.50439888  0.50090043  1
  Ni  Ni31  1  1.00055898  0.33650359  0.66809079  1
  Cr  Cr32  1  0.16951402  0.50304685  0.83313005  1
  Fe  Fe33  1  0.16499358  0.83485592  0.50179360  1
  Ni  Ni34  1  0.99702151  0.66814792  0.66880271  1
  Fe  Fe35  1  0.16815965  0.83704548  0.83546935  1
  Ni  Ni36  1  0.50135147  0.16705558  0.50225350  1
  Cr  Cr37  1  0.33637311  0.00176399  0.66865651  1
  Ni  Ni38  1  0.50137660  0.16894700  0.83429269  1
  Cr  Cr39  1  0.49888171  0.49875559  0.50416206  1
  Ni  Ni40  1  0.33389114  0.33164307  0.66895333  1
  Fe  Fe41  1  0.50208335  0.50009322  0.83470423  1
  Fe  Fe42  1  0.50191327  0.83244280  0.50477762  1
  Fe  Fe43  1  0.33258511  0.66804220  0.66965806  1
  Ni  Ni44  1  0.50273162  0.83286962  0.83439668  1
  Cr  Cr45  1  0.83336390  0.16606932  0.50276472  1
  Fe  Fe46  1  0.66907748  1.00070536  0.67031245  1
  Fe  Fe47  1  0.83474827  0.16673334  0.83311199  1
  Ni  Ni48  1  0.83478285  0.50349410  0.50324361  1
  Fe  Fe49  1  0.66782147  0.33403971  0.66913626  1
  Fe  Fe50  1  0.83199746  0.50101604  0.83269018  1
  Fe  Fe51  1  0.83585815  0.83227941  0.50293798  1
  Fe  Fe52  1  0.66767906  0.66719038  0.67038543  1
  Ni  Ni53  1  0.83517295  0.83390424  0.83368439  1
" 