1799,Ni35Fe39Cr24_18,-230.553196724059, 196.328558133272,Ni35Fe39Cr24,"# generated using pymatgen
 data_Cr14Fe21Ni19
_symmetry_space_group_name_H-M   'P 1'
_cell_length_a   7.45784628
_cell_length_b   7.45784628
_cell_length_c   10.54698736
_cell_angle_alpha   90.00000000
_cell_angle_beta   90.00000000
_cell_angle_gamma   90.00000000
_symmetry_Int_Tables_number   1
_chemical_formula_structural   Cr14Fe21Ni19
_chemical_formula_sum   'Cr14 Fe21 Ni19'
_cell_volume   586.61785906
_cell_formula_units_Z   1
loop_
 _symmetry_equiv_pos_site_id
 _symmetry_equiv_pos_as_xyz
  1  'x, y, z'
loop_
 _atom_site_type_symbol
 _atom_site_label
 _atom_site_symmetry_multiplicity
 _atom_site_fract_x
 _atom_site_fract_y
 _atom_site_fract_z
 _atom_site_occupancy
  Ni  Ni0  1  0.99956040  0.00275225  0.99881080  1
  Cr  Cr1  1  0.16930867  0.16792016  0.16910873  1
  Ni  Ni2  1  0.99912368  1.00041495  0.33800471  1
  Fe  Fe3  1  0.00243198  0.33324450  0.99836015  1
  Ni  Ni4  1  0.16756166  0.50103657  0.16474860  1
  Fe  Fe5  1  0.00279605  0.33352952  0.33593649  1
  Fe  Fe6  1  0.00186460  0.66862362  1.00028029  1
  Cr  Cr7  1  0.16680197  0.83493396  0.16924394  1
  Fe  Fe8  1  0.00172475  0.66899075  0.33564817  1
  Fe  Fe9  1  0.33583875  0.00125427  0.99830627  1
  Ni  Ni10  1  0.49926203  0.16656331  0.16590713  1
  Fe  Fe11  1  0.33375570  0.00223518  0.33621320  1
  Fe  Fe12  1  0.33405109  0.33239314  0.99917001  1
  Cr  Cr13  1  0.49975218  0.49728814  0.17004588  1
  Ni  Ni14  1  0.33345329  0.33536031  0.33388854  1
  Fe  Fe15  1  0.33251561  0.66826123  1.00058309  1
  Fe  Fe16  1  0.49911508  0.83578718  0.16718422  1
  Ni  Ni17  1  0.33436959  0.66342282  0.33289383  1
  Ni  Ni18  1  0.66621503  0.00116053  0.00086050  1
  Cr  Cr19  1  0.83350237  0.16725851  0.16519404  1
  Cr  Cr20  1  0.66804315  0.99886791  0.33110642  1
  Fe  Fe21  1  0.66539260  0.33085656  0.99915689  1
  Cr  Cr22  1  0.83633017  0.50052102  0.17069391  1
  Fe  Fe23  1  0.66475358  0.33237526  0.33701735  1
  Cr  Cr24  1  0.66478835  0.67081280  0.00311467  1
  Ni  Ni25  1  0.83594840  0.83401295  0.16668061  1
  Fe  Fe26  1  0.66783820  0.66707590  0.33652157  1
  Fe  Fe27  1  0.17074017  0.16521457  0.50046402  1
  Ni  Ni28  1  0.00193188  0.00144563  0.66498356  1
  Ni  Ni29  1  0.16815695  0.16721815  0.83348682  1
  Cr  Cr30  1  0.16982064  0.50163053  0.50076447  1
  Cr  Cr31  1  0.00379717  0.33117191  0.66667991  1
  Fe  Fe32  1  0.16916710  0.50016868  0.83444676  1
  Fe  Fe33  1  0.16752044  0.83556374  0.50095506  1
  Ni  Ni34  1  0.99925595  0.66741428  0.66538999  1
  Cr  Cr35  1  0.16822868  0.83567244  0.82905664  1
  Ni  Ni36  1  0.49824247  0.17082011  0.50106059  1
  Ni  Ni37  1  0.33343210  0.00505641  0.66631334  1
  Fe  Fe38  1  0.49993500  0.16597637  0.83450808  1
  Ni  Ni39  1  0.50092255  0.49773736  0.50212656  1
  Ni  Ni40  1  0.33565252  0.33410603  0.66921261  1
  Fe  Fe41  1  0.49861560  0.50059571  0.83194292  1
  Cr  Cr42  1  0.49831993  0.83289885  0.50096130  1
  Fe  Fe43  1  0.33456758  0.66712193  0.66714303  1
  Ni  Ni44  1  0.49829888  0.83294979  0.83365289  1
  Fe  Fe45  1  0.83256458  0.16697135  0.50038573  1
  Cr  Cr46  1  0.66787270  1.00024403  0.66932290  1
  Ni  Ni47  1  0.83483029  0.16801434  0.83496926  1
  Fe  Fe48  1  0.83052428  0.50172891  0.50101892  1
  Fe  Fe49  1  0.66582655  0.33295105  0.66636383  1
  Cr  Cr50  1  0.83212184  0.49969623  0.83224058  1
  Ni  Ni51  1  0.83712620  0.83272845  0.50221974  1
  Ni  Ni52  1  0.66547363  0.66580236  0.66561728  1
  Cr  Cr53  1  0.83426740  0.83545950  0.83334522  1
" 