766,Ni35Fe39Cr24_13,-229.205104562639, 184.869171527233,Ni35Fe39Cr24,"# generated using pymatgen
 data_Cr14Fe21Ni19
_symmetry_space_group_name_H-M   'P 1'
_cell_length_a   7.45307913
_cell_length_b   7.45307913
_cell_length_c   10.54024559
_cell_angle_alpha   90.00000000
_cell_angle_beta   90.00000000
_cell_angle_gamma   90.00000000
_symmetry_Int_Tables_number   1
_chemical_formula_structural   Cr14Fe21Ni19
_chemical_formula_sum   'Cr14 Fe21 Ni19'
_cell_volume   585.49365759
_cell_formula_units_Z   1
loop_
 _symmetry_equiv_pos_site_id
 _symmetry_equiv_pos_as_xyz
  1  'x, y, z'
loop_
 _atom_site_type_symbol
 _atom_site_label
 _atom_site_symmetry_multiplicity
 _atom_site_fract_x
 _atom_site_fract_y
 _atom_site_fract_z
 _atom_site_occupancy
  Cr  Cr0  1  0.00147335  0.00181100  0.99853810  1
  Ni  Ni1  1  0.16984931  0.16766371  0.16902525  1
  Cr  Cr2  1  0.00112323  0.99960057  0.33530437  1
  Fe  Fe3  1  0.00118088  0.33356222  0.00159977  1
  Fe  Fe4  1  0.16423522  0.50001337  0.16772452  1
  Fe  Fe5  1  0.00107466  0.33579669  0.33540236  1
  Fe  Fe6  1  0.99943186  0.66774530  0.00241392  1
  Fe  Fe7  1  0.16737846  0.83405721  0.16703226  1
  Fe  Fe8  1  0.99749002  0.66546566  0.33505713  1
  Ni  Ni9  1  0.33350821  0.00096594  0.00246493  1
  Fe  Fe10  1  0.50112151  0.16689804  0.16929227  1
  Fe  Fe11  1  0.33714847  0.00313537  0.33366360  1
  Cr  Cr12  1  0.33394389  0.33319049  0.00243302  1
  Fe  Fe13  1  0.50330589  0.50016659  0.16857837  1
  Fe  Fe14  1  0.33486365  0.33136529  0.33483073  1
  Fe  Fe15  1  0.33690863  0.67035250  0.00339126  1
  Fe  Fe16  1  0.50168470  0.83571308  0.16797113  1
  Cr  Cr17  1  0.33387356  0.66481643  0.33437443  1
  Cr  Cr18  1  0.66717286  1.00021949  0.99816566  1
  Cr  Cr19  1  0.83379588  0.17048081  0.16860069  1
  Ni  Ni20  1  0.66703991  1.00084086  0.33491737  1
  Cr  Cr21  1  0.66619444  0.33456350  0.99866338  1
  Ni  Ni22  1  0.83378585  0.50279449  0.16889606  1
  Ni  Ni23  1  0.66551607  0.33536119  0.33572874  1
  Ni  Ni24  1  0.66729822  0.66850299  0.00406940  1
  Fe  Fe25  1  0.83374413  0.83280919  0.16849222  1
  Fe  Fe26  1  0.66859952  0.66787157  0.33400539  1
  Ni  Ni27  1  0.16938484  0.17057781  0.50038878  1
  Cr  Cr28  1  0.99745104  0.00106673  0.66885931  1
  Ni  Ni29  1  0.16942201  0.16861907  0.83386620  1
  Fe  Fe30  1  0.16672925  0.50026780  0.50258521  1
  Ni  Ni31  1  0.00229342  0.33330899  0.66643093  1
  Cr  Cr32  1  0.16714785  0.50067733  0.83297561  1
  Cr  Cr33  1  0.16938920  0.83632209  0.50299606  1
  Ni  Ni34  1  1.00058441  0.66732964  0.66556056  1
  Cr  Cr35  1  0.17105306  0.83325481  0.83259530  1
  Fe  Fe36  1  0.50211031  0.16560227  0.50152301  1
  Fe  Fe37  1  0.33671666  0.00428044  0.66770248  1
  Ni  Ni38  1  0.49927427  0.16528331  0.83218920  1
  Fe  Fe39  1  0.50116305  0.49914394  0.50122848  1
  Ni  Ni40  1  0.33428551  0.33373780  0.66549507  1
  Cr  Cr41  1  0.50034332  0.50287924  0.83304115  1
  Ni  Ni42  1  0.50261782  0.83583730  0.50053700  1
  Fe  Fe43  1  0.33584528  0.66672153  0.66532803  1
  Ni  Ni44  1  0.50058762  0.83592647  0.83454775  1
  Fe  Fe45  1  0.83198768  0.16725842  0.50143531  1
  Ni  Ni46  1  0.66707051  0.00097547  0.66834270  1
  Ni  Ni47  1  0.83405259  0.16893525  0.83167755  1
  Fe  Fe48  1  0.83495890  0.49930855  0.50050371  1
  Ni  Ni49  1  0.66629809  0.33168380  0.66665599  1
  Cr  Cr50  1  0.83518348  0.50046125  0.83399064  1
  Ni  Ni51  1  0.83140800  0.83267158  0.49884408  1
  Cr  Cr52  1  0.66807328  0.67024949  0.66600634  1
  Ni  Ni53  1  0.83242925  0.83245916  0.83466031  1
" 