8407,Ni35Fe20Cr43_18,-222.47694486579, 167.811691219955,Ni35Fe20Cr43,"# generated using pymatgen
 data_Cr24Fe11Ni19
_symmetry_space_group_name_H-M   'P 1'
_cell_length_a   7.49611623
_cell_length_b   7.49611623
_cell_length_c   10.60110923
_cell_angle_alpha   90.00000000
_cell_angle_beta   90.00000000
_cell_angle_gamma   90.00000000
_symmetry_Int_Tables_number   1
_chemical_formula_structural   Cr24Fe11Ni19
_chemical_formula_sum   'Cr24 Fe11 Ni19'
_cell_volume   595.69496970
_cell_formula_units_Z   1
loop_
 _symmetry_equiv_pos_site_id
 _symmetry_equiv_pos_as_xyz
  1  'x, y, z'
loop_
 _atom_site_type_symbol
 _atom_site_label
 _atom_site_symmetry_multiplicity
 _atom_site_fract_x
 _atom_site_fract_y
 _atom_site_fract_z
 _atom_site_occupancy
  Fe  Fe0  1  0.99659376  -0.00165509  0.99716905  1
  Fe  Fe1  1  0.16329806  0.16356238  0.16287293  1
  Cr  Cr2  1  0.99733703  0.99563827  0.32917774  1
  Cr  Cr3  1  -0.00070827  0.32935473  -0.00104877  1
  Cr  Cr4  1  0.16634525  0.49870845  0.16406339  1
  Cr  Cr5  1  -0.00148927  0.33252924  0.33291929  1
  Cr  Cr6  1  0.99643034  0.67061538  0.99716544  1
  Cr  Cr7  1  0.16483871  0.82886072  0.16293388  1
  Ni  Ni8  1  0.99331714  0.66590485  0.33341532  1
  Cr  Cr9  1  0.33158209  0.99664253  0.99597782  1
  Fe  Fe10  1  0.49991951  0.16409871  0.16304475  1
  Cr  Cr11  1  0.33106577  0.00011474  0.33106944  1
  Ni  Ni12  1  0.33364377  0.33083168  -0.00142941  1
  Fe  Fe13  1  0.49944279  0.49933378  0.16380797  1
  Cr  Cr14  1  0.33222416  0.33050035  0.33143035  1
  Ni  Ni15  1  0.33336699  0.66329254  0.99541844  1
  Cr  Cr16  1  0.49880954  0.82983015  0.16700380  1
  Cr  Cr17  1  0.33019836  0.66246406  0.33366801  1
  Ni  Ni18  1  0.66548837  0.99633554  -0.00113661  1
  Ni  Ni19  1  0.82861196  0.16267344  0.16359026  1
  Fe  Fe20  1  0.66733892  0.99694152  0.33018393  1
  Cr  Cr21  1  0.66193658  0.33061085  0.99517052  1
  Cr  Cr22  1  0.83070568  0.49924850  0.16350793  1
  Cr  Cr23  1  0.66422986  0.33219927  0.33215383  1
  Fe  Fe24  1  0.66170071  0.66793093  0.99644640  1
  Ni  Ni25  1  0.82796851  0.83385454  0.16488451  1
  Ni  Ni26  1  0.66841314  0.66542801  0.33208743  1
  Ni  Ni27  1  0.16380956  0.16422322  0.50056150  1
  Fe  Fe28  1  0.00062526  0.99617605  0.66707551  1
  Ni  Ni29  1  0.16644065  0.16345774  0.83099301  1
  Fe  Fe30  1  0.16414469  0.49857755  0.50066942  1
  Ni  Ni31  1  0.00002037  0.33235599  0.66243582  1
  Cr  Cr32  1  0.16434250  0.49833076  0.83030324  1
  Cr  Cr33  1  0.16582820  0.83187790  0.50109826  1
  Ni  Ni34  1  0.99652793  0.66637842  0.66344145  1
  Ni  Ni35  1  0.16616464  0.83221411  0.82997843  1
  Cr  Cr36  1  0.49766431  0.16137854  0.49849361  1
  Ni  Ni37  1  0.32946294  0.99687396  0.66759125  1
  Fe  Fe38  1  0.49653643  0.16110706  0.83170955  1
  Ni  Ni39  1  0.50116812  0.50141604  0.49916625  1
  Cr  Cr40  1  0.33196663  0.33017078  0.66412786  1
  Fe  Fe41  1  0.49569971  0.50188104  0.83051614  1
  Cr  Cr42  1  0.49916244  0.82986428  0.49740471  1
  Ni  Ni43  1  0.33176713  0.66708373  0.66588295  1
  Ni  Ni44  1  0.49739076  0.82991527  0.83102155  1
  Cr  Cr45  1  0.83338998  0.16458861  0.50073528  1
  Cr  Cr46  1  0.66306709  0.99466269  0.66576302  1
  Cr  Cr47  1  0.83392666  0.16436480  0.82935196  1
  Ni  Ni48  1  0.83163849  0.50075700  0.49980220  1
  Cr  Cr49  1  0.66422579  0.33432745  0.66547307  1
  Cr  Cr50  1  0.83094472  0.49956743  0.82992534  1
  Fe  Fe51  1  0.83141284  0.82905252  0.49880069  1
  Ni  Ni52  1  0.66579277  0.66639448  0.66593680  1
  Ni  Ni53  1  0.82956868  0.83245125  0.83149225  1
" 