3517,Ni35Fe15Cr49_17,-220.49815160035, 163.766405929662,Ni35Fe15Cr49,"# generated using pymatgen
 data_Cr27Fe8Ni19
_symmetry_space_group_name_H-M   'P 1'
_cell_length_a   7.51452864
_cell_length_b   7.51452864
_cell_length_c   10.62714831
_cell_angle_alpha   90.00000000
_cell_angle_beta   90.00000000
_cell_angle_gamma   90.00000000
_symmetry_Int_Tables_number   1
_chemical_formula_structural   Cr27Fe8Ni19
_chemical_formula_sum   'Cr27 Fe8 Ni19'
_cell_volume   600.09530521
_cell_formula_units_Z   1
loop_
 _symmetry_equiv_pos_site_id
 _symmetry_equiv_pos_as_xyz
  1  'x, y, z'
loop_
 _atom_site_type_symbol
 _atom_site_label
 _atom_site_symmetry_multiplicity
 _atom_site_fract_x
 _atom_site_fract_y
 _atom_site_fract_z
 _atom_site_occupancy
  Cr  Cr0  1  0.99683883  0.99668206  0.99611795  1
  Cr  Cr1  1  0.16589645  0.16271804  0.16400637  1
  Cr  Cr2  1  -0.00121606  -0.00216804  0.33023293  1
  Cr  Cr3  1  -0.00281315  0.32683170  0.99620415  1
  Cr  Cr4  1  0.16386438  0.50052573  0.16113668  1
  Ni  Ni5  1  -0.00282463  0.32912289  0.33013080  1
  Fe  Fe6  1  0.99629913  0.66647305  -0.00256250  1
  Ni  Ni7  1  0.16556749  0.82950825  0.16468624  1
  Ni  Ni8  1  0.00030736  0.66509902  0.32936247  1
  Ni  Ni9  1  0.32904442  0.99445329  0.99604003  1
  Cr  Cr10  1  0.49897831  0.16230717  0.16274421  1
  Fe  Fe11  1  0.33008055  0.99615691  0.33117170  1
  Fe  Fe12  1  0.33204020  0.32851890  -0.00305638  1
  Ni  Ni13  1  0.49497250  0.49618089  0.16255479  1
  Cr  Cr14  1  0.33198306  0.33346178  0.33193038  1
  Fe  Fe15  1  0.33052779  0.66646319  -0.00240141  1
  Cr  Cr16  1  0.49313530  0.83269384  0.16400082  1
  Ni  Ni17  1  0.32941225  0.66483368  0.32858974  1
  Fe  Fe18  1  0.66304183  0.99559212  0.99634122  1
  Ni  Ni19  1  0.82861733  0.16434471  0.16500922  1
  Ni  Ni20  1  0.66438082  -0.00223752  0.32716147  1
  Fe  Fe21  1  0.66277354  0.32973723  -0.00201952  1
  Cr  Cr22  1  0.83207496  0.49514902  0.16600937  1
  Ni  Ni23  1  0.66271096  0.33032473  0.32815244  1
  Cr  Cr24  1  0.66084888  0.66359314  0.99650635  1
  Cr  Cr25  1  0.83149170  0.83115645  0.16430053  1
  Cr  Cr26  1  0.65844595  0.66162253  0.33038152  1
  Ni  Ni27  1  0.16553387  0.16174468  0.49610392  1
  Cr  Cr28  1  -0.00090171  -0.00234465  0.66437199  1
  Ni  Ni29  1  0.16661095  0.16178181  0.83113440  1
  Cr  Cr30  1  0.16265749  0.50083217  0.49668673  1
  Cr  Cr31  1  -0.00078293  0.32590663  0.66298987  1
  Cr  Cr32  1  0.16354079  0.49807773  0.83262838  1
  Fe  Fe33  1  0.16585998  0.83012853  0.49591386  1
  Fe  Fe34  1  -0.00261769  0.66577109  0.66305806  1
  Cr  Cr35  1  0.16574355  0.82834278  0.82958532  1
  Cr  Cr36  1  0.49856339  0.16056359  0.49782106  1
  Ni  Ni37  1  0.32946387  0.99367862  0.66326162  1
  Cr  Cr38  1  0.49490477  0.15904463  0.83025412  1
  Ni  Ni39  1  0.49608557  0.49843589  0.49792468  1
  Cr  Cr40  1  0.32957423  0.32925285  0.66339077  1
  Cr  Cr41  1  0.49561887  0.49681564  0.82991687  1
  Cr  Cr42  1  0.49573830  0.83221758  0.49748612  1
  Ni  Ni43  1  0.33418646  0.66581840  0.66376765  1
  Ni  Ni44  1  0.49696006  0.83108742  0.82975924  1
  Cr  Cr45  1  0.82658833  0.16355861  0.49465532  1
  Ni  Ni46  1  0.66237588  0.99267695  0.66784249  1
  Cr  Cr47  1  0.82589472  0.16327190  0.82967316  1
  Cr  Cr48  1  0.83008447  0.49717864  0.49715143  1
  Ni  Ni49  1  0.66199349  0.33268879  0.66274010  1
  Cr  Cr50  1  0.83190302  0.49983337  0.82645063  1
  Cr  Cr51  1  0.82895105  0.82948288  0.49839045  1
  Ni  Ni52  1  0.66010572  0.66496960  0.66461582  1
  Ni  Ni53  1  0.82828213  0.82943790  0.82909316  1
" 