7180,Ni35Fe9Cr54_7,-217.814756774773, 154.188091626776,Ni35Fe9Cr54,"# generated using pymatgen
 data_Cr30Fe5Ni19
_symmetry_space_group_name_H-M   'P 1'
_cell_length_a   7.51713248
_cell_length_b   7.51713248
_cell_length_c   10.63083071
_cell_angle_alpha   90.00000000
_cell_angle_beta   90.00000000
_cell_angle_gamma   90.00000000
_symmetry_Int_Tables_number   1
_chemical_formula_structural   Cr30Fe5Ni19
_chemical_formula_sum   'Cr30 Fe5 Ni19'
_cell_volume   600.71933525
_cell_formula_units_Z   1
loop_
 _symmetry_equiv_pos_site_id
 _symmetry_equiv_pos_as_xyz
  1  'x, y, z'
loop_
 _atom_site_type_symbol
 _atom_site_label
 _atom_site_symmetry_multiplicity
 _atom_site_fract_x
 _atom_site_fract_y
 _atom_site_fract_z
 _atom_site_occupancy
  Ni  Ni0  1  0.99527679  -0.00201425  -0.00149831  1
  Ni  Ni1  1  0.15958608  0.16510002  0.16226723  1
  Cr  Cr2  1  0.99491686  0.99585718  0.32728783  1
  Ni  Ni3  1  0.99484987  0.32979337  0.00064020  1
  Ni  Ni4  1  0.16206336  0.49512612  0.16259216  1
  Cr  Cr5  1  0.99657617  0.33275248  0.32801375  1
  Cr  Cr6  1  -0.00329194  0.66303021  -0.00305000  1
  Cr  Cr7  1  0.16385792  0.82939759  0.16176384  1
  Cr  Cr8  1  0.99394446  0.66155672  0.33078919  1
  Cr  Cr9  1  0.32790121  0.99569786  -0.00204081  1
  Cr  Cr10  1  0.49696363  0.16410753  0.16433813  1
  Fe  Fe11  1  0.32894132  -0.00177574  0.32992273  1
  Cr  Cr12  1  0.32866325  0.33075649  -0.00302611  1
  Cr  Cr13  1  0.49801574  0.49873864  0.16129945  1
  Cr  Cr14  1  0.32946378  0.32964861  0.33165786  1
  Ni  Ni15  1  0.33067724  0.66120926  0.99516695  1
  Cr  Cr16  1  0.49805310  0.82685099  0.16423445  1
  Cr  Cr17  1  0.32856299  0.66063866  0.33037148  1
  Cr  Cr18  1  0.66499227  0.99624302  -0.00267573  1
  Ni  Ni19  1  0.83302212  0.16450312  0.16047403  1
  Cr  Cr20  1  0.66389106  0.99599067  0.33103840  1
  Fe  Fe21  1  0.66618835  0.33274011  0.99653865  1
  Ni  Ni22  1  0.83047394  0.49659209  0.16103089  1
  Cr  Cr23  1  0.66438823  0.33051430  0.33052054  1
  Ni  Ni24  1  0.66419992  0.66091769  -0.00207017  1
  Ni  Ni25  1  0.82961302  0.82867940  0.16314625  1
  Fe  Fe26  1  0.66615877  0.66122954  0.33014431  1
  Cr  Cr27  1  0.16314137  0.16368974  0.49762413  1
  Ni  Ni28  1  0.99489430  0.99438539  0.66389134  1
  Cr  Cr29  1  0.15954876  0.16276491  0.82975599  1
  Fe  Fe30  1  0.16502677  0.49722831  0.49764416  1
  Cr  Cr31  1  -0.00300428  0.33351718  0.66151929  1
  Cr  Cr32  1  0.16546946  0.49738862  0.82883873  1
  Cr  Cr33  1  0.16242676  0.83019220  0.49875878  1
  Cr  Cr34  1  -0.00273145  0.66378807  0.66156955  1
  Ni  Ni35  1  0.16259792  0.82900755  0.83015067  1
  Ni  Ni36  1  0.49589434  0.16544790  0.49826676  1
  Cr  Cr37  1  0.33208071  -0.00325528  0.66428654  1
  Cr  Cr38  1  0.49849803  0.16694096  0.82827816  1
  Ni  Ni39  1  0.49652262  0.49644542  0.49820841  1
  Ni  Ni40  1  0.33204310  0.33414943  0.66061899  1
  Ni  Ni41  1  0.49722057  0.49808418  0.83091247  1
  Cr  Cr42  1  0.49748467  0.82861249  0.49479056  1
  Ni  Ni43  1  0.33058962  0.65985986  0.66406945  1
  Cr  Cr44  1  0.49579182  0.82529227  0.83112800  1
  Cr  Cr45  1  0.83037338  0.16227126  0.49959511  1
  Ni  Ni46  1  0.66467307  0.99631422  0.66080789  1
  Cr  Cr47  1  0.83188768  0.16493501  0.83028643  1
  Ni  Ni48  1  0.82744837  0.49870851  0.49617583  1
  Cr  Cr49  1  0.66107805  0.33085992  0.66369890  1
  Fe  Fe50  1  0.82855396  0.49677796  0.83233618  1
  Ni  Ni51  1  0.82957779  0.82832283  0.49724390  1
  Cr  Cr52  1  0.66368002  0.66286191  0.66218603  1
  Cr  Cr53  1  0.83138847  0.83163290  0.82858595  1
" 