3613,Ni35Fe16Cr47_18,-219.774223538587, 154.648870899994,Ni35Fe16Cr47,"# generated using pymatgen
 data_Cr27Fe8Ni19
_symmetry_space_group_name_H-M   'P 1'
_cell_length_a   7.51189064
_cell_length_b   7.51189064
_cell_length_c   10.62341763
_cell_angle_alpha   90.00000000
_cell_angle_beta   90.00000000
_cell_angle_gamma   90.00000000
_symmetry_Int_Tables_number   1
_chemical_formula_structural   Cr27Fe8Ni19
_chemical_formula_sum   'Cr27 Fe8 Ni19'
_cell_volume   599.46353256
_cell_formula_units_Z   1
loop_
 _symmetry_equiv_pos_site_id
 _symmetry_equiv_pos_as_xyz
  1  'x, y, z'
loop_
 _atom_site_type_symbol
 _atom_site_label
 _atom_site_symmetry_multiplicity
 _atom_site_fract_x
 _atom_site_fract_y
 _atom_site_fract_z
 _atom_site_occupancy
  Cr  Cr0  1  -0.00176572  -0.00173779  0.99583359  1
  Ni  Ni1  1  0.16165095  0.16734985  0.16494277  1
  Ni  Ni2  1  0.99615937  0.00006294  0.33296374  1
  Ni  Ni3  1  -0.00239963  0.33174930  -0.00110656  1
  Ni  Ni4  1  0.16089713  0.49297948  0.16546321  1
  Fe  Fe5  1  -0.00165937  0.32937385  0.33067911  1
  Cr  Cr6  1  0.99549147  0.66137579  0.99527558  1
  Cr  Cr7  1  0.16231024  0.83301077  0.16442778  1
  Cr  Cr8  1  0.99672741  0.66291713  0.33201125  1
  Cr  Cr9  1  0.33301609  -0.00213830  0.99629278  1
  Cr  Cr10  1  0.49900891  0.16245502  0.16439128  1
  Cr  Cr11  1  0.33062522  0.00031228  0.32925655  1
  Cr  Cr12  1  0.32951988  0.32846315  -0.00287711  1
  Cr  Cr13  1  0.49856404  0.49789901  0.16562935  1
  Ni  Ni14  1  0.32682271  0.32897054  0.33249741  1
  Cr  Cr15  1  0.33097607  0.66499877  0.00074978  1
  Fe  Fe16  1  0.50045115  0.83160040  0.16430366  1
  Cr  Cr17  1  0.32950698  0.66139745  0.32786653  1
  Ni  Ni18  1  0.66201619  0.99460351  0.99545993  1
  Cr  Cr19  1  0.83245513  0.16378732  0.16492152  1
  Ni  Ni20  1  0.66549744  0.99673800  0.33297409  1
  Cr  Cr21  1  0.66475126  0.33021789  0.99514462  1
  Ni  Ni22  1  0.83170427  0.49795662  0.16227475  1
  Cr  Cr23  1  0.66273649  0.32923598  0.33263921  1
  Fe  Fe24  1  0.66429485  0.66532826  0.99642292  1
  Cr  Cr25  1  0.82860717  0.83268749  0.16516457  1
  Ni  Ni26  1  0.66556704  0.66540577  0.32845925  1
  Ni  Ni27  1  0.16329452  0.16508670  0.49602657  1
  Cr  Cr28  1  0.99489858  -0.00183715  0.66225065  1
  Ni  Ni29  1  0.16492557  0.16435873  0.82985110  1
  Ni  Ni30  1  0.16493276  0.49419536  0.49725690  1
  Cr  Cr31  1  0.99690136  0.32910705  0.66245850  1
  Cr  Cr32  1  0.16432084  0.49544405  0.82878716  1
  Cr  Cr33  1  0.16423062  0.83056796  0.49836431  1
  Cr  Cr34  1  0.99495909  0.66414005  0.66319042  1
  Cr  Cr35  1  0.16656253  0.83118369  0.82765127  1
  Ni  Ni36  1  0.49706462  0.16172093  0.49848311  1
  Fe  Fe37  1  0.33323796  -0.00146763  0.66404798  1
  Ni  Ni38  1  0.49722398  0.15940358  0.82759266  1
  Cr  Cr39  1  0.49489685  0.49778003  0.49846525  1
  Fe  Fe40  1  0.32996725  0.32683979  0.66200149  1
  Cr  Cr41  1  0.49705423  0.49844082  0.82728767  1
  Cr  Cr42  1  0.49874882  0.82958997  0.49629564  1
  Ni  Ni43  1  0.33141635  0.66407128  0.66322784  1
  Ni  Ni44  1  0.50028347  0.83101859  0.83031538  1
  Ni  Ni45  1  0.83024767  0.16019244  0.49472781  1
  Ni  Ni46  1  0.66180691  0.99608210  0.66312994  1
  Cr  Cr47  1  0.83080968  0.16312419  0.83280922  1
  Cr  Cr48  1  0.82881922  0.49739877  0.49681280  1
  Cr  Cr49  1  0.66260184  0.32652592  0.66318413  1
  Fe  Fe50  1  0.82932967  0.49747918  0.83026117  1
  Fe  Fe51  1  0.82805164  0.83271051  0.49625724  1
  Ni  Ni52  1  0.66245511  0.66737508  0.66616350  1
  Fe  Fe53  1  0.82624674  0.83128814  0.82985935  1
" 