6587,Ni35Fe41Cr23_4,-230.435495474027, 196.386430285268,Ni35Fe41Cr23,"# generated using pymatgen
 data_Cr13Fe22Ni19
_symmetry_space_group_name_H-M   'P 1'
_cell_length_a   7.44658314
_cell_length_b   7.44658314
_cell_length_c   10.53105888
_cell_angle_alpha   90.00000000
_cell_angle_beta   90.00000000
_cell_angle_gamma   90.00000000
_symmetry_Int_Tables_number   1
_chemical_formula_structural   Cr13Fe22Ni19
_chemical_formula_sum   'Cr13 Fe22 Ni19'
_cell_volume   583.96406980
_cell_formula_units_Z   1
loop_
 _symmetry_equiv_pos_site_id
 _symmetry_equiv_pos_as_xyz
  1  'x, y, z'
loop_
 _atom_site_type_symbol
 _atom_site_label
 _atom_site_symmetry_multiplicity
 _atom_site_fract_x
 _atom_site_fract_y
 _atom_site_fract_z
 _atom_site_occupancy
  Fe  Fe0  1  0.99875056  0.00366403  1.00000746  1
  Fe  Fe1  1  0.16764061  0.16997488  0.16883323  1
  Fe  Fe2  1  1.00057388  0.00145042  0.33527302  1
  Fe  Fe3  1  1.00136915  0.33257259  1.00123495  1
  Ni  Ni4  1  0.16831249  0.49818625  0.16933585  1
  Fe  Fe5  1  0.00324341  0.33502732  0.33358824  1
  Cr  Cr6  1  1.00025869  0.66778225  1.00033768  1
  Cr  Cr7  1  0.16910595  0.83502841  0.16929830  1
  Ni  Ni8  1  0.00146500  0.66855075  0.33541637  1
  Cr  Cr9  1  0.33562832  0.00142152  0.99932802  1
  Fe  Fe10  1  0.50074460  0.16696195  0.16910704  1
  Ni  Ni11  1  0.33475371  0.00138639  0.33327644  1
  Fe  Fe12  1  0.33326339  0.33435234  0.00267225  1
  Fe  Fe13  1  0.50014972  0.50335961  0.16861662  1
  Ni  Ni14  1  0.33454998  0.33547859  0.33315699  1
  Fe  Fe15  1  0.33744173  0.66810144  0.00167820  1
  Ni  Ni16  1  0.50394815  0.83445025  0.16868556  1
  Fe  Fe17  1  0.33458842  0.66649960  0.33497129  1
  Ni  Ni18  1  0.66828328  1.00077229  0.00170334  1
  Fe  Fe19  1  0.83573907  0.16637948  0.16775708  1
  Fe  Fe20  1  0.66892772  0.99995611  0.33321920  1
  Cr  Cr21  1  0.66905756  0.33410016  0.00153597  1
  Ni  Ni22  1  0.83606271  0.50186557  0.16813319  1
  Cr  Cr23  1  0.66748633  0.33457591  0.33420392  1
  Fe  Fe24  1  0.66749017  0.67072086  0.00228463  1
  Ni  Ni25  1  0.83112760  0.83526396  0.16896040  1
  Fe  Fe26  1  0.66766448  0.66916614  0.33293692  1
  Cr  Cr27  1  0.16566913  0.16923132  0.50071197  1
  Ni  Ni28  1  0.99899677  1.00016196  0.66905892  1
  Ni  Ni29  1  0.16543791  0.16814045  0.83511754  1
  Fe  Fe30  1  0.16998372  0.50190819  0.50130257  1
  Ni  Ni31  1  1.00096397  0.33467950  0.66892362  1
  Cr  Cr32  1  0.16728454  0.49898802  0.83319352  1
  Fe  Fe33  1  0.16614360  0.83285319  0.50057832  1
  Fe  Fe34  1  0.00168964  0.66899570  0.66794220  1
  Fe  Fe35  1  0.16722841  0.83560439  0.83369868  1
  Cr  Cr36  1  0.50158743  0.16815798  0.50247815  1
  Cr  Cr37  1  0.33437063  1.00073854  0.67075848  1
  Fe  Fe38  1  0.50190133  0.16668126  0.83446684  1
  Ni  Ni39  1  0.49824395  0.50374005  0.50137129  1
  Ni  Ni40  1  0.33402780  0.33697843  0.66807083  1
  Cr  Cr41  1  0.50138155  0.50418585  0.83425030  1
  Cr  Cr42  1  0.50193808  0.83275757  0.50023905  1
  Ni  Ni43  1  0.33321737  0.66728121  0.66684625  1
  Ni  Ni44  1  0.50301405  0.83482027  0.83505972  1
  Ni  Ni45  1  0.83725293  0.16548588  0.50147531  1
  Ni  Ni46  1  0.67112747  1.00097017  0.66935440  1
  Ni  Ni47  1  0.83756973  0.16629897  0.83424144  1
  Cr  Cr48  1  0.83592117  0.50153981  0.50272938  1
  Cr  Cr49  1  0.66841008  0.33323876  0.66838644  1
  Ni  Ni50  1  0.83566550  0.50116035  0.83407043  1
  Fe  Fe51  1  0.83574340  0.83659433  0.50107778  1
  Fe  Fe52  1  0.66803512  0.66971557  0.66890243  1
  Fe  Fe53  1  0.83376860  0.83624375  0.83434251  1
" 