2269,Ni35Fe20Cr43_14,-222.988503258742, 169.113573771998,Ni35Fe20Cr43,"# generated using pymatgen
 data_Cr24Fe11Ni19
_symmetry_space_group_name_H-M   'P 1'
_cell_length_a   7.50141429
_cell_length_b   7.50141429
_cell_length_c   10.60860183
_cell_angle_alpha   90.00000000
_cell_angle_beta   90.00000000
_cell_angle_gamma   90.00000000
_symmetry_Int_Tables_number   1
_chemical_formula_structural   Cr24Fe11Ni19
_chemical_formula_sum   'Cr24 Fe11 Ni19'
_cell_volume   596.95892896
_cell_formula_units_Z   1
loop_
 _symmetry_equiv_pos_site_id
 _symmetry_equiv_pos_as_xyz
  1  'x, y, z'
loop_
 _atom_site_type_symbol
 _atom_site_label
 _atom_site_symmetry_multiplicity
 _atom_site_fract_x
 _atom_site_fract_y
 _atom_site_fract_z
 _atom_site_occupancy
  Ni  Ni0  1  0.00178769  -0.00128646  0.99607051  1
  Ni  Ni1  1  0.16478799  0.16536306  0.16241680  1
  Ni  Ni2  1  0.99738449  -0.00160132  0.33144684  1
  Fe  Fe3  1  0.00212482  0.32831526  0.99669496  1
  Fe  Fe4  1  0.16710798  0.49594440  0.16347201  1
  Cr  Cr5  1  -0.00104300  0.33028052  0.33222319  1
  Fe  Fe6  1  0.00076434  0.66526706  0.99580342  1
  Cr  Cr7  1  0.16321201  0.83283440  0.16296587  1
  Fe  Fe8  1  -0.00123813  0.66532649  0.33384023  1
  Ni  Ni9  1  0.32765939  -0.00179418  0.99632406  1
  Cr  Cr10  1  0.49373983  0.16440015  0.16535950  1
  Cr  Cr11  1  0.32949319  0.99588048  0.33146068  1
  Ni  Ni12  1  0.32825916  0.33178246  -0.00185513  1
  Ni  Ni13  1  0.49414694  0.49835947  0.16285854  1
  Fe  Fe14  1  0.32954492  0.33175260  0.32898635  1
  Fe  Fe15  1  0.33164135  0.66458862  0.99713960  1
  Ni  Ni16  1  0.49655916  0.82980070  0.16373721  1
  Cr  Cr17  1  0.33078110  0.66401870  0.33172659  1
  Cr  Cr18  1  0.66408113  0.99652883  0.99564141  1
  Cr  Cr19  1  0.83402946  0.16212570  0.16430090  1
  Ni  Ni20  1  0.66555136  0.99651031  0.33257642  1
  Cr  Cr21  1  0.66292738  0.33239818  0.99694124  1
  Cr  Cr22  1  0.83248678  0.49966034  0.16404045  1
  Cr  Cr23  1  0.66543557  0.33153386  0.33132366  1
  Cr  Cr24  1  0.66111211  0.66425659  -0.00139021  1
  Cr  Cr25  1  0.83224489  0.83138199  0.16542163  1
  Cr  Cr26  1  0.66271113  0.66490746  0.32999540  1
  Cr  Cr27  1  0.16358263  0.16495971  0.49624133  1
  Cr  Cr28  1  -0.00194536  -0.00108281  0.66523932  1
  Ni  Ni29  1  0.16424852  0.16451092  0.83425804  1
  Ni  Ni30  1  0.15968085  0.49986037  0.49830706  1
  Ni  Ni31  1  0.99672718  0.33240063  0.66444366  1
  Fe  Fe32  1  0.16601103  0.49654117  0.83109727  1
  Ni  Ni33  1  0.16272810  0.82811175  0.49756354  1
  Ni  Ni34  1  -0.00112331  0.66249123  0.66292139  1
  Fe  Fe35  1  0.16497780  0.83127552  0.83272196  1
  Cr  Cr36  1  0.49930665  0.16208214  0.49706625  1
  Cr  Cr37  1  0.33126920  0.99516884  0.66525243  1
  Ni  Ni38  1  0.49500234  0.16309148  0.83181099  1
  Cr  Cr39  1  0.49700175  0.49734442  0.49766128  1
  Cr  Cr40  1  0.32871707  0.33165944  0.66500337  1
  Ni  Ni41  1  0.49572072  0.49770804  0.83326332  1
  Ni  Ni42  1  0.49779728  0.83273768  0.49753619  1
  Cr  Cr43  1  0.32968345  0.66622329  0.66458712  1
  Ni  Ni44  1  0.49685094  0.83240092  0.83190791  1
  Ni  Ni45  1  0.83158062  0.16459811  0.49833480  1
  Fe  Fe46  1  0.66446761  0.99758643  0.66520424  1
  Fe  Fe47  1  0.83169578  0.16324599  0.83067253  1
  Ni  Ni48  1  0.83610471  0.49734602  0.49888540  1
  Cr  Cr49  1  0.66737568  0.32983262  0.66490745  1
  Cr  Cr50  1  0.83391193  0.49879127  0.83002731  1
  Cr  Cr51  1  0.83222174  0.83097568  0.49620806  1
  Cr  Cr52  1  0.66365326  0.66530969  0.66451172  1
  Fe  Fe53  1  0.83176206  0.83259705  0.83114716  1
" 