1617,Ni35Fe15Cr49_7,-220.367488234368, 163.499836123333,Ni35Fe15Cr49,"# generated using pymatgen
 data_Cr27Fe8Ni19
_symmetry_space_group_name_H-M   'P 1'
_cell_length_a   7.50564769
_cell_length_b   7.50564769
_cell_length_c   10.61458876
_cell_angle_alpha   90.00000000
_cell_angle_beta   90.00000000
_cell_angle_gamma   90.00000000
_symmetry_Int_Tables_number   1
_chemical_formula_structural   Cr27Fe8Ni19
_chemical_formula_sum   'Cr27 Fe8 Ni19'
_cell_volume   597.97017575
_cell_formula_units_Z   1
loop_
 _symmetry_equiv_pos_site_id
 _symmetry_equiv_pos_as_xyz
  1  'x, y, z'
loop_
 _atom_site_type_symbol
 _atom_site_label
 _atom_site_symmetry_multiplicity
 _atom_site_fract_x
 _atom_site_fract_y
 _atom_site_fract_z
 _atom_site_occupancy
  Ni  Ni0  1  -0.00247854  0.99726161  -0.00198935  1
  Fe  Fe1  1  0.16360664  0.16190150  0.16386680  1
  Cr  Cr2  1  0.99690204  0.99466509  0.32968219  1
  Cr  Cr3  1  0.99712245  0.33076355  -0.00102991  1
  Ni  Ni4  1  0.16309279  0.50065040  0.16414553  1
  Cr  Cr5  1  -0.00076296  0.33291231  0.32555510  1
  Ni  Ni6  1  -0.00083518  0.66524821  0.00087892  1
  Ni  Ni7  1  0.16226600  0.82989603  0.16196413  1
  Ni  Ni8  1  0.99458174  0.66602680  0.32761923  1
  Fe  Fe9  1  0.32703768  -0.00217530  0.00007692  1
  Ni  Ni10  1  0.49624217  0.16295654  0.16593706  1
  Ni  Ni11  1  0.33073611  -0.00130984  0.32669282  1
  Cr  Cr12  1  0.32946217  0.33106688  -0.00046439  1
  Cr  Cr13  1  0.49736070  0.49768534  0.16463117  1
  Ni  Ni14  1  0.32996016  0.32772474  0.32746135  1
  Ni  Ni15  1  0.32777821  0.66306974  0.99644230  1
  Cr  Cr16  1  0.49618756  0.83067433  0.16183718  1
  Cr  Cr17  1  0.32725495  0.66432706  0.33140742  1
  Cr  Cr18  1  0.66611318  -0.00154673  0.00030927  1
  Ni  Ni19  1  0.83059723  0.16247153  0.16346686  1
  Fe  Fe20  1  0.66496363  0.99555902  0.32803248  1
  Cr  Cr21  1  0.66542486  0.33084832  0.99679451  1
  Ni  Ni22  1  0.83363994  0.49997623  0.16281225  1
  Cr  Cr23  1  0.66514898  0.33031684  0.32758983  1
  Fe  Fe24  1  0.66678853  0.66251811  -0.00123125  1
  Ni  Ni25  1  0.83415266  0.82982039  0.16369025  1
  Ni  Ni26  1  0.66849890  0.66724568  0.32876595  1
  Cr  Cr27  1  0.16300937  0.16513758  0.49786913  1
  Fe  Fe28  1  0.99715144  -0.00153234  0.66571296  1
  Fe  Fe29  1  0.16182888  0.16414579  0.83138414  1
  Cr  Cr30  1  0.16278827  0.49612388  0.49597335  1
  Ni  Ni31  1  0.99621307  0.33053492  0.66876270  1
  Fe  Fe32  1  0.16311908  0.49834496  0.83237386  1
  Cr  Cr33  1  0.16224366  0.83111419  0.49789384  1
  Cr  Cr34  1  -0.00206313  0.66364595  0.66262987  1
  Cr  Cr35  1  0.16319337  0.83065134  0.83281284  1
  Cr  Cr36  1  0.49773415  0.16508995  0.49378764  1
  Cr  Cr37  1  0.33031940  0.99541920  0.66529532  1
  Cr  Cr38  1  0.49923972  0.16479119  0.83140132  1
  Cr  Cr39  1  0.49798523  0.49607321  0.49693110  1
  Cr  Cr40  1  0.32986802  0.33289932  0.66542334  1
  Ni  Ni41  1  0.49611342  0.49777789  0.83089347  1
  Cr  Cr42  1  0.49780803  0.83060789  0.49555879  1
  Ni  Ni43  1  0.32977489  0.66250995  0.66609822  1
  Cr  Cr44  1  0.49541432  0.82780351  0.83515340  1
  Cr  Cr45  1  0.83194288  0.16478654  0.49984508  1
  Cr  Cr46  1  0.66541643  0.99650317  0.66247232  1
  Ni  Ni47  1  0.83465014  0.16592588  0.82880817  1
  Cr  Cr48  1  0.83136609  0.49687584  0.49629240  1
  Ni  Ni49  1  0.66648415  0.33118156  0.66747371  1
  Fe  Fe50  1  0.83093797  0.49762845  0.83179042  1
  Ni  Ni51  1  0.83146772  0.83056286  0.49490339  1
  Cr  Cr52  1  0.66287958  0.66380134  0.66519964  1
  Cr  Cr53  1  0.83341550  0.83218584  0.83345922  1
" 