1925,Ni35Fe41Cr23_5,-230.46497231246, 200.265715143034,Ni35Fe41Cr23,"# generated using pymatgen
 data_Cr13Fe22Ni19
_symmetry_space_group_name_H-M   'P 1'
_cell_length_a   7.44463528
_cell_length_b   7.44463528
_cell_length_c   10.52830417
_cell_angle_alpha   90.00000000
_cell_angle_beta   90.00000000
_cell_angle_gamma   90.00000000
_symmetry_Int_Tables_number   1
_chemical_formula_structural   Cr13Fe22Ni19
_chemical_formula_sum   'Cr13 Fe22 Ni19'
_cell_volume   583.50593176
_cell_formula_units_Z   1
loop_
 _symmetry_equiv_pos_site_id
 _symmetry_equiv_pos_as_xyz
  1  'x, y, z'
loop_
 _atom_site_type_symbol
 _atom_site_label
 _atom_site_symmetry_multiplicity
 _atom_site_fract_x
 _atom_site_fract_y
 _atom_site_fract_z
 _atom_site_occupancy
  Fe  Fe0  1  0.00338054  0.99558472  0.00459659  1
  Ni  Ni1  1  0.16725405  0.17113485  0.16861002  1
  Ni  Ni2  1  0.00291325  0.99944879  0.33501128  1
  Fe  Fe3  1  0.00322965  0.33691771  1.00147303  1
  Fe  Fe4  1  0.16657536  0.49979772  0.16707306  1
  Fe  Fe5  1  1.00138888  0.33150483  0.33704979  1
  Ni  Ni6  1  0.00185103  0.66501588  0.00231894  1
  Fe  Fe7  1  0.16694939  0.83420192  0.16740676  1
  Cr  Cr8  1  0.00321414  0.66491846  0.33553356  1
  Cr  Cr9  1  0.33725276  1.00101911  0.00347189  1
  Ni  Ni10  1  0.50004473  0.17277894  0.16800389  1
  Cr  Cr11  1  0.33619411  0.00419195  0.33097079  1
  Fe  Fe12  1  0.33420609  0.33749429  1.00143704  1
  Cr  Cr13  1  0.49924465  0.50559775  0.16919880  1
  Fe  Fe14  1  0.33243368  0.33586937  0.33694248  1
  Ni  Ni15  1  0.33124846  0.66807057  1.00080724  1
  Fe  Fe16  1  0.50502540  0.83657241  0.16768822  1
  Fe  Fe17  1  0.33611538  0.66920007  0.33393955  1
  Ni  Ni18  1  0.66673141  0.00311216  0.00412048  1
  Cr  Cr19  1  0.83725221  0.16508722  0.16681567  1
  Ni  Ni20  1  0.66810268  0.00151299  0.33347135  1
  Fe  Fe21  1  0.66621745  0.33810776  1.00107680  1
  Fe  Fe22  1  0.83502764  0.50020925  0.16627204  1
  Cr  Cr23  1  0.66650313  0.33314973  0.33850382  1
  Fe  Fe24  1  0.66682862  0.67082370  1.00141611  1
  Ni  Ni25  1  0.83519288  0.83247870  0.16880716  1
  Ni  Ni26  1  0.67159717  0.66724774  0.33362645  1
  Ni  Ni27  1  0.16467177  0.16941729  0.50147056  1
  Fe  Fe28  1  1.00004800  0.00272700  0.66377151  1
  Cr  Cr29  1  0.16602154  0.16720016  0.83384835  1
  Fe  Fe30  1  0.17252658  0.49957380  0.50159434  1
  Ni  Ni31  1  0.00320849  0.33719685  0.66664902  1
  Fe  Fe32  1  0.16897741  0.50144961  0.83538247  1
  Fe  Fe33  1  0.17078440  0.83677361  0.50133390  1
  Cr  Cr34  1  0.00316864  0.66724118  0.66766635  1
  Fe  Fe35  1  0.16974592  0.83202145  0.83532206  1
  Ni  Ni36  1  0.49671869  0.16840282  0.50222143  1
  Fe  Fe37  1  0.33400207  1.00055774  0.66664333  1
  Cr  Cr38  1  0.50057658  0.16882024  0.83408724  1
  Ni  Ni39  1  0.50033688  0.50298262  0.50216943  1
  Ni  Ni40  1  0.33336647  0.33493013  0.66736202  1
  Ni  Ni41  1  0.50031918  0.50588353  0.83477793  1
  Cr  Cr42  1  0.50480392  0.83039422  0.50025123  1
  Fe  Fe43  1  0.33750694  0.66577187  0.66984182  1
  Ni  Ni44  1  0.50170999  0.83152295  0.83436060  1
  Fe  Fe45  1  0.83349634  0.16531146  0.50203144  1
  Ni  Ni46  1  0.66489125  1.00081720  0.66587497  1
  Cr  Cr47  1  0.83818980  0.16787012  0.83596156  1
  Fe  Fe48  1  0.83312649  0.50187680  0.50264823  1
  Cr  Cr49  1  0.66792464  0.33621956  0.66822078  1
  Ni  Ni50  1  0.83489432  0.50331876  0.83771867  1
  Fe  Fe51  1  0.83418246  0.83690623  0.49988370  1
  Ni  Ni52  1  0.66985027  0.66838398  0.66946933  1
  Cr  Cr53  1  0.83426062  0.83666470  0.83507934  1
" 