359,Ni35Fe15Cr49_16,-220.154189242162, 159.493568473393,Ni35Fe15Cr49,"# generated using pymatgen
 data_Cr27Fe8Ni19
_symmetry_space_group_name_H-M   'P 1'
_cell_length_a   7.51408522
_cell_length_b   7.51408522
_cell_length_c   10.62652123
_cell_angle_alpha   90.00000000
_cell_angle_beta   90.00000000
_cell_angle_gamma   90.00000000
_symmetry_Int_Tables_number   1
_chemical_formula_structural   Cr27Fe8Ni19
_chemical_formula_sum   'Cr27 Fe8 Ni19'
_cell_volume   599.98908055
_cell_formula_units_Z   1
loop_
 _symmetry_equiv_pos_site_id
 _symmetry_equiv_pos_as_xyz
  1  'x, y, z'
loop_
 _atom_site_type_symbol
 _atom_site_label
 _atom_site_symmetry_multiplicity
 _atom_site_fract_x
 _atom_site_fract_y
 _atom_site_fract_z
 _atom_site_occupancy
  Cr  Cr0  1  -0.00211207  -0.00298042  0.00001181  1
  Ni  Ni1  1  0.16425515  0.16513495  0.16226343  1
  Cr  Cr2  1  -0.00044438  0.99406311  0.32771823  1
  Ni  Ni3  1  0.99505459  0.33340698  -0.00304379  1
  Ni  Ni4  1  0.16069659  0.49905702  0.16341154  1
  Cr  Cr5  1  0.99534688  0.33271056  0.32958806  1
  Ni  Ni6  1  0.99362980  0.66011306  0.00048668  1
  Ni  Ni7  1  0.16459592  0.82606326  0.16560778  1
  Fe  Fe8  1  -0.00266312  0.66182454  0.32773618  1
  Cr  Cr9  1  0.33129302  0.99640259  -0.00006761  1
  Ni  Ni10  1  0.49626931  0.16305694  0.16473094  1
  Cr  Cr11  1  0.32842784  0.99467720  0.32581827  1
  Cr  Cr12  1  0.32929028  0.32889812  0.00023468  1
  Fe  Fe13  1  0.49765670  0.49896929  0.16583790  1
  Cr  Cr14  1  0.33194960  0.33243448  0.32789624  1
  Cr  Cr15  1  0.33081738  0.66540692  -0.00202749  1
  Ni  Ni16  1  0.49720494  0.82693311  0.16438032  1
  Ni  Ni17  1  0.33047752  0.66287109  0.33004780  1
  Cr  Cr18  1  0.66142586  0.99572423  0.99541672  1
  Cr  Cr19  1  0.83021622  0.16646003  0.16446194  1
  Cr  Cr20  1  0.66288054  -0.00277869  0.32766822  1
  Cr  Cr21  1  0.66599838  0.33241365  -0.00256165  1
  Ni  Ni22  1  0.83071118  0.50026228  0.16374306  1
  Ni  Ni23  1  0.66294093  0.33622930  0.32949151  1
  Ni  Ni24  1  0.66604876  0.66323720  -0.00140180  1
  Fe  Fe25  1  0.83011174  0.82532497  0.16326451  1
  Ni  Ni26  1  0.66262179  0.65945376  0.32800429  1
  Cr  Cr27  1  0.16213536  0.16493241  0.49933967  1
  Ni  Ni28  1  0.99587437  -0.00097129  0.66334087  1
  Cr  Cr29  1  0.16089305  0.16670854  0.82968731  1
  Fe  Fe30  1  0.16507136  0.49727844  0.49647929  1
  Ni  Ni31  1  0.99611777  0.32903168  0.66434731  1
  Cr  Cr32  1  0.16073360  0.49444370  0.83103649  1
  Fe  Fe33  1  0.16374774  0.82835814  0.49544463  1
  Cr  Cr34  1  0.99625742  0.66172446  0.66094227  1
  Cr  Cr35  1  0.16355141  0.82923757  0.83000285  1
  Cr  Cr36  1  0.49779077  0.16658712  0.49710578  1
  Cr  Cr37  1  0.33072079  0.99628365  0.66533164  1
  Fe  Fe38  1  0.49868597  0.16315539  0.82923310  1
  Ni  Ni39  1  0.49589033  0.49812504  0.49373886  1
  Ni  Ni40  1  0.32963075  0.33026351  0.66212556  1
  Cr  Cr41  1  0.49680533  0.49890042  0.83165580  1
  Cr  Cr42  1  0.49760592  0.82686555  0.49646534  1
  Cr  Cr43  1  0.33057463  0.66208789  0.66174896  1
  Ni  Ni44  1  0.49981032  0.83128813  0.82978448  1
  Cr  Cr45  1  0.83081044  0.16382184  0.49837925  1
  Fe  Fe46  1  0.66509693  -0.00178008  0.66620877  1
  Ni  Ni47  1  0.83135454  0.16536807  0.82706189  1
  Fe  Fe48  1  0.82797228  0.49642577  0.49494997  1
  Cr  Cr49  1  0.66460853  0.33138236  0.66388822  1
  Ni  Ni50  1  0.83159567  0.49438092  0.83177717  1
  Cr  Cr51  1  0.83065051  0.82988176  0.49525392  1
  Cr  Cr52  1  0.66372318  0.66211173  0.66512859  1
  Cr  Cr53  1  0.82857170  0.82971979  0.83180623  1
" 