6976,Ni35Fe20Cr43_11,-222.911614675848, 173.81244794124,Ni35Fe20Cr43,"# generated using pymatgen
 data_Cr24Fe11Ni19
_symmetry_space_group_name_H-M   'P 1'
_cell_length_a   7.49593239
_cell_length_b   7.49593239
_cell_length_c   10.60084925
_cell_angle_alpha   90.00000000
_cell_angle_beta   90.00000000
_cell_angle_gamma   90.00000000
_symmetry_Int_Tables_number   1
_chemical_formula_structural   Cr24Fe11Ni19
_chemical_formula_sum   'Cr24 Fe11 Ni19'
_cell_volume   595.65114462
_cell_formula_units_Z   1
loop_
 _symmetry_equiv_pos_site_id
 _symmetry_equiv_pos_as_xyz
  1  'x, y, z'
loop_
 _atom_site_type_symbol
 _atom_site_label
 _atom_site_symmetry_multiplicity
 _atom_site_fract_x
 _atom_site_fract_y
 _atom_site_fract_z
 _atom_site_occupancy
  Fe  Fe0  1  -0.00140077  -0.00157972  -0.00132414  1
  Ni  Ni1  1  0.16487672  0.16479455  0.16451499  1
  Cr  Cr2  1  -0.00122265  0.00275441  0.32724240  1
  Cr  Cr3  1  0.99773576  0.33014506  -0.00178661  1
  Ni  Ni4  1  0.16454277  0.49538419  0.16694314  1
  Ni  Ni5  1  -0.00031969  0.33228027  0.33132355  1
  Cr  Cr6  1  -0.00080683  0.66487835  0.99674205  1
  Ni  Ni7  1  0.16691599  0.83351718  0.16158497  1
  Cr  Cr8  1  -0.00056773  0.66052556  0.33140181  1
  Ni  Ni9  1  0.33166060  0.99688521  -0.00142739  1
  Ni  Ni10  1  0.49936259  0.16274953  0.16309183  1
  Cr  Cr11  1  0.33424959  -0.00037094  0.33019100  1
  Cr  Cr12  1  0.33001164  0.32877658  0.00365520  1
  Fe  Fe13  1  0.49886297  0.49638574  0.16281042  1
  Fe  Fe14  1  0.32996508  0.32865080  0.32899789  1
  Cr  Cr15  1  0.33178579  0.66775785  -0.00004054  1
  Ni  Ni16  1  0.49974484  0.83368985  0.16267573  1
  Cr  Cr17  1  0.33237186  0.66385632  0.32608456  1
  Ni  Ni18  1  0.66249295  0.99797205  -0.00170907  1
  Ni  Ni19  1  0.82988275  0.16553440  0.16234283  1
  Ni  Ni20  1  0.66111283  0.00021788  0.33016056  1
  Ni  Ni21  1  0.66654435  0.32946134  0.99773061  1
  Cr  Cr22  1  0.82976335  0.49679487  0.16433595  1
  Cr  Cr23  1  0.66487913  0.32882459  0.33055084  1
  Ni  Ni24  1  0.66435700  0.66677695  -0.00034113  1
  Cr  Cr25  1  0.83040641  0.83391435  0.16553146  1
  Fe  Fe26  1  0.66388348  0.66493415  0.32940068  1
  Ni  Ni27  1  0.16586785  0.16823987  0.49544234  1
  Cr  Cr28  1  0.99792567  -0.00142798  0.66746880  1
  Ni  Ni29  1  0.16253047  0.16136541  0.83433748  1
  Fe  Fe30  1  0.16389202  0.49564566  0.49600857  1
  Cr  Cr31  1  0.99695839  0.33259118  0.66603586  1
  Fe  Fe32  1  0.16708684  0.49813301  0.83185627  1
  Cr  Cr33  1  0.16396411  0.83128415  0.50006318  1
  Fe  Fe34  1  -0.00130072  0.66317518  0.66743709  1
  Ni  Ni35  1  0.16379131  0.83238645  0.83176650  1
  Ni  Ni36  1  0.49675190  0.16830634  0.49814886  1
  Cr  Cr37  1  0.33194436  0.99788167  0.66494714  1
  Cr  Cr38  1  0.49751162  0.16549801  0.83226236  1
  Cr  Cr39  1  0.49853087  0.49669344  0.49687538  1
  Cr  Cr40  1  0.32992243  0.33051578  0.66244511  1
  Cr  Cr41  1  0.50052274  0.49715347  0.83474798  1
  Cr  Cr42  1  0.49806599  0.83161376  0.49744474  1
  Fe  Fe43  1  0.33009865  0.66383984  0.66835426  1
  Ni  Ni44  1  0.49705453  0.83075808  0.83347244  1
  Cr  Cr45  1  0.83159143  0.16592340  0.49665094  1
  Cr  Cr46  1  0.66391639  0.00088072  0.66351981  1
  Fe  Fe47  1  0.82998097  0.16315165  0.83426353  1
  Ni  Ni48  1  0.83247546  0.49686041  0.49939538  1
  Ni  Ni49  1  0.66699035  0.33362462  0.66559418  1
  Fe  Fe50  1  0.83094021  0.49829292  0.83266855  1
  Cr  Cr51  1  0.83227142  0.82925352  0.49383955  1
  Cr  Cr52  1  0.66661785  0.66538422  0.66557797  1
  Fe  Fe53  1  0.82896444  0.83342217  0.83465048  1
" 