476,Ni35Fe26Cr37_15,-224.871889361268, 179.483652462417,Ni35Fe26Cr37,"# generated using pymatgen
 data_Cr21Fe14Ni19
_symmetry_space_group_name_H-M   'P 1'
_cell_length_a   7.47805506
_cell_length_b   7.47805506
_cell_length_c   10.57556689
_cell_angle_alpha   90.00000000
_cell_angle_beta   90.00000000
_cell_angle_gamma   90.00000000
_symmetry_Int_Tables_number   1
_chemical_formula_structural   Cr21Fe14Ni19
_chemical_formula_sum   'Cr21 Fe14 Ni19'
_cell_volume   591.39952844
_cell_formula_units_Z   1
loop_
 _symmetry_equiv_pos_site_id
 _symmetry_equiv_pos_as_xyz
  1  'x, y, z'
loop_
 _atom_site_type_symbol
 _atom_site_label
 _atom_site_symmetry_multiplicity
 _atom_site_fract_x
 _atom_site_fract_y
 _atom_site_fract_z
 _atom_site_occupancy
  Cr  Cr0  1  0.99796769  0.00125801  0.99839183  1
  Fe  Fe1  1  0.16638555  0.16831969  0.16672353  1
  Cr  Cr2  1  0.99343826  -0.00033925  0.33223745  1
  Ni  Ni3  1  -0.00010688  0.33078768  0.99884203  1
  Ni  Ni4  1  0.16653383  0.49863228  0.16740284  1
  Ni  Ni5  1  0.99772505  0.33197810  0.33207250  1
  Fe  Fe6  1  -0.00071481  0.66591799  -0.00062748  1
  Cr  Cr7  1  0.16846817  0.82820412  0.16502588  1
  Cr  Cr8  1  0.99468009  0.66638943  0.33186041  1
  Fe  Fe9  1  0.33537927  0.99790994  0.00029102  1
  Ni  Ni10  1  0.50051553  0.16455064  0.16611026  1
  Cr  Cr11  1  0.33563474  -0.00065330  0.33029906  1
  Cr  Cr12  1  0.33313555  0.33333466  0.00204655  1
  Fe  Fe13  1  0.49864736  0.49999609  0.16556728  1
  Ni  Ni14  1  0.33598450  0.33411616  0.33023106  1
  Ni  Ni15  1  0.33766535  0.66553451  -0.00040519  1
  Ni  Ni16  1  0.50030668  0.83437792  0.16370534  1
  Ni  Ni17  1  0.33686299  0.66370755  0.33206165  1
  Ni  Ni18  1  0.66620245  0.99631157  0.00031924  1
  Cr  Cr19  1  0.82757238  0.16733208  0.16601513  1
  Fe  Fe20  1  0.66299947  0.00064235  0.33181602  1
  Fe  Fe21  1  0.66521275  0.33201452  0.00013845  1
  Cr  Cr22  1  0.83303559  0.49864001  0.16158983  1
  Ni  Ni23  1  0.66350890  0.33280300  0.33312419  1
  Ni  Ni24  1  0.66303256  0.66821338  0.99897993  1
  Fe  Fe25  1  0.82883327  0.83262734  0.16296450  1
  Cr  Cr26  1  0.66262636  0.66799249  0.33132651  1
  Cr  Cr27  1  0.16892728  0.16718233  0.49558522  1
  Cr  Cr28  1  0.99661202  -0.00018000  0.66754823  1
  Ni  Ni29  1  0.16535160  0.16459514  0.83612919  1
  Cr  Cr30  1  0.16581996  0.49992867  0.49509965  1
  Cr  Cr31  1  0.99681469  0.32965769  0.66602792  1
  Cr  Cr32  1  0.16626502  0.50077345  0.83375706  1
  Cr  Cr33  1  0.16809270  0.83095991  0.49868268  1
  Cr  Cr34  1  0.99397900  0.66841043  0.66569648  1
  Fe  Fe35  1  0.16642774  0.83260424  0.83556527  1
  Ni  Ni36  1  0.50507819  0.16585353  0.49798095  1
  Cr  Cr37  1  0.33418315  -0.00028396  0.67022458  1
  Cr  Cr38  1  0.50295202  0.16539811  0.83452970  1
  Ni  Ni39  1  0.50262801  0.49835526  0.49734470  1
  Cr  Cr40  1  0.33613975  0.33261126  0.66584937  1
  Ni  Ni41  1  0.50215043  0.50066640  0.83454894  1
  Ni  Ni42  1  0.50467422  0.83374873  0.50018537  1
  Cr  Cr43  1  0.33955003  0.66526223  0.66611856  1
  Fe  Fe44  1  0.50227148  0.83133785  0.83548518  1
  Fe  Fe45  1  0.82827347  0.16661508  0.49813832  1
  Fe  Fe46  1  0.66661574  0.99788519  0.66657932  1
  Ni  Ni47  1  0.83088591  0.16420655  0.83303672  1
  Fe  Fe48  1  0.82820570  0.49817622  0.49797411  1
  Fe  Fe49  1  0.66503192  0.33337980  0.66452585  1
  Cr  Cr50  1  0.82965431  0.49808188  0.83549852  1
  Ni  Ni51  1  0.82649697  0.83447237  0.49836405  1
  Fe  Fe52  1  0.66582905  0.66673603  0.66611216  1
  Ni  Ni53  1  0.82981390  0.83322356  0.83555895  1
" 