6934,Ni35Fe9Cr54_2,-217.581624805221, 149.896248031509,Ni35Fe9Cr54,"# generated using pymatgen
 data_Cr30Fe5Ni19
_symmetry_space_group_name_H-M   'P 1'
_cell_length_a   7.52557288
_cell_length_b   7.52557288
_cell_length_c   10.64276724
_cell_angle_alpha   90.00000000
_cell_angle_beta   90.00000000
_cell_angle_gamma   90.00000000
_symmetry_Int_Tables_number   1
_chemical_formula_structural   Cr30Fe5Ni19
_chemical_formula_sum   'Cr30 Fe5 Ni19'
_cell_volume   602.74511064
_cell_formula_units_Z   1
loop_
 _symmetry_equiv_pos_site_id
 _symmetry_equiv_pos_as_xyz
  1  'x, y, z'
loop_
 _atom_site_type_symbol
 _atom_site_label
 _atom_site_symmetry_multiplicity
 _atom_site_fract_x
 _atom_site_fract_y
 _atom_site_fract_z
 _atom_site_occupancy
  Cr  Cr0  1  0.99521586  -0.00224883  0.99580931  1
  Cr  Cr1  1  0.16312588  0.16381470  0.16212497  1
  Cr  Cr2  1  0.99462567  -0.00264689  0.33076736  1
  Ni  Ni3  1  0.99219442  0.33228941  0.99540147  1
  Cr  Cr4  1  0.15908328  0.49811415  0.16464679  1
  Ni  Ni5  1  0.99354833  0.32974406  0.32834012  1
  Ni  Ni6  1  0.99340126  0.65770775  0.99533242  1
  Cr  Cr7  1  0.16270127  0.82689152  0.16097055  1
  Fe  Fe8  1  -0.00348549  0.66301457  0.33027226  1
  Ni  Ni9  1  0.32988716  0.99414806  0.99395875  1
  Cr  Cr10  1  0.49756482  0.16350937  0.16109294  1
  Cr  Cr11  1  0.32853229  0.99291181  0.33051675  1
  Cr  Cr12  1  0.32752025  0.33259506  0.99365803  1
  Cr  Cr13  1  0.49880938  0.49614374  0.16316524  1
  Cr  Cr14  1  0.32815581  0.33247180  0.33196174  1
  Cr  Cr15  1  0.33048010  0.66200614  0.99369994  1
  Cr  Cr16  1  0.49506471  0.82899405  0.16106839  1
  Ni  Ni17  1  0.33018034  0.66288913  0.33218666  1
  Cr  Cr18  1  0.66461542  0.99474168  -0.00349193  1
  Ni  Ni19  1  0.82947052  0.16813734  0.16259761  1
  Cr  Cr20  1  0.66542930  0.99482938  0.33013820  1
  Fe  Fe21  1  0.66638191  0.33255353  0.99463531  1
  Ni  Ni22  1  0.83011424  0.49375833  0.16170032  1
  Fe  Fe23  1  0.66492838  0.33075302  0.32899568  1
  Ni  Ni24  1  0.66454180  0.65952145  0.99403000  1
  Cr  Cr25  1  0.83091838  0.82468276  0.16235903  1
  Cr  Cr26  1  0.66183961  0.66248136  0.33050427  1
  Ni  Ni27  1  0.16242503  0.16109849  0.49490469  1
  Cr  Cr28  1  0.99586536  0.99544113  0.66135346  1
  Cr  Cr29  1  0.16276771  0.16279179  0.82984654  1
  Cr  Cr30  1  0.16101418  0.49731552  0.49480318  1
  Cr  Cr31  1  -0.00329187  0.33051192  0.66520479  1
  Ni  Ni32  1  0.15948361  0.49903155  0.83010601  1
  Ni  Ni33  1  0.16092347  0.82738516  0.49597913  1
  Ni  Ni34  1  0.99507337  0.66280547  0.66287149  1
  Fe  Fe35  1  0.16201100  0.82618591  0.82985935  1
  Cr  Cr36  1  0.49574890  0.16500555  0.49604610  1
  Cr  Cr37  1  0.32797188  0.99336625  0.66205617  1
  Cr  Cr38  1  0.49756516  0.16159659  0.83095682  1
  Ni  Ni39  1  0.49698783  0.49941821  0.49595592  1
  Cr  Cr40  1  0.32847256  0.33310417  0.66235992  1
  Ni  Ni41  1  0.49886625  0.49972466  0.82969730  1
  Fe  Fe42  1  0.49586945  0.82632808  0.49705413  1
  Cr  Cr43  1  0.33087414  0.66120845  0.66373555  1
  Ni  Ni44  1  0.49658015  0.82677434  0.82982503  1
  Cr  Cr45  1  0.82968818  0.16413503  0.49662808  1
  Cr  Cr46  1  0.66429215  0.99222741  0.66171790  1
  Ni  Ni47  1  0.82977564  0.16556398  0.83150437  1
  Cr  Cr48  1  0.82924835  0.49880514  0.49644284  1
  Cr  Cr49  1  0.66298054  0.33393396  0.66556580  1
  Ni  Ni50  1  0.83015856  0.49822219  0.83100630  1
  Ni  Ni51  1  0.83147957  0.82617085  0.49729026  1
  Ni  Ni52  1  0.66278183  0.66238378  0.66295981  1
  Cr  Cr53  1  0.82956710  0.82568094  0.82785192  1
" 