7236,Ni35Fe26Cr37_2,-224.486458916118, 173.7101410274,Ni35Fe26Cr37,"# generated using pymatgen
 data_Cr21Fe14Ni19
_symmetry_space_group_name_H-M   'P 1'
_cell_length_a   7.48092353
_cell_length_b   7.48092353
_cell_length_c   10.57962352
_cell_angle_alpha   90.00000000
_cell_angle_beta   90.00000000
_cell_angle_gamma   90.00000000
_symmetry_Int_Tables_number   1
_chemical_formula_structural   Cr21Fe14Ni19
_chemical_formula_sum   'Cr21 Fe14 Ni19'
_cell_volume   592.08034542
_cell_formula_units_Z   1
loop_
 _symmetry_equiv_pos_site_id
 _symmetry_equiv_pos_as_xyz
  1  'x, y, z'
loop_
 _atom_site_type_symbol
 _atom_site_label
 _atom_site_symmetry_multiplicity
 _atom_site_fract_x
 _atom_site_fract_y
 _atom_site_fract_z
 _atom_site_occupancy
  Fe  Fe0  1  0.00232941  0.00191271  0.99900130  1
  Ni  Ni1  1  0.16592858  0.16945545  0.16447623  1
  Cr  Cr2  1  0.99883681  0.00109381  0.33112092  1
  Ni  Ni3  1  0.00154832  0.33170844  0.00044262  1
  Ni  Ni4  1  0.16307226  0.49371042  0.16515765  1
  Fe  Fe5  1  0.00084296  0.33251270  0.33172265  1
  Cr  Cr6  1  0.99864122  0.66512265  0.99763203  1
  Cr  Cr7  1  0.16705284  0.83600716  0.16431914  1
  Cr  Cr8  1  0.99835759  0.66368489  0.33354190  1
  Ni  Ni9  1  0.33185252  0.00380963  0.99725575  1
  Ni  Ni10  1  0.49644449  0.16696808  0.16390420  1
  Cr  Cr11  1  0.33220589  0.00464539  0.33471750  1
  Ni  Ni12  1  0.33074946  0.32795407  -0.00024225  1
  Fe  Fe13  1  0.49648173  0.49515608  0.16337624  1
  Ni  Ni14  1  0.32976056  0.33074601  0.33111563  1
  Cr  Cr15  1  0.33172830  0.66354294  0.99811383  1
  Cr  Cr16  1  0.49875183  0.83296661  0.16608207  1
  Cr  Cr17  1  0.32939778  0.66166592  0.33313702  1
  Cr  Cr18  1  0.66452094  0.00086422  0.99787849  1
  Fe  Fe19  1  0.83448614  0.16789694  0.16399057  1
  Cr  Cr20  1  0.66648541  0.00168878  0.33602649  1
  Fe  Fe21  1  0.66377193  0.33318183  0.00121366  1
  Ni  Ni22  1  0.83362690  0.49647240  0.16392398  1
  Cr  Cr23  1  0.66518542  0.33151275  0.32936897  1
  Ni  Ni24  1  0.66815937  0.66581068  0.00087078  1
  Fe  Fe25  1  0.83308047  0.83295362  0.16463640  1
  Cr  Cr26  1  0.66885951  0.66400263  0.33111131  1
  Fe  Fe27  1  0.16466761  0.16977084  0.49939147  1
  Cr  Cr28  1  0.99861944  -0.00079855  0.66675725  1
  Ni  Ni29  1  0.16668871  0.16686934  0.83453416  1
  Ni  Ni30  1  0.16500772  0.49437320  0.50080892  1
  Fe  Fe31  1  0.00350149  0.33157172  0.66524355  1
  Fe  Fe32  1  0.16782149  0.49376232  0.83195946  1
  Fe  Fe33  1  0.16531457  0.83047255  0.49978314  1
  Cr  Cr34  1  0.00121791  0.66537162  0.66607837  1
  Fe  Fe35  1  0.16858329  0.83491168  0.83337230  1
  Fe  Fe36  1  0.49905458  0.16815157  0.49970600  1
  Cr  Cr37  1  0.33275295  0.00141531  0.66531225  1
  Ni  Ni38  1  0.49578161  0.16361482  0.83227861  1
  Cr  Cr39  1  0.49626770  0.50051135  0.49878257  1
  Ni  Ni40  1  0.33033554  0.33138367  0.66666687  1
  Cr  Cr41  1  0.49865908  0.49878882  0.83454463  1
  Ni  Ni42  1  0.49827349  0.83416581  0.50104003  1
  Ni  Ni43  1  0.32999713  0.66544324  0.66609717  1
  Ni  Ni44  1  0.49782498  0.83331778  0.83191664  1
  Ni  Ni45  1  0.83599168  0.16673472  0.49976519  1
  Fe  Fe46  1  0.66390710  -0.00084554  0.66498074  1
  Cr  Cr47  1  0.83505990  0.16757932  0.83350996  1
  Ni  Ni48  1  0.83699520  0.49569921  0.49906373  1
  Cr  Cr49  1  0.66422462  0.32807379  0.66479343  1
  Cr  Cr50  1  0.83427788  0.49696236  0.83176580  1
  Ni  Ni51  1  0.83043454  0.83458110  0.50006935  1
  Cr  Cr52  1  0.66667379  0.66704890  0.66497505  1
  Fe  Fe53  1  0.82982664  0.83394153  0.83282756  1
" 