1276,Ni35Fe15Cr49_15,-220.090379204527, 162.382229276456,Ni35Fe15Cr49,"# generated using pymatgen
 data_Cr27Fe8Ni19
_symmetry_space_group_name_H-M   'P 1'
_cell_length_a   7.50770621
_cell_length_b   7.50770621
_cell_length_c   10.61749995
_cell_angle_alpha   90.00000000
_cell_angle_beta   90.00000000
_cell_angle_gamma   90.00000000
_symmetry_Int_Tables_number   1
_chemical_formula_structural   Cr27Fe8Ni19
_chemical_formula_sum   'Cr27 Fe8 Ni19'
_cell_volume   598.46231323
_cell_formula_units_Z   1
loop_
 _symmetry_equiv_pos_site_id
 _symmetry_equiv_pos_as_xyz
  1  'x, y, z'
loop_
 _atom_site_type_symbol
 _atom_site_label
 _atom_site_symmetry_multiplicity
 _atom_site_fract_x
 _atom_site_fract_y
 _atom_site_fract_z
 _atom_site_occupancy
  Ni  Ni0  1  0.99700010  0.99459599  -0.00142698  1
  Cr  Cr1  1  0.16370288  0.16415200  0.16510833  1
  Fe  Fe2  1  -0.00244212  -0.00180004  0.33169227  1
  Cr  Cr3  1  -0.00207933  0.33224766  0.99603264  1
  Fe  Fe4  1  0.16304928  0.49697850  0.16342923  1
  Ni  Ni5  1  -0.00205007  0.33048926  0.32971690  1
  Ni  Ni6  1  0.99570393  0.66666163  0.99704457  1
  Fe  Fe7  1  0.16376355  0.83010186  0.16164960  1
  Cr  Cr8  1  -0.00127232  0.66448546  0.32878968  1
  Fe  Fe9  1  0.32926484  0.99707757  0.99533807  1
  Cr  Cr10  1  0.49664625  0.16468595  0.16104778  1
  Cr  Cr11  1  0.32867865  0.99577366  0.33007887  1
  Cr  Cr12  1  0.33252257  0.33152930  0.99509617  1
  Ni  Ni13  1  0.49705381  0.49696203  0.16341365  1
  Ni  Ni14  1  0.32924740  0.33305923  0.32901605  1
  Cr  Cr15  1  0.32944769  0.66065776  0.99715804  1
  Cr  Cr16  1  0.49873383  0.82987452  0.16062257  1
  Cr  Cr17  1  0.33065811  0.66169384  0.33081031  1
  Fe  Fe18  1  0.66598676  -0.00191570  0.99520492  1
  Cr  Cr19  1  0.83169436  0.16476383  0.16429127  1
  Cr  Cr20  1  0.66568747  -0.00211887  0.33485513  1
  Ni  Ni21  1  0.66153741  0.33296819  0.99626375  1
  Fe  Fe22  1  0.82927395  0.49628570  0.16118798  1
  Cr  Cr23  1  0.66311382  0.33187678  0.33097260  1
  Ni  Ni24  1  0.66423336  0.66079413  -0.00237270  1
  Cr  Cr25  1  0.83013749  0.82881199  0.16080135  1
  Cr  Cr26  1  0.66239604  0.66147018  0.33008135  1
  Cr  Cr27  1  0.16349947  0.16702214  0.49617948  1
  Cr  Cr28  1  0.99631824  0.99719003  0.66173560  1
  Cr  Cr29  1  0.16595488  0.16563893  0.82945022  1
  Cr  Cr30  1  0.16507193  0.49685639  0.50134447  1
  Ni  Ni31  1  -0.00232921  0.33090609  0.66480641  1
  Ni  Ni32  1  0.16494854  0.49860337  0.82748811  1
  Ni  Ni33  1  0.16382735  0.83031348  0.49850817  1
  Ni  Ni34  1  -0.00065845  0.66410304  0.66673113  1
  Cr  Cr35  1  0.16241785  0.82832464  0.83037610  1
  Cr  Cr36  1  0.49561016  0.16676331  0.49974543  1
  Ni  Ni37  1  0.33171268  -0.00179964  0.66514074  1
  Ni  Ni38  1  0.49848662  0.16532688  0.83109358  1
  Ni  Ni39  1  0.49476308  0.49483572  0.49861196  1
  Ni  Ni40  1  0.33322006  0.33187596  0.66696742  1
  Ni  Ni41  1  0.49681504  0.49624724  0.82945651  1
  Cr  Cr42  1  0.49370611  0.82826441  0.49981019  1
  Ni  Ni43  1  0.33027465  0.66221333  0.66381114  1
  Cr  Cr44  1  0.49947244  0.83093090  0.83155158  1
  Ni  Ni45  1  0.83253959  0.16646583  0.49751359  1
  Fe  Fe46  1  0.66327163  -0.00028714  0.66473765  1
  Cr  Cr47  1  0.82934666  0.16354518  0.83081213  1
  Cr  Cr48  1  0.83263796  0.49438490  0.49867951  1
  Fe  Fe49  1  0.66259107  0.33040920  0.66554601  1
  Cr  Cr50  1  0.83273779  0.50076741  0.83163548  1
  Cr  Cr51  1  0.83192741  0.82959831  0.49885351  1
  Cr  Cr52  1  0.66350486  0.66283895  0.66389660  1
  Ni  Ni53  1  0.83042114  0.83027798  0.83339316  1
" 