4057,Ni35Fe15Cr49_11,-220.084879522885, 155.784250833562,Ni35Fe15Cr49,"# generated using pymatgen
 data_Cr27Fe8Ni19
_symmetry_space_group_name_H-M   'P 1'
_cell_length_a   7.51092339
_cell_length_b   7.51092339
_cell_length_c   10.62204972
_cell_angle_alpha   90.00000000
_cell_angle_beta   90.00000000
_cell_angle_gamma   90.00000000
_symmetry_Int_Tables_number   1
_chemical_formula_structural   Cr27Fe8Ni19
_chemical_formula_sum   'Cr27 Fe8 Ni19'
_cell_volume   599.23199520
_cell_formula_units_Z   1
loop_
 _symmetry_equiv_pos_site_id
 _symmetry_equiv_pos_as_xyz
  1  'x, y, z'
loop_
 _atom_site_type_symbol
 _atom_site_label
 _atom_site_symmetry_multiplicity
 _atom_site_fract_x
 _atom_site_fract_y
 _atom_site_fract_z
 _atom_site_occupancy
  Cr  Cr0  1  0.99396558  -0.00173159  0.99341367  1
  Cr  Cr1  1  0.16860940  0.16345304  0.16478555  1
  Cr  Cr2  1  0.99640632  -0.00208947  0.33370330  1
  Cr  Cr3  1  -0.00248590  0.33140436  -0.00211809  1
  Ni  Ni4  1  0.16418875  0.49690947  0.16062666  1
  Cr  Cr5  1  0.99559615  0.32904639  0.32987145  1
  Fe  Fe6  1  0.99483080  0.66515171  0.99675217  1
  Cr  Cr7  1  0.16147606  0.83075110  0.16466627  1
  Cr  Cr8  1  -0.00091745  0.66420287  0.32761889  1
  Cr  Cr9  1  0.33313599  0.99593311  -0.00121378  1
  Ni  Ni10  1  0.49942293  0.15969833  0.16391547  1
  Ni  Ni11  1  0.33382300  0.99530815  0.33077150  1
  Fe  Fe12  1  0.33036455  0.32991218  0.99646004  1
  Cr  Cr13  1  0.49783727  0.49507962  0.16353076  1
  Cr  Cr14  1  0.33055801  0.33169280  0.32963621  1
  Cr  Cr15  1  0.32948312  0.66144336  0.99633600  1
  Fe  Fe16  1  0.49970307  0.83141828  0.16517799  1
  Cr  Cr17  1  0.33199790  0.66650778  0.33266230  1
  Ni  Ni18  1  0.66586804  0.99576175  -0.00033928  1
  Fe  Fe19  1  0.82864038  0.16033579  0.16377757  1
  Ni  Ni20  1  0.66210733  0.99539724  0.32712616  1
  Cr  Cr21  1  0.66471753  0.32736198  0.99660732  1
  Cr  Cr22  1  0.83052772  0.50245398  0.16510576  1
  Cr  Cr23  1  0.66504482  0.32858782  0.33149360  1
  Fe  Fe24  1  0.66479606  0.66625636  0.99684303  1
  Ni  Ni25  1  0.82578057  0.83182586  0.16224020  1
  Ni  Ni26  1  0.66065134  0.66775025  0.33047030  1
  Fe  Fe27  1  0.16319141  0.16234570  0.49871057  1
  Fe  Fe28  1  0.99582465  -0.00128161  0.66384958  1
  Ni  Ni29  1  0.16214389  0.16793032  0.82685579  1
  Cr  Cr30  1  0.16407561  0.49647399  0.49786246  1
  Ni  Ni31  1  -0.00121464  0.32604514  0.66456318  1
  Ni  Ni32  1  0.16615969  0.49388600  0.83116679  1
  Ni  Ni33  1  0.16613537  0.83325823  0.49749748  1
  Cr  Cr34  1  -0.00021701  0.66386915  0.66550772  1
  Cr  Cr35  1  0.16169129  0.83102052  0.82932128  1
  Cr  Cr36  1  0.49621128  0.16270299  0.49523663  1
  Cr  Cr37  1  0.32846478  0.99308614  0.66182313  1
  Cr  Cr38  1  0.49449704  0.16562757  0.83254874  1
  Ni  Ni39  1  0.49670916  0.50067189  0.49968610  1
  Fe  Fe40  1  0.33006372  0.33369325  0.66477298  1
  Ni  Ni41  1  0.49369728  0.49752892  0.82834930  1
  Ni  Ni42  1  0.49682736  0.82951767  0.49458448  1
  Ni  Ni43  1  0.33237778  0.66212540  0.66239578  1
  Cr  Cr44  1  0.50031850  0.82912790  0.83093094  1
  Ni  Ni45  1  0.83213342  0.16154992  0.49727734  1
  Cr  Cr46  1  0.66554438  0.99674654  0.66556615  1
  Ni  Ni47  1  0.83252785  0.16177356  0.83009917  1
  Cr  Cr48  1  0.82768211  0.49838398  0.49642005  1
  Cr  Cr49  1  0.66607901  0.33063034  0.66330103  1
  Cr  Cr50  1  0.82929527  0.50070730  0.82971313  1
  Cr  Cr51  1  0.82858776  0.82970874  0.49812693  1
  Ni  Ni52  1  0.65836116  0.66395143  0.66452212  1
  Ni  Ni53  1  0.82897947  0.83137341  0.83166706  1
" 