4240,Ni35Fe15Cr49_3,-220.490079417312, 164.27164410736,Ni35Fe15Cr49,"# generated using pymatgen
 data_Cr27Fe8Ni19
_symmetry_space_group_name_H-M   'P 1'
_cell_length_a   7.50822470
_cell_length_b   7.50822470
_cell_length_c   10.61823320
_cell_angle_alpha   90.00000000
_cell_angle_beta   90.00000000
_cell_angle_gamma   90.00000000
_symmetry_Int_Tables_number   1
_chemical_formula_structural   Cr27Fe8Ni19
_chemical_formula_sum   'Cr27 Fe8 Ni19'
_cell_volume   598.58631251
_cell_formula_units_Z   1
loop_
 _symmetry_equiv_pos_site_id
 _symmetry_equiv_pos_as_xyz
  1  'x, y, z'
loop_
 _atom_site_type_symbol
 _atom_site_label
 _atom_site_symmetry_multiplicity
 _atom_site_fract_x
 _atom_site_fract_y
 _atom_site_fract_z
 _atom_site_occupancy
  Cr  Cr0  1  0.99485754  -0.00118601  0.99640593  1
  Cr  Cr1  1  0.16619629  0.16489470  0.16328303  1
  Cr  Cr2  1  -0.00253412  0.00067402  0.33054586  1
  Cr  Cr3  1  0.99543925  0.32696906  0.99445961  1
  Cr  Cr4  1  0.16123536  0.49733908  0.16372123  1
  Ni  Ni5  1  0.99421641  0.32939806  0.33305058  1
  Fe  Fe6  1  0.99567142  0.66541393  -0.00257528  1
  Ni  Ni7  1  0.16505554  0.82947836  0.16366176  1
  Ni  Ni8  1  0.99604006  0.66252984  0.32889197  1
  Fe  Fe9  1  0.33306069  -0.00262143  -0.00137065  1
  Ni  Ni10  1  0.49936529  0.16267638  0.16212122  1
  Cr  Cr11  1  0.33194627  0.99645710  0.33026625  1
  Fe  Fe12  1  0.33275335  0.32847788  0.99682114  1
  Fe  Fe13  1  0.49892600  0.49668004  0.16520905  1
  Cr  Cr14  1  0.33329755  0.33021029  0.33045727  1
  Cr  Cr15  1  0.33278483  0.66353780  0.00018247  1
  Ni  Ni16  1  0.49828060  0.83346009  0.16459340  1
  Cr  Cr17  1  0.33463122  0.66521443  0.32987515  1
  Ni  Ni18  1  0.66411920  -0.00208245  -0.00198909  1
  Ni  Ni19  1  0.82688083  0.16528808  0.16600174  1
  Cr  Cr20  1  0.66212347  -0.00113776  0.32980624  1
  Cr  Cr21  1  0.66374407  0.32877300  -0.00076967  1
  Cr  Cr22  1  0.83094925  0.49673137  0.16863975  1
  Fe  Fe23  1  0.66354087  0.33058612  0.33181023  1
  Cr  Cr24  1  0.66010566  0.66502320  0.99575027  1
  Cr  Cr25  1  0.82997877  0.82960725  0.16292542  1
  Ni  Ni26  1  0.66195047  0.66188410  0.33177149  1
  Ni  Ni27  1  0.16777466  0.16612362  0.49873404  1
  Cr  Cr28  1  0.99604188  0.00070012  0.66484272  1
  Ni  Ni29  1  0.16698149  0.16394781  0.82934037  1
  Cr  Cr30  1  0.16219759  0.49516917  0.49651050  1
  Cr  Cr31  1  -0.00268232  0.32679649  0.66380400  1
  Cr  Cr32  1  0.16676399  0.49419558  0.83149611  1
  Cr  Cr33  1  0.16323215  0.83176894  0.49630958  1
  Cr  Cr34  1  0.99527092  0.66424435  0.66669921  1
  Cr  Cr35  1  0.16445761  0.83250735  0.83135373  1
  Ni  Ni36  1  0.49706571  0.16492019  0.49943673  1
  Ni  Ni37  1  0.33183605  0.00120980  0.66168994  1
  Cr  Cr38  1  0.49579786  0.16339744  0.83082475  1
  Ni  Ni39  1  0.50137420  0.49479797  0.49701249  1
  Ni  Ni40  1  0.33210105  0.32853801  0.66474239  1
  Ni  Ni41  1  0.49669077  0.49557248  0.82975500  1
  Fe  Fe42  1  0.49868881  0.83223446  0.49845240  1
  Cr  Cr43  1  0.33548537  0.66147724  0.66136077  1
  Cr  Cr44  1  0.50045065  0.83413026  0.82639582  1
  Fe  Fe45  1  0.82871638  0.16536236  0.49650894  1
  Ni  Ni46  1  0.66354512  0.99712384  0.66376409  1
  Ni  Ni47  1  0.82831311  0.15996909  0.82975041  1
  Fe  Fe48  1  0.82835997  0.49613749  0.49479262  1
  Cr  Cr49  1  0.66358441  0.33152436  0.66299236  1
  Cr  Cr50  1  0.82859830  0.50042852  0.82960181  1
  Cr  Cr51  1  0.82752980  0.82759315  0.49812944  1
  Ni  Ni52  1  0.66155056  0.66450437  0.66326596  1
  Ni  Ni53  1  0.82758260  0.83327387  0.83081232  1
" 