8471,Ni35Fe16Cr47_15,-220.340709696682, 162.753912561369,Ni35Fe16Cr47,"# generated using pymatgen
 data_Cr27Fe8Ni19
_symmetry_space_group_name_H-M   'P 1'
_cell_length_a   7.51436273
_cell_length_b   7.51436273
_cell_length_c   10.62691369
_cell_angle_alpha   90.00000000
_cell_angle_beta   90.00000000
_cell_angle_gamma   90.00000000
_symmetry_Int_Tables_number   1
_chemical_formula_structural   Cr27Fe8Ni19
_chemical_formula_sum   'Cr27 Fe8 Ni19'
_cell_volume   600.05555945
_cell_formula_units_Z   1
loop_
 _symmetry_equiv_pos_site_id
 _symmetry_equiv_pos_as_xyz
  1  'x, y, z'
loop_
 _atom_site_type_symbol
 _atom_site_label
 _atom_site_symmetry_multiplicity
 _atom_site_fract_x
 _atom_site_fract_y
 _atom_site_fract_z
 _atom_site_occupancy
  Cr  Cr0  1  0.99585062  -0.00131580  0.99581719  1
  Cr  Cr1  1  0.16661958  0.16458413  0.16314735  1
  Ni  Ni2  1  -0.00099972  0.99553447  0.33183680  1
  Fe  Fe3  1  -0.00218217  0.33013878  0.99555560  1
  Fe  Fe4  1  0.16537490  0.49574701  0.16346863  1
  Cr  Cr5  1  -0.00240787  0.33019275  0.33033133  1
  Cr  Cr6  1  -0.00308117  0.66185483  -0.00217328  1
  Cr  Cr7  1  0.16367973  0.83175672  0.16472685  1
  Ni  Ni8  1  0.00000328  0.66440316  0.33045004  1
  Ni  Ni9  1  0.33260518  0.00153884  0.99630466  1
  Fe  Fe10  1  0.49599650  0.16439717  0.16460888  1
  Ni  Ni11  1  0.33095398  -0.00108227  0.33258349  1
  Ni  Ni12  1  0.33190526  0.32764489  -0.00013344  1
  Ni  Ni13  1  0.49417630  0.49269557  0.16482595  1
  Fe  Fe14  1  0.33345415  0.32870802  0.33082899  1
  Cr  Cr15  1  0.33022685  0.66296328  -0.00115610  1
  Cr  Cr16  1  0.49684000  0.83294921  0.16204123  1
  Cr  Cr17  1  0.32921929  0.66298594  0.33096172  1
  Fe  Fe18  1  0.66060211  -0.00038505  0.99546578  1
  Cr  Cr19  1  0.82893174  0.16235769  0.16562262  1
  Ni  Ni20  1  0.66063555  0.00079074  0.32969376  1
  Cr  Cr21  1  0.66339314  0.32797878  0.99507983  1
  Cr  Cr22  1  0.83006736  0.49627736  0.16508833  1
  Ni  Ni23  1  0.65868424  0.32808206  0.33007037  1
  Cr  Cr24  1  0.66341094  0.66278694  0.99655676  1
  Cr  Cr25  1  0.82986701  0.83181916  0.16710681  1
  Cr  Cr26  1  0.66167099  0.66219489  0.33042249  1
  Fe  Fe27  1  0.16666477  0.15991430  0.49627681  1
  Ni  Ni28  1  -0.00247264  0.99545620  0.66258029  1
  Cr  Cr29  1  0.16552043  0.16293889  0.83065243  1
  Fe  Fe30  1  0.16454844  0.49816696  0.49657514  1
  Cr  Cr31  1  0.99552505  0.32892852  0.66628217  1
  Cr  Cr32  1  0.16201085  0.49524598  0.83247966  1
  Fe  Fe33  1  0.16433104  0.83244966  0.49680139  1
  Ni  Ni34  1  0.99557981  0.66487791  0.66311400  1
  Cr  Cr35  1  0.16482531  0.83224282  0.82812198  1
  Ni  Ni36  1  0.49360423  0.16157457  0.49385140  1
  Ni  Ni37  1  0.33127342  -0.00267138  0.66152842  1
  Ni  Ni38  1  0.49726449  0.16088478  0.83214343  1
  Ni  Ni39  1  0.49512947  0.49604151  0.49561580  1
  Cr  Cr40  1  0.33216624  0.32750182  0.66011937  1
  Cr  Cr41  1  0.49786222  0.49609056  0.82887473  1
  Ni  Ni42  1  0.49492509  0.83293719  0.49818293  1
  Cr  Cr43  1  0.33095851  0.66566368  0.66060581  1
  Cr  Cr44  1  0.49690019  0.83369681  0.82917823  1
  Cr  Cr45  1  0.82963206  0.16103265  0.49524249  1
  Ni  Ni46  1  0.66178458  -0.00295618  0.66488433  1
  Ni  Ni47  1  0.82905217  0.16373912  0.83017271  1
  Cr  Cr48  1  0.82915620  0.49870293  0.49772047  1
  Cr  Cr49  1  0.66298992  0.32898829  0.66448172  1
  Ni  Ni50  1  0.83143142  0.49584274  0.82896224  1
  Cr  Cr51  1  0.83047522  0.83072406  0.49638139  1
  Ni  Ni52  1  0.66465209  0.66438202  0.66294821  1
  Cr  Cr53  1  0.82870277  0.82999545  0.82708091  1
" 