8430,Ni36Fe24Cr39_18,-223.461528528896, 171.018754522018,Ni36Fe24Cr39,"# generated using pymatgen
 data_Cr23Fe12Ni19
_symmetry_space_group_name_H-M   'P 1'
_cell_length_a   7.49393873
_cell_length_b   7.49393873
_cell_length_c   10.59802979
_cell_angle_alpha   90.00000000
_cell_angle_beta   90.00000000
_cell_angle_gamma   90.00000000
_symmetry_Int_Tables_number   1
_chemical_formula_structural   Cr23Fe12Ni19
_chemical_formula_sum   'Cr23 Fe12 Ni19'
_cell_volume   595.17600301
_cell_formula_units_Z   1
loop_
 _symmetry_equiv_pos_site_id
 _symmetry_equiv_pos_as_xyz
  1  'x, y, z'
loop_
 _atom_site_type_symbol
 _atom_site_label
 _atom_site_symmetry_multiplicity
 _atom_site_fract_x
 _atom_site_fract_y
 _atom_site_fract_z
 _atom_site_occupancy
  Cr  Cr0  1  -0.00071941  0.99681244  0.99288530  1
  Cr  Cr1  1  0.16918975  0.16548251  0.16779167  1
  Ni  Ni2  1  0.99417175  0.99651810  0.33506938  1
  Cr  Cr3  1  0.00052643  0.33197511  -0.00139720  1
  Fe  Fe4  1  0.16586534  0.49919865  0.16616231  1
  Fe  Fe5  1  -0.00113631  0.33281507  0.33233802  1
  Fe  Fe6  1  0.00027602  0.66478738  0.99581958  1
  Cr  Cr7  1  0.16460696  0.83261960  0.16533769  1
  Fe  Fe8  1  -0.00156325  0.66435233  0.33339387  1
  Ni  Ni9  1  0.33431482  -0.00149157  -0.00128263  1
  Fe  Fe10  1  0.49764577  0.16517043  0.16516414  1
  Fe  Fe11  1  0.33309278  0.99766750  0.33044574  1
  Ni  Ni12  1  0.33505870  0.33166417  -0.00116618  1
  Cr  Cr13  1  0.49980505  0.49785734  0.16373361  1
  Ni  Ni14  1  0.33311601  0.33602018  0.32945209  1
  Cr  Cr15  1  0.33033538  0.66574148  0.99607887  1
  Fe  Fe16  1  0.49696100  0.83158754  0.16569229  1
  Ni  Ni17  1  0.33283693  0.66370837  0.33119881  1
  Cr  Cr18  1  0.66192290  -0.00074031  -0.00035502  1
  Cr  Cr19  1  0.83138132  0.16561845  0.16515495  1
  Fe  Fe20  1  0.66339022  0.99605848  0.33185157  1
  Ni  Ni21  1  0.66068342  0.33123889  0.99519061  1
  Cr  Cr22  1  0.83069108  0.50028409  0.16165377  1
  Cr  Cr23  1  0.66466872  0.33036484  0.33499596  1
  Ni  Ni24  1  0.66037853  0.66500004  -0.00156214  1
  Cr  Cr25  1  0.82961641  0.82776070  0.16467161  1
  Fe  Fe26  1  0.66366289  0.66431399  0.33307418  1
  Cr  Cr27  1  0.16609816  0.16238359  0.49741670  1
  Ni  Ni28  1  0.99667635  0.99704641  0.66501731  1
  Cr  Cr29  1  0.16775624  0.16331396  0.82889454  1
  Cr  Cr30  1  0.16885582  0.49832577  0.49507503  1
  Cr  Cr31  1  0.99453161  0.33084662  0.66164482  1
  Ni  Ni32  1  0.16778390  0.49902338  0.83476100  1
  Cr  Cr33  1  0.16632588  0.83397438  0.50157827  1
  Cr  Cr34  1  0.00076878  0.66504762  0.66626405  1
  Ni  Ni35  1  0.17065795  0.83188531  0.82916578  1
  Cr  Cr36  1  0.49377754  0.16623303  0.49906439  1
  Ni  Ni37  1  0.33217095  0.99427504  0.66781269  1
  Fe  Fe38  1  0.49825954  0.16455184  0.83171608  1
  Ni  Ni39  1  0.50103102  0.49903149  0.49991021  1
  Cr  Cr40  1  0.33445009  0.33729519  0.66668813  1
  Fe  Fe41  1  0.49872368  0.50001911  0.83137106  1
  Cr  Cr42  1  0.49735687  0.82832536  0.49734575  1
  Ni  Ni43  1  0.33559389  0.66560665  0.66743383  1
  Ni  Ni44  1  0.49661350  0.83049144  0.83164043  1
  Fe  Fe45  1  0.83070315  0.16349255  0.49842911  1
  Cr  Cr46  1  0.66661833  -0.00144791  0.66400427  1
  Ni  Ni47  1  0.82811113  0.16726340  0.82927221  1
  Ni  Ni48  1  0.82746289  0.50039023  0.49717055  1
  Ni  Ni49  1  0.66455155  0.33417526  0.66494757  1
  Cr  Cr50  1  0.82609808  0.49787348  0.83441570  1
  Ni  Ni51  1  0.83088395  0.82948346  0.49627639  1
  Ni  Ni52  1  0.66175154  0.66305836  0.66221591  1
  Cr  Cr53  1  0.82872207  0.82876282  0.83218900  1
" 