6132,Ni36Fe41Cr21_18,-230.777497661853, 199.117136874221,Ni36Fe41Cr21,"# generated using pymatgen
 data_Cr13Fe22Ni19
_symmetry_space_group_name_H-M   'P 1'
_cell_length_a   7.44618636
_cell_length_b   7.44618636
_cell_length_c   10.53049773
_cell_angle_alpha   90.00000000
_cell_angle_beta   90.00000000
_cell_angle_gamma   90.00000000
_symmetry_Int_Tables_number   1
_chemical_formula_structural   Cr13Fe22Ni19
_chemical_formula_sum   'Cr13 Fe22 Ni19'
_cell_volume   583.87072630
_cell_formula_units_Z   1
loop_
 _symmetry_equiv_pos_site_id
 _symmetry_equiv_pos_as_xyz
  1  'x, y, z'
loop_
 _atom_site_type_symbol
 _atom_site_label
 _atom_site_symmetry_multiplicity
 _atom_site_fract_x
 _atom_site_fract_y
 _atom_site_fract_z
 _atom_site_occupancy
  Ni  Ni0  1  0.00161654  0.00151997  0.00159687  1
  Ni  Ni1  1  0.16807360  0.16623291  0.16835817  1
  Ni  Ni2  1  1.00017673  0.00394441  0.33438727  1
  Ni  Ni3  1  0.00428682  0.33193963  0.00223537  1
  Fe  Fe4  1  0.16856768  0.49874699  0.16631597  1
  Ni  Ni5  1  0.00241103  0.33114099  0.33621168  1
  Fe  Fe6  1  0.00350171  0.66881572  0.00168705  1
  Ni  Ni7  1  0.16818595  0.83802250  0.16595288  1
  Cr  Cr8  1  0.00248568  0.66841553  0.33249159  1
  Fe  Fe9  1  0.33406771  0.00374819  0.00143436  1
  Fe  Fe10  1  0.50068236  0.16750320  0.16726787  1
  Fe  Fe11  1  0.33386472  0.00406591  0.33391750  1
  Ni  Ni12  1  0.33453204  0.33514650  0.00140584  1
  Ni  Ni13  1  0.50078230  0.49870544  0.16639254  1
  Fe  Fe14  1  0.33371742  0.33203239  0.33347205  1
  Ni  Ni15  1  0.33250593  0.66699519  0.00272316  1
  Fe  Fe16  1  0.50041070  0.83670177  0.16649468  1
  Cr  Cr17  1  0.33490048  0.66773304  0.33242805  1
  Ni  Ni18  1  0.66918853  0.00325153  0.00360474  1
  Fe  Fe19  1  0.83695312  0.16648284  0.16787385  1
  Fe  Fe20  1  0.66953840  0.00371137  0.33438218  1
  Ni  Ni21  1  0.66599013  0.33153720  0.00298662  1
  Cr  Cr22  1  0.83419173  0.49759233  0.16742146  1
  Fe  Fe23  1  0.66840387  0.33177815  0.33427590  1
  Cr  Cr24  1  0.66611678  0.66996303  1.00031369  1
  Ni  Ni25  1  0.83728060  0.83724768  0.16675200  1
  Cr  Cr26  1  0.66720948  0.67066022  0.33638534  1
  Fe  Fe27  1  0.16916773  0.16963069  0.50065765  1
  Fe  Fe28  1  0.00231690  0.00407009  0.66841610  1
  Fe  Fe29  1  0.17002378  0.16730224  0.83616906  1
  Fe  Fe30  1  0.16733263  0.49626588  0.50131384  1
  Fe  Fe31  1  0.00374705  0.33127669  0.66678596  1
  Fe  Fe32  1  0.16976538  0.49946456  0.83642324  1
  Cr  Cr33  1  0.16916794  0.83837662  0.50031270  1
  Cr  Cr34  1  1.00046880  0.66852400  0.66803538  1
  Ni  Ni35  1  0.16770201  0.83623446  0.83710401  1
  Ni  Ni36  1  0.50136368  0.16761925  0.50016567  1
  Ni  Ni37  1  0.33534357  0.00513613  0.66800732  1
  Ni  Ni38  1  0.50002558  0.16850033  0.83595189  1
  Cr  Cr39  1  0.50139846  0.49960285  0.50270524  1
  Ni  Ni40  1  0.33310508  0.33133249  0.66879209  1
  Fe  Fe41  1  0.49805515  0.49863971  0.83682870  1
  Fe  Fe42  1  0.50271055  0.83967663  0.50266316  1
  Cr  Cr43  1  0.33391478  0.66659693  0.66865265  1
  Cr  Cr44  1  0.49888028  0.83815201  0.83362761  1
  Ni  Ni45  1  0.83510903  0.16830656  0.50005340  1
  Ni  Ni46  1  0.66883980  0.00199749  0.66627976  1
  Cr  Cr47  1  0.83428034  0.16798909  0.83765360  1
  Fe  Fe48  1  0.83641818  0.49812298  0.50104670  1
  Cr  Cr49  1  0.66660760  0.33149163  0.66921257  1
  Cr  Cr50  1  0.83412178  0.50019200  0.83610343  1
  Fe  Fe51  1  0.83303356  0.83902886  0.50097129  1
  Fe  Fe52  1  0.66798593  0.67035660  0.66740688  1
  Fe  Fe53  1  0.83511564  0.83812186  0.83553470  1
" 