2944,Ni36Fe60Cr2_13,-236.458984617548, 213.005461775024,Ni36Fe60Cr2,"# generated using pymatgen
 data_Cr3Fe32Ni19
_symmetry_space_group_name_H-M   'P 1'
_cell_length_a   7.40683833
_cell_length_b   7.40683833
_cell_length_c   10.47485122
_cell_angle_alpha   90.00000000
_cell_angle_beta   90.00000000
_cell_angle_gamma   90.00000000
_symmetry_Int_Tables_number   1
_chemical_formula_structural   Cr3Fe32Ni19
_chemical_formula_sum   'Cr3 Fe32 Ni19'
_cell_volume   574.66347392
_cell_formula_units_Z   1
loop_
 _symmetry_equiv_pos_site_id
 _symmetry_equiv_pos_as_xyz
  1  'x, y, z'
loop_
 _atom_site_type_symbol
 _atom_site_label
 _atom_site_symmetry_multiplicity
 _atom_site_fract_x
 _atom_site_fract_y
 _atom_site_fract_z
 _atom_site_occupancy
  Fe  Fe0  1  1.00359534  0.00480069  0.00434183  1
  Fe  Fe1  1  0.17035646  0.17066224  0.17075226  1
  Fe  Fe2  1  0.00555867  0.00606090  0.33664600  1
  Ni  Ni3  1  0.00475971  0.33713671  0.00557680  1
  Fe  Fe4  1  0.17108172  0.50424935  0.17103406  1
  Fe  Fe5  1  0.00461042  0.33759941  0.33723414  1
  Ni  Ni6  1  1.00374889  0.67139405  0.00540324  1
  Fe  Fe7  1  0.17013696  0.83719853  0.17134202  1
  Fe  Fe8  1  0.00527306  0.66866172  0.33669635  1
  Fe  Fe9  1  0.33712718  1.00381794  1.00363971  1
  Fe  Fe10  1  0.50541688  0.17096308  0.17078300  1
  Fe  Fe11  1  0.33778528  0.00482820  0.33823030  1
  Ni  Ni12  1  0.33752773  0.33555555  0.00635954  1
  Fe  Fe13  1  0.50407178  0.50289056  0.17237750  1
  Fe  Fe14  1  0.33784470  0.33797787  0.33807245  1
  Fe  Fe15  1  0.33661325  0.67107409  0.00658575  1
  Ni  Ni16  1  0.50308964  0.83864311  0.17177970  1
  Ni  Ni17  1  0.33694900  0.67144746  0.33781595  1
  Ni  Ni18  1  0.67018548  0.00411378  0.00474844  1
  Ni  Ni19  1  0.83741726  0.17110129  0.17058712  1
  Fe  Fe20  1  0.66886139  0.00541872  0.33542573  1
  Fe  Fe21  1  0.67184512  0.33627292  0.00541286  1
  Ni  Ni22  1  0.83908442  0.50338456  0.17162305  1
  Ni  Ni23  1  0.67126750  0.33676260  0.33707657  1
  Cr  Cr24  1  0.67149304  0.67155626  0.00520407  1
  Fe  Fe25  1  0.83783674  0.83896031  0.17202308  1
  Fe  Fe26  1  0.66887485  0.66867201  0.33614656  1
  Ni  Ni27  1  0.17168301  0.17218684  0.50389231  1
  Fe  Fe28  1  0.00575835  0.00513254  0.67077514  1
  Ni  Ni29  1  0.17170071  0.17139724  0.83744285  1
  Ni  Ni30  1  0.17030878  0.50417037  0.50362528  1
  Ni  Ni31  1  0.00413304  0.33661615  0.66906616  1
  Cr  Cr32  1  0.17051113  0.50327565  0.83776053  1
  Fe  Fe33  1  0.17223874  0.83801707  0.50413699  1
  Ni  Ni34  1  1.00278412  0.67032967  0.66979162  1
  Fe  Fe35  1  0.17068776  0.83905348  0.83713087  1
  Ni  Ni36  1  0.50450654  0.16984647  0.50314383  1
  Ni  Ni37  1  0.33786571  0.00523583  0.67020667  1
  Ni  Ni38  1  0.50402235  0.17062103  0.83874921  1
  Fe  Fe39  1  0.50352167  0.50314627  0.50364404  1
  Ni  Ni40  1  0.33735997  0.33476661  0.66887950  1
  Fe  Fe41  1  0.50358131  0.50114158  0.83650055  1
  Fe  Fe42  1  0.50136537  0.83774054  0.50363843  1
  Fe  Fe43  1  0.33703574  0.67015787  0.66880054  1
  Fe  Fe44  1  0.50267762  0.83861612  0.83708542  1
  Fe  Fe45  1  0.83776989  0.17249840  0.50255638  1
  Fe  Fe46  1  0.66979397  0.00548785  0.67198763  1
  Fe  Fe47  1  0.83838784  0.17163995  0.83868428  1
  Fe  Fe48  1  0.83742897  0.50129298  0.50370856  1
  Fe  Fe49  1  0.66988802  0.33708013  0.66984590  1
  Fe  Fe50  1  0.83734557  0.50201616  0.83714105  1
  Cr  Cr51  1  0.83563041  0.83726080  0.50183638  1
  Ni  Ni52  1  0.67047542  0.67090775  0.67021899  1
  Fe  Fe53  1  0.83860519  0.83864045  0.83631252  1
" 