3628,Ni36Fe35Cr27_9,-228.183221367065, 185.740096853077,Ni36Fe35Cr27,"# generated using pymatgen
 data_Cr16(FeNi)19
_symmetry_space_group_name_H-M   'P 1'
_cell_length_a   7.46510202
_cell_length_b   7.46510202
_cell_length_c   10.55724852
_cell_angle_alpha   90.00000000
_cell_angle_beta   90.00000000
_cell_angle_gamma   90.00000000
_symmetry_Int_Tables_number   1
_chemical_formula_structural   Cr16(FeNi)19
_chemical_formula_sum   'Cr16 Fe19 Ni19'
_cell_volume   588.33168687
_cell_formula_units_Z   1
loop_
 _symmetry_equiv_pos_site_id
 _symmetry_equiv_pos_as_xyz
  1  'x, y, z'
loop_
 _atom_site_type_symbol
 _atom_site_label
 _atom_site_symmetry_multiplicity
 _atom_site_fract_x
 _atom_site_fract_y
 _atom_site_fract_z
 _atom_site_occupancy
  Ni  Ni0  1  0.00219353  0.00067728  1.00003197  1
  Ni  Ni1  1  0.16902603  0.16532417  0.16369884  1
  Cr  Cr2  1  0.00023815  0.99929184  0.33467836  1
  Fe  Fe3  1  0.00051214  0.33250455  0.99972405  1
  Fe  Fe4  1  0.16579444  0.50070696  0.16731777  1
  Cr  Cr5  1  0.00022817  0.33384136  0.33428593  1
  Ni  Ni6  1  0.99854829  0.66745066  0.00220783  1
  Fe  Fe7  1  0.16653492  0.83413036  0.16592223  1
  Fe  Fe8  1  0.00219056  0.66688368  0.33419525  1
  Ni  Ni9  1  0.33007929  0.00115340  0.00168500  1
  Ni  Ni10  1  0.49825904  0.16666744  0.16750511  1
  Cr  Cr11  1  0.33233925  0.99892202  0.33361662  1
  Cr  Cr12  1  0.33166697  0.33211895  0.00061809  1
  Fe  Fe13  1  0.49954682  0.49902266  0.16786635  1
  Cr  Cr14  1  0.33350043  0.33543722  0.33382472  1
  Cr  Cr15  1  0.33467284  0.66717127  0.00112878  1
  Fe  Fe16  1  0.49785490  0.83491929  0.16685752  1
  Ni  Ni17  1  0.33266513  0.66544718  0.33294083  1
  Cr  Cr18  1  0.66792263  0.99848368  0.99918137  1
  Cr  Cr19  1  0.83258798  0.16739151  0.16610674  1
  Cr  Cr20  1  0.66781457  0.00037978  0.33437491  1
  Cr  Cr21  1  0.66796952  0.33529550  0.00036672  1
  Fe  Fe22  1  0.83508397  0.50065486  0.16656744  1
  Fe  Fe23  1  0.66557004  0.33426914  0.33439890  1
  Cr  Cr24  1  0.66775091  0.66659568  0.99714582  1
  Fe  Fe25  1  0.83602411  0.83263083  0.16553649  1
  Cr  Cr26  1  0.66627211  0.66603864  0.33334032  1
  Fe  Fe27  1  0.16540361  0.16653703  0.50306449  1
  Ni  Ni28  1  0.99880317  0.00215022  0.66614800  1
  Ni  Ni29  1  0.16518372  0.16519873  0.83347424  1
  Ni  Ni30  1  0.16611221  0.50237756  0.49954176  1
  Fe  Fe31  1  0.99768791  0.33273841  0.66618488  1
  Cr  Cr32  1  0.16460015  0.49888913  0.83324591  1
  Ni  Ni33  1  0.16583227  0.83183358  0.49910318  1
  Fe  Fe34  1  0.99530372  0.66754614  0.66528112  1
  Cr  Cr35  1  0.16490239  0.83620152  0.83438433  1
  Fe  Fe36  1  0.50148301  0.16740920  0.50217285  1
  Fe  Fe37  1  0.33389233  0.00138927  0.66572718  1
  Cr  Cr38  1  0.49959117  0.16613812  0.83243664  1
  Fe  Fe39  1  0.50103196  0.50096259  0.50159059  1
  Fe  Fe40  1  0.33427371  0.33188532  0.66579173  1
  Ni  Ni41  1  0.50336031  0.50015968  0.83118780  1
  Fe  Fe42  1  0.50040941  0.83198694  0.50160610  1
  Cr  Cr43  1  0.33562990  0.66556298  0.66616734  1
  Fe  Fe44  1  0.50248112  0.83353435  0.83183201  1
  Fe  Fe45  1  0.83357284  0.16716365  0.50327613  1
  Ni  Ni46  1  0.66975661  0.99939419  0.66618332  1
  Ni  Ni47  1  0.83534646  0.16638902  0.83207926  1
  Ni  Ni48  1  0.83340388  0.50087410  0.50075657  1
  Ni  Ni49  1  0.66796044  0.33477009  0.66527069  1
  Ni  Ni50  1  0.83215341  0.50092804  0.83280364  1
  Ni  Ni51  1  0.83481485  0.83227101  0.50170571  1
  Ni  Ni52  1  0.66757418  0.66622449  0.66836529  1
  Ni  Ni53  1  0.83362536  0.83311156  0.83253214  1
" 