5588,Ni36Fe41Cr21_8,-230.96080689394, 194.173799254222,Ni36Fe41Cr21,"# generated using pymatgen
 data_Cr13Fe22Ni19
_symmetry_space_group_name_H-M   'P 1'
_cell_length_a   7.45445385
_cell_length_b   7.45445385
_cell_length_c   10.54218974
_cell_angle_alpha   90.00000000
_cell_angle_beta   90.00000000
_cell_angle_gamma   90.00000000
_symmetry_Int_Tables_number   1
_chemical_formula_structural   Cr13Fe22Ni19
_chemical_formula_sum   'Cr13 Fe22 Ni19'
_cell_volume   585.81770057
_cell_formula_units_Z   1
loop_
 _symmetry_equiv_pos_site_id
 _symmetry_equiv_pos_as_xyz
  1  'x, y, z'
loop_
 _atom_site_type_symbol
 _atom_site_label
 _atom_site_symmetry_multiplicity
 _atom_site_fract_x
 _atom_site_fract_y
 _atom_site_fract_z
 _atom_site_occupancy
  Cr  Cr0  1  1.00012225  1.00068913  0.00353596  1
  Ni  Ni1  1  0.16838686  0.17140194  0.16598454  1
  Cr  Cr2  1  1.00083730  0.99905796  0.33184612  1
  Ni  Ni3  1  0.00163310  0.33315551  0.00116263  1
  Fe  Fe4  1  0.16805106  0.49880432  0.16695951  1
  Ni  Ni5  1  0.00182591  0.33558989  0.33288284  1
  Cr  Cr6  1  0.99951785  0.66806903  0.00240942  1
  Fe  Fe7  1  0.17005659  0.83292413  0.16725739  1
  Fe  Fe8  1  0.99963481  0.66541995  0.33428065  1
  Fe  Fe9  1  0.33509169  1.00041866  0.00203606  1
  Fe  Fe10  1  0.50040093  0.16926269  0.16727723  1
  Cr  Cr11  1  0.33420478  0.00103587  0.33554879  1
  Ni  Ni12  1  0.33547006  0.33399180  0.00169463  1
  Fe  Fe13  1  0.50203326  0.50083921  0.16638569  1
  Ni  Ni14  1  0.33430000  0.33566211  0.33394049  1
  Ni  Ni15  1  0.33705143  0.66652017  0.00150244  1
  Ni  Ni16  1  0.50225161  0.83327609  0.16489248  1
  Cr  Cr17  1  0.33653568  0.66580526  0.33379159  1
  Fe  Fe18  1  0.66503294  0.99958320  0.00085187  1
  Fe  Fe19  1  0.83341812  0.17089339  0.16698194  1
  Cr  Cr20  1  0.66739047  0.99822480  0.33409046  1
  Fe  Fe21  1  0.66706927  0.33701646  0.00160416  1
  Ni  Ni22  1  0.83388491  0.49988338  0.16717883  1
  Fe  Fe23  1  0.66584563  0.33675618  0.33354950  1
  Ni  Ni24  1  0.66588095  0.66768554  1.00026207  1
  Fe  Fe25  1  0.83084147  0.83108789  0.16737582  1
  Ni  Ni26  1  0.66786249  0.66657921  0.33433086  1
  Cr  Cr27  1  0.16841615  0.16967281  0.50217778  1
  Cr  Cr28  1  1.00069246  0.99934512  0.66728696  1
  Fe  Fe29  1  0.16943326  0.16635601  0.83610094  1
  Ni  Ni30  1  0.16579739  0.50245337  0.49962466  1
  Fe  Fe31  1  0.99954488  0.33832535  0.66738875  1
  Cr  Cr32  1  0.16782819  0.50082351  0.83548161  1
  Ni  Ni33  1  0.16823083  0.82934679  0.50255331  1
  Fe  Fe34  1  0.99924083  0.66679382  0.66689816  1
  Fe  Fe35  1  0.16920678  0.83400178  0.83354703  1
  Ni  Ni36  1  0.50153901  0.16668161  0.50031094  1
  Fe  Fe37  1  0.33807059  0.99810584  0.66711531  1
  Fe  Fe38  1  0.49968685  0.16569978  0.83455500  1
  Fe  Fe39  1  0.50086303  0.50301271  0.50019040  1
  Cr  Cr40  1  0.33506902  0.33598578  0.66633369  1
  Fe  Fe41  1  0.50215097  0.50344557  0.83550197  1
  Ni  Ni42  1  0.50258680  0.83313132  0.50385927  1
  Ni  Ni43  1  0.33547040  0.66754844  0.66697213  1
  Fe  Fe44  1  0.50107705  0.83289290  0.83415396  1
  Cr  Cr45  1  0.83247702  0.16870072  0.49943428  1
  Ni  Ni46  1  0.66746916  0.99865327  0.66733771  1
  Cr  Cr47  1  0.83327161  0.16853088  0.83538039  1
  Fe  Fe48  1  0.83465366  0.50379251  0.49892496  1
  Cr  Cr49  1  0.66630391  0.33708373  0.66635188  1
  Fe  Fe50  1  0.83219537  0.50334964  0.83563731  1
  Ni  Ni51  1  0.83223543  0.83032091  0.50073676  1
  Ni  Ni52  1  0.66725442  0.66874634  0.66779219  1
  Ni  Ni53  1  0.83021804  0.83318027  0.83435319  1
" 