4698,Ni36Fe3Cr60_10,-213.995649566936, 141.707074784723,Ni36Fe3Cr60,"# generated using pymatgen
 data_Cr34FeNi19
_symmetry_space_group_name_H-M   'P 1'
_cell_length_a   7.54801113
_cell_length_b   7.54801113
_cell_length_c   10.67449972
_cell_angle_alpha   90.00000000
_cell_angle_beta   90.00000000
_cell_angle_gamma   90.00000000
_symmetry_Int_Tables_number   1
_chemical_formula_structural   Cr34FeNi19
_chemical_formula_sum   'Cr34 Fe1 Ni19'
_cell_volume   608.15263716
_cell_formula_units_Z   1
loop_
 _symmetry_equiv_pos_site_id
 _symmetry_equiv_pos_as_xyz
  1  'x, y, z'
loop_
 _atom_site_type_symbol
 _atom_site_label
 _atom_site_symmetry_multiplicity
 _atom_site_fract_x
 _atom_site_fract_y
 _atom_site_fract_z
 _atom_site_occupancy
  Ni  Ni0  1  -0.00357914  0.99251910  -0.00216389  1
  Ni  Ni1  1  0.16244460  0.15512162  0.16423782  1
  Ni  Ni2  1  -0.00357177  0.99213118  0.32826946  1
  Cr  Cr3  1  -0.00449188  0.32734241  -0.00218864  1
  Cr  Cr4  1  0.16125114  0.49514217  0.16201232  1
  Cr  Cr5  1  -0.00433904  0.32572737  0.32506830  1
  Ni  Ni6  1  -0.00497742  0.66407752  -0.00214179  1
  Ni  Ni7  1  0.16003732  0.83181774  0.16205922  1
  Cr  Cr8  1  0.99462047  0.66294769  0.33027631  1
  Cr  Cr9  1  0.32953781  0.99441348  -0.00146512  1
  Cr  Cr10  1  0.49556572  0.15971951  0.16539827  1
  Ni  Ni11  1  0.32768600  -0.00420539  0.32725263  1
  Cr  Cr12  1  0.32760984  0.32626734  -0.00283693  1
  Cr  Cr13  1  0.49580760  0.49434945  0.16634369  1
  Ni  Ni14  1  0.33044061  0.32378787  0.32753151  1
  Cr  Cr15  1  0.32789635  0.66370724  -0.00186288  1
  Fe  Fe16  1  0.49528867  0.83059097  0.16473566  1
  Cr  Cr17  1  0.32765450  0.66558850  0.32639011  1
  Ni  Ni18  1  0.66230200  0.99326961  -0.00372981  1
  Cr  Cr19  1  0.82774386  0.15836674  0.16221192  1
  Ni  Ni20  1  0.65962910  0.99421902  0.32909962  1
  Cr  Cr21  1  0.66080113  0.32747268  0.99420989  1
  Ni  Ni22  1  0.82593174  0.49662115  0.16299886  1
  Ni  Ni23  1  0.65919818  0.32713840  0.32819738  1
  Cr  Cr24  1  0.65999227  0.66218873  -0.00241386  1
  Cr  Cr25  1  0.82796574  0.82898635  0.16204233  1
  Ni  Ni26  1  0.66178678  0.66340716  0.32697303  1
  Cr  Cr27  1  0.16511844  0.16003573  0.49175381  1
  Cr  Cr28  1  -0.00489226  0.99409299  0.65670178  1
  Cr  Cr29  1  0.16193532  0.15897490  0.82811472  1
  Cr  Cr30  1  0.16590389  0.49511828  0.49678322  1
  Cr  Cr31  1  0.99204893  0.32641334  0.66069195  1
  Cr  Cr32  1  0.16323455  0.49665545  0.82544183  1
  Ni  Ni33  1  0.16229981  0.83135898  0.49419501  1
  Cr  Cr34  1  0.99395239  0.66338489  0.65639607  1
  Cr  Cr35  1  0.16095881  0.82817173  0.82732303  1
  Ni  Ni36  1  0.49385091  0.16045092  0.49336244  1
  Ni  Ni37  1  0.32857527  0.99462011  0.65840202  1
  Cr  Cr38  1  0.49461167  0.16029146  0.82531724  1
  Cr  Cr39  1  0.49368276  0.49198782  0.49361727  1
  Ni  Ni40  1  0.33056639  0.32482287  0.65968290  1
  Cr  Cr41  1  0.49196015  0.49485079  0.82348397  1
  Cr  Cr42  1  0.49403511  0.83019351  0.49186556  1
  Ni  Ni43  1  0.32785526  0.66477811  0.65942394  1
  Cr  Cr44  1  0.49371235  0.82915706  0.82947006  1
  Cr  Cr45  1  0.82379762  0.15920860  0.49072964  1
  Cr  Cr46  1  0.66022674  -0.00515128  0.66009707  1
  Cr  Cr47  1  0.82731372  0.15821593  0.83062733  1
  Cr  Cr48  1  0.82449805  0.49463171  0.49098107  1
  Ni  Ni49  1  0.65712789  0.32636241  0.65957961  1
  Cr  Cr50  1  0.82814801  0.49589920  0.82929972  1
  Ni  Ni51  1  0.82862695  0.83036639  0.48992880  1
  Cr  Cr52  1  0.66124002  0.66307554  0.65898729  1
  Cr  Cr53  1  0.82976430  0.82970222  0.83162251  1
" 