7851,Ni36Fe2Cr60_0,-214.039262009536, 143.251152081388,Ni36Fe2Cr60,"# generated using pymatgen
 data_Cr34FeNi19
_symmetry_space_group_name_H-M   'P 1'
_cell_length_a   7.54496890
_cell_length_b   7.54496890
_cell_length_c   10.67019735
_cell_angle_alpha   90.00000000
_cell_angle_beta   90.00000000
_cell_angle_gamma   90.00000000
_symmetry_Int_Tables_number   1
_chemical_formula_structural   Cr34FeNi19
_chemical_formula_sum   'Cr34 Fe1 Ni19'
_cell_volume   607.41758458
_cell_formula_units_Z   1
loop_
 _symmetry_equiv_pos_site_id
 _symmetry_equiv_pos_as_xyz
  1  'x, y, z'
loop_
 _atom_site_type_symbol
 _atom_site_label
 _atom_site_symmetry_multiplicity
 _atom_site_fract_x
 _atom_site_fract_y
 _atom_site_fract_z
 _atom_site_occupancy
  Ni  Ni0  1  -0.00479369  0.99280301  0.99480638  1
  Cr  Cr1  1  0.16143371  0.16144906  0.15842153  1
  Cr  Cr2  1  -0.00436909  0.99373890  0.32788330  1
  Cr  Cr3  1  0.99305739  0.32728402  0.99048394  1
  Cr  Cr4  1  0.16229112  0.49259668  0.16008553  1
  Cr  Cr5  1  0.99440843  0.32561010  0.33267750  1
  Cr  Cr6  1  -0.00393184  0.66270471  0.99439183  1
  Ni  Ni7  1  0.16125297  0.82786603  0.15742283  1
  Cr  Cr8  1  -0.00398761  0.66411076  0.32796203  1
  Cr  Cr9  1  0.32769343  -0.00507188  0.99276486  1
  Cr  Cr10  1  0.49498523  0.16323690  0.16127032  1
  Cr  Cr11  1  0.32685313  -0.00418380  0.33209094  1
  Ni  Ni12  1  0.33089903  0.33136630  0.99280820  1
  Fe  Fe13  1  0.49480783  0.49465001  0.15975395  1
  Cr  Cr14  1  0.33054291  0.32694586  0.32925724  1
  Ni  Ni15  1  0.32800752  0.65950197  0.99458850  1
  Cr  Cr16  1  0.49584496  0.82875309  0.16048029  1
  Cr  Cr17  1  0.32653847  0.66143723  0.32435026  1
  Cr  Cr18  1  0.66391850  -0.00280127  0.99194551  1
  Cr  Cr19  1  0.82816179  0.16065299  0.16029466  1
  Cr  Cr20  1  0.66247675  -0.00263846  0.33074638  1
  Cr  Cr21  1  0.65919841  0.32817743  0.99112262  1
  Cr  Cr22  1  0.82701051  0.49274719  0.16360518  1
  Ni  Ni23  1  0.66024663  0.32676730  0.32965609  1
  Cr  Cr24  1  0.66075826  0.65904733  0.99255076  1
  Ni  Ni25  1  0.83024679  0.82789902  0.16047545  1
  Cr  Cr26  1  0.66218429  0.66138564  0.32818039  1
  Ni  Ni27  1  0.16229633  0.16209095  0.49873860  1
  Cr  Cr28  1  -0.00484615  -0.00388852  0.66141422  1
  Cr  Cr29  1  0.16160199  0.16115348  0.82816412  1
  Cr  Cr30  1  0.16130532  0.49057452  0.49795810  1
  Ni  Ni31  1  0.99403490  0.32457963  0.66142083  1
  Cr  Cr32  1  0.16109588  0.49279929  0.82598976  1
  Cr  Cr33  1  0.16316675  0.82904099  0.49791574  1
  Cr  Cr34  1  0.99299024  0.66086838  0.66233609  1
  Ni  Ni35  1  0.16296943  0.82884587  0.83021788  1
  Ni  Ni36  1  0.49427364  0.16381763  0.49680758  1
  Ni  Ni37  1  0.32767501  0.00022519  0.66181182  1
  Ni  Ni38  1  0.49292954  0.16495082  0.82704092  1
  Cr  Cr39  1  0.49537789  0.49500209  0.49476126  1
  Ni  Ni40  1  0.32902994  0.32455225  0.66193519  1
  Ni  Ni41  1  0.49347957  0.49339533  0.82901408  1
  Cr  Cr42  1  0.49681971  0.82980544  0.49950072  1
  Cr  Cr43  1  0.32896732  0.65984642  0.66428973  1
  Cr  Cr44  1  0.49328632  0.82925735  0.82440517  1
  Ni  Ni45  1  0.82771577  0.16221603  0.49486507  1
  Cr  Cr46  1  0.66107681  -0.00131746  0.66106143  1
  Ni  Ni47  1  0.82834733  0.16327637  0.82849320  1
  Cr  Cr48  1  0.82771514  0.49487994  0.49688156  1
  Cr  Cr49  1  0.66050734  0.32789759  0.66471774  1
  Ni  Ni50  1  0.82586453  0.49254752  0.82479888  1
  Ni  Ni51  1  0.82729387  0.83023699  0.49552430  1
  Ni  Ni52  1  0.66218887  0.65972223  0.66326405  1
  Cr  Cr53  1  0.82825614  0.82874282  0.82775078  1
" 