2309,Ni36Fe3Cr60_0,-213.953021567945, 138.44264328084,Ni36Fe3Cr60,"# generated using pymatgen
 data_Cr34FeNi19
_symmetry_space_group_name_H-M   'P 1'
_cell_length_a   7.54972541
_cell_length_b   7.54972541
_cell_length_c   10.67692407
_cell_angle_alpha   90.00000000
_cell_angle_beta   90.00000000
_cell_angle_gamma   90.00000000
_symmetry_Int_Tables_number   1
_chemical_formula_structural   Cr34FeNi19
_chemical_formula_sum   'Cr34 Fe1 Ni19'
_cell_volume   608.56709610
_cell_formula_units_Z   1
loop_
 _symmetry_equiv_pos_site_id
 _symmetry_equiv_pos_as_xyz
  1  'x, y, z'
loop_
 _atom_site_type_symbol
 _atom_site_label
 _atom_site_symmetry_multiplicity
 _atom_site_fract_x
 _atom_site_fract_y
 _atom_site_fract_z
 _atom_site_occupancy
  Cr  Cr0  1  -0.00258699  0.99231066  -0.00291817  1
  Ni  Ni1  1  0.16085412  0.16058515  0.15937751  1
  Ni  Ni2  1  -0.00524894  0.98944479  0.32505447  1
  Ni  Ni3  1  -0.00125588  0.32924782  -0.00126343  1
  Ni  Ni4  1  0.15889869  0.49565834  0.16129862  1
  Cr  Cr5  1  -0.00489981  0.32996164  0.32661145  1
  Cr  Cr6  1  -0.00524415  0.66170713  -0.00469802  1
  Ni  Ni7  1  0.16041774  0.82691397  0.16256570  1
  Ni  Ni8  1  -0.00453241  0.66220585  0.32776161  1
  Ni  Ni9  1  0.32655785  -0.00440944  -0.00440168  1
  Cr  Cr10  1  0.49282113  0.16130764  0.16056931  1
  Cr  Cr11  1  0.32510992  0.99348434  0.32434025  1
  Ni  Ni12  1  0.32491854  0.32499448  -0.00431715  1
  Cr  Cr13  1  0.49070376  0.49593706  0.16117329  1
  Cr  Cr14  1  0.32400192  0.32996348  0.32864779  1
  Cr  Cr15  1  0.32555914  0.66425211  -0.00435309  1
  Ni  Ni16  1  0.49093430  0.82802999  0.16153394  1
  Ni  Ni17  1  0.32257846  0.66187201  0.32503282  1
  Cr  Cr18  1  0.66006206  0.99193403  -0.00446329  1
  Cr  Cr19  1  0.83216181  0.16065928  0.16128532  1
  Cr  Cr20  1  0.66347007  0.99143702  0.32671629  1
  Cr  Cr21  1  0.66338908  0.32933020  -0.00403096  1
  Ni  Ni22  1  0.83437442  0.49735939  0.16112295  1
  Cr  Cr23  1  0.66433380  0.33096100  0.32866614  1
  Cr  Cr24  1  0.66344620  0.66269769  0.00052608  1
  Ni  Ni25  1  0.83184345  0.82566251  0.16422522  1
  Cr  Cr26  1  0.66384052  0.66137834  0.32321061  1
  Cr  Cr27  1  0.15935203  0.15982904  0.49037381  1
  Cr  Cr28  1  -0.00378133  0.99140745  0.66059394  1
  Cr  Cr29  1  0.16066888  0.16145791  0.83282118  1
  Ni  Ni30  1  0.15606834  0.49930507  0.49246702  1
  Cr  Cr31  1  -0.00544063  0.33094373  0.65890724  1
  Cr  Cr32  1  0.15979266  0.49647622  0.82859403  1
  Cr  Cr33  1  0.15942241  0.82562956  0.49264492  1
  Ni  Ni34  1  0.99320990  0.66235871  0.65905670  1
  Ni  Ni35  1  0.16108459  0.82833449  0.82801114  1
  Cr  Cr36  1  0.49649955  0.16086082  0.49590719  1
  Cr  Cr37  1  0.32764112  -0.00484386  0.66450080  1
  Ni  Ni38  1  0.49395828  0.16118663  0.82830728  1
  Cr  Cr39  1  0.49227695  0.49649906  0.49287995  1
  Cr  Cr40  1  0.32713006  0.32735452  0.65923646  1
  Cr  Cr41  1  0.49386569  0.49215064  0.82975691  1
  Cr  Cr42  1  0.49465245  0.82694087  0.49188860  1
  Cr  Cr43  1  0.32309950  0.66162134  0.66084033  1
  Cr  Cr44  1  0.49335599  0.82842174  0.82904888  1
  Cr  Cr45  1  0.82844791  0.15785258  0.49464349  1
  Fe  Fe46  1  0.66199001  0.99410672  0.66116307  1
  Cr  Cr47  1  0.82747635  0.16210414  0.82795606  1
  Ni  Ni48  1  0.83049015  0.49774506  0.49550176  1
  Ni  Ni49  1  0.66193677  0.32702400  0.66100306  1
  Cr  Cr50  1  0.82973686  0.49384700  0.82924617  1
  Ni  Ni51  1  0.83071633  0.82397858  0.49333160  1
  Cr  Cr52  1  0.66337187  0.65963958  0.66082295  1
  Cr  Cr53  1  0.83078877  0.82720217  0.82554221  1
" 