936,Ni36Fe60Cr2_12,-236.214405346946, 203.520710536111,Ni36Fe60Cr2,"# generated using pymatgen
 data_Cr3Fe32Ni19
_symmetry_space_group_name_H-M   'P 1'
_cell_length_a   7.41069200
_cell_length_b   7.41069200
_cell_length_c   10.48030113
_cell_angle_alpha   90.00000000
_cell_angle_beta   90.00000000
_cell_angle_gamma   90.00000000
_symmetry_Int_Tables_number   1
_chemical_formula_structural   Cr3Fe32Ni19
_chemical_formula_sum   'Cr3 Fe32 Ni19'
_cell_volume   575.56090722
_cell_formula_units_Z   1
loop_
 _symmetry_equiv_pos_site_id
 _symmetry_equiv_pos_as_xyz
  1  'x, y, z'
loop_
 _atom_site_type_symbol
 _atom_site_label
 _atom_site_symmetry_multiplicity
 _atom_site_fract_x
 _atom_site_fract_y
 _atom_site_fract_z
 _atom_site_occupancy
  Cr  Cr0  1  0.00487230  1.00182267  1.00233316  1
  Ni  Ni1  1  0.17105126  0.17120207  0.17138331  1
  Fe  Fe2  1  0.00415485  0.00464934  0.33632116  1
  Fe  Fe3  1  0.00520520  0.33670910  0.00493030  1
  Ni  Ni4  1  0.17092586  0.50309943  0.17058135  1
  Fe  Fe5  1  0.00399535  0.33661996  0.33707567  1
  Fe  Fe6  1  0.00598188  0.66935725  0.00459143  1
  Ni  Ni7  1  0.17116653  0.83709052  0.17271872  1
  Fe  Fe8  1  0.00416409  0.67016292  0.33715248  1
  Fe  Fe9  1  0.33837966  0.00459173  1.00330833  1
  Fe  Fe10  1  0.50103039  0.17170870  0.17106164  1
  Fe  Fe11  1  0.33722791  0.00593844  0.33714170  1
  Ni  Ni12  1  0.33819154  0.33837550  1.00254163  1
  Ni  Ni13  1  0.50396723  0.50341705  0.17202169  1
  Ni  Ni14  1  0.33691032  0.33804995  0.33791980  1
  Fe  Fe15  1  0.33710976  0.66951943  0.00404139  1
  Fe  Fe16  1  0.50204327  0.83700981  0.17082504  1
  Fe  Fe17  1  0.33690673  0.66928433  0.33580046  1
  Fe  Fe18  1  0.66877323  0.00527302  0.00384910  1
  Fe  Fe19  1  0.83723061  0.17216803  0.17032421  1
  Ni  Ni20  1  0.67247561  1.00376984  0.33561877  1
  Ni  Ni21  1  0.66766473  0.33754462  0.00550346  1
  Fe  Fe22  1  0.83821124  0.50362618  0.17002454  1
  Fe  Fe23  1  0.66961282  0.33631627  0.33719513  1
  Fe  Fe24  1  0.66812468  0.67079553  1.00344346  1
  Fe  Fe25  1  0.83736414  0.83543294  0.17101508  1
  Fe  Fe26  1  0.67063761  0.66917181  0.33694584  1
  Fe  Fe27  1  0.17218202  0.16994035  0.50307933  1
  Fe  Fe28  1  1.00265138  0.00389646  0.67138856  1
  Fe  Fe29  1  0.17180824  0.17137153  0.83692134  1
  Fe  Fe30  1  0.17151543  0.50326174  0.50344554  1
  Fe  Fe31  1  0.00424259  0.33629371  0.66976956  1
  Ni  Ni32  1  0.17121553  0.50393310  0.83742812  1
  Fe  Fe33  1  0.16960175  0.83843852  0.50413592  1
  Fe  Fe34  1  0.00457747  0.67109632  0.67001552  1
  Ni  Ni35  1  0.17129260  0.83517375  0.83563370  1
  Ni  Ni36  1  0.50423306  0.17064849  0.50278988  1
  Ni  Ni37  1  0.33478028  0.00497120  0.67179784  1
  Ni  Ni38  1  0.50546286  0.17057530  0.83677787  1
  Fe  Fe39  1  0.50400348  0.50215461  0.50375519  1
  Fe  Fe40  1  0.33867952  0.33684642  0.67041921  1
  Ni  Ni41  1  0.50301378  0.50326267  0.83529710  1
  Cr  Cr42  1  0.50313078  0.83843550  0.50403097  1
  Fe  Fe43  1  0.33788309  0.66977366  0.67192602  1
  Ni  Ni44  1  0.50382858  0.83795848  0.83748406  1
  Fe  Fe45  1  0.83594426  0.16999201  0.50415464  1
  Fe  Fe46  1  0.66919391  0.00518436  0.67069090  1
  Ni  Ni47  1  0.83509390  0.17079082  0.83591765  1
  Fe  Fe48  1  0.83601683  0.50365699  0.50443721  1
  Ni  Ni49  1  0.66932645  0.33759433  0.66886563  1
  Cr  Cr50  1  0.83743463  0.50201525  0.83908871  1
  Fe  Fe51  1  0.83772026  0.83778375  0.50400106  1
  Ni  Ni52  1  0.67105346  0.66965880  0.67091879  1
  Ni  Ni53  1  0.83606021  0.83791060  0.83548601  1
" 