5295,Ni36Fe3Cr60_7,-213.971476624717, 137.808437450613,Ni36Fe3Cr60,"# generated using pymatgen
 data_Cr34FeNi19
_symmetry_space_group_name_H-M   'P 1'
_cell_length_a   7.54664565
_cell_length_b   7.54664565
_cell_length_c   10.67256862
_cell_angle_alpha   90.00000000
_cell_angle_beta   90.00000000
_cell_angle_gamma   90.00000000
_symmetry_Int_Tables_number   1
_chemical_formula_structural   Cr34FeNi19
_chemical_formula_sum   'Cr34 Fe1 Ni19'
_cell_volume   607.82263973
_cell_formula_units_Z   1
loop_
 _symmetry_equiv_pos_site_id
 _symmetry_equiv_pos_as_xyz
  1  'x, y, z'
loop_
 _atom_site_type_symbol
 _atom_site_label
 _atom_site_symmetry_multiplicity
 _atom_site_fract_x
 _atom_site_fract_y
 _atom_site_fract_z
 _atom_site_occupancy
  Cr  Cr0  1  0.99355766  0.99357930  -0.00394752  1
  Cr  Cr1  1  0.16406784  0.16121209  0.16067083  1
  Cr  Cr2  1  0.99355549  0.99376282  0.32871315  1
  Cr  Cr3  1  -0.00385155  0.33076677  0.99187336  1
  Ni  Ni4  1  0.16105414  0.49715894  0.16152316  1
  Cr  Cr5  1  -0.00287564  0.32878855  0.32991402  1
  Ni  Ni6  1  0.99467521  0.65976953  -0.00490488  1
  Cr  Cr7  1  0.15920739  0.82551995  0.16044045  1
  Ni  Ni8  1  0.99330173  0.66029624  0.32683917  1
  Ni  Ni9  1  0.33217221  -0.00306258  0.99192192  1
  Ni  Ni10  1  0.49713902  0.16355848  0.15891804  1
  Cr  Cr11  1  0.32786286  -0.00315167  0.32815899  1
  Cr  Cr12  1  0.32869954  0.32731441  -0.00392650  1
  Ni  Ni13  1  0.49618802  0.49170757  0.16341637  1
  Cr  Cr14  1  0.32896442  0.33034892  0.32776282  1
  Cr  Cr15  1  0.32695624  0.66026969  -0.00488469  1
  Cr  Cr16  1  0.49541260  0.82914464  0.16004654  1
  Cr  Cr17  1  0.32896804  0.65694991  0.32813673  1
  Ni  Ni18  1  0.65780701  -0.00358678  0.99462555  1
  Cr  Cr19  1  0.82359832  0.16177840  0.16127511  1
  Cr  Cr20  1  0.66266970  0.99375547  0.32596293  1
  Ni  Ni21  1  0.65922385  0.32555849  -0.00490509  1
  Cr  Cr22  1  0.82724473  0.49607685  0.16132168  1
  Ni  Ni23  1  0.65858918  0.33133171  0.32714399  1
  Cr  Cr24  1  0.66237244  0.66280040  0.99404122  1
  Ni  Ni25  1  0.82815253  0.82575528  0.16189755  1
  Ni  Ni26  1  0.66261256  0.65857554  0.32785549  1
  Ni  Ni27  1  0.16231794  0.16246843  0.49652467  1
  Cr  Cr28  1  -0.00332352  -0.00262016  0.65937312  1
  Ni  Ni29  1  0.16480126  0.16165863  0.82701755  1
  Ni  Ni30  1  0.16199905  0.49390045  0.49381407  1
  Cr  Cr31  1  -0.00208339  0.32796186  0.66244078  1
  Ni  Ni32  1  0.15894867  0.49401309  0.82890493  1
  Cr  Cr33  1  0.16188747  0.82842054  0.49484197  1
  Cr  Cr34  1  -0.00503285  0.65889714  0.66299104  1
  Cr  Cr35  1  0.16437399  0.82842596  0.82891415  1
  Cr  Cr36  1  0.49369875  0.16329998  0.49482620  1
  Ni  Ni37  1  0.32800756  -0.00317470  0.66369453  1
  Ni  Ni38  1  0.49337325  0.15809925  0.83026728  1
  Ni  Ni39  1  0.49478022  0.49447781  0.49227598  1
  Cr  Cr40  1  0.32551444  0.32729427  0.66030771  1
  Cr  Cr41  1  0.49582215  0.49361260  0.82807910  1
  Cr  Cr42  1  0.49364444  0.82622577  0.49663656  1
  Cr  Cr43  1  0.32939680  0.66059081  0.66096132  1
  Ni  Ni44  1  0.49397049  0.83265090  0.82832648  1
  Cr  Cr45  1  0.82850351  0.16319602  0.49366850  1
  Cr  Cr46  1  0.65912019  0.99333078  0.66311801  1
  Cr  Cr47  1  0.82588507  0.16395751  0.82921847  1
  Cr  Cr48  1  0.82633414  0.49471617  0.49363933  1
  Cr  Cr49  1  0.66078761  0.32897073  0.66207828  1
  Fe  Fe50  1  0.82930718  0.49425656  0.82995459  1
  Cr  Cr51  1  0.82868120  0.82622669  0.49216506  1
  Cr  Cr52  1  0.65983498  0.66189391  0.66174533  1
  Cr  Cr53  1  0.82734213  0.82648830  0.82954282  1
" 