2225,Ni36Fe2Cr60_3,-213.943964349637, 143.197533705183,Ni36Fe2Cr60,"# generated using pymatgen
 data_Cr34FeNi19
_symmetry_space_group_name_H-M   'P 1'
_cell_length_a   7.54961880
_cell_length_b   7.54961880
_cell_length_c   10.67677330
_cell_angle_alpha   90.00000000
_cell_angle_beta   90.00000000
_cell_angle_gamma   90.00000000
_symmetry_Int_Tables_number   1
_chemical_formula_structural   Cr34FeNi19
_chemical_formula_sum   'Cr34 Fe1 Ni19'
_cell_volume   608.54131435
_cell_formula_units_Z   1
loop_
 _symmetry_equiv_pos_site_id
 _symmetry_equiv_pos_as_xyz
  1  'x, y, z'
loop_
 _atom_site_type_symbol
 _atom_site_label
 _atom_site_symmetry_multiplicity
 _atom_site_fract_x
 _atom_site_fract_y
 _atom_site_fract_z
 _atom_site_occupancy
  Cr  Cr0  1  -0.00052268  0.99386824  0.99432041  1
  Ni  Ni1  1  0.16428400  0.15860781  0.16308201  1
  Ni  Ni2  1  -0.00249100  0.99306583  0.32396070  1
  Cr  Cr3  1  -0.00197124  0.32678595  -0.00425288  1
  Ni  Ni4  1  0.16173351  0.49657360  0.16134028  1
  Cr  Cr5  1  -0.00390977  0.33067349  0.32730761  1
  Fe  Fe6  1  -0.00257182  0.66074999  -0.00356681  1
  Ni  Ni7  1  0.16286154  0.82778313  0.16254021  1
  Ni  Ni8  1  -0.00305634  0.66263232  0.32523676  1
  Cr  Cr9  1  0.32738995  0.99427035  -0.00531976  1
  Ni  Ni10  1  0.49158136  0.15840657  0.16345751  1
  Ni  Ni11  1  0.32834182  0.99272542  0.32310742  1
  Cr  Cr12  1  0.32661275  0.32719148  -0.00199040  1
  Ni  Ni13  1  0.49276525  0.49602594  0.16064060  1
  Cr  Cr14  1  0.32620185  0.32836889  0.32266071  1
  Cr  Cr15  1  0.32659334  0.66169534  -0.00287738  1
  Ni  Ni16  1  0.49356882  0.82800420  0.16340381  1
  Cr  Cr17  1  0.32664855  0.66185182  0.32731572  1
  Cr  Cr18  1  0.65844156  0.99416347  -0.00438059  1
  Cr  Cr19  1  0.82910437  0.15859317  0.16413707  1
  Ni  Ni20  1  0.65891132  0.99257258  0.32571480  1
  Cr  Cr21  1  0.65766852  0.32670384  -0.00120592  1
  Cr  Cr22  1  0.82803664  0.49698086  0.15894094  1
  Cr  Cr23  1  0.66035305  0.32752482  0.32573619  1
  Ni  Ni24  1  0.65845086  0.66111160  -0.00153559  1
  Cr  Cr25  1  0.82954147  0.82728258  0.16016664  1
  Cr  Cr26  1  0.66173161  0.66125113  0.32923194  1
  Cr  Cr27  1  0.16133580  0.16230532  0.49262755  1
  Cr  Cr28  1  -0.00391089  -0.00313592  0.66575221  1
  Ni  Ni29  1  0.16222205  0.16295944  0.82790232  1
  Ni  Ni30  1  0.15547795  0.49610238  0.49372103  1
  Ni  Ni31  1  -0.00306710  0.33126092  0.66151674  1
  Ni  Ni32  1  0.15839767  0.49482341  0.82880826  1
  Cr  Cr33  1  0.16288106  0.83005781  0.49055863  1
  Cr  Cr34  1  -0.00444163  0.66039628  0.66129790  1
  Ni  Ni35  1  0.16113010  0.82619799  0.83004700  1
  Cr  Cr36  1  0.49228942  0.15795668  0.49227041  1
  Cr  Cr37  1  0.32765189  0.99284659  0.66454644  1
  Ni  Ni38  1  0.49093665  0.16098996  0.82823254  1
  Cr  Cr39  1  0.49142502  0.49430021  0.49458736  1
  Cr  Cr40  1  0.32382410  0.32864472  0.66375584  1
  Cr  Cr41  1  0.49326106  0.49302387  0.83003599  1
  Ni  Ni42  1  0.49500364  0.83051318  0.49100718  1
  Cr  Cr43  1  0.32557680  0.66185373  0.65886833  1
  Cr  Cr44  1  0.49485091  0.82525067  0.82719345  1
  Cr  Cr45  1  0.83023306  0.16133804  0.49177290  1
  Cr  Cr46  1  0.66089036  0.99367560  0.66105579  1
  Cr  Cr47  1  0.82722966  0.16267964  0.82790694  1
  Ni  Ni48  1  0.83271478  0.49515510  0.49315693  1
  Cr  Cr49  1  0.66466084  0.32751804  0.65947780  1
  Cr  Cr50  1  0.82691504  0.49581993  0.83148802  1
  Cr  Cr51  1  0.83002730  0.82951703  0.49017037  1
  Cr  Cr52  1  0.66224103  0.66179478  0.65640162  1
  Cr  Cr53  1  0.82864151  0.82538756  0.83336581  1
" 