2954,Ni36Fe2Cr60_16,-214.043538105992, 139.194706733835,Ni36Fe2Cr60,"# generated using pymatgen
 data_Cr34FeNi19
_symmetry_space_group_name_H-M   'P 1'
_cell_length_a   7.54238598
_cell_length_b   7.54238598
_cell_length_c   10.66654455
_cell_angle_alpha   90.00000000
_cell_angle_beta   90.00000000
_cell_angle_gamma   90.00000000
_symmetry_Int_Tables_number   1
_chemical_formula_structural   Cr34FeNi19
_chemical_formula_sum   'Cr34 Fe1 Ni19'
_cell_volume   606.79397365
_cell_formula_units_Z   1
loop_
 _symmetry_equiv_pos_site_id
 _symmetry_equiv_pos_as_xyz
  1  'x, y, z'
loop_
 _atom_site_type_symbol
 _atom_site_label
 _atom_site_symmetry_multiplicity
 _atom_site_fract_x
 _atom_site_fract_y
 _atom_site_fract_z
 _atom_site_occupancy
  Fe  Fe0  1  0.99440668  -0.00404125  0.99451951  1
  Cr  Cr1  1  0.15951938  0.16077120  0.16119337  1
  Ni  Ni2  1  0.99261559  0.99423892  0.32832347  1
  Ni  Ni3  1  -0.00336414  0.32739396  0.99153643  1
  Cr  Cr4  1  0.16246427  0.49462101  0.16173657  1
  Cr  Cr5  1  -0.00279578  0.32706620  0.32931578  1
  Cr  Cr6  1  0.99337081  0.66050107  0.99353424  1
  Cr  Cr7  1  0.16030299  0.82992262  0.15871626  1
  Cr  Cr8  1  0.99345219  0.66447357  0.33093728  1
  Ni  Ni9  1  0.32967253  -0.00411313  0.99242146  1
  Cr  Cr10  1  0.49524488  0.16039559  0.16261740  1
  Cr  Cr11  1  0.32858443  -0.00252465  0.32940883  1
  Cr  Cr12  1  0.32736515  0.32566903  0.99397153  1
  Cr  Cr13  1  0.49339836  0.49621555  0.16203064  1
  Ni  Ni14  1  0.32550635  0.32678460  0.33050604  1
  Ni  Ni15  1  0.32857942  0.66265128  0.99384221  1
  Cr  Cr16  1  0.49468868  0.82854201  0.15836667  1
  Cr  Cr17  1  0.32753078  0.66064704  0.32906169  1
  Ni  Ni18  1  0.66044254  0.99323459  -0.00474724  1
  Cr  Cr19  1  0.83011069  0.15900276  0.16114165  1
  Ni  Ni20  1  0.66510395  0.99288583  0.32841157  1
  Cr  Cr21  1  0.66241418  0.32703616  0.99309022  1
  Cr  Cr22  1  0.82880884  0.49438161  0.15898584  1
  Cr  Cr23  1  0.65942007  0.32620763  0.32746569  1
  Ni  Ni24  1  0.66263136  0.66486546  -0.00481961  1
  Ni  Ni25  1  0.82760951  0.83165205  0.16104033  1
  Cr  Cr26  1  0.66370122  0.66547790  0.32674816  1
  Ni  Ni27  1  0.16209564  0.16209400  0.49395486  1
  Cr  Cr28  1  -0.00320486  -0.00409069  0.66076387  1
  Ni  Ni29  1  0.16323354  0.16142162  0.83032744  1
  Ni  Ni30  1  0.16225673  0.49172457  0.49409341  1
  Cr  Cr31  1  -0.00310180  0.32886389  0.66434456  1
  Ni  Ni32  1  0.16037107  0.49335641  0.83051029  1
  Cr  Cr33  1  0.16119890  0.83046836  0.49570062  1
  Cr  Cr34  1  0.99491880  0.66060875  0.66082895  1
  Cr  Cr35  1  0.16386406  0.82972831  0.83014131  1
  Cr  Cr36  1  0.49634882  0.16162239  0.49634833  1
  Ni  Ni37  1  0.32919954  -0.00091213  0.66330992  1
  Ni  Ni38  1  0.49445358  0.15882244  0.82714195  1
  Cr  Cr39  1  0.49437406  0.49346651  0.49389614  1
  Cr  Cr40  1  0.32705128  0.32543152  0.66230597  1
  Cr  Cr41  1  0.49635668  0.49579461  0.82890956  1
  Cr  Cr42  1  0.49620951  0.83032512  0.49784628  1
  Cr  Cr43  1  0.32558749  0.66137339  0.66180138  1
  Cr  Cr44  1  0.49414917  0.83043620  0.82852198  1
  Cr  Cr45  1  0.82851644  0.16000184  0.49492219  1
  Ni  Ni46  1  0.66014807  -0.00284115  0.66145476  1
  Cr  Cr47  1  0.82770920  0.16189919  0.82869908  1
  Cr  Cr48  1  0.82771604  0.49283137  0.49729171  1
  Ni  Ni49  1  0.66127124  0.32558341  0.66476709  1
  Ni  Ni50  1  0.82946853  0.49400302  0.82934513  1
  Ni  Ni51  1  0.82751996  0.83208320  0.49365240  1
  Cr  Cr52  1  0.66451955  0.66260911  0.66175372  1
  Cr  Cr53  1  0.82728984  0.82964213  0.82831712  1
" 