951,Ni36Fe60Cr2_10,-236.131723997924, 209.387115660781,Ni36Fe60Cr2,"# generated using pymatgen
 data_Cr3Fe32Ni19
_symmetry_space_group_name_H-M   'P 1'
_cell_length_a   7.40875120
_cell_length_b   7.40875120
_cell_length_c   10.47755643
_cell_angle_alpha   90.00000000
_cell_angle_beta   90.00000000
_cell_angle_gamma   90.00000000
_symmetry_Int_Tables_number   1
_chemical_formula_structural   Cr3Fe32Ni19
_chemical_formula_sum   'Cr3 Fe32 Ni19'
_cell_volume   575.10882259
_cell_formula_units_Z   1
loop_
 _symmetry_equiv_pos_site_id
 _symmetry_equiv_pos_as_xyz
  1  'x, y, z'
loop_
 _atom_site_type_symbol
 _atom_site_label
 _atom_site_symmetry_multiplicity
 _atom_site_fract_x
 _atom_site_fract_y
 _atom_site_fract_z
 _atom_site_occupancy
  Ni  Ni0  1  1.00368573  0.00677155  0.00412806  1
  Ni  Ni1  1  0.16907738  0.17124051  0.17088695  1
  Ni  Ni2  1  0.00481000  0.00444367  0.33675748  1
  Fe  Fe3  1  0.00418558  0.33800924  1.00347360  1
  Fe  Fe4  1  0.17237548  0.50509853  0.17180892  1
  Fe  Fe5  1  1.00348076  0.33723704  0.33774775  1
  Cr  Cr6  1  0.00476056  0.67298758  0.00468646  1
  Fe  Fe7  1  0.17382269  0.83925778  0.17124474  1
  Ni  Ni8  1  0.00782514  0.67065697  0.33646676  1
  Fe  Fe9  1  0.33670780  1.00179434  0.00403188  1
  Fe  Fe10  1  0.50326223  0.16840565  0.17172053  1
  Fe  Fe11  1  0.33752436  1.00363211  0.33749220  1
  Fe  Fe12  1  0.33565059  0.33647165  0.00615941  1
  Ni  Ni13  1  0.50317082  0.50294634  0.17150098  1
  Fe  Fe14  1  0.33650463  0.33652636  0.33704244  1
  Ni  Ni15  1  0.33882384  0.66975699  1.00362261  1
  Ni  Ni16  1  0.50644656  0.83433476  0.17113410  1
  Ni  Ni17  1  0.33783764  0.66990867  0.33766100  1
  Fe  Fe18  1  0.67130298  1.00034971  0.00549878  1
  Fe  Fe19  1  0.83642581  0.16991329  0.17165390  1
  Ni  Ni20  1  0.67032976  0.00706505  0.33724746  1
  Fe  Fe21  1  0.67128208  0.33657946  0.00632227  1
  Fe  Fe22  1  0.83638530  0.50386787  0.17260227  1
  Ni  Ni23  1  0.66921369  0.33710365  0.33766067  1
  Ni  Ni24  1  0.66934325  0.66864693  0.00564536  1
  Ni  Ni25  1  0.83854661  0.83842226  0.17202968  1
  Fe  Fe26  1  0.67150969  0.67103330  0.33584481  1
  Fe  Fe27  1  0.16956187  0.17002495  0.50346859  1
  Ni  Ni28  1  0.00548906  0.00628271  0.67092190  1
  Fe  Fe29  1  0.17041423  0.17028630  0.83763454  1
  Fe  Fe30  1  0.17033212  0.50372607  0.50368659  1
  Ni  Ni31  1  1.00208845  0.33762848  0.67044002  1
  Fe  Fe32  1  0.16862969  0.50495676  0.83588215  1
  Fe  Fe33  1  0.17445671  0.83799438  0.50396591  1
  Fe  Fe34  1  0.00548899  0.67192091  0.67101821  1
  Ni  Ni35  1  0.16851258  0.83995544  0.83664458  1
  Ni  Ni36  1  0.50111527  0.17302462  0.50305424  1
  Ni  Ni37  1  0.33810208  1.00261426  0.67018059  1
  Fe  Fe38  1  0.50395143  0.16598970  0.83637015  1
  Ni  Ni39  1  0.50275886  0.50321242  0.50386797  1
  Fe  Fe40  1  0.33384866  0.33395509  0.66865228  1
  Cr  Cr41  1  0.50238545  0.49990728  0.83637260  1
  Fe  Fe42  1  0.50390517  0.83789335  0.50237708  1
  Fe  Fe43  1  0.33506589  0.67159708  0.66974624  1
  Fe  Fe44  1  0.50359189  0.83714637  0.83856223  1
  Fe  Fe45  1  0.83606904  0.17305172  0.50302607  1
  Fe  Fe46  1  0.67081816  0.00578190  0.66934269  1
  Fe  Fe47  1  0.83761643  0.17049620  0.83712174  1
  Fe  Fe48  1  0.83607735  0.50259435  0.50324311  1
  Fe  Fe49  1  0.67035567  0.33465675  0.66785821  1
  Fe  Fe50  1  0.83769852  0.50516110  0.83611183  1
  Cr  Cr51  1  0.84070066  0.83841535  0.50302859  1
  Fe  Fe52  1  0.67122316  0.67209870  0.67114196  1
  Ni  Ni53  1  0.83790351  0.83961835  0.83666072  1
" 