5882,Ni36Fe41Cr21_14,-230.757165735795, 195.012092432967,Ni36Fe41Cr21,"# generated using pymatgen
 data_Cr13Fe22Ni19
_symmetry_space_group_name_H-M   'P 1'
_cell_length_a   7.45130033
_cell_length_b   7.45130033
_cell_length_c   10.53772998
_cell_angle_alpha   90.00000000
_cell_angle_beta   90.00000000
_cell_angle_gamma   90.00000000
_symmetry_Int_Tables_number   1
_chemical_formula_structural   Cr13Fe22Ni19
_chemical_formula_sum   'Cr13 Fe22 Ni19'
_cell_volume   585.07454305
_cell_formula_units_Z   1
loop_
 _symmetry_equiv_pos_site_id
 _symmetry_equiv_pos_as_xyz
  1  'x, y, z'
loop_
 _atom_site_type_symbol
 _atom_site_label
 _atom_site_symmetry_multiplicity
 _atom_site_fract_x
 _atom_site_fract_y
 _atom_site_fract_z
 _atom_site_occupancy
  Fe  Fe0  1  0.00322428  0.00243156  0.99899065  1
  Ni  Ni1  1  0.16598932  0.16859202  0.16974732  1
  Ni  Ni2  1  1.00051033  0.99720706  0.33441959  1
  Fe  Fe3  1  0.00687145  0.33586272  1.00060782  1
  Fe  Fe4  1  0.17218246  0.50038471  0.16820206  1
  Fe  Fe5  1  0.00270502  0.33869865  0.33188611  1
  Fe  Fe6  1  0.00212689  0.66596116  1.00102192  1
  Cr  Cr7  1  0.17069346  0.83613869  0.16525056  1
  Fe  Fe8  1  0.00141389  0.66863890  0.33411267  1
  Ni  Ni9  1  0.33168844  0.00163265  1.00070121  1
  Cr  Cr10  1  0.49626039  0.16787946  0.16637353  1
  Fe  Fe11  1  0.33386549  0.99530002  0.33282047  1
  Ni  Ni12  1  0.33487272  0.33740224  0.00140287  1
  Ni  Ni13  1  0.50335048  0.50351967  0.16733038  1
  Fe  Fe14  1  0.33400651  0.33960544  0.33243483  1
  Ni  Ni15  1  0.33272315  0.66377128  1.00001140  1
  Ni  Ni16  1  0.50005115  0.82861968  0.16599937  1
  Ni  Ni17  1  0.33339364  0.66413437  0.33613608  1
  Fe  Fe18  1  0.66553353  0.99989681  1.00093470  1
  Cr  Cr19  1  0.83761994  0.17082828  0.16508745  1
  Cr  Cr20  1  0.67077443  0.99769097  0.33402050  1
  Ni  Ni21  1  0.66782225  0.33596263  0.99902267  1
  Fe  Fe22  1  0.83326174  0.50283324  0.16684522  1
  Ni  Ni23  1  0.66739545  0.33846356  0.33443457  1
  Fe  Fe24  1  0.66528361  0.66578078  0.00251571  1
  Fe  Fe25  1  0.83411512  0.83270357  0.16462718  1
  Fe  Fe26  1  0.66593723  0.66696628  0.33273053  1
  Cr  Cr27  1  0.16607690  0.16633193  0.49489573  1
  Ni  Ni28  1  0.99954732  0.99840313  0.67049065  1
  Ni  Ni29  1  0.16568007  0.16658278  0.83718727  1
  Ni  Ni30  1  0.16701117  0.50476435  0.50063599  1
  Fe  Fe31  1  0.00597350  0.33309177  0.67038359  1
  Fe  Fe32  1  0.16926558  0.50368027  0.83553303  1
  Ni  Ni33  1  0.16712785  0.83194038  0.50190717  1
  Fe  Fe34  1  0.00420356  0.67093513  0.66846414  1
  Fe  Fe35  1  0.16548411  0.83168279  0.83543633  1
  Cr  Cr36  1  0.50023287  0.16963510  0.49774598  1
  Cr  Cr37  1  0.33138126  0.99746825  0.66664336  1
  Fe  Fe38  1  0.50023555  0.16908174  0.83824669  1
  Ni  Ni39  1  0.50175457  0.50639740  0.50123026  1
  Cr  Cr40  1  0.33494801  0.33988595  0.66898998  1
  Ni  Ni41  1  0.50174515  0.50160451  0.83491668  1
  Ni  Ni42  1  0.49827672  0.82825262  0.49899595  1
  Ni  Ni43  1  0.33245977  0.66479621  0.66754884  1
  Cr  Cr44  1  0.49789688  0.82978252  0.83787350  1
  Cr  Cr45  1  0.83773599  0.17104220  0.50358911  1
  Cr  Cr46  1  0.67003250  1.00070564  0.66887798  1
  Fe  Fe47  1  0.83479071  0.16722355  0.83649378  1
  Cr  Cr48  1  0.83403875  0.50178459  0.50304292  1
  Fe  Fe49  1  0.66549225  0.33653342  0.66948088  1
  Cr  Cr50  1  0.83352804  0.50258491  0.83304211  1
  Fe  Fe51  1  0.83747523  0.83207285  0.50259893  1
  Fe  Fe52  1  0.66420086  0.66989790  0.66805107  1
  Ni  Ni53  1  0.83679315  0.83399242  0.83709140  1
" 