2863,Ni36Fe24Cr39_1,-223.600317365812, 175.325191785721,Ni36Fe24Cr39,"# generated using pymatgen
 data_Cr23Fe12Ni19
_symmetry_space_group_name_H-M   'P 1'
_cell_length_a   7.48846855
_cell_length_b   7.48846855
_cell_length_c   10.59029379
_cell_angle_alpha   90.00000000
_cell_angle_beta   90.00000000
_cell_angle_gamma   90.00000000
_symmetry_Int_Tables_number   1
_chemical_formula_structural   Cr23Fe12Ni19
_chemical_formula_sum   'Cr23 Fe12 Ni19'
_cell_volume   593.87361218
_cell_formula_units_Z   1
loop_
 _symmetry_equiv_pos_site_id
 _symmetry_equiv_pos_as_xyz
  1  'x, y, z'
loop_
 _atom_site_type_symbol
 _atom_site_label
 _atom_site_symmetry_multiplicity
 _atom_site_fract_x
 _atom_site_fract_y
 _atom_site_fract_z
 _atom_site_occupancy
  Cr  Cr0  1  0.00306247  0.99852093  0.99639012  1
  Ni  Ni1  1  0.16418609  0.16606150  0.16683300  1
  Ni  Ni2  1  0.00348950  0.00148350  0.33471892  1
  Ni  Ni3  1  -0.00125529  0.33564102  -0.00103754  1
  Cr  Cr4  1  0.16632407  0.49907259  0.16559146  1
  Ni  Ni5  1  -0.00045962  0.33094670  0.33327106  1
  Fe  Fe6  1  0.00012922  0.66412538  0.99626641  1
  Cr  Cr7  1  0.16594612  0.83233446  0.16554093  1
  Fe  Fe8  1  0.00122864  0.66424769  0.33402523  1
  Ni  Ni9  1  0.33138478  0.99479468  0.99812992  1
  Cr  Cr10  1  0.49537246  0.16350237  0.16576046  1
  Ni  Ni11  1  0.33036448  0.99697778  0.33203391  1
  Cr  Cr12  1  0.33133994  0.33108567  0.00009199  1
  Ni  Ni13  1  0.49524274  0.50138766  0.16639787  1
  Fe  Fe14  1  0.32993434  0.33108944  0.33217445  1
  Ni  Ni15  1  0.33231401  0.66799998  0.99745402  1
  Ni  Ni16  1  0.49565514  0.82960885  0.16606236  1
  Ni  Ni17  1  0.33217841  0.66804968  0.33309131  1
  Cr  Cr18  1  0.66052415  0.99607696  0.99698905  1
  Cr  Cr19  1  0.83575591  0.16371158  0.16643071  1
  Fe  Fe20  1  0.66241315  -0.00108917  0.33385606  1
  Cr  Cr21  1  0.66683269  0.33520520  -0.00008509  1
  Fe  Fe22  1  0.83454826  0.49852864  0.16645086  1
  Cr  Cr23  1  0.66621348  0.33370224  0.33095194  1
  Cr  Cr24  1  0.66415053  0.66450594  0.00035386  1
  Cr  Cr25  1  0.83363813  0.83287487  0.16782385  1
  Cr  Cr26  1  0.66283907  0.66409452  0.33024844  1
  Fe  Fe27  1  0.16683886  0.16588349  0.49543967  1
  Cr  Cr28  1  0.00214563  0.99834933  0.66413593  1
  Cr  Cr29  1  0.16692890  0.16697269  0.83420126  1
  Fe  Fe30  1  0.16510225  0.49856944  0.49598176  1
  Cr  Cr31  1  0.00035636  0.33280839  0.66364296  1
  Fe  Fe32  1  0.16496112  0.50096623  0.83364082  1
  Fe  Fe33  1  0.16748858  0.83147812  0.49644823  1
  Cr  Cr34  1  -0.00026161  0.66490524  0.66523748  1
  Ni  Ni35  1  0.16661081  0.82800483  0.83320838  1
  Ni  Ni36  1  0.49641636  0.16476340  0.49753838  1
  Cr  Cr37  1  0.33110300  0.99728051  0.66624684  1
  Ni  Ni38  1  0.49627383  0.16476981  0.83183112  1
  Cr  Cr39  1  0.49541295  0.49961575  0.50024621  1
  Fe  Fe40  1  0.33134758  0.33092547  0.66443427  1
  Cr  Cr41  1  0.49552550  0.49864255  0.82917771  1
  Ni  Ni42  1  0.49591596  0.83197836  0.49803227  1
  Fe  Fe43  1  0.33160319  0.66716446  0.66513749  1
  Ni  Ni44  1  0.49684673  0.82955379  0.83173669  1
  Ni  Ni45  1  0.83301467  0.16601205  0.49612172  1
  Cr  Cr46  1  0.66286146  0.99698825  0.66491181  1
  Cr  Cr47  1  0.83101126  0.16423055  0.83235997  1
  Ni  Ni48  1  0.83413326  0.49825400  0.49764481  1
  Cr  Cr49  1  0.66630175  0.33270575  0.66448472  1
  Fe  Fe50  1  0.83279070  0.50100987  0.83171569  1
  Cr  Cr51  1  0.83178433  0.83280064  0.49673010  1
  Ni  Ni52  1  0.66438927  0.66537955  0.66548273  1
  Ni  Ni53  1  0.83251029  0.82821268  0.83118128  1
" 