5519,Ni36Fe41Cr21_3,-230.761912472053, 197.505853975062,Ni36Fe41Cr21,"# generated using pymatgen
 data_Cr13Fe22Ni19
_symmetry_space_group_name_H-M   'P 1'
_cell_length_a   7.45026135
_cell_length_b   7.45026135
_cell_length_c   10.53626064
_cell_angle_alpha   90.00000000
_cell_angle_beta   90.00000000
_cell_angle_gamma   90.00000000
_symmetry_Int_Tables_number   1
_chemical_formula_structural   Cr13Fe22Ni19
_chemical_formula_sum   'Cr13 Fe22 Ni19'
_cell_volume   584.82983651
_cell_formula_units_Z   1
loop_
 _symmetry_equiv_pos_site_id
 _symmetry_equiv_pos_as_xyz
  1  'x, y, z'
loop_
 _atom_site_type_symbol
 _atom_site_label
 _atom_site_symmetry_multiplicity
 _atom_site_fract_x
 _atom_site_fract_y
 _atom_site_fract_z
 _atom_site_occupancy
  Ni  Ni0  1  1.00058712  0.00115270  1.00059580  1
  Fe  Fe1  1  0.16401980  0.16897875  0.16698827  1
  Ni  Ni2  1  1.00023880  0.00177514  0.33471155  1
  Ni  Ni3  1  0.99997087  0.33432018  0.00271162  1
  Fe  Fe4  1  0.16673190  0.50119729  0.16725204  1
  Fe  Fe5  1  1.00015264  0.33285167  0.33335426  1
  Ni  Ni6  1  1.00099147  0.66792220  1.00010338  1
  Fe  Fe7  1  0.16621171  0.83318712  0.16806560  1
  Ni  Ni8  1  0.99960406  0.66723752  0.33373683  1
  Cr  Cr9  1  0.33234096  1.00052884  0.00200994  1
  Cr  Cr10  1  0.50299269  0.16673620  0.16608080  1
  Cr  Cr11  1  0.33428448  0.00234020  0.33531272  1
  Ni  Ni12  1  0.33506633  0.33613554  0.00331323  1
  Fe  Fe13  1  0.50075603  0.50226562  0.16751109  1
  Fe  Fe14  1  0.33287657  0.33555706  0.33440488  1
  Fe  Fe15  1  0.33221115  0.66601640  0.00264909  1
  Ni  Ni16  1  0.49966328  0.83325509  0.16898089  1
  Fe  Fe17  1  0.33628268  0.66783111  0.33342936  1
  Fe  Fe18  1  0.67180073  0.00243192  0.00194345  1
  Ni  Ni19  1  0.83714072  0.16836825  0.16544083  1
  Ni  Ni20  1  0.66865743  0.99989805  0.33602501  1
  Fe  Fe21  1  0.67074775  0.33496661  0.00126629  1
  Ni  Ni22  1  0.83819180  0.49936194  0.16789558  1
  Cr  Cr23  1  0.66805495  0.33622544  0.33558193  1
  Cr  Cr24  1  0.66914559  0.66551063  0.00161024  1
  Cr  Cr25  1  0.83430308  0.83613902  0.17044601  1
  Fe  Fe26  1  0.66761234  0.66937832  0.33578338  1
  Fe  Fe27  1  0.16612180  0.16808475  0.50114781  1
  Fe  Fe28  1  0.99898424  1.00038529  0.66785010  1
  Cr  Cr29  1  0.16532659  0.16754437  0.83424843  1
  Cr  Cr30  1  0.16594295  0.50078620  0.50012705  1
  Fe  Fe31  1  0.99646720  0.33513113  0.66727558  1
  Cr  Cr32  1  0.16656510  0.50318299  0.83517594  1
  Cr  Cr33  1  0.16744829  0.83400911  0.50301392  1
  Ni  Ni34  1  0.99694337  0.66916367  0.66964648  1
  Fe  Fe35  1  0.16446938  0.83276513  0.83379005  1
  Fe  Fe36  1  0.50290996  0.16738368  0.50156042  1
  Fe  Fe37  1  0.33472391  0.99845436  0.66622697  1
  Cr  Cr38  1  0.50396997  0.16891072  0.83519774  1
  Ni  Ni39  1  0.50216367  0.50321896  0.50088674  1
  Cr  Cr40  1  0.33687446  0.33338748  0.66519736  1
  Ni  Ni41  1  0.50215513  0.50116670  0.83526239  1
  Ni  Ni42  1  0.50288515  0.83442340  0.50131884  1
  Fe  Fe43  1  0.33676205  0.66876035  0.66741485  1
  Cr  Cr44  1  0.50136852  0.83344897  0.83354043  1
  Ni  Ni45  1  0.83520884  0.16717942  0.50184358  1
  Fe  Fe46  1  0.66968557  0.99989451  0.66563112  1
  Fe  Fe47  1  0.83442530  0.16818750  0.83510104  1
  Ni  Ni48  1  0.83432250  0.50056669  0.50199762  1
  Fe  Fe49  1  0.67064332  0.33723851  0.66663023  1
  Ni  Ni50  1  0.83488238  0.50124981  0.83345633  1
  Fe  Fe51  1  0.83267883  0.83343146  0.50116933  1
  Ni  Ni52  1  0.66953512  0.66651007  0.66558307  1
  Ni  Ni53  1  0.83673345  0.83479996  0.83333650  1
" 