1560,Ni36Fe60Cr2_3,-236.381022950842, 208.45040473856,Ni36Fe60Cr2,"# generated using pymatgen
 data_Cr3Fe32Ni19
_symmetry_space_group_name_H-M   'P 1'
_cell_length_a   7.40994153
_cell_length_b   7.40994153
_cell_length_c   10.47923980
_cell_angle_alpha   90.00000000
_cell_angle_beta   90.00000000
_cell_angle_gamma   90.00000000
_symmetry_Int_Tables_number   1
_chemical_formula_structural   Cr3Fe32Ni19
_chemical_formula_sum   'Cr3 Fe32 Ni19'
_cell_volume   575.38606570
_cell_formula_units_Z   1
loop_
 _symmetry_equiv_pos_site_id
 _symmetry_equiv_pos_as_xyz
  1  'x, y, z'
loop_
 _atom_site_type_symbol
 _atom_site_label
 _atom_site_symmetry_multiplicity
 _atom_site_fract_x
 _atom_site_fract_y
 _atom_site_fract_z
 _atom_site_occupancy
  Fe  Fe0  1  0.00554456  1.00231978  0.00392058  1
  Ni  Ni1  1  0.17182930  0.17085565  0.17256274  1
  Fe  Fe2  1  1.00369431  0.00483355  0.33771968  1
  Cr  Cr3  1  1.00375870  0.33836168  0.00399971  1
  Ni  Ni4  1  0.17185172  0.50292147  0.17104183  1
  Ni  Ni5  1  1.00320425  0.33683591  0.33729871  1
  Fe  Fe6  1  0.00640609  0.67093098  1.00256652  1
  Fe  Fe7  1  0.17260076  0.83712605  0.16973699  1
  Fe  Fe8  1  0.00407843  0.66886430  0.33799587  1
  Ni  Ni9  1  0.33795712  1.00207814  0.00486710  1
  Fe  Fe10  1  0.50321619  0.17074145  0.17047113  1
  Fe  Fe11  1  0.33799002  0.00399527  0.33701677  1
  Ni  Ni12  1  0.33824314  0.33797060  0.00475389  1
  Fe  Fe13  1  0.50302728  0.50378737  0.17032234  1
  Fe  Fe14  1  0.33743442  0.33789864  0.33701864  1
  Ni  Ni15  1  0.33713961  0.67151073  1.00228826  1
  Fe  Fe16  1  0.50126128  0.83703340  0.17041846  1
  Ni  Ni17  1  0.33743090  0.67133994  0.33746758  1
  Fe  Fe18  1  0.66846253  0.00470031  1.00342579  1
  Fe  Fe19  1  0.83717685  0.17188744  0.17203545  1
  Ni  Ni20  1  0.67011361  0.00419741  0.33840863  1
  Fe  Fe21  1  0.66774382  0.33745152  1.00381687  1
  Fe  Fe22  1  0.83708007  0.50235584  0.17154424  1
  Ni  Ni23  1  0.67289762  0.33713382  0.33671136  1
  Fe  Fe24  1  0.66846128  0.66941063  1.00231439  1
  Cr  Cr25  1  0.83611561  0.83691637  0.17047660  1
  Ni  Ni26  1  0.66933876  0.67022784  0.33766569  1
  Fe  Fe27  1  0.17066367  0.17109314  0.50393339  1
  Fe  Fe28  1  1.00364999  1.00289928  0.66992332  1
  Cr  Cr29  1  0.17233906  0.17037269  0.83610612  1
  Ni  Ni30  1  0.17063012  0.50304238  0.50423129  1
  Fe  Fe31  1  1.00364693  0.33852742  0.66956738  1
  Ni  Ni32  1  0.17147533  0.50573088  0.83628516  1
  Fe  Fe33  1  0.17084927  0.83691859  0.50437110  1
  Fe  Fe34  1  0.00472272  0.67013297  0.67099905  1
  Ni  Ni35  1  0.17086376  0.83618805  0.83798159  1
  Fe  Fe36  1  0.50337135  0.17091309  0.50394558  1
  Ni  Ni37  1  0.33750185  1.00346105  0.67006187  1
  Fe  Fe38  1  0.50415561  0.17100109  0.83714712  1
  Fe  Fe39  1  0.50370906  0.50406792  0.50402710  1
  Ni  Ni40  1  0.33662142  0.33728986  0.67037094  1
  Ni  Ni41  1  0.50441073  0.50430885  0.83709732  1
  Fe  Fe42  1  0.50370883  0.83658066  0.50393358  1
  Fe  Fe43  1  0.33731777  0.67037757  0.67105349  1
  Ni  Ni44  1  0.50451433  0.83709421  0.83729753  1
  Fe  Fe45  1  0.83752586  0.17109281  0.50308405  1
  Fe  Fe46  1  0.66949154  1.00376092  0.67017417  1
  Fe  Fe47  1  0.83487837  0.17014262  0.83644109  1
  Fe  Fe48  1  0.83718602  0.50388452  0.50385124  1
  Fe  Fe49  1  0.66973369  0.33742412  0.67061398  1
  Ni  Ni50  1  0.83566965  0.50493322  0.83650521  1
  Fe  Fe51  1  0.83700254  0.83658146  0.50338042  1
  Ni  Ni52  1  0.67119236  0.67080496  0.67070158  1
  Fe  Fe53  1  0.83719046  0.83577006  0.83713004  1
" 