2399,Ni36Fe60Cr2_18,-236.259555257462, 210.507218563857,Ni36Fe60Cr2,"# generated using pymatgen
 data_Cr3Fe32Ni19
_symmetry_space_group_name_H-M   'P 1'
_cell_length_a   7.40901109
_cell_length_b   7.40901109
_cell_length_c   10.47792397
_cell_angle_alpha   90.00000000
_cell_angle_beta   90.00000000
_cell_angle_gamma   90.00000000
_symmetry_Int_Tables_number   1
_chemical_formula_structural   Cr3Fe32Ni19
_chemical_formula_sum   'Cr3 Fe32 Ni19'
_cell_volume   575.16934683
_cell_formula_units_Z   1
loop_
 _symmetry_equiv_pos_site_id
 _symmetry_equiv_pos_as_xyz
  1  'x, y, z'
loop_
 _atom_site_type_symbol
 _atom_site_label
 _atom_site_symmetry_multiplicity
 _atom_site_fract_x
 _atom_site_fract_y
 _atom_site_fract_z
 _atom_site_occupancy
  Ni  Ni0  1  1.00296740  0.00517783  0.00402032  1
  Ni  Ni1  1  0.17163581  0.17071750  0.16903319  1
  Cr  Cr2  1  0.00438323  1.00332652  0.33739039  1
  Fe  Fe3  1  0.00453539  0.33733036  1.00384241  1
  Fe  Fe4  1  0.17047403  0.50430329  0.17031299  1
  Fe  Fe5  1  0.00497922  0.33923227  0.33707702  1
  Fe  Fe6  1  1.00340251  0.67009266  0.00515965  1
  Fe  Fe7  1  0.17103962  0.83594449  0.17018625  1
  Ni  Ni8  1  1.00348607  0.66956815  0.33676897  1
  Fe  Fe9  1  0.33748360  0.00429136  0.00496217  1
  Fe  Fe10  1  0.50409948  0.17102064  0.17094761  1
  Ni  Ni11  1  0.33780462  0.00464537  0.33685495  1
  Fe  Fe12  1  0.33657223  0.33735934  0.00436198  1
  Ni  Ni13  1  0.50463666  0.50379751  0.16986121  1
  Ni  Ni14  1  0.33780925  0.33731615  0.33728927  1
  Ni  Ni15  1  0.33823989  0.66914664  0.00478587  1
  Fe  Fe16  1  0.50395155  0.83653634  0.17031335  1
  Ni  Ni17  1  0.33759961  0.66978775  0.33754784  1
  Fe  Fe18  1  0.67064140  1.00315809  1.00321664  1
  Fe  Fe19  1  0.83664317  0.17158815  0.16930190  1
  Fe  Fe20  1  0.66873612  1.00271559  0.33770092  1
  Fe  Fe21  1  0.67064254  0.33758866  0.00413039  1
  Ni  Ni22  1  0.83622212  0.50481077  0.17110213  1
  Fe  Fe23  1  0.66961874  0.33861087  0.33710762  1
  Fe  Fe24  1  0.67060894  0.67100325  0.00425670  1
  Ni  Ni25  1  0.83671568  0.83599501  0.16903345  1
  Ni  Ni26  1  0.67066378  0.66956459  0.33738673  1
  Ni  Ni27  1  0.17147322  0.17071222  0.50600648  1
  Fe  Fe28  1  1.00227588  0.00431671  0.66952134  1
  Fe  Fe29  1  0.17075043  0.17193507  0.83748036  1
  Fe  Fe30  1  0.17067024  0.50447769  0.50401887  1
  Fe  Fe31  1  0.00486071  0.33716222  0.67083210  1
  Ni  Ni32  1  0.17070371  0.50172727  0.83699976  1
  Ni  Ni33  1  0.17044474  0.83783666  0.50433778  1
  Fe  Fe34  1  1.00227707  0.67026938  0.66928186  1
  Cr  Cr35  1  0.17065499  0.83754800  0.83722398  1
  Fe  Fe36  1  0.50260668  0.16919114  0.50309304  1
  Fe  Fe37  1  0.33880754  0.00431390  0.66928231  1
  Fe  Fe38  1  0.50291175  0.16945303  0.83770916  1
  Ni  Ni39  1  0.50378562  0.50434797  0.50369517  1
  Fe  Fe40  1  0.33644211  0.33738941  0.67005149  1
  Fe  Fe41  1  0.50249854  0.50560728  0.83796910  1
  Fe  Fe42  1  0.50369144  0.83722141  0.50441221  1
  Fe  Fe43  1  0.33902997  0.67004571  0.67023892  1
  Ni  Ni44  1  0.50610700  0.83728692  0.83661411  1
  Fe  Fe45  1  0.83744942  0.16998992  0.50447852  1
  Ni  Ni46  1  0.67129502  1.00212149  0.67075728  1
  Fe  Fe47  1  0.83808716  0.16935135  0.83796734  1
  Fe  Fe48  1  0.83830552  0.50556388  0.50267068  1
  Cr  Cr49  1  0.67002378  0.33781318  0.67039324  1
  Fe  Fe50  1  0.83804571  0.50525521  0.83813520  1
  Ni  Ni51  1  0.83666921  0.83651226  0.50581074  1
  Ni  Ni52  1  0.67046944  0.67227377  0.67159733  1
  Fe  Fe53  1  0.83556781  0.83714514  0.83696705  1
" 