6309,Ni36Fe2Cr60_17,-214.130857262137, 143.021791590777,Ni36Fe2Cr60,"# generated using pymatgen
 data_Cr34FeNi19
_symmetry_space_group_name_H-M   'P 1'
_cell_length_a   7.54809412
_cell_length_b   7.54809412
_cell_length_c   10.67461708
_cell_angle_alpha   90.00000000
_cell_angle_beta   90.00000000
_cell_angle_gamma   90.00000000
_symmetry_Int_Tables_number   1
_chemical_formula_structural   Cr34FeNi19
_chemical_formula_sum   'Cr34 Fe1 Ni19'
_cell_volume   608.17269648
_cell_formula_units_Z   1
loop_
 _symmetry_equiv_pos_site_id
 _symmetry_equiv_pos_as_xyz
  1  'x, y, z'
loop_
 _atom_site_type_symbol
 _atom_site_label
 _atom_site_symmetry_multiplicity
 _atom_site_fract_x
 _atom_site_fract_y
 _atom_site_fract_z
 _atom_site_occupancy
  Cr  Cr0  1  0.99167609  -0.00228723  0.99217491  1
  Cr  Cr1  1  0.15807343  0.16141281  0.16165445  1
  Ni  Ni2  1  0.99167140  -0.00523662  0.32906554  1
  Ni  Ni3  1  0.99051454  0.32726239  -0.00402442  1
  Cr  Cr4  1  0.16145648  0.49395694  0.16009509  1
  Cr  Cr5  1  0.99429824  0.32891140  0.32513443  1
  Cr  Cr6  1  0.99363304  0.66022225  0.99305836  1
  Cr  Cr7  1  0.16212562  0.82832739  0.16111120  1
  Cr  Cr8  1  -0.00405029  0.66267840  0.33484935  1
  Cr  Cr9  1  0.33174764  0.99392698  -0.00312475  1
  Ni  Ni10  1  0.49722587  0.16163170  0.16508718  1
  Cr  Cr11  1  0.33080083  -0.00445330  0.32664320  1
  Cr  Cr12  1  0.32933581  0.32740497  -0.00231744  1
  Ni  Ni13  1  0.49481822  0.49493540  0.16029576  1
  Ni  Ni14  1  0.32984893  0.32738328  0.32790365  1
  Ni  Ni15  1  0.33275847  0.66014026  -0.00207662  1
  Ni  Ni16  1  0.49808647  0.82642877  0.16007435  1
  Cr  Cr17  1  0.32796318  0.65887679  0.32801536  1
  Cr  Cr18  1  0.66115009  -0.00460761  -0.00487932  1
  Ni  Ni19  1  0.82579225  0.16139766  0.16210252  1
  Ni  Ni20  1  0.66239609  -0.00375256  0.32647351  1
  Cr  Cr21  1  0.66177486  0.32642603  -0.00298872  1
  Fe  Fe22  1  0.82549638  0.49412719  0.15999756  1
  Cr  Cr23  1  0.65766265  0.32573366  0.32506505  1
  Ni  Ni24  1  0.65970663  0.66066806  -0.00246733  1
  Cr  Cr25  1  0.82722499  0.82950864  0.16413623  1
  Cr  Cr26  1  0.66068926  0.66187230  0.32630267  1
  Cr  Cr27  1  0.16272182  0.16165740  0.49289316  1
  Cr  Cr28  1  -0.00517033  0.99246913  0.66294265  1
  Cr  Cr29  1  0.16084760  0.16269482  0.82865930  1
  Ni  Ni30  1  0.16399832  0.49318510  0.49443454  1
  Cr  Cr31  1  0.99341548  0.32858384  0.66329053  1
  Cr  Cr32  1  0.16335434  0.49308970  0.82951432  1
  Ni  Ni33  1  0.16047684  0.82998555  0.49359515  1
  Cr  Cr34  1  -0.00459205  0.66308629  0.65649977  1
  Cr  Cr35  1  0.16411117  0.82880397  0.82999633  1
  Ni  Ni36  1  0.49363975  0.16201733  0.49472262  1
  Ni  Ni37  1  0.32832462  -0.00307622  0.65863354  1
  Cr  Cr38  1  0.49340286  0.16193854  0.82173767  1
  Cr  Cr39  1  0.49402431  0.49034282  0.49739691  1
  Ni  Ni40  1  0.32900328  0.32564384  0.65742878  1
  Cr  Cr41  1  0.49467880  0.49506733  0.82624402  1
  Cr  Cr42  1  0.49730850  0.83158048  0.49372116  1
  Cr  Cr43  1  0.32527477  0.66268183  0.65870191  1
  Cr  Cr44  1  0.49590751  0.82558761  0.83092865  1
  Cr  Cr45  1  0.82474717  0.15969685  0.49287199  1
  Cr  Cr46  1  0.66205516  -0.00417032  0.66188959  1
  Ni  Ni47  1  0.82674548  0.16173344  0.82852484  1
  Cr  Cr48  1  0.82647452  0.49392848  0.49476901  1
  Ni  Ni49  1  0.65887259  0.32481531  0.66133534  1
  Cr  Cr50  1  0.82518769  0.49395170  0.82969039  1
  Ni  Ni51  1  0.82992550  0.83141654  0.49215448  1
  Cr  Cr52  1  0.66443614  0.66205215  0.66132082  1
  Ni  Ni53  1  0.82704262  0.82843220  0.82883235  1
" 