5944,Ni36Fe24Cr39_7,-223.691033694092, 178.955040661378,Ni36Fe24Cr39,"# generated using pymatgen
 data_Cr23Fe12Ni19
_symmetry_space_group_name_H-M   'P 1'
_cell_length_a   7.48621690
_cell_length_b   7.48621690
_cell_length_c   10.58710948
_cell_angle_alpha   90.00000000
_cell_angle_beta   90.00000000
_cell_angle_gamma   90.00000000
_symmetry_Int_Tables_number   1
_chemical_formula_structural   Cr23Fe12Ni19
_chemical_formula_sum   'Cr23 Fe12 Ni19'
_cell_volume   593.33807225
_cell_formula_units_Z   1
loop_
 _symmetry_equiv_pos_site_id
 _symmetry_equiv_pos_as_xyz
  1  'x, y, z'
loop_
 _atom_site_type_symbol
 _atom_site_label
 _atom_site_symmetry_multiplicity
 _atom_site_fract_x
 _atom_site_fract_y
 _atom_site_fract_z
 _atom_site_occupancy
  Fe  Fe0  1  0.99842620  0.99673030  0.00102147  1
  Cr  Cr1  1  0.16872685  0.16404840  0.16433654  1
  Ni  Ni2  1  0.00081386  0.99744806  0.32958468  1
  Fe  Fe3  1  -0.00105968  0.33309825  0.00016561  1
  Fe  Fe4  1  0.16565780  0.50198875  0.16310434  1
  Cr  Cr5  1  0.99815246  0.33264660  0.32633086  1
  Ni  Ni6  1  -0.00047219  0.66399155  0.00120060  1
  Fe  Fe7  1  0.16507854  0.83059864  0.16360526  1
  Cr  Cr8  1  -0.00088175  0.66774770  0.33038146  1
  Ni  Ni9  1  0.33336916  0.99683531  0.00058116  1
  Fe  Fe10  1  0.50154909  0.16426477  0.16471516  1
  Fe  Fe11  1  0.33251238  0.99508892  0.32883056  1
  Cr  Cr12  1  0.33167188  0.33583087  0.99791920  1
  Ni  Ni13  1  0.49875108  0.50232592  0.16765969  1
  Fe  Fe14  1  0.33543274  0.33364441  0.32958950  1
  Ni  Ni15  1  0.33254693  0.66585716  0.00022388  1
  Ni  Ni16  1  0.49836101  0.83021510  0.16188840  1
  Fe  Fe17  1  0.33261416  0.66743209  0.32855431  1
  Ni  Ni18  1  0.66549470  0.99639537  0.00060793  1
  Ni  Ni19  1  0.83451220  0.16373068  0.16296301  1
  Cr  Cr20  1  0.66641658  0.99778040  0.32938050  1
  Cr  Cr21  1  0.66562522  0.33315074  0.00204606  1
  Ni  Ni22  1  0.83015845  0.50128435  0.16435169  1
  Fe  Fe23  1  0.66464423  0.33290063  0.32766406  1
  Ni  Ni24  1  0.66392184  0.66659385  0.00123622  1
  Ni  Ni25  1  0.83059494  0.83066012  0.16399616  1
  Ni  Ni26  1  0.66269154  0.66409639  0.32871604  1
  Cr  Cr27  1  0.16869619  0.16470749  0.49642885  1
  Cr  Cr28  1  -0.00015124  0.99781699  0.66428030  1
  Ni  Ni29  1  0.16525908  0.16655908  0.83412743  1
  Cr  Cr30  1  0.16619324  0.49904714  0.49892856  1
  Cr  Cr31  1  0.00081724  0.33214005  0.67074615  1
  Ni  Ni32  1  0.16657483  0.49723318  0.83506491  1
  Ni  Ni33  1  0.16776966  0.83194163  0.49509310  1
  Fe  Fe34  1  0.00175312  0.66527320  0.66708765  1
  Cr  Cr35  1  0.16681734  0.83265494  0.83594740  1
  Ni  Ni36  1  0.49558377  0.16850404  0.49418984  1
  Cr  Cr37  1  0.33248017  -0.00127699  0.66544771  1
  Cr  Cr38  1  0.49550114  0.16299046  0.83475866  1
  Fe  Fe39  1  0.49645368  0.49773165  0.49524355  1
  Ni  Ni40  1  0.33233879  0.33343225  0.66584150  1
  Ni  Ni41  1  0.49695500  0.50040650  0.83248060  1
  Cr  Cr42  1  0.49782311  0.83202701  0.49766191  1
  Cr  Cr43  1  0.33095968  0.66383769  0.66817541  1
  Ni  Ni44  1  0.49853874  0.82945817  0.83821379  1
  Cr  Cr45  1  0.83099417  0.16666470  0.49716708  1
  Cr  Cr46  1  0.66388226  -0.00037008  0.66830283  1
  Fe  Fe47  1  0.83320139  0.16477495  0.83692096  1
  Cr  Cr48  1  0.82931028  0.50033376  0.49811716  1
  Cr  Cr49  1  0.66113113  0.33128350  0.66456548  1
  Cr  Cr50  1  0.83178585  0.50093722  0.83426931  1
  Cr  Cr51  1  0.83390953  0.82973303  0.49944931  1
  Cr  Cr52  1  0.66159198  0.66540515  0.66686902  1
  Cr  Cr53  1  0.82938317  0.83123143  0.83483065  1
" 