5776,Ni36Fe41Cr21_0,-231.06448127814, 200.732989265231,Ni36Fe41Cr21,"# generated using pymatgen
 data_Cr13Fe22Ni19
_symmetry_space_group_name_H-M   'P 1'
_cell_length_a   7.44932712
_cell_length_b   7.44932712
_cell_length_c   10.53493945
_cell_angle_alpha   90.00000000
_cell_angle_beta   90.00000000
_cell_angle_gamma   90.00000000
_symmetry_Int_Tables_number   1
_chemical_formula_structural   Cr13Fe22Ni19
_chemical_formula_sum   'Cr13 Fe22 Ni19'
_cell_volume   584.60985966
_cell_formula_units_Z   1
loop_
 _symmetry_equiv_pos_site_id
 _symmetry_equiv_pos_as_xyz
  1  'x, y, z'
loop_
 _atom_site_type_symbol
 _atom_site_label
 _atom_site_symmetry_multiplicity
 _atom_site_fract_x
 _atom_site_fract_y
 _atom_site_fract_z
 _atom_site_occupancy
  Ni  Ni0  1  0.00410977  1.00101971  0.99876482  1
  Fe  Fe1  1  0.16817363  0.16850776  0.16503890  1
  Fe  Fe2  1  0.99988832  1.00029069  0.33432889  1
  Fe  Fe3  1  0.00200791  0.33614392  1.00019968  1
  Ni  Ni4  1  0.16842689  0.50226668  0.16737203  1
  Cr  Cr5  1  0.00159190  0.33543474  0.33286922  1
  Ni  Ni6  1  0.00129191  0.66791249  1.00081226  1
  Ni  Ni7  1  0.16628798  0.83405147  0.16621608  1
  Ni  Ni8  1  1.00018971  0.66782244  0.33395647  1
  Ni  Ni9  1  0.33312219  0.00172097  0.00177344  1
  Fe  Fe10  1  0.50063251  0.16823909  0.16500843  1
  Cr  Cr11  1  0.33464854  0.00283363  0.33160495  1
  Fe  Fe12  1  0.33417434  0.33598484  0.99938301  1
  Cr  Cr13  1  0.50269738  0.49977190  0.16713214  1
  Fe  Fe14  1  0.33491652  0.33510738  0.33478401  1
  Ni  Ni15  1  0.33303287  0.66965994  1.00067740  1
  Fe  Fe16  1  0.50164660  0.83434697  0.16478333  1
  Cr  Cr17  1  0.33338503  0.66992254  0.33296154  1
  Fe  Fe18  1  0.66853974  1.00007906  0.99896641  1
  Cr  Cr19  1  0.83367907  0.16870404  0.16530250  1
  Fe  Fe20  1  0.66916698  0.00143523  0.33531975  1
  Ni  Ni21  1  0.66889911  0.33510334  0.99895650  1
  Fe  Fe22  1  0.83588467  0.50225065  0.16629632  1
  Ni  Ni23  1  0.66778204  0.33274967  0.33482296  1
  Ni  Ni24  1  0.66920759  0.66545992  1.00018134  1
  Cr  Cr25  1  0.83620375  0.83491377  0.16755641  1
  Ni  Ni26  1  0.66996377  0.66742646  0.33342507  1
  Fe  Fe27  1  0.16838406  0.16979323  0.50153905  1
  Fe  Fe28  1  0.99901122  0.00224962  0.67011391  1
  Fe  Fe29  1  0.16856305  0.16799972  0.83635290  1
  Fe  Fe30  1  0.16775417  0.50059609  0.50148584  1
  Cr  Cr31  1  0.99933388  0.33534267  0.67112197  1
  Fe  Fe32  1  0.16872218  0.50210646  0.83620331  1
  Cr  Cr33  1  0.16407467  0.83413460  0.50271941  1
  Fe  Fe34  1  1.00034410  0.66683536  0.67039054  1
  Ni  Ni35  1  0.16571847  0.83407016  0.83540107  1
  Fe  Fe36  1  0.50279712  0.16828816  0.50210220  1
  Cr  Cr37  1  0.33434917  0.00164922  0.67071840  1
  Ni  Ni38  1  0.50202142  0.17102826  0.83545156  1
  Cr  Cr39  1  0.50017409  0.49942337  0.50293980  1
  Ni  Ni40  1  0.33472113  0.33343378  0.66798534  1
  Ni  Ni41  1  0.50064962  0.49855713  0.83324150  1
  Cr  Cr42  1  0.50294478  0.83280038  0.50226977  1
  Fe  Fe43  1  0.33256864  0.66421901  0.67073592  1
  Cr  Cr44  1  0.50020748  0.83289231  0.83683237  1
  Fe  Fe45  1  0.83266582  0.16553441  0.50187598  1
  Fe  Fe46  1  0.66993245  0.00426045  0.66937707  1
  Ni  Ni47  1  0.83406890  0.16775914  0.83539643  1
  Cr  Cr48  1  0.83301115  0.50145502  0.49954583  1
  Ni  Ni49  1  0.66841436  0.33413521  0.66925037  1
  Ni  Ni50  1  0.83298132  0.50074891  0.83750825  1
  Fe  Fe51  1  0.83403314  0.83500265  0.50141092  1
  Fe  Fe52  1  0.66982271  0.66566941  0.67065895  1
  Ni  Ni53  1  0.83740785  0.83508365  0.83310519  1
" 