6224,Ni36Fe60Cr2_4,-236.455746103783, 208.150544097228,Ni36Fe60Cr2,"# generated using pymatgen
 data_Cr3Fe32Ni19
_symmetry_space_group_name_H-M   'P 1'
_cell_length_a   7.41259149
_cell_length_b   7.41259149
_cell_length_c   10.48298742
_cell_angle_alpha   90.00000000
_cell_angle_beta   90.00000000
_cell_angle_gamma   90.00000000
_symmetry_Int_Tables_number   1
_chemical_formula_structural   Cr3Fe32Ni19
_chemical_formula_sum   'Cr3 Fe32 Ni19'
_cell_volume   576.00360086
_cell_formula_units_Z   1
loop_
 _symmetry_equiv_pos_site_id
 _symmetry_equiv_pos_as_xyz
  1  'x, y, z'
loop_
 _atom_site_type_symbol
 _atom_site_label
 _atom_site_symmetry_multiplicity
 _atom_site_fract_x
 _atom_site_fract_y
 _atom_site_fract_z
 _atom_site_occupancy
  Ni  Ni0  1  1.00193950  0.00380063  0.00465737  1
  Ni  Ni1  1  0.17171141  0.17226295  0.17004542  1
  Cr  Cr2  1  1.00264910  0.00417259  0.33531005  1
  Fe  Fe3  1  0.00652706  0.33617570  1.00333037  1
  Fe  Fe4  1  0.17274576  0.50405617  0.17066299  1
  Fe  Fe5  1  0.00632074  0.33808212  0.33629757  1
  Fe  Fe6  1  0.00497914  0.67176086  0.00451993  1
  Fe  Fe7  1  0.17314238  0.83622080  0.16915484  1
  Ni  Ni8  1  0.00555881  0.67107041  0.33624234  1
  Ni  Ni9  1  0.33556178  0.00372443  0.00523828  1
  Ni  Ni10  1  0.50091047  0.17102935  0.17058858  1
  Fe  Fe11  1  0.33855126  1.00338701  0.33554521  1
  Ni  Ni12  1  0.33829637  0.33837467  1.00281758  1
  Ni  Ni13  1  0.50393128  0.50326284  0.17138222  1
  Ni  Ni14  1  0.33785683  0.33846550  0.33752612  1
  Ni  Ni15  1  0.33907953  0.66879311  0.00420719  1
  Ni  Ni16  1  0.50478410  0.83689642  0.17044993  1
  Ni  Ni17  1  0.33752745  0.66862045  0.33626680  1
  Fe  Fe18  1  0.66896024  1.00258359  0.00520735  1
  Fe  Fe19  1  0.83380211  0.17038557  0.16897446  1
  Ni  Ni20  1  0.67058644  0.00460734  0.33708032  1
  Fe  Fe21  1  0.66786828  0.33695452  1.00308487  1
  Fe  Fe22  1  0.83617268  0.50327194  0.17108110  1
  Fe  Fe23  1  0.66883773  0.33631693  0.33652121  1
  Fe  Fe24  1  0.66909953  0.67106809  1.00303770  1
  Ni  Ni25  1  0.83658252  0.83496030  0.17062848  1
  Fe  Fe26  1  0.66919708  0.67217896  0.33569024  1
  Fe  Fe27  1  0.17087015  0.17188019  0.50393367  1
  Ni  Ni28  1  1.00343883  0.00459915  0.66997968  1
  Fe  Fe29  1  0.17002492  0.16937364  0.83854026  1
  Fe  Fe30  1  0.17233275  0.50398695  0.50370163  1
  Ni  Ni31  1  0.00383517  0.33407531  0.67117718  1
  Fe  Fe32  1  0.17063326  0.50468408  0.83675582  1
  Fe  Fe33  1  0.17130340  0.83492488  0.50470629  1
  Fe  Fe34  1  0.00562765  0.67034133  0.67066589  1
  Fe  Fe35  1  0.17117574  0.83681836  0.83736269  1
  Fe  Fe36  1  0.50447037  0.17091999  0.50248940  1
  Fe  Fe37  1  0.33664848  0.00415455  0.67105953  1
  Fe  Fe38  1  0.50405963  0.16958820  0.83834439  1
  Fe  Fe39  1  0.50065485  0.50238251  0.50356847  1
  Fe  Fe40  1  0.33667785  0.33706163  0.67068962  1
  Ni  Ni41  1  0.50226652  0.50196865  0.83624761  1
  Fe  Fe42  1  0.50194147  0.83747242  0.50148024  1
  Ni  Ni43  1  0.33675579  0.66983958  0.67052154  1
  Fe  Fe44  1  0.50204469  0.83709971  0.83915386  1
  Fe  Fe45  1  0.83560512  0.16981521  0.50546515  1
  Fe  Fe46  1  0.67055408  0.00520002  0.66961924  1
  Fe  Fe47  1  0.83666662  0.16998188  0.83657231  1
  Cr  Cr48  1  0.83782374  0.50432144  0.50290128  1
  Ni  Ni49  1  0.66960505  0.33550574  0.67100194  1
  Fe  Fe50  1  0.83734943  0.50250460  0.83688848  1
  Fe  Fe51  1  0.83716848  0.83903705  0.50355648  1
  Cr  Cr52  1  0.66674414  0.67021651  0.67063967  1
  Ni  Ni53  1  0.83889596  0.83811690  0.83578289  1
" 