5015,Ni36Fe24Cr39_9,-223.674795024095, 175.192202236116,Ni36Fe24Cr39,"# generated using pymatgen
 data_Cr23Fe12Ni19
_symmetry_space_group_name_H-M   'P 1'
_cell_length_a   7.48976926
_cell_length_b   7.48976926
_cell_length_c   10.59213327
_cell_angle_alpha   90.00000000
_cell_angle_beta   90.00000000
_cell_angle_gamma   90.00000000
_symmetry_Int_Tables_number   1
_chemical_formula_structural   Cr23Fe12Ni19
_chemical_formula_sum   'Cr23 Fe12 Ni19'
_cell_volume   594.18312508
_cell_formula_units_Z   1
loop_
 _symmetry_equiv_pos_site_id
 _symmetry_equiv_pos_as_xyz
  1  'x, y, z'
loop_
 _atom_site_type_symbol
 _atom_site_label
 _atom_site_symmetry_multiplicity
 _atom_site_fract_x
 _atom_site_fract_y
 _atom_site_fract_z
 _atom_site_occupancy
  Cr  Cr0  1  0.99826722  0.99731659  0.99787754  1
  Cr  Cr1  1  0.16905118  0.16557038  0.16553427  1
  Cr  Cr2  1  0.99839123  0.99831033  0.33347841  1
  Cr  Cr3  1  0.00054892  0.33276499  0.99796355  1
  Cr  Cr4  1  0.16470513  0.50011912  0.16489390  1
  Cr  Cr5  1  0.99625073  0.33327132  0.33301234  1
  Cr  Cr6  1  0.99545992  0.66668083  0.99840343  1
  Cr  Cr7  1  0.17137467  0.82962854  0.16758034  1
  Fe  Fe8  1  0.99703921  0.66718040  0.33421543  1
  Cr  Cr9  1  0.33480656  -0.00090527  0.99603510  1
  Ni  Ni10  1  0.49696776  0.16081229  0.16750777  1
  Ni  Ni11  1  0.33356158  0.99623246  0.33451785  1
  Ni  Ni12  1  0.33594693  0.33399084  0.99768113  1
  Fe  Fe13  1  0.49634451  0.49919701  0.16527247  1
  Fe  Fe14  1  0.33332100  0.32900011  0.33284837  1
  Fe  Fe15  1  0.33598981  0.66206603  0.99778129  1
  Ni  Ni16  1  0.50038805  0.83005874  0.16450990  1
  Ni  Ni17  1  0.33308464  0.66476750  0.33090532  1
  Cr  Cr18  1  0.66488604  0.99474956  0.99825355  1
  Cr  Cr19  1  0.82776616  0.16762488  0.16379356  1
  Ni  Ni20  1  0.66060691  0.99772779  0.33050175  1
  Cr  Cr21  1  0.66073280  0.33435869  0.00120352  1
  Ni  Ni22  1  0.82929007  0.50478914  0.16544484  1
  Cr  Cr23  1  0.66144567  0.33331615  0.33139993  1
  Ni  Ni24  1  0.66123287  0.66430741  0.99806649  1
  Fe  Fe25  1  0.82890907  0.83120925  0.16665451  1
  Cr  Cr26  1  0.66376717  0.66476506  0.33380680  1
  Ni  Ni27  1  0.16971487  0.16411986  0.50003273  1
  Cr  Cr28  1  0.00205413  0.99734944  0.66450321  1
  Cr  Cr29  1  0.16746219  0.16950412  0.83084354  1
  Cr  Cr30  1  0.16397412  0.49981652  0.49770169  1
  Ni  Ni31  1  -0.00008152  0.33420969  0.66452666  1
  Ni  Ni32  1  0.16683706  0.50016350  0.83183149  1
  Ni  Ni33  1  0.16792590  0.83076615  0.49649352  1
  Ni  Ni34  1  -0.00121977  0.66426409  0.66195295  1
  Cr  Cr35  1  0.17005079  0.82801254  0.83151437  1
  Ni  Ni36  1  0.49702514  0.16338225  0.49896717  1
  Fe  Fe37  1  0.33446230  0.00005381  0.66372691  1
  Ni  Ni38  1  0.49849605  0.16353499  0.82840142  1
  Fe  Fe39  1  0.49751797  0.49596955  0.49975545  1
  Fe  Fe40  1  0.33312989  0.33118346  0.66527857  1
  Fe  Fe41  1  0.49767788  0.49542734  0.83097836  1
  Cr  Cr42  1  0.49863274  0.83352464  0.49980144  1
  Cr  Cr43  1  0.33364690  0.66410341  0.66691145  1
  Fe  Fe44  1  0.50351755  0.82931581  0.83054038  1
  Cr  Cr45  1  0.82682346  0.16833093  0.50243447  1
  Ni  Ni46  1  0.66219766  0.99787767  0.66619498  1
  Cr  Cr47  1  0.82695346  0.16742582  0.82904080  1
  Ni  Ni48  1  0.83071056  0.50154148  0.50243237  1
  Ni  Ni49  1  0.66059673  0.33291822  0.66330540  1
  Cr  Cr50  1  0.83175237  0.49941363  0.82791693  1
  Fe  Fe51  1  0.83205087  0.83298461  0.50089736  1
  Ni  Ni52  1  0.66573171  0.66372765  0.66485544  1
  Fe  Fe53  1  0.83031347  0.83025899  0.82810790  1
" 