720,Ni36Fe3Cr60_1,-214.007529836378, 139.487435497327,Ni36Fe3Cr60,"# generated using pymatgen
 data_Cr34FeNi19
_symmetry_space_group_name_H-M   'P 1'
_cell_length_a   7.55148830
_cell_length_b   7.55148830
_cell_length_c   10.67941718
_cell_angle_alpha   90.00000000
_cell_angle_beta   90.00000000
_cell_angle_gamma   90.00000000
_symmetry_Int_Tables_number   1
_chemical_formula_structural   Cr34FeNi19
_chemical_formula_sum   'Cr34 Fe1 Ni19'
_cell_volume   608.99350397
_cell_formula_units_Z   1
loop_
 _symmetry_equiv_pos_site_id
 _symmetry_equiv_pos_as_xyz
  1  'x, y, z'
loop_
 _atom_site_type_symbol
 _atom_site_label
 _atom_site_symmetry_multiplicity
 _atom_site_fract_x
 _atom_site_fract_y
 _atom_site_fract_z
 _atom_site_occupancy
  Cr  Cr0  1  0.98984361  -0.00475023  -0.00411537  1
  Cr  Cr1  1  0.15576247  0.16078740  0.16550761  1
  Ni  Ni2  1  0.99262802  -0.00430263  0.32971414  1
  Cr  Cr3  1  0.98957870  0.32687936  -0.00360531  1
  Cr  Cr4  1  0.16066958  0.49250469  0.16015532  1
  Ni  Ni5  1  0.99313667  0.32635395  0.32811117  1
  Cr  Cr6  1  -0.00463870  0.66089378  -0.00549504  1
  Cr  Cr7  1  0.16047916  0.82938041  0.15919347  1
  Cr  Cr8  1  -0.00517489  0.66201895  0.32845681  1
  Cr  Cr9  1  0.32922929  0.99434751  0.99404605  1
  Cr  Cr10  1  0.49460982  0.16082589  0.16062898  1
  Cr  Cr11  1  0.32454328  -0.00515943  0.33157048  1
  Cr  Cr12  1  0.32817633  0.32662980  0.99223189  1
  Cr  Cr13  1  0.49644384  0.49478864  0.16084507  1
  Cr  Cr14  1  0.32454720  0.32587008  0.33369288  1
  Ni  Ni15  1  0.32905835  0.66013906  -0.00542517  1
  Cr  Cr16  1  0.49624281  0.82716752  0.15958382  1
  Cr  Cr17  1  0.32755398  0.66136988  0.32746261  1
  Ni  Ni18  1  0.66329013  -0.00096189  0.99419467  1
  Ni  Ni19  1  0.82647840  0.16089536  0.16166033  1
  Cr  Cr20  1  0.66218444  0.99330508  0.32806269  1
  Ni  Ni21  1  0.66245828  0.32410439  0.99419238  1
  Ni  Ni22  1  0.82727160  0.49290223  0.16284933  1
  Cr  Cr23  1  0.66175532  0.32659883  0.32720736  1
  Cr  Cr24  1  0.66474083  0.66244660  -0.00361439  1
  Ni  Ni25  1  0.82756089  0.82980358  0.16334848  1
  Ni  Ni26  1  0.66611735  0.66199849  0.32651227  1
  Ni  Ni27  1  0.15953550  0.15996525  0.49568957  1
  Ni  Ni28  1  -0.00329745  0.99405826  0.65804860  1
  Cr  Cr29  1  0.15790748  0.15892187  0.82502061  1
  Ni  Ni30  1  0.16000779  0.49354808  0.49558418  1
  Cr  Cr31  1  0.99362425  0.32819498  0.66065542  1
  Cr  Cr32  1  0.16101445  0.49537368  0.82708660  1
  Ni  Ni33  1  0.15954307  0.83034928  0.49649739  1
  Ni  Ni34  1  -0.00081092  0.66412248  0.65681356  1
  Cr  Cr35  1  0.16132907  0.82820516  0.82687382  1
  Ni  Ni36  1  0.48932055  0.16004263  0.49821150  1
  Ni  Ni37  1  0.32567712  -0.00294282  0.65930417  1
  Ni  Ni38  1  0.49528749  0.16000784  0.82732512  1
  Cr  Cr39  1  0.49514890  0.49319858  0.49328228  1
  Fe  Fe40  1  0.32532482  0.32500593  0.65942742  1
  Cr  Cr41  1  0.49500197  0.49327397  0.82879523  1
  Cr  Cr42  1  0.49754273  0.82793142  0.49247974  1
  Cr  Cr43  1  0.32705291  0.66241035  0.65991872  1
  Cr  Cr44  1  0.49474379  0.82907906  0.83033290  1
  Cr  Cr45  1  0.82878879  0.15917624  0.49346469  1
  Cr  Cr46  1  0.66038720  -0.00420785  0.66138428  1
  Ni  Ni47  1  0.82406499  0.15984371  0.82904211  1
  Cr  Cr48  1  0.82895590  0.49595740  0.49303683  1
  Cr  Cr49  1  0.65790019  0.32476035  0.66343337  1
  Cr  Cr50  1  0.82812183  0.49348573  0.82564797  1
  Ni  Ni51  1  0.83444474  0.82859736  0.49361021  1
  Cr  Cr52  1  0.66602949  0.66232227  0.65723238  1
  Cr  Cr53  1  0.83089277  0.83056762  0.82291496  1
" 