7036,Ni36Fe35Cr27_6,-228.465858986188, 184.082862860749,Ni36Fe35Cr27,"# generated using pymatgen
 data_Cr16(FeNi)19
_symmetry_space_group_name_H-M   'P 1'
_cell_length_a   7.46716942
_cell_length_b   7.46716942
_cell_length_c   10.56017226
_cell_angle_alpha   90.00000000
_cell_angle_beta   90.00000000
_cell_angle_gamma   90.00000000
_symmetry_Int_Tables_number   1
_chemical_formula_structural   Cr16(FeNi)19
_chemical_formula_sum   'Cr16 Fe19 Ni19'
_cell_volume   588.82062329
_cell_formula_units_Z   1
loop_
 _symmetry_equiv_pos_site_id
 _symmetry_equiv_pos_as_xyz
  1  'x, y, z'
loop_
 _atom_site_type_symbol
 _atom_site_label
 _atom_site_symmetry_multiplicity
 _atom_site_fract_x
 _atom_site_fract_y
 _atom_site_fract_z
 _atom_site_occupancy
  Fe  Fe0  1  0.00034639  0.00026117  0.00178438  1
  Fe  Fe1  1  0.16812582  0.16763908  0.16803551  1
  Fe  Fe2  1  0.00063935  0.00132695  0.33555452  1
  Cr  Cr3  1  0.00002895  0.33398228  0.00165783  1
  Ni  Ni4  1  0.16623331  0.49801481  0.16812146  1
  Fe  Fe5  1  0.00202214  0.33313956  0.33385023  1
  Cr  Cr6  1  0.00092246  0.66165587  0.00004850  1
  Cr  Cr7  1  0.16614619  0.83405249  0.16670114  1
  Fe  Fe8  1  0.99778879  0.66546798  0.33426250  1
  Ni  Ni9  1  0.33581751  0.00241102  0.00161361  1
  Fe  Fe10  1  0.49687262  0.16491459  0.16815612  1
  Fe  Fe11  1  0.33308425  0.00297613  0.33534658  1
  Fe  Fe12  1  0.33242028  0.33571492  0.00017344  1
  Cr  Cr13  1  0.49690427  0.49928022  0.16806856  1
  Ni  Ni14  1  0.33085879  0.33272474  0.33365426  1
  Ni  Ni15  1  0.33375283  0.66869593  0.99993083  1
  Ni  Ni16  1  0.50045320  0.83585736  0.16690957  1
  Cr  Cr17  1  0.33184583  0.66789698  0.33482724  1
  Fe  Fe18  1  0.66516022  0.99808330  0.00267912  1
  Fe  Fe19  1  0.83681995  0.16488995  0.16869640  1
  Cr  Cr20  1  0.66657602  0.99923534  0.33391601  1
  Cr  Cr21  1  0.66847818  0.33092675  0.00271806  1
  Ni  Ni22  1  0.83520935  0.50062240  0.17155181  1
  Cr  Cr23  1  0.66840690  0.33248394  0.33292703  1
  Cr  Cr24  1  0.66650789  0.66450356  0.00218349  1
  Ni  Ni25  1  0.83388605  0.83510063  0.16795451  1
  Fe  Fe26  1  0.66726764  0.66701065  0.33429647  1
  Fe  Fe27  1  0.16581842  0.16911410  0.49731252  1
  Cr  Cr28  1  0.00196581  0.00182141  0.66461049  1
  Fe  Fe29  1  0.16880840  0.17085840  0.83330404  1
  Fe  Fe30  1  0.16500831  0.49872891  0.49934655  1
  Ni  Ni31  1  0.99970244  0.33588195  0.66451149  1
  Ni  Ni32  1  0.16947570  0.49868171  0.83172452  1
  Ni  Ni33  1  0.16390627  0.83358669  0.49758910  1
  Ni  Ni34  1  0.99994531  0.66332757  0.66461263  1
  Cr  Cr35  1  0.16676554  0.83499163  0.83558021  1
  Ni  Ni36  1  0.49914062  0.17147373  0.49925088  1
  Cr  Cr37  1  0.33387540  0.00168150  0.66113290  1
  Fe  Fe38  1  0.49713802  0.16854906  0.83263958  1
  Ni  Ni39  1  0.49921429  0.49749832  0.49998739  1
  Fe  Fe40  1  0.33322953  0.33549373  0.66440667  1
  Ni  Ni41  1  0.49927936  0.49673620  0.83232951  1
  Fe  Fe42  1  0.50243925  0.83244860  0.49792310  1
  Cr  Cr43  1  0.33306112  0.66816283  0.66600954  1
  Fe  Fe44  1  0.49995409  0.83057863  0.83525781  1
  Ni  Ni45  1  0.83340826  0.16686782  0.50036468  1
  Cr  Cr46  1  0.66387210  0.99984553  0.66504923  1
  Cr  Cr47  1  0.83246293  0.16595594  0.83225118  1
  Fe  Fe48  1  0.83248700  0.50004334  0.50078604  1
  Ni  Ni49  1  0.66695599  0.33423600  0.66462685  1
  Ni  Ni50  1  0.83215743  0.49765639  0.82742284  1
  Ni  Ni51  1  0.83696564  0.83233566  0.49998736  1
  Ni  Ni52  1  0.66652199  0.66301169  0.66349482  1
  Cr  Cr53  1  0.83342516  0.83112361  0.83242848  1
" 