934,Ni36Fe41Cr21_2,-230.530231493394, 197.212862065399,Ni36Fe41Cr21,"# generated using pymatgen
 data_Cr13Fe22Ni19
_symmetry_space_group_name_H-M   'P 1'
_cell_length_a   7.44660432
_cell_length_b   7.44660432
_cell_length_c   10.53108882
_cell_angle_alpha   90.00000000
_cell_angle_beta   90.00000000
_cell_angle_gamma   90.00000000
_symmetry_Int_Tables_number   1
_chemical_formula_structural   Cr13Fe22Ni19
_chemical_formula_sum   'Cr13 Fe22 Ni19'
_cell_volume   583.96905079
_cell_formula_units_Z   1
loop_
 _symmetry_equiv_pos_site_id
 _symmetry_equiv_pos_as_xyz
  1  'x, y, z'
loop_
 _atom_site_type_symbol
 _atom_site_label
 _atom_site_symmetry_multiplicity
 _atom_site_fract_x
 _atom_site_fract_y
 _atom_site_fract_z
 _atom_site_occupancy
  Ni  Ni0  1  0.99866625  0.00361752  0.99909671  1
  Fe  Fe1  1  0.16750367  0.16916930  0.16580731  1
  Cr  Cr2  1  0.99929783  0.00258978  0.33621581  1
  Ni  Ni3  1  1.00061823  0.33401265  0.00287122  1
  Ni  Ni4  1  0.16715257  0.49955943  0.16765746  1
  Cr  Cr5  1  1.00068017  0.33696791  0.33442921  1
  Ni  Ni6  1  0.99875238  0.66665270  0.00292386  1
  Cr  Cr7  1  0.16422806  0.83594942  0.16468843  1
  Fe  Fe8  1  0.99816044  0.66868711  0.33431763  1
  Fe  Fe9  1  0.33537771  0.00295722  0.99921505  1
  Fe  Fe10  1  0.50244299  0.16598732  0.16730907  1
  Fe  Fe11  1  0.33420204  0.00360100  0.33342348  1
  Fe  Fe12  1  0.33492899  0.33202412  1.00086202  1
  Cr  Cr13  1  0.50232452  0.49929109  0.16658953  1
  Fe  Fe14  1  0.33389657  0.33192164  0.33330807  1
  Cr  Cr15  1  0.33769210  0.66878058  0.99873201  1
  Fe  Fe16  1  0.50379916  0.83558110  0.16713187  1
  Cr  Cr17  1  0.33355751  0.66833241  0.33490905  1
  Ni  Ni18  1  0.66756994  1.00132854  0.00154006  1
  Fe  Fe19  1  0.83364900  0.16786752  0.16630719  1
  Ni  Ni20  1  0.66708996  1.00091589  0.33248205  1
  Fe  Fe21  1  0.67051760  0.33491219  0.99993342  1
  Ni  Ni22  1  0.83530168  0.50323196  0.16695962  1
  Fe  Fe23  1  0.66928666  0.33391110  0.33313670  1
  Ni  Ni24  1  0.66878640  0.66930868  1.00106577  1
  Ni  Ni25  1  0.83377221  0.83540114  0.16740691  1
  Fe  Fe26  1  0.67253859  0.66884906  0.33315004  1
  Ni  Ni27  1  0.16882584  0.16870923  0.50108328  1
  Ni  Ni28  1  1.00066285  1.00024092  0.66904111  1
  Ni  Ni29  1  0.16712891  0.16731039  0.83662546  1
  Fe  Fe30  1  0.16700202  0.50230320  0.50196952  1
  Cr  Cr31  1  1.00051007  0.33351427  0.66843256  1
  Cr  Cr32  1  0.16666363  0.50096864  0.83646602  1
  Fe  Fe33  1  0.16630297  0.83515108  0.50253755  1
  Ni  Ni34  1  1.00102962  0.66842585  0.66606254  1
  Fe  Fe35  1  0.16574392  0.83587127  0.83538506  1
  Cr  Cr36  1  0.50153144  0.16924243  0.50090617  1
  Cr  Cr37  1  0.33491162  1.00033500  0.66961685  1
  Ni  Ni38  1  0.50179488  0.16899686  0.83508149  1
  Cr  Cr39  1  0.50240393  0.50024579  0.50429009  1
  Fe  Fe40  1  0.33373557  0.33320688  0.67009974  1
  Ni  Ni41  1  0.50300936  0.50036227  0.83314885  1
  Cr  Cr42  1  0.50636259  0.83481735  0.50055821  1
  Fe  Fe43  1  0.33420205  0.66879611  0.66988618  1
  Ni  Ni44  1  0.50587894  0.83501817  0.83566733  1
  Cr  Cr45  1  0.83277891  0.16405669  0.50403619  1
  Ni  Ni46  1  0.66852963  1.00072752  0.66986575  1
  Fe  Fe47  1  0.83344195  0.16641686  0.83551139  1
  Fe  Fe48  1  0.83444360  0.50340765  0.50086223  1
  Fe  Fe49  1  0.66848408  0.33392073  0.67121592  1
  Fe  Fe50  1  0.83341242  0.50266014  0.83684158  1
  Ni  Ni51  1  0.83590901  0.83283242  0.50146268  1
  Fe  Fe52  1  0.67148685  0.67003361  0.67087061  1
  Ni  Ni53  1  0.83614369  0.83514385  0.83512964  1
" 