7371,Ni36Fe41Cr21_1,-230.442287510726, 197.85124296715,Ni36Fe41Cr21,"# generated using pymatgen
 data_Cr13Fe22Ni19
_symmetry_space_group_name_H-M   'P 1'
_cell_length_a   7.44931419
_cell_length_b   7.44931419
_cell_length_c   10.53492116
_cell_angle_alpha   90.00000000
_cell_angle_beta   90.00000000
_cell_angle_gamma   90.00000000
_symmetry_Int_Tables_number   1
_chemical_formula_structural   Cr13Fe22Ni19
_chemical_formula_sum   'Cr13 Fe22 Ni19'
_cell_volume   584.60681423
_cell_formula_units_Z   1
loop_
 _symmetry_equiv_pos_site_id
 _symmetry_equiv_pos_as_xyz
  1  'x, y, z'
loop_
 _atom_site_type_symbol
 _atom_site_label
 _atom_site_symmetry_multiplicity
 _atom_site_fract_x
 _atom_site_fract_y
 _atom_site_fract_z
 _atom_site_occupancy
  Cr  Cr0  1  0.00268276  0.00432367  1.00048414  1
  Ni  Ni1  1  0.16949655  0.17009521  0.16585419  1
  Ni  Ni2  1  0.00322883  0.00423701  0.33224864  1
  Ni  Ni3  1  0.99861794  0.32997259  0.99981377  1
  Cr  Cr4  1  0.16646671  0.50307059  0.16413646  1
  Fe  Fe5  1  0.99937269  0.33655335  0.33264340  1
  Fe  Fe6  1  0.00407946  0.66663200  0.99733847  1
  Fe  Fe7  1  0.16908635  0.83614565  0.16780671  1
  Fe  Fe8  1  0.00326337  0.66781181  0.33614457  1
  Ni  Ni9  1  0.33233190  0.00210295  0.00167635  1
  Ni  Ni10  1  0.50186990  0.16678685  0.16607656  1
  Fe  Fe11  1  0.33293771  1.00012227  0.33175394  1
  Ni  Ni12  1  0.33667555  0.33344900  1.00011384  1
  Fe  Fe13  1  0.50356233  0.49875438  0.16440327  1
  Cr  Cr14  1  0.33740884  0.33833030  0.33068803  1
  Ni  Ni15  1  0.33923513  0.66779565  1.00060742  1
  Cr  Cr16  1  0.50177479  0.83651596  0.16841960  1
  Ni  Ni17  1  0.33200339  0.66760484  0.33746851  1
  Fe  Fe18  1  0.66596308  0.00629351  1.00041273  1
  Ni  Ni19  1  0.83237650  0.16964579  0.17140694  1
  Ni  Ni20  1  0.67150430  0.00327030  0.33591856  1
  Fe  Fe21  1  0.66798432  0.33212014  0.00137570  1
  Ni  Ni22  1  0.83574536  0.49931131  0.16427846  1
  Fe  Fe23  1  0.67051396  0.33337339  0.33446417  1
  Fe  Fe24  1  0.66724266  0.66387807  0.99881291  1
  Cr  Cr25  1  0.83420862  0.83209403  0.16533187  1
  Cr  Cr26  1  0.66388542  0.65984156  0.33547262  1
  Cr  Cr27  1  0.16845927  0.17109534  0.50260515  1
  Cr  Cr28  1  0.00237088  0.00199251  0.67260012  1
  Ni  Ni29  1  0.17080606  0.16975121  0.83487152  1
  Ni  Ni30  1  0.16675217  0.50262764  0.50441551  1
  Fe  Fe31  1  0.99917176  0.33759099  0.66988159  1
  Cr  Cr32  1  0.16888602  0.49909696  0.83325415  1
  Fe  Fe33  1  0.16863560  0.83263310  0.50160966  1
  Ni  Ni34  1  1.00075301  0.67040181  0.66860297  1
  Ni  Ni35  1  0.16894189  0.83241062  0.83629327  1
  Cr  Cr36  1  0.50197668  0.16186055  0.50098102  1
  Fe  Fe37  1  0.33598797  0.99774658  0.67274948  1
  Fe  Fe38  1  0.49952844  0.16559012  0.83626338  1
  Ni  Ni39  1  0.49762946  0.49973011  0.50124672  1
  Fe  Fe40  1  0.33451145  0.33671027  0.66841499  1
  Fe  Fe41  1  0.50105820  0.50033784  0.83638944  1
  Fe  Fe42  1  0.49645924  0.83222016  0.49992988  1
  Fe  Fe43  1  0.33254762  0.66951211  0.66687788  1
  Fe  Fe44  1  0.49891867  0.83730309  0.83802597  1
  Fe  Fe45  1  0.83702677  0.17299501  0.49910784  1
  Fe  Fe46  1  0.66755268  0.99924610  0.67077420  1
  Ni  Ni47  1  0.83123894  0.16691216  0.83347012  1
  Ni  Ni48  1  0.83884414  0.50238018  0.50109959  1
  Cr  Cr49  1  0.66713045  0.33582242  0.66636980  1
  Fe  Fe50  1  0.83721304  0.50051851  0.83659312  1
  Cr  Cr51  1  0.83250762  0.83779217  0.50005542  1
  Cr  Cr52  1  0.66522620  0.66659917  0.66899820  1
  Ni  Ni53  1  0.83062204  0.83326574  0.83764187  1
" 