6678,Ni36Fe24Cr39_6,-223.835226476991, 175.255601968984,Ni36Fe24Cr39,"# generated using pymatgen
 data_Cr23Fe12Ni19
_symmetry_space_group_name_H-M   'P 1'
_cell_length_a   7.49093815
_cell_length_b   7.49093815
_cell_length_c   10.59378633
_cell_angle_alpha   90.00000000
_cell_angle_beta   90.00000000
_cell_angle_gamma   90.00000000
_symmetry_Int_Tables_number   1
_chemical_formula_structural   Cr23Fe12Ni19
_chemical_formula_sum   'Cr23 Fe12 Ni19'
_cell_volume   594.46136186
_cell_formula_units_Z   1
loop_
 _symmetry_equiv_pos_site_id
 _symmetry_equiv_pos_as_xyz
  1  'x, y, z'
loop_
 _atom_site_type_symbol
 _atom_site_label
 _atom_site_symmetry_multiplicity
 _atom_site_fract_x
 _atom_site_fract_y
 _atom_site_fract_z
 _atom_site_occupancy
  Fe  Fe0  1  0.99546988  -0.00149128  -0.00150867  1
  Cr  Cr1  1  0.16249409  0.16589473  0.16427512  1
  Ni  Ni2  1  0.99693282  0.99795917  0.33041387  1
  Ni  Ni3  1  0.99385055  0.33325628  0.99807088  1
  Ni  Ni4  1  0.16179835  0.49716489  0.16811726  1
  Ni  Ni5  1  0.00009734  0.33361072  0.33053715  1
  Ni  Ni6  1  0.99794264  0.66408472  -0.00042485  1
  Fe  Fe7  1  0.16314821  0.82941845  0.16474370  1
  Fe  Fe8  1  -0.00135480  0.66425966  0.33036875  1
  Fe  Fe9  1  0.33193270  0.99794113  -0.00067980  1
  Fe  Fe10  1  0.50032053  0.16675031  0.16487759  1
  Cr  Cr11  1  0.33408569  -0.00110711  0.33160182  1
  Cr  Cr12  1  0.33329440  0.33309364  0.99784045  1
  Cr  Cr13  1  0.50119009  0.49818939  0.16646544  1
  Ni  Ni14  1  0.33050183  0.33377969  0.33297322  1
  Cr  Cr15  1  0.32949348  0.66496795  0.99818068  1
  Cr  Cr16  1  0.50056303  0.83048636  0.16282339  1
  Fe  Fe17  1  0.33032659  0.66349291  0.33151696  1
  Ni  Ni18  1  0.66651650  0.00132950  -0.00109555  1
  Fe  Fe19  1  0.83171577  0.16833557  0.16398292  1
  Cr  Cr20  1  0.66630084  -0.00150925  0.33380852  1
  Ni  Ni21  1  0.66933183  0.33030094  -0.00101890  1
  Fe  Fe22  1  0.83366206  0.49751914  0.16366380  1
  Fe  Fe23  1  0.66545285  0.33071055  0.33066200  1
  Ni  Ni24  1  0.66801818  0.66365640  0.99538265  1
  Cr  Cr25  1  0.83197638  0.83043417  0.16456396  1
  Ni  Ni26  1  0.66591508  0.66605273  0.33405291  1
  Cr  Cr27  1  0.16577196  0.16853061  0.49859363  1
  Cr  Cr28  1  0.99530853  0.99677327  0.66551495  1
  Cr  Cr29  1  0.16255617  0.16162432  0.83212625  1
  Ni  Ni30  1  0.16534190  0.49787007  0.49311391  1
  Cr  Cr31  1  0.99459920  0.33352906  0.66731027  1
  Cr  Cr32  1  0.16285360  0.49834730  0.83263391  1
  Cr  Cr33  1  0.16347976  0.83115995  0.49511729  1
  Cr  Cr34  1  0.99745533  0.66495011  0.66495416  1
  Ni  Ni35  1  0.16432731  0.83428212  0.83650843  1
  Ni  Ni36  1  0.49899884  0.16432356  0.49828896  1
  Fe  Fe37  1  0.33430322  0.99758914  0.66363504  1
  Cr  Cr38  1  0.50035720  0.16546350  0.83250590  1
  Cr  Cr39  1  0.49860195  0.49826822  0.49679871  1
  Cr  Cr40  1  0.33439767  0.33301098  0.66398409  1
  Ni  Ni41  1  0.50592755  0.49834500  0.83211760  1
  Ni  Ni42  1  0.50218231  0.83220547  0.49992553  1
  Cr  Cr43  1  0.33214237  0.66573097  0.66519468  1
  Cr  Cr44  1  0.49930801  0.83056335  0.83174060  1
  Cr  Cr45  1  0.83205859  0.16484557  0.49758859  1
  Fe  Fe46  1  0.66376806  -0.00034368  0.66357248  1
  Ni  Ni47  1  0.83023442  0.16716616  0.83506096  1
  Cr  Cr48  1  0.83238352  0.50006207  0.49607577  1
  Ni  Ni49  1  0.66428373  0.32992162  0.66725408  1
  Ni  Ni50  1  0.82707804  0.49647710  0.83562718  1
  Ni  Ni51  1  0.82821943  0.83087758  0.49723393  1
  Fe  Fe52  1  0.66600776  0.66297171  0.66481357  1
  Cr  Cr53  1  0.83096668  0.83076353  0.83240424  1
" 