8467,Ni36Fe60Cr2_17,-236.157900523165, 210.696416987385,Ni36Fe60Cr2,"# generated using pymatgen
 data_Cr3Fe32Ni19
_symmetry_space_group_name_H-M   'P 1'
_cell_length_a   7.40481664
_cell_length_b   7.40481664
_cell_length_c   10.47199212
_cell_angle_alpha   90.00000000
_cell_angle_beta   90.00000000
_cell_angle_gamma   90.00000000
_symmetry_Int_Tables_number   1
_chemical_formula_structural   Cr3Fe32Ni19
_chemical_formula_sum   'Cr3 Fe32 Ni19'
_cell_volume   574.19304137
_cell_formula_units_Z   1
loop_
 _symmetry_equiv_pos_site_id
 _symmetry_equiv_pos_as_xyz
  1  'x, y, z'
loop_
 _atom_site_type_symbol
 _atom_site_label
 _atom_site_symmetry_multiplicity
 _atom_site_fract_x
 _atom_site_fract_y
 _atom_site_fract_z
 _atom_site_occupancy
  Fe  Fe0  1  0.00440390  0.00446853  1.00389927  1
  Ni  Ni1  1  0.17087739  0.17094054  0.17212993  1
  Fe  Fe2  1  1.00389388  1.00277910  0.33827892  1
  Fe  Fe3  1  1.00285597  0.33741969  0.00447373  1
  Ni  Ni4  1  0.17043037  0.50457647  0.17036026  1
  Fe  Fe5  1  1.00359961  0.33812140  0.33614497  1
  Fe  Fe6  1  0.00601528  0.67071597  0.00511077  1
  Fe  Fe7  1  0.17024744  0.83690631  0.17128498  1
  Ni  Ni8  1  1.00248433  0.67183752  0.33651791  1
  Ni  Ni9  1  0.33636790  1.00408570  0.00471150  1
  Fe  Fe10  1  0.50470437  0.17034169  0.17127215  1
  Fe  Fe11  1  0.33743766  1.00281081  0.33767331  1
  Cr  Cr12  1  0.33741026  0.33660675  1.00387557  1
  Fe  Fe13  1  0.50418156  0.50447098  0.17238599  1
  Fe  Fe14  1  0.33783169  0.33818810  0.33598106  1
  Fe  Fe15  1  0.33601696  0.67239843  0.00450935  1
  Fe  Fe16  1  0.50317807  0.83778945  0.17211188  1
  Ni  Ni17  1  0.33857652  0.67158889  0.33558522  1
  Fe  Fe18  1  0.67060728  0.00590893  0.00440308  1
  Fe  Fe19  1  0.83835300  0.17140317  0.17074509  1
  Fe  Fe20  1  0.67127347  1.00247361  0.33778210  1
  Fe  Fe21  1  0.67229140  0.33584381  1.00316136  1
  Ni  Ni22  1  0.83880563  0.50383399  0.17183706  1
  Fe  Fe23  1  0.67117773  0.33881360  0.33795119  1
  Cr  Cr24  1  0.67201080  0.66947124  0.00485777  1
  Ni  Ni25  1  0.83748981  0.83800913  0.17148835  1
  Ni  Ni26  1  0.67154579  0.67010786  0.33812388  1
  Fe  Fe27  1  0.17052497  0.16752367  0.50422631  1
  Ni  Ni28  1  0.00586733  0.00452864  0.67041494  1
  Fe  Fe29  1  0.16996370  0.17034048  0.83711092  1
  Cr  Cr30  1  0.17127924  0.50509806  0.50488042  1
  Fe  Fe31  1  1.00244962  0.33601927  0.67199248  1
  Fe  Fe32  1  0.16965632  0.50455656  0.83718145  1
  Ni  Ni33  1  0.17168277  0.83856714  0.50349769  1
  Fe  Fe34  1  1.00292756  0.67225320  0.67114728  1
  Fe  Fe35  1  0.17072309  0.83771079  0.83691740  1
  Fe  Fe36  1  0.50435273  0.16977341  0.50454319  1
  Ni  Ni37  1  0.33557783  0.00505887  0.67046941  1
  Fe  Fe38  1  0.50557462  0.17087029  0.83679148  1
  Fe  Fe39  1  0.50657596  0.50538981  0.50470665  1
  Fe  Fe40  1  0.33890609  0.33662705  0.67208981  1
  Ni  Ni41  1  0.50384483  0.50446352  0.83579668  1
  Ni  Ni42  1  0.50423379  0.83763752  0.50451537  1
  Fe  Fe43  1  0.33894092  0.67215993  0.67111203  1
  Fe  Fe44  1  0.50396320  0.83803604  0.83635288  1
  Ni  Ni45  1  0.83700073  0.17007233  0.50380327  1
  Fe  Fe46  1  0.67134426  0.00430704  0.67042734  1
  Ni  Ni47  1  0.83717045  0.17124824  0.83900982  1
  Fe  Fe48  1  0.83554147  0.50542293  0.50420161  1
  Ni  Ni49  1  0.67091631  0.33955591  0.67140655  1
  Ni  Ni50  1  0.83776655  0.50227498  0.83633750  1
  Ni  Ni51  1  0.83669007  0.83870676  0.50501786  1
  Ni  Ni52  1  0.67144768  0.66907376  0.66974250  1
  Fe  Fe53  1  0.83792112  0.83772338  0.83656175  1
" 