3571,Ni36Fe35Cr27_16,-228.605351380603, 186.938776573084,Ni36Fe35Cr27,"# generated using pymatgen
 data_Cr16(FeNi)19
_symmetry_space_group_name_H-M   'P 1'
_cell_length_a   7.46495938
_cell_length_b   7.46495938
_cell_length_c   10.55704679
_cell_angle_alpha   90.00000000
_cell_angle_beta   90.00000000
_cell_angle_gamma   90.00000000
_symmetry_Int_Tables_number   1
_chemical_formula_structural   Cr16(FeNi)19
_chemical_formula_sum   'Cr16 Fe19 Ni19'
_cell_volume   588.29796216
_cell_formula_units_Z   1
loop_
 _symmetry_equiv_pos_site_id
 _symmetry_equiv_pos_as_xyz
  1  'x, y, z'
loop_
 _atom_site_type_symbol
 _atom_site_label
 _atom_site_symmetry_multiplicity
 _atom_site_fract_x
 _atom_site_fract_y
 _atom_site_fract_z
 _atom_site_occupancy
  Cr  Cr0  1  0.99886043  0.00080301  1.00000331  1
  Ni  Ni1  1  0.16776119  0.16753482  0.16964273  1
  Fe  Fe2  1  0.00143277  0.00192028  0.33292272  1
  Cr  Cr3  1  0.00078847  0.33398895  0.99759344  1
  Ni  Ni4  1  0.16683143  0.49883456  0.16857869  1
  Fe  Fe5  1  0.00245703  0.33208455  0.33313523  1
  Ni  Ni6  1  0.99879532  0.66501527  0.99857216  1
  Cr  Cr7  1  0.16777395  0.83256596  0.16801808  1
  Fe  Fe8  1  0.99976407  0.66631181  0.33310961  1
  Cr  Cr9  1  0.33559680  0.00161690  0.99984457  1
  Fe  Fe10  1  0.50041672  0.16891739  0.16893663  1
  Ni  Ni11  1  0.33533959  0.00185628  0.33404535  1
  Cr  Cr12  1  0.33348168  0.33352438  0.00038652  1
  Fe  Fe13  1  0.49834377  0.49817047  0.16885928  1
  Fe  Fe14  1  0.33448313  0.33214579  0.33290338  1
  Cr  Cr15  1  0.33456664  0.66524756  0.99983673  1
  Fe  Fe16  1  0.50028331  0.83334599  0.17032598  1
  Ni  Ni17  1  0.33533505  0.66509524  0.33295859  1
  Cr  Cr18  1  0.66614438  0.99997476  0.00050528  1
  Fe  Fe19  1  0.83379990  0.16736335  0.16843879  1
  Ni  Ni20  1  0.66581464  0.00098225  0.33142315  1
  Ni  Ni21  1  0.66585558  0.33297114  0.99921363  1
  Cr  Cr22  1  0.83207552  0.49833046  0.16688243  1
  Fe  Fe23  1  0.66338334  0.33359370  0.33314810  1
  Cr  Cr24  1  0.66653773  0.66742791  0.99986616  1
  Fe  Fe25  1  0.83449927  0.83360741  0.16885374  1
  Fe  Fe26  1  0.66438122  0.66701952  0.33410247  1
  Ni  Ni27  1  0.16913300  0.16603115  0.49917775  1
  Ni  Ni28  1  0.00022693  0.00188071  0.66720895  1
  Fe  Fe29  1  0.16718581  0.16727506  0.83072220  1
  Cr  Cr30  1  0.16750214  0.50062771  0.49863328  1
  Cr  Cr31  1  0.00030276  0.33438215  0.66784834  1
  Ni  Ni32  1  0.16741083  0.50091092  0.83347110  1
  Cr  Cr33  1  0.16757676  0.83515325  0.50104869  1
  Ni  Ni34  1  0.99608159  0.66570138  0.66807104  1
  Cr  Cr35  1  0.16627293  0.83215312  0.83106745  1
  Fe  Fe36  1  0.49887664  0.16871563  0.49931761  1
  Fe  Fe37  1  0.33378293  0.00236462  0.66709711  1
  Fe  Fe38  1  0.50238232  0.16873489  0.83120962  1
  Ni  Ni39  1  0.50195535  0.49815854  0.49937797  1
  Fe  Fe40  1  0.33486419  0.33464993  0.66720704  1
  Ni  Ni41  1  0.50145941  0.49924787  0.83268243  1
  Cr  Cr42  1  0.49930183  0.83344620  0.50137231  1
  Fe  Fe43  1  0.33462630  0.66340924  0.66788579  1
  Ni  Ni44  1  0.50141044  0.83359944  0.83086277  1
  Cr  Cr45  1  0.83233409  0.16782449  0.49847266  1
  Fe  Fe46  1  0.66898877  0.99944035  0.66905318  1
  Ni  Ni47  1  0.83061984  0.16717547  0.83383603  1
  Ni  Ni48  1  0.82997342  0.49934171  0.49945063  1
  Fe  Fe49  1  0.66684979  0.33581961  0.66808742  1
  Ni  Ni50  1  0.83155142  0.49980717  0.83301916  1
  Cr  Cr51  1  0.83363956  0.83268575  0.50027950  1
  Ni  Ni52  1  0.66588005  0.66510664  0.66709662  1
  Ni  Ni53  1  0.83256095  0.83366022  0.83188950  1
" 