1899,Ni36Fe35Cr27_12,-228.546802966319, 189.459664281811,Ni36Fe35Cr27,"# generated using pymatgen
 data_Cr16(FeNi)19
_symmetry_space_group_name_H-M   'P 1'
_cell_length_a   7.45841266
_cell_length_b   7.45841266
_cell_length_c   10.54778834
_cell_angle_alpha   90.00000000
_cell_angle_beta   90.00000000
_cell_angle_gamma   90.00000000
_symmetry_Int_Tables_number   1
_chemical_formula_structural   Cr16(FeNi)19
_chemical_formula_sum   'Cr16 Fe19 Ni19'
_cell_volume   586.75152044
_cell_formula_units_Z   1
loop_
 _symmetry_equiv_pos_site_id
 _symmetry_equiv_pos_as_xyz
  1  'x, y, z'
loop_
 _atom_site_type_symbol
 _atom_site_label
 _atom_site_symmetry_multiplicity
 _atom_site_fract_x
 _atom_site_fract_y
 _atom_site_fract_z
 _atom_site_occupancy
  Cr  Cr0  1  0.99914065  0.00067748  0.99956558  1
  Cr  Cr1  1  0.17166454  0.16892683  0.16437269  1
  Cr  Cr2  1  0.99924380  1.00026729  0.33246494  1
  Cr  Cr3  1  0.99488040  0.33242477  0.99946794  1
  Cr  Cr4  1  0.16644294  0.49878307  0.16716824  1
  Cr  Cr5  1  0.99789104  0.33284845  0.33631963  1
  Cr  Cr6  1  0.99637703  0.66913444  0.00134611  1
  Fe  Fe7  1  0.16968981  0.83424442  0.16708670  1
  Fe  Fe8  1  0.99932142  0.66641513  0.33428504  1
  Ni  Ni9  1  0.33629643  0.99970138  0.99911643  1
  Ni  Ni10  1  0.50289019  0.16497293  0.16646636  1
  Cr  Cr11  1  0.33446197  0.00094167  0.33507657  1
  Fe  Fe12  1  0.33860552  0.32997682  0.99830519  1
  Cr  Cr13  1  0.50257271  0.49732478  0.16534094  1
  Ni  Ni14  1  0.33616327  0.33241679  0.33520585  1
  Cr  Cr15  1  0.33819148  0.67145773  0.99788052  1
  Ni  Ni16  1  0.50503930  0.83700563  0.16729197  1
  Cr  Cr17  1  0.33427784  0.66839187  0.33507276  1
  Ni  Ni18  1  0.66520113  1.00044110  0.00085934  1
  Fe  Fe19  1  0.82778890  0.16931962  0.16633717  1
  Fe  Fe20  1  0.66689292  0.00453011  0.33207050  1
  Ni  Ni21  1  0.66770526  0.33365778  0.99784864  1
  Ni  Ni22  1  0.83185161  0.50248708  0.16911942  1
  Ni  Ni23  1  0.66798165  0.33290950  0.33564206  1
  Ni  Ni24  1  0.66733263  0.66776224  0.99945883  1
  Fe  Fe25  1  0.82934076  0.83365696  0.16763812  1
  Fe  Fe26  1  0.66938546  0.66631106  0.33227052  1
  Fe  Fe27  1  0.16835462  0.16638437  0.50250524  1
  Fe  Fe28  1  0.00079536  0.00210988  0.66831649  1
  Ni  Ni29  1  0.16763492  0.16599760  0.83304584  1
  Ni  Ni30  1  0.16394204  0.50080141  0.50019012  1
  Ni  Ni31  1  0.99881025  0.33234673  0.66569096  1
  Cr  Cr32  1  0.16584547  0.49881956  0.83517058  1
  Ni  Ni33  1  0.16471540  0.83222779  0.50360909  1
  Fe  Fe34  1  1.00010283  0.66484207  0.66740473  1
  Fe  Fe35  1  0.16815068  0.83763578  0.83105600  1
  Ni  Ni36  1  0.50327313  0.16701090  0.49969124  1
  Fe  Fe37  1  0.33434459  1.00035065  0.66868335  1
  Ni  Ni38  1  0.50167578  0.16353596  0.83631359  1
  Cr  Cr39  1  0.50188972  0.49943334  0.50079888  1
  Cr  Cr40  1  0.33502135  0.33229295  0.66709760  1
  Fe  Fe41  1  0.50475352  0.49881036  0.83360819  1
  Cr  Cr42  1  0.50308307  0.83699073  0.50191480  1
  Fe  Fe43  1  0.33304020  0.66826472  0.66756931  1
  Ni  Ni44  1  0.50296488  0.83566526  0.83252003  1
  Fe  Fe45  1  0.83186826  0.16798241  0.50327098  1
  Fe  Fe46  1  0.66659919  0.00385509  0.66974786  1
  Ni  Ni47  1  0.83273631  0.16732055  0.83284096  1
  Fe  Fe48  1  0.83310297  0.50075792  0.50285172  1
  Fe  Fe49  1  0.66890272  0.33267133  0.66856112  1
  Ni  Ni50  1  0.83270808  0.50116139  0.83172173  1
  Cr  Cr51  1  0.83247665  0.83398901  0.50133140  1
  Ni  Ni52  1  0.66723048  0.66749407  0.67005323  1
  Fe  Fe53  1  0.83060604  0.83552037  0.83261607  1
" 