2463,Ni36Fe24Cr39_8,-223.563368771217, 177.641656079756,Ni36Fe24Cr39,"# generated using pymatgen
 data_Cr23Fe12Ni19
_symmetry_space_group_name_H-M   'P 1'
_cell_length_a   7.48213214
_cell_length_b   7.48213214
_cell_length_c   10.58133275
_cell_angle_alpha   90.00000000
_cell_angle_beta   90.00000000
_cell_angle_gamma   90.00000000
_symmetry_Int_Tables_number   1
_chemical_formula_structural   Cr23Fe12Ni19
_chemical_formula_sum   'Cr23 Fe12 Ni19'
_cell_volume   592.36735824
_cell_formula_units_Z   1
loop_
 _symmetry_equiv_pos_site_id
 _symmetry_equiv_pos_as_xyz
  1  'x, y, z'
loop_
 _atom_site_type_symbol
 _atom_site_label
 _atom_site_symmetry_multiplicity
 _atom_site_fract_x
 _atom_site_fract_y
 _atom_site_fract_z
 _atom_site_occupancy
  Ni  Ni0  1  0.00196195  0.99673251  0.00056022  1
  Ni  Ni1  1  0.16673957  0.16368275  0.16462765  1
  Cr  Cr2  1  0.00318939  0.99865246  0.33084841  1
  Fe  Fe3  1  0.00147874  0.33178883  -0.00001894  1
  Cr  Cr4  1  0.16429830  0.50143421  0.16351457  1
  Fe  Fe5  1  0.00206288  0.33343052  0.33256982  1
  Ni  Ni6  1  -0.00021630  0.66804674  0.00148506  1
  Ni  Ni7  1  0.16697729  0.83287359  0.16459450  1
  Fe  Fe8  1  0.00155029  0.66573320  0.32969446  1
  Ni  Ni9  1  0.33044362  0.99887577  0.00230503  1
  Ni  Ni10  1  0.49533809  0.16270193  0.16400914  1
  Ni  Ni11  1  0.33077556  0.99708155  0.32973671  1
  Fe  Fe12  1  0.33169095  0.33079432  0.99875760  1
  Cr  Cr13  1  0.49744791  0.50052714  0.16493263  1
  Cr  Cr14  1  0.33005335  0.33105455  0.33360561  1
  Ni  Ni15  1  0.33152024  0.66741480  0.99865245  1
  Ni  Ni16  1  0.49489637  0.83413507  0.16700929  1
  Ni  Ni17  1  0.33147699  0.66778415  0.33376086  1
  Cr  Cr18  1  0.66422382  0.99719524  0.99872659  1
  Cr  Cr19  1  0.83337669  0.16683604  0.16594326  1
  Cr  Cr20  1  0.66287695  0.99676667  0.33003369  1
  Cr  Cr21  1  0.66266522  0.33312821  0.99866773  1
  Fe  Fe22  1  0.83527767  0.50139370  0.16522548  1
  Cr  Cr23  1  0.66563440  0.33371970  0.33132524  1
  Cr  Cr24  1  0.66564549  0.66673825  0.99888068  1
  Ni  Ni25  1  0.83527916  0.83073907  0.16406463  1
  Cr  Cr26  1  0.66471584  0.66679137  0.33050412  1
  Fe  Fe27  1  0.16642131  0.16555175  0.50119064  1
  Ni  Ni28  1  0.00157353  -0.00066373  0.66615231  1
  Cr  Cr29  1  0.16596501  0.16470628  0.83238058  1
  Fe  Fe30  1  0.16733202  0.49860791  0.50008180  1
  Ni  Ni31  1  0.00346112  0.33196908  0.66280231  1
  Cr  Cr32  1  0.16763177  0.49985314  0.83288402  1
  Cr  Cr33  1  0.16975634  0.83146908  0.49964669  1
  Fe  Fe34  1  -0.00086354  0.66552446  0.66637246  1
  Cr  Cr35  1  0.16689508  0.83244868  0.83332168  1
  Cr  Cr36  1  0.49674173  0.16297638  0.49930534  1
  Ni  Ni37  1  0.33079996  -0.00039295  0.66493702  1
  Fe  Fe38  1  0.49467527  0.16539098  0.83241386  1
  Fe  Fe39  1  0.49613292  0.50311001  0.50107962  1
  Ni  Ni40  1  0.33007572  0.33362355  0.66536056  1
  Ni  Ni41  1  0.49718866  0.50126854  0.83006976  1
  Ni  Ni42  1  0.49495904  0.82980273  0.49917448  1
  Fe  Fe43  1  0.33538514  0.66538748  0.66544281  1
  Ni  Ni44  1  0.49729287  0.83052056  0.83081303  1
  Cr  Cr45  1  0.83508034  0.16682366  0.50006697  1
  Cr  Cr46  1  0.66501797  0.99453047  0.66822093  1
  Cr  Cr47  1  0.83433046  0.16435207  0.83086099  1
  Cr  Cr48  1  0.83447697  0.49840664  0.49802228  1
  Cr  Cr49  1  0.66242175  0.33586461  0.66675333  1
  Cr  Cr50  1  0.83333130  0.49975757  0.83290563  1
  Cr  Cr51  1  0.83162361  0.83184161  0.50227272  1
  Ni  Ni52  1  0.66323833  0.66601959  0.66681192  1
  Fe  Fe53  1  0.83324090  0.83076355  0.83220582  1
" 