631,Ni36Fe3Cr60_12,-213.847274882469, 136.114340846834,Ni36Fe3Cr60,"# generated using pymatgen
 data_Cr34FeNi19
_symmetry_space_group_name_H-M   'P 1'
_cell_length_a   7.55121286
_cell_length_b   7.55121286
_cell_length_c   10.67902764
_cell_angle_alpha   90.00000000
_cell_angle_beta   90.00000000
_cell_angle_gamma   90.00000000
_symmetry_Int_Tables_number   1
_chemical_formula_structural   Cr34FeNi19
_chemical_formula_sum   'Cr34 Fe1 Ni19'
_cell_volume   608.92686608
_cell_formula_units_Z   1
loop_
 _symmetry_equiv_pos_site_id
 _symmetry_equiv_pos_as_xyz
  1  'x, y, z'
loop_
 _atom_site_type_symbol
 _atom_site_label
 _atom_site_symmetry_multiplicity
 _atom_site_fract_x
 _atom_site_fract_y
 _atom_site_fract_z
 _atom_site_occupancy
  Cr  Cr0  1  -0.00539981  0.99172376  0.99373355  1
  Ni  Ni1  1  0.16418075  0.16013672  0.16241240  1
  Ni  Ni2  1  -0.00297424  -0.00265601  0.32689893  1
  Cr  Cr3  1  -0.00433142  0.32877017  0.99366031  1
  Cr  Cr4  1  0.16127078  0.48978556  0.16082545  1
  Ni  Ni5  1  0.99320030  0.32509025  0.32698795  1
  Cr  Cr6  1  0.99250573  0.66275092  0.99109575  1
  Cr  Cr7  1  0.16277801  0.83290192  0.16234760  1
  Cr  Cr8  1  0.99391705  0.66232217  0.32724261  1
  Ni  Ni9  1  0.33026345  -0.00144863  0.99437562  1
  Ni  Ni10  1  0.49101353  0.16000662  0.15987789  1
  Ni  Ni11  1  0.32684241  -0.00217297  0.32706544  1
  Ni  Ni12  1  0.32966401  0.32239435  -0.00461374  1
  Cr  Cr13  1  0.49647128  0.49481664  0.16068819  1
  Cr  Cr14  1  0.33050369  0.32424562  0.32660004  1
  Cr  Cr15  1  0.32679621  0.66167256  -0.00542919  1
  Cr  Cr16  1  0.49569114  0.82887847  0.16013216  1
  Cr  Cr17  1  0.32854902  0.66284210  0.32828905  1
  Ni  Ni18  1  0.65756846  0.99361947  0.99291493  1
  Cr  Cr19  1  0.82949237  0.16104494  0.16362927  1
  Cr  Cr20  1  0.65866619  -0.00309866  0.32792439  1
  Cr  Cr21  1  0.65765249  0.32577753  0.99367669  1
  Cr  Cr22  1  0.82554046  0.49405712  0.16314698  1
  Ni  Ni23  1  0.66126778  0.32752266  0.32812149  1
  Ni  Ni24  1  0.66328381  0.66297767  0.99182955  1
  Cr  Cr25  1  0.82464765  0.82814627  0.16107171  1
  Ni  Ni26  1  0.66189436  0.65881863  0.32831626  1
  Cr  Cr27  1  0.16081443  0.15952960  0.49269148  1
  Cr  Cr28  1  0.99332688  0.99117890  0.66266545  1
  Cr  Cr29  1  0.16448717  0.15922146  0.82895310  1
  Cr  Cr30  1  0.16137535  0.49347706  0.49497441  1
  Cr  Cr31  1  0.99274357  0.32967248  0.66207494  1
  Cr  Cr32  1  0.16211553  0.49433051  0.82757076  1
  Cr  Cr33  1  0.16394092  0.83029881  0.49467468  1
  Cr  Cr34  1  -0.00511623  0.66243102  0.66487574  1
  Ni  Ni35  1  0.16206577  0.82867877  0.82634608  1
  Ni  Ni36  1  0.49440231  0.15896144  0.49463846  1
  Ni  Ni37  1  0.33175167  0.99255409  0.66192229  1
  Ni  Ni38  1  0.49360247  0.15777987  0.82870483  1
  Cr  Cr39  1  0.49589371  0.49636836  0.49432410  1
  Cr  Cr40  1  0.33111500  0.32619317  0.66109941  1
  Cr  Cr41  1  0.49511920  0.49529689  0.82833223  1
  Cr  Cr42  1  0.49394508  0.82836509  0.49616948  1
  Ni  Ni43  1  0.32755969  0.66445283  0.66185805  1
  Cr  Cr44  1  0.49493834  0.82983484  0.82715689  1
  Cr  Cr45  1  0.82794716  0.16128813  0.49230530  1
  Ni  Ni46  1  0.65752324  0.99410020  0.66237991  1
  Cr  Cr47  1  0.82542193  0.15936302  0.82725375  1
  Cr  Cr48  1  0.82618800  0.49303569  0.49181277  1
  Cr  Cr49  1  0.65945894  0.32483136  0.66101019  1
  Ni  Ni50  1  0.82588670  0.49873168  0.82780010  1
  Cr  Cr51  1  0.82527892  0.82891654  0.49364369  1
  Fe  Fe52  1  0.66081647  0.66338179  0.66299102  1
  Ni  Ni53  1  0.82550236  0.82586059  0.82800966  1
" 