1381,Ni36Fe41Cr21_5,-230.303575472152, 194.082909950739,Ni36Fe41Cr21,"# generated using pymatgen
 data_Cr13Fe22Ni19
_symmetry_space_group_name_H-M   'P 1'
_cell_length_a   7.44609633
_cell_length_b   7.44609633
_cell_length_c   10.53037041
_cell_angle_alpha   90.00000000
_cell_angle_beta   90.00000000
_cell_angle_gamma   90.00000000
_symmetry_Int_Tables_number   1
_chemical_formula_structural   Cr13Fe22Ni19
_chemical_formula_sum   'Cr13 Fe22 Ni19'
_cell_volume   583.84954797
_cell_formula_units_Z   1
loop_
 _symmetry_equiv_pos_site_id
 _symmetry_equiv_pos_as_xyz
  1  'x, y, z'
loop_
 _atom_site_type_symbol
 _atom_site_label
 _atom_site_symmetry_multiplicity
 _atom_site_fract_x
 _atom_site_fract_y
 _atom_site_fract_z
 _atom_site_occupancy
  Fe  Fe0  1  1.00132977  0.99973998  1.00089964  1
  Cr  Cr1  1  0.16780661  0.16738123  0.16768578  1
  Fe  Fe2  1  0.00207602  1.00060535  0.33586515  1
  Fe  Fe3  1  0.00162880  0.33623989  0.99980602  1
  Ni  Ni4  1  0.16530687  0.50214772  0.16739812  1
  Fe  Fe5  1  0.99974217  0.33328601  0.33537767  1
  Fe  Fe6  1  0.99886351  0.66818524  1.00127877  1
  Ni  Ni7  1  0.16448281  0.83491815  0.16843450  1
  Fe  Fe8  1  1.00108362  0.66976670  0.33407748  1
  Fe  Fe9  1  0.33412934  1.00079791  0.99944519  1
  Cr  Cr10  1  0.50030906  0.16857730  0.16932940  1
  Ni  Ni11  1  0.33318452  0.00148077  0.33589327  1
  Fe  Fe12  1  0.33360810  0.33464834  0.99905420  1
  Cr  Cr13  1  0.50134126  0.50016088  0.16809035  1
  Ni  Ni14  1  0.33115227  0.33362330  0.33482653  1
  Cr  Cr15  1  0.33386704  0.66840613  1.00079044  1
  Fe  Fe16  1  0.49881374  0.83605366  0.16676235  1
  Cr  Cr17  1  0.33269534  0.67096180  0.33514570  1
  Cr  Cr18  1  0.66978343  1.00021894  0.00158903  1
  Ni  Ni19  1  0.83760509  0.16737019  0.16871585  1
  Cr  Cr20  1  0.66993518  0.00190613  0.33432139  1
  Cr  Cr21  1  0.67154021  0.33426113  0.99988765  1
  Fe  Fe22  1  0.83871073  0.50077418  0.16685532  1
  Fe  Fe23  1  0.66970099  0.33302884  0.33629593  1
  Ni  Ni24  1  0.66963200  0.66897289  1.00051959  1
  Fe  Fe25  1  0.83814240  0.83402636  0.16695296  1
  Cr  Cr26  1  0.67080980  0.66969098  0.33391272  1
  Ni  Ni27  1  0.16748988  0.16615637  0.50073364  1
  Fe  Fe28  1  1.00124541  0.00291570  0.66785215  1
  Fe  Fe29  1  0.16664148  0.16628492  0.83454909  1
  Cr  Cr30  1  0.16605684  0.50067300  0.50102899  1
  Ni  Ni31  1  0.99887158  0.33422028  0.66904090  1
  Fe  Fe32  1  0.16569470  0.50134127  0.83551581  1
  Fe  Fe33  1  0.16617746  0.83938485  0.50118209  1
  Fe  Fe34  1  0.99893596  0.66895452  0.66873780  1
  Fe  Fe35  1  0.16732889  0.83656829  0.83519658  1
  Ni  Ni36  1  0.50086408  0.16730515  0.50126022  1
  Ni  Ni37  1  0.33499860  1.00084309  0.66783193  1
  Ni  Ni38  1  0.49992378  0.16726381  0.83357122  1
  Cr  Cr39  1  0.50379270  0.49891324  0.50287221  1
  Cr  Cr40  1  0.33331861  0.33287501  0.67046609  1
  Ni  Ni41  1  0.50389657  0.50117870  0.83464436  1
  Fe  Fe42  1  0.50267217  0.83904354  0.50318929  1
  Cr  Cr43  1  0.33356211  0.67114112  0.66851113  1
  Ni  Ni44  1  0.50340676  0.83572502  0.83398172  1
  Ni  Ni45  1  0.83578372  0.16602592  0.50252863  1
  Ni  Ni46  1  0.66880571  0.00193883  0.66863961  1
  Fe  Fe47  1  0.83375035  0.16747590  0.83272461  1
  Fe  Fe48  1  0.83560646  0.49915458  0.50344926  1
  Ni  Ni49  1  0.67168855  0.33208956  0.66815105  1
  Ni  Ni50  1  0.83499778  0.50390653  0.83324190  1
  Ni  Ni51  1  0.83700224  0.83460226  0.50310921  1
  Fe  Fe52  1  0.67005682  0.66880680  0.67008654  1
  Ni  Ni53  1  0.83612076  0.83395237  0.83466359  1
" 