3851,Ni36Fe35Cr27_2,-228.418662512191, 192.657177213106,Ni36Fe35Cr27,"# generated using pymatgen
 data_Cr16(FeNi)19
_symmetry_space_group_name_H-M   'P 1'
_cell_length_a   7.45544827
_cell_length_b   7.45544827
_cell_length_c   10.54359605
_cell_angle_alpha   90.00000000
_cell_angle_beta   90.00000000
_cell_angle_gamma   90.00000000
_symmetry_Int_Tables_number   1
_chemical_formula_structural   Cr16(FeNi)19
_chemical_formula_sum   'Cr16 Fe19 Ni19'
_cell_volume   586.05217353
_cell_formula_units_Z   1
loop_
 _symmetry_equiv_pos_site_id
 _symmetry_equiv_pos_as_xyz
  1  'x, y, z'
loop_
 _atom_site_type_symbol
 _atom_site_label
 _atom_site_symmetry_multiplicity
 _atom_site_fract_x
 _atom_site_fract_y
 _atom_site_fract_z
 _atom_site_occupancy
  Ni  Ni0  1  0.00086755  1.00075872  0.00081364  1
  Cr  Cr1  1  0.16649205  0.16633093  0.17159763  1
  Fe  Fe2  1  0.99878253  0.00120768  0.33512120  1
  Cr  Cr3  1  0.00272884  0.33443628  0.99942464  1
  Ni  Ni4  1  0.16509576  0.50333960  0.16826268  1
  Fe  Fe5  1  0.99883090  0.33680756  0.33595905  1
  Ni  Ni6  1  0.00178150  0.66748130  0.00167939  1
  Fe  Fe7  1  0.16871363  0.83140282  0.16847251  1
  Ni  Ni8  1  0.00305034  0.66522804  0.33338797  1
  Cr  Cr9  1  0.33401001  0.00091716  0.00132891  1
  Ni  Ni10  1  0.50259766  0.16641455  0.16780425  1
  Fe  Fe11  1  0.33617300  0.99997137  0.33449236  1
  Cr  Cr12  1  0.33175536  0.33409130  0.99925349  1
  Cr  Cr13  1  0.50083646  0.49919396  0.16765583  1
  Fe  Fe14  1  0.33481540  0.33571406  0.33589520  1
  Fe  Fe15  1  0.33027791  0.66750461  0.00236678  1
  Ni  Ni16  1  0.49912810  0.83550008  0.16714583  1
  Fe  Fe17  1  0.33493106  0.66632356  0.33479218  1
  Fe  Fe18  1  0.66983806  0.00175384  0.00127484  1
  Fe  Fe19  1  0.83237244  0.16965071  0.16682661  1
  Cr  Cr20  1  0.66555400  1.00065626  0.33514738  1
  Fe  Fe21  1  0.67018930  0.33142120  0.00301250  1
  Ni  Ni22  1  0.83643874  0.49990671  0.16904697  1
  Ni  Ni23  1  0.66699355  0.33293873  0.33348189  1
  Cr  Cr24  1  0.66727959  0.66854210  0.00090468  1
  Cr  Cr25  1  0.83734058  0.83462578  0.16705655  1
  Cr  Cr26  1  0.66753803  0.66654375  0.33788709  1
  Fe  Fe27  1  0.17059743  0.16988522  0.50024903  1
  Cr  Cr28  1  0.99960006  0.00296440  0.66699373  1
  Ni  Ni29  1  0.16595556  0.16727942  0.83006935  1
  Ni  Ni30  1  0.16607142  0.50053591  0.50151209  1
  Ni  Ni31  1  0.00462450  0.33507351  0.66685212  1
  Ni  Ni32  1  0.16673717  0.50243732  0.83181684  1
  Cr  Cr33  1  0.16591157  0.83350862  0.49769751  1
  Ni  Ni34  1  0.99996999  0.66586731  0.66672609  1
  Cr  Cr35  1  0.16623132  0.83214511  0.83527426  1
  Ni  Ni36  1  0.50084350  0.16751842  0.50045090  1
  Fe  Fe37  1  0.33499710  0.00088288  0.66626643  1
  Cr  Cr38  1  0.50263623  0.16675918  0.83369850  1
  Ni  Ni39  1  0.49941370  0.49957383  0.50074914  1
  Fe  Fe40  1  0.33217339  0.33466610  0.66572238  1
  Cr  Cr41  1  0.49931484  0.50251874  0.83280467  1
  Ni  Ni42  1  0.49994930  0.83540967  0.50378720  1
  Fe  Fe43  1  0.33354890  0.66640816  0.66523126  1
  Fe  Fe44  1  0.50156506  0.83402836  0.83198979  1
  Fe  Fe45  1  0.83348297  0.16889550  0.50117440  1
  Ni  Ni46  1  0.66611188  0.99828119  0.66790713  1
  Ni  Ni47  1  0.83463239  0.16447503  0.83582253  1
  Fe  Fe48  1  0.83537299  0.50072886  0.50069206  1
  Cr  Cr49  1  0.66889595  0.33411872  0.66562877  1
  Cr  Cr50  1  0.83504113  0.50166919  0.83271557  1
  Fe  Fe51  1  0.83367300  0.83245727  0.50207815  1
  Ni  Ni52  1  0.66665110  0.67052167  0.66433252  1
  Fe  Fe53  1  0.83359231  0.83473495  0.83367269  1
" 