1253,Ni36Fe60Cr2_14,-235.994582100489, 206.785964195582,Ni36Fe60Cr2,"# generated using pymatgen
 data_Cr3Fe32Ni19
_symmetry_space_group_name_H-M   'P 1'
_cell_length_a   7.40754760
_cell_length_b   7.40754760
_cell_length_c   10.47585428
_cell_angle_alpha   90.00000000
_cell_angle_beta   90.00000000
_cell_angle_gamma   90.00000000
_symmetry_Int_Tables_number   1
_chemical_formula_structural   Cr3Fe32Ni19
_chemical_formula_sum   'Cr3 Fe32 Ni19'
_cell_volume   574.82857721
_cell_formula_units_Z   1
loop_
 _symmetry_equiv_pos_site_id
 _symmetry_equiv_pos_as_xyz
  1  'x, y, z'
loop_
 _atom_site_type_symbol
 _atom_site_label
 _atom_site_symmetry_multiplicity
 _atom_site_fract_x
 _atom_site_fract_y
 _atom_site_fract_z
 _atom_site_occupancy
  Fe  Fe0  1  0.00437451  0.00407374  1.00323936  1
  Fe  Fe1  1  0.17056796  0.17049286  0.17004320  1
  Fe  Fe2  1  1.00350963  1.00316804  0.33799960  1
  Fe  Fe3  1  0.00461255  0.33772652  1.00363324  1
  Fe  Fe4  1  0.17046514  0.50574278  0.17013197  1
  Fe  Fe5  1  0.00426824  0.33712851  0.33655142  1
  Ni  Ni6  1  0.00482830  0.67082476  0.00432655  1
  Fe  Fe7  1  0.16999109  0.83581042  0.17091381  1
  Ni  Ni8  1  0.00731229  0.67116951  0.33704753  1
  Fe  Fe9  1  0.33761286  1.00338043  1.00378755  1
  Fe  Fe10  1  0.50530269  0.17018055  0.17058532  1
  Fe  Fe11  1  0.33799506  1.00244234  0.33751765  1
  Ni  Ni12  1  0.33769540  0.33790692  1.00361200  1
  Fe  Fe13  1  0.50340590  0.50406159  0.16993528  1
  Fe  Fe14  1  0.33651418  0.33712834  0.33607091  1
  Ni  Ni15  1  0.33617419  0.66936008  0.00417829  1
  Ni  Ni16  1  0.50312227  0.83781449  0.17044330  1
  Ni  Ni17  1  0.33389121  0.67052450  0.33685667  1
  Ni  Ni18  1  0.67104328  0.00483351  1.00352725  1
  Fe  Fe19  1  0.83617982  0.16970604  0.17088111  1
  Ni  Ni20  1  0.67083822  0.00658766  0.33915957  1
  Fe  Fe21  1  0.67075222  0.33796094  1.00356288  1
  Ni  Ni22  1  0.83862509  0.50325923  0.16974033  1
  Fe  Fe23  1  0.67126941  0.33464719  0.33639024  1
  Fe  Fe24  1  0.67005646  0.67117687  0.00473585  1
  Ni  Ni25  1  0.83702771  0.83733439  0.17052852  1
  Cr  Cr26  1  0.67124628  0.67349435  0.33538826  1
  Fe  Fe27  1  0.17063565  0.17031789  0.50465170  1
  Ni  Ni28  1  1.00337573  1.00330795  0.67043126  1
  Ni  Ni29  1  0.16937569  0.17191852  0.83726617  1
  Fe  Fe30  1  0.17060258  0.50484846  0.50410794  1
  Fe  Fe31  1  0.00432860  0.33595832  0.67186004  1
  Ni  Ni32  1  0.17052734  0.50291213  0.83668764  1
  Fe  Fe33  1  0.17012858  0.83688061  0.50398940  1
  Ni  Ni34  1  0.00536770  0.67209655  0.67067430  1
  Fe  Fe35  1  0.17006613  0.83731263  0.83714514  1
  Fe  Fe36  1  0.50521118  0.16901007  0.50384575  1
  Fe  Fe37  1  0.33708026  1.00372646  0.67074295  1
  Fe  Fe38  1  0.50375601  0.17117053  0.83762117  1
  Cr  Cr39  1  0.50218160  0.50573190  0.50429266  1
  Fe  Fe40  1  0.33541124  0.33655364  0.67240739  1
  Fe  Fe41  1  0.50322633  0.50300265  0.83720194  1
  Ni  Ni42  1  0.50229164  0.83948232  0.50423973  1
  Fe  Fe43  1  0.33654065  0.67177121  0.67153737  1
  Ni  Ni44  1  0.50382955  0.83664376  0.83736909  1
  Ni  Ni45  1  0.83842115  0.16947771  0.50294150  1
  Fe  Fe46  1  0.67161649  1.00387824  0.67052608  1
  Ni  Ni47  1  0.83883480  0.17134834  0.83778175  1
  Cr  Cr48  1  0.83995271  0.50237694  0.50509152  1
  Ni  Ni49  1  0.66971002  0.33468870  0.67220984  1
  Fe  Fe50  1  0.83799590  0.50379555  0.83723410  1
  Fe  Fe51  1  0.83817932  0.84013379  0.50435908  1
  Fe  Fe52  1  0.67102413  0.67274817  0.67206341  1
  Fe  Fe53  1  0.83852051  0.83784382  0.83780685  1
" 