8031,Ni36Fe60Cr2_6,-235.792973545938, 211.178446569079,Ni36Fe60Cr2,"# generated using pymatgen
 data_Cr3Fe32Ni19
_symmetry_space_group_name_H-M   'P 1'
_cell_length_a   7.40476920
_cell_length_b   7.40476920
_cell_length_c   10.47192502
_cell_angle_alpha   90.00000000
_cell_angle_beta   90.00000000
_cell_angle_gamma   90.00000000
_symmetry_Int_Tables_number   1
_chemical_formula_structural   Cr3Fe32Ni19
_chemical_formula_sum   'Cr3 Fe32 Ni19'
_cell_volume   574.18200373
_cell_formula_units_Z   1
loop_
 _symmetry_equiv_pos_site_id
 _symmetry_equiv_pos_as_xyz
  1  'x, y, z'
loop_
 _atom_site_type_symbol
 _atom_site_label
 _atom_site_symmetry_multiplicity
 _atom_site_fract_x
 _atom_site_fract_y
 _atom_site_fract_z
 _atom_site_occupancy
  Ni  Ni0  1  0.00570235  1.00376247  1.00321677  1
  Fe  Fe1  1  0.17296519  0.17142281  0.16951671  1
  Cr  Cr2  1  0.00428763  0.00446798  0.33700371  1
  Fe  Fe3  1  0.00487003  0.33767220  1.00362684  1
  Ni  Ni4  1  0.16935540  0.50424430  0.17146181  1
  Fe  Fe5  1  0.00429472  0.33906187  0.33803950  1
  Ni  Ni6  1  1.00301923  0.67115998  0.00477416  1
  Fe  Fe7  1  0.17250257  0.83689833  0.16983656  1
  Fe  Fe8  1  1.00364215  0.66766528  0.33676097  1
  Ni  Ni9  1  0.33692121  0.00512162  0.00578588  1
  Ni  Ni10  1  0.50458147  0.16889689  0.17112587  1
  Fe  Fe11  1  0.34076855  0.00578214  0.33637060  1
  Fe  Fe12  1  0.33609454  0.33709256  1.00369027  1
  Cr  Cr13  1  0.50304899  0.50394341  0.17023776  1
  Ni  Ni14  1  0.33782443  0.33639454  0.33877250  1
  Fe  Fe15  1  0.33635758  0.67198903  1.00365024  1
  Ni  Ni16  1  0.50465402  0.83972619  0.17156273  1
  Fe  Fe17  1  0.33772460  0.67002957  0.33714193  1
  Fe  Fe18  1  0.67124332  1.00310742  0.00465004  1
  Fe  Fe19  1  0.83614394  0.17194040  0.17074294  1
  Fe  Fe20  1  0.66898324  0.00513954  0.33760524  1
  Fe  Fe21  1  0.67165109  0.33662617  1.00401795  1
  Fe  Fe22  1  0.83831441  0.50439863  0.17076656  1
  Ni  Ni23  1  0.67031863  0.33760198  0.33851868  1
  Ni  Ni24  1  0.67219831  0.67068928  1.00390155  1
  Fe  Fe25  1  0.83650183  0.83627661  0.16948815  1
  Fe  Fe26  1  0.67124115  0.67146257  0.33837500  1
  Fe  Fe27  1  0.17098733  0.17269176  0.50565559  1
  Fe  Fe28  1  1.00289103  0.00459053  0.67168505  1
  Ni  Ni29  1  0.17052928  0.17132427  0.83706529  1
  Fe  Fe30  1  0.16967889  0.50256834  0.50415434  1
  Ni  Ni31  1  0.00448736  0.33780424  0.66986955  1
  Ni  Ni32  1  0.17207681  0.50374450  0.83711309  1
  Cr  Cr33  1  0.17036942  0.83637134  0.50611696  1
  Ni  Ni34  1  1.00201604  0.66973755  0.67140062  1
  Fe  Fe35  1  0.17076846  0.83750052  0.83755073  1
  Fe  Fe36  1  0.50464926  0.17038789  0.50332629  1
  Ni  Ni37  1  0.33797170  0.00569277  0.67078744  1
  Fe  Fe38  1  0.50321455  0.17096506  0.83800582  1
  Fe  Fe39  1  0.50527562  0.50419620  0.50419362  1
  Fe  Fe40  1  0.33685207  0.33833955  0.67107206  1
  Ni  Ni41  1  0.50326505  0.50425310  0.83781006  1
  Fe  Fe42  1  0.50646567  0.83803315  0.50411414  1
  Fe  Fe43  1  0.33792764  0.66955633  0.67183075  1
  Fe  Fe44  1  0.50364720  0.83711089  0.83790779  1
  Ni  Ni45  1  0.83644982  0.17096642  0.50537111  1
  Fe  Fe46  1  0.67202629  1.00351259  0.67036519  1
  Fe  Fe47  1  0.83840163  0.17153426  0.83710436  1
  Fe  Fe48  1  0.83765745  0.50439131  0.50448068  1
  Fe  Fe49  1  0.67119911  0.33787819  0.67031554  1
  Fe  Fe50  1  0.83801183  0.50477031  0.83736800  1
  Ni  Ni51  1  0.83554987  0.83774633  0.50467218  1
  Ni  Ni52  1  0.67175973  0.67072565  0.67014937  1
  Ni  Ni53  1  0.83774601  0.83811884  0.83695913  1
" 