6055,Ni36Fe2Cr60_7,-213.912927113898, 140.420045306717,Ni36Fe2Cr60,"# generated using pymatgen
 data_Cr34FeNi19
_symmetry_space_group_name_H-M   'P 1'
_cell_length_a   7.54715038
_cell_length_b   7.54715038
_cell_length_c   10.67328243
_cell_angle_alpha   90.00000000
_cell_angle_beta   90.00000000
_cell_angle_gamma   90.00000000
_symmetry_Int_Tables_number   1
_chemical_formula_structural   Cr34FeNi19
_chemical_formula_sum   'Cr34 Fe1 Ni19'
_cell_volume   607.94460483
_cell_formula_units_Z   1
loop_
 _symmetry_equiv_pos_site_id
 _symmetry_equiv_pos_as_xyz
  1  'x, y, z'
loop_
 _atom_site_type_symbol
 _atom_site_label
 _atom_site_symmetry_multiplicity
 _atom_site_fract_x
 _atom_site_fract_y
 _atom_site_fract_z
 _atom_site_occupancy
  Fe  Fe0  1  0.99297568  -0.00249188  -0.00498937  1
  Cr  Cr1  1  0.16080899  0.16114988  0.16077129  1
  Ni  Ni2  1  0.99378345  0.99231555  0.32825897  1
  Cr  Cr3  1  0.99126622  0.32953092  -0.00442804  1
  Ni  Ni4  1  0.16240178  0.49376460  0.16235286  1
  Cr  Cr5  1  -0.00482734  0.32959682  0.32453556  1
  Cr  Cr6  1  0.99401778  0.65753913  -0.00481687  1
  Cr  Cr7  1  0.15960175  0.83050055  0.15998114  1
  Ni  Ni8  1  0.99334316  0.66253554  0.32797592  1
  Ni  Ni9  1  0.32846852  -0.00151838  0.99314846  1
  Cr  Cr10  1  0.49366967  0.16354867  0.16043683  1
  Cr  Cr11  1  0.32862699  -0.00400358  0.33058003  1
  Ni  Ni12  1  0.32979126  0.32667613  -0.00379404  1
  Ni  Ni13  1  0.49537678  0.49207269  0.16120894  1
  Ni  Ni14  1  0.32898196  0.32900893  0.32665853  1
  Cr  Cr15  1  0.32696442  0.65996604  -0.00446002  1
  Cr  Cr16  1  0.49567586  0.82633406  0.16006164  1
  Cr  Cr17  1  0.32638950  0.66014295  0.32700792  1
  Cr  Cr18  1  0.66155953  -0.00069285  0.99441114  1
  Ni  Ni19  1  0.82878215  0.16273119  0.16004877  1
  Cr  Cr20  1  0.66257073  -0.00468065  0.32928887  1
  Ni  Ni21  1  0.66204058  0.32702233  0.99423419  1
  Ni  Ni22  1  0.82661992  0.49411409  0.16206557  1
  Cr  Cr23  1  0.66143696  0.32680900  0.32606083  1
  Cr  Cr24  1  0.66336402  0.65787744  -0.00390755  1
  Cr  Cr25  1  0.82904932  0.82895047  0.16414262  1
  Ni  Ni26  1  0.66469707  0.65997929  0.32659642  1
  Cr  Cr27  1  0.16017385  0.16075622  0.49303946  1
  Ni  Ni28  1  0.99330544  0.99398305  0.66108779  1
  Cr  Cr29  1  0.16097890  0.16050918  0.82983120  1
  Cr  Cr30  1  0.16102414  0.49443895  0.49324737  1
  Cr  Cr31  1  0.99112778  0.32724465  0.66384943  1
  Cr  Cr32  1  0.16208576  0.49270771  0.82787269  1
  Ni  Ni33  1  0.15587430  0.82942304  0.49404280  1
  Cr  Cr34  1  -0.00487504  0.66147859  0.66126845  1
  Cr  Cr35  1  0.16020609  0.83116844  0.82951850  1
  Ni  Ni36  1  0.49514957  0.16396879  0.49515759  1
  Cr  Cr37  1  0.32894723  0.99448935  0.65990889  1
  Ni  Ni38  1  0.49642402  0.16402680  0.82937469  1
  Cr  Cr39  1  0.49675757  0.49200867  0.49402009  1
  Cr  Cr40  1  0.32982251  0.32567815  0.66006107  1
  Cr  Cr41  1  0.49656359  0.49163010  0.82794710  1
  Cr  Cr42  1  0.49808492  0.82584343  0.49342185  1
  Cr  Cr43  1  0.32615824  0.66327373  0.66116748  1
  Cr  Cr44  1  0.49444446  0.82928716  0.83080783  1
  Cr  Cr45  1  0.82881588  0.16048062  0.49515567  1
  Cr  Cr46  1  0.66127225  -0.00196295  0.66075321  1
  Ni  Ni47  1  0.82592910  0.16319283  0.82812469  1
  Cr  Cr48  1  0.82612656  0.49667600  0.49508584  1
  Ni  Ni49  1  0.66157092  0.32501516  0.66425633  1
  Ni  Ni50  1  0.82526156  0.49053107  0.82807669  1
  Ni  Ni51  1  0.83241818  0.82816058  0.49273627  1
  Cr  Cr52  1  0.66306326  0.66117905  0.66227787  1
  Cr  Cr53  1  0.82928386  0.82946431  0.82791015  1
" 