692,Ni36Fe24Cr39_16,-223.319451305095, 173.246543285913,Ni36Fe24Cr39,"# generated using pymatgen
 data_Cr23Fe12Ni19
_symmetry_space_group_name_H-M   'P 1'
_cell_length_a   7.49204607
_cell_length_b   7.49204607
_cell_length_c   10.59535316
_cell_angle_alpha   90.00000000
_cell_angle_beta   90.00000000
_cell_angle_gamma   90.00000000
_symmetry_Int_Tables_number   1
_chemical_formula_structural   Cr23Fe12Ni19
_chemical_formula_sum   'Cr23 Fe12 Ni19'
_cell_volume   594.72516544
_cell_formula_units_Z   1
loop_
 _symmetry_equiv_pos_site_id
 _symmetry_equiv_pos_as_xyz
  1  'x, y, z'
loop_
 _atom_site_type_symbol
 _atom_site_label
 _atom_site_symmetry_multiplicity
 _atom_site_fract_x
 _atom_site_fract_y
 _atom_site_fract_z
 _atom_site_occupancy
  Cr  Cr0  1  0.00106132  -0.00104068  0.99580821  1
  Ni  Ni1  1  0.16629959  0.16311426  0.16484646  1
  Ni  Ni2  1  -0.00134313  0.00004121  0.33269473  1
  Cr  Cr3  1  -0.00141345  0.33129226  -0.00082208  1
  Ni  Ni4  1  0.16377099  0.49882998  0.16287985  1
  Cr  Cr5  1  -0.00072777  0.32867531  0.32864725  1
  Fe  Fe6  1  -0.00056077  0.66576902  0.99768110  1
  Ni  Ni7  1  0.16615896  0.83339023  0.16108384  1
  Cr  Cr8  1  -0.00101185  0.66791742  0.32825684  1
  Ni  Ni9  1  0.33173393  0.99768584  0.99713441  1
  Fe  Fe10  1  0.49784476  0.16369992  0.16304609  1
  Cr  Cr11  1  0.32856707  -0.00128918  0.33238156  1
  Cr  Cr12  1  0.33016026  0.33000952  -0.00148427  1
  Fe  Fe13  1  0.49782004  0.50080779  0.16237952  1
  Cr  Cr14  1  0.33063780  0.33091461  0.32948823  1
  Ni  Ni15  1  0.33138076  0.66604725  -0.00056117  1
  Cr  Cr16  1  0.49873203  0.83353901  0.16255651  1
  Cr  Cr17  1  0.33041304  0.66575983  0.33005739  1
  Ni  Ni18  1  0.66487332  -0.00131935  0.99583654  1
  Fe  Fe19  1  0.83347843  0.16324147  0.16390129  1
  Cr  Cr20  1  0.66630503  -0.00046323  0.33595674  1
  Cr  Cr21  1  0.66514947  0.33106343  0.99674823  1
  Ni  Ni22  1  0.83038043  0.49878564  0.16198984  1
  Cr  Cr23  1  0.66514723  0.33097705  0.32919666  1
  Ni  Ni24  1  0.66514972  0.66443023  0.99508164  1
  Cr  Cr25  1  0.83085958  0.83244836  0.16231062  1
  Cr  Cr26  1  0.66469925  0.66617308  0.33686972  1
  Ni  Ni27  1  0.16424332  0.16265113  0.50205092  1
  Fe  Fe28  1  -0.00154346  0.99788173  0.66690432  1
  Ni  Ni29  1  0.16384139  0.16329297  0.82820515  1
  Cr  Cr30  1  0.16445593  0.49547642  0.50182792  1
  Ni  Ni31  1  -0.00101535  0.32787032  0.66635366  1
  Cr  Cr32  1  0.16523664  0.49857090  0.82864791  1
  Cr  Cr33  1  0.16306350  0.83186868  0.50043754  1
  Ni  Ni34  1  0.00023405  0.66618969  0.66838271  1
  Ni  Ni35  1  0.16691828  0.83154286  0.83292221  1
  Ni  Ni36  1  0.49698116  0.16438144  0.50057975  1
  Fe  Fe37  1  0.32916520  -0.00123288  0.66691252  1
  Fe  Fe38  1  0.49526981  0.16330642  0.83198887  1
  Cr  Cr39  1  0.49617253  0.49749364  0.50041961  1
  Fe  Fe40  1  0.33086675  0.32941147  0.66638891  1
  Fe  Fe41  1  0.49634266  0.49920196  0.83143669  1
  Fe  Fe42  1  0.49644594  0.83493952  0.50108190  1
  Ni  Ni43  1  0.33017330  0.66710360  0.66559292  1
  Cr  Cr44  1  0.49780001  0.83167432  0.83393047  1
  Ni  Ni45  1  0.83300249  0.16266751  0.49825736  1
  Cr  Cr46  1  0.66549350  -0.00049188  0.66448424  1
  Ni  Ni47  1  0.83182261  0.16473031  0.83192200  1
  Cr  Cr48  1  0.83475408  0.49726648  0.49987331  1
  Cr  Cr49  1  0.66623159  0.33005024  0.66844395  1
  Fe  Fe50  1  0.83417087  0.49919881  0.83155143  1
  Ni  Ni51  1  0.83362896  0.83494536  0.50077201  1
  Cr  Cr52  1  0.66592365  0.66686774  0.66434603  1
  Fe  Fe53  1  0.83466454  0.83255097  0.83222989  1
" 