5550,Ni36Fe2Cr60_12,-214.106195726447, 140.506049559722,Ni36Fe2Cr60,"# generated using pymatgen
 data_Cr34FeNi19
_symmetry_space_group_name_H-M   'P 1'
_cell_length_a   7.54445656
_cell_length_b   7.54445656
_cell_length_c   10.66947279
_cell_angle_alpha   90.00000000
_cell_angle_beta   90.00000000
_cell_angle_gamma   90.00000000
_symmetry_Int_Tables_number   1
_chemical_formula_structural   Cr34FeNi19
_chemical_formula_sum   'Cr34 Fe1 Ni19'
_cell_volume   607.29385242
_cell_formula_units_Z   1
loop_
 _symmetry_equiv_pos_site_id
 _symmetry_equiv_pos_as_xyz
  1  'x, y, z'
loop_
 _atom_site_type_symbol
 _atom_site_label
 _atom_site_symmetry_multiplicity
 _atom_site_fract_x
 _atom_site_fract_y
 _atom_site_fract_z
 _atom_site_occupancy
  Cr  Cr0  1  0.99307256  -0.00483203  0.99165314  1
  Cr  Cr1  1  0.16100720  0.16276775  0.16304347  1
  Cr  Cr2  1  -0.00366442  0.99323730  0.32995893  1
  Cr  Cr3  1  -0.00483219  0.32902491  0.99393458  1
  Ni  Ni4  1  0.15951476  0.49444681  0.16170723  1
  Ni  Ni5  1  0.99481624  0.33103703  0.32958457  1
  Cr  Cr6  1  0.99418121  0.66006847  -0.00031150  1
  Cr  Cr7  1  0.16241106  0.82847830  0.16175393  1
  Cr  Cr8  1  0.99437773  0.65815404  0.32737114  1
  Cr  Cr9  1  0.32875305  -0.00189771  0.99451554  1
  Ni  Ni10  1  0.49477188  0.16188737  0.16440466  1
  Ni  Ni11  1  0.32801945  -0.00254265  0.33045726  1
  Cr  Cr12  1  0.32700031  0.32808066  -0.00495093  1
  Cr  Cr13  1  0.49388184  0.49360392  0.16047812  1
  Cr  Cr14  1  0.32770552  0.32674305  0.32914376  1
  Ni  Ni15  1  0.32690935  0.66049599  -0.00414010  1
  Cr  Cr16  1  0.49297576  0.82865624  0.16117890  1
  Cr  Cr17  1  0.32475696  0.66042616  0.33039122  1
  Cr  Cr18  1  0.66273817  -0.00402468  -0.00423199  1
  Cr  Cr19  1  0.82909469  0.16323155  0.16345675  1
  Cr  Cr20  1  0.65870754  -0.00373901  0.32616632  1
  Cr  Cr21  1  0.66223396  0.32709171  -0.00469401  1
  Ni  Ni22  1  0.82995128  0.49318404  0.16448468  1
  Ni  Ni23  1  0.66295677  0.32838625  0.32858749  1
  Cr  Cr24  1  0.66438938  0.66151417  -0.00355336  1
  Ni  Ni25  1  0.82856010  0.82719579  0.16138372  1
  Cr  Cr26  1  0.66542031  0.65980663  0.32759863  1
  Ni  Ni27  1  0.16048268  0.16290882  0.49485908  1
  Ni  Ni28  1  -0.00311405  -0.00125861  0.66207946  1
  Ni  Ni29  1  0.15718681  0.16174244  0.82573440  1
  Ni  Ni30  1  0.15898913  0.49200410  0.49579762  1
  Ni  Ni31  1  0.99476756  0.32618521  0.66044355  1
  Cr  Cr32  1  0.16269153  0.49482297  0.82904765  1
  Fe  Fe33  1  0.16143230  0.82916844  0.49565498  1
  Cr  Cr34  1  -0.00445432  0.66022980  0.65817738  1
  Cr  Cr35  1  0.16277843  0.82822062  0.82731833  1
  Ni  Ni36  1  0.49397609  0.16253392  0.49280831  1
  Cr  Cr37  1  0.32628649  -0.00271018  0.65896241  1
  Cr  Cr38  1  0.49645631  0.16370436  0.82790054  1
  Cr  Cr39  1  0.49768825  0.49395457  0.49817887  1
  Cr  Cr40  1  0.32628192  0.32736248  0.66098728  1
  Cr  Cr41  1  0.49461174  0.49737034  0.82586676  1
  Cr  Cr42  1  0.49332233  0.82757872  0.49587468  1
  Ni  Ni43  1  0.32712777  0.66095163  0.65984247  1
  Cr  Cr44  1  0.49322084  0.82398408  0.82772531  1
  Cr  Cr45  1  0.82973221  0.16514146  0.49566006  1
  Cr  Cr46  1  0.66199147  -0.00323162  0.66284308  1
  Ni  Ni47  1  0.83184929  0.16289546  0.82470095  1
  Ni  Ni48  1  0.83035310  0.49199248  0.49533564  1
  Ni  Ni49  1  0.66396360  0.32857741  0.65994658  1
  Cr  Cr50  1  0.82736077  0.49172178  0.82448356  1
  Cr  Cr51  1  0.82805402  0.82848728  0.49640537  1
  Ni  Ni52  1  0.66164447  0.65875829  0.66046842  1
  Cr  Cr53  1  0.82857869  0.82939156  0.82649497  1
" 