8014,Ni36Fe3Cr60_14,-213.808829927835, 131.915796846888,Ni36Fe3Cr60,"# generated using pymatgen
 data_Cr34FeNi19
_symmetry_space_group_name_H-M   'P 1'
_cell_length_a   7.54780557
_cell_length_b   7.54780557
_cell_length_c   10.67420901
_cell_angle_alpha   90.00000000
_cell_angle_beta   90.00000000
_cell_angle_gamma   90.00000000
_symmetry_Int_Tables_number   1
_chemical_formula_structural   Cr34FeNi19
_chemical_formula_sum   'Cr34 Fe1 Ni19'
_cell_volume   608.10295163
_cell_formula_units_Z   1
loop_
 _symmetry_equiv_pos_site_id
 _symmetry_equiv_pos_as_xyz
  1  'x, y, z'
loop_
 _atom_site_type_symbol
 _atom_site_label
 _atom_site_symmetry_multiplicity
 _atom_site_fract_x
 _atom_site_fract_y
 _atom_site_fract_z
 _atom_site_occupancy
  Ni  Ni0  1  0.99369180  -0.00257608  -0.00191752  1
  Ni  Ni1  1  0.15849991  0.16449065  0.15841147  1
  Cr  Cr2  1  0.99446068  -0.00255111  0.32560799  1
  Ni  Ni3  1  -0.00416330  0.32654041  -0.00114858  1
  Ni  Ni4  1  0.16146577  0.49170438  0.15913522  1
  Cr  Cr5  1  0.99385591  0.32891793  0.32612673  1
  Cr  Cr6  1  0.99256803  0.65844609  -0.00436203  1
  Cr  Cr7  1  0.15964097  0.82858110  0.16164719  1
  Cr  Cr8  1  0.99117594  0.65755729  0.32753917  1
  Cr  Cr9  1  0.32928090  0.99455515  -0.00419355  1
  Cr  Cr10  1  0.49459900  0.16380239  0.16107819  1
  Cr  Cr11  1  0.33037161  -0.00456957  0.32895949  1
  Ni  Ni12  1  0.32534693  0.32888810  -0.00191417  1
  Ni  Ni13  1  0.49473564  0.49637623  0.16124341  1
  Cr  Cr14  1  0.32653514  0.32641467  0.32622135  1
  Cr  Cr15  1  0.33018333  0.66206905  0.99442084  1
  Ni  Ni16  1  0.49817338  0.82453684  0.16291413  1
  Cr  Cr17  1  0.33008481  0.66220933  0.32675487  1
  Cr  Cr18  1  0.66033446  0.99269603  -0.00472092  1
  Ni  Ni19  1  0.83085177  0.16135509  0.15915024  1
  Cr  Cr20  1  0.65925777  0.99376938  0.32713709  1
  Cr  Cr21  1  0.66355767  0.32960552  -0.00347027  1
  Ni  Ni22  1  0.82733169  0.49485813  0.16259083  1
  Cr  Cr23  1  0.66324399  0.32928590  0.32816450  1
  Cr  Cr24  1  0.66087446  0.66207973  -0.00348263  1
  Ni  Ni25  1  0.82620335  0.82791833  0.16143512  1
  Ni  Ni26  1  0.66094679  0.66141606  0.32539430  1
  Cr  Cr27  1  0.16234913  0.16122963  0.49495580  1
  Ni  Ni28  1  0.99292878  -0.00449985  0.66165616  1
  Cr  Cr29  1  0.16030688  0.16223102  0.83054840  1
  Cr  Cr30  1  0.16408254  0.49544404  0.49584454  1
  Cr  Cr31  1  0.99326471  0.32861613  0.65972094  1
  Cr  Cr32  1  0.16436796  0.49275358  0.82827522  1
  Cr  Cr33  1  0.16123157  0.82733592  0.49608426  1
  Cr  Cr34  1  -0.00508106  0.66034158  0.66057139  1
  Cr  Cr35  1  0.16024299  0.82865055  0.82606938  1
  Ni  Ni36  1  0.49672720  0.16124958  0.49782890  1
  Cr  Cr37  1  0.33038408  0.99376100  0.65969082  1
  Cr  Cr38  1  0.49564357  0.16393252  0.82575371  1
  Cr  Cr39  1  0.49511070  0.49398351  0.49482714  1
  Ni  Ni40  1  0.33011554  0.32815379  0.66049148  1
  Cr  Cr41  1  0.49294111  0.49291916  0.82783474  1
  Ni  Ni42  1  0.49757072  0.82708671  0.49576632  1
  Ni  Ni43  1  0.33089202  0.66144420  0.66138873  1
  Ni  Ni44  1  0.49516156  0.82782631  0.82492047  1
  Cr  Cr45  1  0.82536584  0.16000465  0.49692625  1
  Ni  Ni46  1  0.65991266  -0.00491688  0.66053875  1
  Cr  Cr47  1  0.82809585  0.16011140  0.82782041  1
  Fe  Fe48  1  0.82453474  0.49518828  0.49419423  1
  Ni  Ni49  1  0.65916167  0.32597846  0.65915964  1
  Cr  Cr50  1  0.82663845  0.49193355  0.82703557  1
  Cr  Cr51  1  0.82692301  0.82842111  0.49383861  1
  Cr  Cr52  1  0.66081153  0.66186795  0.66228814  1
  Cr  Cr53  1  0.82832057  0.83168779  0.82836026  1
" 