5030,Ni36Fe3Cr60_8,-214.150346964683, 139.907633514058,Ni36Fe3Cr60,"# generated using pymatgen
 data_Cr34FeNi19
_symmetry_space_group_name_H-M   'P 1'
_cell_length_a   7.54680149
_cell_length_b   7.54680149
_cell_length_c   10.67278902
_cell_angle_alpha   90.00000000
_cell_angle_beta   90.00000000
_cell_angle_gamma   90.00000000
_symmetry_Int_Tables_number   1
_chemical_formula_structural   Cr34FeNi19
_chemical_formula_sum   'Cr34 Fe1 Ni19'
_cell_volume   607.86029647
_cell_formula_units_Z   1
loop_
 _symmetry_equiv_pos_site_id
 _symmetry_equiv_pos_as_xyz
  1  'x, y, z'
loop_
 _atom_site_type_symbol
 _atom_site_label
 _atom_site_symmetry_multiplicity
 _atom_site_fract_x
 _atom_site_fract_y
 _atom_site_fract_z
 _atom_site_occupancy
  Ni  Ni0  1  -0.00450603  0.99337030  -0.00332660  1
  Cr  Cr1  1  0.15992716  0.16016984  0.16239059  1
  Ni  Ni2  1  -0.00446078  -0.00503397  0.32695201  1
  Cr  Cr3  1  0.99292912  0.32211856  0.99393480  1
  Cr  Cr4  1  0.16405593  0.49294228  0.16122331  1
  Cr  Cr5  1  0.99240224  0.32612021  0.33035793  1
  Cr  Cr6  1  -0.00332882  0.66545345  -0.00322099  1
  Ni  Ni7  1  0.15955932  0.83211316  0.16256641  1
  Cr  Cr8  1  -0.00410528  0.66509778  0.32920243  1
  Cr  Cr9  1  0.32415358  0.99368954  0.99195834  1
  Cr  Cr10  1  0.49126963  0.16170515  0.16413508  1
  Ni  Ni11  1  0.32760966  -0.00357771  0.32900231  1
  Ni  Ni12  1  0.32589062  0.32861272  -0.00412723  1
  Ni  Ni13  1  0.49188856  0.49384320  0.16043955  1
  Ni  Ni14  1  0.32987149  0.32581413  0.32680117  1
  Ni  Ni15  1  0.32680608  0.66263518  -0.00272903  1
  Cr  Cr16  1  0.49649519  0.83021602  0.16288488  1
  Cr  Cr17  1  0.32646534  0.66467583  0.32614125  1
  Cr  Cr18  1  0.66402480  -0.00343781  -0.00417787  1
  Fe  Fe19  1  0.82873454  0.15863612  0.16384782  1
  Ni  Ni20  1  0.66383746  -0.00285686  0.32822408  1
  Cr  Cr21  1  0.66004258  0.32827367  -0.00037479  1
  Cr  Cr22  1  0.82983925  0.49879492  0.16117806  1
  Cr  Cr23  1  0.66116142  0.32654643  0.32723041  1
  Cr  Cr24  1  0.66043258  0.66279466  -0.00262253  1
  Ni  Ni25  1  0.83196463  0.83579415  0.16367709  1
  Cr  Cr26  1  0.66279912  0.66056721  0.32600253  1
  Cr  Cr27  1  0.16533453  0.16158361  0.49215954  1
  Cr  Cr28  1  0.00032562  0.99359334  0.66216885  1
  Ni  Ni29  1  0.16146201  0.15784776  0.82953452  1
  Cr  Cr30  1  0.16047594  0.49447913  0.49373334  1
  Ni  Ni31  1  -0.00483818  0.32312898  0.65839034  1
  Cr  Cr32  1  0.16021997  0.49000758  0.82872736  1
  Ni  Ni33  1  0.16213642  0.83296043  0.49103904  1
  Cr  Cr34  1  0.99437175  0.65979492  0.65707007  1
  Ni  Ni35  1  0.16017939  0.82757978  0.83172247  1
  Ni  Ni36  1  0.49844805  0.15842365  0.49079508  1
  Cr  Cr37  1  0.33096353  0.99385505  0.66271665  1
  Cr  Cr38  1  0.49562103  0.16148319  0.82802262  1
  Cr  Cr39  1  0.49183210  0.49315130  0.49156440  1
  Cr  Cr40  1  0.32888001  0.32479141  0.66110789  1
  Cr  Cr41  1  0.49195194  0.49754911  0.83347348  1
  Cr  Cr42  1  0.49538700  0.83229709  0.49331879  1
  Cr  Cr43  1  0.32404031  0.66686389  0.66302617  1
  Ni  Ni44  1  0.49106436  0.83024466  0.82969097  1
  Ni  Ni45  1  0.82889071  0.15776066  0.49366680  1
  Ni  Ni46  1  0.66204252  -0.00452926  0.65963676  1
  Cr  Cr47  1  0.83113967  0.15905319  0.82689084  1
  Ni  Ni48  1  0.82776770  0.49030599  0.49568765  1
  Cr  Cr49  1  0.66354202  0.32499243  0.65672386  1
  Cr  Cr50  1  0.82878937  0.49326391  0.82414782  1
  Cr  Cr51  1  0.82759542  0.82909773  0.49344577  1
  Cr  Cr52  1  0.65677344  0.66124210  0.66103087  1
  Cr  Cr53  1  0.82451053  0.82876680  0.82760364  1
" 