5388,Ni36Fe35Cr27_19,-228.406502610772, 188.524208939728,Ni36Fe35Cr27,"# generated using pymatgen
 data_Cr16(FeNi)19
_symmetry_space_group_name_H-M   'P 1'
_cell_length_a   7.46152428
_cell_length_b   7.46152428
_cell_length_c   10.55218883
_cell_angle_alpha   90.00000000
_cell_angle_beta   90.00000000
_cell_angle_gamma   90.00000000
_symmetry_Int_Tables_number   1
_chemical_formula_structural   Cr16(FeNi)19
_chemical_formula_sum   'Cr16 Fe19 Ni19'
_cell_volume   587.48619623
_cell_formula_units_Z   1
loop_
 _symmetry_equiv_pos_site_id
 _symmetry_equiv_pos_as_xyz
  1  'x, y, z'
loop_
 _atom_site_type_symbol
 _atom_site_label
 _atom_site_symmetry_multiplicity
 _atom_site_fract_x
 _atom_site_fract_y
 _atom_site_fract_z
 _atom_site_occupancy
  Fe  Fe0  1  1.00028481  0.00090198  0.99935860  1
  Ni  Ni1  1  0.16698871  0.16622059  0.16516710  1
  Ni  Ni2  1  0.00199337  0.00083267  0.33343266  1
  Fe  Fe3  1  1.00026459  0.33324635  1.00019310  1
  Ni  Ni4  1  0.16781021  0.50071080  0.16491062  1
  Ni  Ni5  1  0.99980281  0.33257453  0.33125714  1
  Fe  Fe6  1  0.00064490  0.66684591  0.99970183  1
  Ni  Ni7  1  0.16744974  0.83418516  0.16507367  1
  Fe  Fe8  1  0.00366137  0.66654825  0.33246091  1
  Fe  Fe9  1  0.33447013  0.99911672  0.00098080  1
  Fe  Fe10  1  0.49808510  0.16414099  0.16694070  1
  Ni  Ni11  1  0.33063981  0.99952706  0.32858691  1
  Cr  Cr12  1  0.33364031  0.33401285  0.00082347  1
  Ni  Ni13  1  0.50108594  0.50234575  0.16662029  1
  Cr  Cr14  1  0.33377417  0.33462893  0.33220710  1
  Fe  Fe15  1  0.33453896  0.66859336  0.00145141  1
  Fe  Fe16  1  0.49866968  0.83409974  0.16591198  1
  Cr  Cr17  1  0.33382115  0.66749133  0.33437227  1
  Ni  Ni18  1  0.66727925  0.99862626  0.99877370  1
  Cr  Cr19  1  0.83519368  0.16642029  0.16888725  1
  Fe  Fe20  1  0.66602810  0.00124570  0.33160796  1
  Cr  Cr21  1  0.66879029  0.33399508  0.00386331  1
  Fe  Fe22  1  0.83764347  0.50140692  0.16768926  1
  Fe  Fe23  1  0.66680722  0.33438524  0.33185888  1
  Fe  Fe24  1  0.66605967  0.66770662  1.00000259  1
  Cr  Cr25  1  0.83386531  0.83264071  0.16721806  1
  Ni  Ni26  1  0.66681695  0.66477397  0.33029379  1
  Cr  Cr27  1  0.16531147  0.16921736  0.50063329  1
  Cr  Cr28  1  0.99761101  0.00083272  0.66757789  1
  Fe  Fe29  1  0.16410319  0.16845226  0.83528165  1
  Ni  Ni30  1  0.16764546  0.49851835  0.50218026  1
  Ni  Ni31  1  1.00005702  0.33360028  0.67001206  1
  Fe  Fe32  1  0.16357702  0.49979495  0.83413969  1
  Ni  Ni33  1  0.16714142  0.83378742  0.49682294  1
  Cr  Cr34  1  0.99890891  0.66774383  0.66450359  1
  Fe  Fe35  1  0.16406271  0.83282245  0.83712089  1
  Cr  Cr36  1  0.50104207  0.16754262  0.49938326  1
  Cr  Cr37  1  0.33140182  1.00008621  0.66897705  1
  Fe  Fe38  1  0.50283498  0.16597418  0.83461414  1
  Ni  Ni39  1  0.50072548  0.50084844  0.50273339  1
  Ni  Ni40  1  0.33358927  0.33496441  0.67002505  1
  Fe  Fe41  1  0.50249940  0.50147733  0.83455111  1
  Cr  Cr42  1  0.50217933  0.83309693  0.49996462  1
  Cr  Cr43  1  0.33348117  0.66565478  0.66613669  1
  Fe  Fe44  1  0.50325636  0.83333894  0.83548596  1
  Ni  Ni45  1  0.83425755  0.16713916  0.49912862  1
  Fe  Fe46  1  0.66755012  0.00041369  0.67071633  1
  Ni  Ni47  1  0.83414471  0.16614817  0.83461136  1
  Cr  Cr48  1  0.83436274  0.49943897  0.49635774  1
  Cr  Cr49  1  0.66880307  0.33456470  0.66752121  1
  Ni  Ni50  1  0.83418070  0.50118725  0.83704068  1
  Cr  Cr51  1  0.83222699  0.83560839  0.49816796  1
  Ni  Ni52  1  0.66720334  0.66672772  0.67116284  1
  Ni  Ni53  1  0.83171951  0.83378128  0.83549089  1
" 