4188,Ni36Fe60Cr2_2,-236.661633327195, 208.164109428724,Ni36Fe60Cr2,"# generated using pymatgen
 data_Cr3Fe32Ni19
_symmetry_space_group_name_H-M   'P 1'
_cell_length_a   7.41182697
_cell_length_b   7.41182697
_cell_length_c   10.48190622
_cell_angle_alpha   90.00000000
_cell_angle_beta   90.00000000
_cell_angle_gamma   90.00000000
_symmetry_Int_Tables_number   1
_chemical_formula_structural   Cr3Fe32Ni19
_chemical_formula_sum   'Cr3 Fe32 Ni19'
_cell_volume   575.82539459
_cell_formula_units_Z   1
loop_
 _symmetry_equiv_pos_site_id
 _symmetry_equiv_pos_as_xyz
  1  'x, y, z'
loop_
 _atom_site_type_symbol
 _atom_site_label
 _atom_site_symmetry_multiplicity
 _atom_site_fract_x
 _atom_site_fract_y
 _atom_site_fract_z
 _atom_site_occupancy
  Ni  Ni0  1  0.00428789  0.00375377  0.00402742  1
  Fe  Fe1  1  0.17104262  0.17060513  0.17037266  1
  Fe  Fe2  1  1.00264147  1.00260661  0.33629667  1
  Fe  Fe3  1  0.00427715  0.33606782  0.00425541  1
  Ni  Ni4  1  0.16947739  0.50347629  0.17068746  1
  Fe  Fe5  1  0.00376095  0.33807825  0.33547846  1
  Fe  Fe6  1  0.00443808  0.67190910  0.00521442  1
  Fe  Fe7  1  0.17079399  0.83676022  0.16992087  1
  Fe  Fe8  1  0.00439726  0.67049060  0.33572721  1
  Ni  Ni9  1  0.33589030  0.00406545  0.00413140  1
  Ni  Ni10  1  0.50256684  0.16961909  0.17016066  1
  Fe  Fe11  1  0.33900607  1.00314898  0.33567802  1
  Fe  Fe12  1  0.33742995  0.33709205  0.00420263  1
  Ni  Ni13  1  0.50398437  0.50375546  0.17052277  1
  Ni  Ni14  1  0.33797948  0.33807945  0.33627873  1
  Fe  Fe15  1  0.33733576  0.67095662  0.00387475  1
  Ni  Ni16  1  0.50396277  0.83779844  0.17041210  1
  Fe  Fe17  1  0.33770573  0.66949524  0.33687119  1
  Fe  Fe18  1  0.67041933  1.00329060  0.00413528  1
  Fe  Fe19  1  0.83659794  0.17069374  0.16967279  1
  Fe  Fe20  1  0.66952620  0.00378487  0.33680471  1
  Fe  Fe21  1  0.66946553  0.33588190  0.00405824  1
  Ni  Ni22  1  0.83771433  0.50486592  0.16987971  1
  Fe  Fe23  1  0.66853038  0.33677982  0.33668267  1
  Ni  Ni24  1  0.66952247  0.67055308  0.00482519  1
  Ni  Ni25  1  0.83726800  0.83621946  0.16971081  1
  Ni  Ni26  1  0.66958277  0.67114514  0.33619810  1
  Cr  Cr27  1  0.17124684  0.17027497  0.50437706  1
  Ni  Ni28  1  1.00246210  1.00310509  0.67105588  1
  Fe  Fe29  1  0.16988664  0.17069054  0.83665435  1
  Fe  Fe30  1  0.17301815  0.50414919  0.50350651  1
  Ni  Ni31  1  0.00474610  0.33528000  0.67094516  1
  Fe  Fe32  1  0.17187226  0.50280425  0.83690676  1
  Fe  Fe33  1  0.17083937  0.83567670  0.50414015  1
  Fe  Fe34  1  0.00549800  0.67108063  0.67023289  1
  Fe  Fe35  1  0.16998129  0.83767796  0.83711786  1
  Ni  Ni36  1  0.50393486  0.17038424  0.50484759  1
  Fe  Fe37  1  0.33754696  0.00438996  0.67135067  1
  Fe  Fe38  1  0.50404106  0.17123378  0.83675664  1
  Ni  Ni39  1  0.50298428  0.50337788  0.50385665  1
  Ni  Ni40  1  0.33829814  0.33869345  0.67143235  1
  Ni  Ni41  1  0.50245766  0.50389865  0.83679506  1
  Fe  Fe42  1  0.50393859  0.83684190  0.50304697  1
  Fe  Fe43  1  0.33680567  0.66901700  0.67043069  1
  Fe  Fe44  1  0.50431589  0.83676290  0.83802662  1
  Fe  Fe45  1  0.83497846  0.16941723  0.50512448  1
  Fe  Fe46  1  0.67100723  0.00566230  0.67023323  1
  Ni  Ni47  1  0.83829768  0.16865939  0.83590308  1
  Cr  Cr48  1  0.83654536  0.50350408  0.50439677  1
  Ni  Ni49  1  0.66813658  0.33620242  0.66948385  1
  Cr  Cr50  1  0.83657895  0.50326707  0.83718984  1
  Fe  Fe51  1  0.83639452  0.83876645  0.50322219  1
  Fe  Fe52  1  0.66886814  0.67062073  0.67039518  1
  Fe  Fe53  1  0.83687341  0.83874737  0.83765039  1
" 