894,Ni36Fe24Cr39_3,-223.313249033861, 168.90790404699,Ni36Fe24Cr39,"# generated using pymatgen
 data_Cr23Fe12Ni19
_symmetry_space_group_name_H-M   'P 1'
_cell_length_a   7.49427924
_cell_length_b   7.49427924
_cell_length_c   10.59851134
_cell_angle_alpha   90.00000000
_cell_angle_beta   90.00000000
_cell_angle_gamma   90.00000000
_symmetry_Int_Tables_number   1
_chemical_formula_structural   Cr23Fe12Ni19
_chemical_formula_sum   'Cr23 Fe12 Ni19'
_cell_volume   595.25713574
_cell_formula_units_Z   1
loop_
 _symmetry_equiv_pos_site_id
 _symmetry_equiv_pos_as_xyz
  1  'x, y, z'
loop_
 _atom_site_type_symbol
 _atom_site_label
 _atom_site_symmetry_multiplicity
 _atom_site_fract_x
 _atom_site_fract_y
 _atom_site_fract_z
 _atom_site_occupancy
  Ni  Ni0  1  0.00014684  -0.00179897  0.99556674  1
  Fe  Fe1  1  0.16475096  0.16398241  0.16399515  1
  Ni  Ni2  1  -0.00067731  0.00070934  0.33294678  1
  Cr  Cr3  1  -0.00111869  0.33032205  0.99661627  1
  Cr  Cr4  1  0.16371407  0.49609141  0.16458148  1
  Fe  Fe5  1  0.99812486  0.33308693  0.33299004  1
  Ni  Ni6  1  0.99569374  0.66690872  0.99688836  1
  Cr  Cr7  1  0.16262528  0.83394881  0.16474169  1
  Fe  Fe8  1  -0.00037054  0.66308368  0.33322718  1
  Ni  Ni9  1  0.33033385  0.00007968  0.99633463  1
  Cr  Cr10  1  0.49562482  0.16469104  0.16235728  1
  Cr  Cr11  1  0.33116446  -0.00161700  0.33226251  1
  Ni  Ni12  1  0.33013976  0.32572516  0.99774746  1
  Cr  Cr13  1  0.49772101  0.49538151  0.16519219  1
  Ni  Ni14  1  0.33030035  0.33165485  0.33257901  1
  Cr  Cr15  1  0.33219840  0.66664266  -0.00108658  1
  Ni  Ni16  1  0.49785663  0.83500585  0.16210584  1
  Cr  Cr17  1  0.33346652  0.66469940  0.33506449  1
  Fe  Fe18  1  0.66430375  -0.00152152  0.99551062  1
  Cr  Cr19  1  0.83325973  0.16370589  0.16770078  1
  Cr  Cr20  1  0.66255405  0.99792718  0.33338680  1
  Cr  Cr21  1  0.66643479  0.33174588  0.99632130  1
  Ni  Ni22  1  0.83425250  0.49811860  0.16613789  1
  Fe  Fe23  1  0.66411485  0.33139085  0.33482134  1
  Cr  Cr24  1  0.66638806  0.66570956  -0.00110164  1
  Cr  Cr25  1  0.83334660  0.83213336  0.16329435  1
  Cr  Cr26  1  0.66315470  0.66305590  0.33060518  1
  Cr  Cr27  1  0.16614154  0.16523426  0.49665618  1
  Cr  Cr28  1  0.00066351  -0.00009933  0.66578560  1
  Ni  Ni29  1  0.16743317  0.16113623  0.83430098  1
  Ni  Ni30  1  0.16635750  0.49853923  0.49818386  1
  Cr  Cr31  1  0.99672481  0.33067810  0.66588921  1
  Cr  Cr32  1  0.16689006  0.49792361  0.83143119  1
  Ni  Ni33  1  0.16619622  0.83041575  0.49954081  1
  Cr  Cr34  1  -0.00061737  0.66419925  0.66500308  1
  Fe  Fe35  1  0.16398188  0.83366538  0.83300999  1
  Ni  Ni36  1  0.49818700  0.16815739  0.50039042  1
  Fe  Fe37  1  0.33222630  -0.00070035  0.66537291  1
  Fe  Fe38  1  0.49635583  0.16563690  0.83064347  1
  Ni  Ni39  1  0.49718763  0.49429726  0.49931504  1
  Ni  Ni40  1  0.33295522  0.33025340  0.66398856  1
  Cr  Cr41  1  0.49696251  0.49547557  0.82916752  1
  Ni  Ni42  1  0.49500923  0.83235941  0.50081924  1
  Fe  Fe43  1  0.33185060  0.66461721  0.66136065  1
  Fe  Fe44  1  0.49674181  0.83501364  0.83200254  1
  Fe  Fe45  1  0.82960407  0.16825963  0.49742109  1
  Cr  Cr46  1  0.66359740  0.00058277  0.66504035  1
  Ni  Ni47  1  0.83067847  0.16251552  0.83112545  1
  Ni  Ni48  1  0.83098790  0.49536087  0.49626031  1
  Ni  Ni49  1  0.66340025  0.33134710  0.66253962  1
  Ni  Ni50  1  0.83078441  0.49775252  0.83208901  1
  Cr  Cr51  1  0.83440138  0.83274964  0.49577897  1
  Cr  Cr52  1  0.66391410  0.66314279  0.66428133  1
  Fe  Fe53  1  0.83377183  0.83251432  0.83370681  1
" 