1124,Ni36Fe60Cr2_11,-235.920607410316, 207.639913810148,Ni36Fe60Cr2,"# generated using pymatgen
 data_Cr3Fe32Ni19
_symmetry_space_group_name_H-M   'P 1'
_cell_length_a   7.40848966
_cell_length_b   7.40848966
_cell_length_c   10.47718655
_cell_angle_alpha   90.00000000
_cell_angle_beta   90.00000000
_cell_angle_gamma   90.00000000
_symmetry_Int_Tables_number   1
_chemical_formula_structural   Cr3Fe32Ni19
_chemical_formula_sum   'Cr3 Fe32 Ni19'
_cell_volume   575.04791658
_cell_formula_units_Z   1
loop_
 _symmetry_equiv_pos_site_id
 _symmetry_equiv_pos_as_xyz
  1  'x, y, z'
loop_
 _atom_site_type_symbol
 _atom_site_label
 _atom_site_symmetry_multiplicity
 _atom_site_fract_x
 _atom_site_fract_y
 _atom_site_fract_z
 _atom_site_occupancy
  Fe  Fe0  1  1.00370166  0.00456598  0.00443577  1
  Fe  Fe1  1  0.17086120  0.17036795  0.17095876  1
  Ni  Ni2  1  0.00439981  0.00399057  0.33660978  1
  Fe  Fe3  1  1.00374542  0.33716624  1.00337077  1
  Fe  Fe4  1  0.17004325  0.50199123  0.16964446  1
  Fe  Fe5  1  0.00625999  0.33671658  0.33767736  1
  Fe  Fe6  1  0.00395650  0.67012161  1.00372408  1
  Fe  Fe7  1  0.16969177  0.83949812  0.17032421  1
  Fe  Fe8  1  1.00261510  0.67124767  0.33753831  1
  Fe  Fe9  1  0.33821618  0.00435857  0.00418521  1
  Ni  Ni10  1  0.50336608  0.16909165  0.17009746  1
  Ni  Ni11  1  0.33601861  0.00429509  0.33628686  1
  Ni  Ni12  1  0.33741314  0.33863748  0.00475130  1
  Fe  Fe13  1  0.50426673  0.50270780  0.16842656  1
  Fe  Fe14  1  0.33517401  0.33487964  0.33654517  1
  Fe  Fe15  1  0.33792246  0.67037050  1.00300884  1
  Fe  Fe16  1  0.50523695  0.83939956  0.16985608  1
  Cr  Cr17  1  0.33789745  0.67140846  0.33723578  1
  Ni  Ni18  1  0.67118342  1.00388701  0.00455596  1
  Ni  Ni19  1  0.83766365  0.16939966  0.17006678  1
  Fe  Fe20  1  0.67042308  1.00208874  0.33710207  1
  Fe  Fe21  1  0.67018652  0.33687488  1.00392874  1
  Fe  Fe22  1  0.83754692  0.50387581  0.16946025  1
  Cr  Cr23  1  0.67103445  0.33764971  0.33723823  1
  Fe  Fe24  1  0.66997696  0.67041208  1.00330202  1
  Fe  Fe25  1  0.83692702  0.83858290  0.17114199  1
  Fe  Fe26  1  0.67226474  0.67355448  0.33783905  1
  Fe  Fe27  1  0.17036200  0.16943013  0.50397602  1
  Ni  Ni28  1  0.00425910  0.00469791  0.67121436  1
  Fe  Fe29  1  0.17101651  0.17151915  0.83692164  1
  Ni  Ni30  1  0.16956912  0.50243882  0.50494627  1
  Ni  Ni31  1  1.00292734  0.33704866  0.67054624  1
  Ni  Ni32  1  0.17026283  0.50370968  0.83704946  1
  Fe  Fe33  1  0.17004386  0.83826205  0.50471731  1
  Fe  Fe34  1  0.00552334  0.67051783  0.67059331  1
  Fe  Fe35  1  0.17126261  0.83604206  0.83681335  1
  Fe  Fe36  1  0.50315756  0.16903797  0.50450670  1
  Ni  Ni37  1  0.33661676  1.00220723  0.67097378  1
  Fe  Fe38  1  0.50419547  0.17139380  0.83771095  1
  Fe  Fe39  1  0.50325678  0.50412254  0.50536718  1
  Fe  Fe40  1  0.33715574  0.33722785  0.67124329  1
  Ni  Ni41  1  0.50256655  0.50366062  0.83778212  1
  Ni  Ni42  1  0.50507002  0.83989961  0.50313613  1
  Ni  Ni43  1  0.33597580  0.67091169  0.67147778  1
  Ni  Ni44  1  0.50323778  0.83863287  0.83828776  1
  Fe  Fe45  1  0.83833587  0.16925273  0.50495375  1
  Ni  Ni46  1  0.67098186  0.00586329  0.66968282  1
  Fe  Fe47  1  0.83664532  0.17135700  0.83707479  1
  Fe  Fe48  1  0.83876777  0.50444370  0.50461713  1
  Ni  Ni49  1  0.67178661  0.33641189  0.67212923  1
  Ni  Ni50  1  0.83902676  0.50253596  0.83776698  1
  Ni  Ni51  1  0.83688073  0.83874748  0.50256062  1
  Cr  Cr52  1  0.66904447  0.66960245  0.67038752  1
  Fe  Fe53  1  0.83749094  0.83729762  0.83766423  1
" 