7976,Ni36Fe2Cr60_4,-213.915014007518, 139.215737928341,Ni36Fe2Cr60,"# generated using pymatgen
 data_Cr34FeNi19
_symmetry_space_group_name_H-M   'P 1'
_cell_length_a   7.54883259
_cell_length_b   7.54883259
_cell_length_c   10.67566143
_cell_angle_alpha   90.00000000
_cell_angle_beta   90.00000000
_cell_angle_gamma   90.00000000
_symmetry_Int_Tables_number   1
_chemical_formula_structural   Cr34FeNi19
_chemical_formula_sum   'Cr34 Fe1 Ni19'
_cell_volume   608.35121633
_cell_formula_units_Z   1
loop_
 _symmetry_equiv_pos_site_id
 _symmetry_equiv_pos_as_xyz
  1  'x, y, z'
loop_
 _atom_site_type_symbol
 _atom_site_label
 _atom_site_symmetry_multiplicity
 _atom_site_fract_x
 _atom_site_fract_y
 _atom_site_fract_z
 _atom_site_occupancy
  Cr  Cr0  1  -0.00483180  -0.00449618  -0.00427076  1
  Cr  Cr1  1  0.16038816  0.16279617  0.15998962  1
  Cr  Cr2  1  0.99395602  -0.00091152  0.32634294  1
  Ni  Ni3  1  0.99108272  0.33124767  -0.00262610  1
  Cr  Cr4  1  0.16029084  0.49780835  0.16192543  1
  Ni  Ni5  1  0.99219601  0.33183673  0.32763436  1
  Ni  Ni6  1  0.99447081  0.65852475  -0.00480260  1
  Cr  Cr7  1  0.16260580  0.82579030  0.15896180  1
  Ni  Ni8  1  0.99432366  0.65580975  0.32688355  1
  Ni  Ni9  1  0.32971647  0.99180858  0.99253558  1
  Cr  Cr10  1  0.49617499  0.16479601  0.15959658  1
  Cr  Cr11  1  0.32736697  0.99417931  0.32756732  1
  Cr  Cr12  1  0.32745571  0.33044321  -0.00402706  1
  Ni  Ni13  1  0.49864727  0.49750224  0.16092446  1
  Cr  Cr14  1  0.32722511  0.33013880  0.32874718  1
  Ni  Ni15  1  0.33065411  0.66218948  -0.00526798  1
  Cr  Cr16  1  0.49281221  0.82566315  0.16192825  1
  Ni  Ni17  1  0.32948477  0.65819881  0.32736747  1
  Cr  Cr18  1  0.66171072  0.99332813  -0.00427078  1
  Ni  Ni19  1  0.82808773  0.16771237  0.16135255  1
  Cr  Cr20  1  0.66065523  -0.00447994  0.32784140  1
  Fe  Fe21  1  0.66282514  0.33102910  -0.00200978  1
  Ni  Ni22  1  0.82634810  0.49291053  0.16064084  1
  Ni  Ni23  1  0.66404722  0.33211673  0.32294770  1
  Ni  Ni24  1  0.66118357  0.65934903  -0.00337806  1
  Cr  Cr25  1  0.82912016  0.82286597  0.16440858  1
  Ni  Ni26  1  0.66003956  0.65701171  0.32669276  1
  Ni  Ni27  1  0.16084649  0.16469643  0.49420718  1
  Cr  Cr28  1  -0.00445784  0.99394254  0.66079119  1
  Cr  Cr29  1  0.16221980  0.16096222  0.82881480  1
  Ni  Ni30  1  0.16232473  0.49223979  0.49196606  1
  Cr  Cr31  1  -0.00196422  0.32944805  0.65959737  1
  Cr  Cr32  1  0.16097156  0.49575012  0.82910305  1
  Cr  Cr33  1  0.15967236  0.82449698  0.48957588  1
  Cr  Cr34  1  -0.00341405  0.66121315  0.66174048  1
  Ni  Ni35  1  0.16576553  0.82586375  0.83328608  1
  Cr  Cr36  1  0.49333108  0.16160636  0.49578899  1
  Cr  Cr37  1  0.32724772  0.99117474  0.66139917  1
  Cr  Cr38  1  0.49340980  0.16087705  0.82818124  1
  Cr  Cr39  1  0.49469783  0.49418714  0.49284609  1
  Ni  Ni40  1  0.32565083  0.32679745  0.65895487  1
  Cr  Cr41  1  0.49439824  0.49447891  0.83031522  1
  Ni  Ni42  1  0.49208056  0.82456778  0.49102272  1
  Cr  Cr43  1  0.32789331  0.65841617  0.66094441  1
  Ni  Ni44  1  0.49308757  0.82597075  0.83198831  1
  Cr  Cr45  1  0.82750835  0.16370517  0.49382035  1
  Cr  Cr46  1  0.65975624  0.99148199  0.66092058  1
  Cr  Cr47  1  0.82751986  0.16365482  0.82914148  1
  Cr  Cr48  1  0.82918324  0.49590085  0.49283174  1
  Cr  Cr49  1  0.65984505  0.33014224  0.66336289  1
  Cr  Cr50  1  0.82768397  0.49567827  0.83148136  1
  Cr  Cr51  1  0.82525506  0.82524340  0.49118621  1
  Cr  Cr52  1  0.65860780  0.66395377  0.66193082  1
  Cr  Cr53  1  0.83032056  0.82585956  0.82864488  1
" 