4543,Ni36Fe41Cr21_4,-230.841461311607, 205.084553184111,Ni36Fe41Cr21,"# generated using pymatgen
 data_Cr13Fe22Ni19
_symmetry_space_group_name_H-M   'P 1'
_cell_length_a   7.44229810
_cell_length_b   7.44229810
_cell_length_c   10.52499891
_cell_angle_alpha   90.00000000
_cell_angle_beta   90.00000000
_cell_angle_gamma   90.00000000
_symmetry_Int_Tables_number   1
_chemical_formula_structural   Cr13Fe22Ni19
_chemical_formula_sum   'Cr13 Fe22 Ni19'
_cell_volume   582.95654543
_cell_formula_units_Z   1
loop_
 _symmetry_equiv_pos_site_id
 _symmetry_equiv_pos_as_xyz
  1  'x, y, z'
loop_
 _atom_site_type_symbol
 _atom_site_label
 _atom_site_symmetry_multiplicity
 _atom_site_fract_x
 _atom_site_fract_y
 _atom_site_fract_z
 _atom_site_occupancy
  Ni  Ni0  1  0.00190660  0.00244172  0.00439460  1
  Ni  Ni1  1  0.16724247  0.16844798  0.16741323  1
  Fe  Fe2  1  0.00402227  0.00497340  0.33415780  1
  Fe  Fe3  1  0.00323690  0.33722168  0.00268251  1
  Ni  Ni4  1  0.16733947  0.49963720  0.16819807  1
  Ni  Ni5  1  0.00279803  0.33497594  0.33400738  1
  Ni  Ni6  1  0.00331854  0.66709575  0.00221580  1
  Fe  Fe7  1  0.16959047  0.83440346  0.16614511  1
  Fe  Fe8  1  1.00111859  0.66649289  0.33303043  1
  Fe  Fe9  1  0.33425722  0.99932118  0.00228036  1
  Cr  Cr10  1  0.49980569  0.16787009  0.16617386  1
  Ni  Ni11  1  0.33341241  1.00133344  0.33314806  1
  Fe  Fe12  1  0.33359197  0.33783279  1.00102171  1
  Ni  Ni13  1  0.50207641  0.50267451  0.16759225  1
  Fe  Fe14  1  0.33228095  0.33302078  0.33471908  1
  Ni  Ni15  1  0.33494880  0.66566508  0.00251462  1
  Ni  Ni16  1  0.50124084  0.83448715  0.16547853  1
  Cr  Cr17  1  0.33492579  0.66641906  0.33162783  1
  Ni  Ni18  1  0.66841241  1.00094482  1.00062247  1
  Fe  Fe19  1  0.83662406  0.17072704  0.16654794  1
  Cr  Cr20  1  0.66911139  0.00176086  0.33602820  1
  Fe  Fe21  1  0.66804504  0.33828612  0.00200700  1
  Ni  Ni22  1  0.83574053  0.50159550  0.16589353  1
  Cr  Cr23  1  0.66895643  0.33581439  0.33386783  1
  Ni  Ni24  1  0.66680904  0.66778174  0.00219282  1
  Cr  Cr25  1  0.83502630  0.83447369  0.16886927  1
  Fe  Fe26  1  0.66830178  0.66741140  0.33304048  1
  Ni  Ni27  1  0.16780784  0.16877115  0.50129412  1
  Cr  Cr28  1  1.00040735  0.00357316  0.66743784  1
  Fe  Fe29  1  0.16984695  0.17040558  0.83631818  1
  Fe  Fe30  1  0.16704877  0.50035262  0.50064475  1
  Ni  Ni31  1  0.00238296  0.33654888  0.66949620  1
  Ni  Ni32  1  0.16847453  0.50182709  0.83425535  1
  Cr  Cr33  1  0.16907568  0.83480714  0.50061157  1
  Fe  Fe34  1  1.00163635  0.66747137  0.67041771  1
  Cr  Cr35  1  0.16925146  0.83532833  0.83692137  1
  Fe  Fe36  1  0.49972903  0.16708574  0.50128342  1
  Ni  Ni37  1  0.33662582  0.00204879  0.67030125  1
  Fe  Fe38  1  0.49927763  0.16776656  0.83636594  1
  Fe  Fe39  1  0.50002173  0.50126279  0.50101004  1
  Cr  Cr40  1  0.33312170  0.33516437  0.66629900  1
  Ni  Ni41  1  0.50138253  0.50310838  0.83599169  1
  Cr  Cr42  1  0.50138926  0.83367008  0.50338965  1
  Fe  Fe43  1  0.33566631  0.66791077  0.67033334  1
  Fe  Fe44  1  0.50305935  0.83429414  0.83606589  1
  Ni  Ni45  1  0.83737410  0.16916394  0.50061980  1
  Ni  Ni46  1  0.66801804  1.00029821  0.66864081  1
  Cr  Cr47  1  0.83551015  0.16902273  0.83805499  1
  Cr  Cr48  1  0.83567556  0.50277559  0.50273566  1
  Cr  Cr49  1  0.66875886  0.33303056  0.66883194  1
  Fe  Fe50  1  0.83625457  0.50403016  0.83637690  1
  Fe  Fe51  1  0.83568248  0.83531448  0.50149496  1
  Fe  Fe52  1  0.66843538  0.66914929  0.67139092  1
  Fe  Fe53  1  0.83373420  0.83249745  0.83733499  1
" 