1742,Ni36Fe41Cr21_6,-230.161616380111, 192.920003162468,Ni36Fe41Cr21,"# generated using pymatgen
 data_Cr13Fe22Ni19
_symmetry_space_group_name_H-M   'P 1'
_cell_length_a   7.44922611
_cell_length_b   7.44922611
_cell_length_c   10.53479660
_cell_angle_alpha   90.00000000
_cell_angle_beta   90.00000000
_cell_angle_gamma   90.00000000
_symmetry_Int_Tables_number   1
_chemical_formula_structural   Cr13Fe22Ni19
_chemical_formula_sum   'Cr13 Fe22 Ni19'
_cell_volume   584.58607818
_cell_formula_units_Z   1
loop_
 _symmetry_equiv_pos_site_id
 _symmetry_equiv_pos_as_xyz
  1  'x, y, z'
loop_
 _atom_site_type_symbol
 _atom_site_label
 _atom_site_symmetry_multiplicity
 _atom_site_fract_x
 _atom_site_fract_y
 _atom_site_fract_z
 _atom_site_occupancy
  Ni  Ni0  1  0.00457505  1.00053976  0.00242284  1
  Ni  Ni1  1  0.16890968  0.16842085  0.16798371  1
  Fe  Fe2  1  1.00118888  1.00114414  0.33520051  1
  Fe  Fe3  1  0.00143665  0.33507773  0.00376589  1
  Fe  Fe4  1  0.16827277  0.50008849  0.16756937  1
  Ni  Ni5  1  1.00003005  0.33382616  0.33461495  1
  Fe  Fe6  1  0.00147940  0.66902325  0.00322854  1
  Fe  Fe7  1  0.16833132  0.83566504  0.16642108  1
  Ni  Ni8  1  1.00022908  0.66867014  0.33385846  1
  Fe  Fe9  1  0.33386987  0.99906044  0.00218381  1
  Ni  Ni10  1  0.49862221  0.16891591  0.16920593  1
  Fe  Fe11  1  0.33426968  0.00327549  0.33422926  1
  Fe  Fe12  1  0.33606189  0.33535500  0.00400756  1
  Ni  Ni13  1  0.50159120  0.50117886  0.16594421  1
  Fe  Fe14  1  0.33508733  0.33316215  0.33333594  1
  Ni  Ni15  1  0.33530383  0.66858333  1.00093460  1
  Ni  Ni16  1  0.50135516  0.83349430  0.16786539  1
  Cr  Cr17  1  0.33500218  0.66852550  0.33356679  1
  Cr  Cr18  1  0.66767083  0.00124271  1.00115466  1
  Cr  Cr19  1  0.83525570  0.16819347  0.16715590  1
  Fe  Fe20  1  0.66812910  1.00088356  0.33523099  1
  Ni  Ni21  1  0.66660647  0.33735808  0.00195043  1
  Fe  Fe22  1  0.83324288  0.50168047  0.16788770  1
  Ni  Ni23  1  0.66793438  0.33420058  0.33539951  1
  Ni  Ni24  1  0.66451506  0.66550836  0.00257379  1
  Fe  Fe25  1  0.83446488  0.83279396  0.16858343  1
  Fe  Fe26  1  0.66965891  0.66693730  0.33459088  1
  Fe  Fe27  1  0.16798511  0.16717977  0.50033071  1
  Cr  Cr28  1  0.00341771  1.00109841  0.66642399  1
  Cr  Cr29  1  0.16862248  0.16710224  0.83473178  1
  Cr  Cr30  1  0.16713842  0.49969562  0.50162652  1
  Fe  Fe31  1  0.99983125  0.33484888  0.66523002  1
  Cr  Cr32  1  0.16836026  0.50214507  0.83506827  1
  Fe  Fe33  1  0.16662170  0.83644884  0.50113149  1
  Fe  Fe34  1  0.99927285  0.66857695  0.66603075  1
  Ni  Ni35  1  0.17005777  0.83411636  0.83568805  1
  Fe  Fe36  1  0.50165523  0.16900706  0.50063811  1
  Ni  Ni37  1  0.33311119  1.00010531  0.66732588  1
  Cr  Cr38  1  0.50041570  0.16818283  0.83481094  1
  Ni  Ni39  1  0.50354712  0.49970990  0.50248240  1
  Fe  Fe40  1  0.33706795  0.33313764  0.66624743  1
  Fe  Fe41  1  0.50240259  0.50297041  0.83537907  1
  Fe  Fe42  1  0.50264191  0.83500435  0.50122872  1
  Cr  Cr43  1  0.33613927  0.67011891  0.66915782  1
  Ni  Ni44  1  0.49874487  0.83226173  0.83456531  1
  Ni  Ni45  1  0.83458946  0.16821701  0.50056192  1
  Cr  Cr46  1  0.66678347  0.00148546  0.66719829  1
  Cr  Cr47  1  0.83455795  0.16949142  0.83560309  1
  Fe  Fe48  1  0.83250463  0.50093659  0.50120194  1
  Ni  Ni49  1  0.66783329  0.33715701  0.66623638  1
  Cr  Cr50  1  0.83307706  0.50150107  0.83315871  1
  Ni  Ni51  1  0.83439399  0.83387413  0.49961876  1
  Ni  Ni52  1  0.66657495  0.66481587  0.66639378  1
  Cr  Cr53  1  0.83415207  0.83260080  0.83565844  1
" 