5794,Ni36Fe2Cr60_10,-213.991456966622, 141.468458535051,Ni36Fe2Cr60,"# generated using pymatgen
 data_Cr34FeNi19
_symmetry_space_group_name_H-M   'P 1'
_cell_length_a   7.54567565
_cell_length_b   7.54567565
_cell_length_c   10.67119684
_cell_angle_alpha   90.00000000
_cell_angle_beta   90.00000000
_cell_angle_gamma   90.00000000
_symmetry_Int_Tables_number   1
_chemical_formula_structural   Cr34FeNi19
_chemical_formula_sum   'Cr34 Fe1 Ni19'
_cell_volume   607.58829360
_cell_formula_units_Z   1
loop_
 _symmetry_equiv_pos_site_id
 _symmetry_equiv_pos_as_xyz
  1  'x, y, z'
loop_
 _atom_site_type_symbol
 _atom_site_label
 _atom_site_symmetry_multiplicity
 _atom_site_fract_x
 _atom_site_fract_y
 _atom_site_fract_z
 _atom_site_occupancy
  Ni  Ni0  1  -0.00338459  0.98999760  0.99318041  1
  Cr  Cr1  1  0.15954074  0.15791614  0.16119984  1
  Ni  Ni2  1  0.99314577  0.99166309  0.32960147  1
  Cr  Cr3  1  0.99248930  0.32677155  0.99465962  1
  Cr  Cr4  1  0.16107794  0.49776705  0.16044398  1
  Cr  Cr5  1  0.99266434  0.32755688  0.33038132  1
  Ni  Ni6  1  -0.00215271  0.66748366  0.99321352  1
  Ni  Ni7  1  0.16099666  0.82830946  0.15895033  1
  Cr  Cr8  1  -0.00444483  0.66515739  0.32942683  1
  Ni  Ni9  1  0.32538172  0.99107554  0.99370401  1
  Cr  Cr10  1  0.49503122  0.15758404  0.16223482  1
  Cr  Cr11  1  0.32458673  0.99081359  0.32839744  1
  Cr  Cr12  1  0.33083473  0.32743401  0.99300417  1
  Cr  Cr13  1  0.49295164  0.49788159  0.16129718  1
  Cr  Cr14  1  0.32833980  0.32959967  0.32870073  1
  Ni  Ni15  1  0.32531530  0.66504903  0.99428393  1
  Cr  Cr16  1  0.49346706  0.82871041  0.16300134  1
  Ni  Ni17  1  0.32512275  0.66471657  0.32775386  1
  Cr  Cr18  1  0.66203094  -0.00487245  0.99281941  1
  Cr  Cr19  1  0.82967256  0.15775555  0.16216037  1
  Ni  Ni20  1  0.66588448  0.99423295  0.33076969  1
  Cr  Cr21  1  0.66105573  0.32776152  0.99305938  1
  Cr  Cr22  1  0.83059660  0.49686921  0.15980980  1
  Cr  Cr23  1  0.66316713  0.32821027  0.32767185  1
  Cr  Cr24  1  0.66181417  0.66171635  0.99392525  1
  Cr  Cr25  1  0.83016238  0.83003600  0.16065116  1
  Cr  Cr26  1  0.66318343  0.66274855  0.32908680  1
  Cr  Cr27  1  0.15942851  0.15974763  0.49399394  1
  Cr  Cr28  1  0.99357239  0.99146417  0.66094842  1
  Cr  Cr29  1  0.16001676  0.15952532  0.82960762  1
  Cr  Cr30  1  0.15996534  0.49640441  0.49588523  1
  Cr  Cr31  1  0.99218181  0.32756127  0.65939293  1
  Cr  Cr32  1  0.16012821  0.49762722  0.82792032  1
  Ni  Ni33  1  0.15827953  0.82697259  0.49422667  1
  Ni  Ni34  1  0.99134821  0.66496938  0.66036549  1
  Fe  Fe35  1  0.15952343  0.82760208  0.82952457  1
  Cr  Cr36  1  0.49704256  0.15813274  0.49516453  1
  Cr  Cr37  1  0.32763592  0.99363775  0.66270751  1
  Ni  Ni38  1  0.49629517  0.15935174  0.82826789  1
  Cr  Cr39  1  0.49565593  0.49745923  0.49536411  1
  Cr  Cr40  1  0.33016026  0.32716836  0.66340065  1
  Ni  Ni41  1  0.49438585  0.49678577  0.82823395  1
  Cr  Cr42  1  0.49801557  0.82864346  0.49441447  1
  Cr  Cr43  1  0.32620515  0.66382958  0.66120864  1
  Cr  Cr44  1  0.49693773  0.82788340  0.82735188  1
  Ni  Ni45  1  0.82711163  0.15779622  0.49391319  1
  Ni  Ni46  1  0.66484629  0.99335389  0.66204669  1
  Ni  Ni47  1  0.82719331  0.15681809  0.82818233  1
  Ni  Ni48  1  0.82804501  0.49734959  0.49698913  1
  Cr  Cr49  1  0.66204064  0.32724072  0.66380512  1
  Cr  Cr50  1  0.82989345  0.49927738  0.82766676  1
  Ni  Ni51  1  0.82887911  0.82925551  0.49608294  1
  Ni  Ni52  1  0.66510476  0.66370885  0.66150169  1
  Ni  Ni53  1  0.83022893  0.82914090  0.82709727  1
" 