8125,Ni36Fe2Cr60_9,-213.773817204129, 138.98585370855,Ni36Fe2Cr60,"# generated using pymatgen
 data_Cr34FeNi19
_symmetry_space_group_name_H-M   'P 1'
_cell_length_a   7.54895811
_cell_length_b   7.54895811
_cell_length_c   10.67583894
_cell_angle_alpha   90.00000000
_cell_angle_beta   90.00000000
_cell_angle_gamma   90.00000000
_symmetry_Int_Tables_number   1
_chemical_formula_structural   Cr34FeNi19
_chemical_formula_sum   'Cr34 Fe1 Ni19'
_cell_volume   608.38156259
_cell_formula_units_Z   1
loop_
 _symmetry_equiv_pos_site_id
 _symmetry_equiv_pos_as_xyz
  1  'x, y, z'
loop_
 _atom_site_type_symbol
 _atom_site_label
 _atom_site_symmetry_multiplicity
 _atom_site_fract_x
 _atom_site_fract_y
 _atom_site_fract_z
 _atom_site_occupancy
  Cr  Cr0  1  0.99392794  0.99286580  0.99171212  1
  Cr  Cr1  1  0.16084671  0.16157652  0.15831844  1
  Cr  Cr2  1  0.99278819  -0.00343383  0.32814738  1
  Cr  Cr3  1  -0.00357895  0.32991060  0.99410337  1
  Ni  Ni4  1  0.16281032  0.49726843  0.15939943  1
  Fe  Fe5  1  -0.00484561  0.32868101  0.32577113  1
  Ni  Ni6  1  -0.00312368  0.66145506  0.99205677  1
  Cr  Cr7  1  0.16150989  0.82693951  0.15681263  1
  Cr  Cr8  1  -0.00311134  0.66123772  0.32632347  1
  Ni  Ni9  1  0.32918761  0.99060954  0.99127205  1
  Cr  Cr10  1  0.49345596  0.15879889  0.15574870  1
  Cr  Cr11  1  0.32881031  0.99249236  0.32575864  1
  Cr  Cr12  1  0.32701242  0.33299347  0.99217620  1
  Ni  Ni13  1  0.49142206  0.49826234  0.15855420  1
  Cr  Cr14  1  0.32694615  0.33048784  0.32613315  1
  Ni  Ni15  1  0.32636563  0.66220895  0.99420678  1
  Ni  Ni16  1  0.49495662  0.82581679  0.15624521  1
  Cr  Cr17  1  0.32848143  0.65944005  0.32559647  1
  Ni  Ni18  1  0.66084020  0.99047391  -0.00397217  1
  Ni  Ni19  1  0.82759456  0.15870000  0.16057235  1
  Cr  Cr20  1  0.66212438  0.99400712  0.32590950  1
  Cr  Cr21  1  0.66056812  0.32965651  -0.00542115  1
  Cr  Cr22  1  0.83124978  0.49658877  0.15928222  1
  Cr  Cr23  1  0.66104737  0.32742587  0.32412018  1
  Cr  Cr24  1  0.65952120  0.66083549  0.99315831  1
  Ni  Ni25  1  0.82667683  0.82882022  0.15783943  1
  Cr  Cr26  1  0.65923492  0.66184007  0.32467629  1
  Cr  Cr27  1  0.16236890  0.16183839  0.49543341  1
  Cr  Cr28  1  -0.00538248  0.99358413  0.66438652  1
  Ni  Ni29  1  0.16355075  0.16131873  0.82864765  1
  Ni  Ni30  1  0.16099930  0.49081166  0.49447995  1
  Cr  Cr31  1  -0.00335182  0.32807532  0.66365946  1
  Ni  Ni32  1  0.16194627  0.49706014  0.82979951  1
  Cr  Cr33  1  0.16114602  0.82423512  0.49480210  1
  Cr  Cr34  1  -0.00344990  0.66140790  0.66654098  1
  Ni  Ni35  1  0.16295354  0.82551064  0.83196454  1
  Cr  Cr36  1  0.49483434  0.16234746  0.49878138  1
  Cr  Cr37  1  0.32544688  0.99285101  0.66481516  1
  Cr  Cr38  1  0.49229911  0.16011001  0.82919979  1
  Cr  Cr39  1  0.49426553  0.49376929  0.49682859  1
  Ni  Ni40  1  0.32433895  0.33112131  0.66507553  1
  Ni  Ni41  1  0.49097642  0.49792157  0.82825906  1
  Cr  Cr42  1  0.49401030  0.82743209  0.49470755  1
  Cr  Cr43  1  0.32655833  0.65936450  0.66305398  1
  Ni  Ni44  1  0.49314477  0.82632348  0.83199873  1
  Ni  Ni45  1  0.82976348  0.16412134  0.49287571  1
  Cr  Cr46  1  0.66340107  0.99262928  0.66224531  1
  Cr  Cr47  1  0.82690933  0.16193119  0.83045482  1
  Cr  Cr48  1  0.83027117  0.49426231  0.49546622  1
  Cr  Cr49  1  0.66043521  0.33063484  0.66518078  1
  Ni  Ni50  1  0.82987479  0.49873264  0.82982856  1
  Cr  Cr51  1  0.82844406  0.82617148  0.49562654  1
  Cr  Cr52  1  0.66055325  0.66206697  0.66662284  1
  Ni  Ni53  1  0.82800802  0.82544279  0.83179887  1
" 