8917,Ni36Fe2Cr60_6,-214.108297281023, 141.208587255156,Ni36Fe2Cr60,"# generated using pymatgen
 data_Cr34FeNi19
_symmetry_space_group_name_H-M   'P 1'
_cell_length_a   7.54310268
_cell_length_b   7.54310268
_cell_length_c   10.66755812
_cell_angle_alpha   90.00000000
_cell_angle_beta   90.00000000
_cell_angle_gamma   90.00000000
_symmetry_Int_Tables_number   1
_chemical_formula_structural   Cr34FeNi19
_chemical_formula_sum   'Cr34 Fe1 Ni19'
_cell_volume   606.96696808
_cell_formula_units_Z   1
loop_
 _symmetry_equiv_pos_site_id
 _symmetry_equiv_pos_as_xyz
  1  'x, y, z'
loop_
 _atom_site_type_symbol
 _atom_site_label
 _atom_site_symmetry_multiplicity
 _atom_site_fract_x
 _atom_site_fract_y
 _atom_site_fract_z
 _atom_site_occupancy
  Cr  Cr0  1  0.99402088  0.99288832  0.99469281  1
  Cr  Cr1  1  0.16353738  0.16360899  0.16325438  1
  Cr  Cr2  1  0.99428796  0.99333966  0.32602007  1
  Cr  Cr3  1  -0.00441278  0.32653159  -0.00445227  1
  Cr  Cr4  1  0.16469102  0.49511244  0.15872515  1
  Cr  Cr5  1  0.99150731  0.32909653  0.32807240  1
  Fe  Fe6  1  0.99491735  0.66382180  0.99427034  1
  Cr  Cr7  1  0.16318213  0.82624671  0.16210755  1
  Cr  Cr8  1  0.99115931  0.66228229  0.32706388  1
  Cr  Cr9  1  0.32671173  0.99252074  0.99279907  1
  Cr  Cr10  1  0.49480294  0.16184068  0.16077560  1
  Ni  Ni11  1  0.32960854  -0.00446337  0.32977718  1
  Ni  Ni12  1  0.32928492  0.33256424  0.99383950  1
  Ni  Ni13  1  0.49587826  0.49715229  0.15930911  1
  Cr  Cr14  1  0.33206326  0.33022211  0.32909946  1
  Ni  Ni15  1  0.33075188  0.65905907  0.99359525  1
  Cr  Cr16  1  0.49689091  0.82644814  0.16137274  1
  Cr  Cr17  1  0.33244697  0.66125516  0.32864549  1
  Ni  Ni18  1  0.66444227  0.99122935  -0.00229996  1
  Ni  Ni19  1  0.82670548  0.15903734  0.16039484  1
  Cr  Cr20  1  0.66195171  0.99348065  0.32621639  1
  Cr  Cr21  1  0.66008918  0.32978495  -0.00500643  1
  Cr  Cr22  1  0.82673671  0.49743552  0.16086078  1
  Cr  Cr23  1  0.66127475  0.33200239  0.33054396  1
  Ni  Ni24  1  0.65908085  0.66223545  -0.00357506  1
  Ni  Ni25  1  0.82549145  0.82722270  0.15914553  1
  Ni  Ni26  1  0.66132331  0.65949408  0.32819658  1
  Cr  Cr27  1  0.16326433  0.16048115  0.49388257  1
  Ni  Ni28  1  -0.00240029  0.99187298  0.66417792  1
  Ni  Ni29  1  0.16192898  0.16034272  0.82818441  1
  Cr  Cr30  1  0.15964350  0.49692150  0.49560700  1
  Cr  Cr31  1  0.99455426  0.32809958  0.66129710  1
  Cr  Cr32  1  0.16299180  0.49665560  0.83035082  1
  Cr  Cr33  1  0.16196812  0.82770643  0.49636916  1
  Ni  Ni34  1  -0.00475073  0.66395767  0.66241821  1
  Ni  Ni35  1  0.16102830  0.82616097  0.82646816  1
  Ni  Ni36  1  0.49408459  0.16278697  0.49348311  1
  Cr  Cr37  1  0.32646989  0.99317738  0.66230698  1
  Cr  Cr38  1  0.49463246  0.16303820  0.83076406  1
  Ni  Ni39  1  0.49792392  0.49709540  0.49628718  1
  Cr  Cr40  1  0.33114598  0.33030392  0.66287522  1
  Ni  Ni41  1  0.49389272  0.49880319  0.82953715  1
  Cr  Cr42  1  0.49529781  0.82816427  0.49448992  1
  Ni  Ni43  1  0.32946026  0.66059524  0.66299171  1
  Cr  Cr44  1  0.49611881  0.82425809  0.82917677  1
  Cr  Cr45  1  0.82791526  0.16185264  0.49632716  1
  Cr  Cr46  1  0.66123737  0.99473345  0.66207884  1
  Cr  Cr47  1  0.82822781  0.16049229  0.82814104  1
  Ni  Ni48  1  0.82474810  0.49886470  0.49623136  1
  Cr  Cr49  1  0.65912352  0.33196527  0.65922120  1
  Cr  Cr50  1  0.82623844  0.49852240  0.82656070  1
  Cr  Cr51  1  0.82766803  0.82501249  0.49735592  1
  Ni  Ni52  1  0.65989215  0.65828045  0.66011981  1
  Cr  Cr53  1  0.82703524  0.82617152  0.82761850  1
" 