703,Ni36Fe3Cr60_15,-214.038692198498, 145.3575684075,Ni36Fe3Cr60,"# generated using pymatgen
 data_Cr34FeNi19
_symmetry_space_group_name_H-M   'P 1'
_cell_length_a   7.54284560
_cell_length_b   7.54284560
_cell_length_c   10.66719455
_cell_angle_alpha   90.00000000
_cell_angle_beta   90.00000000
_cell_angle_gamma   90.00000000
_symmetry_Int_Tables_number   1
_chemical_formula_structural   Cr34FeNi19
_chemical_formula_sum   'Cr34 Fe1 Ni19'
_cell_volume   606.90491096
_cell_formula_units_Z   1
loop_
 _symmetry_equiv_pos_site_id
 _symmetry_equiv_pos_as_xyz
  1  'x, y, z'
loop_
 _atom_site_type_symbol
 _atom_site_label
 _atom_site_symmetry_multiplicity
 _atom_site_fract_x
 _atom_site_fract_y
 _atom_site_fract_z
 _atom_site_occupancy
  Ni  Ni0  1  -0.00255765  0.99236103  -0.00497833  1
  Cr  Cr1  1  0.16288127  0.16042521  0.15969841  1
  Cr  Cr2  1  -0.00445300  0.99333725  0.32671708  1
  Cr  Cr3  1  0.99347442  0.32836458  0.99284257  1
  Cr  Cr4  1  0.16260271  0.49633308  0.16330200  1
  Cr  Cr5  1  -0.00360885  0.32760481  0.33015743  1
  Cr  Cr6  1  -0.00501573  0.66369151  0.99414560  1
  Ni  Ni7  1  0.15988286  0.83016410  0.15922774  1
  Cr  Cr8  1  -0.00433682  0.66432971  0.32785518  1
  Ni  Ni9  1  0.32402140  0.99297886  0.99411415  1
  Cr  Cr10  1  0.49302147  0.16232603  0.15941455  1
  Cr  Cr11  1  0.32698911  0.99263538  0.32882961  1
  Cr  Cr12  1  0.32811846  0.32897260  0.99161049  1
  Cr  Cr13  1  0.49534766  0.49566216  0.16112872  1
  Cr  Cr14  1  0.32738766  0.32881613  0.33215853  1
  Cr  Cr15  1  0.32650221  0.66319241  0.99243187  1
  Cr  Cr16  1  0.49388155  0.82681955  0.16092048  1
  Cr  Cr17  1  0.32790801  0.66332108  0.33139625  1
  Cr  Cr18  1  0.66382265  0.99449012  -0.00409407  1
  Cr  Cr19  1  0.82911983  0.16162482  0.16087718  1
  Cr  Cr20  1  0.66229527  0.99163629  0.32941282  1
  Ni  Ni21  1  0.66196623  0.33139914  0.99281472  1
  Cr  Cr22  1  0.82699151  0.49735360  0.16147780  1
  Cr  Cr23  1  0.66143934  0.32870107  0.32906641  1
  Fe  Fe24  1  0.66274839  0.66123802  0.99383665  1
  Ni  Ni25  1  0.82917715  0.82720831  0.16088595  1
  Ni  Ni26  1  0.66079819  0.66301975  0.32795571  1
  Ni  Ni27  1  0.16096809  0.16009840  0.49607412  1
  Ni  Ni28  1  -0.00209633  0.99294968  0.66195176  1
  Ni  Ni29  1  0.16043565  0.15858338  0.82924873  1
  Ni  Ni30  1  0.16258786  0.49665616  0.49608931  1
  Cr  Cr31  1  -0.00291990  0.32990465  0.66252484  1
  Ni  Ni32  1  0.16057067  0.49633222  0.82682076  1
  Ni  Ni33  1  0.16135876  0.82816342  0.49677136  1
  Ni  Ni34  1  -0.00210910  0.66257109  0.66280859  1
  Ni  Ni35  1  0.15971826  0.82986801  0.82836471  1
  Cr  Cr36  1  0.49456220  0.16012369  0.49596949  1
  Cr  Cr37  1  0.32738967  0.99327061  0.66118563  1
  Cr  Cr38  1  0.49354971  0.16037811  0.82963375  1
  Ni  Ni39  1  0.49424164  0.49837563  0.49368757  1
  Cr  Cr40  1  0.32762405  0.33049959  0.66182329  1
  Ni  Ni41  1  0.49639846  0.49525226  0.83056488  1
  Ni  Ni42  1  0.49476163  0.82575028  0.49487548  1
  Cr  Cr43  1  0.32655090  0.66104348  0.66107656  1
  Cr  Cr44  1  0.49351199  0.82853784  0.82816897  1
  Cr  Cr45  1  0.83048918  0.15985772  0.49771623  1
  Ni  Ni46  1  0.66247773  0.99343668  0.66001075  1
  Cr  Cr47  1  0.82979962  0.15997336  0.82634029  1
  Cr  Cr48  1  0.82963844  0.49754029  0.49478227  1
  Cr  Cr49  1  0.66066074  0.32913400  0.66346625  1
  Ni  Ni50  1  0.82821501  0.49623746  0.82939906  1
  Cr  Cr51  1  0.82887568  0.82753502  0.49778691  1
  Cr  Cr52  1  0.66020134  0.66086933  0.66270807  1
  Cr  Cr53  1  0.83080998  0.82772823  0.82562209  1
" 