2123,Ni36Fe2Cr60_15,-214.020966865592, 139.954484560155,Ni36Fe2Cr60,"# generated using pymatgen
 data_Cr34FeNi19
_symmetry_space_group_name_H-M   'P 1'
_cell_length_a   7.54565066
_cell_length_b   7.54565066
_cell_length_c   10.67116150
_cell_angle_alpha   90.00000000
_cell_angle_beta   90.00000000
_cell_angle_gamma   90.00000000
_symmetry_Int_Tables_number   1
_chemical_formula_structural   Cr34FeNi19
_chemical_formula_sum   'Cr34 Fe1 Ni19'
_cell_volume   607.58225709
_cell_formula_units_Z   1
loop_
 _symmetry_equiv_pos_site_id
 _symmetry_equiv_pos_as_xyz
  1  'x, y, z'
loop_
 _atom_site_type_symbol
 _atom_site_label
 _atom_site_symmetry_multiplicity
 _atom_site_fract_x
 _atom_site_fract_y
 _atom_site_fract_z
 _atom_site_occupancy
  Ni  Ni0  1  0.99389036  -0.00186508  0.99461256  1
  Cr  Cr1  1  0.16045092  0.16363665  0.15974232  1
  Fe  Fe2  1  0.99433009  -0.00095347  0.32888948  1
  Ni  Ni3  1  -0.00168638  0.32454755  -0.00388675  1
  Ni  Ni4  1  0.16182101  0.49159922  0.16069224  1
  Ni  Ni5  1  -0.00417193  0.32476472  0.32669391  1
  Cr  Cr6  1  0.99460057  0.66090351  0.99349758  1
  Cr  Cr7  1  0.16083779  0.82833016  0.16275065  1
  Cr  Cr8  1  -0.00364843  0.65916405  0.33046938  1
  Cr  Cr9  1  0.32712250  -0.00474447  0.99121310  1
  Cr  Cr10  1  0.49471609  0.16189802  0.16295784  1
  Cr  Cr11  1  0.32978784  -0.00241126  0.33117226  1
  Ni  Ni12  1  0.32384379  0.32916570  -0.00496134  1
  Cr  Cr13  1  0.48967038  0.49329038  0.16002669  1
  Ni  Ni14  1  0.32571888  0.32778658  0.32953020  1
  Ni  Ni15  1  0.32604669  0.65971385  -0.00506112  1
  Cr  Cr16  1  0.49498314  0.82896655  0.16050055  1
  Cr  Cr17  1  0.32716136  0.66027252  0.32913667  1
  Cr  Cr18  1  0.66222771  -0.00414839  0.99448006  1
  Ni  Ni19  1  0.83201468  0.16082894  0.16347123  1
  Ni  Ni20  1  0.66420374  -0.00035280  0.32930267  1
  Cr  Cr21  1  0.66372977  0.32646716  -0.00282685  1
  Cr  Cr22  1  0.83247853  0.49180088  0.16086215  1
  Cr  Cr23  1  0.66183137  0.32577807  0.32915774  1
  Cr  Cr24  1  0.66018189  0.66217973  0.99365989  1
  Cr  Cr25  1  0.82857005  0.83304352  0.16368991  1
  Cr  Cr26  1  0.66088755  0.65995072  0.32732927  1
  Cr  Cr27  1  0.16120211  0.16207600  0.49481657  1
  Cr  Cr28  1  -0.00492895  -0.00476904  0.66176362  1
  Ni  Ni29  1  0.16119356  0.16296477  0.83036213  1
  Cr  Cr30  1  0.16283513  0.49311776  0.49467114  1
  Cr  Cr31  1  0.99459191  0.32567538  0.66234160  1
  Cr  Cr32  1  0.16308699  0.49021730  0.82940830  1
  Ni  Ni33  1  0.16074756  0.83033133  0.49291167  1
  Cr  Cr34  1  -0.00472980  0.66322419  0.66092131  1
  Cr  Cr35  1  0.16079050  0.82990740  0.82872615  1
  Ni  Ni36  1  0.49705334  0.16426889  0.49571774  1
  Cr  Cr37  1  0.32897057  -0.00306902  0.66175950  1
  Cr  Cr38  1  0.49271923  0.16330954  0.82530646  1
  Ni  Ni39  1  0.49297119  0.48920491  0.49590583  1
  Ni  Ni40  1  0.33046697  0.32621277  0.65980261  1
  Cr  Cr41  1  0.49306484  0.49325246  0.82747763  1
  Cr  Cr42  1  0.49647372  0.83034379  0.49435340  1
  Cr  Cr43  1  0.32786571  0.66236156  0.65906166  1
  Ni  Ni44  1  0.49659218  0.82826919  0.82821391  1
  Ni  Ni45  1  0.82567545  0.16058377  0.49319509  1
  Ni  Ni46  1  0.66148873  -0.00253127  0.66120314  1
  Cr  Cr47  1  0.82945082  0.16094152  0.82791901  1
  Cr  Cr48  1  0.82649225  0.49129055  0.49709352  1
  Ni  Ni49  1  0.65876708  0.32339372  0.65735151  1
  Cr  Cr50  1  0.82794822  0.49356432  0.82642987  1
  Cr  Cr51  1  0.82902590  0.83213812  0.49370367  1
  Cr  Cr52  1  0.66142137  0.66079447  0.66318321  1
  Ni  Ni53  1  0.82590442  0.83205357  0.82803845  1
" 