6565,Ni36Fe3Cr60_9,-214.186897606539, 143.961684358334,Ni36Fe3Cr60,"# generated using pymatgen
 data_Cr34FeNi19
_symmetry_space_group_name_H-M   'P 1'
_cell_length_a   7.54419626
_cell_length_b   7.54419626
_cell_length_c   10.66910467
_cell_angle_alpha   90.00000000
_cell_angle_beta   90.00000000
_cell_angle_gamma   90.00000000
_symmetry_Int_Tables_number   1
_chemical_formula_structural   Cr34FeNi19
_chemical_formula_sum   'Cr34 Fe1 Ni19'
_cell_volume   607.23099556
_cell_formula_units_Z   1
loop_
 _symmetry_equiv_pos_site_id
 _symmetry_equiv_pos_as_xyz
  1  'x, y, z'
loop_
 _atom_site_type_symbol
 _atom_site_label
 _atom_site_symmetry_multiplicity
 _atom_site_fract_x
 _atom_site_fract_y
 _atom_site_fract_z
 _atom_site_occupancy
  Ni  Ni0  1  0.98965641  -0.00415589  0.99141430  1
  Cr  Cr1  1  0.15956210  0.16184043  0.16107282  1
  Cr  Cr2  1  -0.00359733  -0.00336202  0.33089531  1
  Cr  Cr3  1  0.99375731  0.32969515  0.99437051  1
  Cr  Cr4  1  0.16190102  0.49338341  0.16180825  1
  Ni  Ni5  1  -0.00448774  0.33303872  0.33116024  1
  Cr  Cr6  1  0.99237367  0.66209012  0.99479769  1
  Cr  Cr7  1  0.16061292  0.82940279  0.16181825  1
  Ni  Ni8  1  0.99410937  0.65632628  0.32908684  1
  Cr  Cr9  1  0.32992239  -0.00421647  -0.00474959  1
  Cr  Cr10  1  0.49636993  0.16151512  0.15983675  1
  Cr  Cr11  1  0.33034040  -0.00436655  0.33320954  1
  Ni  Ni12  1  0.32931264  0.32529907  0.99270337  1
  Cr  Cr13  1  0.49581554  0.49430200  0.15828928  1
  Cr  Cr14  1  0.32643453  0.32614948  0.33102611  1
  Cr  Cr15  1  0.32750843  0.66072760  0.99476306  1
  Ni  Ni16  1  0.49658935  0.82962276  0.16051675  1
  Cr  Cr17  1  0.32823024  0.66282387  0.32956607  1
  Ni  Ni18  1  0.66358182  -0.00493652  0.99251436  1
  Cr  Cr19  1  0.82935340  0.16272190  0.16215977  1
  Cr  Cr20  1  0.65766548  0.99425071  0.32941571  1
  Cr  Cr21  1  0.66276918  0.32698531  0.99333176  1
  Ni  Ni22  1  0.83091376  0.49525423  0.16503299  1
  Cr  Cr23  1  0.66435964  0.32959055  0.33006174  1
  Cr  Cr24  1  0.66420709  0.66314503  -0.00409452  1
  Cr  Cr25  1  0.82916537  0.83088104  0.16125941  1
  Cr  Cr26  1  0.66388623  0.66169553  0.32744132  1
  Ni  Ni27  1  0.15874663  0.16501332  0.49636277  1
  Ni  Ni28  1  0.99323356  -0.00135760  0.66315806  1
  Cr  Cr29  1  0.15835760  0.16088224  0.82908593  1
  Ni  Ni30  1  0.15854020  0.49310224  0.49607719  1
  Ni  Ni31  1  0.99237668  0.32663095  0.65927281  1
  Cr  Cr32  1  0.16412070  0.49449721  0.82687581  1
  Cr  Cr33  1  0.15973245  0.82707984  0.49651970  1
  Cr  Cr34  1  0.99428584  0.65973337  0.66212141  1
  Cr  Cr35  1  0.15928176  0.82960489  0.82664966  1
  Ni  Ni36  1  0.49492583  0.16188528  0.49697809  1
  Cr  Cr37  1  0.32764322  -0.00427629  0.65708405  1
  Ni  Ni38  1  0.49897125  0.16074822  0.82896638  1
  Cr  Cr39  1  0.49743082  0.49503946  0.49955190  1
  Cr  Cr40  1  0.32697125  0.32566962  0.66137562  1
  Cr  Cr41  1  0.49488339  0.49306281  0.82534938  1
  Ni  Ni42  1  0.49522881  0.82725007  0.49685016  1
  Ni  Ni43  1  0.32921191  0.66109345  0.65849565  1
  Cr  Cr44  1  0.49548385  0.82568715  0.82569455  1
  Cr  Cr45  1  0.82885422  0.16401975  0.49544200  1
  Cr  Cr46  1  0.66101917  -0.00341750  0.66187506  1
  Ni  Ni47  1  0.82710042  0.15961479  0.82682247  1
  Ni  Ni48  1  0.83119498  0.49392836  0.49602473  1
  Ni  Ni49  1  0.66383692  0.32751139  0.66142447  1
  Cr  Cr50  1  0.82597818  0.49265109  0.82382792  1
  Cr  Cr51  1  0.82751736  0.82686889  0.49696114  1
  Ni  Ni52  1  0.66181783  0.66050597  0.65983064  1
  Fe  Fe53  1  0.82683394  0.83115934  0.82650627  1
" 