6106,Ni36Fe35Cr27_5,-228.063807200927, 186.029256033599,Ni36Fe35Cr27,"# generated using pymatgen
 data_Cr16(FeNi)19
_symmetry_space_group_name_H-M   'P 1'
_cell_length_a   7.45328413
_cell_length_b   7.45328413
_cell_length_c   10.54053551
_cell_angle_alpha   90.00000000
_cell_angle_beta   90.00000000
_cell_angle_gamma   90.00000000
_symmetry_Int_Tables_number   1
_chemical_formula_structural   Cr16(FeNi)19
_chemical_formula_sum   'Cr16 Fe19 Ni19'
_cell_volume   585.54197199
_cell_formula_units_Z   1
loop_
 _symmetry_equiv_pos_site_id
 _symmetry_equiv_pos_as_xyz
  1  'x, y, z'
loop_
 _atom_site_type_symbol
 _atom_site_label
 _atom_site_symmetry_multiplicity
 _atom_site_fract_x
 _atom_site_fract_y
 _atom_site_fract_z
 _atom_site_occupancy
  Ni  Ni0  1  0.99980042  0.99820871  1.00047664  1
  Cr  Cr1  1  0.16849696  0.16642876  0.16726107  1
  Cr  Cr2  1  1.00077942  0.99918789  0.33412896  1
  Fe  Fe3  1  0.00125033  0.33393611  0.99724383  1
  Cr  Cr4  1  0.16647081  0.50099077  0.16618672  1
  Fe  Fe5  1  1.00051270  0.33625406  0.33825967  1
  Ni  Ni6  1  0.00214259  0.67038573  0.99884774  1
  Ni  Ni7  1  0.16669215  0.83433886  0.16611286  1
  Ni  Ni8  1  0.00126953  0.66838322  0.33692433  1
  Ni  Ni9  1  0.33257500  0.00103042  0.99937320  1
  Cr  Cr10  1  0.49958604  0.16863118  0.16582860  1
  Fe  Fe11  1  0.33356067  0.00146986  0.33594906  1
  Ni  Ni12  1  0.33603555  0.33568573  1.00065102  1
  Ni  Ni13  1  0.50269232  0.50091609  0.16682077  1
  Fe  Fe14  1  0.33492235  0.33382915  0.33636768  1
  Ni  Ni15  1  0.33185981  0.66608856  0.00142322  1
  Cr  Cr16  1  0.50058784  0.83376175  0.16523877  1
  Cr  Cr17  1  0.33328313  0.66529011  0.33478858  1
  Ni  Ni18  1  0.67029548  0.00238471  0.99966507  1
  Cr  Cr19  1  0.83478677  0.16914421  0.16632272  1
  Cr  Cr20  1  0.66929743  0.00173849  0.33552476  1
  Ni  Ni21  1  0.66606629  0.33327263  0.99857103  1
  Cr  Cr22  1  0.83344005  0.50222110  0.16822298  1
  Ni  Ni23  1  0.66553672  0.33567362  0.33789325  1
  Fe  Fe24  1  0.66868216  0.66752857  1.00049384  1
  Fe  Fe25  1  0.83644311  0.83263451  0.16628293  1
  Fe  Fe26  1  0.66973030  0.66577416  0.33617801  1
  Ni  Ni27  1  0.16997733  0.16827049  0.50009104  1
  Cr  Cr28  1  1.00028364  0.00134819  0.66753795  1
  Fe  Fe29  1  0.16786664  0.16824615  0.83566957  1
  Ni  Ni30  1  0.16325248  0.49970984  0.50108750  1
  Ni  Ni31  1  1.00027317  0.33481630  0.66715480  1
  Fe  Fe32  1  0.16539230  0.50046109  0.83557390  1
  Fe  Fe33  1  0.16666458  0.83408989  0.50016875  1
  Fe  Fe34  1  1.00022381  0.66514525  0.66705191  1
  Fe  Fe35  1  0.16645104  0.83402287  0.83714649  1
  Ni  Ni36  1  0.49881936  0.16657845  0.50083819  1
  Fe  Fe37  1  0.33340263  0.00285712  0.66711456  1
  Ni  Ni38  1  0.50016805  0.16624721  0.83607924  1
  Fe  Fe39  1  0.50222097  0.49853832  0.49893093  1
  Cr  Cr40  1  0.33409390  0.33478035  0.66729244  1
  Cr  Cr41  1  0.50311140  0.49934638  0.83699200  1
  Fe  Fe42  1  0.50012400  0.83504221  0.50044547  1
  Cr  Cr43  1  0.33138692  0.66687621  0.66646981  1
  Cr  Cr44  1  0.49935349  0.83765202  0.83605694  1
  Fe  Fe45  1  0.83510806  0.17136452  0.50067884  1
  Cr  Cr46  1  0.66866690  0.00375508  0.66688814  1
  Fe  Fe47  1  0.83337389  0.16968104  0.83633977  1
  Ni  Ni48  1  0.83616841  0.50167085  0.50074639  1
  Fe  Fe49  1  0.67009804  0.33367320  0.66707741  1
  Ni  Ni50  1  0.83794199  0.50021626  0.83402304  1
  Ni  Ni51  1  0.83465508  0.83028439  0.50002936  1
  Cr  Cr52  1  0.66867982  0.66651115  0.66522813  1
  Fe  Fe53  1  0.83530527  0.83348525  0.83610921  1
" 