2899,Ni36Fe3Cr60_18,-213.827639824299, 135.78599940222,Ni36Fe3Cr60,"# generated using pymatgen
 data_Cr34FeNi19
_symmetry_space_group_name_H-M   'P 1'
_cell_length_a   7.55026302
_cell_length_b   7.55026302
_cell_length_c   10.67768436
_cell_angle_alpha   90.00000000
_cell_angle_beta   90.00000000
_cell_angle_gamma   90.00000000
_symmetry_Int_Tables_number   1
_chemical_formula_structural   Cr34FeNi19
_chemical_formula_sum   'Cr34 Fe1 Ni19'
_cell_volume   608.69711063
_cell_formula_units_Z   1
loop_
 _symmetry_equiv_pos_site_id
 _symmetry_equiv_pos_as_xyz
  1  'x, y, z'
loop_
 _atom_site_type_symbol
 _atom_site_label
 _atom_site_symmetry_multiplicity
 _atom_site_fract_x
 _atom_site_fract_y
 _atom_site_fract_z
 _atom_site_occupancy
  Cr  Cr0  1  0.99440813  -0.00540685  -0.00524704  1
  Fe  Fe1  1  0.16061398  0.16184852  0.16142389  1
  Cr  Cr2  1  0.99155219  0.99369032  0.32653839  1
  Ni  Ni3  1  -0.00471946  0.32437806  -0.00231406  1
  Ni  Ni4  1  0.16193541  0.49009461  0.16282426  1
  Cr  Cr5  1  0.99443343  0.32699153  0.32635225  1
  Cr  Cr6  1  0.99266068  0.66042910  -0.00492469  1
  Cr  Cr7  1  0.16343134  0.82530238  0.16420070  1
  Cr  Cr8  1  0.99444719  0.66089949  0.32811911  1
  Cr  Cr9  1  0.32993749  -0.00239768  -0.00338088  1
  Ni  Ni10  1  0.49548290  0.16183898  0.16358878  1
  Cr  Cr11  1  0.33121031  -0.00303903  0.32618510  1
  Cr  Cr12  1  0.32451358  0.32560424  -0.00481221  1
  Cr  Cr13  1  0.49388108  0.49530395  0.16098465  1
  Ni  Ni14  1  0.33085448  0.32731984  0.32465253  1
  Cr  Cr15  1  0.32983557  0.66192036  -0.00370840  1
  Ni  Ni16  1  0.49688096  0.82967888  0.16079676  1
  Ni  Ni17  1  0.33024202  0.65927140  0.32452808  1
  Cr  Cr18  1  0.66184789  0.99131619  -0.00148495  1
  Ni  Ni19  1  0.82698797  0.16062455  0.16150979  1
  Cr  Cr20  1  0.66061298  -0.00381849  0.32451252  1
  Cr  Cr21  1  0.65928084  0.32460124  -0.00472395  1
  Cr  Cr22  1  0.82773164  0.49156507  0.15983974  1
  Ni  Ni23  1  0.65728182  0.32479417  0.32657996  1
  Ni  Ni24  1  0.66337588  0.66394608  -0.00447263  1
  Ni  Ni25  1  0.82714020  0.82934575  0.15927877  1
  Cr  Cr26  1  0.66236883  0.66382667  0.32530182  1
  Cr  Cr27  1  0.16151312  0.15918294  0.49493692  1
  Ni  Ni28  1  0.99358917  -0.00438901  0.66367386  1
  Ni  Ni29  1  0.15962893  0.16101399  0.82845585  1
  Cr  Cr30  1  0.16568598  0.49679462  0.48990072  1
  Cr  Cr31  1  -0.00509820  0.32834284  0.66262278  1
  Cr  Cr32  1  0.16122749  0.49502980  0.83047241  1
  Cr  Cr33  1  0.16387059  0.82920463  0.49601899  1
  Cr  Cr34  1  0.99375633  0.66106735  0.66005762  1
  Cr  Cr35  1  0.16264445  0.83248444  0.82295382  1
  Ni  Ni36  1  0.49443122  0.16294703  0.49482994  1
  Ni  Ni37  1  0.32845710  -0.00321278  0.66085067  1
  Cr  Cr38  1  0.49385113  0.15893370  0.82479880  1
  Cr  Cr39  1  0.49528474  0.49348006  0.49296863  1
  Cr  Cr40  1  0.32794235  0.32859870  0.66172630  1
  Cr  Cr41  1  0.49630862  0.49610889  0.82757391  1
  Cr  Cr42  1  0.49290835  0.82925354  0.49543301  1
  Ni  Ni43  1  0.33145922  0.66416841  0.66027103  1
  Cr  Cr44  1  0.49563479  0.82717566  0.82803639  1
  Cr  Cr45  1  0.82306943  0.16158839  0.49598002  1
  Ni  Ni46  1  0.65931848  0.99402705  0.66097471  1
  Cr  Cr47  1  0.82857394  0.15913191  0.82677187  1
  Cr  Cr48  1  0.82320441  0.49181528  0.49469277  1
  Ni  Ni49  1  0.65855220  0.32669571  0.65992227  1
  Cr  Cr50  1  0.82481266  0.49272685  0.82984721  1
  Cr  Cr51  1  0.82780408  0.83053580  0.49766166  1
  Ni  Ni52  1  0.65971377  0.66238049  0.66322986  1
  Ni  Ni53  1  0.82604517  0.82740323  0.82560851  1
" 