6252,Ni36Fe24Cr39_0,-223.650670239135, 178.42461104749,Ni36Fe24Cr39,"# generated using pymatgen
 data_Cr23Fe12Ni19
_symmetry_space_group_name_H-M   'P 1'
_cell_length_a   7.48757813
_cell_length_b   7.48757813
_cell_length_c   10.58903454
_cell_angle_alpha   90.00000000
_cell_angle_beta   90.00000000
_cell_angle_gamma   90.00000000
_symmetry_Int_Tables_number   1
_chemical_formula_structural   Cr23Fe12Ni19
_chemical_formula_sum   'Cr23 Fe12 Ni19'
_cell_volume   593.66179217
_cell_formula_units_Z   1
loop_
 _symmetry_equiv_pos_site_id
 _symmetry_equiv_pos_as_xyz
  1  'x, y, z'
loop_
 _atom_site_type_symbol
 _atom_site_label
 _atom_site_symmetry_multiplicity
 _atom_site_fract_x
 _atom_site_fract_y
 _atom_site_fract_z
 _atom_site_occupancy
  Cr  Cr0  1  0.99581582  -0.00106574  0.00088340  1
  Fe  Fe1  1  0.16561070  0.16529896  0.16515251  1
  Cr  Cr2  1  -0.00063125  0.99634761  0.32822897  1
  Ni  Ni3  1  -0.00081276  0.33285903  0.99737124  1
  Cr  Cr4  1  0.16597920  0.49946936  0.16456911  1
  Cr  Cr5  1  0.99757341  0.33436520  0.33094581  1
  Cr  Cr6  1  0.99832342  0.66396051  -0.00115267  1
  Ni  Ni7  1  0.16549234  0.83050155  0.16818269  1
  Fe  Fe8  1  0.99777982  0.66597698  0.33198486  1
  Cr  Cr9  1  0.33210282  -0.00056514  0.00016008  1
  Cr  Cr10  1  0.50032180  0.16673041  0.16640762  1
  Ni  Ni11  1  0.33225447  0.99653566  0.33241028  1
  Ni  Ni12  1  0.32816158  0.33351394  -0.00004139  1
  Cr  Cr13  1  0.49882586  0.49916386  0.16548942  1
  Fe  Fe14  1  0.33399048  0.33160822  0.33322881  1
  Fe  Fe15  1  0.32943416  0.66362792  -0.00133652  1
  Cr  Cr16  1  0.49734605  0.82994896  0.16411839  1
  Ni  Ni17  1  0.33168042  0.66548273  0.33312831  1
  Ni  Ni18  1  0.66877722  -0.00134625  0.99849040  1
  Ni  Ni19  1  0.83276062  0.16711481  0.16344508  1
  Cr  Cr20  1  0.66446528  -0.00115637  0.33193707  1
  Cr  Cr21  1  0.66773794  0.33065256  0.99775227  1
  Fe  Fe22  1  0.83177882  0.49777430  0.16595295  1
  Ni  Ni23  1  0.66516485  0.33543781  0.33299811  1
  Cr  Cr24  1  0.66833195  0.66694759  0.99763236  1
  Fe  Fe25  1  0.83202089  0.83162358  0.16569373  1
  Fe  Fe26  1  0.66517748  0.66467760  0.33456506  1
  Cr  Cr27  1  0.16480058  0.16490814  0.49906639  1
  Ni  Ni28  1  0.99728546  0.99789979  0.66659151  1
  Cr  Cr29  1  0.16148214  0.16710117  0.83104039  1
  Fe  Fe30  1  0.16631675  0.50124175  0.49812326  1
  Fe  Fe31  1  0.99659276  0.33313325  0.66741620  1
  Ni  Ni32  1  0.16410662  0.49758952  0.83267370  1
  Cr  Cr33  1  0.16630755  0.83166133  0.49949889  1
  Cr  Cr34  1  0.99695379  0.66437268  0.66532131  1
  Cr  Cr35  1  0.16639513  0.83021185  0.82922078  1
  Fe  Fe36  1  0.49891237  0.16380946  0.49775679  1
  Ni  Ni37  1  0.33182073  0.99711357  0.66233905  1
  Cr  Cr38  1  0.50118077  0.16518167  0.83206100  1
  Fe  Fe39  1  0.50041245  0.50097611  0.49802889  1
  Cr  Cr40  1  0.33304119  0.33368014  0.66308187  1
  Cr  Cr41  1  0.49748772  0.50055212  0.83344018  1
  Ni  Ni42  1  0.49792565  0.82803599  0.49897150  1
  Ni  Ni43  1  0.33315053  0.66442528  0.66528779  1
  Cr  Cr44  1  0.49902170  0.83013904  0.83177456  1
  Cr  Cr45  1  0.83196595  0.16679496  0.50268736  1
  Cr  Cr46  1  0.66562814  0.99734035  0.66621456  1
  Ni  Ni47  1  0.83338190  0.16689059  0.83098680  1
  Fe  Fe48  1  0.82918282  0.50077408  0.49915899  1
  Ni  Ni49  1  0.66717638  0.33530631  0.66481889  1
  Ni  Ni50  1  0.83361245  0.49599356  0.82995000  1
  Ni  Ni51  1  0.82952051  0.82907512  0.49787336  1
  Ni  Ni52  1  0.66575705  0.66327841  0.66314088  1
  Ni  Ni53  1  0.83108505  0.83299565  0.83124466  1
" 