7926,Ni36Fe41Cr21_11,-230.461071900635, 192.213946346751,Ni36Fe41Cr21,"# generated using pymatgen
 data_Cr13Fe22Ni19
_symmetry_space_group_name_H-M   'P 1'
_cell_length_a   7.45454353
_cell_length_b   7.45454353
_cell_length_c   10.54231656
_cell_angle_alpha   90.00000000
_cell_angle_beta   90.00000000
_cell_angle_gamma   90.00000000
_symmetry_Int_Tables_number   1
_chemical_formula_structural   Cr13Fe22Ni19
_chemical_formula_sum   'Cr13 Fe22 Ni19'
_cell_volume   585.83884249
_cell_formula_units_Z   1
loop_
 _symmetry_equiv_pos_site_id
 _symmetry_equiv_pos_as_xyz
  1  'x, y, z'
loop_
 _atom_site_type_symbol
 _atom_site_label
 _atom_site_symmetry_multiplicity
 _atom_site_fract_x
 _atom_site_fract_y
 _atom_site_fract_z
 _atom_site_occupancy
  Fe  Fe0  1  0.00168770  0.00124572  0.00192057  1
  Ni  Ni1  1  0.16790636  0.16670022  0.16683586  1
  Ni  Ni2  1  0.00149935  0.99895609  0.33418118  1
  Ni  Ni3  1  0.00344830  0.33293433  1.00056133  1
  Ni  Ni4  1  0.16983042  0.50045434  0.16788975  1
  Cr  Cr5  1  0.00353412  0.33317081  0.33403865  1
  Cr  Cr6  1  0.00308839  0.66723012  1.00033984  1
  Ni  Ni7  1  0.16609046  0.83536235  0.16858951  1
  Fe  Fe8  1  0.00279099  0.67126939  0.33394747  1
  Fe  Fe9  1  0.33287518  0.00201863  0.99929265  1
  Ni  Ni10  1  0.50038526  0.16998617  0.16728565  1
  Fe  Fe11  1  0.33030109  0.00229470  0.33411465  1
  Fe  Fe12  1  0.33334045  0.33428455  0.00125170  1
  Ni  Ni13  1  0.49931226  0.49801686  0.16896268  1
  Fe  Fe14  1  0.33529392  0.33420037  0.33355530  1
  Fe  Fe15  1  0.33244464  0.66621212  1.00026145  1
  Cr  Cr16  1  0.49921931  0.83418508  0.16710463  1
  Fe  Fe17  1  0.33181424  0.66602044  0.33424452  1
  Fe  Fe18  1  0.66795404  0.00214757  1.00051069  1
  Fe  Fe19  1  0.83507658  0.16604704  0.16668123  1
  Cr  Cr20  1  0.66897906  0.00165484  0.33358620  1
  Fe  Fe21  1  0.66608164  0.33275095  0.00120084  1
  Cr  Cr22  1  0.83379138  0.49976031  0.16838016  1
  Fe  Fe23  1  0.66475474  0.33362187  0.33433331  1
  Cr  Cr24  1  0.66595964  0.66902626  0.99893166  1
  Ni  Ni25  1  0.83665927  0.83643394  0.16959218  1
  Fe  Fe26  1  0.66790835  0.66628547  0.33372236  1
  Fe  Fe27  1  0.16922008  0.16675093  0.50022461  1
  Cr  Cr28  1  0.00299121  1.00008863  0.66626921  1
  Ni  Ni29  1  0.17003168  0.16791554  0.83469115  1
  Ni  Ni30  1  0.17066729  0.50189214  0.49982773  1
  Cr  Cr31  1  0.00341893  0.33490749  0.66791649  1
  Ni  Ni32  1  0.16889321  0.50032962  0.83479910  1
  Ni  Ni33  1  0.16778500  0.83465295  0.49930666  1
  Cr  Cr34  1  0.00147258  0.66752075  0.66847062  1
  Ni  Ni35  1  0.17010769  0.83427010  0.83461769  1
  Fe  Fe36  1  0.49914709  0.17056078  0.50119166  1
  Ni  Ni37  1  0.33515519  0.00170599  0.66810891  1
  Ni  Ni38  1  0.49926997  0.16734797  0.83386429  1
  Ni  Ni39  1  0.50008521  0.49937169  0.50090380  1
  Fe  Fe40  1  0.33509349  0.33375346  0.66770951  1
  Fe  Fe41  1  0.49950803  0.50066873  0.83344527  1
  Cr  Cr42  1  0.49836531  0.83296371  0.50141434  1
  Fe  Fe43  1  0.33406350  0.66755929  0.66801207  1
  Ni  Ni44  1  0.49965551  0.83437193  0.83383371  1
  Ni  Ni45  1  0.83364350  0.16749446  0.49957504  1
  Cr  Cr46  1  0.66523593  1.00001316  0.66770858  1
  Cr  Cr47  1  0.83416228  0.16875107  0.83756418  1
  Cr  Cr48  1  0.83223334  0.50015511  0.50099468  1
  Fe  Fe49  1  0.66446455  0.33461015  0.66699070  1
  Fe  Fe50  1  0.83376032  0.50111690  0.83443209  1
  Fe  Fe51  1  0.83626148  0.83398578  0.49914777  1
  Fe  Fe52  1  0.66581888  0.66702641  0.66926182  1
  Ni  Ni53  1  0.83275077  0.83323392  0.83369149  1
" 