5500,Ni36Fe2Cr60_14,-213.633987985704, 135.99502817045,Ni36Fe2Cr60,"# generated using pymatgen
 data_Cr34FeNi19
_symmetry_space_group_name_H-M   'P 1'
_cell_length_a   7.55401622
_cell_length_b   7.55401622
_cell_length_c   10.68299219
_cell_angle_alpha   90.00000000
_cell_angle_beta   90.00000000
_cell_angle_gamma   90.00000000
_symmetry_Int_Tables_number   1
_chemical_formula_structural   Cr34FeNi19
_chemical_formula_sum   'Cr34 Fe1 Ni19'
_cell_volume   609.60530423
_cell_formula_units_Z   1
loop_
 _symmetry_equiv_pos_site_id
 _symmetry_equiv_pos_as_xyz
  1  'x, y, z'
loop_
 _atom_site_type_symbol
 _atom_site_label
 _atom_site_symmetry_multiplicity
 _atom_site_fract_x
 _atom_site_fract_y
 _atom_site_fract_z
 _atom_site_occupancy
  Cr  Cr0  1  -0.00251375  -0.00484047  0.98980693  1
  Cr  Cr1  1  0.15976278  0.16259902  0.15787955  1
  Cr  Cr2  1  -0.00497388  0.99323029  0.33194557  1
  Ni  Ni3  1  -0.00550234  0.33220960  0.99046774  1
  Cr  Cr4  1  0.15828251  0.49608252  0.16219771  1
  Cr  Cr5  1  0.99314963  0.32964287  0.33071709  1
  Cr  Cr6  1  -0.00527223  0.65729520  0.99105204  1
  Cr  Cr7  1  0.15880066  0.82445970  0.16261756  1
  Ni  Ni8  1  0.99192659  0.65733985  0.33124351  1
  Cr  Cr9  1  0.32853319  0.99068699  0.99382897  1
  Cr  Cr10  1  0.49391665  0.16319017  0.16135371  1
  Cr  Cr11  1  0.32866987  0.99183937  0.32731180  1
  Cr  Cr12  1  0.32695775  0.33253837  -0.00509082  1
  Ni  Ni13  1  0.49806589  0.49983782  0.16222111  1
  Cr  Cr14  1  0.32778655  0.33147936  0.32557211  1
  Cr  Cr15  1  0.32988132  0.66083285  0.99099148  1
  Ni  Ni16  1  0.49495196  0.82114083  0.16324190  1
  Cr  Cr17  1  0.32886098  0.66075807  0.32933681  1
  Cr  Cr18  1  0.65683467  0.98912795  -0.00443611  1
  Cr  Cr19  1  0.82940472  0.16209853  0.15841389  1
  Cr  Cr20  1  0.65947092  0.99163392  0.32805457  1
  Cr  Cr21  1  0.66102273  0.33305903  0.99355476  1
  Ni  Ni22  1  0.82710192  0.49541677  0.16236172  1
  Cr  Cr23  1  0.66190920  0.33050738  0.32929778  1
  Cr  Cr24  1  0.65797485  0.65952251  0.99419034  1
  Cr  Cr25  1  0.82909537  0.82254875  0.16223419  1
  Ni  Ni26  1  0.66171647  0.65899008  0.32679732  1
  Cr  Cr27  1  0.16396031  0.16186344  0.49437507  1
  Cr  Cr28  1  -0.00178516  0.99315250  0.65980619  1
  Ni  Ni29  1  0.16265772  0.16236389  0.82789325  1
  Ni  Ni30  1  0.15850888  0.49994604  0.49391438  1
  Cr  Cr31  1  0.99246474  0.33059597  0.65986240  1
  Ni  Ni32  1  0.16166162  0.49460399  0.82714379  1
  Ni  Ni33  1  0.16466258  0.82246362  0.49571847  1
  Cr  Cr34  1  -0.00251360  0.65844929  0.66161020  1
  Ni  Ni35  1  0.16626564  0.82605088  0.82425159  1
  Cr  Cr36  1  0.49468629  0.16189734  0.49792820  1
  Ni  Ni37  1  0.32636331  0.98941851  0.66170925  1
  Cr  Cr38  1  0.49332112  0.16251034  0.82396618  1
  Cr  Cr39  1  0.49399512  0.49664941  0.49612481  1
  Cr  Cr40  1  0.32416935  0.33231521  0.66209395  1
  Ni  Ni41  1  0.49350975  0.49674506  0.82515785  1
  Ni  Ni42  1  0.49092319  0.82488748  0.49552021  1
  Fe  Fe43  1  0.32709564  0.66150922  0.66160134  1
  Ni  Ni44  1  0.48893354  0.82452474  0.82411825  1
  Ni  Ni45  1  0.82601215  0.16490663  0.49679945  1
  Cr  Cr46  1  0.65954271  0.99237238  0.65927961  1
  Cr  Cr47  1  0.82694598  0.16184541  0.82672234  1
  Ni  Ni48  1  0.82709825  0.49531843  0.49349112  1
  Ni  Ni49  1  0.66196983  0.33281797  0.66075837  1
  Ni  Ni50  1  0.82748083  0.49189974  0.82750195  1
  Cr  Cr51  1  0.82727960  0.82331319  0.49204264  1
  Cr  Cr52  1  0.66032885  0.65886161  0.66341674  1
  Cr  Cr53  1  0.82779853  0.82464219  0.82918093  1
" 