4584,Ni36Fe3Cr60_13,-213.91115492387, 138.806580347833,Ni36Fe3Cr60,"# generated using pymatgen
 data_Cr34FeNi19
_symmetry_space_group_name_H-M   'P 1'
_cell_length_a   7.54987945
_cell_length_b   7.54987945
_cell_length_c   10.67714191
_cell_angle_alpha   90.00000000
_cell_angle_beta   90.00000000
_cell_angle_gamma   90.00000000
_symmetry_Int_Tables_number   1
_chemical_formula_structural   Cr34FeNi19
_chemical_formula_sum   'Cr34 Fe1 Ni19'
_cell_volume   608.60434653
_cell_formula_units_Z   1
loop_
 _symmetry_equiv_pos_site_id
 _symmetry_equiv_pos_as_xyz
  1  'x, y, z'
loop_
 _atom_site_type_symbol
 _atom_site_label
 _atom_site_symmetry_multiplicity
 _atom_site_fract_x
 _atom_site_fract_y
 _atom_site_fract_z
 _atom_site_occupancy
  Cr  Cr0  1  -0.00543601  -0.00118130  0.99332980  1
  Ni  Ni1  1  0.16005386  0.16394301  0.16275149  1
  Cr  Cr2  1  0.99320866  -0.00405879  0.32631512  1
  Cr  Cr3  1  -0.00448051  0.32695888  0.99321455  1
  Cr  Cr4  1  0.16007384  0.49401203  0.16424038  1
  Ni  Ni5  1  0.99183057  0.32724384  0.33039460  1
  Cr  Cr6  1  -0.00340544  0.65807084  0.99289594  1
  Cr  Cr7  1  0.16282869  0.82823995  0.16005525  1
  Cr  Cr8  1  0.99228897  0.65842182  0.33192925  1
  Cr  Cr9  1  0.32752614  -0.00378899  -0.00277453  1
  Cr  Cr10  1  0.49726770  0.16316151  0.16252626  1
  Cr  Cr11  1  0.33071420  0.99350375  0.32595359  1
  Cr  Cr12  1  0.32530599  0.32990658  0.99135940  1
  Cr  Cr13  1  0.49701501  0.49433416  0.15786280  1
  Cr  Cr14  1  0.32683479  0.32714378  0.32893852  1
  Ni  Ni15  1  0.33113426  0.66016350  0.99318741  1
  Ni  Ni16  1  0.49649710  0.82722807  0.15735855  1
  Cr  Cr17  1  0.33054294  0.66242031  0.32679074  1
  Ni  Ni18  1  0.66035582  -0.00449251  0.99418321  1
  Cr  Cr19  1  0.82664627  0.16415519  0.16121382  1
  Cr  Cr20  1  0.66097844  0.99270807  0.33225984  1
  Ni  Ni21  1  0.66041770  0.32799359  0.99191133  1
  Cr  Cr22  1  0.82472435  0.49183765  0.16247425  1
  Ni  Ni23  1  0.66429652  0.32680683  0.33201873  1
  Ni  Ni24  1  0.65656831  0.66038466  0.99407260  1
  Cr  Cr25  1  0.82587908  0.82660036  0.15705885  1
  Cr  Cr26  1  0.66080025  0.66134001  0.33004702  1
  Cr  Cr27  1  0.16230220  0.16201306  0.49402196  1
  Cr  Cr28  1  0.99120625  -0.00351534  0.66394589  1
  Ni  Ni29  1  0.16094040  0.16473754  0.82675380  1
  Fe  Fe30  1  0.15914029  0.49268400  0.49628794  1
  Cr  Cr31  1  0.99440645  0.32906539  0.66332276  1
  Ni  Ni32  1  0.16328731  0.49389451  0.82436766  1
  Cr  Cr33  1  0.16019800  0.82635126  0.49715646  1
  Ni  Ni34  1  0.99428890  0.65824089  0.65898149  1
  Cr  Cr35  1  0.16135160  0.82707648  0.82583627  1
  Ni  Ni36  1  0.49665482  0.16207233  0.49421755  1
  Cr  Cr37  1  0.33063401  -0.00241153  0.65943704  1
  Cr  Cr38  1  0.49581072  0.16367942  0.82611379  1
  Cr  Cr39  1  0.49464553  0.49042246  0.49522410  1
  Ni  Ni40  1  0.32652840  0.32854220  0.66221644  1
  Ni  Ni41  1  0.49132527  0.49354547  0.82983765  1
  Ni  Ni42  1  0.49544879  0.82838422  0.49411104  1
  Cr  Cr43  1  0.32916450  0.65722210  0.66165883  1
  Cr  Cr44  1  0.49547574  0.82668864  0.83016358  1
  Ni  Ni45  1  0.82755413  0.16373730  0.49293622  1
  Cr  Cr46  1  0.66278527  -0.00486897  0.65660607  1
  Ni  Ni47  1  0.82718831  0.16261994  0.83068307  1
  Ni  Ni48  1  0.82961954  0.49235983  0.49384214  1
  Cr  Cr49  1  0.66062622  0.32706193  0.66115073  1
  Cr  Cr50  1  0.82408006  0.49549832  0.82944702  1
  Ni  Ni51  1  0.82864243  0.82590799  0.49659340  1
  Cr  Cr52  1  0.66267395  0.66101045  0.65856220  1
  Cr  Cr53  1  0.82732883  0.82869876  0.82873156  1
" 