4083,Ni36Fe24Cr39_15,-223.576772441522, 180.707808233895,Ni36Fe24Cr39,"# generated using pymatgen
 data_Cr23Fe12Ni19
_symmetry_space_group_name_H-M   'P 1'
_cell_length_a   7.48904803
_cell_length_b   7.48904803
_cell_length_c   10.59111329
_cell_angle_alpha   90.00000000
_cell_angle_beta   90.00000000
_cell_angle_gamma   90.00000000
_symmetry_Int_Tables_number   1
_chemical_formula_structural   Cr23Fe12Ni19
_chemical_formula_sum   'Cr23 Fe12 Ni19'
_cell_volume   594.01148933
_cell_formula_units_Z   1
loop_
 _symmetry_equiv_pos_site_id
 _symmetry_equiv_pos_as_xyz
  1  'x, y, z'
loop_
 _atom_site_type_symbol
 _atom_site_label
 _atom_site_symmetry_multiplicity
 _atom_site_fract_x
 _atom_site_fract_y
 _atom_site_fract_z
 _atom_site_occupancy
  Cr  Cr0  1  -0.00143928  0.99742137  -0.00096663  1
  Cr  Cr1  1  0.16286353  0.16543993  0.16760639  1
  Ni  Ni2  1  0.99801313  0.99849558  0.33138444  1
  Ni  Ni3  1  -0.00017960  0.33304514  0.99730423  1
  Ni  Ni4  1  0.16506853  0.50322679  0.16388620  1
  Fe  Fe5  1  -0.00003073  0.33165001  0.33063692  1
  Fe  Fe6  1  0.99777994  0.66612944  -0.00092821  1
  Ni  Ni7  1  0.16783406  0.82902808  0.16656233  1
  Cr  Cr8  1  0.99677416  0.66842234  0.33130772  1
  Cr  Cr9  1  0.32904687  -0.00050662  0.99765346  1
  Cr  Cr10  1  0.50302780  0.16130235  0.16441187  1
  Ni  Ni11  1  0.33028632  0.99834227  0.33169191  1
  Cr  Cr12  1  0.33139694  0.33464272  0.99815300  1
  Ni  Ni13  1  0.49897161  0.50242204  0.16373211  1
  Cr  Cr14  1  0.33297452  0.33458992  0.33113322  1
  Fe  Fe15  1  0.33297589  0.66659396  0.00029281  1
  Ni  Ni16  1  0.49712792  0.83086908  0.16596338  1
  Ni  Ni17  1  0.33290532  0.66415751  0.32826008  1
  Ni  Ni18  1  0.66744227  0.99150064  -0.00129689  1
  Cr  Cr19  1  0.82989492  0.16555135  0.16598857  1
  Ni  Ni20  1  0.66750712  0.99550763  0.33163366  1
  Fe  Fe21  1  0.66541184  0.33419828  0.99746400  1
  Cr  Cr22  1  0.83343570  0.49550654  0.16350213  1
  Fe  Fe23  1  0.66291862  0.33203992  0.33211575  1
  Ni  Ni24  1  0.66564108  0.66444237  0.99818066  1
  Fe  Fe25  1  0.83001982  0.83113367  0.16548225  1
  Cr  Cr26  1  0.66293950  0.66421664  0.33382515  1
  Fe  Fe27  1  0.16538924  0.16503169  0.49865439  1
  Cr  Cr28  1  0.99803912  0.99730133  0.66627031  1
  Ni  Ni29  1  0.16406447  0.16530396  0.82861367  1
  Cr  Cr30  1  0.16460538  0.49910444  0.49841995  1
  Fe  Fe31  1  0.99803124  0.33231511  0.66738344  1
  Cr  Cr32  1  0.16267127  0.50132158  0.83308822  1
  Cr  Cr33  1  0.16701256  0.83112409  0.49756336  1
  Fe  Fe34  1  0.99793670  0.66480341  0.66629523  1
  Ni  Ni35  1  0.16414416  0.83101304  0.83171345  1
  Cr  Cr36  1  0.49944493  0.16356715  0.49997237  1
  Fe  Fe37  1  0.33060143  0.00012338  0.66619501  1
  Cr  Cr38  1  0.49999961  0.16442307  0.83143783  1
  Ni  Ni39  1  0.49796115  0.49642019  0.49858612  1
  Ni  Ni40  1  0.33215899  0.33062217  0.66596528  1
  Ni  Ni41  1  0.50129893  0.49887630  0.83283562  1
  Cr  Cr42  1  0.49668995  0.83342821  0.49707680  1
  Cr  Cr43  1  0.33488272  0.66106047  0.66547249  1
  Cr  Cr44  1  0.49695148  0.83220673  0.83185282  1
  Cr  Cr45  1  0.83142606  0.16632835  0.49545991  1
  Fe  Fe46  1  0.66606571  -0.00038715  0.66495491  1
  Cr  Cr47  1  0.82974347  0.16835667  0.83440068  1
  Cr  Cr48  1  0.83353434  0.49618906  0.49959481  1
  Ni  Ni49  1  0.66261035  0.33509837  0.66653283  1
  Ni  Ni50  1  0.83169221  0.49930630  0.83251019  1
  Ni  Ni51  1  0.83271613  0.83451644  0.49896255  1
  Cr  Cr52  1  0.66802557  0.66496286  0.66334753  1
  Fe  Fe53  1  0.83237766  0.82889646  0.83254238  1
" 