4087,Ni36Fe35Cr27_7,-228.429071210943, 188.635117674877,Ni36Fe35Cr27,"# generated using pymatgen
 data_Cr16(FeNi)19
_symmetry_space_group_name_H-M   'P 1'
_cell_length_a   7.45812505
_cell_length_b   7.45812505
_cell_length_c   10.54738159
_cell_angle_alpha   90.00000000
_cell_angle_beta   90.00000000
_cell_angle_gamma   90.00000000
_symmetry_Int_Tables_number   1
_chemical_formula_structural   Cr16(FeNi)19
_chemical_formula_sum   'Cr16 Fe19 Ni19'
_cell_volume   586.68364330
_cell_formula_units_Z   1
loop_
 _symmetry_equiv_pos_site_id
 _symmetry_equiv_pos_as_xyz
  1  'x, y, z'
loop_
 _atom_site_type_symbol
 _atom_site_label
 _atom_site_symmetry_multiplicity
 _atom_site_fract_x
 _atom_site_fract_y
 _atom_site_fract_z
 _atom_site_occupancy
  Fe  Fe0  1  0.00283786  1.00005281  0.99863417  1
  Fe  Fe1  1  0.16857530  0.16952241  0.16589745  1
  Fe  Fe2  1  1.00012042  0.00063793  0.33588326  1
  Ni  Ni3  1  0.99958973  0.33784211  0.00066429  1
  Fe  Fe4  1  0.16652637  0.50023680  0.16711441  1
  Ni  Ni5  1  0.99988644  0.33651768  0.33302224  1
  Fe  Fe6  1  0.00219710  0.66696011  0.99801157  1
  Cr  Cr7  1  0.16620746  0.83325097  0.16614132  1
  Fe  Fe8  1  0.00211672  0.66496565  0.33620353  1
  Ni  Ni9  1  0.33587307  0.99958791  0.00122915  1
  Ni  Ni10  1  0.49991682  0.16848591  0.16738836  1
  Cr  Cr11  1  0.33634415  1.00006922  0.33038528  1
  Ni  Ni12  1  0.33152843  0.33325316  0.00385690  1
  Cr  Cr13  1  0.49948583  0.50237236  0.16593869  1
  Fe  Fe14  1  0.33214353  0.33674482  0.33331583  1
  Ni  Ni15  1  0.33290827  0.66910053  0.99904817  1
  Ni  Ni16  1  0.50096978  0.83222047  0.16614711  1
  Ni  Ni17  1  0.33332592  0.66791844  0.33497366  1
  Cr  Cr18  1  0.66418812  0.99945839  0.99944406  1
  Cr  Cr19  1  0.83728900  0.16693140  0.16488190  1
  Fe  Fe20  1  0.66728871  1.00006157  0.33313582  1
  Fe  Fe21  1  0.66452571  0.33311764  0.99950585  1
  Fe  Fe22  1  0.83504056  0.50100688  0.16553571  1
  Cr  Cr23  1  0.66713553  0.33368541  0.33406647  1
  Fe  Fe24  1  0.66694120  0.66675251  0.99947704  1
  Cr  Cr25  1  0.83436472  0.83127479  0.16951568  1
  Fe  Fe26  1  0.66616118  0.66682646  0.33495926  1
  Cr  Cr27  1  0.16635488  0.16654094  0.49876249  1
  Cr  Cr28  1  1.00036058  0.99922507  0.66857088  1
  Cr  Cr29  1  0.17026827  0.16766363  0.83698465  1
  Ni  Ni30  1  0.16935482  0.50266782  0.49794561  1
  Cr  Cr31  1  0.99741938  0.33715892  0.66841532  1
  Ni  Ni32  1  0.16743691  0.50264647  0.83591046  1
  Ni  Ni33  1  0.16659080  0.83276964  0.50083747  1
  Cr  Cr34  1  0.00385374  0.66545775  0.66773847  1
  Ni  Ni35  1  0.16752770  0.83317803  0.83405748  1
  Fe  Fe36  1  0.50096199  0.16680801  0.50195964  1
  Ni  Ni37  1  0.33591637  0.99759554  0.66945734  1
  Ni  Ni38  1  0.50141083  0.16747460  0.83263167  1
  Ni  Ni39  1  0.50092206  0.49994152  0.50040933  1
  Cr  Cr40  1  0.33373299  0.33636633  0.66399649  1
  Cr  Cr41  1  0.49826405  0.49835729  0.83417062  1
  Cr  Cr42  1  0.50056646  0.83253738  0.50195582  1
  Ni  Ni43  1  0.33289552  0.67000310  0.66713217  1
  Fe  Fe44  1  0.49777304  0.83338548  0.83435469  1
  Fe  Fe45  1  0.83252037  0.16705058  0.49971518  1
  Fe  Fe46  1  0.66654719  0.00169720  0.66963933  1
  Fe  Fe47  1  0.83340939  0.16930540  0.83587304  1
  Fe  Fe48  1  0.83434819  0.50093201  0.49988945  1
  Ni  Ni49  1  0.66896737  0.33172899  0.66736359  1
  Ni  Ni50  1  0.83273883  0.50077372  0.83735301  1
  Fe  Fe51  1  0.83519941  0.83311012  0.49886033  1
  Cr  Cr52  1  0.66852246  0.66536407  0.66881220  1
  Ni  Ni53  1  0.83495003  0.83370761  0.83512765  1
" 