489,Ni36Fe41Cr21_16,-230.24969755474, 194.479834558872,Ni36Fe41Cr21,"# generated using pymatgen
 data_Cr13Fe22Ni19
_symmetry_space_group_name_H-M   'P 1'
_cell_length_a   7.44505240
_cell_length_b   7.44505240
_cell_length_c   10.52889407
_cell_angle_alpha   90.00000000
_cell_angle_beta   90.00000000
_cell_angle_gamma   90.00000000
_symmetry_Int_Tables_number   1
_chemical_formula_structural   Cr13Fe22Ni19
_chemical_formula_sum   'Cr13 Fe22 Ni19'
_cell_volume   583.60401876
_cell_formula_units_Z   1
loop_
 _symmetry_equiv_pos_site_id
 _symmetry_equiv_pos_as_xyz
  1  'x, y, z'
loop_
 _atom_site_type_symbol
 _atom_site_label
 _atom_site_symmetry_multiplicity
 _atom_site_fract_x
 _atom_site_fract_y
 _atom_site_fract_z
 _atom_site_occupancy
  Cr  Cr0  1  0.00426678  1.00055879  0.00279483  1
  Ni  Ni1  1  0.16635962  0.16835166  0.16792714  1
  Fe  Fe2  1  0.00345769  0.00356575  0.33467183  1
  Fe  Fe3  1  0.00215553  0.33445520  1.00127120  1
  Ni  Ni4  1  0.16630285  0.50033196  0.16596773  1
  Fe  Fe5  1  0.00232823  0.33336497  0.33531509  1
  Ni  Ni6  1  0.00275783  0.66559637  1.00142419  1
  Fe  Fe7  1  0.16806301  0.83407412  0.16751182  1
  Cr  Cr8  1  0.00273836  0.66764047  0.33532336  1
  Ni  Ni9  1  0.33381657  0.00355065  1.00116343  1
  Fe  Fe10  1  0.50003909  0.16853635  0.16912507  1
  Ni  Ni11  1  0.33339702  1.00121505  0.33436215  1
  Fe  Fe12  1  0.33136818  0.33349276  0.00240746  1
  Cr  Cr13  1  0.50027398  0.50452458  0.16846415  1
  Cr  Cr14  1  0.33380689  0.33379201  0.33504857  1
  Fe  Fe15  1  0.33232673  0.67067484  0.99981487  1
  Cr  Cr16  1  0.50067838  0.83452136  0.16779381  1
  Fe  Fe17  1  0.33352473  0.66949139  0.33746250  1
  Cr  Cr18  1  0.66596567  0.00346234  1.00097262  1
  Ni  Ni19  1  0.83728697  0.16844560  0.17149304  1
  Fe  Fe20  1  0.66897935  1.00105247  0.33471769  1
  Cr  Cr21  1  0.66881361  0.33369002  0.00164546  1
  Ni  Ni22  1  0.83660512  0.50010059  0.16778119  1
  Fe  Fe23  1  0.67070232  0.33514600  0.33475357  1
  Ni  Ni24  1  0.67137861  0.66696458  0.00148607  1
  Fe  Fe25  1  0.83630214  0.83293550  0.16796374  1
  Fe  Fe26  1  0.66769602  0.66835391  0.33610961  1
  Ni  Ni27  1  0.16466321  0.16773935  0.50286145  1
  Fe  Fe28  1  0.00268722  0.00255181  0.66821945  1
  Fe  Fe29  1  0.16836648  0.16858100  0.83391536  1
  Ni  Ni30  1  0.16865760  0.49973454  0.50235598  1
  Ni  Ni31  1  0.00243377  0.33397861  0.66805596  1
  Ni  Ni32  1  0.16732574  0.50036615  0.83566438  1
  Fe  Fe33  1  0.17171885  0.83666369  0.50180473  1
  Cr  Cr34  1  0.00404146  0.66681592  0.66849764  1
  Ni  Ni35  1  0.17144924  0.83470861  0.83476498  1
  Cr  Cr36  1  0.50058808  0.16652437  0.50149264  1
  Fe  Fe37  1  0.33354424  1.00034851  0.66830450  1
  Fe  Fe38  1  0.49886616  0.16692370  0.83355724  1
  Ni  Ni39  1  0.50013622  0.50457851  0.50005271  1
  Fe  Fe40  1  0.33143528  0.33744790  0.66685810  1
  Cr  Cr41  1  0.49850872  0.50451940  0.83555331  1
  Ni  Ni42  1  0.50204147  0.83431050  0.50140246  1
  Ni  Ni43  1  0.33334614  0.66996402  0.66617122  1
  Ni  Ni44  1  0.49844321  0.83613500  0.83404638  1
  Fe  Fe45  1  0.83677003  0.16807257  0.50112650  1
  Fe  Fe46  1  0.66797831  1.00071234  0.66851891  1
  Ni  Ni47  1  0.83738621  0.16895071  0.83224938  1
  Fe  Fe48  1  0.83514123  0.49902356  0.50026138  1
  Cr  Cr49  1  0.66842431  0.33469985  0.66826244  1
  Ni  Ni50  1  0.83805490  0.49878421  0.83665625  1
  Fe  Fe51  1  0.83443625  0.83713293  0.50079499  1
  Cr  Cr52  1  0.66753092  0.66766230  0.66754228  1
  Cr  Cr53  1  0.83440065  0.83494777  0.83600436  1
" 