34,Ni36Fe60Cr2_0,-236.38986296308, 208.494457588833,Ni36Fe60Cr2,"# generated using pymatgen
 data_Cr3Fe32Ni19
_symmetry_space_group_name_H-M   'P 1'
_cell_length_a   7.40849040
_cell_length_b   7.40849040
_cell_length_c   10.47718761
_cell_angle_alpha   90.00000000
_cell_angle_beta   90.00000000
_cell_angle_gamma   90.00000000
_symmetry_Int_Tables_number   1
_chemical_formula_structural   Cr3Fe32Ni19
_chemical_formula_sum   'Cr3 Fe32 Ni19'
_cell_volume   575.04809084
_cell_formula_units_Z   1
loop_
 _symmetry_equiv_pos_site_id
 _symmetry_equiv_pos_as_xyz
  1  'x, y, z'
loop_
 _atom_site_type_symbol
 _atom_site_label
 _atom_site_symmetry_multiplicity
 _atom_site_fract_x
 _atom_site_fract_y
 _atom_site_fract_z
 _atom_site_occupancy
  Ni  Ni0  1  0.00504578  1.00365659  0.00409786  1
  Ni  Ni1  1  0.17117902  0.16993193  0.16925145  1
  Fe  Fe2  1  1.00306737  1.00292133  0.33705023  1
  Fe  Fe3  1  1.00369487  0.33553595  0.00493784  1
  Fe  Fe4  1  0.17161660  0.50416438  0.16995333  1
  Cr  Cr5  1  1.00357279  0.33743176  0.33714831  1
  Fe  Fe6  1  1.00325149  0.67113119  0.00466117  1
  Fe  Fe7  1  0.17045651  0.83810989  0.17051487  1
  Fe  Fe8  1  1.00293826  0.67211606  0.33803550  1
  Ni  Ni9  1  0.33579731  1.00386533  1.00320346  1
  Fe  Fe10  1  0.50367651  0.17092661  0.17043098  1
  Fe  Fe11  1  0.33775934  0.00439575  0.33676989  1
  Ni  Ni12  1  0.33827353  0.33668901  0.00516669  1
  Fe  Fe13  1  0.50361218  0.50268748  0.17033786  1
  Fe  Fe14  1  0.33944764  0.33703547  0.33683531  1
  Fe  Fe15  1  0.33859350  0.67147676  1.00382291  1
  Fe  Fe16  1  0.50342408  0.83824282  0.17061712  1
  Fe  Fe17  1  0.33810430  0.67042498  0.33869573  1
  Fe  Fe18  1  0.66994519  0.00446735  1.00370990  1
  Fe  Fe19  1  0.83649672  0.16976727  0.17036062  1
  Ni  Ni20  1  0.67063930  1.00368389  0.33738568  1
  Ni  Ni21  1  0.67048845  0.33858797  1.00322194  1
  Fe  Fe22  1  0.83662861  0.50391259  0.16967043  1
  Ni  Ni23  1  0.66969995  0.33723131  0.33873535  1
  Fe  Fe24  1  0.67001168  0.67034841  1.00309153  1
  Fe  Fe25  1  0.83797485  0.83817598  0.17104012  1
  Fe  Fe26  1  0.67081319  0.67042582  0.33806646  1
  Fe  Fe27  1  0.17090567  0.16993161  0.50430326  1
  Fe  Fe28  1  1.00367561  1.00324851  0.67050432  1
  Fe  Fe29  1  0.17129139  0.16929635  0.83865856  1
  Ni  Ni30  1  0.17169040  0.50502561  0.50438968  1
  Fe  Fe31  1  1.00261667  0.33705266  0.66921020  1
  Cr  Cr32  1  0.17093747  0.50364339  0.83800302  1
  Ni  Ni33  1  0.17085630  0.83695652  0.50391785  1
  Fe  Fe34  1  0.00455023  0.67155393  0.66916242  1
  Fe  Fe35  1  0.17118865  0.83805147  0.83714822  1
  Fe  Fe36  1  0.50518437  0.17042761  0.50360265  1
  Fe  Fe37  1  0.33802753  1.00261972  0.67102873  1
  Fe  Fe38  1  0.50430841  0.17134261  0.83782425  1
  Ni  Ni39  1  0.50281976  0.50334368  0.50310798  1
  Fe  Fe40  1  0.33870718  0.33730179  0.67011871  1
  Ni  Ni41  1  0.50490546  0.50381228  0.83886718  1
  Ni  Ni42  1  0.50308986  0.83807241  0.50259731  1
  Ni  Ni43  1  0.33635144  0.67110560  0.66993552  1
  Ni  Ni44  1  0.50318537  0.83850131  0.83892631  1
  Ni  Ni45  1  0.83623130  0.16960567  0.50432050  1
  Ni  Ni46  1  0.67109584  0.00502246  0.67092611  1
  Fe  Fe47  1  0.83625669  0.17102209  0.83694844  1
  Ni  Ni48  1  0.83734706  0.50306455  0.50393385  1
  Fe  Fe49  1  0.67053336  0.33642343  0.67053722  1
  Ni  Ni50  1  0.83635363  0.50239189  0.83854818  1
  Ni  Ni51  1  0.83791123  0.83918685  0.50273659  1
  Cr  Cr52  1  0.66973195  0.67064652  0.66952581  1
  Fe  Fe53  1  0.83744797  0.83741540  0.83781439  1
" 