6837,Ni36Fe3Cr60_19,-213.785980439172, 137.25721586672,Ni36Fe3Cr60,"# generated using pymatgen
 data_Cr34FeNi19
_symmetry_space_group_name_H-M   'P 1'
_cell_length_a   7.55370626
_cell_length_b   7.55370626
_cell_length_c   10.68255384
_cell_angle_alpha   90.00000000
_cell_angle_beta   90.00000000
_cell_angle_gamma   90.00000000
_symmetry_Int_Tables_number   1
_chemical_formula_structural   Cr34FeNi19
_chemical_formula_sum   'Cr34 Fe1 Ni19'
_cell_volume   609.53026607
_cell_formula_units_Z   1
loop_
 _symmetry_equiv_pos_site_id
 _symmetry_equiv_pos_as_xyz
  1  'x, y, z'
loop_
 _atom_site_type_symbol
 _atom_site_label
 _atom_site_symmetry_multiplicity
 _atom_site_fract_x
 _atom_site_fract_y
 _atom_site_fract_z
 _atom_site_occupancy
  Cr  Cr0  1  0.99386532  0.99351639  0.99351979  1
  Cr  Cr1  1  0.16044980  0.16332497  0.16199783  1
  Cr  Cr2  1  0.99222543  -0.00349233  0.32825891  1
  Cr  Cr3  1  0.99407322  0.32783666  0.99309148  1
  Cr  Cr4  1  0.16038448  0.49183054  0.16302833  1
  Ni  Ni5  1  0.99096375  0.32624238  0.32891910  1
  Cr  Cr6  1  -0.00329291  0.66143315  0.99014104  1
  Cr  Cr7  1  0.16081776  0.82771938  0.16196358  1
  Cr  Cr8  1  0.99358111  0.65977976  0.33049424  1
  Cr  Cr9  1  0.32846410  0.99276806  -0.00407956  1
  Ni  Ni10  1  0.49593768  0.16349874  0.16329552  1
  Cr  Cr11  1  0.33062342  -0.00513173  0.32698017  1
  Cr  Cr12  1  0.33014335  0.33078899  0.99226242  1
  Ni  Ni13  1  0.49447073  0.49089128  0.16270781  1
  Ni  Ni14  1  0.33109393  0.32658105  0.32689802  1
  Cr  Cr15  1  0.32875159  0.65961654  -0.00481375  1
  Ni  Ni16  1  0.49505764  0.82812935  0.16102053  1
  Cr  Cr17  1  0.33000999  0.66035300  0.32456393  1
  Cr  Cr18  1  0.66054691  -0.00483533  -0.00389127  1
  Ni  Ni19  1  0.82483600  0.16323503  0.16312453  1
  Cr  Cr20  1  0.66004482  -0.00298494  0.32790582  1
  Cr  Cr21  1  0.65814630  0.32817449  -0.00440833  1
  Cr  Cr22  1  0.82731624  0.49199525  0.16319632  1
  Ni  Ni23  1  0.66065579  0.32607090  0.32787247  1
  Cr  Cr24  1  0.65747370  0.65953490  -0.00511951  1
  Cr  Cr25  1  0.82659394  0.82752554  0.15977626  1
  Cr  Cr26  1  0.65911499  0.65849574  0.32664021  1
  Cr  Cr27  1  0.16461640  0.16279025  0.49335117  1
  Cr  Cr28  1  0.99356659  -0.00551279  0.66131129  1
  Cr  Cr29  1  0.16375111  0.16135699  0.82695802  1
  Cr  Cr30  1  0.16134791  0.49324587  0.49345079  1
  Cr  Cr31  1  0.99410379  0.32870329  0.66051227  1
  Ni  Ni32  1  0.16393112  0.49746564  0.82429777  1
  Cr  Cr33  1  0.16305151  0.82683933  0.49580514  1
  Fe  Fe34  1  -0.00507213  0.66041957  0.66181126  1
  Ni  Ni35  1  0.16126840  0.82495226  0.82445904  1
  Ni  Ni36  1  0.49538391  0.16233618  0.49558425  1
  Ni  Ni37  1  0.32859262  0.99363195  0.66066581  1
  Cr  Cr38  1  0.49366305  0.16110002  0.82397554  1
  Cr  Cr39  1  0.49446152  0.49352484  0.49498428  1
  Ni  Ni40  1  0.32810948  0.32968852  0.66164949  1
  Ni  Ni41  1  0.49151924  0.49630965  0.82480267  1
  Cr  Cr42  1  0.49422557  0.82884779  0.49761362  1
  Ni  Ni43  1  0.32763453  0.65998474  0.66381148  1
  Cr  Cr44  1  0.49613390  0.82795608  0.82475827  1
  Ni  Ni45  1  0.82467567  0.16346174  0.49275067  1
  Ni  Ni46  1  0.66086528  0.99326980  0.65966628  1
  Cr  Cr47  1  0.82525521  0.15874383  0.82885385  1
  Ni  Ni48  1  0.82653473  0.49167998  0.49379025  1
  Cr  Cr49  1  0.66049615  0.32760745  0.65949577  1
  Cr  Cr50  1  0.82555314  0.49663039  0.82660331  1
  Cr  Cr51  1  0.82537416  0.82529031  0.49723366  1
  Ni  Ni52  1  0.66072198  0.66078881  0.66209104  1
  Ni  Ni53  1  0.82813301  0.82623674  0.82461404  1
" 