315,Ni36Fe35Cr27_10,-228.261160466818, 189.200203683022,Ni36Fe35Cr27,"# generated using pymatgen
 data_Cr16(FeNi)19
_symmetry_space_group_name_H-M   'P 1'
_cell_length_a   7.46104407
_cell_length_b   7.46104407
_cell_length_c   10.55150971
_cell_angle_alpha   90.00000000
_cell_angle_beta   90.00000000
_cell_angle_gamma   90.00000000
_symmetry_Int_Tables_number   1
_chemical_formula_structural   Cr16(FeNi)19
_chemical_formula_sum   'Cr16 Fe19 Ni19'
_cell_volume   587.37277524
_cell_formula_units_Z   1
loop_
 _symmetry_equiv_pos_site_id
 _symmetry_equiv_pos_as_xyz
  1  'x, y, z'
loop_
 _atom_site_type_symbol
 _atom_site_label
 _atom_site_symmetry_multiplicity
 _atom_site_fract_x
 _atom_site_fract_y
 _atom_site_fract_z
 _atom_site_occupancy
  Ni  Ni0  1  0.00124370  1.00023444  0.00080017  1
  Cr  Cr1  1  0.16675536  0.16945591  0.16631814  1
  Cr  Cr2  1  0.99822533  0.00140048  0.33431189  1
  Fe  Fe3  1  0.00254982  0.33352762  0.99790046  1
  Cr  Cr4  1  0.16521574  0.49885540  0.16777593  1
  Fe  Fe5  1  0.99653916  0.33354612  0.33628063  1
  Ni  Ni6  1  0.00083513  0.66643067  0.99728947  1
  Cr  Cr7  1  0.16684134  0.83286669  0.16528966  1
  Ni  Ni8  1  0.99736587  0.66673099  0.33686881  1
  Ni  Ni9  1  0.33268241  0.00204235  0.99940947  1
  Ni  Ni10  1  0.50114847  0.16694101  0.16687951  1
  Cr  Cr11  1  0.33403393  0.00209653  0.33409839  1
  Ni  Ni12  1  0.33484342  0.33357900  0.99957858  1
  Fe  Fe13  1  0.50057646  0.49795397  0.16583137  1
  Fe  Fe14  1  0.33723510  0.33229322  0.33357003  1
  Ni  Ni15  1  0.33238618  0.66535382  0.00123199  1
  Fe  Fe16  1  0.50208077  0.83313936  0.16665225  1
  Cr  Cr17  1  0.33458943  0.66505426  0.33338718  1
  Cr  Cr18  1  0.66796936  0.00303221  0.00378063  1
  Fe  Fe19  1  0.83278717  0.16792395  0.16807693  1
  Ni  Ni20  1  0.66841214  0.00242908  0.33295349  1
  Fe  Fe21  1  0.66620682  0.33460507  0.00122078  1
  Cr  Cr22  1  0.83485924  0.50008548  0.16597841  1
  Ni  Ni23  1  0.66694441  0.33344326  0.33387925  1
  Fe  Fe24  1  0.66699995  0.66662071  0.00134010  1
  Fe  Fe25  1  0.83363948  0.83320098  0.16729758  1
  Ni  Ni26  1  0.66882946  0.66510893  0.33281696  1
  Ni  Ni27  1  0.16682144  0.16787334  0.50174763  1
  Ni  Ni28  1  0.00206593  0.00250133  0.66542753  1
  Fe  Fe29  1  0.16788960  0.16690682  0.83340457  1
  Cr  Cr30  1  0.16498041  0.49724412  0.49885150  1
  Ni  Ni31  1  0.99928761  0.33341038  0.66746329  1
  Fe  Fe32  1  0.16485103  0.49940308  0.83502319  1
  Fe  Fe33  1  0.16374481  0.83555888  0.50171294  1
  Fe  Fe34  1  0.99946544  0.66644013  0.66669489  1
  Fe  Fe35  1  0.16548779  0.83496345  0.83530839  1
  Fe  Fe36  1  0.50206493  0.17000006  0.50059178  1
  Ni  Ni37  1  0.33136850  0.00272402  0.66810435  1
  Fe  Fe38  1  0.49994512  0.16798951  0.83344280  1
  Fe  Fe39  1  0.50298608  0.49593751  0.49967411  1
  Fe  Fe40  1  0.33349687  0.32960230  0.66759316  1
  Cr  Cr41  1  0.50164550  0.49897128  0.83470003  1
  Cr  Cr42  1  0.50272230  0.83613343  0.50044782  1
  Cr  Cr43  1  0.33037680  0.66628164  0.66704612  1
  Cr  Cr44  1  0.49854903  0.83735561  0.83545279  1
  Ni  Ni45  1  0.83379782  0.16874721  0.50027150  1
  Ni  Ni46  1  0.66766171  0.00517610  0.66437148  1
  Cr  Cr47  1  0.83447905  0.16858219  0.83384880  1
  Ni  Ni48  1  0.83354019  0.49874997  0.50100205  1
  Ni  Ni49  1  0.66884119  0.33219137  0.66668909  1
  Ni  Ni50  1  0.83621279  0.49881571  0.83398972  1
  Fe  Fe51  1  0.83499787  0.83479011  0.50051330  1
  Cr  Cr52  1  0.66894299  0.66364292  0.66569867  1
  Cr  Cr53  1  0.83370712  0.83378157  0.83183604  1
" 