5068,Ni36Fe35Cr27_13,-228.459188071943, 195.220062539539,Ni36Fe35Cr27,"# generated using pymatgen
 data_Cr16(FeNi)19
_symmetry_space_group_name_H-M   'P 1'
_cell_length_a   7.45651454
_cell_length_b   7.45651454
_cell_length_c   10.54510399
_cell_angle_alpha   90.00000000
_cell_angle_beta   90.00000000
_cell_angle_gamma   90.00000000
_symmetry_Int_Tables_number   1
_chemical_formula_structural   Cr16(FeNi)19
_chemical_formula_sum   'Cr16 Fe19 Ni19'
_cell_volume   586.30365963
_cell_formula_units_Z   1
loop_
 _symmetry_equiv_pos_site_id
 _symmetry_equiv_pos_as_xyz
  1  'x, y, z'
loop_
 _atom_site_type_symbol
 _atom_site_label
 _atom_site_symmetry_multiplicity
 _atom_site_fract_x
 _atom_site_fract_y
 _atom_site_fract_z
 _atom_site_occupancy
  Cr  Cr0  1  1.00059956  1.00053271  0.99972835  1
  Cr  Cr1  1  0.16673821  0.16931856  0.16572302  1
  Fe  Fe2  1  0.99887757  0.99957953  0.33352247  1
  Ni  Ni3  1  0.99960232  0.33598553  0.99985223  1
  Fe  Fe4  1  0.16930667  0.50224833  0.16668454  1
  Cr  Cr5  1  0.00184167  0.33607855  0.33460708  1
  Ni  Ni6  1  0.99990194  0.66571309  0.00135961  1
  Cr  Cr7  1  0.16614256  0.83105053  0.16761969  1
  Ni  Ni8  1  0.00089671  0.66702388  0.33345561  1
  Ni  Ni9  1  0.33653480  0.99879656  0.99912431  1
  Cr  Cr10  1  0.50304599  0.16889719  0.16689224  1
  Cr  Cr11  1  0.33643211  0.00114828  0.33559792  1
  Fe  Fe12  1  0.33439075  0.33511864  0.00077874  1
  Ni  Ni13  1  0.49880414  0.50045156  0.16605137  1
  Ni  Ni14  1  0.33513602  0.33577318  0.33536010  1
  Fe  Fe15  1  0.33622231  0.66769358  1.00068266  1
  Ni  Ni16  1  0.50253342  0.83288357  0.16567790  1
  Fe  Fe17  1  0.33445112  0.66402934  0.33408083  1
  Ni  Ni18  1  0.66537649  0.99909587  0.00207254  1
  Fe  Fe19  1  0.83151197  0.16561516  0.16670386  1
  Fe  Fe20  1  0.66800400  1.00064520  0.33308465  1
  Ni  Ni21  1  0.66792007  0.33536952  0.00124266  1
  Cr  Cr22  1  0.83429946  0.50079875  0.16564469  1
  Fe  Fe23  1  0.66463776  0.33436117  0.33429487  1
  Fe  Fe24  1  0.66656436  0.66840382  1.00001139  1
  Ni  Ni25  1  0.83375007  0.83540974  0.16805817  1
  Cr  Cr26  1  0.66691877  0.66795992  0.33386466  1
  Fe  Fe27  1  0.16890111  0.16975402  0.50179123  1
  Ni  Ni28  1  0.00097018  0.00288728  0.66927762  1
  Fe  Fe29  1  0.16685728  0.16770550  0.83379400  1
  Fe  Fe30  1  0.16934023  0.49930087  0.50074300  1
  Ni  Ni31  1  0.00286007  0.33281570  0.66738884  1
  Cr  Cr32  1  0.16805122  0.49946980  0.83533484  1
  Cr  Cr33  1  0.16700786  0.83294298  0.50015227  1
  Cr  Cr34  1  0.99811402  0.66611270  0.66741304  1
  Fe  Fe35  1  0.16896123  0.83459312  0.83501167  1
  Fe  Fe36  1  0.49973995  0.16797286  0.50017830  1
  Cr  Cr37  1  0.33450548  0.00126042  0.66768909  1
  Cr  Cr38  1  0.50117694  0.16758880  0.83519009  1
  Ni  Ni39  1  0.49808313  0.49992379  0.50139652  1
  Ni  Ni40  1  0.33227435  0.33445196  0.66506805  1
  Ni  Ni41  1  0.50117976  0.50279338  0.83466951  1
  Ni  Ni42  1  0.50121266  0.83241290  0.50208663  1
  Fe  Fe43  1  0.33812872  0.66586891  0.66735681  1
  Ni  Ni44  1  0.50211111  0.83234388  0.83435657  1
  Cr  Cr45  1  0.83406968  0.16654892  0.50014127  1
  Ni  Ni46  1  0.66693278  0.99690944  0.66731650  1
  Fe  Fe47  1  0.83448520  0.16758961  0.83381613  1
  Fe  Fe48  1  0.83352013  0.50172259  0.50079616  1
  Cr  Cr49  1  0.66701653  0.33722326  0.66627056  1
  Fe  Fe50  1  0.83197211  0.50073141  0.83580145  1
  Cr  Cr51  1  0.83346725  0.83507535  0.50067073  1
  Ni  Ni52  1  0.66529402  0.66835876  0.66870989  1
  Fe  Fe53  1  0.83146638  0.83380019  0.83394324  1
" 