6060,Ni36Fe35Cr27_8,-228.637498712532, 188.903968011706,Ni36Fe35Cr27,"# generated using pymatgen
 data_Cr16(FeNi)19
_symmetry_space_group_name_H-M   'P 1'
_cell_length_a   7.46312907
_cell_length_b   7.46312907
_cell_length_c   10.55445835
_cell_angle_alpha   90.00000000
_cell_angle_beta   90.00000000
_cell_angle_gamma   90.00000000
_symmetry_Int_Tables_number   1
_chemical_formula_structural   Cr16(FeNi)19
_chemical_formula_sum   'Cr16 Fe19 Ni19'
_cell_volume   587.86533965
_cell_formula_units_Z   1
loop_
 _symmetry_equiv_pos_site_id
 _symmetry_equiv_pos_as_xyz
  1  'x, y, z'
loop_
 _atom_site_type_symbol
 _atom_site_label
 _atom_site_symmetry_multiplicity
 _atom_site_fract_x
 _atom_site_fract_y
 _atom_site_fract_z
 _atom_site_occupancy
  Cr  Cr0  1  0.99916861  0.00219297  0.00135982  1
  Fe  Fe1  1  0.16538478  0.16830896  0.16797630  1
  Ni  Ni2  1  0.99890504  0.99924332  0.33159706  1
  Ni  Ni3  1  0.00033304  0.33451369  0.99983267  1
  Ni  Ni4  1  0.16417664  0.50138078  0.16576789  1
  Ni  Ni5  1  0.00048522  0.33334799  0.33212570  1
  Ni  Ni6  1  0.00071107  0.66533711  0.00066896  1
  Fe  Fe7  1  0.16618446  0.83210473  0.16721579  1
  Fe  Fe8  1  0.99919217  0.66489161  0.33264740  1
  Ni  Ni9  1  0.33383210  0.99958915  0.00119263  1
  Fe  Fe10  1  0.50141721  0.16741159  0.16701764  1
  Fe  Fe11  1  0.33233978  0.99982863  0.33156332  1
  Cr  Cr12  1  0.33107867  0.33450248  0.00267292  1
  Ni  Ni13  1  0.50218954  0.50036362  0.16654950  1
  Cr  Cr14  1  0.33293269  0.33536255  0.33499836  1
  Fe  Fe15  1  0.33042786  0.66924868  0.00210145  1
  Fe  Fe16  1  0.50048084  0.83294814  0.16656739  1
  Cr  Cr17  1  0.33513865  0.66346200  0.33237671  1
  Ni  Ni18  1  0.66639430  0.99993373  0.00238691  1
  Fe  Fe19  1  0.83363984  0.16982954  0.16703443  1
  Fe  Fe20  1  0.66750363  0.00071688  0.33129716  1
  Fe  Fe21  1  0.67018307  0.33144983  0.00172579  1
  Ni  Ni22  1  0.83480139  0.49904048  0.16622394  1
  Fe  Fe23  1  0.66840167  0.33678077  0.33324010  1
  Cr  Cr24  1  0.66694708  0.66736896  0.00075100  1
  Fe  Fe25  1  0.83385362  0.83089836  0.16793311  1
  Ni  Ni26  1  0.66862814  0.66685604  0.33388051  1
  Cr  Cr27  1  0.16631087  0.16525319  0.49947581  1
  Cr  Cr28  1  0.00051952  0.00038074  0.66799687  1
  Fe  Fe29  1  0.16691521  0.16739864  0.83418876  1
  Ni  Ni30  1  0.16212949  0.50245030  0.49995031  1
  Ni  Ni31  1  0.99965308  0.33429680  0.66920300  1
  Fe  Fe32  1  0.16341115  0.50083556  0.83444840  1
  Ni  Ni33  1  0.16482879  0.83241285  0.49949725  1
  Fe  Fe34  1  0.00039037  0.66396318  0.66654131  1
  Fe  Fe35  1  0.16857142  0.83344326  0.83498492  1
  Ni  Ni36  1  0.50186139  0.16693913  0.49923932  1
  Fe  Fe37  1  0.33310052  1.00023312  0.66796831  1
  Cr  Cr38  1  0.50243809  0.16627439  0.83312149  1
  Ni  Ni39  1  0.50340408  0.49880623  0.49889652  1
  Cr  Cr40  1  0.33254111  0.33475171  0.66313538  1
  Cr  Cr41  1  0.50084116  0.50075714  0.83557810  1
  Cr  Cr42  1  0.49861547  0.83602658  0.49954760  1
  Cr  Cr43  1  0.33345394  0.66629354  0.66741948  1
  Ni  Ni44  1  0.49669323  0.83495882  0.83652393  1
  Cr  Cr45  1  0.83311658  0.16934841  0.49900441  1
  Cr  Cr46  1  0.66874526  0.99972449  0.66682796  1
  Ni  Ni47  1  0.83456806  0.17018135  0.83577007  1
  Ni  Ni48  1  0.83572572  0.50003097  0.50013824  1
  Ni  Ni49  1  0.66890296  0.33432482  0.66586607  1
  Fe  Fe50  1  0.83525556  0.49800937  0.83403173  1
  Fe  Fe51  1  0.83619733  0.83172980  0.49720770  1
  Cr  Cr52  1  0.66762351  0.66597425  0.66511423  1
  Cr  Cr53  1  0.83363145  0.83246522  0.83379484  1
" 