1786,Ni36Fe41Cr21_7,-230.550913690851, 191.203470891017,Ni36Fe41Cr21,"# generated using pymatgen
 data_Cr13Fe22Ni19
_symmetry_space_group_name_H-M   'P 1'
_cell_length_a   7.45109114
_cell_length_b   7.45109114
_cell_length_c   10.53743415
_cell_angle_alpha   90.00000000
_cell_angle_beta   90.00000000
_cell_angle_gamma   90.00000000
_symmetry_Int_Tables_number   1
_chemical_formula_structural   Cr13Fe22Ni19
_chemical_formula_sum   'Cr13 Fe22 Ni19'
_cell_volume   585.02526904
_cell_formula_units_Z   1
loop_
 _symmetry_equiv_pos_site_id
 _symmetry_equiv_pos_as_xyz
  1  'x, y, z'
loop_
 _atom_site_type_symbol
 _atom_site_label
 _atom_site_symmetry_multiplicity
 _atom_site_fract_x
 _atom_site_fract_y
 _atom_site_fract_z
 _atom_site_occupancy
  Fe  Fe0  1  0.99974422  1.00072878  1.00008294  1
  Cr  Cr1  1  0.16628472  0.16478015  0.16412039  1
  Ni  Ni2  1  0.99999928  1.00035830  0.33305356  1
  Ni  Ni3  1  0.99823340  0.33452675  0.99978704  1
  Cr  Cr4  1  0.16671885  0.50129543  0.16987317  1
  Ni  Ni5  1  0.99887464  0.33324654  0.33440371  1
  Cr  Cr6  1  0.00140986  0.66767739  0.00255992  1
  Ni  Ni7  1  0.16905180  0.83636886  0.16885706  1
  Fe  Fe8  1  0.00187672  0.66973788  0.33394686  1
  Ni  Ni9  1  0.33514267  0.99821363  0.99901156  1
  Cr  Cr10  1  0.50002071  0.16414337  0.16726551  1
  Ni  Ni11  1  0.33412198  0.99694654  0.33547701  1
  Fe  Fe12  1  0.33440469  0.33453881  0.99809504  1
  Cr  Cr13  1  0.50222125  0.50372618  0.16315562  1
  Cr  Cr14  1  0.33440798  0.33528625  0.33431344  1
  Ni  Ni15  1  0.33458512  0.67051719  1.00000192  1
  Ni  Ni16  1  0.49995062  0.83576762  0.16631179  1
  Ni  Ni17  1  0.33303760  0.67241090  0.33521307  1
  Ni  Ni18  1  0.66760982  0.00159534  0.00152992  1
  Fe  Fe19  1  0.83515993  0.16612362  0.16552462  1
  Fe  Fe20  1  0.66783486  0.99932634  0.33455314  1
  Ni  Ni21  1  0.67048548  0.33378903  0.99996037  1
  Ni  Ni22  1  0.83529575  0.50035390  0.16630863  1
  Cr  Cr23  1  0.66963729  0.33194974  0.33342332  1
  Fe  Fe24  1  0.66813931  0.66925437  0.99986418  1
  Ni  Ni25  1  0.83430622  0.83575242  0.16695623  1
  Cr  Cr26  1  0.66691566  0.66932492  0.33047048  1
  Cr  Cr27  1  0.16659469  0.16641448  0.50129652  1
  Cr  Cr28  1  0.00160977  0.99902269  0.67125149  1
  Fe  Fe29  1  0.16808513  0.16863180  0.83593075  1
  Fe  Fe30  1  0.16788129  0.50369035  0.50109229  1
  Fe  Fe31  1  0.00107143  0.33474087  0.67016576  1
  Fe  Fe32  1  0.16645376  0.50051133  0.83439255  1
  Fe  Fe33  1  0.16792334  0.83269902  0.50086406  1
  Ni  Ni34  1  0.00186411  0.66629093  0.66745455  1
  Fe  Fe35  1  0.16836074  0.83375316  0.83514503  1
  Fe  Fe36  1  0.50053437  0.16607947  0.50086139  1
  Ni  Ni37  1  0.33504402  0.00134549  0.66865570  1
  Fe  Fe38  1  0.50231014  0.16786089  0.83603524  1
  Cr  Cr39  1  0.50181774  0.50440157  0.50395467  1
  Fe  Fe40  1  0.33422847  0.33434013  0.66947875  1
  Fe  Fe41  1  0.50242891  0.50083285  0.83516108  1
  Ni  Ni42  1  0.49986642  0.83534714  0.50136473  1
  Fe  Fe43  1  0.33378335  0.67126733  0.66912635  1
  Fe  Fe44  1  0.50220620  0.83464928  0.83495020  1
  Fe  Fe45  1  0.83431782  0.16577808  0.50085242  1
  Cr  Cr46  1  0.66663446  0.00114782  0.66582816  1
  Ni  Ni47  1  0.83503962  0.16902819  0.83584739  1
  Cr  Cr48  1  0.83615862  0.50185343  0.50272015  1
  Fe  Fe49  1  0.66829277  0.33420359  0.67063167  1
  Ni  Ni50  1  0.83378269  0.50075254  0.83359586  1
  Fe  Fe51  1  0.83454023  0.83413739  0.50041071  1
  Ni  Ni52  1  0.66854659  0.66774984  0.67118883  1
  Fe  Fe53  1  0.83297327  0.83355040  0.83544355  1
" 