6332,Ni36Fe2Cr60_1,-213.822418624266, 138.240390854054,Ni36Fe2Cr60,"# generated using pymatgen
 data_Cr34FeNi19
_symmetry_space_group_name_H-M   'P 1'
_cell_length_a   7.55237556
_cell_length_b   7.55237556
_cell_length_c   10.68067195
_cell_angle_alpha   90.00000000
_cell_angle_beta   90.00000000
_cell_angle_gamma   90.00000000
_symmetry_Int_Tables_number   1
_chemical_formula_structural   Cr34FeNi19
_chemical_formula_sum   'Cr34 Fe1 Ni19'
_cell_volume   609.20818882
_cell_formula_units_Z   1
loop_
 _symmetry_equiv_pos_site_id
 _symmetry_equiv_pos_as_xyz
  1  'x, y, z'
loop_
 _atom_site_type_symbol
 _atom_site_label
 _atom_site_symmetry_multiplicity
 _atom_site_fract_x
 _atom_site_fract_y
 _atom_site_fract_z
 _atom_site_occupancy
  Cr  Cr0  1  -0.00451208  0.99413677  0.99382263  1
  Ni  Ni1  1  0.15945319  0.16042343  0.16339648  1
  Ni  Ni2  1  -0.00293343  -0.00515977  0.32856808  1
  Cr  Cr3  1  0.99396026  0.32831946  -0.00555190  1
  Ni  Ni4  1  0.16174952  0.49710615  0.16275329  1
  Ni  Ni5  1  -0.00320629  0.32535887  0.32732122  1
  Ni  Ni6  1  -0.00381718  0.66127021  -0.00556206  1
  Ni  Ni7  1  0.15952532  0.82544028  0.16268789  1
  Ni  Ni8  1  -0.00120837  0.66271023  0.32620169  1
  Cr  Cr9  1  0.32539650  0.99227371  -0.00329789  1
  Cr  Cr10  1  0.49422048  0.15971256  0.15863264  1
  Cr  Cr11  1  0.32443583  0.99245781  0.32716474  1
  Cr  Cr12  1  0.32753415  0.32953274  -0.00317251  1
  Ni  Ni13  1  0.49097309  0.49660290  0.16207290  1
  Cr  Cr14  1  0.32624490  0.32771749  0.32517739  1
  Cr  Cr15  1  0.32747598  0.66128860  -0.00469120  1
  Fe  Fe16  1  0.49178993  0.82649712  0.16112748  1
  Ni  Ni17  1  0.32403407  0.66229637  0.32500279  1
  Ni  Ni18  1  0.66148484  0.99417109  0.99385649  1
  Cr  Cr19  1  0.82911897  0.15928324  0.16144912  1
  Cr  Cr20  1  0.66290687  0.99412789  0.32732777  1
  Cr  Cr21  1  0.66181388  0.32935956  0.99314554  1
  Cr  Cr22  1  0.83294279  0.49607569  0.16274192  1
  Cr  Cr23  1  0.66298112  0.32814226  0.32802004  1
  Cr  Cr24  1  0.66085250  0.65952607  -0.00440625  1
  Cr  Cr25  1  0.82992598  0.82783628  0.16063542  1
  Cr  Cr26  1  0.65793504  0.66039493  0.32550449  1
  Ni  Ni27  1  0.15736690  0.15930965  0.49134578  1
  Cr  Cr28  1  -0.00504793  -0.00499972  0.65956382  1
  Cr  Cr29  1  0.16142543  0.16061989  0.82858021  1
  Cr  Cr30  1  0.16005468  0.49554106  0.49121495  1
  Cr  Cr31  1  0.99138949  0.32557983  0.66100423  1
  Cr  Cr32  1  0.16002022  0.49621118  0.82911250  1
  Ni  Ni33  1  0.15959587  0.82800387  0.49120814  1
  Cr  Cr34  1  -0.00556388  0.66289232  0.66321990  1
  Ni  Ni35  1  0.15998687  0.82643429  0.82886784  1
  Cr  Cr36  1  0.49539452  0.16082123  0.49772495  1
  Cr  Cr37  1  0.32315266  0.99280807  0.65939010  1
  Cr  Cr38  1  0.49576364  0.16052226  0.82703094  1
  Cr  Cr39  1  0.49240661  0.49355030  0.49493511  1
  Cr  Cr40  1  0.32750571  0.32790981  0.66164721  1
  Ni  Ni41  1  0.49698292  0.49348769  0.82657765  1
  Cr  Cr42  1  0.49332799  0.82816442  0.49393801  1
  Cr  Cr43  1  0.32687900  0.66284504  0.66149552  1
  Cr  Cr44  1  0.49466091  0.83035018  0.82767172  1
  Ni  Ni45  1  0.82985402  0.16064260  0.49423140  1
  Ni  Ni46  1  0.66380922  -0.00211662  0.66131612  1
  Ni  Ni47  1  0.82453666  0.16138189  0.82663998  1
  Cr  Cr48  1  0.83033439  0.49361488  0.49270653  1
  Ni  Ni49  1  0.66378875  0.32582331  0.66309890  1
  Ni  Ni50  1  0.82627605  0.49303216  0.82820119  1
  Cr  Cr51  1  0.82973561  0.82856231  0.49239900  1
  Cr  Cr52  1  0.66193042  0.65851122  0.66209910  1
  Cr  Cr53  1  0.82830510  0.82854458  0.82980066  1
" 