2745,Ni36Fe60Cr2_8,-236.127691192221, 211.771143333127,Ni36Fe60Cr2,"# generated using pymatgen
 data_Cr3Fe32Ni19
_symmetry_space_group_name_H-M   'P 1'
_cell_length_a   7.40387829
_cell_length_b   7.40387829
_cell_length_c   10.47066509
_cell_angle_alpha   90.00000000
_cell_angle_beta   90.00000000
_cell_angle_gamma   90.00000000
_symmetry_Int_Tables_number   1
_chemical_formula_structural   Cr3Fe32Ni19
_chemical_formula_sum   'Cr3 Fe32 Ni19'
_cell_volume   573.97478028
_cell_formula_units_Z   1
loop_
 _symmetry_equiv_pos_site_id
 _symmetry_equiv_pos_as_xyz
  1  'x, y, z'
loop_
 _atom_site_type_symbol
 _atom_site_label
 _atom_site_symmetry_multiplicity
 _atom_site_fract_x
 _atom_site_fract_y
 _atom_site_fract_z
 _atom_site_occupancy
  Fe  Fe0  1  0.00517600  1.00366761  1.00376953  1
  Ni  Ni1  1  0.17217298  0.17220942  0.17164327  1
  Ni  Ni2  1  1.00419762  0.00463508  0.33877992  1
  Ni  Ni3  1  1.00339582  0.33836764  1.00343858  1
  Fe  Fe4  1  0.16848971  0.50323536  0.17123341  1
  Fe  Fe5  1  0.00612903  0.33814356  0.33726104  1
  Fe  Fe6  1  1.00302881  0.67034261  1.00311632  1
  Fe  Fe7  1  0.16758547  0.83798991  0.17416689  1
  Fe  Fe8  1  0.00525580  0.67206634  0.33861179  1
  Cr  Cr9  1  0.33706527  1.00424675  0.00490204  1
  Fe  Fe10  1  0.50483533  0.17209550  0.17138310  1
  Ni  Ni11  1  0.33750015  1.00340139  0.33751965  1
  Ni  Ni12  1  0.33686583  0.33779483  0.00489378  1
  Fe  Fe13  1  0.50546294  0.50303423  0.17270372  1
  Fe  Fe14  1  0.33710625  0.33743721  0.33727067  1
  Cr  Cr15  1  0.33746165  0.67101003  1.00363250  1
  Fe  Fe16  1  0.50628910  0.83785425  0.17356539  1
  Ni  Ni17  1  0.33829377  0.67127505  0.33789860  1
  Fe  Fe18  1  0.67133757  1.00334214  1.00238700  1
  Cr  Cr19  1  0.83874981  0.17015372  0.16893861  1
  Fe  Fe20  1  0.67018037  1.00262619  0.33864441  1
  Fe  Fe21  1  0.66876113  0.33919685  1.00328943  1
  Ni  Ni22  1  0.83726327  0.50600649  0.17108680  1
  Fe  Fe23  1  0.67000491  0.33813339  0.33878297  1
  Fe  Fe24  1  0.67258278  0.67037166  0.00454519  1
  Ni  Ni25  1  0.83696281  0.83627444  0.17153374  1
  Fe  Fe26  1  0.67050618  0.67195567  0.33787726  1
  Fe  Fe27  1  0.17277857  0.17003236  0.50389029  1
  Fe  Fe28  1  0.00522424  1.00283848  0.67038443  1
  Ni  Ni29  1  0.17151700  0.17268152  0.83674992  1
  Ni  Ni30  1  0.17211618  0.50451540  0.50365938  1
  Fe  Fe31  1  0.00607075  0.33834651  0.67111956  1
  Ni  Ni32  1  0.17122309  0.50297219  0.83753897  1
  Ni  Ni33  1  0.17177929  0.83691871  0.50475468  1
  Ni  Ni34  1  1.00396027  0.66922512  0.67078280  1
  Fe  Fe35  1  0.16911470  0.83841370  0.83421060  1
  Fe  Fe36  1  0.50235868  0.17048760  0.50519780  1
  Ni  Ni37  1  0.33825606  1.00408208  0.67050652  1
  Ni  Ni38  1  0.50407776  0.17177803  0.83734400  1
  Ni  Ni39  1  0.50296218  0.50510205  0.50494106  1
  Fe  Fe40  1  0.33683466  0.33871707  0.67166514  1
  Fe  Fe41  1  0.50436418  0.50287558  0.83586087  1
  Ni  Ni42  1  0.50413154  0.83715312  0.50471513  1
  Ni  Ni43  1  0.33701434  0.67140868  0.67108636  1
  Fe  Fe44  1  0.50470247  0.83838151  0.83485566  1
  Fe  Fe45  1  0.83776010  0.17101036  0.50372348  1
  Fe  Fe46  1  0.67083111  1.00297089  0.67149097  1
  Fe  Fe47  1  0.83838912  0.17109231  0.83765518  1
  Fe  Fe48  1  0.83778036  0.50556827  0.50377762  1
  Fe  Fe49  1  0.67005498  0.33814752  0.67027211  1
  Fe  Fe50  1  0.83840764  0.50359436  0.83790478  1
  Fe  Fe51  1  0.83828895  0.83623539  0.50452131  1
  Fe  Fe52  1  0.67071863  0.67170351  0.67080795  1
  Ni  Ni53  1  0.83698468  0.83724229  0.83806974  1
" 