3237,Ni36Fe60Cr2_5,-235.755284671096, 209.318865523007,Ni36Fe60Cr2,"# generated using pymatgen
 data_Cr3Fe32Ni19
_symmetry_space_group_name_H-M   'P 1'
_cell_length_a   7.40370606
_cell_length_b   7.40370606
_cell_length_c   10.47042152
_cell_angle_alpha   90.00000000
_cell_angle_beta   90.00000000
_cell_angle_gamma   90.00000000
_symmetry_Int_Tables_number   1
_chemical_formula_structural   Cr3Fe32Ni19
_chemical_formula_sum   'Cr3 Fe32 Ni19'
_cell_volume   573.93472497
_cell_formula_units_Z   1
loop_
 _symmetry_equiv_pos_site_id
 _symmetry_equiv_pos_as_xyz
  1  'x, y, z'
loop_
 _atom_site_type_symbol
 _atom_site_label
 _atom_site_symmetry_multiplicity
 _atom_site_fract_x
 _atom_site_fract_y
 _atom_site_fract_z
 _atom_site_occupancy
  Fe  Fe0  1  1.00277334  0.00523061  1.00380254  1
  Fe  Fe1  1  0.17120346  0.17277827  0.17018928  1
  Cr  Cr2  1  1.00397620  0.00466897  0.33765372  1
  Ni  Ni3  1  1.00414366  0.33755654  0.00508331  1
  Fe  Fe4  1  0.17153542  0.50415196  0.17051492  1
  Fe  Fe5  1  0.00470918  0.33961662  0.33743469  1
  Fe  Fe6  1  0.00439470  0.67020768  1.00358063  1
  Fe  Fe7  1  0.17154582  0.83590285  0.17103552  1
  Fe  Fe8  1  0.00454266  0.66961021  0.33781455  1
  Cr  Cr9  1  0.33750599  1.00403559  0.00451837  1
  Ni  Ni10  1  0.50470250  0.17270423  0.17208674  1
  Fe  Fe11  1  0.33963679  1.00401417  0.33761621  1
  Ni  Ni12  1  0.33746250  0.33899056  0.00500535  1
  Ni  Ni13  1  0.50359595  0.50292816  0.17113465  1
  Fe  Fe14  1  0.33791858  0.33759338  0.33748328  1
  Fe  Fe15  1  0.33761824  0.66812705  0.00451212  1
  Fe  Fe16  1  0.50523614  0.83662060  0.17211435  1
  Ni  Ni17  1  0.33864554  0.67088350  0.33713636  1
  Fe  Fe18  1  0.67247192  0.00520711  1.00407247  1
  Fe  Fe19  1  0.83602688  0.17209519  0.16990116  1
  Fe  Fe20  1  0.66858958  1.00384538  0.33800805  1
  Ni  Ni21  1  0.67122164  0.33810621  1.00368478  1
  Fe  Fe22  1  0.83673985  0.50378503  0.17070959  1
  Fe  Fe23  1  0.67020332  0.33766173  0.33695063  1
  Fe  Fe24  1  0.67081909  0.67020409  1.00397864  1
  Ni  Ni25  1  0.83738218  0.83690103  0.17034857  1
  Fe  Fe26  1  0.67060675  0.67132558  0.33777684  1
  Fe  Fe27  1  0.17321355  0.17057265  0.50497652  1
  Ni  Ni28  1  1.00391855  1.00223737  0.67189699  1
  Ni  Ni29  1  0.17079042  0.17216456  0.83731943  1
  Fe  Fe30  1  0.17273574  0.50516513  0.50393337  1
  Cr  Cr31  1  0.00547557  0.33706209  0.67125786  1
  Ni  Ni32  1  0.17157604  0.50404046  0.83871641  1
  Fe  Fe33  1  0.17230526  0.83709420  0.50529038  1
  Ni  Ni34  1  1.00367830  0.67343380  0.67025356  1
  Ni  Ni35  1  0.16905823  0.83662179  0.83603871  1
  Ni  Ni36  1  0.50420501  0.17070167  0.50453772  1
  Fe  Fe37  1  0.33766989  1.00386059  0.67116882  1
  Fe  Fe38  1  0.50414368  0.17129384  0.83689556  1
  Fe  Fe39  1  0.50408038  0.50438725  0.50387740  1
  Ni  Ni40  1  0.33891670  0.33745841  0.67129400  1
  Fe  Fe41  1  0.50336185  0.50474783  0.83816893  1
  Ni  Ni42  1  0.50482224  0.83850390  0.50327841  1
  Fe  Fe43  1  0.33743478  0.67164565  0.67080321  1
  Ni  Ni44  1  0.50602642  0.83693153  0.83718068  1
  Fe  Fe45  1  0.83527693  0.17018280  0.50448206  1
  Ni  Ni46  1  0.67111045  1.00281130  0.67092825  1
  Fe  Fe47  1  0.83780882  0.16927498  0.83845529  1
  Fe  Fe48  1  0.83602147  0.50529367  0.50376438  1
  Fe  Fe49  1  0.66978967  0.33741987  0.67086002  1
  Fe  Fe50  1  0.83775271  0.50592426  0.83835430  1
  Fe  Fe51  1  0.83606025  0.83736024  0.50577362  1
  Ni  Ni52  1  0.67080738  0.67233029  0.67062723  1
  Ni  Ni53  1  0.83774718  0.83772294  0.83671493  1
" 