6198,Ni36Fe41Cr21_13,-230.999813468424, 204.01325153959,Ni36Fe41Cr21,"# generated using pymatgen
 data_Cr13Fe22Ni19
_symmetry_space_group_name_H-M   'P 1'
_cell_length_a   7.44744478
_cell_length_b   7.44744478
_cell_length_c   10.53227741
_cell_angle_alpha   90.00000000
_cell_angle_beta   90.00000000
_cell_angle_gamma   90.00000000
_symmetry_Int_Tables_number   1
_chemical_formula_structural   Cr13Fe22Ni19
_chemical_formula_sum   'Cr13 Fe22 Ni19'
_cell_volume   584.16680307
_cell_formula_units_Z   1
loop_
 _symmetry_equiv_pos_site_id
 _symmetry_equiv_pos_as_xyz
  1  'x, y, z'
loop_
 _atom_site_type_symbol
 _atom_site_label
 _atom_site_symmetry_multiplicity
 _atom_site_fract_x
 _atom_site_fract_y
 _atom_site_fract_z
 _atom_site_occupancy
  Ni  Ni0  1  1.00109868  0.99886837  0.00171255  1
  Ni  Ni1  1  0.16770253  0.16742188  0.16863878  1
  Ni  Ni2  1  1.00114008  1.00130473  0.33290713  1
  Cr  Cr3  1  0.00294784  0.33451473  0.00496340  1
  Ni  Ni4  1  0.16981746  0.50138448  0.16901458  1
  Fe  Fe5  1  0.00214302  0.33397244  0.33317134  1
  Ni  Ni6  1  1.00024703  0.67024837  0.00231953  1
  Ni  Ni7  1  0.16849671  0.83470508  0.16490591  1
  Cr  Cr8  1  0.00161802  0.66892973  0.33255123  1
  Fe  Fe9  1  0.33422027  0.00268124  0.00365674  1
  Ni  Ni10  1  0.50201195  0.16665375  0.16846609  1
  Fe  Fe11  1  0.33396076  0.99931602  0.33269757  1
  Ni  Ni12  1  0.33493543  0.33407148  0.00240845  1
  Fe  Fe13  1  0.49998714  0.50183576  0.16844185  1
  Fe  Fe14  1  0.33343056  0.33299494  0.33216999  1
  Fe  Fe15  1  0.33421104  0.66724919  0.00480726  1
  Ni  Ni16  1  0.50185083  0.83482577  0.16852543  1
  Ni  Ni17  1  0.33464958  0.66755729  0.33350464  1
  Ni  Ni18  1  0.66886250  1.00008601  0.00228038  1
  Ni  Ni19  1  0.83414877  0.16581159  0.16801334  1
  Ni  Ni20  1  0.66687890  1.00067541  0.33455626  1
  Cr  Cr21  1  0.66676011  0.33460906  1.00054088  1
  Fe  Fe22  1  0.83409786  0.50232082  0.16842551  1
  Fe  Fe23  1  0.66896772  0.33471532  0.33267715  1
  Ni  Ni24  1  0.66964360  0.66957935  0.00393017  1
  Ni  Ni25  1  0.83328537  0.83754824  0.16771951  1
  Fe  Fe26  1  0.66796195  0.67064957  0.33365010  1
  Fe  Fe27  1  0.16771017  0.16961573  0.49836786  1
  Fe  Fe28  1  1.00102808  0.00269685  0.66981328  1
  Fe  Fe29  1  0.16641042  0.16560063  0.83644556  1
  Fe  Fe30  1  0.16621859  0.50048625  0.49994242  1
  Ni  Ni31  1  0.00265980  0.33543302  0.66692699  1
  Cr  Cr32  1  0.16874840  0.50256805  0.83413322  1
  Cr  Cr33  1  0.16832562  0.83446937  0.50289003  1
  Fe  Fe34  1  1.00071035  0.66780722  0.66832391  1
  Fe  Fe35  1  0.16536793  0.83553361  0.83590315  1
  Fe  Fe36  1  0.50112390  0.16723502  0.49717947  1
  Cr  Cr37  1  0.33524909  0.00218070  0.66734902  1
  Fe  Fe38  1  0.49980030  0.16671605  0.83785903  1
  Cr  Cr39  1  0.50086121  0.50250236  0.49944178  1
  Cr  Cr40  1  0.33444085  0.33278992  0.66733672  1
  Fe  Fe41  1  0.50135586  0.50337472  0.83677405  1
  Ni  Ni42  1  0.50053485  0.83476829  0.49855210  1
  Fe  Fe43  1  0.33459094  0.66815003  0.66713331  1
  Cr  Cr44  1  0.50044023  0.83302279  0.83795922  1
  Cr  Cr45  1  0.83615167  0.16830156  0.50030008  1
  Cr  Cr46  1  0.66711867  1.00070526  0.66704210  1
  Fe  Fe47  1  0.83786470  0.16549181  0.83595242  1
  Ni  Ni48  1  0.83634758  0.49918384  0.50158543  1
  Cr  Cr49  1  0.66797011  0.33396928  0.67232345  1
  Fe  Fe50  1  0.83607372  0.50509995  0.83539361  1
  Fe  Fe51  1  0.83397803  0.83369683  0.49878433  1
  Cr  Cr52  1  0.66942056  0.66932177  0.66605295  1
  Ni  Ni53  1  0.83549086  0.83581667  0.83464694  1
" 