1112,Ni36Fe41Cr21_15,-230.164552407396, 191.947976176161,Ni36Fe41Cr21,"# generated using pymatgen
 data_Cr13Fe22Ni19
_symmetry_space_group_name_H-M   'P 1'
_cell_length_a   7.45674363
_cell_length_b   7.45674363
_cell_length_c   10.54542797
_cell_angle_alpha   90.00000000
_cell_angle_beta   90.00000000
_cell_angle_gamma   90.00000000
_symmetry_Int_Tables_number   1
_chemical_formula_structural   Cr13Fe22Ni19
_chemical_formula_sum   'Cr13 Fe22 Ni19'
_cell_volume   586.35770126
_cell_formula_units_Z   1
loop_
 _symmetry_equiv_pos_site_id
 _symmetry_equiv_pos_as_xyz
  1  'x, y, z'
loop_
 _atom_site_type_symbol
 _atom_site_label
 _atom_site_symmetry_multiplicity
 _atom_site_fract_x
 _atom_site_fract_y
 _atom_site_fract_z
 _atom_site_occupancy
  Ni  Ni0  1  0.99978021  0.00115152  0.99983289  1
  Fe  Fe1  1  0.16771443  0.16919165  0.16715120  1
  Cr  Cr2  1  0.00361186  0.00199764  0.33311681  1
  Ni  Ni3  1  0.99926470  0.33341003  0.00201490  1
  Ni  Ni4  1  0.16604719  0.50018883  0.16702383  1
  Fe  Fe5  1  0.00258859  0.33585484  0.33317079  1
  Ni  Ni6  1  0.00073358  0.66751130  0.00085234  1
  Fe  Fe7  1  0.16779616  0.83401278  0.16702466  1
  Cr  Cr8  1  0.00087581  0.66533425  0.33183957  1
  Cr  Cr9  1  0.33371492  0.00161444  0.00220517  1
  Ni  Ni10  1  0.50141800  0.16618231  0.16575380  1
  Fe  Fe11  1  0.33519413  1.00009406  0.33413784  1
  Fe  Fe12  1  0.33268299  0.33360846  1.00062000  1
  Cr  Cr13  1  0.49878778  0.50034471  0.16829381  1
  Ni  Ni14  1  0.33253618  0.33320028  0.33466514  1
  Cr  Cr15  1  0.33148604  0.66764373  0.99997001  1
  Ni  Ni16  1  0.50056498  0.83545296  0.16991853  1
  Ni  Ni17  1  0.33481900  0.66817423  0.33540308  1
  Fe  Fe18  1  0.66994152  0.00306502  0.00131518  1
  Ni  Ni19  1  0.83433077  0.16756020  0.16479564  1
  Cr  Cr20  1  0.66443490  0.99971388  0.33220836  1
  Ni  Ni21  1  0.66910807  0.33133482  0.99969726  1
  Fe  Fe22  1  0.83543027  0.49955923  0.16669103  1
  Cr  Cr23  1  0.66758863  0.33552412  0.33512948  1
  Cr  Cr24  1  0.66947597  0.66711423  0.00121427  1
  Fe  Fe25  1  0.83347483  0.83419429  0.16603735  1
  Ni  Ni26  1  0.66533049  0.66730768  0.33462444  1
  Fe  Fe27  1  0.16879198  0.16919541  0.50106721  1
  Fe  Fe28  1  0.00212185  0.00109105  0.66919722  1
  Fe  Fe29  1  0.16498205  0.16853344  0.83385302  1
  Fe  Fe30  1  0.16813870  0.49940440  0.50075354  1
  Ni  Ni31  1  0.00294350  0.33499122  0.66668300  1
  Fe  Fe32  1  0.16582501  0.49952785  0.83396939  1
  Ni  Ni33  1  0.17003403  0.83258516  0.50123192  1
  Fe  Fe34  1  0.00138235  0.66614843  0.66797048  1
  Ni  Ni35  1  0.16515975  0.83236591  0.83367920  1
  Ni  Ni36  1  0.49707566  0.16887566  0.49985446  1
  Cr  Cr37  1  0.33239878  0.00107220  0.66567337  1
  Fe  Fe38  1  0.50068049  0.16869760  0.83519597  1
  Fe  Fe39  1  0.49964833  0.50219231  0.50034270  1
  Ni  Ni40  1  0.33177179  0.33469443  0.66784636  1
  Fe  Fe41  1  0.50034473  0.49987853  0.83318593  1
  Fe  Fe42  1  0.49935993  0.83150396  0.49926665  1
  Fe  Fe43  1  0.33384164  0.66577427  0.66719883  1
  Fe  Fe44  1  0.50156906  0.83349687  0.83355195  1
  Cr  Cr45  1  0.83523547  0.16967114  0.50182752  1
  Cr  Cr46  1  0.66709135  0.99939655  0.66894839  1
  Ni  Ni47  1  0.83485119  0.16730851  0.83537735  1
  Ni  Ni48  1  0.83435377  0.50122722  0.50114608  1
  Cr  Cr49  1  0.66735085  0.33615227  0.66702430  1
  Fe  Fe50  1  0.83590186  0.50041875  0.83371629  1
  Cr  Cr51  1  0.83431219  0.83167291  0.50311593  1
  Ni  Ni52  1  0.66735178  0.66675108  0.66684192  1
  Fe  Fe53  1  0.83605939  0.83434085  0.83408311  1
" 