849,Ni36Fe3Cr60_2,-214.027041533339, 140.771267151229,Ni36Fe3Cr60,"# generated using pymatgen
 data_Cr34FeNi19
_symmetry_space_group_name_H-M   'P 1'
_cell_length_a   7.54623558
_cell_length_b   7.54623558
_cell_length_c   10.67198870
_cell_angle_alpha   90.00000000
_cell_angle_beta   90.00000000
_cell_angle_gamma   90.00000000
_symmetry_Int_Tables_number   1
_chemical_formula_structural   Cr34FeNi19
_chemical_formula_sum   'Cr34 Fe1 Ni19'
_cell_volume   607.72356128
_cell_formula_units_Z   1
loop_
 _symmetry_equiv_pos_site_id
 _symmetry_equiv_pos_as_xyz
  1  'x, y, z'
loop_
 _atom_site_type_symbol
 _atom_site_label
 _atom_site_symmetry_multiplicity
 _atom_site_fract_x
 _atom_site_fract_y
 _atom_site_fract_z
 _atom_site_occupancy
  Ni  Ni0  1  0.99034275  -0.00192315  0.99085980  1
  Cr  Cr1  1  0.15683813  0.15863542  0.16060045  1
  Ni  Ni2  1  0.99072811  0.99137170  0.32975379  1
  Ni  Ni3  1  0.99145072  0.32376666  0.99295373  1
  Cr  Cr4  1  0.15766448  0.49594096  0.16274067  1
  Cr  Cr5  1  0.99258843  0.32662940  0.32535614  1
  Cr  Cr6  1  0.99431122  0.66236756  0.99153919  1
  Cr  Cr7  1  0.15715811  0.82985738  0.16243075  1
  Ni  Ni8  1  0.99364377  0.66709324  0.33082588  1
  Cr  Cr9  1  0.32498912  -0.00506267  0.99225432  1
  Cr  Cr10  1  0.49892916  0.15883624  0.16086053  1
  Cr  Cr11  1  0.32973038  0.99336369  0.33000577  1
  Cr  Cr12  1  0.32539748  0.32790173  0.99329817  1
  Cr  Cr13  1  0.49758877  0.49522565  0.15776960  1
  Cr  Cr14  1  0.32838751  0.32736917  0.32729708  1
  Cr  Cr15  1  0.32758387  0.66126295  0.99198903  1
  Cr  Cr16  1  0.49871314  0.82992524  0.15861196  1
  Cr  Cr17  1  0.32766063  0.66317654  0.32888881  1
  Ni  Ni18  1  0.66796018  -0.00362842  0.99418311  1
  Fe  Fe19  1  0.82845017  0.15861587  0.15816393  1
  Ni  Ni20  1  0.66629304  0.99307991  0.32905692  1
  Ni  Ni21  1  0.66536135  0.32621575  0.99304210  1
  Cr  Cr22  1  0.82870377  0.49560568  0.15980134  1
  Cr  Cr23  1  0.66318350  0.32445240  0.32749361  1
  Ni  Ni24  1  0.66310064  0.66149001  0.99189583  1
  Cr  Cr25  1  0.82874228  0.83011907  0.16018615  1
  Cr  Cr26  1  0.66357033  0.66466632  0.33013146  1
  Cr  Cr27  1  0.15933806  0.15802608  0.49547418  1
  Ni  Ni28  1  0.99380509  0.99248410  0.66397210  1
  Ni  Ni29  1  0.15547325  0.15956336  0.82922391  1
  Cr  Cr30  1  0.15865856  0.49676390  0.49251000  1
  Cr  Cr31  1  0.99304066  0.32409639  0.66573588  1
  Ni  Ni32  1  0.16132829  0.49325532  0.82986928  1
  Ni  Ni33  1  0.15708374  0.83001060  0.49312980  1
  Cr  Cr34  1  0.99458086  0.66695119  0.66150069  1
  Ni  Ni35  1  0.15587914  0.83126997  0.82815813  1
  Cr  Cr36  1  0.49623031  0.15998414  0.49594848  1
  Cr  Cr37  1  0.32392451  0.99204948  0.66172998  1
  Cr  Cr38  1  0.49811137  0.16232160  0.82734764  1
  Cr  Cr39  1  0.49618531  0.49373101  0.49788643  1
  Cr  Cr40  1  0.32699894  0.32843680  0.66448720  1
  Ni  Ni41  1  0.49651843  0.49305686  0.82995364  1
  Ni  Ni42  1  0.49614485  0.82963220  0.49264708  1
  Cr  Cr43  1  0.32686050  0.66323824  0.66359359  1
  Cr  Cr44  1  0.49842048  0.82776178  0.83183417  1
  Cr  Cr45  1  0.82894052  0.15946150  0.49567526  1
  Cr  Cr46  1  0.66745869  0.99341478  0.66045162  1
  Ni  Ni47  1  0.83054286  0.15903957  0.83139150  1
  Cr  Cr48  1  0.82912449  0.49666230  0.49512503  1
  Ni  Ni49  1  0.66233600  0.32735940  0.66456185  1
  Cr  Cr50  1  0.82575316  0.49405403  0.82859147  1
  Ni  Ni51  1  0.83126138  0.83126942  0.49237562  1
  Cr  Cr52  1  0.66274227  0.66370737  0.66134705  1
  Ni  Ni53  1  0.83085723  0.83271425  0.83015828  1
" 