4455,Ni36Fe60Cr2_19,-236.139902631543, 207.181427104022,Ni36Fe60Cr2,"# generated using pymatgen
 data_Cr3Fe32Ni19
_symmetry_space_group_name_H-M   'P 1'
_cell_length_a   7.40951620
_cell_length_b   7.40951620
_cell_length_c   10.47863830
_cell_angle_alpha   90.00000000
_cell_angle_beta   90.00000000
_cell_angle_gamma   90.00000000
_symmetry_Int_Tables_number   1
_chemical_formula_structural   Cr3Fe32Ni19
_chemical_formula_sum   'Cr3 Fe32 Ni19'
_cell_volume   575.28699149
_cell_formula_units_Z   1
loop_
 _symmetry_equiv_pos_site_id
 _symmetry_equiv_pos_as_xyz
  1  'x, y, z'
loop_
 _atom_site_type_symbol
 _atom_site_label
 _atom_site_symmetry_multiplicity
 _atom_site_fract_x
 _atom_site_fract_y
 _atom_site_fract_z
 _atom_site_occupancy
  Ni  Ni0  1  0.00507729  0.00466446  0.00412890  1
  Fe  Fe1  1  0.17009727  0.17052232  0.17004863  1
  Ni  Ni2  1  1.00207014  1.00358526  0.33752096  1
  Ni  Ni3  1  0.00509387  0.33709117  0.00505603  1
  Fe  Fe4  1  0.17071312  0.50343224  0.17010168  1
  Fe  Fe5  1  1.00284017  0.33713811  0.33707372  1
  Fe  Fe6  1  0.00409270  0.67024809  0.00423951  1
  Fe  Fe7  1  0.17018616  0.83769288  0.17048825  1
  Ni  Ni8  1  1.00326139  0.67135591  0.33763215  1
  Fe  Fe9  1  0.33530772  0.00428912  1.00372654  1
  Ni  Ni10  1  0.50367631  0.16981856  0.17185733  1
  Fe  Fe11  1  0.33696288  0.00423143  0.33600390  1
  Fe  Fe12  1  0.33653178  0.33648332  1.00381857  1
  Fe  Fe13  1  0.50457433  0.50373409  0.17083014  1
  Ni  Ni14  1  0.33762200  0.33764538  0.33777631  1
  Ni  Ni15  1  0.33783961  0.66961394  0.00428345  1
  Ni  Ni16  1  0.50237004  0.83670713  0.17145088  1
  Fe  Fe17  1  0.33659099  0.67047439  0.33630854  1
  Cr  Cr18  1  0.67075803  1.00356836  0.00522432  1
  Ni  Ni19  1  0.83790242  0.17218840  0.17163452  1
  Ni  Ni20  1  0.67220311  0.00409058  0.33676465  1
  Fe  Fe21  1  0.67027517  0.33907997  0.00500438  1
  Ni  Ni22  1  0.83815243  0.50325292  0.17034941  1
  Fe  Fe23  1  0.67129514  0.33676520  0.33679510  1
  Fe  Fe24  1  0.67112385  0.66902311  0.00466521  1
  Fe  Fe25  1  0.83722235  0.83714611  0.17246980  1
  Ni  Ni26  1  0.67126877  0.67110254  0.33616724  1
  Fe  Fe27  1  0.16956057  0.17011323  0.50421143  1
  Fe  Fe28  1  0.00485749  1.00321227  0.66950865  1
  Ni  Ni29  1  0.17219565  0.17138144  0.83768207  1
  Fe  Fe30  1  0.16996984  0.50407755  0.50445962  1
  Ni  Ni31  1  0.00475624  0.33729214  0.66932527  1
  Ni  Ni32  1  0.17055889  0.50425426  0.83731912  1
  Fe  Fe33  1  0.16787957  0.83745547  0.50373313  1
  Fe  Fe34  1  0.00428324  0.67008152  0.67003194  1
  Fe  Fe35  1  0.17118513  0.83766598  0.83742748  1
  Fe  Fe36  1  0.50479196  0.17168135  0.50354936  1
  Fe  Fe37  1  0.33615762  0.00511553  0.67191436  1
  Ni  Ni38  1  0.50126245  0.17053910  0.83579318  1
  Fe  Fe39  1  0.50451132  0.50263914  0.50379608  1
  Fe  Fe40  1  0.33666364  0.33740767  0.67066112  1
  Fe  Fe41  1  0.50273303  0.50340198  0.83702137  1
  Cr  Cr42  1  0.50397787  0.83691750  0.50285301  1
  Ni  Ni43  1  0.33706132  0.66944110  0.67063852  1
  Fe  Fe44  1  0.50191662  0.83650422  0.83664875  1
  Ni  Ni45  1  0.83776650  0.17050467  0.50346186  1
  Fe  Fe46  1  0.67063433  0.00409067  0.67006921  1
  Cr  Cr47  1  0.83850420  0.17170501  0.83709334  1
  Fe  Fe48  1  0.83716842  0.50432291  0.50337440  1
  Fe  Fe49  1  0.66967072  0.33798001  0.66984566  1
  Fe  Fe50  1  0.83798042  0.50401023  0.83769902  1
  Ni  Ni51  1  0.83835568  0.83767013  0.50335380  1
  Fe  Fe52  1  0.67158234  0.66957591  0.67070289  1
  Fe  Fe53  1  0.83854818  0.83565632  0.83604754  1
" 