8336,Ni36Fe35Cr27_3,-228.690948357796, 194.339749873794,Ni36Fe35Cr27,"# generated using pymatgen
 data_Cr16(FeNi)19
_symmetry_space_group_name_H-M   'P 1'
_cell_length_a   7.46156802
_cell_length_b   7.46156802
_cell_length_c   10.55225069
_cell_angle_alpha   90.00000000
_cell_angle_beta   90.00000000
_cell_angle_gamma   90.00000000
_symmetry_Int_Tables_number   1
_chemical_formula_structural   Cr16(FeNi)19
_chemical_formula_sum   'Cr16 Fe19 Ni19'
_cell_volume   587.49652798
_cell_formula_units_Z   1
loop_
 _symmetry_equiv_pos_site_id
 _symmetry_equiv_pos_as_xyz
  1  'x, y, z'
loop_
 _atom_site_type_symbol
 _atom_site_label
 _atom_site_symmetry_multiplicity
 _atom_site_fract_x
 _atom_site_fract_y
 _atom_site_fract_z
 _atom_site_occupancy
  Ni  Ni0  1  0.00207596  0.00280048  0.00065530  1
  Ni  Ni1  1  0.16797699  0.16661090  0.16570207  1
  Cr  Cr2  1  0.99994589  0.00141637  0.33323857  1
  Ni  Ni3  1  1.00016328  0.33106580  0.00102918  1
  Cr  Cr4  1  0.16689837  0.49923879  0.16708951  1
  Ni  Ni5  1  0.99725929  0.33390951  0.33317736  1
  Fe  Fe6  1  0.00119511  0.66718044  0.00075846  1
  Fe  Fe7  1  0.16939311  0.83481265  0.16660754  1
  Ni  Ni8  1  0.99961705  0.66552207  0.33414182  1
  Fe  Fe9  1  0.33200716  0.99928017  0.00170079  1
  Ni  Ni10  1  0.49801002  0.16720928  0.16903512  1
  Fe  Fe11  1  0.33446446  0.00098831  0.33183093  1
  Fe  Fe12  1  0.33332200  0.33476600  0.00103992  1
  Ni  Ni13  1  0.50022695  0.50103204  0.16741068  1
  Fe  Fe14  1  0.33487863  0.33395372  0.33303818  1
  Ni  Ni15  1  0.33525858  0.66784568  0.99860153  1
  Fe  Fe16  1  0.49813340  0.83316180  0.16744070  1
  Ni  Ni17  1  0.33550407  0.66695228  0.33299856  1
  Cr  Cr18  1  0.66758075  0.00098334  1.00001904  1
  Ni  Ni19  1  0.83511298  0.16763611  0.16687474  1
  Fe  Fe20  1  0.66666478  0.00136535  0.33350152  1
  Cr  Cr21  1  0.66831728  0.33464142  0.00112050  1
  Fe  Fe22  1  0.83318953  0.49820444  0.16796775  1
  Fe  Fe23  1  0.66742665  0.33475744  0.33348647  1
  Ni  Ni24  1  0.66300550  0.66593272  0.00123205  1
  Cr  Cr25  1  0.83356942  0.83170556  0.16683388  1
  Fe  Fe26  1  0.66775389  0.66497728  0.33405310  1
  Cr  Cr27  1  0.16893587  0.16824467  0.50131623  1
  Fe  Fe28  1  0.00103514  1.00032994  0.66744303  1
  Cr  Cr29  1  0.16632484  0.16752314  0.83396424  1
  Cr  Cr30  1  0.16747653  0.49957394  0.50150394  1
  Fe  Fe31  1  0.00102838  0.33358322  0.66708438  1
  Fe  Fe32  1  0.16881741  0.50104489  0.83362002  1
  Cr  Cr33  1  0.16573594  0.83328294  0.50115186  1
  Fe  Fe34  1  0.00219533  0.66718844  0.66582565  1
  Fe  Fe35  1  0.16881777  0.83253503  0.83347228  1
  Fe  Fe36  1  0.50045257  0.16861928  0.49954058  1
  Ni  Ni37  1  0.33218517  0.99920717  0.66760050  1
  Cr  Cr38  1  0.49840210  0.16766430  0.83318406  1
  Ni  Ni39  1  0.50093435  0.49914056  0.49959538  1
  Ni  Ni40  1  0.33348673  0.33570535  0.66681323  1
  Ni  Ni41  1  0.49644972  0.50309522  0.83409483  1
  Cr  Cr42  1  0.50125638  0.83344016  0.49928075  1
  Ni  Ni43  1  0.33258691  0.66618888  0.66950224  1
  Fe  Fe44  1  0.49735536  0.83127539  0.83413843  1
  Fe  Fe45  1  0.83304669  0.16819900  0.49959278  1
  Cr  Cr46  1  0.66856821  0.00179311  0.66650494  1
  Ni  Ni47  1  0.83728749  0.16591050  0.83349368  1
  Ni  Ni48  1  0.83325461  0.50166105  0.49807258  1
  Cr  Cr49  1  0.66720426  0.33342688  0.66582441  1
  Cr  Cr50  1  0.83449063  0.50076908  0.83600521  1
  Ni  Ni51  1  0.83385200  0.83232100  0.50034705  1
  Cr  Cr52  1  0.66506567  0.66588334  0.66637064  1
  Cr  Cr53  1  0.83463095  0.83427171  0.83389995  1
" 