8919,Ni36Fe60Cr2_1,-236.366854071894, 204.912173539584,Ni36Fe60Cr2,"# generated using pymatgen
 data_Cr3Fe32Ni19
_symmetry_space_group_name_H-M   'P 1'
_cell_length_a   7.41207635
_cell_length_b   7.41207635
_cell_length_c   10.48225890
_cell_angle_alpha   90.00000000
_cell_angle_beta   90.00000000
_cell_angle_gamma   90.00000000
_symmetry_Int_Tables_number   1
_chemical_formula_structural   Cr3Fe32Ni19
_chemical_formula_sum   'Cr3 Fe32 Ni19'
_cell_volume   575.88352028
_cell_formula_units_Z   1
loop_
 _symmetry_equiv_pos_site_id
 _symmetry_equiv_pos_as_xyz
  1  'x, y, z'
loop_
 _atom_site_type_symbol
 _atom_site_label
 _atom_site_symmetry_multiplicity
 _atom_site_fract_x
 _atom_site_fract_y
 _atom_site_fract_z
 _atom_site_occupancy
  Cr  Cr0  1  0.00455707  1.00251203  0.00383594  1
  Ni  Ni1  1  0.16925052  0.17175647  0.17030048  1
  Fe  Fe2  1  1.00225077  0.00405262  0.33674753  1
  Fe  Fe3  1  0.00375787  0.33767919  1.00370276  1
  Ni  Ni4  1  0.17160212  0.50422536  0.16886525  1
  Fe  Fe5  1  1.00286977  0.33688980  0.33825122  1
  Fe  Fe6  1  0.00472599  0.66867620  0.00406170  1
  Ni  Ni7  1  0.16900237  0.83480456  0.17354546  1
  Fe  Fe8  1  1.00284639  0.66984277  0.33708630  1
  Cr  Cr9  1  0.33622387  1.00350955  0.00558706  1
  Ni  Ni10  1  0.50610233  0.17262143  0.17012243  1
  Ni  Ni11  1  0.33446703  1.00285131  0.33644773  1
  Ni  Ni12  1  0.33803487  0.33764498  1.00298847  1
  Ni  Ni13  1  0.50442348  0.50351982  0.17006589  1
  Cr  Cr14  1  0.33745982  0.33519084  0.33639312  1
  Fe  Fe15  1  0.33663720  0.66876313  1.00297340  1
  Fe  Fe16  1  0.50379865  0.83705490  0.17256478  1
  Fe  Fe17  1  0.33913241  0.67006889  0.33647714  1
  Fe  Fe18  1  0.67046920  0.00598171  0.00424863  1
  Ni  Ni19  1  0.83511076  0.17073420  0.17225308  1
  Fe  Fe20  1  0.66932997  0.00382256  0.33698521  1
  Ni  Ni21  1  0.67056545  0.33991142  1.00351228  1
  Fe  Fe22  1  0.83762604  0.50243424  0.17151304  1
  Ni  Ni23  1  0.67176576  0.33977696  0.33874903  1
  Fe  Fe24  1  0.66938206  0.67010284  1.00354476  1
  Ni  Ni25  1  0.83627202  0.83660862  0.16989022  1
  Ni  Ni26  1  0.67233219  0.67016137  0.33633584  1
  Ni  Ni27  1  0.17074842  0.16906684  0.50527222  1
  Fe  Fe28  1  1.00237637  1.00331130  0.67071195  1
  Fe  Fe29  1  0.17158061  0.17262273  0.83484280  1
  Fe  Fe30  1  0.16723088  0.50379142  0.50425539  1
  Ni  Ni31  1  0.00398876  0.33682038  0.67046924  1
  Fe  Fe32  1  0.17086897  0.50389664  0.83752687  1
  Fe  Fe33  1  0.16916786  0.83700589  0.50353491  1
  Fe  Fe34  1  1.00230196  0.66910192  0.66983894  1
  Ni  Ni35  1  0.16936943  0.83628186  0.83392366  1
  Fe  Fe36  1  0.50576247  0.16864043  0.50313608  1
  Fe  Fe37  1  0.33699591  1.00359155  0.66949072  1
  Fe  Fe38  1  0.50407369  0.17134404  0.83739406  1
  Fe  Fe39  1  0.50562529  0.50526976  0.50434962  1
  Fe  Fe40  1  0.33766832  0.33817419  0.67024997  1
  Ni  Ni41  1  0.50437081  0.50265004  0.83591136  1
  Fe  Fe42  1  0.50478386  0.83676590  0.50339038  1
  Fe  Fe43  1  0.33711046  0.66885748  0.67088349  1
  Fe  Fe44  1  0.50328980  0.83529464  0.83536019  1
  Fe  Fe45  1  0.83840071  0.17106425  0.50359717  1
  Fe  Fe46  1  0.67173052  0.00389235  0.67037210  1
  Fe  Fe47  1  0.83596566  0.17236855  0.83717918  1
  Ni  Ni48  1  0.83568818  0.50503950  0.50434685  1
  Fe  Fe49  1  0.67145522  0.33839189  0.67022945  1
  Fe  Fe50  1  0.83705129  0.50405237  0.83538658  1
  Ni  Ni51  1  0.83692061  0.83638097  0.50479238  1
  Ni  Ni52  1  0.67030337  0.67046126  0.67055894  1
  Fe  Fe53  1  0.83541866  0.83490814  0.83619079  1
" 