7628,Ni36Fe3Cr60_17,-214.066459074276, 143.202832727718,Ni36Fe3Cr60,"# generated using pymatgen
 data_Cr34FeNi19
_symmetry_space_group_name_H-M   'P 1'
_cell_length_a   7.54417101
_cell_length_b   7.54417101
_cell_length_c   10.66906897
_cell_angle_alpha   90.00000000
_cell_angle_beta   90.00000000
_cell_angle_gamma   90.00000000
_symmetry_Int_Tables_number   1
_chemical_formula_structural   Cr34FeNi19
_chemical_formula_sum   'Cr34 Fe1 Ni19'
_cell_volume   607.22489953
_cell_formula_units_Z   1
loop_
 _symmetry_equiv_pos_site_id
 _symmetry_equiv_pos_as_xyz
  1  'x, y, z'
loop_
 _atom_site_type_symbol
 _atom_site_label
 _atom_site_symmetry_multiplicity
 _atom_site_fract_x
 _atom_site_fract_y
 _atom_site_fract_z
 _atom_site_occupancy
  Ni  Ni0  1  0.98969334  -0.00361820  0.99299673  1
  Cr  Cr1  1  0.15889743  0.16148885  0.16001426  1
  Cr  Cr2  1  0.99413298  -0.00210246  0.32914147  1
  Cr  Cr3  1  0.99362354  0.33025351  -0.00474688  1
  Ni  Ni4  1  0.16029179  0.49596679  0.16528331  1
  Ni  Ni5  1  -0.00402860  0.32960397  0.32717950  1
  Cr  Cr6  1  0.99361998  0.65902645  0.99158605  1
  Cr  Cr7  1  0.15967743  0.82591208  0.16148209  1
  Ni  Ni8  1  -0.00384833  0.65791192  0.32735962  1
  Cr  Cr9  1  0.33050116  0.99477029  -0.00337762  1
  Ni  Ni10  1  0.49875373  0.16351374  0.16032720  1
  Cr  Cr11  1  0.33014253  -0.00330584  0.32790834  1
  Cr  Cr12  1  0.32901612  0.33156871  -0.00340071  1
  Cr  Cr13  1  0.49708800  0.49549758  0.16119120  1
  Cr  Cr14  1  0.32615984  0.32802545  0.32607133  1
  Cr  Cr15  1  0.32941341  0.65835696  0.99257409  1
  Cr  Cr16  1  0.49567372  0.82536819  0.16257901  1
  Ni  Ni17  1  0.32722686  0.65956322  0.32756815  1
  Cr  Cr18  1  0.66242527  0.99475514  -0.00465146  1
  Ni  Ni19  1  0.82748676  0.16320995  0.16017884  1
  Cr  Cr20  1  0.66057792  -0.00441746  0.32770333  1
  Ni  Ni21  1  0.66305162  0.32937917  0.99284125  1
  Cr  Cr22  1  0.82789414  0.49483434  0.16369581  1
  Cr  Cr23  1  0.66223022  0.32624836  0.32695596  1
  Ni  Ni24  1  0.66193288  0.65944430  0.99089107  1
  Cr  Cr25  1  0.82936726  0.82649377  0.16167124  1
  Ni  Ni26  1  0.66132165  0.66102846  0.32813746  1
  Ni  Ni27  1  0.16157019  0.16441023  0.49503852  1
  Cr  Cr28  1  0.99219907  -0.00497046  0.66222219  1
  Cr  Cr29  1  0.16055139  0.16202164  0.82796430  1
  Cr  Cr30  1  0.16223468  0.49495811  0.49361647  1
  Cr  Cr31  1  -0.00488092  0.33003523  0.66210998  1
  Ni  Ni32  1  0.16375055  0.49457793  0.82604526  1
  Cr  Cr33  1  0.16186149  0.82666473  0.49419357  1
  Cr  Cr34  1  0.99380504  0.65966425  0.66498825  1
  Cr  Cr35  1  0.16193978  0.82908799  0.82899543  1
  Cr  Cr36  1  0.49364598  0.16568468  0.49791030  1
  Cr  Cr37  1  0.32955592  0.99417473  0.65982796  1
  Cr  Cr38  1  0.49566540  0.16509586  0.82787569  1
  Cr  Cr39  1  0.49539500  0.49528674  0.49661147  1
  Ni  Ni40  1  0.32785815  0.33200374  0.66258964  1
  Ni  Ni41  1  0.49627477  0.49554593  0.82714349  1
  Cr  Cr42  1  0.49399109  0.82409921  0.49350334  1
  Ni  Ni43  1  0.33017118  0.65708307  0.66477532  1
  Ni  Ni44  1  0.49702549  0.82442612  0.82808016  1
  Cr  Cr45  1  0.82918037  0.16501185  0.49590242  1
  Cr  Cr46  1  0.66297028  0.99338334  0.66225659  1
  Ni  Ni47  1  0.82685300  0.16301321  0.82968921  1
  Cr  Cr48  1  0.82698216  0.49509600  0.49145463  1
  Fe  Fe49  1  0.66144475  0.33041878  0.66529289  1
  Ni  Ni50  1  0.82470110  0.49345377  0.82931672  1
  Cr  Cr51  1  0.82886384  0.82490926  0.49179804  1
  Cr  Cr52  1  0.66216027  0.66172767  0.66483542  1
  Ni  Ni53  1  0.82588868  0.82834052  0.83078342  1
" 