2421,Ni36Fe24Cr39_17,-223.077311654966, 167.824358802466,Ni36Fe24Cr39,"# generated using pymatgen
 data_Cr23Fe12Ni19
_symmetry_space_group_name_H-M   'P 1'
_cell_length_a   7.49428209
_cell_length_b   7.49428209
_cell_length_c   10.59851537
_cell_angle_alpha   90.00000000
_cell_angle_beta   90.00000000
_cell_angle_gamma   90.00000000
_symmetry_Int_Tables_number   1
_chemical_formula_structural   Cr23Fe12Ni19
_chemical_formula_sum   'Cr23 Fe12 Ni19'
_cell_volume   595.25781593
_cell_formula_units_Z   1
loop_
 _symmetry_equiv_pos_site_id
 _symmetry_equiv_pos_as_xyz
  1  'x, y, z'
loop_
 _atom_site_type_symbol
 _atom_site_label
 _atom_site_symmetry_multiplicity
 _atom_site_fract_x
 _atom_site_fract_y
 _atom_site_fract_z
 _atom_site_occupancy
  Ni  Ni0  1  0.99515235  0.99741539  -0.00127906  1
  Ni  Ni1  1  0.16277263  0.16620490  0.16588522  1
  Ni  Ni2  1  0.99531107  0.00250351  0.33144926  1
  Cr  Cr3  1  0.00004295  0.32795457  0.00074283  1
  Ni  Ni4  1  0.16536167  0.49651649  0.16412376  1
  Ni  Ni5  1  0.00046019  0.32903454  0.33182469  1
  Ni  Ni6  1  0.99573632  0.66717731  -0.00013663  1
  Cr  Cr7  1  0.16368637  0.82791122  0.16514150  1
  Cr  Cr8  1  0.99631670  0.66240599  0.33293370  1
  Cr  Cr9  1  0.32967090  0.00287125  -0.00133261  1
  Cr  Cr10  1  0.50326588  0.16689490  0.16652918  1
  Cr  Cr11  1  0.32677966  0.00311592  0.33170956  1
  Ni  Ni12  1  0.33320456  0.33253836  -0.00063249  1
  Cr  Cr13  1  0.49678273  0.49756269  0.16489051  1
  Ni  Ni14  1  0.32826951  0.33295131  0.33187014  1
  Fe  Fe15  1  0.33021698  0.66340864  -0.00153703  1
  Cr  Cr16  1  0.49858610  0.83273721  0.16651762  1
  Ni  Ni17  1  0.33200915  0.65946539  0.33240566  1
  Fe  Fe18  1  0.66868689  0.00057880  0.99729412  1
  Ni  Ni19  1  0.83294377  0.16266421  0.16495142  1
  Fe  Fe20  1  0.66845256  -0.00128205  0.33188622  1
  Ni  Ni21  1  0.66464825  0.33116442  0.99750295  1
  Cr  Cr22  1  0.83364470  0.49452357  0.16480731  1
  Fe  Fe23  1  0.66761418  0.33179405  0.33133359  1
  Cr  Cr24  1  0.66629112  0.66647716  0.99524975  1
  Fe  Fe25  1  0.83325427  0.83437242  0.16580725  1
  Cr  Cr26  1  0.66618299  0.66425157  0.33565472  1
  Ni  Ni27  1  0.16342764  0.16958669  0.49899676  1
  Ni  Ni28  1  0.99473415  0.00184966  0.66397809  1
  Cr  Cr29  1  0.16100745  0.16549624  0.82863079  1
  Ni  Ni30  1  0.16553621  0.49605112  0.49794296  1
  Fe  Fe31  1  -0.00180817  0.33116844  0.66251971  1
  Cr  Cr32  1  0.16510898  0.50022248  0.83389084  1
  Cr  Cr33  1  0.16361374  0.83097029  0.49811344  1
  Cr  Cr34  1  0.99629119  0.66397196  0.66138591  1
  Cr  Cr35  1  0.16447906  0.82949848  0.83089879  1
  Cr  Cr36  1  0.50051718  0.16729896  0.49601950  1
  Cr  Cr37  1  0.33042472  0.00036560  0.66317866  1
  Cr  Cr38  1  0.50213883  0.16620716  0.83165776  1
  Fe  Fe39  1  0.49616593  0.49651573  0.49748537  1
  Fe  Fe40  1  0.33114749  0.33336384  0.66331305  1
  Fe  Fe41  1  0.49721463  0.49665762  0.83241406  1
  Cr  Cr42  1  0.49687691  0.83246119  0.49705052  1
  Ni  Ni43  1  0.33409930  0.65951354  0.66505160  1
  Fe  Fe44  1  0.49861790  0.83163219  0.82994840  1
  Cr  Cr45  1  0.83188301  0.16559058  0.49902309  1
  Ni  Ni46  1  0.66745335  0.99769238  0.66668994  1
  Ni  Ni47  1  0.82867904  0.16264746  0.83085308  1
  Ni  Ni48  1  0.83213540  0.49530087  0.49813826  1
  Fe  Fe49  1  0.66555412  0.33056750  0.66532365  1
  Cr  Cr50  1  0.83240821  0.49315754  0.83171465  1
  Ni  Ni51  1  0.83095566  0.83295181  0.49848342  1
  Cr  Cr52  1  0.66460804  0.66326765  0.66338137  1
  Fe  Fe53  1  0.83326663  0.83466033  0.83020427  1
" 