1417,Ni36Fe2Cr60_19,-213.956687420956, 140.822393450558,Ni36Fe2Cr60,"# generated using pymatgen
 data_Cr34FeNi19
_symmetry_space_group_name_H-M   'P 1'
_cell_length_a   7.54795887
_cell_length_b   7.54795887
_cell_length_c   10.67442581
_cell_angle_alpha   90.00000000
_cell_angle_beta   90.00000000
_cell_angle_gamma   90.00000000
_symmetry_Int_Tables_number   1
_chemical_formula_structural   Cr34FeNi19
_chemical_formula_sum   'Cr34 Fe1 Ni19'
_cell_volume   608.14000486
_cell_formula_units_Z   1
loop_
 _symmetry_equiv_pos_site_id
 _symmetry_equiv_pos_as_xyz
  1  'x, y, z'
loop_
 _atom_site_type_symbol
 _atom_site_label
 _atom_site_symmetry_multiplicity
 _atom_site_fract_x
 _atom_site_fract_y
 _atom_site_fract_z
 _atom_site_occupancy
  Ni  Ni0  1  0.99329950  -0.00421995  0.99090380  1
  Cr  Cr1  1  0.16082511  0.16160450  0.16393455  1
  Cr  Cr2  1  -0.00501968  -0.00439574  0.32842096  1
  Cr  Cr3  1  0.99279641  0.32650127  0.99329021  1
  Cr  Cr4  1  0.16180549  0.49459933  0.16218747  1
  Ni  Ni5  1  0.99238284  0.32930729  0.32817924  1
  Cr  Cr6  1  0.99381887  0.66151224  -0.00517052  1
  Cr  Cr7  1  0.16160074  0.82756462  0.16014955  1
  Ni  Ni8  1  0.99280501  0.65747350  0.32603924  1
  Cr  Cr9  1  0.32702559  -0.00251037  -0.00491398  1
  Ni  Ni10  1  0.49941200  0.16429257  0.16123892  1
  Cr  Cr11  1  0.33119337  -0.00249603  0.33062750  1
  Cr  Cr12  1  0.33014405  0.32729091  -0.00469364  1
  Ni  Ni13  1  0.49797001  0.49137268  0.15980485  1
  Cr  Cr14  1  0.33060275  0.32623848  0.32820426  1
  Ni  Ni15  1  0.32739649  0.66007019  0.99376752  1
  Cr  Cr16  1  0.49502182  0.83145965  0.15834959  1
  Cr  Cr17  1  0.33098939  0.66054140  0.32661652  1
  Ni  Ni18  1  0.66173915  -0.00000436  0.99348858  1
  Cr  Cr19  1  0.82594983  0.16251379  0.16092900  1
  Ni  Ni20  1  0.65857147  -0.00164196  0.32900635  1
  Ni  Ni21  1  0.66052026  0.32445629  -0.00403253  1
  Ni  Ni22  1  0.82567019  0.49126095  0.16429859  1
  Ni  Ni23  1  0.66044818  0.32713863  0.32651675  1
  Cr  Cr24  1  0.66125431  0.65788952  -0.00204088  1
  Cr  Cr25  1  0.82800944  0.83146700  0.16160395  1
  Cr  Cr26  1  0.66150343  0.66039235  0.32812327  1
  Ni  Ni27  1  0.16230912  0.16296726  0.49329458  1
  Cr  Cr28  1  -0.00388137  -0.00346796  0.66456683  1
  Ni  Ni29  1  0.16171069  0.15880004  0.82887969  1
  Cr  Cr30  1  0.16111875  0.49259166  0.49396425  1
  Cr  Cr31  1  -0.00349723  0.32488206  0.66476553  1
  Fe  Fe32  1  0.16247538  0.49363837  0.82931396  1
  Cr  Cr33  1  0.16160040  0.82709888  0.49277318  1
  Cr  Cr34  1  0.99425468  0.66182744  0.66404021  1
  Ni  Ni35  1  0.16203457  0.82957848  0.83091712  1
  Ni  Ni36  1  0.49564072  0.16267651  0.49244508  1
  Cr  Cr37  1  0.32828003  -0.00292223  0.65826516  1
  Ni  Ni38  1  0.49528855  0.16186811  0.83021637  1
  Ni  Ni39  1  0.49492142  0.49216260  0.49323802  1
  Cr  Cr40  1  0.32835251  0.32464474  0.66089127  1
  Cr  Cr41  1  0.49361510  0.49297332  0.82916937  1
  Ni  Ni42  1  0.49497719  0.82955783  0.49333400  1
  Cr  Cr43  1  0.32905717  0.66138950  0.66150602  1
  Cr  Cr44  1  0.49308804  0.82902250  0.82981634  1
  Cr  Cr45  1  0.82818049  0.16290784  0.49280634  1
  Cr  Cr46  1  0.65941439  -0.00363669  0.66051087  1
  Ni  Ni47  1  0.82718132  0.16135938  0.83129028  1
  Cr  Cr48  1  0.82835320  0.49223536  0.49309120  1
  Cr  Cr49  1  0.65943222  0.32594624  0.66169827  1
  Cr  Cr50  1  0.82543904  0.49136761  0.82707352  1
  Cr  Cr51  1  0.82732371  0.82918743  0.49290465  1
  Cr  Cr52  1  0.65988768  0.66126707  0.65631725  1
  Cr  Cr53  1  0.82627639  0.83096813  0.82865177  1
" 