8208,Ni36Fe60Cr2_7,-235.951099192379, 207.996983167373,Ni36Fe60Cr2,"# generated using pymatgen
 data_Cr3Fe32Ni19
_symmetry_space_group_name_H-M   'P 1'
_cell_length_a   7.40406454
_cell_length_b   7.40406454
_cell_length_c   10.47092849
_cell_angle_alpha   90.00000000
_cell_angle_beta   90.00000000
_cell_angle_gamma   90.00000000
_symmetry_Int_Tables_number   1
_chemical_formula_structural   Cr3Fe32Ni19
_chemical_formula_sum   'Cr3 Fe32 Ni19'
_cell_volume   574.01809779
_cell_formula_units_Z   1
loop_
 _symmetry_equiv_pos_site_id
 _symmetry_equiv_pos_as_xyz
  1  'x, y, z'
loop_
 _atom_site_type_symbol
 _atom_site_label
 _atom_site_symmetry_multiplicity
 _atom_site_fract_x
 _atom_site_fract_y
 _atom_site_fract_z
 _atom_site_occupancy
  Fe  Fe0  1  1.00422907  1.00373402  1.00353646  1
  Fe  Fe1  1  0.17118565  0.17152827  0.17112480  1
  Fe  Fe2  1  0.00458690  1.00401847  0.33825497  1
  Fe  Fe3  1  0.00505061  0.33768395  0.00543488  1
  Fe  Fe4  1  0.17119044  0.50441845  0.17059372  1
  Ni  Ni5  1  1.00384223  0.33787965  0.33777671  1
  Fe  Fe6  1  0.00497520  0.67133967  0.00531313  1
  Ni  Ni7  1  0.17144321  0.83796920  0.16988024  1
  Ni  Ni8  1  0.00449273  0.67106726  0.33704815  1
  Fe  Fe9  1  0.33732708  0.00512593  0.00568604  1
  Ni  Ni10  1  0.50413527  0.17107627  0.17083005  1
  Fe  Fe11  1  0.33671006  1.00385665  0.33744546  1
  Fe  Fe12  1  0.33828892  0.33807574  1.00389945  1
  Ni  Ni13  1  0.50543049  0.50339001  0.17003957  1
  Fe  Fe14  1  0.33708932  0.33782821  0.33748830  1
  Ni  Ni15  1  0.33627605  0.67029415  0.00505756  1
  Fe  Fe16  1  0.50402169  0.83701270  0.17097514  1
  Fe  Fe17  1  0.33658511  0.67107653  0.33754146  1
  Fe  Fe18  1  0.67120305  0.00504989  0.00499733  1
  Fe  Fe19  1  0.83712381  0.17174946  0.17126743  1
  Fe  Fe20  1  0.67146389  0.00452312  0.33772032  1
  Ni  Ni21  1  0.66977500  0.33619506  0.00554058  1
  Ni  Ni22  1  0.83731846  0.50357865  0.17069219  1
  Fe  Fe23  1  0.67208360  0.33815621  0.33718143  1
  Fe  Fe24  1  0.67081180  0.67037898  0.00551976  1
  Fe  Fe25  1  0.83728785  0.83701779  0.17042775  1
  Fe  Fe26  1  0.67192100  0.67007758  0.33805033  1
  Fe  Fe27  1  0.17022732  0.17065993  0.50448028  1
  Ni  Ni28  1  1.00381745  0.00489756  0.67084630  1
  Fe  Fe29  1  0.17032400  0.17087431  0.83715630  1
  Fe  Fe30  1  0.17131681  0.50382066  0.50395066  1
  Fe  Fe31  1  0.00488792  0.33591520  0.66951613  1
  Ni  Ni32  1  0.17258263  0.50292681  0.83843062  1
  Ni  Ni33  1  0.17331136  0.83855647  0.50506401  1
  Cr  Cr34  1  0.00515909  0.67360003  0.67021075  1
  Fe  Fe35  1  0.16965068  0.83763194  0.83835194  1
  Fe  Fe36  1  0.50465033  0.17082226  0.50417041  1
  Fe  Fe37  1  0.33717802  0.00450125  0.66962773  1
  Fe  Fe38  1  0.50464338  0.17329423  0.83802519  1
  Fe  Fe39  1  0.50467775  0.50477201  0.50488812  1
  Ni  Ni40  1  0.33925300  0.33795701  0.67171077  1
  Fe  Fe41  1  0.50264042  0.50319364  0.83760321  1
  Ni  Ni42  1  0.50258746  0.83774520  0.50404086  1
  Ni  Ni43  1  0.33843187  0.66971687  0.66993903  1
  Cr  Cr44  1  0.50406094  0.83751264  0.83743817  1
  Ni  Ni45  1  0.83791284  0.17286044  0.50507148  1
  Fe  Fe46  1  0.67155157  0.00463509  0.67004210  1
  Fe  Fe47  1  0.83779186  0.16925742  0.83698538  1
  Ni  Ni48  1  0.83710414  0.50189829  0.50394499  1
  Ni  Ni49  1  0.66887539  0.33651250  0.66992929  1
  Cr  Cr50  1  0.83727321  0.50353185  0.83757376  1
  Fe  Fe51  1  0.83692910  0.83825642  0.50424170  1
  Ni  Ni52  1  0.66906581  0.67053244  0.66953251  1
  Ni  Ni53  1  0.83792406  0.83969260  0.83758204  1
" 