8780,Ni36Fe35Cr27_11,-228.41127862868, 189.161615411855,Ni36Fe35Cr27,"# generated using pymatgen
 data_Cr16(FeNi)19
_symmetry_space_group_name_H-M   'P 1'
_cell_length_a   7.45735149
_cell_length_b   7.45735149
_cell_length_c   10.54628761
_cell_angle_alpha   90.00000000
_cell_angle_beta   90.00000000
_cell_angle_gamma   90.00000000
_symmetry_Int_Tables_number   1
_chemical_formula_structural   Cr16(FeNi)19
_chemical_formula_sum   'Cr16 Fe19 Ni19'
_cell_volume   586.50110867
_cell_formula_units_Z   1
loop_
 _symmetry_equiv_pos_site_id
 _symmetry_equiv_pos_as_xyz
  1  'x, y, z'
loop_
 _atom_site_type_symbol
 _atom_site_label
 _atom_site_symmetry_multiplicity
 _atom_site_fract_x
 _atom_site_fract_y
 _atom_site_fract_z
 _atom_site_occupancy
  Ni  Ni0  1  0.99920888  0.99958065  0.00231053  1
  Ni  Ni1  1  0.16820772  0.16633822  0.16848229  1
  Cr  Cr2  1  1.00060900  1.00046010  0.33218952  1
  Cr  Cr3  1  1.00053782  0.33442895  0.00292451  1
  Cr  Cr4  1  0.16882604  0.49995330  0.16779221  1
  Fe  Fe5  1  0.99880672  0.33344501  0.33374075  1
  Cr  Cr6  1  0.00097549  0.66892804  0.99763511  1
  Ni  Ni7  1  0.16942222  0.83633889  0.16696960  1
  Cr  Cr8  1  0.99782601  0.66664870  0.33489334  1
  Cr  Cr9  1  0.33510905  0.00133518  0.00515044  1
  Fe  Fe10  1  0.50092256  0.16817218  0.16786026  1
  Fe  Fe11  1  0.33477462  0.00097035  0.33270180  1
  Fe  Fe12  1  0.33776816  0.33455133  0.00133293  1
  Fe  Fe13  1  0.50033078  0.50139516  0.16848705  1
  Ni  Ni14  1  0.33673949  0.33353971  0.33417608  1
  Ni  Ni15  1  0.33501204  0.66574166  1.00007479  1
  Ni  Ni16  1  0.50025466  0.83290517  0.16921786  1
  Fe  Fe17  1  0.33641589  0.66854611  0.33366210  1
  Ni  Ni18  1  0.66726776  0.00264622  0.00098170  1
  Fe  Fe19  1  0.83377556  0.16587720  0.16632349  1
  Cr  Cr20  1  0.66526014  1.00016262  0.33525214  1
  Fe  Fe21  1  0.66505930  0.33333679  0.00082067  1
  Ni  Ni22  1  0.83004581  0.49903637  0.17016991  1
  Fe  Fe23  1  0.66712070  0.33540541  0.33543068  1
  Cr  Cr24  1  0.66703192  0.66670742  0.00290656  1
  Ni  Ni25  1  0.83238459  0.83422272  0.16416645  1
  Fe  Fe26  1  0.66596308  0.66573518  0.33400371  1
  Cr  Cr27  1  0.16684745  0.16727273  0.49888217  1
  Ni  Ni28  1  0.99927861  0.99846664  0.66681604  1
  Cr  Cr29  1  0.16788070  0.16550600  0.83475892  1
  Fe  Fe30  1  0.16959698  0.50064529  0.49876646  1
  Cr  Cr31  1  1.00008386  0.33633519  0.66422540  1
  Fe  Fe32  1  0.17171752  0.50149399  0.83445973  1
  Fe  Fe33  1  0.16764267  0.83230008  0.50114400  1
  Cr  Cr34  1  1.00060384  0.66712365  0.66948524  1
  Ni  Ni35  1  0.16634944  0.83312034  0.83455762  1
  Ni  Ni36  1  0.50175195  0.17007642  0.50160594  1
  Cr  Cr37  1  0.33663772  0.00222451  0.66445597  1
  Ni  Ni38  1  0.50212647  0.17152946  0.83368726  1
  Ni  Ni39  1  0.50012205  0.50064191  0.49924866  1
  Fe  Fe40  1  0.33776337  0.33703635  0.66643392  1
  Ni  Ni41  1  0.49964505  0.49796933  0.83501040  1
  Fe  Fe42  1  0.50183413  0.83304941  0.49921608  1
  Fe  Fe43  1  0.33267589  0.66493291  0.66768559  1
  Cr  Cr44  1  0.50042332  0.83384641  0.83366661  1
  Ni  Ni45  1  0.83227850  0.16772988  0.50149227  1
  Fe  Fe46  1  0.66941405  0.00287563  0.66524595  1
  Cr  Cr47  1  0.83193040  0.16524232  0.83309686  1
  Ni  Ni48  1  0.83113569  0.49980056  0.49789396  1
  Fe  Fe49  1  0.66513894  0.33344023  0.66604636  1
  Ni  Ni50  1  0.83103120  0.49987043  0.83397627  1
  Ni  Ni51  1  0.83375218  0.83445407  0.50332232  1
  Cr  Cr52  1  0.66745418  0.66543572  0.66598875  1
  Fe  Fe53  1  0.83433348  0.83627756  0.83428042  1
" 