8483,Ni36Fe24Cr39_4,-223.235714952427, 167.349842376708,Ni36Fe24Cr39,"# generated using pymatgen
 data_Cr23Fe12Ni19
_symmetry_space_group_name_H-M   'P 1'
_cell_length_a   7.49396800
_cell_length_b   7.49396800
_cell_length_c   10.59807119
_cell_angle_alpha   90.00000000
_cell_angle_beta   90.00000000
_cell_angle_gamma   90.00000000
_symmetry_Int_Tables_number   1
_chemical_formula_structural   Cr23Fe12Ni19
_chemical_formula_sum   'Cr23 Fe12 Ni19'
_cell_volume   595.18297683
_cell_formula_units_Z   1
loop_
 _symmetry_equiv_pos_site_id
 _symmetry_equiv_pos_as_xyz
  1  'x, y, z'
loop_
 _atom_site_type_symbol
 _atom_site_label
 _atom_site_symmetry_multiplicity
 _atom_site_fract_x
 _atom_site_fract_y
 _atom_site_fract_z
 _atom_site_occupancy
  Cr  Cr0  1  0.00187353  0.99783355  0.00031272  1
  Ni  Ni1  1  0.17063493  0.16536101  0.16632298  1
  Ni  Ni2  1  0.00302858  -0.00126821  0.33000080  1
  Cr  Cr3  1  -0.00022304  0.33457279  -0.00035110  1
  Ni  Ni4  1  0.16710869  0.49731238  0.16467599  1
  Cr  Cr5  1  0.00158285  0.32993630  0.33112345  1
  Fe  Fe6  1  0.00044174  0.66302781  -0.00175129  1
  Fe  Fe7  1  0.16688107  0.83310218  0.16462347  1
  Cr  Cr8  1  0.00007792  0.66279320  0.32917824  1
  Ni  Ni9  1  0.33243916  -0.00156533  0.99726878  1
  Ni  Ni10  1  0.49195111  0.16631119  0.16261696  1
  Fe  Fe11  1  0.33137626  0.00084605  0.33055921  1
  Ni  Ni12  1  0.33273866  0.33239458  -0.00048747  1
  Fe  Fe13  1  0.49739632  0.49605154  0.16404366  1
  Fe  Fe14  1  0.33196047  0.32931363  0.33024348  1
  Cr  Cr15  1  0.33146659  0.66435235  0.99737568  1
  Cr  Cr16  1  0.49694887  0.83123582  0.16597268  1
  Fe  Fe17  1  0.33160820  0.66443022  0.32992443  1
  Cr  Cr18  1  0.65975332  -0.00159877  0.99608690  1
  Cr  Cr19  1  0.83061098  0.16508429  0.16377621  1
  Cr  Cr20  1  0.66295515  -0.00137561  0.33384002  1
  Fe  Fe21  1  0.66086274  0.33393240  0.99775184  1
  Ni  Ni22  1  0.83007837  0.50107420  0.16281373  1
  Cr  Cr23  1  0.66339545  0.33107289  0.32946151  1
  Fe  Fe24  1  0.66320857  0.66188278  0.99688370  1
  Cr  Cr25  1  0.83124928  0.82930556  0.16443768  1
  Ni  Ni26  1  0.66093431  0.66445067  0.33025413  1
  Ni  Ni27  1  0.17059930  0.16238337  0.49788024  1
  Ni  Ni28  1  0.00127141  0.99708766  0.66416795  1
  Cr  Cr29  1  0.16918492  0.16395885  0.83085731  1
  Cr  Cr30  1  0.16829144  0.49630443  0.49965042  1
  Cr  Cr31  1  0.00019270  0.33158506  0.66446578  1
  Fe  Fe32  1  0.16684071  0.49792827  0.83211143  1
  Cr  Cr33  1  0.16573242  0.83356580  0.49777497  1
  Fe  Fe34  1  -0.00171822  0.66461389  0.66747711  1
  Ni  Ni35  1  0.16599189  0.83132309  0.83204134  1
  Ni  Ni36  1  0.49238537  0.16573442  0.49997650  1
  Fe  Fe37  1  0.33246754  -0.00014190  0.66615144  1
  Ni  Ni38  1  0.49440928  0.16768561  0.83207319  1
  Cr  Cr39  1  0.49805269  0.49773565  0.49631547  1
  Ni  Ni40  1  0.33408642  0.33174982  0.66534364  1
  Ni  Ni41  1  0.49969896  0.49637395  0.83246679  1
  Fe  Fe42  1  0.49666305  0.83148506  0.49814333  1
  Cr  Cr43  1  0.33301235  0.66539530  0.66725333  1
  Ni  Ni44  1  0.49585719  0.83107606  0.83039518  1
  Cr  Cr45  1  0.83309166  0.16436327  0.49972942  1
  Cr  Cr46  1  0.66116610  0.99816176  0.66473528  1
  Cr  Cr47  1  0.82959991  0.16735005  0.83107645  1
  Cr  Cr48  1  0.82847110  0.50051877  0.50039952  1
  Ni  Ni49  1  0.66046662  0.33329056  0.66737568  1
  Ni  Ni50  1  0.82875036  0.50094533  0.83128787  1
  Cr  Cr51  1  0.83158313  0.82911780  0.49856646  1
  Ni  Ni52  1  0.66155551  0.66420315  0.66664716  1
  Cr  Cr53  1  0.83296471  0.82934404  0.83168690  1
" 