3325,Ni36Fe35Cr27_4,-228.300996684465, 185.799429288133,Ni36Fe35Cr27,"# generated using pymatgen
 data_Cr16(FeNi)19
_symmetry_space_group_name_H-M   'P 1'
_cell_length_a   7.45968448
_cell_length_b   7.45968448
_cell_length_c   10.54958696
_cell_angle_alpha   90.00000000
_cell_angle_beta   90.00000000
_cell_angle_gamma   90.00000000
_symmetry_Int_Tables_number   1
_chemical_formula_structural   Cr16(FeNi)19
_chemical_formula_sum   'Cr16 Fe19 Ni19'
_cell_volume   587.05173119
_cell_formula_units_Z   1
loop_
 _symmetry_equiv_pos_site_id
 _symmetry_equiv_pos_as_xyz
  1  'x, y, z'
loop_
 _atom_site_type_symbol
 _atom_site_label
 _atom_site_symmetry_multiplicity
 _atom_site_fract_x
 _atom_site_fract_y
 _atom_site_fract_z
 _atom_site_occupancy
  Cr  Cr0  1  1.00043770  0.00198621  1.00038844  1
  Fe  Fe1  1  0.16385563  0.16843240  0.16900833  1
  Ni  Ni2  1  0.99666803  0.00157619  0.33354110  1
  Fe  Fe3  1  0.99768499  0.33303454  0.99900924  1
  Cr  Cr4  1  0.16676202  0.50303274  0.17040227  1
  Fe  Fe5  1  1.00029023  0.33291748  0.33374789  1
  Cr  Cr6  1  0.99934784  0.66774685  0.99766424  1
  Cr  Cr7  1  0.16763328  0.83307503  0.16942868  1
  Ni  Ni8  1  0.99894575  0.66815721  0.33520530  1
  Fe  Fe9  1  0.33473330  0.99545617  0.99860522  1
  Cr  Cr10  1  0.50358232  0.16492963  0.16506119  1
  Cr  Cr11  1  0.33629679  0.00236219  0.33265059  1
  Cr  Cr12  1  0.32954854  0.33186033  0.00181783  1
  Cr  Cr13  1  0.50131908  0.50322817  0.16759914  1
  Fe  Fe14  1  0.33362239  0.33498648  0.33634066  1
  Ni  Ni15  1  0.33494616  0.66781057  0.99759175  1
  Fe  Fe16  1  0.50353462  0.83272046  0.16736477  1
  Ni  Ni17  1  0.33563891  0.66538208  0.33774233  1
  Ni  Ni18  1  0.66885996  0.99850749  1.00033300  1
  Ni  Ni19  1  0.83360283  0.16541307  0.16807525  1
  Ni  Ni20  1  0.66942452  0.99937699  0.33591776  1
  Fe  Fe21  1  0.67114304  0.33295074  0.99960217  1
  Cr  Cr22  1  0.83279531  0.50064688  0.16606328  1
  Cr  Cr23  1  0.66481503  0.33234233  0.33697101  1
  Ni  Ni24  1  0.66691221  0.67067366  1.00015794  1
  Fe  Fe25  1  0.83096699  0.83507078  0.16924850  1
  Ni  Ni26  1  0.66672055  0.66985572  0.33428311  1
  Cr  Cr27  1  0.16598872  0.16600324  0.49998261  1
  Fe  Fe28  1  0.99962798  0.99944761  0.66846926  1
  Fe  Fe29  1  0.16638873  0.16682914  0.83104910  1
  Ni  Ni30  1  0.16759442  0.50114402  0.50089655  1
  Fe  Fe31  1  0.00154255  0.33451922  0.66837499  1
  Fe  Fe32  1  0.16679521  0.49958405  0.83101611  1
  Cr  Cr33  1  0.16483920  0.83230153  0.50125429  1
  Ni  Ni34  1  1.00013599  0.66687727  0.66865345  1
  Ni  Ni35  1  0.16771428  0.83322046  0.83162472  1
  Ni  Ni36  1  0.50191780  0.16605319  0.50306479  1
  Ni  Ni37  1  0.33447644  0.00219537  0.66938225  1
  Cr  Cr38  1  0.50322230  0.16635977  0.83376909  1
  Ni  Ni39  1  0.49875921  0.50040713  0.50020915  1
  Ni  Ni40  1  0.33331887  0.33348984  0.66428773  1
  Cr  Cr41  1  0.50195213  0.50015583  0.83424259  1
  Ni  Ni42  1  0.50099729  0.83516200  0.50055001  1
  Fe  Fe43  1  0.33308497  0.66699681  0.66661745  1
  Fe  Fe44  1  0.50066632  0.83517371  0.83403702  1
  Fe  Fe45  1  0.83305757  0.16449445  0.50143667  1
  Fe  Fe46  1  0.66791435  0.00097528  0.66550730  1
  Ni  Ni47  1  0.83390413  0.16792384  0.83249372  1
  Cr  Cr48  1  0.83619656  0.50176337  0.49996027  1
  Fe  Fe49  1  0.66710648  0.33272831  0.66546520  1
  Fe  Fe50  1  0.83474209  0.49930641  0.83320482  1
  Ni  Ni51  1  0.83422822  0.83541751  0.49937179  1
  Cr  Cr52  1  0.66792099  0.66851070  0.66545794  1
  Fe  Fe53  1  0.83246971  0.83607810  0.83245067  1
" 