8753,Ni36Fe41Cr21_19,-230.56465640554, 198.786752566906,Ni36Fe41Cr21,"# generated using pymatgen
 data_Cr13Fe22Ni19
_symmetry_space_group_name_H-M   'P 1'
_cell_length_a   7.44678729
_cell_length_b   7.44678729
_cell_length_c   10.53134758
_cell_angle_alpha   90.00000000
_cell_angle_beta   90.00000000
_cell_angle_gamma   90.00000000
_symmetry_Int_Tables_number   1
_chemical_formula_structural   Cr13Fe22Ni19
_chemical_formula_sum   'Cr13 Fe22 Ni19'
_cell_volume   584.01209878
_cell_formula_units_Z   1
loop_
 _symmetry_equiv_pos_site_id
 _symmetry_equiv_pos_as_xyz
  1  'x, y, z'
loop_
 _atom_site_type_symbol
 _atom_site_label
 _atom_site_symmetry_multiplicity
 _atom_site_fract_x
 _atom_site_fract_y
 _atom_site_fract_z
 _atom_site_occupancy
  Fe  Fe0  1  0.00154093  0.99996604  0.99988949  1
  Fe  Fe1  1  0.17139895  0.17028318  0.16811530  1
  Cr  Cr2  1  1.00101137  1.00124762  0.33571287  1
  Cr  Cr3  1  0.00399781  0.33506503  1.00116422  1
  Fe  Fe4  1  0.16886627  0.49970889  0.16906134  1
  Ni  Ni5  1  0.00494241  0.33647473  0.33388797  1
  Cr  Cr6  1  0.99918578  0.66821195  0.00202156  1
  Cr  Cr7  1  0.17120467  0.83348304  0.16719471  1
  Fe  Fe8  1  0.00282382  0.66650293  0.33467091  1
  Fe  Fe9  1  0.33689228  0.00186496  1.00084283  1
  Ni  Ni10  1  0.50168753  0.16656069  0.16847017  1
  Fe  Fe11  1  0.33755429  1.00120321  0.33568468  1
  Ni  Ni12  1  0.33497200  0.33311445  1.00113499  1
  Cr  Cr13  1  0.50134824  0.50100163  0.16667701  1
  Fe  Fe14  1  0.33415324  0.33363111  0.33514286  1
  Ni  Ni15  1  0.33683335  0.66819587  0.99861253  1
  Ni  Ni16  1  0.50044496  0.83720209  0.16660043  1
  Ni  Ni17  1  0.33381558  0.66784584  0.33764930  1
  Ni  Ni18  1  0.66592381  0.99868720  0.00175692  1
  Cr  Cr19  1  0.83181300  0.16987257  0.16777094  1
  Ni  Ni20  1  0.66487591  1.00021178  0.33553117  1
  Ni  Ni21  1  0.66509342  0.33485010  1.00114343  1
  Ni  Ni22  1  0.83538596  0.49978882  0.16806261  1
  Fe  Fe23  1  0.66706316  0.33301475  0.33357141  1
  Ni  Ni24  1  0.66730568  0.67054635  1.00100420  1
  Fe  Fe25  1  0.83042937  0.83418379  0.16646813  1
  Cr  Cr26  1  0.66775890  0.67134245  0.33278967  1
  Fe  Fe27  1  0.16998844  0.17010478  0.50101895  1
  Cr  Cr28  1  0.00174711  1.00135280  0.66849884  1
  Fe  Fe29  1  0.16970636  0.16910524  0.83494799  1
  Fe  Fe30  1  0.17049389  0.50092091  0.50109408  1
  Ni  Ni31  1  0.00486358  0.33531119  0.66884122  1
  Ni  Ni32  1  0.17131236  0.50169196  0.83337943  1
  Ni  Ni33  1  0.17179710  0.83247975  0.50023997  1
  Cr  Cr34  1  1.00039047  0.66769243  0.66782413  1
  Ni  Ni35  1  0.16980608  0.83324621  0.83606628  1
  Fe  Fe36  1  0.50038926  0.16774031  0.50017824  1
  Cr  Cr37  1  0.33545134  0.00241075  0.66755718  1
  Fe  Fe38  1  0.50012600  0.16885247  0.83649261  1
  Fe  Fe39  1  0.49859917  0.50199859  0.50235987  1
  Ni  Ni40  1  0.33377231  0.33534121  0.66754519  1
  Fe  Fe41  1  0.50086126  0.50221608  0.83533031  1
  Ni  Ni42  1  0.49882556  0.83474908  0.50151171  1
  Fe  Fe43  1  0.33532205  0.66630554  0.66783929  1
  Fe  Fe44  1  0.50239110  0.83301239  0.83592137  1
  Cr  Cr45  1  0.83276380  0.16945993  0.50240416  1
  Fe  Fe46  1  0.66683972  0.99974475  0.66785433  1
  Cr  Cr47  1  0.83285024  0.16873940  0.83390652  1
  Cr  Cr48  1  0.83515835  0.49866356  0.50213968  1
  Fe  Fe49  1  0.66613664  0.33580103  0.66913138  1
  Fe  Fe50  1  0.83318721  0.50316591  0.83421731  1
  Fe  Fe51  1  0.83262218  0.83484876  0.50199192  1
  Ni  Ni52  1  0.66650839  0.66931002  0.66933103  1
  Ni  Ni53  1  0.83322568  0.83513225  0.83520370  1
" 