5101,Ni36Fe41Cr21_17,-230.328641858492, 195.071995161471,Ni36Fe41Cr21,"# generated using pymatgen
 data_Cr13Fe22Ni19
_symmetry_space_group_name_H-M   'P 1'
_cell_length_a   7.44806545
_cell_length_b   7.44806545
_cell_length_c   10.53315517
_cell_angle_alpha   90.00000000
_cell_angle_beta   90.00000000
_cell_angle_gamma   90.00000000
_symmetry_Int_Tables_number   1
_chemical_formula_structural   Cr13Fe22Ni19
_chemical_formula_sum   'Cr13 Fe22 Ni19'
_cell_volume   584.31286857
_cell_formula_units_Z   1
loop_
 _symmetry_equiv_pos_site_id
 _symmetry_equiv_pos_as_xyz
  1  'x, y, z'
loop_
 _atom_site_type_symbol
 _atom_site_label
 _atom_site_symmetry_multiplicity
 _atom_site_fract_x
 _atom_site_fract_y
 _atom_site_fract_z
 _atom_site_occupancy
  Fe  Fe0  1  0.00141720  0.00202343  0.00301147  1
  Fe  Fe1  1  0.16538869  0.16721430  0.16680761  1
  Ni  Ni2  1  0.99988705  1.00060720  0.33459354  1
  Ni  Ni3  1  1.00085685  0.33380770  0.00202114  1
  Cr  Cr4  1  0.16918915  0.50238459  0.16507381  1
  Fe  Fe5  1  0.00221261  0.33260371  0.33581045  1
  Fe  Fe6  1  1.00081052  0.66918981  0.00209802  1
  Ni  Ni7  1  0.16527640  0.83412845  0.16724154  1
  Cr  Cr8  1  0.00221847  0.66709445  0.33552464  1
  Cr  Cr9  1  0.33566950  1.00050060  0.00447664  1
  Ni  Ni10  1  0.50327941  0.17047142  0.16647596  1
  Cr  Cr11  1  0.33400347  0.99866037  0.33196793  1
  Ni  Ni12  1  0.33357608  0.33474498  0.99887414  1
  Fe  Fe13  1  0.50160404  0.50370879  0.16591218  1
  Cr  Cr14  1  0.33177767  0.33490093  0.33501700  1
  Ni  Ni15  1  0.33599014  0.66739879  1.00076503  1
  Fe  Fe16  1  0.50224625  0.83206172  0.16840878  1
  Ni  Ni17  1  0.33403678  0.66967043  0.33483073  1
  Cr  Cr18  1  0.66803455  1.00058038  1.00010094  1
  Fe  Fe19  1  0.83728816  0.16592762  0.16828078  1
  Ni  Ni20  1  0.66954425  0.99991232  0.33413866  1
  Fe  Fe21  1  0.66552275  0.33572147  0.00227385  1
  Fe  Fe22  1  0.83420407  0.50250984  0.16503156  1
  Cr  Cr23  1  0.67145035  0.33477112  0.33217736  1
  Ni  Ni24  1  0.66765161  0.66866317  0.00226539  1
  Ni  Ni25  1  0.83529026  0.83507913  0.16715879  1
  Fe  Fe26  1  0.66726816  0.67165243  0.33248110  1
  Ni  Ni27  1  0.16547210  0.16514123  0.50065120  1
  Fe  Fe28  1  1.00100682  1.00090765  0.66633182  1
  Ni  Ni29  1  0.16770775  0.16715460  0.83493904  1
  Ni  Ni30  1  0.16890710  0.50378827  0.50349335  1
  Cr  Cr31  1  0.00304285  0.33626763  0.66473909  1
  Fe  Fe32  1  0.16927235  0.50007285  0.83522160  1
  Ni  Ni33  1  0.16692636  0.83477051  0.50210371  1
  Ni  Ni34  1  0.00169550  0.66876084  0.66791364  1
  Cr  Cr35  1  0.16547527  0.83482714  0.83577517  1
  Cr  Cr36  1  0.50202717  0.16636210  0.50318550  1
  Ni  Ni37  1  0.33478933  1.00033819  0.66772776  1
  Fe  Fe38  1  0.49882333  0.16801080  0.83421082  1
  Cr  Cr39  1  0.50188260  0.50392952  0.50109038  1
  Fe  Fe40  1  0.33331381  0.33386467  0.66988542  1
  Ni  Ni41  1  0.50038756  0.50148608  0.83664740  1
  Fe  Fe42  1  0.50059817  0.83541056  0.50196827  1
  Fe  Fe43  1  0.33427234  0.66874884  0.66839195  1
  Fe  Fe44  1  0.50126063  0.83232819  0.83351498  1
  Ni  Ni45  1  0.83532797  0.16442025  0.50008087  1
  Ni  Ni46  1  0.66772275  0.99888086  0.66882796  1
  Fe  Fe47  1  0.83728960  0.16650808  0.83430445  1
  Fe  Fe48  1  0.83626546  0.50181734  0.50168975  1
  Cr  Cr49  1  0.66928186  0.33337917  0.67033687  1
  Cr  Cr50  1  0.83399079  0.50358467  0.83749544  1
  Fe  Fe51  1  0.83470010  0.83633272  0.50177555  1
  Fe  Fe52  1  0.66821155  0.67058418  0.66955584  1
  Fe  Fe53  1  0.83346670  0.83514618  0.83413538  1
" 