8620,Ni36Fe60Cr2_9,-236.469197706454, 207.391551665289,Ni36Fe60Cr2,"# generated using pymatgen
 data_Cr3Fe32Ni19
_symmetry_space_group_name_H-M   'P 1'
_cell_length_a   7.41109377
_cell_length_b   7.41109377
_cell_length_c   10.48086932
_cell_angle_alpha   90.00000000
_cell_angle_beta   90.00000000
_cell_angle_gamma   90.00000000
_symmetry_Int_Tables_number   1
_chemical_formula_structural   Cr3Fe32Ni19
_chemical_formula_sum   'Cr3 Fe32 Ni19'
_cell_volume   575.65452517
_cell_formula_units_Z   1
loop_
 _symmetry_equiv_pos_site_id
 _symmetry_equiv_pos_as_xyz
  1  'x, y, z'
loop_
 _atom_site_type_symbol
 _atom_site_label
 _atom_site_symmetry_multiplicity
 _atom_site_fract_x
 _atom_site_fract_y
 _atom_site_fract_z
 _atom_site_occupancy
  Fe  Fe0  1  0.00432712  1.00306597  1.00324546  1
  Fe  Fe1  1  0.17099848  0.16905055  0.16987035  1
  Ni  Ni2  1  0.00392914  1.00189548  0.33746942  1
  Fe  Fe3  1  0.00463973  0.33772052  1.00296162  1
  Fe  Fe4  1  0.16941499  0.50428819  0.16893647  1
  Ni  Ni5  1  0.00506434  0.33798346  0.33811469  1
  Fe  Fe6  1  0.00404707  0.67053377  0.00409375  1
  Ni  Ni7  1  0.16998703  0.83543377  0.17003062  1
  Fe  Fe8  1  1.00356330  0.67120986  0.33664095  1
  Fe  Fe9  1  0.33816973  0.00429760  1.00333544  1
  Ni  Ni10  1  0.50328143  0.16959847  0.16881322  1
  Fe  Fe11  1  0.33674929  1.00277367  0.33757190  1
  Ni  Ni12  1  0.33736494  0.33772645  1.00342068  1
  Fe  Fe13  1  0.50367509  0.50565851  0.16911831  1
  Cr  Cr14  1  0.33579807  0.33690627  0.33799803  1
  Fe  Fe15  1  0.33722520  0.67053299  1.00356495  1
  Fe  Fe16  1  0.50458615  0.83809769  0.16986927  1
  Fe  Fe17  1  0.33645479  0.67253651  0.33741121  1
  Ni  Ni18  1  0.67001934  1.00246270  1.00220615  1
  Cr  Cr19  1  0.83615236  0.16945517  0.17028598  1
  Ni  Ni20  1  0.67061302  1.00046892  0.33897976  1
  Fe  Fe21  1  0.66882483  0.33677787  1.00238905  1
  Fe  Fe22  1  0.83823370  0.50665423  0.16986788  1
  Cr  Cr23  1  0.67060323  0.33706180  0.33672177  1
  Fe  Fe24  1  0.67005251  0.67084411  0.00390203  1
  Ni  Ni25  1  0.83839087  0.83582739  0.17099228  1
  Fe  Fe26  1  0.67130910  0.67219171  0.33701141  1
  Fe  Fe27  1  0.16954351  0.16918955  0.50448126  1
  Ni  Ni28  1  0.00450449  1.00287230  0.67107537  1
  Fe  Fe29  1  0.17106528  0.17033263  0.83697915  1
  Fe  Fe30  1  0.16991429  0.50382885  0.50477624  1
  Fe  Fe31  1  1.00342675  0.33605684  0.67026932  1
  Ni  Ni32  1  0.17036087  0.50496445  0.83666869  1
  Ni  Ni33  1  0.17013876  0.83592680  0.50383043  1
  Fe  Fe34  1  0.00437218  0.67090642  0.67058747  1
  Fe  Fe35  1  0.17090545  0.83801780  0.83643645  1
  Ni  Ni36  1  0.50575171  0.16994115  0.50551263  1
  Ni  Ni37  1  0.33624837  1.00344849  0.67053327  1
  Ni  Ni38  1  0.50565489  0.17004880  0.83699836  1
  Ni  Ni39  1  0.50332099  0.50448225  0.50609989  1
  Fe  Fe40  1  0.33763635  0.33628751  0.67077842  1
  Fe  Fe41  1  0.50379434  0.50296585  0.83661547  1
  Fe  Fe42  1  0.50371995  0.83777476  0.50428618  1
  Fe  Fe43  1  0.33696062  0.67094961  0.67034809  1
  Ni  Ni44  1  0.50321849  0.83767297  0.83706903  1
  Ni  Ni45  1  0.83694282  0.16999823  0.50401815  1
  Fe  Fe46  1  0.67021988  0.00503278  0.67086552  1
  Ni  Ni47  1  0.83590379  0.17053533  0.83722512  1
  Fe  Fe48  1  0.83732998  0.50362270  0.50455163  1
  Ni  Ni49  1  0.66964457  0.33794878  0.67098968  1
  Fe  Fe50  1  0.83643112  0.50312065  0.83690724  1
  Fe  Fe51  1  0.83680131  0.83814590  0.50286554  1
  Fe  Fe52  1  0.66998779  0.67080314  0.67041909  1
  Fe  Fe53  1  0.83657688  0.83792216  0.83783995  1
" 