8521,Ni36Fe2Cr60_2,-213.959192074871, 139.79342099595,Ni36Fe2Cr60,"# generated using pymatgen
 data_Cr34FeNi19
_symmetry_space_group_name_H-M   'P 1'
_cell_length_a   7.54576871
_cell_length_b   7.54576871
_cell_length_c   10.67132845
_cell_angle_alpha   90.00000000
_cell_angle_beta   90.00000000
_cell_angle_gamma   90.00000000
_symmetry_Int_Tables_number   1
_chemical_formula_structural   Cr34FeNi19
_chemical_formula_sum   'Cr34 Fe1 Ni19'
_cell_volume   607.61077410
_cell_formula_units_Z   1
loop_
 _symmetry_equiv_pos_site_id
 _symmetry_equiv_pos_as_xyz
  1  'x, y, z'
loop_
 _atom_site_type_symbol
 _atom_site_label
 _atom_site_symmetry_multiplicity
 _atom_site_fract_x
 _atom_site_fract_y
 _atom_site_fract_z
 _atom_site_occupancy
  Cr  Cr0  1  -0.00447325  0.99254922  0.99295871  1
  Cr  Cr1  1  0.16257409  0.16090910  0.16313754  1
  Cr  Cr2  1  -0.00307568  0.99220510  0.33005192  1
  Cr  Cr3  1  -0.00322397  0.32803566  0.99394060  1
  Cr  Cr4  1  0.16182722  0.49546642  0.15990285  1
  Ni  Ni5  1  -0.00337028  0.32949145  0.33186853  1
  Ni  Ni6  1  -0.00289722  0.66368077  0.99461135  1
  Cr  Cr7  1  0.16280918  0.82802474  0.15910618  1
  Cr  Cr8  1  0.99433534  0.66214323  0.32839289  1
  Ni  Ni9  1  0.32848944  -0.00473859  0.99219784  1
  Cr  Cr10  1  0.49301022  0.15931235  0.16124224  1
  Ni  Ni11  1  0.32649568  0.99348033  0.33158266  1
  Ni  Ni12  1  0.32765331  0.32592438  0.99287580  1
  Cr  Cr13  1  0.49078449  0.49500195  0.15906827  1
  Cr  Cr14  1  0.32538322  0.32868495  0.32980937  1
  Ni  Ni15  1  0.32564359  0.66286502  0.99352926  1
  Cr  Cr16  1  0.49200648  0.83024056  0.16079371  1
  Cr  Cr17  1  0.32751422  0.66366520  0.33074066  1
  Ni  Ni18  1  0.65921229  0.99419217  -0.00490071  1
  Cr  Cr19  1  0.82872636  0.15954797  0.16273290  1
  Cr  Cr20  1  0.66139373  0.99013827  0.32803714  1
  Cr  Cr21  1  0.65940072  0.32743043  0.99360501  1
  Cr  Cr22  1  0.83170808  0.49479020  0.16164990  1
  Cr  Cr23  1  0.66261259  0.33164880  0.32820932  1
  Cr  Cr24  1  0.66264630  0.66302215  -0.00270204  1
  Ni  Ni25  1  0.82870750  0.82872907  0.15877192  1
  Cr  Cr26  1  0.66253436  0.66267297  0.32867860  1
  Ni  Ni27  1  0.16143138  0.16107329  0.49331320  1
  Cr  Cr28  1  -0.00159790  0.99229607  0.66119830  1
  Fe  Fe29  1  0.16422740  0.15968821  0.82917217  1
  Ni  Ni30  1  0.15842899  0.49640211  0.49568524  1
  Cr  Cr31  1  -0.00266702  0.32834715  0.65974883  1
  Cr  Cr32  1  0.16165609  0.49960939  0.82921800  1
  Ni  Ni33  1  0.16213330  0.82688575  0.49597701  1
  Ni  Ni34  1  -0.00319013  0.66278821  0.65895943  1
  Ni  Ni35  1  0.16294206  0.82630713  0.82871224  1
  Cr  Cr36  1  0.49395928  0.15861181  0.49327127  1
  Cr  Cr37  1  0.32593682  0.99415173  0.66088965  1
  Ni  Ni38  1  0.49183932  0.15962314  0.83187450  1
  Cr  Cr39  1  0.49409292  0.49752573  0.49725755  1
  Cr  Cr40  1  0.32653025  0.32722110  0.66275093  1
  Cr  Cr41  1  0.49253616  0.49669616  0.82778068  1
  Ni  Ni42  1  0.49320804  0.82725114  0.49592859  1
  Ni  Ni43  1  0.32532731  0.66327060  0.65952221  1
  Cr  Cr44  1  0.49236358  0.82793462  0.82759053  1
  Cr  Cr45  1  0.82977798  0.16189676  0.49369008  1
  Cr  Cr46  1  0.66040948  0.99284165  0.66134281  1
  Cr  Cr47  1  0.82622658  0.15984352  0.82827644  1
  Ni  Ni48  1  0.83192941  0.49802539  0.49609705  1
  Cr  Cr49  1  0.66042714  0.32958122  0.66250721  1
  Cr  Cr50  1  0.83034778  0.49758809  0.82538121  1
  Ni  Ni51  1  0.82894416  0.82452118  0.49676720  1
  Ni  Ni52  1  0.66242710  0.66287272  0.65780063  1
  Cr  Cr53  1  0.83024748  0.82635524  0.82771756  1
" 