3973,Ni36Fe3Cr60_4,-214.147111801367, 143.259974735058,Ni36Fe3Cr60,"# generated using pymatgen
 data_Cr34FeNi19
_symmetry_space_group_name_H-M   'P 1'
_cell_length_a   7.54681407
_cell_length_b   7.54681407
_cell_length_c   10.67280681
_cell_angle_alpha   90.00000000
_cell_angle_beta   90.00000000
_cell_angle_gamma   90.00000000
_symmetry_Int_Tables_number   1
_chemical_formula_structural   Cr34FeNi19
_chemical_formula_sum   'Cr34 Fe1 Ni19'
_cell_volume   607.86333664
_cell_formula_units_Z   1
loop_
 _symmetry_equiv_pos_site_id
 _symmetry_equiv_pos_as_xyz
  1  'x, y, z'
loop_
 _atom_site_type_symbol
 _atom_site_label
 _atom_site_symmetry_multiplicity
 _atom_site_fract_x
 _atom_site_fract_y
 _atom_site_fract_z
 _atom_site_occupancy
  Ni  Ni0  1  -0.00516013  -0.00211056  0.99452766  1
  Cr  Cr1  1  0.16194683  0.16163945  0.16105042  1
  Fe  Fe2  1  -0.00434027  -0.00216470  0.32734895  1
  Ni  Ni3  1  -0.00442532  0.32437615  -0.00439236  1
  Cr  Cr4  1  0.16203352  0.49264701  0.16073309  1
  Cr  Cr5  1  0.99312014  0.32853916  0.32774047  1
  Cr  Cr6  1  -0.00472647  0.65952815  0.99430623  1
  Cr  Cr7  1  0.16018971  0.82996764  0.16441133  1
  Ni  Ni8  1  0.99273384  0.65962250  0.32826846  1
  Cr  Cr9  1  0.32929676  0.99444342  0.99351847  1
  Ni  Ni10  1  0.49437187  0.15956609  0.16173068  1
  Ni  Ni11  1  0.32865217  -0.00085260  0.32834197  1
  Ni  Ni12  1  0.32626365  0.32437226  -0.00520312  1
  Cr  Cr13  1  0.49157425  0.49153582  0.16077406  1
  Ni  Ni14  1  0.32817939  0.32174301  0.32900824  1
  Cr  Cr15  1  0.32874650  0.66443838  0.99296946  1
  Ni  Ni16  1  0.49498605  0.83256324  0.16095911  1
  Cr  Cr17  1  0.32858729  0.66348709  0.32593510  1
  Ni  Ni18  1  0.66088949  -0.00447214  -0.00311320  1
  Ni  Ni19  1  0.82789444  0.16097102  0.15882367  1
  Cr  Cr20  1  0.65757296  -0.00240884  0.32581240  1
  Cr  Cr21  1  0.66356511  0.32612421  -0.00091517  1
  Ni  Ni22  1  0.83030503  0.49330586  0.16173305  1
  Cr  Cr23  1  0.66207082  0.32658735  0.32742007  1
  Cr  Cr24  1  0.65978631  0.66328721  -0.00350180  1
  Cr  Cr25  1  0.82943645  0.83136973  0.16184998  1
  Cr  Cr26  1  0.66312043  0.65930063  0.32641726  1
  Ni  Ni27  1  0.16519935  0.16162950  0.49306288  1
  Cr  Cr28  1  -0.00070126  -0.00354297  0.66215185  1
  Ni  Ni29  1  0.16191869  0.16122226  0.82973147  1
  Cr  Cr30  1  0.16346891  0.49337907  0.49299420  1
  Cr  Cr31  1  -0.00447079  0.32667079  0.66111865  1
  Cr  Cr32  1  0.16373554  0.49050576  0.83023013  1
  Cr  Cr33  1  0.15977822  0.83046169  0.49020700  1
  Cr  Cr34  1  -0.00414202  0.66057142  0.66093360  1
  Ni  Ni35  1  0.16125451  0.83140424  0.82932554  1
  Ni  Ni36  1  0.49101472  0.16342165  0.49443124  1
  Cr  Cr37  1  0.32666231  -0.00386736  0.66174414  1
  Cr  Cr38  1  0.49513289  0.16397111  0.82766060  1
  Cr  Cr39  1  0.49386649  0.49067646  0.49700997  1
  Ni  Ni40  1  0.32761654  0.32406645  0.66013620  1
  Cr  Cr41  1  0.49374695  0.49179697  0.82632960  1
  Cr  Cr42  1  0.49473828  0.83019028  0.49371026  1
  Cr  Cr43  1  0.32689182  0.66465198  0.66527086  1
  Ni  Ni44  1  0.49441599  0.82977777  0.82957692  1
  Cr  Cr45  1  0.82690676  0.16002610  0.49594291  1
  Cr  Cr46  1  0.65818543  -0.00384393  0.66195682  1
  Cr  Cr47  1  0.82859991  0.16051233  0.83091039  1
  Ni  Ni48  1  0.82813420  0.49404005  0.49460335  1
  Ni  Ni49  1  0.66016008  0.32722843  0.65832032  1
  Cr  Cr50  1  0.82667784  0.49216596  0.82752439  1
  Cr  Cr51  1  0.82971540  0.82809038  0.49305449  1
  Cr  Cr52  1  0.66160417  0.66045562  0.66108568  1
  Cr  Cr53  1  0.82784026  0.83155349  0.82904409  1
" 