7779,Ni36Fe35Cr27_15,-228.324289311179, 192.748828074406,Ni36Fe35Cr27,"# generated using pymatgen
 data_Cr16(FeNi)19
_symmetry_space_group_name_H-M   'P 1'
_cell_length_a   7.45439167
_cell_length_b   7.45439167
_cell_length_c   10.54210180
_cell_angle_alpha   90.00000000
_cell_angle_beta   90.00000000
_cell_angle_gamma   90.00000000
_symmetry_Int_Tables_number   1
_chemical_formula_structural   Cr16(FeNi)19
_chemical_formula_sum   'Cr16 Fe19 Ni19'
_cell_volume   585.80303985
_cell_formula_units_Z   1
loop_
 _symmetry_equiv_pos_site_id
 _symmetry_equiv_pos_as_xyz
  1  'x, y, z'
loop_
 _atom_site_type_symbol
 _atom_site_label
 _atom_site_symmetry_multiplicity
 _atom_site_fract_x
 _atom_site_fract_y
 _atom_site_fract_z
 _atom_site_occupancy
  Fe  Fe0  1  0.99898102  0.00325515  0.00114169  1
  Fe  Fe1  1  0.16769988  0.16936335  0.16811598  1
  Cr  Cr2  1  0.99819107  0.00273208  0.33296383  1
  Fe  Fe3  1  0.99990438  0.33242339  0.99943293  1
  Ni  Ni4  1  0.16860587  0.49989646  0.16930296  1
  Fe  Fe5  1  0.00321974  0.33383889  0.33362757  1
  Cr  Cr6  1  1.00003540  0.66587275  0.99971099  1
  Cr  Cr7  1  0.16992807  0.83450163  0.16733725  1
  Fe  Fe8  1  0.00233626  0.66554131  0.33352769  1
  Ni  Ni9  1  0.33618503  0.00111618  0.00150102  1
  Fe  Fe10  1  0.50050808  0.16586363  0.16807409  1
  Ni  Ni11  1  0.33644857  0.00278912  0.33239810  1
  Cr  Cr12  1  0.33214259  0.33411783  0.00097634  1
  Fe  Fe13  1  0.49897589  0.50074955  0.16575557  1
  Ni  Ni14  1  0.33153202  0.33458350  0.33366971  1
  Ni  Ni15  1  0.33621658  0.66787405  0.00204207  1
  Fe  Fe16  1  0.50239752  0.83593473  0.16605051  1
  Cr  Cr17  1  0.33419146  0.66550470  0.33473108  1
  Ni  Ni18  1  0.66790499  1.00038384  0.00140402  1
  Ni  Ni19  1  0.83266889  0.16670062  0.16697895  1
  Ni  Ni20  1  0.66728328  0.00119681  0.33346705  1
  Fe  Fe21  1  0.66888034  0.33263898  1.00022366  1
  Cr  Cr22  1  0.83443565  0.49918964  0.16600513  1
  Cr  Cr23  1  0.66708345  0.33123462  0.33364029  1
  Ni  Ni24  1  0.66662341  0.66985487  1.00069481  1
  Fe  Fe25  1  0.83188764  0.83641870  0.16681154  1
  Cr  Cr26  1  0.66676801  0.67047026  0.33404336  1
  Cr  Cr27  1  0.16775968  0.16838570  0.50117506  1
  Fe  Fe28  1  0.99865706  0.00265533  0.66861904  1
  Fe  Fe29  1  0.16633868  0.16907965  0.83297514  1
  Fe  Fe30  1  0.16714408  0.49923727  0.50094546  1
  Ni  Ni31  1  0.99965629  0.33436683  0.66884219  1
  Ni  Ni32  1  0.16492768  0.50001409  0.83308367  1
  Cr  Cr33  1  0.16923836  0.83367981  0.50112540  1
  Ni  Ni34  1  0.99896263  0.66472039  0.66806016  1
  Cr  Cr35  1  0.16891018  0.83514771  0.83408248  1
  Cr  Cr36  1  0.50189773  0.16621573  0.50156091  1
  Ni  Ni37  1  0.33546127  0.00213389  0.66864842  1
  Fe  Fe38  1  0.50174531  0.16578351  0.83336693  1
  Fe  Fe39  1  0.50027182  0.50078435  0.50255071  1
  Fe  Fe40  1  0.33316295  0.33439105  0.66804665  1
  Cr  Cr41  1  0.50341296  0.50112627  0.83465988  1
  Ni  Ni42  1  0.50043770  0.83543617  0.50130268  1
  Cr  Cr43  1  0.33478641  0.66727174  0.66633142  1
  Fe  Fe44  1  0.50326560  0.83571367  0.83504303  1
  Ni  Ni45  1  0.83299500  0.16872996  0.50181086  1
  Fe  Fe46  1  0.66813382  0.00101587  0.66838893  1
  Ni  Ni47  1  0.83351280  0.16870973  0.83375649  1
  Cr  Cr48  1  0.83518933  0.49887177  0.50252182  1
  Ni  Ni49  1  0.67038581  0.33342982  0.66837307  1
  Ni  Ni50  1  0.83445262  0.49889405  0.83347005  1
  Cr  Cr51  1  0.83301410  0.83496692  0.50188999  1
  Ni  Ni52  1  0.66906445  0.66767656  0.66814732  1
  Fe  Fe53  1  0.83202075  0.83335568  0.83343419  1
" 