5344,Ni36Fe2Cr60_5,-214.11321021495, 143.709351456784,Ni36Fe2Cr60,"# generated using pymatgen
 data_Cr34FeNi19
_symmetry_space_group_name_H-M   'P 1'
_cell_length_a   7.54500595
_cell_length_b   7.54500595
_cell_length_c   10.67024974
_cell_angle_alpha   90.00000000
_cell_angle_beta   90.00000000
_cell_angle_gamma   90.00000000
_symmetry_Int_Tables_number   1
_chemical_formula_structural   Cr34FeNi19
_chemical_formula_sum   'Cr34 Fe1 Ni19'
_cell_volume   607.42653158
_cell_formula_units_Z   1
loop_
 _symmetry_equiv_pos_site_id
 _symmetry_equiv_pos_as_xyz
  1  'x, y, z'
loop_
 _atom_site_type_symbol
 _atom_site_label
 _atom_site_symmetry_multiplicity
 _atom_site_fract_x
 _atom_site_fract_y
 _atom_site_fract_z
 _atom_site_occupancy
  Cr  Cr0  1  0.99219146  0.99256032  0.99458340  1
  Cr  Cr1  1  0.16415797  0.16044195  0.16421816  1
  Cr  Cr2  1  0.99426016  0.99378219  0.32859758  1
  Cr  Cr3  1  -0.00410347  0.32716282  0.99447311  1
  Cr  Cr4  1  0.16131530  0.49615151  0.16329898  1
  Ni  Ni5  1  -0.00379209  0.32912130  0.32974495  1
  Ni  Ni6  1  0.99312507  0.66594253  0.99255373  1
  Cr  Cr7  1  0.16259094  0.82753352  0.16051779  1
  Cr  Cr8  1  0.99442793  0.66445572  0.33233870  1
  Cr  Cr9  1  0.32857459  0.99390332  0.99206463  1
  Cr  Cr10  1  0.49337951  0.16023499  0.16562301  1
  Ni  Ni11  1  0.32939612  -0.00443215  0.33305832  1
  Cr  Cr12  1  0.33045881  0.33104396  0.99363928  1
  Ni  Ni13  1  0.49504458  0.49262068  0.16446295  1
  Ni  Ni14  1  0.32952256  0.32755268  0.32973949  1
  Cr  Cr15  1  0.33079905  0.65961663  0.99207008  1
  Cr  Cr16  1  0.49267052  0.82856269  0.16301717  1
  Cr  Cr17  1  0.32944396  0.66124328  0.33143657  1
  Cr  Cr18  1  0.66362342  0.99212910  0.99426900  1
  Cr  Cr19  1  0.82718996  0.16294842  0.16315506  1
  Cr  Cr20  1  0.66255692  0.99229288  0.32998709  1
  Cr  Cr21  1  0.65807544  0.33003838  0.99403207  1
  Cr  Cr22  1  0.82851682  0.49602650  0.16282515  1
  Ni  Ni23  1  0.65868274  0.32752931  0.32855907  1
  Cr  Cr24  1  0.66030669  0.66264485  -0.00368868  1
  Ni  Ni25  1  0.82966666  0.82585424  0.16086032  1
  Cr  Cr26  1  0.66081306  0.66329622  0.32732237  1
  Cr  Cr27  1  0.16573218  0.16042446  0.49260483  1
  Cr  Cr28  1  -0.00500955  0.99184576  0.66121973  1
  Cr  Cr29  1  0.16328809  0.15668641  0.82805890  1
  Ni  Ni30  1  0.16018854  0.49761735  0.49346528  1
  Cr  Cr31  1  -0.00277562  0.32946572  0.66017996  1
  Cr  Cr32  1  0.15890932  0.49966991  0.82715462  1
  Ni  Ni33  1  0.16457768  0.82771040  0.49671950  1
  Ni  Ni34  1  -0.00412187  0.66630211  0.65982191  1
  Ni  Ni35  1  0.16119817  0.82640276  0.82676161  1
  Ni  Ni36  1  0.49536457  0.15791389  0.49507673  1
  Ni  Ni37  1  0.33096438  0.99074483  0.66000495  1
  Cr  Cr38  1  0.49592367  0.15804856  0.82328300  1
  Cr  Cr39  1  0.49664896  0.49279026  0.49373025  1
  Cr  Cr40  1  0.32922103  0.32880477  0.66133391  1
  Ni  Ni41  1  0.49711621  0.49738462  0.82658796  1
  Ni  Ni42  1  0.49223933  0.83347935  0.49611744  1
  Cr  Cr43  1  0.32727385  0.66216259  0.66076747  1
  Ni  Ni44  1  0.49490246  0.82763410  0.82566999  1
  Cr  Cr45  1  0.82279250  0.16420039  0.49621924  1
  Ni  Ni46  1  0.65854555  0.99263184  0.66038938  1
  Cr  Cr47  1  0.82543796  0.16105384  0.82503095  1
  Cr  Cr48  1  0.82903676  0.49494417  0.49644546  1
  Ni  Ni49  1  0.65782794  0.32620775  0.66134633  1
  Cr  Cr50  1  0.82749416  0.49717302  0.82551650  1
  Fe  Fe51  1  0.82701131  0.82879027  0.49757192  1
  Cr  Cr52  1  0.65998599  0.66438474  0.66114773  1
  Ni  Ni53  1  0.82835579  0.82629237  0.82603917  1
" 