6808,Ni36Fe35Cr27_0,-228.349745309857, 191.954292003139,Ni36Fe35Cr27,"# generated using pymatgen
 data_Cr16(FeNi)19
_symmetry_space_group_name_H-M   'P 1'
_cell_length_a   7.45615423
_cell_length_b   7.45615423
_cell_length_c   10.54459443
_cell_angle_alpha   90.00000000
_cell_angle_beta   90.00000000
_cell_angle_gamma   90.00000000
_symmetry_Int_Tables_number   1
_chemical_formula_structural   Cr16(FeNi)19
_chemical_formula_sum   'Cr16 Fe19 Ni19'
_cell_volume   586.21866970
_cell_formula_units_Z   1
loop_
 _symmetry_equiv_pos_site_id
 _symmetry_equiv_pos_as_xyz
  1  'x, y, z'
loop_
 _atom_site_type_symbol
 _atom_site_label
 _atom_site_symmetry_multiplicity
 _atom_site_fract_x
 _atom_site_fract_y
 _atom_site_fract_z
 _atom_site_occupancy
  Ni  Ni0  1  0.00300173  0.00159198  1.00048662  1
  Ni  Ni1  1  0.16800973  0.16697868  0.16657200  1
  Cr  Cr2  1  0.00328044  1.00058807  0.33348278  1
  Fe  Fe3  1  1.00065198  0.33312192  0.00088727  1
  Ni  Ni4  1  0.16826040  0.50049824  0.16852448  1
  Cr  Cr5  1  0.00145255  0.33530549  0.33346890  1
  Cr  Cr6  1  0.00149814  0.66781432  0.00073100  1
  Ni  Ni7  1  0.16744768  0.83471415  0.16757056  1
  Fe  Fe8  1  0.00406428  0.66629797  0.33453966  1
  Fe  Fe9  1  0.33109649  1.00031504  0.00091020  1
  Ni  Ni10  1  0.49955690  0.16984589  0.16935038  1
  Fe  Fe11  1  0.33335277  0.00158784  0.33492277  1
  Cr  Cr12  1  0.33319687  0.33511835  0.99961858  1
  Ni  Ni13  1  0.50035913  0.49868278  0.16766511  1
  Fe  Fe14  1  0.33487607  0.33336160  0.33283327  1
  Fe  Fe15  1  0.33396577  0.66725732  1.00067000  1
  Cr  Cr16  1  0.49851432  0.83350941  0.16654500  1
  Fe  Fe17  1  0.33061969  0.66724108  0.33394408  1
  Cr  Cr18  1  0.66873739  1.00050021  0.00085475  1
  Fe  Fe19  1  0.83534470  0.16924353  0.16661833  1
  Cr  Cr20  1  0.66529450  0.00350605  0.33426931  1
  Cr  Cr21  1  0.66728333  0.33608523  0.00228113  1
  Fe  Fe22  1  0.83399232  0.49944404  0.16682412  1
  Fe  Fe23  1  0.66616574  0.33292160  0.33357638  1
  Ni  Ni24  1  0.66656692  0.66533267  0.99966968  1
  Cr  Cr25  1  0.83634736  0.83383308  0.16551681  1
  Cr  Cr26  1  0.66675568  0.66553806  0.33327926  1
  Fe  Fe27  1  0.16914283  0.16561151  0.50077575  1
  Ni  Ni28  1  0.00133163  0.99882907  0.66821096  1
  Fe  Fe29  1  0.16618524  0.16505324  0.83497225  1
  Ni  Ni30  1  0.16593290  0.50251166  0.49912787  1
  Cr  Cr31  1  1.00002125  0.33496551  0.66834643  1
  Ni  Ni32  1  0.16645974  0.50087190  0.83453900  1
  Ni  Ni33  1  0.16694873  0.83407004  0.50049184  1
  Ni  Ni34  1  1.00000077  0.66895845  0.66669802  1
  Ni  Ni35  1  0.16468912  0.83606648  0.83412831  1
  Ni  Ni36  1  0.50128175  0.16678873  0.50082780  1
  Ni  Ni37  1  0.33346656  0.00096945  0.66592305  1
  Fe  Fe38  1  0.50070752  0.16800860  0.83216041  1
  Cr  Cr39  1  0.50093155  0.49817296  0.50058093  1
  Cr  Cr40  1  0.33491541  0.33296967  0.66844488  1
  Ni  Ni41  1  0.50284452  0.49987355  0.83445458  1
  Fe  Fe42  1  0.49764974  0.83625605  0.50145802  1
  Cr  Cr43  1  0.33209501  0.66827376  0.66813025  1
  Cr  Cr44  1  0.50139138  0.83367858  0.83389127  1
  Fe  Fe45  1  0.83305140  0.16881528  0.50236989  1
  Fe  Fe46  1  0.66765333  0.00230971  0.66718094  1
  Fe  Fe47  1  0.83530189  0.16688374  0.83320541  1
  Fe  Fe48  1  0.83516546  0.50008896  0.50223622  1
  Ni  Ni49  1  0.66763362  0.33335047  0.66719999  1
  Ni  Ni50  1  0.83288714  0.50147699  0.83265430  1
  Cr  Cr51  1  0.83611225  0.83353750  0.50430294  1
  Fe  Fe52  1  0.67005503  0.66659754  0.66918581  1
  Ni  Ni53  1  0.83589813  0.83422279  0.83233725  1
" 