5516,Ni36Fe35Cr27_1,-228.487191755285, 187.685515649756,Ni36Fe35Cr27,"# generated using pymatgen
 data_Cr16(FeNi)19
_symmetry_space_group_name_H-M   'P 1'
_cell_length_a   7.45903691
_cell_length_b   7.45903691
_cell_length_c   10.54867116
_cell_angle_alpha   90.00000000
_cell_angle_beta   90.00000000
_cell_angle_gamma   90.00000000
_symmetry_Int_Tables_number   1
_chemical_formula_structural   Cr16(FeNi)19
_chemical_formula_sum   'Cr16 Fe19 Ni19'
_cell_volume   586.89886035
_cell_formula_units_Z   1
loop_
 _symmetry_equiv_pos_site_id
 _symmetry_equiv_pos_as_xyz
  1  'x, y, z'
loop_
 _atom_site_type_symbol
 _atom_site_label
 _atom_site_symmetry_multiplicity
 _atom_site_fract_x
 _atom_site_fract_y
 _atom_site_fract_z
 _atom_site_occupancy
  Fe  Fe0  1  0.00093317  0.00344884  1.00051102  1
  Fe  Fe1  1  0.16654752  0.16697369  0.16895373  1
  Ni  Ni2  1  0.00086836  0.00155441  0.33348047  1
  Fe  Fe3  1  0.00228886  0.33065299  0.00250261  1
  Ni  Ni4  1  0.16592310  0.49939831  0.16889831  1
  Ni  Ni5  1  1.00028919  0.33387153  0.33233081  1
  Cr  Cr6  1  0.00224143  0.66597344  0.00321964  1
  Fe  Fe7  1  0.16846093  0.83620083  0.16958160  1
  Ni  Ni8  1  0.99999678  0.66633545  0.33267623  1
  Fe  Fe9  1  0.33400281  0.00072339  0.99937997  1
  Cr  Cr10  1  0.50161940  0.16536693  0.16796574  1
  Ni  Ni11  1  0.33478876  0.00106911  0.33291909  1
  Fe  Fe12  1  0.33066443  0.33182940  0.00058417  1
  Cr  Cr13  1  0.49821510  0.49904372  0.16937429  1
  Ni  Ni14  1  0.33298090  0.33238837  0.33372536  1
  Cr  Cr15  1  0.33254114  0.66880655  0.00100567  1
  Ni  Ni16  1  0.49850816  0.83624711  0.16759383  1
  Fe  Fe17  1  0.33094805  0.66819181  0.33194356  1
  Ni  Ni18  1  0.66624761  0.00234319  0.99974942  1
  Ni  Ni19  1  0.83609703  0.16690922  0.16820034  1
  Fe  Fe20  1  0.66842003  0.00261164  0.33454822  1
  Cr  Cr21  1  0.66899873  0.33132129  0.00099988  1
  Fe  Fe22  1  0.83523955  0.49785990  0.16936337  1
  Fe  Fe23  1  0.66970660  0.33134307  0.33584294  1
  Cr  Cr24  1  0.66670752  0.67049136  0.00125061  1
  Cr  Cr25  1  0.83426838  0.83806862  0.16741456  1
  Cr  Cr26  1  0.66781381  0.66749076  0.33399016  1
  Cr  Cr27  1  0.16689012  0.16592925  0.49873356  1
  Fe  Fe28  1  1.00044832  0.00270570  0.66679517  1
  Fe  Fe29  1  0.16648348  0.16468833  0.83428187  1
  Cr  Cr30  1  0.16699231  0.50173413  0.50086838  1
  Fe  Fe31  1  0.99732368  0.33161887  0.66592958  1
  Fe  Fe32  1  0.16663247  0.49994820  0.83366074  1
  Cr  Cr33  1  0.16729721  0.83411048  0.49941838  1
  Fe  Fe34  1  1.00011783  0.66747589  0.66654124  1
  Ni  Ni35  1  0.16785277  0.83481079  0.83268419  1
  Ni  Ni36  1  0.50156384  0.16699694  0.49841534  1
  Ni  Ni37  1  0.33330211  0.99975303  0.66922660  1
  Ni  Ni38  1  0.50064336  0.16548419  0.83512322  1
  Fe  Fe39  1  0.50210104  0.49831392  0.50064426  1
  Cr  Cr40  1  0.33430825  0.32970954  0.66836129  1
  Cr  Cr41  1  0.50083420  0.49978964  0.83248136  1
  Fe  Fe42  1  0.50040006  0.83508502  0.50040957  1
  Fe  Fe43  1  0.33627734  0.66980595  0.66836652  1
  Ni  Ni44  1  0.49784317  0.83663733  0.83351201  1
  Ni  Ni45  1  0.83261244  0.16834974  0.49919654  1
  Cr  Cr46  1  0.66527825  0.00232556  0.66576732  1
  Ni  Ni47  1  0.83456494  0.16739675  0.83356921  1
  Ni  Ni48  1  0.83366693  0.49993160  0.50016668  1
  Ni  Ni49  1  0.66834582  0.33375111  0.66509210  1
  Cr  Cr50  1  0.83476121  0.49868247  0.83322029  1
  Fe  Fe51  1  0.83475333  0.83440135  0.49978742  1
  Ni  Ni52  1  0.66796826  0.66701906  0.66596874  1
  Cr  Cr53  1  0.83441680  0.83602710  0.83276974  1
" 