1345,Ni36Fe3Cr60_5,-213.859617944053, 138.898513415549,Ni36Fe3Cr60,"# generated using pymatgen
 data_Cr34FeNi19
_symmetry_space_group_name_H-M   'P 1'
_cell_length_a   7.54545509
_cell_length_b   7.54545509
_cell_length_c   10.67088493
_cell_angle_alpha   90.00000000
_cell_angle_beta   90.00000000
_cell_angle_gamma   90.00000000
_symmetry_Int_Tables_number   1
_chemical_formula_structural   Cr34FeNi19
_chemical_formula_sum   'Cr34 Fe1 Ni19'
_cell_volume   607.53501608
_cell_formula_units_Z   1
loop_
 _symmetry_equiv_pos_site_id
 _symmetry_equiv_pos_as_xyz
  1  'x, y, z'
loop_
 _atom_site_type_symbol
 _atom_site_label
 _atom_site_symmetry_multiplicity
 _atom_site_fract_x
 _atom_site_fract_y
 _atom_site_fract_z
 _atom_site_occupancy
  Cr  Cr0  1  0.99276577  -0.00483682  0.99171691  1
  Cr  Cr1  1  0.15707660  0.16153709  0.16161541  1
  Ni  Ni2  1  0.99217834  -0.00487247  0.33093314  1
  Ni  Ni3  1  -0.00508946  0.32781098  0.99277640  1
  Ni  Ni4  1  0.16117769  0.49417728  0.15905960  1
  Cr  Cr5  1  0.99393295  0.32892306  0.32716066  1
  Cr  Cr6  1  -0.00379402  0.65873962  0.99303226  1
  Cr  Cr7  1  0.16100891  0.82882177  0.16074971  1
  Cr  Cr8  1  -0.00444404  0.66359251  0.32884602  1
  Cr  Cr9  1  0.32912711  -0.00375345  0.99310603  1
  Ni  Ni10  1  0.49750426  0.16300201  0.16266444  1
  Cr  Cr11  1  0.32785162  -0.00506760  0.32781249  1
  Cr  Cr12  1  0.32600485  0.32780176  0.99377134  1
  Cr  Cr13  1  0.49519910  0.49531411  0.16190997  1
  Cr  Cr14  1  0.32958591  0.32784397  0.32747211  1
  Ni  Ni15  1  0.32446281  0.65982757  0.99341230  1
  Cr  Cr16  1  0.49418930  0.82790778  0.15838500  1
  Cr  Cr17  1  0.32552798  0.66121675  0.32773478  1
  Cr  Cr18  1  0.66217006  -0.00280465  0.99405656  1
  Ni  Ni19  1  0.82808500  0.16271719  0.16280108  1
  Cr  Cr20  1  0.66256652  -0.00367190  0.32681906  1
  Cr  Cr21  1  0.66331385  0.32526943  0.99395193  1
  Cr  Cr22  1  0.82974875  0.49178305  0.16048104  1
  Ni  Ni23  1  0.66332749  0.32518987  0.32736521  1
  Cr  Cr24  1  0.66467492  0.66250548  0.99261781  1
  Cr  Cr25  1  0.82981162  0.83120251  0.16209512  1
  Cr  Cr26  1  0.66385117  0.66181594  0.32930654  1
  Cr  Cr27  1  0.15650557  0.15793138  0.49560107  1
  Ni  Ni28  1  0.99390528  0.99373895  0.66195477  1
  Ni  Ni29  1  0.15814382  0.16073555  0.82792002  1
  Cr  Cr30  1  0.16201804  0.49517048  0.49580632  1
  Cr  Cr31  1  0.99456896  0.32716145  0.66513252  1
  Ni  Ni32  1  0.16034286  0.49576779  0.82946775  1
  Ni  Ni33  1  0.15872949  0.82961920  0.49586826  1
  Cr  Cr34  1  0.99478066  0.66306371  0.66205015  1
  Ni  Ni35  1  0.16029636  0.82769421  0.82680148  1
  Cr  Cr36  1  0.49661157  0.16243580  0.49433454  1
  Cr  Cr37  1  0.32557009  -0.00474157  0.66356140  1
  Ni  Ni38  1  0.49515563  0.16147903  0.82823299  1
  Cr  Cr39  1  0.49637549  0.49584017  0.49702959  1
  Cr  Cr40  1  0.32617147  0.32785800  0.66367041  1
  Cr  Cr41  1  0.49546417  0.49678595  0.82546536  1
  Cr  Cr42  1  0.49389841  0.82644693  0.49754536  1
  Ni  Ni43  1  0.32591589  0.66308825  0.66266138  1
  Cr  Cr44  1  0.49412964  0.82662638  0.82853430  1
  Ni  Ni45  1  0.82945593  0.15874732  0.49339244  1
  Cr  Cr46  1  0.66473149  -0.00470460  0.66358973  1
  Ni  Ni47  1  0.83121297  0.16144097  0.82829559  1
  Cr  Cr48  1  0.82618220  0.49237844  0.49547462  1
  Cr  Cr49  1  0.66335465  0.32647534  0.66294349  1
  Ni  Ni50  1  0.83017906  0.49439922  0.82808326  1
  Fe  Fe51  1  0.83011001  0.83077599  0.49665378  1
  Ni  Ni52  1  0.66340810  0.66266340  0.66269589  1
  Ni  Ni53  1  0.83040060  0.82856291  0.82501408  1
" 