2091,Ni36Fe35Cr27_17,-228.851310380892, 193.986334887745,Ni36Fe35Cr27,"# generated using pymatgen
 data_Cr16(FeNi)19
_symmetry_space_group_name_H-M   'P 1'
_cell_length_a   7.45950661
_cell_length_b   7.45950661
_cell_length_c   10.54933542
_cell_angle_alpha   90.00000000
_cell_angle_beta   90.00000000
_cell_angle_gamma   90.00000000
_symmetry_Int_Tables_number   1
_chemical_formula_structural   Cr16(FeNi)19
_chemical_formula_sum   'Cr16 Fe19 Ni19'
_cell_volume   587.00973983
_cell_formula_units_Z   1
loop_
 _symmetry_equiv_pos_site_id
 _symmetry_equiv_pos_as_xyz
  1  'x, y, z'
loop_
 _atom_site_type_symbol
 _atom_site_label
 _atom_site_symmetry_multiplicity
 _atom_site_fract_x
 _atom_site_fract_y
 _atom_site_fract_z
 _atom_site_occupancy
  Cr  Cr0  1  1.00048654  0.00122276  0.99948487  1
  Ni  Ni1  1  0.16545964  0.16415818  0.16767196  1
  Ni  Ni2  1  1.00027226  0.99808058  0.33191460  1
  Ni  Ni3  1  0.99849652  0.33668104  0.99976628  1
  Fe  Fe4  1  0.16663820  0.49798195  0.16491225  1
  Cr  Cr5  1  0.00105526  0.33574154  0.32991830  1
  Ni  Ni6  1  0.99968246  0.66461375  0.99987546  1
  Fe  Fe7  1  0.16691471  0.83435452  0.16546336  1
  Cr  Cr8  1  0.99826039  0.66724044  0.33538511  1
  Ni  Ni9  1  0.33353229  0.99765462  1.00033990  1
  Cr  Cr10  1  0.49903010  0.16694551  0.17108453  1
  Ni  Ni11  1  0.33290541  0.00097805  0.33195346  1
  Cr  Cr12  1  0.33265390  0.33213902  0.00103391  1
  Ni  Ni13  1  0.50211966  0.50554463  0.16644921  1
  Ni  Ni14  1  0.33439824  0.33348444  0.33612455  1
  Fe  Fe15  1  0.33108764  0.67005612  0.00137870  1
  Fe  Fe16  1  0.50177990  0.83350176  0.16736800  1
  Cr  Cr17  1  0.33313449  0.66466190  0.33262932  1
  Cr  Cr18  1  0.66613355  0.00129285  0.99911679  1
  Ni  Ni19  1  0.83802514  0.16743592  0.16719335  1
  Ni  Ni20  1  0.66814218  0.99876199  0.33415269  1
  Fe  Fe21  1  0.67236010  0.33470645  0.00157278  1
  Ni  Ni22  1  0.83242879  0.50264078  0.16464704  1
  Cr  Cr23  1  0.66582392  0.33590876  0.33185043  1
  Fe  Fe24  1  0.66955768  0.66657431  0.00147862  1
  Fe  Fe25  1  0.83271809  0.83362403  0.16830619  1
  Ni  Ni26  1  0.66811306  0.66787909  0.33313601  1
  Cr  Cr27  1  0.16609094  0.16561390  0.49972485  1
  Fe  Fe28  1  0.99775461  0.99979243  0.66960468  1
  Fe  Fe29  1  0.16505542  0.16804872  0.83443416  1
  Fe  Fe30  1  0.16886503  0.49845559  0.50100311  1
  Fe  Fe31  1  0.99938826  0.33452920  0.66988055  1
  Fe  Fe32  1  0.16404724  0.50085832  0.83531719  1
  Fe  Fe33  1  0.16598216  0.83565223  0.49987188  1
  Cr  Cr34  1  0.99941575  0.66744830  0.66545554  1
  Ni  Ni35  1  0.16676079  0.83421612  0.83547543  1
  Fe  Fe36  1  0.50072790  0.16879189  0.50015048  1
  Cr  Cr37  1  0.33396532  0.00098414  0.66997821  1
  Cr  Cr38  1  0.50281216  0.16770675  0.83087997  1
  Ni  Ni39  1  0.50226353  0.50088296  0.50133489  1
  Fe  Fe40  1  0.33522855  0.33675110  0.66512465  1
  Cr  Cr41  1  0.50405157  0.50415890  0.83577014  1
  Cr  Cr42  1  0.50246231  0.83250159  0.49892994  1
  Cr  Cr43  1  0.33300521  0.66711707  0.66847889  1
  Ni  Ni44  1  0.49879533  0.83170618  0.83620219  1
  Cr  Cr45  1  0.83455417  0.16529876  0.50025726  1
  Fe  Fe46  1  0.67014761  0.99760808  0.66883960  1
  Ni  Ni47  1  0.83772905  0.17024402  0.83218934  1
  Fe  Fe48  1  0.82967355  0.50136026  0.50195207  1
  Ni  Ni49  1  0.66851256  0.33427793  0.66712423  1
  Ni  Ni50  1  0.83483386  0.49899690  0.83424142  1
  Fe  Fe51  1  0.83255242  0.83339754  0.49961436  1
  Ni  Ni52  1  0.66921297  0.66558882  0.66799023  1
  Fe  Fe53  1  0.83219659  0.83144227  0.83326205  1
" 