4505,Ni36Fe2Cr60_18,-214.204898989157, 138.346023799995,Ni36Fe2Cr60,"# generated using pymatgen
 data_Cr34FeNi19
_symmetry_space_group_name_H-M   'P 1'
_cell_length_a   7.54382951
_cell_length_b   7.54382951
_cell_length_c   10.66858600
_cell_angle_alpha   90.00000000
_cell_angle_beta   90.00000000
_cell_angle_gamma   90.00000000
_symmetry_Int_Tables_number   1
_chemical_formula_structural   Cr34FeNi19
_chemical_formula_sum   'Cr34 Fe1 Ni19'
_cell_volume   607.14244056
_cell_formula_units_Z   1
loop_
 _symmetry_equiv_pos_site_id
 _symmetry_equiv_pos_as_xyz
  1  'x, y, z'
loop_
 _atom_site_type_symbol
 _atom_site_label
 _atom_site_symmetry_multiplicity
 _atom_site_fract_x
 _atom_site_fract_y
 _atom_site_fract_z
 _atom_site_occupancy
  Cr  Cr0  1  0.99477077  0.99257631  0.99444200  1
  Cr  Cr1  1  0.16438845  0.16066724  0.15980324  1
  Cr  Cr2  1  0.99440916  0.99210139  0.32838495  1
  Cr  Cr3  1  -0.00070574  0.33161200  0.99409147  1
  Ni  Ni4  1  0.16485334  0.49905976  0.15862635  1
  Cr  Cr5  1  -0.00479534  0.32986276  0.32561815  1
  Ni  Ni6  1  -0.00327597  0.66223220  -0.00503892  1
  Ni  Ni7  1  0.16401184  0.82417959  0.15972346  1
  Cr  Cr8  1  -0.00306483  0.66272467  0.32542681  1
  Ni  Ni9  1  0.32969451  -0.00468773  -0.00504837  1
  Ni  Ni10  1  0.49361368  0.16194299  0.15942365  1
  Cr  Cr11  1  0.32861550  0.99256233  0.32604273  1
  Ni  Ni12  1  0.32804562  0.32903886  0.99376077  1
  Cr  Cr13  1  0.49451870  0.49592280  0.16134620  1
  Cr  Cr14  1  0.32951391  0.32995506  0.32781041  1
  Fe  Fe15  1  0.32823738  0.66111125  0.99415838  1
  Cr  Cr16  1  0.49203193  0.82822140  0.15782568  1
  Ni  Ni17  1  0.32809947  0.65997071  0.32608862  1
  Ni  Ni18  1  0.65754667  0.99083726  0.99411181  1
  Cr  Cr19  1  0.82407682  0.16262217  0.16154383  1
  Cr  Cr20  1  0.66072519  -0.00492525  0.32638917  1
  Cr  Cr21  1  0.65778720  0.32856062  -0.00436676  1
  Cr  Cr22  1  0.82836064  0.49596609  0.16025819  1
  Ni  Ni23  1  0.65818988  0.32924507  0.32777788  1
  Ni  Ni24  1  0.66119189  0.66419464  0.99092774  1
  Cr  Cr25  1  0.82757259  0.82659423  0.15799700  1
  Cr  Cr26  1  0.66050877  0.66207935  0.33097091  1
  Cr  Cr27  1  0.16068070  0.16022477  0.49888464  1
  Ni  Ni28  1  0.99377543  0.99246552  0.66315744  1
  Ni  Ni29  1  0.16337110  0.16164534  0.82912067  1
  Cr  Cr30  1  0.16403454  0.49648190  0.49390682  1
  Cr  Cr31  1  -0.00202502  0.32846663  0.66574953  1
  Ni  Ni32  1  0.16519268  0.49517973  0.83207473  1
  Cr  Cr33  1  0.16169195  0.82801993  0.49358883  1
  Cr  Cr34  1  0.99263310  0.66316962  0.66276929  1
  Cr  Cr35  1  0.16331236  0.82844535  0.82943253  1
  Cr  Cr36  1  0.49520438  0.16334542  0.49278331  1
  Cr  Cr37  1  0.32830992  -0.00508319  0.66350982  1
  Cr  Cr38  1  0.49348767  0.15966434  0.83170601  1
  Ni  Ni39  1  0.49573377  0.49683280  0.49400016  1
  Cr  Cr40  1  0.32889188  0.33023128  0.66469642  1
  Ni  Ni41  1  0.49310294  0.49902325  0.82988566  1
  Cr  Cr42  1  0.49379721  0.82518151  0.49554328  1
  Cr  Cr43  1  0.33211828  0.65939116  0.66272924  1
  Ni  Ni44  1  0.49706514  0.82466505  0.83124630  1
  Cr  Cr45  1  0.82878752  0.16160705  0.49515184  1
  Cr  Cr46  1  0.66200146  0.98980168  0.66334898  1
  Cr  Cr47  1  0.82933882  0.15915917  0.82826794  1
  Cr  Cr48  1  0.82619525  0.49517464  0.49435763  1
  Cr  Cr49  1  0.65800432  0.33261937  0.66136655  1
  Cr  Cr50  1  0.82714980  0.49818344  0.82992830  1
  Ni  Ni51  1  0.82785735  0.82793128  0.49793188  1
  Ni  Ni52  1  0.66050293  0.66260385  0.66291344  1
  Ni  Ni53  1  0.82605361  0.82653245  0.82904455  1
" 