5956,Ni36Fe60Cr2_16,-236.016110503691, 211.012990611223,Ni36Fe60Cr2,"# generated using pymatgen
 data_Cr3Fe32Ni19
_symmetry_space_group_name_H-M   'P 1'
_cell_length_a   7.40513948
_cell_length_b   7.40513948
_cell_length_c   10.47244868
_cell_angle_alpha   90.00000000
_cell_angle_beta   90.00000000
_cell_angle_gamma   90.00000000
_symmetry_Int_Tables_number   1
_chemical_formula_structural   Cr3Fe32Ni19
_chemical_formula_sum   'Cr3 Fe32 Ni19'
_cell_volume   574.26814505
_cell_formula_units_Z   1
loop_
 _symmetry_equiv_pos_site_id
 _symmetry_equiv_pos_as_xyz
  1  'x, y, z'
loop_
 _atom_site_type_symbol
 _atom_site_label
 _atom_site_symmetry_multiplicity
 _atom_site_fract_x
 _atom_site_fract_y
 _atom_site_fract_z
 _atom_site_occupancy
  Ni  Ni0  1  0.00546654  1.00415238  1.00302948  1
  Fe  Fe1  1  0.17033748  0.17042809  0.17040783  1
  Ni  Ni2  1  0.00536888  0.00505825  0.33830781  1
  Ni  Ni3  1  0.00522556  0.33797667  1.00383249  1
  Ni  Ni4  1  0.17066675  0.50469452  0.17114775  1
  Ni  Ni5  1  1.00387080  0.33751949  0.33698543  1
  Fe  Fe6  1  0.00480157  0.67118913  1.00329373  1
  Ni  Ni7  1  0.17034224  0.83706388  0.17119577  1
  Fe  Fe8  1  0.00675653  0.67147225  0.33756133  1
  Ni  Ni9  1  0.33711535  1.00300063  1.00367012  1
  Fe  Fe10  1  0.50205241  0.16950375  0.17218296  1
  Ni  Ni11  1  0.33756067  1.00390874  0.33785644  1
  Fe  Fe12  1  0.33456591  0.33688116  1.00355218  1
  Fe  Fe13  1  0.50174051  0.50487022  0.17139658  1
  Fe  Fe14  1  0.33725332  0.33716318  0.33824731  1
  Fe  Fe15  1  0.33604660  0.67100501  0.00456859  1
  Fe  Fe16  1  0.50201803  0.83816428  0.16998628  1
  Fe  Fe17  1  0.33467070  0.67099665  0.33708362  1
  Fe  Fe18  1  0.67154430  1.00283072  1.00385948  1
  Fe  Fe19  1  0.84015590  0.17015483  0.17185000  1
  Fe  Fe20  1  0.67125579  0.00663390  0.33797474  1
  Cr  Cr21  1  0.67247254  0.33905852  1.00311516  1
  Fe  Fe22  1  0.84039398  0.50415560  0.17044392  1
  Fe  Fe23  1  0.67078208  0.33479478  0.33776838  1
  Fe  Fe24  1  0.67168969  0.67302256  1.00399119  1
  Fe  Fe25  1  0.83946220  0.83823766  0.16965286  1
  Cr  Cr26  1  0.67032862  0.67032271  0.33772411  1
  Fe  Fe27  1  0.17183503  0.17129958  0.50462354  1
  Fe  Fe28  1  0.00683600  0.00422566  0.67143316  1
  Ni  Ni29  1  0.17151626  0.17059547  0.83776740  1
  Fe  Fe30  1  0.17132010  0.50321776  0.50451646  1
  Ni  Ni31  1  0.00440633  0.33946278  0.67172546  1
  Ni  Ni32  1  0.17033482  0.50350338  0.83759247  1
  Fe  Fe33  1  0.17194782  0.83802261  0.50396947  1
  Ni  Ni34  1  1.00323975  0.66920215  0.67061331  1
  Ni  Ni35  1  0.17001656  0.83843943  0.83716911  1
  Ni  Ni36  1  0.50389352  0.17236250  0.50253271  1
  Ni  Ni37  1  0.33702168  0.00437657  0.67100887  1
  Fe  Fe38  1  0.50142062  0.17048870  0.83682173  1
  Ni  Ni39  1  0.50390763  0.50197006  0.50514619  1
  Ni  Ni40  1  0.33713344  0.33714736  0.67160844  1
  Fe  Fe41  1  0.50288858  0.50541987  0.83602172  1
  Fe  Fe42  1  0.50221290  0.83794682  0.50403156  1
  Fe  Fe43  1  0.33659823  0.67021346  0.67089250  1
  Fe  Fe44  1  0.50259415  0.83663161  0.83852531  1
  Fe  Fe45  1  0.83792012  0.17245336  0.50274519  1
  Cr  Cr46  1  0.66926219  1.00344590  0.67141845  1
  Fe  Fe47  1  0.84123940  0.17113789  0.83794019  1
  Fe  Fe48  1  0.83784385  0.50264600  0.50566392  1
  Fe  Fe49  1  0.67041254  0.33941371  0.67059229  1
  Ni  Ni50  1  0.83808783  0.50554696  0.83619897  1
  Fe  Fe51  1  0.83837683  0.83744056  0.50458781  1
  Fe  Fe52  1  0.67109309  0.66845801  0.67082037  1
  Ni  Ni53  1  0.83842007  0.83639652  0.83907211  1
" 