7886,Ni36Fe3Cr60_6,-214.03335442144, 140.822190401222,Ni36Fe3Cr60,"# generated using pymatgen
 data_Cr34FeNi19
_symmetry_space_group_name_H-M   'P 1'
_cell_length_a   7.54600118
_cell_length_b   7.54600118
_cell_length_c   10.67165721
_cell_angle_alpha   90.00000000
_cell_angle_beta   90.00000000
_cell_angle_gamma   90.00000000
_symmetry_Int_Tables_number   1
_chemical_formula_structural   Cr34FeNi19
_chemical_formula_sum   'Cr34 Fe1 Ni19'
_cell_volume   607.66693253
_cell_formula_units_Z   1
loop_
 _symmetry_equiv_pos_site_id
 _symmetry_equiv_pos_as_xyz
  1  'x, y, z'
loop_
 _atom_site_type_symbol
 _atom_site_label
 _atom_site_symmetry_multiplicity
 _atom_site_fract_x
 _atom_site_fract_y
 _atom_site_fract_z
 _atom_site_occupancy
  Ni  Ni0  1  -0.00469368  0.99145776  0.99119784  1
  Cr  Cr1  1  0.16081096  0.15938760  0.16287962  1
  Cr  Cr2  1  0.99341751  0.99424081  0.33012937  1
  Cr  Cr3  1  -0.00374877  0.32728978  0.99466101  1
  Ni  Ni4  1  0.15957503  0.49549139  0.15990398  1
  Cr  Cr5  1  -0.00449629  0.32911797  0.33068723  1
  Ni  Ni6  1  0.99419032  0.66374167  0.99243125  1
  Cr  Cr7  1  0.16068238  0.82704957  0.16015580  1
  Cr  Cr8  1  0.99321520  0.66014644  0.32856071  1
  Cr  Cr9  1  0.32778819  0.99325711  0.99102207  1
  Cr  Cr10  1  0.49708071  0.16013323  0.16172183  1
  Ni  Ni11  1  0.32961460  -0.00518224  0.32846910  1
  Cr  Cr12  1  0.32820386  0.32675300  0.99338163  1
  Cr  Cr13  1  0.49498167  0.49433849  0.15981708  1
  Cr  Cr14  1  0.32630970  0.32894845  0.32918226  1
  Cr  Cr15  1  0.32816218  0.66378449  -0.00281081  1
  Ni  Ni16  1  0.49454129  0.83137374  0.16440195  1
  Cr  Cr17  1  0.32960472  0.66137701  0.32342494  1
  Cr  Cr18  1  0.66058296  0.99251932  0.99304622  1
  Cr  Cr19  1  0.82629444  0.16042252  0.15965383  1
  Ni  Ni20  1  0.65943122  0.99273556  0.32793823  1
  Ni  Ni21  1  0.66181699  0.32843290  0.99142356  1
  Cr  Cr22  1  0.82952342  0.49486827  0.15699006  1
  Cr  Cr23  1  0.66263594  0.33029070  0.32919531  1
  Cr  Cr24  1  0.66104868  0.66390319  0.99282667  1
  Cr  Cr25  1  0.82831902  0.82996403  0.16113003  1
  Cr  Cr26  1  0.66167816  0.66373631  0.33055665  1
  Fe  Fe27  1  0.16270092  0.15922883  0.49587248  1
  Cr  Cr28  1  -0.00467019  0.99334497  0.66322171  1
  Ni  Ni29  1  0.16245228  0.15745233  0.82645494  1
  Cr  Cr30  1  0.16227793  0.49836723  0.49618459  1
  Cr  Cr31  1  0.99438046  0.32837673  0.65930990  1
  Cr  Cr32  1  0.15864907  0.49847003  0.82894644  1
  Cr  Cr33  1  0.16134539  0.82909516  0.49676075  1
  Ni  Ni34  1  0.99059863  0.66294041  0.66288412  1
  Ni  Ni35  1  0.15981666  0.82974955  0.82782551  1
  Cr  Cr36  1  0.49380600  0.15988183  0.49483667  1
  Ni  Ni37  1  0.32767496  0.99447765  0.66497380  1
  Ni  Ni38  1  0.49314752  0.15860939  0.82796536  1
  Ni  Ni39  1  0.49746407  0.49538965  0.49626164  1
  Cr  Cr40  1  0.32729971  0.32483622  0.66185324  1
  Cr  Cr41  1  0.49769666  0.49401991  0.82685563  1
  Cr  Cr42  1  0.49450621  0.82846354  0.49426914  1
  Cr  Cr43  1  0.33113806  0.66367590  0.66348158  1
  Ni  Ni44  1  0.49443293  0.82954913  0.82560625  1
  Cr  Cr45  1  0.82584391  0.15884050  0.49221416  1
  Cr  Cr46  1  0.66154825  0.99036814  0.66430104  1
  Cr  Cr47  1  0.82722936  0.16251309  0.83219369  1
  Ni  Ni48  1  0.82737612  0.49823918  0.49807132  1
  Cr  Cr49  1  0.66216250  0.33039615  0.66234047  1
  Ni  Ni50  1  0.82865009  0.49903957  0.82786700  1
  Ni  Ni51  1  0.82778412  0.82549066  0.49615729  1
  Ni  Ni52  1  0.66544179  0.66213986  0.66104887  1
  Ni  Ni53  1  0.83017604  0.82496517  0.82776482  1
" 