691,Ni36Fe24Cr39_19,-223.442566387223, 173.570779031911,Ni36Fe24Cr39,"# generated using pymatgen
 data_Cr23Fe12Ni19
_symmetry_space_group_name_H-M   'P 1'
_cell_length_a   7.49098045
_cell_length_b   7.49098045
_cell_length_c   10.59384614
_cell_angle_alpha   90.00000000
_cell_angle_beta   90.00000000
_cell_angle_gamma   90.00000000
_symmetry_Int_Tables_number   1
_chemical_formula_structural   Cr23Fe12Ni19
_chemical_formula_sum   'Cr23 Fe12 Ni19'
_cell_volume   594.47143117
_cell_formula_units_Z   1
loop_
 _symmetry_equiv_pos_site_id
 _symmetry_equiv_pos_as_xyz
  1  'x, y, z'
loop_
 _atom_site_type_symbol
 _atom_site_label
 _atom_site_symmetry_multiplicity
 _atom_site_fract_x
 _atom_site_fract_y
 _atom_site_fract_z
 _atom_site_occupancy
  Cr  Cr0  1  -0.00076589  0.99799819  0.00045344  1
  Ni  Ni1  1  0.16137567  0.16566437  0.16702671  1
  Ni  Ni2  1  -0.00134344  -0.00053905  0.33254513  1
  Fe  Fe3  1  0.99610066  0.33378498  -0.00015823  1
  Cr  Cr4  1  0.16362788  0.49853153  0.16513948  1
  Ni  Ni5  1  0.99522269  0.33076986  0.33037136  1
  Ni  Ni6  1  0.99793669  0.66132583  0.99764578  1
  Fe  Fe7  1  0.16305442  0.83234294  0.16555376  1
  Ni  Ni8  1  0.99618214  0.66510289  0.33260453  1
  Cr  Cr9  1  0.33292121  -0.00089144  -0.00029558  1
  Ni  Ni10  1  0.50080082  0.16917608  0.16541190  1
  Cr  Cr11  1  0.33005589  0.00120473  0.32898453  1
  Cr  Cr12  1  0.33329105  0.33169972  0.99746246  1
  Ni  Ni13  1  0.50052073  0.49574248  0.16433103  1
  Cr  Cr14  1  0.33401225  0.33045754  0.33300601  1
  Fe  Fe15  1  0.33296412  0.66294558  0.99717428  1
  Cr  Cr16  1  0.49819084  0.82911752  0.16306444  1
  Cr  Cr17  1  0.33146184  0.66370490  0.33043662  1
  Cr  Cr18  1  0.66277094  0.00032814  0.99784133  1
  Ni  Ni19  1  0.83284274  0.16817571  0.16669692  1
  Cr  Cr20  1  0.66684820  0.00103588  0.33232132  1
  Ni  Ni21  1  0.66478035  0.33521629  -0.00108584  1
  Fe  Fe22  1  0.83054235  0.49428644  0.16532788  1
  Ni  Ni23  1  0.66691547  0.33238665  0.33217291  1
  Fe  Fe24  1  0.66438054  0.66119051  0.99687422  1
  Cr  Cr25  1  0.83373889  0.83141772  0.16631826  1
  Cr  Cr26  1  0.66832487  0.66057705  0.33240072  1
  Fe  Fe27  1  0.16143211  0.16514311  0.49678426  1
  Fe  Fe28  1  0.99616961  0.99836093  0.66236376  1
  Cr  Cr29  1  0.16345057  0.16778385  0.83161906  1
  Cr  Cr30  1  0.16489621  0.49800737  0.49824131  1
  Cr  Cr31  1  0.99687166  0.33446125  0.66634497  1
  Ni  Ni32  1  0.16545415  0.50094757  0.83216234  1
  Cr  Cr33  1  0.16175128  0.83176735  0.49801120  1
  Fe  Fe34  1  0.99522286  0.66381633  0.66450497  1
  Cr  Cr35  1  0.16545550  0.82799912  0.83084722  1
  Fe  Fe36  1  0.50179834  0.16862389  0.49862434  1
  Cr  Cr37  1  0.33208554  -0.00036184  0.66630293  1
  Ni  Ni38  1  0.50092931  0.16765072  0.83143501  1
  Ni  Ni39  1  0.50257713  0.49568054  0.49984246  1
  Cr  Cr40  1  0.33395207  0.33264762  0.66481023  1
  Ni  Ni41  1  0.49893166  0.49979666  0.83098840  1
  Cr  Cr42  1  0.50050739  0.82879578  0.49976050  1
  Fe  Fe43  1  0.33552358  0.66228354  0.66660422  1
  Ni  Ni44  1  0.49863772  0.82745356  0.83166292  1
  Fe  Fe45  1  0.83204470  0.16756424  0.49685836  1
  Cr  Cr46  1  0.66489294  0.99799889  0.66498581  1
  Cr  Cr47  1  0.82974540  0.16770362  0.83250689  1
  Ni  Ni48  1  0.82999152  0.49775688  0.49780251  1
  Ni  Ni49  1  0.66424430  0.33574664  0.66425160  1
  Fe  Fe50  1  0.82928232  0.49905655  0.83193697  1
  Ni  Ni51  1  0.83443271  0.83165577  0.49951717  1
  Ni  Ni52  1  0.66640640  0.66230225  0.66564865  1
  Cr  Cr53  1  0.83029712  0.83034282  0.82969462  1
" 