2110,Ni36Fe41Cr21_10,-230.348608018056, 192.459465738051,Ni36Fe41Cr21,"# generated using pymatgen
 data_Cr13Fe22Ni19
_symmetry_space_group_name_H-M   'P 1'
_cell_length_a   7.45083796
_cell_length_b   7.45083796
_cell_length_c   10.53707609
_cell_angle_alpha   90.00000000
_cell_angle_beta   90.00000000
_cell_angle_gamma   90.00000000
_symmetry_Int_Tables_number   1
_chemical_formula_structural   Cr13Fe22Ni19
_chemical_formula_sum   'Cr13 Fe22 Ni19'
_cell_volume   584.96563444
_cell_formula_units_Z   1
loop_
 _symmetry_equiv_pos_site_id
 _symmetry_equiv_pos_as_xyz
  1  'x, y, z'
loop_
 _atom_site_type_symbol
 _atom_site_label
 _atom_site_symmetry_multiplicity
 _atom_site_fract_x
 _atom_site_fract_y
 _atom_site_fract_z
 _atom_site_occupancy
  Fe  Fe0  1  1.00024876  1.00093586  1.00074342  1
  Cr  Cr1  1  0.16545844  0.16720987  0.17000449  1
  Ni  Ni2  1  1.00035029  1.00084751  0.33580932  1
  Fe  Fe3  1  0.99830393  0.33491056  1.00089314  1
  Ni  Ni4  1  0.16492677  0.50348945  0.16847825  1
  Ni  Ni5  1  1.00055174  0.33426124  0.33348274  1
  Fe  Fe6  1  1.00040941  0.66741989  0.00162737  1
  Ni  Ni7  1  0.16617554  0.83260703  0.16819041  1
  Ni  Ni8  1  1.00048234  0.66815406  0.33259565  1
  Fe  Fe9  1  0.33364122  1.00020725  1.00034225  1
  Cr  Cr10  1  0.50421006  0.16684107  0.16863425  1
  Ni  Ni11  1  0.33426441  0.00188250  0.33519600  1
  Cr  Cr12  1  0.33455529  0.33431417  0.99900379  1
  Fe  Fe13  1  0.50164089  0.50036098  0.16744445  1
  Ni  Ni14  1  0.33425660  0.33342672  0.33497683  1
  Cr  Cr15  1  0.33331521  0.66818230  0.00233444  1
  Fe  Fe16  1  0.50108548  0.83587543  0.16780370  1
  Cr  Cr17  1  0.33369795  0.66838183  0.33390203  1
  Fe  Fe18  1  0.66937079  0.00231777  0.00108815  1
  Ni  Ni19  1  0.83343709  0.16827625  0.16831794  1
  Ni  Ni20  1  0.66865249  0.00180883  0.33496109  1
  Ni  Ni21  1  0.67007915  0.33484951  0.99987579  1
  Fe  Fe22  1  0.83652359  0.49983397  0.16727740  1
  Fe  Fe23  1  0.66848859  0.33262386  0.33502091  1
  Fe  Fe24  1  0.66907416  0.66591034  0.00136485  1
  Fe  Fe25  1  0.83633844  0.83566720  0.16787745  1
  Cr  Cr26  1  0.66886327  0.66865140  0.33425102  1
  Fe  Fe27  1  0.16976161  0.16446107  0.49885226  1
  Fe  Fe28  1  0.00119662  1.00097645  0.66785374  1
  Fe  Fe29  1  0.16750761  0.16532012  0.83491558  1
  Cr  Cr30  1  0.16781834  0.50240859  0.49942940  1
  Cr  Cr31  1  1.00098143  0.33270612  0.66935728  1
  Fe  Fe32  1  0.16723507  0.50194234  0.83543612  1
  Ni  Ni33  1  0.16784090  0.83664592  0.50131312  1
  Cr  Cr34  1  0.00133826  0.66998780  0.66828571  1
  Ni  Ni35  1  0.16662126  0.83533078  0.83376390  1
  Ni  Ni36  1  0.50280538  0.16605381  0.50027251  1
  Ni  Ni37  1  0.33415648  1.00019241  0.66760880  1
  Fe  Fe38  1  0.50204117  0.16687343  0.83453891  1
  Ni  Ni39  1  0.50200847  0.49994973  0.50042506  1
  Cr  Cr40  1  0.33542850  0.33327889  0.66938959  1
  Ni  Ni41  1  0.50202690  0.50023978  0.83466159  1
  Ni  Ni42  1  0.50010908  0.83725601  0.50216751  1
  Fe  Fe43  1  0.33520853  0.67003324  0.66768616  1
  Cr  Cr44  1  0.50010678  0.83519195  0.83334502  1
  Fe  Fe45  1  0.83348235  0.16562836  0.49931025  1
  Ni  Ni46  1  0.66738428  1.00097137  0.66756800  1
  Ni  Ni47  1  0.83436960  0.16744989  0.83580936  1
  Fe  Fe48  1  0.83332988  0.50108163  0.49864965  1
  Cr  Cr49  1  0.66685478  0.33319869  0.66709129  1
  Fe  Fe50  1  0.83396423  0.50096002  0.83732994  1
  Fe  Fe51  1  0.83409378  0.83655400  0.49994762  1
  Cr  Cr52  1  0.66716197  0.66882898  0.66679338  1
  Fe  Fe53  1  0.83550466  0.83597154  0.83544092  1
" 