3282,Ni36Fe2Cr60_13,-213.823878194712, 137.781420277836,Ni36Fe2Cr60,"# generated using pymatgen
 data_Cr34FeNi19
_symmetry_space_group_name_H-M   'P 1'
_cell_length_a   7.55272195
_cell_length_b   7.55272195
_cell_length_c   10.68116181
_cell_angle_alpha   90.00000000
_cell_angle_beta   90.00000000
_cell_angle_gamma   90.00000000
_symmetry_Int_Tables_number   1
_chemical_formula_structural   Cr34FeNi19
_chemical_formula_sum   'Cr34 Fe1 Ni19'
_cell_volume   609.29201646
_cell_formula_units_Z   1
loop_
 _symmetry_equiv_pos_site_id
 _symmetry_equiv_pos_as_xyz
  1  'x, y, z'
loop_
 _atom_site_type_symbol
 _atom_site_label
 _atom_site_symmetry_multiplicity
 _atom_site_fract_x
 _atom_site_fract_y
 _atom_site_fract_z
 _atom_site_occupancy
  Cr  Cr0  1  0.99194692  0.99370545  -0.00110918  1
  Cr  Cr1  1  0.15971058  0.16216468  0.16073828  1
  Cr  Cr2  1  -0.00477676  0.99263867  0.32702819  1
  Ni  Ni3  1  0.99075567  0.32906926  -0.00408164  1
  Cr  Cr4  1  0.16064132  0.49677401  0.15792528  1
  Cr  Cr5  1  0.99252752  0.32710930  0.32762392  1
  Ni  Ni6  1  0.99236744  0.65967928  -0.00318536  1
  Cr  Cr7  1  0.16058650  0.82366088  0.16146005  1
  Ni  Ni8  1  0.99206371  0.66073495  0.32705498  1
  Cr  Cr9  1  0.32948182  0.99417644  0.99297880  1
  Cr  Cr10  1  0.49741990  0.16085558  0.16173822  1
  Cr  Cr11  1  0.32533798  0.99351037  0.33092184  1
  Cr  Cr12  1  0.32860413  0.32696392  0.99368178  1
  Cr  Cr13  1  0.49415250  0.49626540  0.16508685  1
  Cr  Cr14  1  0.32781301  0.32648115  0.32803267  1
  Ni  Ni15  1  0.32813546  0.66336478  0.99327528  1
  Cr  Cr16  1  0.49475909  0.82585203  0.16174871  1
  Ni  Ni17  1  0.32762332  0.66349751  0.32946221  1
  Fe  Fe18  1  0.66133530  0.99372151  -0.00547082  1
  Ni  Ni19  1  0.82664593  0.16231971  0.15989008  1
  Cr  Cr20  1  0.66290490  0.99331427  0.32476141  1
  Cr  Cr21  1  0.66188053  0.32752471  -0.00420278  1
  Ni  Ni22  1  0.82865937  0.49556407  0.16252437  1
  Ni  Ni23  1  0.66530682  0.33095822  0.32617306  1
  Cr  Cr24  1  0.66180498  0.66181988  0.99369522  1
  Ni  Ni25  1  0.82744909  0.82496204  0.16087585  1
  Ni  Ni26  1  0.66362262  0.65981950  0.32784661  1
  Ni  Ni27  1  0.16114188  0.15922763  0.49699138  1
  Cr  Cr28  1  -0.00245532  0.99355582  0.65741326  1
  Cr  Cr29  1  0.15948728  0.16188100  0.82621917  1
  Cr  Cr30  1  0.15943765  0.49525296  0.49393408  1
  Ni  Ni31  1  0.99417501  0.32732739  0.65904059  1
  Cr  Cr32  1  0.15892713  0.49487746  0.83149533  1
  Ni  Ni33  1  0.16356395  0.82768749  0.49312799  1
  Cr  Cr34  1  0.99345318  0.66013607  0.65924042  1
  Cr  Cr35  1  0.16109942  0.82596482  0.82912291  1
  Cr  Cr36  1  0.49604316  0.15905632  0.49447668  1
  Ni  Ni37  1  0.33051964  0.99323581  0.65978982  1
  Ni  Ni38  1  0.49540408  0.15583392  0.82665204  1
  Cr  Cr39  1  0.49687142  0.49639941  0.48914354  1
  Cr  Cr40  1  0.32704235  0.32521882  0.66164566  1
  Cr  Cr41  1  0.49264306  0.49543576  0.82878941  1
  Ni  Ni42  1  0.49293006  0.82794745  0.49453330  1
  Cr  Cr43  1  0.32913855  0.66445624  0.66138449  1
  Ni  Ni44  1  0.49393852  0.83200585  0.82736469  1
  Cr  Cr45  1  0.82653505  0.16228262  0.49611622  1
  Ni  Ni46  1  0.65591975  0.99321616  0.66349494  1
  Cr  Cr47  1  0.82647387  0.15997783  0.82644737  1
  Ni  Ni48  1  0.82837567  0.49449946  0.49189921  1
  Cr  Cr49  1  0.66122931  0.32981558  0.66054099  1
  Cr  Cr50  1  0.83124149  0.49351848  0.82627056  1
  Cr  Cr51  1  0.82544229  0.82652326  0.49365516  1
  Cr  Cr52  1  0.66004768  0.66234019  0.66009741  1
  Cr  Cr53  1  0.82633960  0.82954404  0.82836482  1
" 