417,Ni36Fe3Cr60_16,-214.095886486927, 143.244384014778,Ni36Fe3Cr60,"# generated using pymatgen
 data_Cr34FeNi19
_symmetry_space_group_name_H-M   'P 1'
_cell_length_a   7.54430574
_cell_length_b   7.54430574
_cell_length_c   10.66925950
_cell_angle_alpha   90.00000000
_cell_angle_beta   90.00000000
_cell_angle_gamma   90.00000000
_symmetry_Int_Tables_number   1
_chemical_formula_structural   Cr34FeNi19
_chemical_formula_sum   'Cr34 Fe1 Ni19'
_cell_volume   607.25743190
_cell_formula_units_Z   1
loop_
 _symmetry_equiv_pos_site_id
 _symmetry_equiv_pos_as_xyz
  1  'x, y, z'
loop_
 _atom_site_type_symbol
 _atom_site_label
 _atom_site_symmetry_multiplicity
 _atom_site_fract_x
 _atom_site_fract_y
 _atom_site_fract_z
 _atom_site_occupancy
  Cr  Cr0  1  -0.00248031  -0.00508444  0.99307023  1
  Cr  Cr1  1  0.16311113  0.16182779  0.16252544  1
  Ni  Ni2  1  -0.00214423  -0.00452318  0.32826186  1
  Cr  Cr3  1  -0.00182165  0.33076811  0.99272388  1
  Ni  Ni4  1  0.16610468  0.49541353  0.15945012  1
  Cr  Cr5  1  -0.00108561  0.32792409  0.32872052  1
  Ni  Ni6  1  -0.00093114  0.65975448  0.99404786  1
  Cr  Cr7  1  0.16120967  0.82775857  0.16082490  1
  Cr  Cr8  1  -0.00427539  0.66099306  0.32598839  1
  Ni  Ni9  1  0.32643470  0.99292558  0.99389773  1
  Cr  Cr10  1  0.49124758  0.16211471  0.15988501  1
  Ni  Ni11  1  0.32641919  -0.00332276  0.32824093  1
  Fe  Fe12  1  0.32591311  0.33069802  0.99445146  1
  Ni  Ni13  1  0.48942162  0.49615384  0.16074128  1
  Ni  Ni14  1  0.32697580  0.32722815  0.32641063  1
  Ni  Ni15  1  0.32549734  0.66116350  -0.00471978  1
  Ni  Ni16  1  0.49222824  0.82747749  0.16074340  1
  Cr  Cr17  1  0.32940746  0.65991713  0.32729775  1
  Cr  Cr18  1  0.65907694  0.99355565  -0.00384641  1
  Cr  Cr19  1  0.83009578  0.15938801  0.16245717  1
  Cr  Cr20  1  0.65989293  0.99295886  0.32641576  1
  Cr  Cr21  1  0.66079858  0.33013028  -0.00449513  1
  Cr  Cr22  1  0.83135302  0.49592113  0.16046559  1
  Cr  Cr23  1  0.65880396  0.33037802  0.32667898  1
  Cr  Cr24  1  0.66040515  0.66093868  -0.00234415  1
  Ni  Ni25  1  0.82896641  0.82762753  0.16162706  1
  Cr  Cr26  1  0.65949161  0.66129050  0.32589359  1
  Ni  Ni27  1  0.16300601  0.16308163  0.49397851  1
  Cr  Cr28  1  -0.00168762  -0.00250123  0.66231728  1
  Ni  Ni29  1  0.16373976  0.16357859  0.82765641  1
  Cr  Cr30  1  0.16329880  0.49296621  0.49560932  1
  Ni  Ni31  1  -0.00184633  0.32820725  0.66341715  1
  Ni  Ni32  1  0.16190436  0.49520677  0.82844285  1
  Cr  Cr33  1  0.16209173  0.82922634  0.49395709  1
  Cr  Cr34  1  -0.00173799  0.65974953  0.66437291  1
  Ni  Ni35  1  0.16371705  0.82594805  0.82999513  1
  Cr  Cr36  1  0.49181137  0.16399663  0.49549424  1
  Cr  Cr37  1  0.32546335  -0.00499463  0.66251028  1
  Cr  Cr38  1  0.49245213  0.16335220  0.82916360  1
  Cr  Cr39  1  0.49272821  0.49292204  0.49722856  1
  Ni  Ni40  1  0.32443542  0.32863482  0.66296296  1
  Cr  Cr41  1  0.49290295  0.49429898  0.82679668  1
  Cr  Cr42  1  0.49202049  0.82738546  0.49604683  1
  Ni  Ni43  1  0.32543201  0.65884873  0.66372892  1
  Cr  Cr44  1  0.49066082  0.82686211  0.82852487  1
  Cr  Cr45  1  0.83048321  0.16266946  0.49528158  1
  Cr  Cr46  1  0.66052928  -0.00432035  0.66234444  1
  Cr  Cr47  1  0.82821900  0.16467311  0.82683627  1
  Cr  Cr48  1  0.82882303  0.49363007  0.49792262  1
  Ni  Ni49  1  0.66217069  0.32954778  0.66281312  1
  Ni  Ni50  1  0.83101739  0.49409890  0.82683223  1
  Cr  Cr51  1  0.83046620  0.82842912  0.49288538  1
  Cr  Cr52  1  0.66043887  0.66097144  0.66119116  1
  Cr  Cr53  1  0.83084739  0.82565877  0.82977962  1
" 