1497,Ni36Fe3Cr60_3,-214.049479542331, 143.788373699664,Ni36Fe3Cr60,"# generated using pymatgen
 data_Cr34FeNi19
_symmetry_space_group_name_H-M   'P 1'
_cell_length_a   7.54386399
_cell_length_b   7.54386399
_cell_length_c   10.66863476
_cell_angle_alpha   90.00000000
_cell_angle_beta   90.00000000
_cell_angle_gamma   90.00000000
_symmetry_Int_Tables_number   1
_chemical_formula_structural   Cr34FeNi19
_chemical_formula_sum   'Cr34 Fe1 Ni19'
_cell_volume   607.15076512
_cell_formula_units_Z   1
loop_
 _symmetry_equiv_pos_site_id
 _symmetry_equiv_pos_as_xyz
  1  'x, y, z'
loop_
 _atom_site_type_symbol
 _atom_site_label
 _atom_site_symmetry_multiplicity
 _atom_site_fract_x
 _atom_site_fract_y
 _atom_site_fract_z
 _atom_site_occupancy
  Ni  Ni0  1  0.99374990  -0.00408634  -0.00404871  1
  Cr  Cr1  1  0.16115430  0.16145659  0.16202604  1
  Cr  Cr2  1  0.99156866  -0.00410486  0.32812815  1
  Cr  Cr3  1  -0.00278749  0.32590034  -0.00490004  1
  Ni  Ni4  1  0.15892300  0.49482477  0.16431301  1
  Ni  Ni5  1  0.99189519  0.33019500  0.32881890  1
  Cr  Cr6  1  -0.00461754  0.66103799  -0.00391771  1
  Cr  Cr7  1  0.16022400  0.82701705  0.16336178  1
  Ni  Ni8  1  0.99333385  0.65911015  0.32960103  1
  Cr  Cr9  1  0.32750010  -0.00446801  0.99356521  1
  Cr  Cr10  1  0.49617327  0.16293927  0.16504700  1
  Ni  Ni11  1  0.32776515  -0.00477042  0.32815979  1
  Cr  Cr12  1  0.32597681  0.33082317  0.99204892  1
  Cr  Cr13  1  0.49608237  0.49305432  0.16221190  1
  Cr  Cr14  1  0.32633175  0.33008309  0.32927656  1
  Cr  Cr15  1  0.32886006  0.65864439  0.99289409  1
  Cr  Cr16  1  0.49315228  0.82914759  0.16238581  1
  Cr  Cr17  1  0.32751134  0.65957264  0.32926298  1
  Cr  Cr18  1  0.66522121  0.99336188  -0.00329487  1
  Ni  Ni19  1  0.83013150  0.16196478  0.16315325  1
  Cr  Cr20  1  0.66468394  -0.00506799  0.32861146  1
  Cr  Cr21  1  0.66171400  0.32806181  -0.00445378  1
  Cr  Cr22  1  0.82953185  0.49380392  0.16290897  1
  Ni  Ni23  1  0.66576058  0.32826428  0.33048346  1
  Cr  Cr24  1  0.66002993  0.66345183  0.99484963  1
  Ni  Ni25  1  0.83163159  0.82902597  0.16188046  1
  Cr  Cr26  1  0.66428893  0.66207115  0.32861058  1
  Cr  Cr27  1  0.16144533  0.16086662  0.49339194  1
  Cr  Cr28  1  0.99195608  -0.00405259  0.66101309  1
  Ni  Ni29  1  0.16061162  0.16237047  0.82948954  1
  Fe  Fe30  1  0.15789235  0.49500592  0.49416628  1
  Cr  Cr31  1  -0.00441357  0.32898048  0.66046594  1
  Ni  Ni32  1  0.16110632  0.49505710  0.82658164  1
  Cr  Cr33  1  0.15950156  0.82642374  0.49350940  1
  Ni  Ni34  1  0.99453528  0.65929760  0.65894079  1
  Cr  Cr35  1  0.15953308  0.82846791  0.82758042  1
  Cr  Cr36  1  0.49681994  0.16332040  0.49399723  1
  Cr  Cr37  1  0.32850573  -0.00447885  0.66250673  1
  Cr  Cr38  1  0.49691981  0.16216127  0.82604491  1
  Ni  Ni39  1  0.49880372  0.49283227  0.49515563  1
  Cr  Cr40  1  0.32733539  0.33049451  0.66336185  1
  Ni  Ni41  1  0.49490057  0.49530764  0.82683745  1
  Cr  Cr42  1  0.49376131  0.82953762  0.49499718  1
  Cr  Cr43  1  0.32787778  0.65872610  0.66242836  1
  Ni  Ni44  1  0.49540358  0.82735459  0.82702710  1
  Ni  Ni45  1  0.82704789  0.16488053  0.49475064  1
  Ni  Ni46  1  0.66333306  -0.00445987  0.66017774  1
  Cr  Cr47  1  0.82828746  0.16268776  0.82761982  1
  Ni  Ni48  1  0.82846719  0.49414045  0.49414478  1
  Ni  Ni49  1  0.66162704  0.32899697  0.65894119  1
  Cr  Cr50  1  0.82761774  0.49466978  0.82669268  1
  Ni  Ni51  1  0.83000563  0.82585826  0.49589815  1
  Cr  Cr52  1  0.66128545  0.66210433  0.66091866  1
  Cr  Cr53  1  0.82911110  0.82720362  0.82744598  1
" 