3753,Ni36Fe41Cr21_9,-230.400022480503, 192.633332772244,Ni36Fe41Cr21,"# generated using pymatgen
 data_Cr13Fe22Ni19
_symmetry_space_group_name_H-M   'P 1'
_cell_length_a   7.45040660
_cell_length_b   7.45040660
_cell_length_c   10.53646605
_cell_angle_alpha   90.00000000
_cell_angle_beta   90.00000000
_cell_angle_gamma   90.00000000
_symmetry_Int_Tables_number   1
_chemical_formula_structural   Cr13Fe22Ni19
_chemical_formula_sum   'Cr13 Fe22 Ni19'
_cell_volume   584.86404167
_cell_formula_units_Z   1
loop_
 _symmetry_equiv_pos_site_id
 _symmetry_equiv_pos_as_xyz
  1  'x, y, z'
loop_
 _atom_site_type_symbol
 _atom_site_label
 _atom_site_symmetry_multiplicity
 _atom_site_fract_x
 _atom_site_fract_y
 _atom_site_fract_z
 _atom_site_occupancy
  Cr  Cr0  1  0.99717364  1.00002897  0.00232772  1
  Fe  Fe1  1  0.16804985  0.16807739  0.16864986  1
  Ni  Ni2  1  0.99785346  0.99985426  0.33389712  1
  Ni  Ni3  1  0.00242508  0.33418181  0.00324839  1
  Cr  Cr4  1  0.16667155  0.50174162  0.16782488  1
  Ni  Ni5  1  0.99912933  0.33436276  0.33472753  1
  Fe  Fe6  1  1.00026730  0.66741662  0.00124631  1
  Cr  Cr7  1  0.16947112  0.83624414  0.16937627  1
  Ni  Ni8  1  0.99972246  0.66904797  0.33513329  1
  Fe  Fe9  1  0.33779474  1.00075385  0.00172261  1
  Fe  Fe10  1  0.50212572  0.16545350  0.16657854  1
  Fe  Fe11  1  0.33642780  1.00103426  0.33453911  1
  Ni  Ni12  1  0.33487081  0.33415754  0.00148202  1
  Cr  Cr13  1  0.50465875  0.50399791  0.16735569  1
  Cr  Cr14  1  0.33719025  0.33600815  0.33517968  1
  Ni  Ni15  1  0.33600215  0.66783811  0.99962002  1
  Ni  Ni16  1  0.50248908  0.83592601  0.16824898  1
  Fe  Fe17  1  0.33594368  0.66994321  0.33606607  1
  Ni  Ni18  1  0.66675618  0.99932244  1.00071642  1
  Fe  Fe19  1  0.83275929  0.16802378  0.16922577  1
  Ni  Ni20  1  0.66820550  1.00006489  0.33458610  1
  Fe  Fe21  1  0.66755961  0.33218921  0.00253541  1
  Fe  Fe22  1  0.83465397  0.50186904  0.16881411  1
  Ni  Ni23  1  0.66826664  0.33277299  0.33403510  1
  Ni  Ni24  1  0.66752219  0.67222873  0.00313322  1
  Fe  Fe25  1  0.83132176  0.83323400  0.16889111  1
  Fe  Fe26  1  0.67020719  0.66794549  0.33509999  1
  Cr  Cr27  1  0.16516309  0.16427801  0.49890814  1
  Cr  Cr28  1  0.99820117  0.99902435  0.66680645  1
  Cr  Cr29  1  0.16889336  0.16727597  0.83560046  1
  Fe  Fe30  1  0.16648472  0.50313287  0.49965989  1
  Ni  Ni31  1  1.00012168  0.33530709  0.66487726  1
  Fe  Fe32  1  0.16782168  0.50139484  0.83652858  1
  Fe  Fe33  1  0.16866511  0.83106320  0.49879182  1
  Cr  Cr34  1  0.00142661  0.66724196  0.66964554  1
  Fe  Fe35  1  0.17048015  0.83266642  0.83552442  1
  Fe  Fe36  1  0.50485705  0.16780633  0.50126886  1
  Fe  Fe37  1  0.33704917  0.99919171  0.66742553  1
  Ni  Ni38  1  0.50089875  0.16557241  0.83499434  1
  Ni  Ni39  1  0.50489549  0.50388525  0.50032195  1
  Cr  Cr40  1  0.33541540  0.33731740  0.66664121  1
  Cr  Cr41  1  0.50306762  0.50189543  0.83566637  1
  Fe  Fe42  1  0.50183547  0.83390709  0.49975190  1
  Ni  Ni43  1  0.33638044  0.66945213  0.66674990  1
  Fe  Fe44  1  0.50274583  0.83525456  0.83513566  1
  Fe  Fe45  1  0.83122936  0.16963338  0.49961373  1
  Fe  Fe46  1  0.66457696  0.99967645  0.66751138  1
  Cr  Cr47  1  0.83188013  0.16900055  0.83111425  1
  Ni  Ni48  1  0.83232472  0.50063557  0.49998299  1
  Ni  Ni49  1  0.66650797  0.33430783  0.66558384  1
  Cr  Cr50  1  0.83270799  0.50145544  0.83638766  1
  Fe  Fe51  1  0.83244571  0.83321320  0.49989312  1
  Ni  Ni52  1  0.66636660  0.66962835  0.66626987  1
  Ni  Ni53  1  0.83234509  0.83336998  0.83538998  1
" 