7298,Ni36Fe35Cr27_14,-228.792059046325, 191.372507965628,Ni36Fe35Cr27,"# generated using pymatgen
 data_Cr16(FeNi)19
_symmetry_space_group_name_H-M   'P 1'
_cell_length_a   7.46083027
_cell_length_b   7.46083027
_cell_length_c   10.55120736
_cell_angle_alpha   90.00000000
_cell_angle_beta   90.00000000
_cell_angle_gamma   90.00000000
_symmetry_Int_Tables_number   1
_chemical_formula_structural   Cr16(FeNi)19
_chemical_formula_sum   'Cr16 Fe19 Ni19'
_cell_volume   587.32228403
_cell_formula_units_Z   1
loop_
 _symmetry_equiv_pos_site_id
 _symmetry_equiv_pos_as_xyz
  1  'x, y, z'
loop_
 _atom_site_type_symbol
 _atom_site_label
 _atom_site_symmetry_multiplicity
 _atom_site_fract_x
 _atom_site_fract_y
 _atom_site_fract_z
 _atom_site_occupancy
  Ni  Ni0  1  0.99953415  0.00110916  0.00433217  1
  Ni  Ni1  1  0.16809849  0.16566417  0.16801946  1
  Fe  Fe2  1  0.00466060  0.00199325  0.33230457  1
  Fe  Fe3  1  0.00484264  0.32967556  0.00209474  1
  Ni  Ni4  1  0.16780316  0.49718347  0.16512357  1
  Ni  Ni5  1  0.00212068  0.33437206  0.33362540  1
  Cr  Cr6  1  0.00131705  0.66526941  0.99969384  1
  Ni  Ni7  1  0.16689842  0.83733845  0.16740559  1
  Cr  Cr8  1  0.00285399  0.66550637  0.33311114  1
  Ni  Ni9  1  0.33500295  0.00380119  0.00111749  1
  Ni  Ni10  1  0.50009846  0.16890978  0.16441178  1
  Ni  Ni11  1  0.33377164  0.00241033  0.33233190  1
  Ni  Ni12  1  0.33342807  0.33171154  0.00278003  1
  Ni  Ni13  1  0.50156717  0.49804202  0.16861589  1
  Fe  Fe14  1  0.33141948  0.33246287  0.33159224  1
  Cr  Cr15  1  0.33260418  0.66460468  0.00375630  1
  Fe  Fe16  1  0.49815394  0.83531577  0.16584634  1
  Cr  Cr17  1  0.33242232  0.66488054  0.33146860  1
  Ni  Ni18  1  0.66629937  0.00150775  0.00091607  1
  Fe  Fe19  1  0.83557896  0.16799173  0.16637308  1
  Cr  Cr20  1  0.66524544  0.00254953  0.33008595  1
  Fe  Fe21  1  0.66398230  0.33156641  0.00094351  1
  Cr  Cr22  1  0.83206078  0.49868348  0.16570741  1
  Fe  Fe23  1  0.66456649  0.33530477  0.33324478  1
  Fe  Fe24  1  0.66498580  0.66988461  1.00027078  1
  Fe  Fe25  1  0.83368625  0.83529825  0.16587369  1
  Fe  Fe26  1  0.66577742  0.66528317  0.33368013  1
  Fe  Fe27  1  0.16925296  0.16746641  0.49889041  1
  Cr  Cr28  1  0.00167106  0.00160682  0.66393059  1
  Ni  Ni29  1  0.16769502  0.16767885  0.83373509  1
  Ni  Ni30  1  0.16845617  0.49862185  0.50225906  1
  Fe  Fe31  1  0.00266833  0.33420455  0.66651083  1
  Fe  Fe32  1  0.16816383  0.49509761  0.83345904  1
  Ni  Ni33  1  0.16944794  0.83385368  0.50021448  1
  Cr  Cr34  1  0.00129402  0.66435646  0.66768664  1
  Cr  Cr35  1  0.17006214  0.83650715  0.83320715  1
  Cr  Cr36  1  0.49857754  0.17007932  0.50242507  1
  Ni  Ni37  1  0.33291822  0.00272385  0.66808735  1
  Fe  Fe38  1  0.49592871  0.16790916  0.83509071  1
  Fe  Fe39  1  0.49972654  0.50061650  0.50157077  1
  Ni  Ni40  1  0.33285221  0.33372610  0.66637327  1
  Cr  Cr41  1  0.50013046  0.50011644  0.83298759  1
  Cr  Cr42  1  0.49732015  0.83181644  0.50318427  1
  Ni  Ni43  1  0.33330631  0.66480445  0.66632839  1
  Fe  Fe44  1  0.49980998  0.83515869  0.83391955  1
  Cr  Cr45  1  0.83530705  0.17051306  0.49794402  1
  Cr  Cr46  1  0.66552113  0.00236457  0.67107560  1
  Cr  Cr47  1  0.83520334  0.16935096  0.83606645  1
  Fe  Fe48  1  0.83300555  0.49971085  0.49980426  1
  Ni  Ni49  1  0.66706237  0.33647080  0.66648554  1
  Fe  Fe50  1  0.83409584  0.49932044  0.83389988  1
  Cr  Cr51  1  0.83429380  0.83304092  0.49914838  1
  Ni  Ni52  1  0.66761918  0.66374180  0.66767465  1
  Fe  Fe53  1  0.83232988  0.83332185  0.83581441  1
" 