4665,Ni36Fe41Cr21_12,-230.243814101985, 190.338517439545,Ni36Fe41Cr21,"# generated using pymatgen
 data_Cr13Fe22Ni19
_symmetry_space_group_name_H-M   'P 1'
_cell_length_a   7.44635202
_cell_length_b   7.44635202
_cell_length_c   10.53073202
_cell_angle_alpha   90.00000000
_cell_angle_beta   90.00000000
_cell_angle_gamma   90.00000000
_symmetry_Int_Tables_number   1
_chemical_formula_structural   Cr13Fe22Ni19
_chemical_formula_sum   'Cr13 Fe22 Ni19'
_cell_volume   583.90969698
_cell_formula_units_Z   1
loop_
 _symmetry_equiv_pos_site_id
 _symmetry_equiv_pos_as_xyz
  1  'x, y, z'
loop_
 _atom_site_type_symbol
 _atom_site_label
 _atom_site_symmetry_multiplicity
 _atom_site_fract_x
 _atom_site_fract_y
 _atom_site_fract_z
 _atom_site_occupancy
  Ni  Ni0  1  0.99991485  0.00249402  0.00257985  1
  Fe  Fe1  1  0.16661965  0.16753354  0.17013845  1
  Fe  Fe2  1  0.00168917  1.00053041  0.33490417  1
  Fe  Fe3  1  0.99883256  0.33340494  0.00444299  1
  Fe  Fe4  1  0.16740945  0.50391120  0.16934027  1
  Ni  Ni5  1  0.00157469  0.33521014  0.33494636  1
  Fe  Fe6  1  0.00210942  0.67063222  0.00421007  1
  Ni  Ni7  1  0.16770800  0.83446601  0.16743353  1
  Fe  Fe8  1  0.00297203  0.66823246  0.33499201  1
  Cr  Cr9  1  0.33377218  0.99994023  0.00164062  1
  Fe  Fe10  1  0.50275988  0.16685478  0.17008098  1
  Ni  Ni11  1  0.33394273  1.00057787  0.33367410  1
  Cr  Cr12  1  0.33421341  0.33600067  0.00378647  1
  Ni  Ni13  1  0.50266630  0.50154451  0.16785528  1
  Fe  Fe14  1  0.33421887  0.33609683  0.33367581  1
  Ni  Ni15  1  0.33702019  0.66742661  0.00319587  1
  Ni  Ni16  1  0.50011639  0.83487926  0.16867460  1
  Fe  Fe17  1  0.33345943  0.66905143  0.33302077  1
  Ni  Ni18  1  0.67039329  1.00001244  0.00477824  1
  Fe  Fe19  1  0.83485841  0.16730735  0.16884157  1
  Fe  Fe20  1  0.66904208  0.00146104  0.33470839  1
  Fe  Fe21  1  0.66892747  0.33415270  0.00431926  1
  Ni  Ni22  1  0.83589756  0.49973342  0.16808629  1
  Fe  Fe23  1  0.66982405  0.33455260  0.33279280  1
  Ni  Ni24  1  0.66719454  0.66703897  0.00313739  1
  Fe  Fe25  1  0.83465227  0.83293064  0.16748106  1
  Cr  Cr26  1  0.66834790  0.66928119  0.33464741  1
  Fe  Fe27  1  0.16786135  0.16632813  0.49829060  1
  Cr  Cr28  1  0.99980902  1.00019397  0.66673320  1
  Cr  Cr29  1  0.16570041  0.16793774  0.83491370  1
  Fe  Fe30  1  0.16821039  0.50230562  0.50035750  1
  Cr  Cr31  1  0.00191808  0.33454840  0.66672578  1
  Cr  Cr32  1  0.16751321  0.50495283  0.83661308  1
  Ni  Ni33  1  0.16863255  0.83201187  0.50058705  1
  Ni  Ni34  1  1.00012638  0.66757326  0.66562087  1
  Ni  Ni35  1  0.16683515  0.83103859  0.83551243  1
  Cr  Cr36  1  0.50190492  0.16791859  0.49969579  1
  Cr  Cr37  1  0.33350626  0.00154318  0.66853916  1
  Cr  Cr38  1  0.50576974  0.16922680  0.83460238  1
  Fe  Fe39  1  0.50104109  0.50343490  0.50099603  1
  Ni  Ni40  1  0.33609892  0.33874958  0.66574416  1
  Fe  Fe41  1  0.50191274  0.50230763  0.83493109  1
  Ni  Ni42  1  0.49987911  0.83467949  0.50080851  1
  Fe  Fe43  1  0.33342577  0.66770904  0.66645719  1
  Cr  Cr44  1  0.50168589  0.83287147  0.83444528  1
  Ni  Ni45  1  0.83412891  0.16934215  0.49994105  1
  Ni  Ni46  1  0.66971161  0.99984073  0.66575246  1
  Ni  Ni47  1  0.83220917  0.16895910  0.83663789  1
  Fe  Fe48  1  0.83522735  0.50242902  0.49979557  1
  Fe  Fe49  1  0.66893491  0.33472022  0.66651427  1
  Cr  Cr50  1  0.83369260  0.50102085  0.83575013  1
  Ni  Ni51  1  0.83548925  0.83538086  0.50032677  1
  Fe  Fe52  1  0.66816012  0.66792469  0.66528417  1
  Cr  Cr53  1  0.83551921  0.83483469  0.83608018  1
" 