5360,Ni36Fe24Cr39_11,-223.922442459622, 177.71308714675,Ni36Fe24Cr39,"# generated using pymatgen
 data_Cr23Fe12Ni19
_symmetry_space_group_name_H-M   'P 1'
_cell_length_a   7.49185419
_cell_length_b   7.49185419
_cell_length_c   10.59508180
_cell_angle_alpha   90.00000000
_cell_angle_beta   90.00000000
_cell_angle_gamma   90.00000000
_symmetry_Int_Tables_number   1
_chemical_formula_structural   Cr23Fe12Ni19
_chemical_formula_sum   'Cr23 Fe12 Ni19'
_cell_volume   594.67947182
_cell_formula_units_Z   1
loop_
 _symmetry_equiv_pos_site_id
 _symmetry_equiv_pos_as_xyz
  1  'x, y, z'
loop_
 _atom_site_type_symbol
 _atom_site_label
 _atom_site_symmetry_multiplicity
 _atom_site_fract_x
 _atom_site_fract_y
 _atom_site_fract_z
 _atom_site_occupancy
  Fe  Fe0  1  0.99631631  0.99695734  0.00022642  1
  Cr  Cr1  1  0.16224116  0.16417471  0.16372026  1
  Ni  Ni2  1  0.99621872  0.99738453  0.32863096  1
  Fe  Fe3  1  0.99704129  0.33285396  -0.00104046  1
  Fe  Fe4  1  0.16424601  0.49958285  0.16148802  1
  Cr  Cr5  1  0.99424177  0.33290800  0.33089882  1
  Fe  Fe6  1  0.99754162  0.66507674  -0.00040109  1
  Ni  Ni7  1  0.16235789  0.83011051  0.16407731  1
  Cr  Cr8  1  0.99406380  0.66500121  0.32852874  1
  Cr  Cr9  1  0.33227390  0.99679065  0.99746108  1
  Cr  Cr10  1  0.50321999  0.16804617  0.16591942  1
  Cr  Cr11  1  0.33279544  0.99638721  0.33315090  1
  Ni  Ni12  1  0.33079168  0.33326642  0.99760239  1
  Ni  Ni13  1  0.49940499  0.49875700  0.16418590  1
  Cr  Cr14  1  0.33344097  0.33094528  0.33303339  1
  Fe  Fe15  1  0.33288154  0.66333543  -0.00056705  1
  Fe  Fe16  1  0.50199838  0.82983438  0.16500866  1
  Cr  Cr17  1  0.33414787  0.66749567  0.32682485  1
  Fe  Fe18  1  0.66711640  0.99695120  0.99826139  1
  Ni  Ni19  1  0.83082449  0.16371990  0.16478167  1
  Fe  Fe20  1  0.66692675  0.99669304  0.33104577  1
  Fe  Fe21  1  0.66522750  0.33401861  -0.00010125  1
  Ni  Ni22  1  0.82852389  0.49803149  0.16542866  1
  Ni  Ni23  1  0.66711474  0.33375819  0.32983711  1
  Cr  Cr24  1  0.66699517  0.66569448  0.99637141  1
  Ni  Ni25  1  0.83327046  0.83329418  0.16577275  1
  Ni  Ni26  1  0.66611586  0.66434500  0.33121870  1
  Cr  Cr27  1  0.16365449  0.16296145  0.49906025  1
  Fe  Fe28  1  0.99646865  0.99672544  0.66660541  1
  Ni  Ni29  1  0.16340925  0.16490602  0.83300354  1
  Cr  Cr30  1  0.16450691  0.50146456  0.49923515  1
  Cr  Cr31  1  0.99662793  0.33415905  0.66539347  1
  Cr  Cr32  1  0.16716862  0.49881050  0.83327465  1
  Cr  Cr33  1  0.16405002  0.83065149  0.50035514  1
  Ni  Ni34  1  0.99430936  0.66512175  0.66654881  1
  Cr  Cr35  1  0.16278426  0.83132836  0.82993232  1
  Fe  Fe36  1  0.50250777  0.16266373  0.49765987  1
  Cr  Cr37  1  0.33474855  0.99740465  0.66462560  1
  Cr  Cr38  1  0.49892045  0.16668268  0.83313311  1
  Cr  Cr39  1  0.50107941  0.50072340  0.49866224  1
  Cr  Cr40  1  0.33191962  0.33038298  0.66522466  1
  Ni  Ni41  1  0.49865898  0.50085556  0.83231057  1
  Ni  Ni42  1  0.50078581  0.83135349  0.49869402  1
  Ni  Ni43  1  0.33382388  0.66773974  0.66738403  1
  Ni  Ni44  1  0.50087594  0.82847877  0.83034314  1
  Cr  Cr45  1  0.82950061  0.16351631  0.49545597  1
  Ni  Ni46  1  0.66405796  0.99369711  0.66576773  1
  Cr  Cr47  1  0.83290056  0.16228855  0.83484207  1
  Ni  Ni48  1  0.82833017  0.49963236  0.49819010  1
  Cr  Cr49  1  0.66660404  0.33370416  0.66585063  1
  Ni  Ni50  1  0.83016624  0.50109318  0.83124482  1
  Cr  Cr51  1  0.83007064  0.83080816  0.49991624  1
  Fe  Fe52  1  0.66460115  0.66685058  0.66693019  1
  Ni  Ni53  1  0.83072934  0.83118106  0.82959073  1
" 