8797,Ni36Fe24Cr39_10,-223.441833437749, 171.518086992756,Ni36Fe24Cr39,"# generated using pymatgen
 data_Cr23Fe12Ni19
_symmetry_space_group_name_H-M   'P 1'
_cell_length_a   7.49243060
_cell_length_b   7.49243060
_cell_length_c   10.59589697
_cell_angle_alpha   90.00000000
_cell_angle_beta   90.00000000
_cell_angle_gamma   90.00000000
_symmetry_Int_Tables_number   1
_chemical_formula_structural   Cr23Fe12Ni19
_chemical_formula_sum   'Cr23 Fe12 Ni19'
_cell_volume   594.81674213
_cell_formula_units_Z   1
loop_
 _symmetry_equiv_pos_site_id
 _symmetry_equiv_pos_as_xyz
  1  'x, y, z'
loop_
 _atom_site_type_symbol
 _atom_site_label
 _atom_site_symmetry_multiplicity
 _atom_site_fract_x
 _atom_site_fract_y
 _atom_site_fract_z
 _atom_site_occupancy
  Cr  Cr0  1  0.99718947  0.99745806  0.00079986  1
  Cr  Cr1  1  0.16412360  0.16356137  0.16550755  1
  Fe  Fe2  1  0.99774804  0.99422573  0.33218688  1
  Ni  Ni3  1  0.99556032  0.33392511  -0.00012234  1
  Fe  Fe4  1  0.16296697  0.50077479  0.16606677  1
  Cr  Cr5  1  0.99715202  0.33284574  0.33336813  1
  Fe  Fe6  1  0.99749150  0.66368386  0.00116282  1
  Fe  Fe7  1  0.16354165  0.82923684  0.16773932  1
  Fe  Fe8  1  0.99787053  0.66635747  0.33266137  1
  Ni  Ni9  1  0.33213367  0.99744171  0.99739621  1
  Fe  Fe10  1  0.49914410  0.16327548  0.16714127  1
  Ni  Ni11  1  0.33067500  0.99431805  0.33066008  1
  Cr  Cr12  1  0.33395228  0.32982561  0.00147395  1
  Ni  Ni13  1  0.49963290  0.50285531  0.16890733  1
  Cr  Cr14  1  0.33195485  0.33423370  0.33187304  1
  Cr  Cr15  1  0.33122883  0.66729372  -0.00099571  1
  Cr  Cr16  1  0.49804962  0.83025201  0.16691021  1
  Ni  Ni17  1  0.33002587  0.66612365  0.33273240  1
  Cr  Cr18  1  0.66264511  -0.00028131  -0.00107998  1
  Ni  Ni19  1  0.83389051  0.16491072  0.16685778  1
  Ni  Ni20  1  0.66783797  0.99561751  0.32928200  1
  Cr  Cr21  1  0.66639990  0.33062301  0.00275762  1
  Ni  Ni22  1  0.83307986  0.50032034  0.16421983  1
  Cr  Cr23  1  0.66631060  0.33195123  0.32807377  1
  Cr  Cr24  1  0.66587474  0.66455035  0.99619610  1
  Fe  Fe25  1  0.83181540  0.82947105  0.16860287  1
  Ni  Ni26  1  0.66668559  0.66497634  0.33322728  1
  Cr  Cr27  1  0.16488207  0.16476562  0.50267915  1
  Ni  Ni28  1  0.99805049  0.99620709  0.66112959  1
  Cr  Cr29  1  0.16485518  0.16689047  0.82755040  1
  Ni  Ni30  1  0.16504454  0.49969042  0.49742033  1
  Ni  Ni31  1  0.99577741  0.33448437  0.66361156  1
  Cr  Cr32  1  0.16127632  0.49499249  0.83459843  1
  Ni  Ni33  1  0.16424960  0.83089384  0.49496851  1
  Cr  Cr34  1  0.99805745  0.66631709  0.66271660  1
  Cr  Cr35  1  0.16587901  0.83308781  0.83334794  1
  Cr  Cr36  1  0.49870859  0.16387293  0.49715105  1
  Ni  Ni37  1  0.33219077  0.99791712  0.66696094  1
  Ni  Ni38  1  0.49849970  0.16337206  0.83019252  1
  Fe  Fe39  1  0.49914127  0.49943247  0.49764320  1
  Ni  Ni40  1  0.33364635  0.33155842  0.66307728  1
  Cr  Cr41  1  0.49929290  0.49886167  0.82824171  1
  Cr  Cr42  1  0.50038040  0.83084143  0.49777640  1
  Cr  Cr43  1  0.33058408  0.66678315  0.66281186  1
  Ni  Ni44  1  0.49953604  0.83480017  0.82907416  1
  Cr  Cr45  1  0.83128729  0.16276250  0.49936287  1
  Fe  Fe46  1  0.66428339  -0.00083234  0.66457105  1
  Cr  Cr47  1  0.83331680  0.16710164  0.82856212  1
  Fe  Fe48  1  0.83084691  0.50037379  0.49819904  1
  Ni  Ni49  1  0.66539526  0.33367065  0.66434240  1
  Fe  Fe50  1  0.83111070  0.49646083  0.83096569  1
  Ni  Ni51  1  0.83151985  0.82993706  0.49539047  1
  Fe  Fe52  1  0.66627356  0.66462074  0.66247350  1
  Cr  Cr53  1  0.82946209  0.82983799  0.83010375  1
" 