7921,Ni36Fe24Cr39_13,-223.669961757141, 176.835730758227,Ni36Fe24Cr39,"# generated using pymatgen
 data_Cr23Fe12Ni19
_symmetry_space_group_name_H-M   'P 1'
_cell_length_a   7.49150651
_cell_length_b   7.49150651
_cell_length_c   10.59459011
_cell_angle_alpha   90.00000000
_cell_angle_beta   90.00000000
_cell_angle_gamma   90.00000000
_symmetry_Int_Tables_number   1
_chemical_formula_structural   Cr23Fe12Ni19
_chemical_formula_sum   'Cr23 Fe12 Ni19'
_cell_volume   594.59668173
_cell_formula_units_Z   1
loop_
 _symmetry_equiv_pos_site_id
 _symmetry_equiv_pos_as_xyz
  1  'x, y, z'
loop_
 _atom_site_type_symbol
 _atom_site_label
 _atom_site_symmetry_multiplicity
 _atom_site_fract_x
 _atom_site_fract_y
 _atom_site_fract_z
 _atom_site_occupancy
  Cr  Cr0  1  -0.00010436  -0.00096350  -0.00092588  1
  Cr  Cr1  1  0.16452556  0.16666993  0.16617508  1
  Fe  Fe2  1  0.99390064  0.99722033  0.33212158  1
  Cr  Cr3  1  0.99609743  0.33184159  0.99807343  1
  Cr  Cr4  1  0.16539744  0.49941026  0.16712104  1
  Ni  Ni5  1  0.99540081  0.33317447  0.33375333  1
  Cr  Cr6  1  0.99393486  0.66442273  0.99747584  1
  Cr  Cr7  1  0.16486016  0.82928777  0.16470869  1
  Ni  Ni8  1  0.99759804  0.66332524  0.33399602  1
  Ni  Ni9  1  0.33295183  0.00318672  0.99641221  1
  Ni  Ni10  1  0.50008284  0.16538031  0.16222369  1
  Cr  Cr11  1  0.33268492  -0.00146798  0.33152096  1
  Ni  Ni12  1  0.33400949  0.32710988  0.99738489  1
  Cr  Cr13  1  0.49558517  0.49743953  0.16376566  1
  Fe  Fe14  1  0.33083944  0.33588213  0.33272300  1
  Ni  Ni15  1  0.33259703  0.66485080  0.99784095  1
  Cr  Cr16  1  0.49750516  0.83186255  0.16403966  1
  Ni  Ni17  1  0.32982654  0.66550601  0.33704964  1
  Cr  Cr18  1  0.66478215  -0.00057003  -0.00105755  1
  Ni  Ni19  1  0.82984835  0.16472382  0.16802911  1
  Fe  Fe20  1  0.66835545  0.99791661  0.33134143  1
  Fe  Fe21  1  0.66419667  0.33061167  -0.00055377  1
  Ni  Ni22  1  0.83325150  0.49686215  0.16515419  1
  Cr  Cr23  1  0.66671081  0.33247349  0.32955841  1
  Cr  Cr24  1  0.66923653  0.66182427  -0.00035830  1
  Ni  Ni25  1  0.83242273  0.83320611  0.16819454  1
  Cr  Cr26  1  0.66608537  0.66375109  0.33225192  1
  Cr  Cr27  1  0.16063559  0.16923514  0.49628141  1
  Cr  Cr28  1  -0.00025236  0.99765748  0.66494342  1
  Ni  Ni29  1  0.16749606  0.16692655  0.83239137  1
  Ni  Ni30  1  0.16443941  0.50081536  0.49816062  1
  Fe  Fe31  1  0.99657296  0.33421472  0.66319646  1
  Cr  Cr32  1  0.16507561  0.49690931  0.83026076  1
  Fe  Fe33  1  0.16440102  0.82732799  0.49733176  1
  Fe  Fe34  1  0.99738896  0.66245409  0.66345208  1
  Cr  Cr35  1  0.16555615  0.83076576  0.83411137  1
  Cr  Cr36  1  0.50314159  0.16555900  0.49957702  1
  Cr  Cr37  1  0.33129146  -0.00092650  0.66725794  1
  Fe  Fe38  1  0.49750001  0.16740718  0.83217759  1
  Ni  Ni39  1  0.49564842  0.50074419  0.49915107  1
  Fe  Fe40  1  0.33230675  0.33332056  0.66473891  1
  Cr  Cr41  1  0.49858668  0.49676725  0.83316498  1
  Ni  Ni42  1  0.49840606  0.82979058  0.49844563  1
  Fe  Fe43  1  0.33135816  0.66330114  0.66131989  1
  Cr  Cr44  1  0.49915631  0.83207675  0.83301249  1
  Ni  Ni45  1  0.83169991  0.16484458  0.49795632  1
  Fe  Fe46  1  0.66616824  -0.00127689  0.66370174  1
  Cr  Cr47  1  0.83031585  0.16658074  0.82867395  1
  Ni  Ni48  1  0.83466436  0.49635937  0.49986704  1
  Ni  Ni49  1  0.66643319  0.33365870  0.66496705  1
  Ni  Ni50  1  0.83134374  0.49759940  0.82989743  1
  Fe  Fe51  1  0.83194033  0.83122813  0.49735552  1
  Cr  Cr52  1  0.66688335  0.66267562  0.66315568  1
  Ni  Ni53  1  0.83110777  0.83089397  0.82927885  1
" 