2513,Ni36Fe2Cr60_11,-213.977979465473, 138.420025709671,Ni36Fe2Cr60,"# generated using pymatgen
 data_Cr34FeNi19
_symmetry_space_group_name_H-M   'P 1'
_cell_length_a   7.54549330
_cell_length_b   7.54549330
_cell_length_c   10.67093896
_cell_angle_alpha   90.00000000
_cell_angle_beta   90.00000000
_cell_angle_gamma   90.00000000
_symmetry_Int_Tables_number   1
_chemical_formula_structural   Cr34FeNi19
_chemical_formula_sum   'Cr34 Fe1 Ni19'
_cell_volume   607.54424567
_cell_formula_units_Z   1
loop_
 _symmetry_equiv_pos_site_id
 _symmetry_equiv_pos_as_xyz
  1  'x, y, z'
loop_
 _atom_site_type_symbol
 _atom_site_label
 _atom_site_symmetry_multiplicity
 _atom_site_fract_x
 _atom_site_fract_y
 _atom_site_fract_z
 _atom_site_occupancy
  Ni  Ni0  1  -0.00188404  -0.00051416  -0.00334121  1
  Ni  Ni1  1  0.15838585  0.16027700  0.15882723  1
  Ni  Ni2  1  -0.00447265  -0.00375141  0.32871226  1
  Ni  Ni3  1  -0.00083595  0.32452154  -0.00509810  1
  Cr  Cr4  1  0.16291432  0.49275058  0.15833151  1
  Cr  Cr5  1  0.99309723  0.32568941  0.32731495  1
  Cr  Cr6  1  -0.00496181  0.66024440  0.99356919  1
  Cr  Cr7  1  0.16167553  0.83115467  0.16097443  1
  Cr  Cr8  1  0.99400040  0.66375760  0.33158132  1
  Ni  Ni9  1  0.32530480  -0.00242091  0.99397876  1
  Cr  Cr10  1  0.49417967  0.16250466  0.16217806  1
  Cr  Cr11  1  0.32442931  -0.00472627  0.32947094  1
  Ni  Ni12  1  0.32427006  0.32634104  0.99276129  1
  Cr  Cr13  1  0.49425801  0.49528959  0.16134233  1
  Cr  Cr14  1  0.32830705  0.32661581  0.32884734  1
  Ni  Ni15  1  0.32884848  0.66045267  0.99426700  1
  Cr  Cr16  1  0.49333577  0.82657529  0.15826012  1
  Cr  Cr17  1  0.32731649  0.66258078  0.32832265  1
  Cr  Cr18  1  0.66142064  0.99469016  0.99420278  1
  Ni  Ni19  1  0.83224741  0.16122491  0.16205550  1
  Cr  Cr20  1  0.66412501  -0.00384123  0.32744913  1
  Cr  Cr21  1  0.66206035  0.32778251  -0.00423041  1
  Cr  Cr22  1  0.82726593  0.49195089  0.16133196  1
  Ni  Ni23  1  0.66356049  0.32810004  0.32834821  1
  Ni  Ni24  1  0.65921228  0.66143191  -0.00511846  1
  Cr  Cr25  1  0.82930931  0.83108760  0.15985998  1
  Cr  Cr26  1  0.66301679  0.65980806  0.32823198  1
  Ni  Ni27  1  0.16018270  0.15913148  0.49350381  1
  Cr  Cr28  1  -0.00498201  0.99329738  0.65956677  1
  Ni  Ni29  1  0.16370916  0.16360811  0.83218507  1
  Cr  Cr30  1  0.15961525  0.49494781  0.49604953  1
  Cr  Cr31  1  -0.00328276  0.33037136  0.66281286  1
  Ni  Ni32  1  0.16192446  0.49259307  0.82998106  1
  Fe  Fe33  1  0.15743957  0.82961243  0.49485893  1
  Ni  Ni34  1  0.99202827  0.66141679  0.65917496  1
  Cr  Cr35  1  0.16116299  0.82797125  0.82955868  1
  Cr  Cr36  1  0.49487914  0.16167011  0.49542974  1
  Cr  Cr37  1  0.32879646  -0.00278656  0.66138221  1
  Ni  Ni38  1  0.49141463  0.16051792  0.82837897  1
  Cr  Cr39  1  0.49720206  0.49431748  0.49326621  1
  Cr  Cr40  1  0.32651607  0.32591438  0.66370854  1
  Cr  Cr41  1  0.49296585  0.49520664  0.82976994  1
  Cr  Cr42  1  0.49634872  0.82837287  0.49648181  1
  Cr  Cr43  1  0.32596562  0.66132915  0.66104148  1
  Cr  Cr44  1  0.49592536  0.82898842  0.82938469  1
  Cr  Cr45  1  0.82878305  0.16064323  0.49329525  1
  Ni  Ni46  1  0.66140102  0.99227554  0.66139878  1
  Cr  Cr47  1  0.82933322  0.16010762  0.82900401  1
  Ni  Ni48  1  0.82789526  0.49857641  0.49567687  1
  Cr  Cr49  1  0.66119184  0.32761523  0.66103862  1
  Cr  Cr50  1  0.83024160  0.49633640  0.82706458  1
  Ni  Ni51  1  0.82957559  0.82621773  0.49683688  1
  Ni  Ni52  1  0.66544503  0.66358253  0.65928235  1
  Cr  Cr53  1  0.82723333  0.82788630  0.82673482  1
" 