380,Ni36Fe60Cr2_15,-236.056114878474, 211.87919695061,Ni36Fe60Cr2,"# generated using pymatgen
 data_Cr3Fe32Ni19
_symmetry_space_group_name_H-M   'P 1'
_cell_length_a   7.40408361
_cell_length_b   7.40408361
_cell_length_c   10.47095546
_cell_angle_alpha   90.00000000
_cell_angle_beta   90.00000000
_cell_angle_gamma   90.00000000
_symmetry_Int_Tables_number   1
_chemical_formula_structural   Cr3Fe32Ni19
_chemical_formula_sum   'Cr3 Fe32 Ni19'
_cell_volume   574.02253316
_cell_formula_units_Z   1
loop_
 _symmetry_equiv_pos_site_id
 _symmetry_equiv_pos_as_xyz
  1  'x, y, z'
loop_
 _atom_site_type_symbol
 _atom_site_label
 _atom_site_symmetry_multiplicity
 _atom_site_fract_x
 _atom_site_fract_y
 _atom_site_fract_z
 _atom_site_occupancy
  Fe  Fe0  1  0.00505478  1.00344038  0.00549308  1
  Ni  Ni1  1  0.17114669  0.17129651  0.17042239  1
  Ni  Ni2  1  0.00482815  1.00356523  0.33822987  1
  Fe  Fe3  1  1.00405709  0.33830846  0.00587727  1
  Fe  Fe4  1  0.17116638  0.50404462  0.17054564  1
  Fe  Fe5  1  1.00368424  0.33689457  0.33725961  1
  Fe  Fe6  1  1.00278139  0.67100698  0.00463432  1
  Fe  Fe7  1  0.16919528  0.83771952  0.17139414  1
  Fe  Fe8  1  1.00339933  0.67133517  0.33857537  1
  Fe  Fe9  1  0.33740951  0.00515834  1.00313227  1
  Fe  Fe10  1  0.50451333  0.17309736  0.17112065  1
  Ni  Ni11  1  0.33569293  0.00570880  0.33822287  1
  Fe  Fe12  1  0.33892119  0.33710254  0.00510523  1
  Fe  Fe13  1  0.50452146  0.50240350  0.17076729  1
  Ni  Ni14  1  0.33783144  0.33721539  0.33692156  1
  Ni  Ni15  1  0.33726618  0.67087199  1.00386504  1
  Cr  Cr16  1  0.50470318  0.83790352  0.17251900  1
  Fe  Fe17  1  0.33753037  0.67079838  0.33803695  1
  Fe  Fe18  1  0.67029280  1.00388498  1.00380037  1
  Fe  Fe19  1  0.83752957  0.17112631  0.17100298  1
  Ni  Ni20  1  0.67223777  0.00497104  0.33793043  1
  Ni  Ni21  1  0.67015906  0.33912490  0.00473323  1
  Ni  Ni22  1  0.83748313  0.50409807  0.17025632  1
  Ni  Ni23  1  0.67041984  0.33827490  0.33741748  1
  Ni  Ni24  1  0.67192762  0.66873704  1.00194201  1
  Fe  Fe25  1  0.83917481  0.83770854  0.17158721  1
  Ni  Ni26  1  0.67256092  0.66951187  0.33868077  1
  Fe  Fe27  1  0.17042458  0.17022668  0.50385132  1
  Fe  Fe28  1  0.00528558  1.00284410  0.66969680  1
  Ni  Ni29  1  0.17322262  0.16962401  0.83704866  1
  Fe  Fe30  1  0.17009529  0.50520395  0.50469353  1
  Fe  Fe31  1  0.00431523  0.33724522  0.66961408  1
  Cr  Cr32  1  0.17044903  0.50382609  0.83771051  1
  Ni  Ni33  1  0.17131945  0.83784167  0.50392162  1
  Ni  Ni34  1  1.00330745  0.67123604  0.67103006  1
  Fe  Fe35  1  0.17144688  0.83982040  0.83698482  1
  Fe  Fe36  1  0.50477224  0.17013065  0.50441064  1
  Ni  Ni37  1  0.33727466  0.00501411  0.67189117  1
  Ni  Ni38  1  0.50259399  0.16997317  0.83853851  1
  Fe  Fe39  1  0.50474557  0.50494276  0.50359315  1
  Fe  Fe40  1  0.33827303  0.33596152  0.67028862  1
  Fe  Fe41  1  0.50556222  0.50339718  0.83838795  1
  Fe  Fe42  1  0.50487420  0.83768708  0.50392773  1
  Fe  Fe43  1  0.33804267  0.67268931  0.67053418  1
  Fe  Fe44  1  0.50375844  0.83847251  0.83789570  1
  Fe  Fe45  1  0.83755646  0.17009631  0.50410531  1
  Ni  Ni46  1  0.66966638  1.00391276  0.67036406  1
  Cr  Cr47  1  0.83739340  0.17123662  0.83720342  1
  Ni  Ni48  1  0.83733722  0.50461701  0.50509949  1
  Fe  Fe49  1  0.67016509  0.33796844  0.67033000  1
  Fe  Fe50  1  0.83596543  0.50494632  0.83783725  1
  Ni  Ni51  1  0.83729174  0.83696594  0.50360836  1
  Fe  Fe52  1  0.67143173  0.67171404  0.67058291  1
  Fe  Fe53  1  0.83754781  0.83670396  0.83698361  1
" 