1681,Ni36Fe24Cr39_12,-223.210345459853, 173.380695836389,Ni36Fe24Cr39,"# generated using pymatgen
 data_Cr23Fe12Ni19
_symmetry_space_group_name_H-M   'P 1'
_cell_length_a   7.49129435
_cell_length_b   7.49129435
_cell_length_c   10.59429008
_cell_angle_alpha   90.00000000
_cell_angle_beta   90.00000000
_cell_angle_gamma   90.00000000
_symmetry_Int_Tables_number   1
_chemical_formula_structural   Cr23Fe12Ni19
_chemical_formula_sum   'Cr23 Fe12 Ni19'
_cell_volume   594.54616772
_cell_formula_units_Z   1
loop_
 _symmetry_equiv_pos_site_id
 _symmetry_equiv_pos_as_xyz
  1  'x, y, z'
loop_
 _atom_site_type_symbol
 _atom_site_label
 _atom_site_symmetry_multiplicity
 _atom_site_fract_x
 _atom_site_fract_y
 _atom_site_fract_z
 _atom_site_occupancy
  Cr  Cr0  1  0.99575845  0.99835150  0.99781892  1
  Ni  Ni1  1  0.16321268  0.16661207  0.16537285  1
  Ni  Ni2  1  -0.00127216  0.99739074  0.33166501  1
  Fe  Fe3  1  0.00150422  0.32873827  -0.00097493  1
  Ni  Ni4  1  0.16438010  0.49324686  0.16332056  1
  Fe  Fe5  1  0.00044400  0.32879139  0.33075410  1
  Cr  Cr6  1  -0.00071645  0.66434034  0.00146526  1
  Cr  Cr7  1  0.16797059  0.83581199  0.16284820  1
  Cr  Cr8  1  -0.00121108  0.66634058  0.33097790  1
  Ni  Ni9  1  0.33445692  0.00194291  0.99720850  1
  Fe  Fe10  1  0.49536525  0.16323679  0.16343459  1
  Ni  Ni11  1  0.32775887  -0.00026177  0.33140455  1
  Ni  Ni12  1  0.33266347  0.33148434  -0.00122460  1
  Cr  Cr13  1  0.49821473  0.50106786  0.16399573  1
  Cr  Cr14  1  0.33108125  0.33111481  0.33105583  1
  Ni  Ni15  1  0.33239309  0.66230155  0.99695529  1
  Cr  Cr16  1  0.49796910  0.83259462  0.16318327  1
  Cr  Cr17  1  0.32751672  0.66318106  0.33303369  1
  Ni  Ni18  1  0.66399831  -0.00010751  -0.00109837  1
  Ni  Ni19  1  0.83590879  0.16492779  0.16441428  1
  Cr  Cr20  1  0.66747010  0.00036374  0.32932040  1
  Cr  Cr21  1  0.66368787  0.32874114  0.99777105  1
  Fe  Fe22  1  0.83418913  0.49717204  0.16476989  1
  Cr  Cr23  1  0.66477743  0.33090319  0.32917552  1
  Fe  Fe24  1  0.66261535  0.66707391  0.99755017  1
  Ni  Ni25  1  0.82934326  0.83330713  0.16603189  1
  Fe  Fe26  1  0.66637045  0.66710166  0.33080706  1
  Ni  Ni27  1  0.16314236  0.16264317  0.49736473  1
  Cr  Cr28  1  -0.00043239  0.99673879  0.66553834  1
  Ni  Ni29  1  0.16567782  0.16576830  0.83223463  1
  Fe  Fe30  1  0.16387789  0.49603594  0.50037738  1
  Ni  Ni31  1  -0.00155626  0.33225200  0.66565474  1
  Cr  Cr32  1  0.16543291  0.49593772  0.83216235  1
  Fe  Fe33  1  0.16505200  0.83389843  0.49925591  1
  Ni  Ni34  1  0.00022488  0.66420004  0.66196167  1
  Cr  Cr35  1  0.16995697  0.83375458  0.83213603  1
  Cr  Cr36  1  0.49555576  0.16343999  0.49751991  1
  Ni  Ni37  1  0.33147175  0.99696129  0.66560173  1
  Fe  Fe38  1  0.49530287  0.16438370  0.83274502  1
  Cr  Cr39  1  0.50093565  0.50044051  0.50088243  1
  Cr  Cr40  1  0.33346845  0.33123218  0.66535863  1
  Ni  Ni41  1  0.49898742  0.50090370  0.83071989  1
  Cr  Cr42  1  0.49707990  0.83141051  0.49804887  1
  Ni  Ni43  1  0.32997800  0.66580650  0.66546302  1
  Ni  Ni44  1  0.49747326  0.83120961  0.83324537  1
  Cr  Cr45  1  0.83582739  0.16722502  0.50025076  1
  Cr  Cr46  1  0.66359453  0.00164069  0.66813257  1
  Fe  Fe47  1  0.83229495  0.16630167  0.83193733  1
  Cr  Cr48  1  0.83139341  0.49818959  0.49999585  1
  Ni  Ni49  1  0.66529629  0.33219330  0.66804802  1
  Cr  Cr50  1  0.83158645  0.49632993  0.83056456  1
  Fe  Fe51  1  0.83269376  0.83227014  0.49812094  1
  Fe  Fe52  1  0.66336139  0.66543178  0.66677586  1
  Cr  Cr53  1  0.82908242  0.83024219  0.83147711  1
" 