1153,Ni36Fe24Cr39_14,-223.335431964703, 175.817096516984,Ni36Fe24Cr39,"# generated using pymatgen
 data_Cr23Fe12Ni19
_symmetry_space_group_name_H-M   'P 1'
_cell_length_a   7.48515445
_cell_length_b   7.48515445
_cell_length_c   10.58560694
_cell_angle_alpha   90.00000000
_cell_angle_beta   90.00000000
_cell_angle_gamma   90.00000000
_symmetry_Int_Tables_number   1
_chemical_formula_structural   Cr23Fe12Ni19
_chemical_formula_sum   'Cr23 Fe12 Ni19'
_cell_volume   593.08548594
_cell_formula_units_Z   1
loop_
 _symmetry_equiv_pos_site_id
 _symmetry_equiv_pos_as_xyz
  1  'x, y, z'
loop_
 _atom_site_type_symbol
 _atom_site_label
 _atom_site_symmetry_multiplicity
 _atom_site_fract_x
 _atom_site_fract_y
 _atom_site_fract_z
 _atom_site_occupancy
  Ni  Ni0  1  0.99804813  0.99803742  0.99701727  1
  Cr  Cr1  1  0.16480432  0.16461010  0.16554438  1
  Fe  Fe2  1  0.99722429  0.99479683  0.33112332  1
  Fe  Fe3  1  -0.00113763  0.33234747  0.99608068  1
  Fe  Fe4  1  0.16232116  0.49835936  0.16607657  1
  Fe  Fe5  1  0.99855980  0.33424831  0.33293948  1
  Cr  Cr6  1  0.99792178  0.66903932  0.99689380  1
  Cr  Cr7  1  0.16450326  0.83316833  0.16602962  1
  Ni  Ni8  1  0.99780163  0.66570022  0.33152062  1
  Ni  Ni9  1  0.32798953  0.99813068  0.99740468  1
  Cr  Cr10  1  0.49919562  0.16414016  0.16224986  1
  Ni  Ni11  1  0.33498453  0.99729698  0.33213977  1
  Cr  Cr12  1  0.33040919  0.33358101  0.99593376  1
  Cr  Cr13  1  0.50216243  0.49958352  0.16441423  1
  Cr  Cr14  1  0.33213574  0.33296616  0.33425738  1
  Cr  Cr15  1  0.33187718  0.66738780  0.00124802  1
  Fe  Fe16  1  0.50276077  0.83369761  0.16453247  1
  Cr  Cr17  1  0.33247121  0.66701400  0.33016966  1
  Fe  Fe18  1  0.66742298  0.99395244  -0.00070266  1
  Cr  Cr19  1  0.83148164  0.16590747  0.16599956  1
  Ni  Ni20  1  0.66546625  0.99630456  0.33010489  1
  Ni  Ni21  1  0.66752542  0.33447069  0.99610708  1
  Cr  Cr22  1  0.83204311  0.50039238  0.16579042  1
  Ni  Ni23  1  0.66585423  0.33248241  0.33365046  1
  Ni  Ni24  1  0.66805871  0.66587587  0.99778310  1
  Ni  Ni25  1  0.83105341  0.83106142  0.16589676  1
  Ni  Ni26  1  0.66719152  0.66851031  0.33242837  1
  Cr  Cr27  1  0.16486944  0.16201616  0.49901197  1
  Ni  Ni28  1  0.99806075  0.99573876  0.66845607  1
  Ni  Ni29  1  0.16500723  0.16287845  0.83247254  1
  Ni  Ni30  1  0.16532565  0.50197627  0.49719056  1
  Cr  Cr31  1  -0.00061054  0.33140685  0.66727046  1
  Ni  Ni32  1  0.16507267  0.50159589  0.83202013  1
  Cr  Cr33  1  0.16604936  0.83096413  0.50194389  1
  Fe  Fe34  1  0.00069213  0.66565586  0.66771955  1
  Ni  Ni35  1  0.16435552  0.83195824  0.82960345  1
  Cr  Cr36  1  0.49952592  0.16170278  0.49955851  1
  Ni  Ni37  1  0.33113413  0.99567606  0.66727088  1
  Cr  Cr38  1  0.49785474  0.16411262  0.83400961  1
  Fe  Fe39  1  0.49902543  0.50296869  0.49827366  1
  Cr  Cr40  1  0.33151556  0.33460702  0.66573985  1
  Fe  Fe41  1  0.49917336  0.50198213  0.83300288  1
  Fe  Fe42  1  0.49909715  0.83106427  0.50001934  1
  Ni  Ni43  1  0.33168274  0.66501938  0.66532669  1
  Cr  Cr44  1  0.49763379  0.83187104  0.83274102  1
  Cr  Cr45  1  0.83144076  0.16374381  0.49560922  1
  Ni  Ni46  1  0.66705052  0.99599152  0.66614965  1
  Cr  Cr47  1  0.83160050  0.16312937  0.83402159  1
  Cr  Cr48  1  0.83239624  0.50217738  0.49817020  1
  Cr  Cr49  1  0.66504936  0.33330792  0.66576684  1
  Fe  Fe50  1  0.83234219  0.50106105  0.83282164  1
  Cr  Cr51  1  0.83233275  0.83146269  0.50032931  1
  Fe  Fe52  1  0.66396317  0.66790026  0.66687698  1
  Ni  Ni53  1  0.83291537  0.82965464  0.83067608  1
" 