8755,Ni36Fe24Cr39_5,-223.465127880872, 178.025278916636,Ni36Fe24Cr39,"# generated using pymatgen
 data_Cr23Fe12Ni19
_symmetry_space_group_name_H-M   'P 1'
_cell_length_a   7.48438385
_cell_length_b   7.48438385
_cell_length_c   10.58451714
_cell_angle_alpha   90.00000000
_cell_angle_beta   90.00000000
_cell_angle_gamma   90.00000000
_symmetry_Int_Tables_number   1
_chemical_formula_structural   Cr23Fe12Ni19
_chemical_formula_sum   'Cr23 Fe12 Ni19'
_cell_volume   592.90232905
_cell_formula_units_Z   1
loop_
 _symmetry_equiv_pos_site_id
 _symmetry_equiv_pos_as_xyz
  1  'x, y, z'
loop_
 _atom_site_type_symbol
 _atom_site_label
 _atom_site_symmetry_multiplicity
 _atom_site_fract_x
 _atom_site_fract_y
 _atom_site_fract_z
 _atom_site_occupancy
  Ni  Ni0  1  0.99793757  -0.00101158  0.99595350  1
  Ni  Ni1  1  0.16239166  0.16204159  0.16425411  1
  Ni  Ni2  1  0.99746444  0.99770129  0.33416253  1
  Cr  Cr3  1  0.99862943  0.33178509  0.99842357  1
  Fe  Fe4  1  0.16409181  0.49824783  0.16872920  1
  Ni  Ni5  1  -0.00087489  0.33093462  0.33077908  1
  Cr  Cr6  1  0.99660243  0.66602574  0.99702139  1
  Cr  Cr7  1  0.16377796  0.83413661  0.16732879  1
  Ni  Ni8  1  0.99727256  0.66793430  0.33320513  1
  Ni  Ni9  1  0.33042328  -0.00104622  0.99578200  1
  Cr  Cr10  1  0.50139185  0.16404155  0.16389529  1
  Cr  Cr11  1  0.33100870  0.00064429  0.33632513  1
  Cr  Cr12  1  0.32865965  0.33068779  0.00017321  1
  Cr  Cr13  1  0.50001931  0.49951320  0.16720450  1
  Cr  Cr14  1  0.33032310  0.33010187  0.33255549  1
  Cr  Cr15  1  0.33048217  0.66623757  0.99668903  1
  Cr  Cr16  1  0.49866741  0.83317157  0.16389957  1
  Ni  Ni17  1  0.33013632  0.66586616  0.33222102  1
  Ni  Ni18  1  0.66817193  0.99817391  0.99755644  1
  Cr  Cr19  1  0.83398303  0.16365503  0.16555555  1
  Fe  Fe20  1  0.66931717  0.99787170  0.33320698  1
  Ni  Ni21  1  0.66829281  0.33026841  0.99545426  1
  Cr  Cr22  1  0.83239523  0.49757296  0.16912713  1
  Ni  Ni23  1  0.66694495  0.33138569  0.33471646  1
  Cr  Cr24  1  0.66982381  0.66768899  0.99706195  1
  Fe  Fe25  1  0.83338632  0.83533452  0.16776874  1
  Fe  Fe26  1  0.66890389  0.66736310  0.33323938  1
  Ni  Ni27  1  0.16114705  0.16304172  0.49945738  1
  Fe  Fe28  1  0.99672401  0.99827317  0.66622301  1
  Fe  Fe29  1  0.16095008  0.16441812  0.83204536  1
  Cr  Cr30  1  0.16200989  0.50053521  0.49689616  1
  Ni  Ni31  1  0.99787064  0.33148698  0.66856825  1
  Ni  Ni32  1  0.16096779  0.50184085  0.83123068  1
  Fe  Fe33  1  0.15965303  0.83264544  0.49778264  1
  Fe  Fe34  1  0.99610947  0.66739870  0.66735244  1
  Ni  Ni35  1  0.16383430  0.83442408  0.83120586  1
  Fe  Fe36  1  0.50209978  0.16523799  0.49937167  1
  Cr  Cr37  1  0.33129401  -0.00030817  0.66378187  1
  Cr  Cr38  1  0.50306081  0.16249584  0.83383389  1
  Cr  Cr39  1  0.50158746  0.49921485  0.49852859  1
  Cr  Cr40  1  0.32829341  0.32975565  0.66392115  1
  Cr  Cr41  1  0.50166168  0.49923968  0.83117222  1
  Cr  Cr42  1  0.49982658  0.83111731  0.49814455  1
  Cr  Cr43  1  0.33124608  0.66713105  0.66741337  1
  Fe  Fe44  1  0.50118269  0.83420760  0.83175079  1
  Cr  Cr45  1  0.83412485  0.16506010  0.49909278  1
  Ni  Ni46  1  0.66875069  0.99592913  0.66538871  1
  Ni  Ni47  1  0.83282682  0.16441787  0.83177632  1
  Cr  Cr48  1  0.83295021  0.49922538  0.50062843  1
  Fe  Fe49  1  0.66865963  0.33068629  0.66709411  1
  Ni  Ni50  1  0.83367966  0.49646878  0.82793393  1
  Ni  Ni51  1  0.83359173  0.83339308  0.49816017  1
  Ni  Ni52  1  0.67065964  0.66932733  0.66676078  1
  Fe  Fe53  1  0.83307343  0.83446773  0.82965477  1
" 