4292,Ni36Fe24Cr39_2,-223.758592583401, 179.273652473284,Ni36Fe24Cr39,"# generated using pymatgen
 data_Cr23Fe12Ni19
_symmetry_space_group_name_H-M   'P 1'
_cell_length_a   7.48869032
_cell_length_b   7.48869032
_cell_length_c   10.59060742
_cell_angle_alpha   90.00000000
_cell_angle_beta   90.00000000
_cell_angle_gamma   90.00000000
_symmetry_Int_Tables_number   1
_chemical_formula_structural   Cr23Fe12Ni19
_chemical_formula_sum   'Cr23 Fe12 Ni19'
_cell_volume   593.92637614
_cell_formula_units_Z   1
loop_
 _symmetry_equiv_pos_site_id
 _symmetry_equiv_pos_as_xyz
  1  'x, y, z'
loop_
 _atom_site_type_symbol
 _atom_site_label
 _atom_site_symmetry_multiplicity
 _atom_site_fract_x
 _atom_site_fract_y
 _atom_site_fract_z
 _atom_site_occupancy
  Cr  Cr0  1  -0.00061565  0.99666541  0.99738113  1
  Fe  Fe1  1  0.16515008  0.16521947  0.16682859  1
  Ni  Ni2  1  -0.00042512  -0.00071744  0.33561263  1
  Ni  Ni3  1  0.99835835  0.33262839  0.00013211  1
  Ni  Ni4  1  0.16563936  0.49754494  0.16620706  1
  Ni  Ni5  1  0.00135615  0.33144395  0.32978620  1
  Cr  Cr6  1  -0.00143971  0.66393354  -0.00007049  1
  Cr  Cr7  1  0.16678752  0.83191046  0.16709510  1
  Ni  Ni8  1  -0.00019253  0.66543047  0.33046802  1
  Ni  Ni9  1  0.33311947  0.99690313  -0.00068944  1
  Fe  Fe10  1  0.49519042  0.16389454  0.16698559  1
  Ni  Ni11  1  0.33012256  0.00111593  0.33112718  1
  Cr  Cr12  1  0.32893296  0.33021321  -0.00046950  1
  Cr  Cr13  1  0.49556050  0.49857747  0.16881766  1
  Ni  Ni14  1  0.32982306  0.33016794  0.33337550  1
  Ni  Ni15  1  0.33189599  0.66796294  0.99812348  1
  Fe  Fe16  1  0.49596815  0.83236252  0.16564802  1
  Ni  Ni17  1  0.32991334  0.66448933  0.33255414  1
  Cr  Cr18  1  0.66324024  0.99641230  0.99816968  1
  Cr  Cr19  1  0.83330757  0.16547787  0.16607349  1
  Cr  Cr20  1  0.66489083  0.99758191  0.33134758  1
  Cr  Cr21  1  0.66622744  0.33231651  0.99703539  1
  Fe  Fe22  1  0.83556669  0.49870987  0.16670725  1
  Fe  Fe23  1  0.66488282  0.32993049  0.33317374  1
  Cr  Cr24  1  0.66736445  0.66741677  0.00033837  1
  Ni  Ni25  1  0.83370612  0.83403477  0.16870670  1
  Cr  Cr26  1  0.66765268  0.66601545  0.33006647  1
  Fe  Fe27  1  0.16416775  0.16476920  0.49560231  1
  Fe  Fe28  1  -0.00125985  0.99578309  0.66363710  1
  Cr  Cr29  1  0.16364459  0.16266308  0.83383869  1
  Cr  Cr30  1  0.16629936  0.50255227  0.49839719  1
  Cr  Cr31  1  -0.00130878  0.33142861  0.66740144  1
  Cr  Cr32  1  0.16498281  0.50165949  0.83271558  1
  Fe  Fe33  1  0.16287774  0.83350703  0.49721396  1
  Ni  Ni34  1  -0.00101479  0.66814364  0.66609970  1
  Ni  Ni35  1  0.16674698  0.83235497  0.82996293  1
  Ni  Ni36  1  0.49973982  0.16474429  0.49518668  1
  Cr  Cr37  1  0.33083211  -0.00077469  0.66450676  1
  Fe  Fe38  1  0.49787517  0.16298257  0.83222206  1
  Fe  Fe39  1  0.49847860  0.49721962  0.49622607  1
  Cr  Cr40  1  0.33194435  0.33065436  0.66165179  1
  Cr  Cr41  1  0.49750311  0.50145693  0.82837166  1
  Cr  Cr42  1  0.49442108  0.83030531  0.49656125  1
  Ni  Ni43  1  0.32935889  0.66841958  0.66505212  1
  Ni  Ni44  1  0.49609181  0.83271438  0.83438874  1
  Ni  Ni45  1  0.83310627  0.16369515  0.49827969  1
  Cr  Cr46  1  0.66575502  0.99833516  0.66642677  1
  Fe  Fe47  1  0.83238193  0.16424262  0.83224205  1
  Cr  Cr48  1  0.83412995  0.49706060  0.49537797  1
  Cr  Cr49  1  0.66482789  0.33013329  0.66420177  1
  Ni  Ni50  1  0.83311067  0.49857100  0.83339551  1
  Fe  Fe51  1  0.83527337  0.83305120  0.49808252  1
  Cr  Cr52  1  0.66687145  0.66654163  0.66505259  1
  Ni  Ni53  1  0.83314750  0.83211206  0.82934203  1
" 