8745,Ni36Fe35Cr27_18,-228.537743034616, 194.81706172111,Ni36Fe35Cr27,"# generated using pymatgen
 data_Cr16(FeNi)19
_symmetry_space_group_name_H-M   'P 1'
_cell_length_a   7.45316149
_cell_length_b   7.45316149
_cell_length_c   10.54036206
_cell_angle_alpha   90.00000000
_cell_angle_beta   90.00000000
_cell_angle_gamma   90.00000000
_symmetry_Int_Tables_number   1
_chemical_formula_structural   Cr16(FeNi)19
_chemical_formula_sum   'Cr16 Fe19 Ni19'
_cell_volume   585.51306678
_cell_formula_units_Z   1
loop_
 _symmetry_equiv_pos_site_id
 _symmetry_equiv_pos_as_xyz
  1  'x, y, z'
loop_
 _atom_site_type_symbol
 _atom_site_label
 _atom_site_symmetry_multiplicity
 _atom_site_fract_x
 _atom_site_fract_y
 _atom_site_fract_z
 _atom_site_occupancy
  Fe  Fe0  1  1.00077540  1.00002670  0.00160145  1
  Fe  Fe1  1  0.16520717  0.16999851  0.16853488  1
  Cr  Cr2  1  0.99960404  1.00034082  0.33037982  1
  Ni  Ni3  1  0.99803922  0.33507224  0.00241440  1
  Ni  Ni4  1  0.16434542  0.50076931  0.16782253  1
  Ni  Ni5  1  0.99892843  0.33668052  0.33433522  1
  Ni  Ni6  1  0.00206841  0.66768482  0.00138316  1
  Fe  Fe7  1  0.16534540  0.83214578  0.16706167  1
  Ni  Ni8  1  1.00091941  0.66546898  0.33446183  1
  Cr  Cr9  1  0.33325643  0.99895377  0.99958573  1
  Cr  Cr10  1  0.49896246  0.16748648  0.16954677  1
  Ni  Ni11  1  0.33584017  0.99991878  0.33649221  1
  Cr  Cr12  1  0.33333181  0.33635075  0.00243332  1
  Fe  Fe13  1  0.50225473  0.50159364  0.16729153  1
  Fe  Fe14  1  0.33164849  0.33508372  0.33460372  1
  Ni  Ni15  1  0.33063047  0.66723498  0.00112165  1
  Cr  Cr16  1  0.50134708  0.83221243  0.16948183  1
  Cr  Cr17  1  0.33235796  0.66742775  0.33577776  1
  Cr  Cr18  1  0.67190145  0.00332732  1.00033955  1
  Ni  Ni19  1  0.83714502  0.17030571  0.16667815  1
  Fe  Fe20  1  0.66825346  1.00048111  0.33500979  1
  Fe  Fe21  1  0.67096400  0.33482570  0.00255193  1
  Ni  Ni22  1  0.83703595  0.50176996  0.16791421  1
  Cr  Cr23  1  0.66951310  0.33338723  0.33487596  1
  Fe  Fe24  1  0.67016077  0.66681678  0.00289669  1
  Fe  Fe25  1  0.83627378  0.83127919  0.16676180  1
  Fe  Fe26  1  0.66999342  0.66687157  0.33451950  1
  Cr  Cr27  1  0.16611213  0.16785507  0.49825178  1
  Fe  Fe28  1  1.00072514  0.99940410  0.66820272  1
  Cr  Cr29  1  0.16535519  0.16807658  0.83476797  1
  Fe  Fe30  1  0.16528592  0.50201675  0.50008905  1
  Ni  Ni31  1  0.99757169  0.33539542  0.66572645  1
  Fe  Fe32  1  0.16425745  0.50246326  0.83546989  1
  Ni  Ni33  1  0.16716891  0.83457706  0.50095893  1
  Ni  Ni34  1  0.00121073  0.66775225  0.66723280  1
  Ni  Ni35  1  0.16400475  0.83312410  0.83452302  1
  Ni  Ni36  1  0.50089603  0.16641581  0.50109594  1
  Fe  Fe37  1  0.33319065  1.00068564  0.66604062  1
  Ni  Ni38  1  0.50305636  0.16824359  0.83196030  1
  Ni  Ni39  1  0.50336823  0.50114529  0.49899849  1
  Cr  Cr40  1  0.33515132  0.33597879  0.66689326  1
  Cr  Cr41  1  0.50302353  0.50084741  0.83850377  1
  Ni  Ni42  1  0.50154042  0.83525039  0.50102046  1
  Cr  Cr43  1  0.33138332  0.66840355  0.66736763  1
  Cr  Cr44  1  0.50146355  0.83331516  0.83244578  1
  Fe  Fe45  1  0.83299458  0.16771752  0.50200919  1
  Fe  Fe46  1  0.66907556  0.00237439  0.66796579  1
  Ni  Ni47  1  0.83514807  0.16823058  0.83298442  1
  Fe  Fe48  1  0.83573190  0.50048018  0.50115280  1
  Fe  Fe49  1  0.66888322  0.33378836  0.66569670  1
  Cr  Cr50  1  0.83571171  0.50135356  0.83391090  1
  Cr  Cr51  1  0.83516650  0.83185715  0.50029161  1
  Fe  Fe52  1  0.66895028  0.66620653  0.66601419  1
  Ni  Ni53  1  0.83777361  0.83383115  0.83485265  1
" 