5571,Ni36Fe2Cr60_8,-213.976758390841, 144.565228332391,Ni36Fe2Cr60,"# generated using pymatgen
 data_Cr34FeNi19
_symmetry_space_group_name_H-M   'P 1'
_cell_length_a   7.55011595
_cell_length_b   7.55011595
_cell_length_c   10.67747638
_cell_angle_alpha   90.00000000
_cell_angle_beta   90.00000000
_cell_angle_gamma   90.00000000
_symmetry_Int_Tables_number   1
_chemical_formula_structural   Cr34FeNi19
_chemical_formula_sum   'Cr34 Fe1 Ni19'
_cell_volume   608.66154276
_cell_formula_units_Z   1
loop_
 _symmetry_equiv_pos_site_id
 _symmetry_equiv_pos_as_xyz
  1  'x, y, z'
loop_
 _atom_site_type_symbol
 _atom_site_label
 _atom_site_symmetry_multiplicity
 _atom_site_fract_x
 _atom_site_fract_y
 _atom_site_fract_z
 _atom_site_occupancy
  Cr  Cr0  1  0.99228994  0.99258043  0.99262367  1
  Cr  Cr1  1  0.16069583  0.15950928  0.16116381  1
  Ni  Ni2  1  0.99399476  0.99220873  0.33049139  1
  Ni  Ni3  1  0.99404872  0.32995472  -0.00414976  1
  Ni  Ni4  1  0.16131808  0.49344418  0.16010686  1
  Cr  Cr5  1  -0.00314140  0.32945358  0.32751714  1
  Cr  Cr6  1  -0.00526965  0.66365356  0.99425950  1
  Cr  Cr7  1  0.16294147  0.82913646  0.16268392  1
  Cr  Cr8  1  -0.00427547  0.66227779  0.33040684  1
  Cr  Cr9  1  0.32785516  -0.00486935  0.99346225  1
  Ni  Ni10  1  0.49750552  0.16244853  0.16451899  1
  Ni  Ni11  1  0.32763546  -0.00526756  0.32820512  1
  Cr  Cr12  1  0.33063055  0.32961081  -0.00136913  1
  Ni  Ni13  1  0.49878282  0.49370603  0.16119358  1
  Cr  Cr14  1  0.32921395  0.32978049  0.32580887  1
  Cr  Cr15  1  0.32801207  0.65804442  -0.00414674  1
  Cr  Cr16  1  0.49558646  0.82732341  0.16357851  1
  Cr  Cr17  1  0.32546863  0.65673278  0.32670612  1
  Cr  Cr18  1  0.66301308  -0.00522985  0.99232810  1
  Cr  Cr19  1  0.82784824  0.16323414  0.16180095  1
  Ni  Ni20  1  0.66205888  -0.00490698  0.32794519  1
  Ni  Ni21  1  0.65913556  0.33041856  -0.00394554  1
  Cr  Cr22  1  0.82659936  0.49483067  0.15906043  1
  Ni  Ni23  1  0.65907836  0.32764619  0.32498226  1
  Ni  Ni24  1  0.66044290  0.65780037  0.99308929  1
  Cr  Cr25  1  0.82523950  0.82614178  0.16430552  1
  Ni  Ni26  1  0.66127421  0.66071166  0.32744847  1
  Cr  Cr27  1  0.16132227  0.15917460  0.49625275  1
  Cr  Cr28  1  0.99149544  0.99038846  0.66168634  1
  Cr  Cr29  1  0.16023630  0.16093992  0.82609406  1
  Ni  Ni30  1  0.15763346  0.49828178  0.49721791  1
  Ni  Ni31  1  -0.00426122  0.33099794  0.65982986  1
  Cr  Cr32  1  0.15844225  0.49389954  0.82674636  1
  Ni  Ni33  1  0.16020426  0.82808135  0.49508919  1
  Ni  Ni34  1  -0.00404077  0.66258827  0.65980653  1
  Ni  Ni35  1  0.15872326  0.82679789  0.82460150  1
  Cr  Cr36  1  0.49394075  0.15745182  0.49279892  1
  Ni  Ni37  1  0.32422277  0.99065990  0.66093389  1
  Cr  Cr38  1  0.49248072  0.16166203  0.82588130  1
  Cr  Cr39  1  0.49727057  0.49687033  0.49322975  1
  Cr  Cr40  1  0.32865343  0.32975335  0.65927457  1
  Ni  Ni41  1  0.49693554  0.49495599  0.83091533  1
  Cr  Cr42  1  0.49220357  0.82921160  0.49126969  1
  Cr  Cr43  1  0.32558923  0.66025080  0.66115569  1
  Cr  Cr44  1  0.49175978  0.82477985  0.82796118  1
  Cr  Cr45  1  0.82797021  0.16354067  0.49178040  1
  Cr  Cr46  1  0.66324893  0.99334116  0.66228902  1
  Cr  Cr47  1  0.83074488  0.16713442  0.82951352  1
  Cr  Cr48  1  0.82850909  0.49514131  0.49526232  1
  Cr  Cr49  1  0.66056977  0.32765419  0.66185912  1
  Cr  Cr50  1  0.82794248  0.49462151  0.82906993  1
  Fe  Fe51  1  0.82871468  0.82760210  0.49271155  1
  Cr  Cr52  1  0.66464149  0.66310214  0.66271499  1
  Ni  Ni53  1  0.82980280  0.82368121  0.82691761  1
" 