8701,Ni36Fe3Cr60_11,-213.839712451061, 135.5019562495,Ni36Fe3Cr60,"# generated using pymatgen
 data_Cr34FeNi19
_symmetry_space_group_name_H-M   'P 1'
_cell_length_a   7.54739031
_cell_length_b   7.54739031
_cell_length_c   10.67362174
_cell_angle_alpha   90.00000000
_cell_angle_beta   90.00000000
_cell_angle_gamma   90.00000000
_symmetry_Int_Tables_number   1
_chemical_formula_structural   Cr34FeNi19
_chemical_formula_sum   'Cr34 Fe1 Ni19'
_cell_volume   608.00258756
_cell_formula_units_Z   1
loop_
 _symmetry_equiv_pos_site_id
 _symmetry_equiv_pos_as_xyz
  1  'x, y, z'
loop_
 _atom_site_type_symbol
 _atom_site_label
 _atom_site_symmetry_multiplicity
 _atom_site_fract_x
 _atom_site_fract_y
 _atom_site_fract_z
 _atom_site_occupancy
  Cr  Cr0  1  0.99338688  -0.00520157  0.99309189  1
  Ni  Ni1  1  0.16237828  0.16136172  0.16276704  1
  Cr  Cr2  1  -0.00336623  -0.00372434  0.32867516  1
  Cr  Cr3  1  -0.00322917  0.32665541  -0.00403739  1
  Ni  Ni4  1  0.15993208  0.49425434  0.15990443  1
  Ni  Ni5  1  0.99443266  0.32681551  0.32814402  1
  Ni  Ni6  1  -0.00244744  0.66088401  0.99364464  1
  Cr  Cr7  1  0.16290858  0.82827459  0.15899546  1
  Cr  Cr8  1  -0.00394618  0.66137802  0.32817838  1
  Ni  Ni9  1  0.33042105  0.99382427  0.99384688  1
  Cr  Cr10  1  0.49375855  0.15772422  0.16131252  1
  Ni  Ni11  1  0.32782855  0.99381288  0.32910609  1
  Cr  Cr12  1  0.32800527  0.32842318  -0.00532239  1
  Cr  Cr13  1  0.49386199  0.49612890  0.15999551  1
  Cr  Cr14  1  0.32508695  0.32730353  0.32473072  1
  Ni  Ni15  1  0.32654850  0.66210496  0.99313109  1
  Cr  Cr16  1  0.49443762  0.83036849  0.16135527  1
  Cr  Cr17  1  0.32787359  0.66341396  0.32879448  1
  Ni  Ni18  1  0.65891519  0.99413038  0.99159521  1
  Cr  Cr19  1  0.82681490  0.16064140  0.16207648  1
  Fe  Fe20  1  0.66081594  -0.00529453  0.32912777  1
  Cr  Cr21  1  0.65953564  0.32540999  0.99135607  1
  Cr  Cr22  1  0.83018555  0.49558873  0.16232539  1
  Cr  Cr23  1  0.66261769  0.32790108  0.32936520  1
  Cr  Cr24  1  0.65946374  0.66322136  0.99233991  1
  Cr  Cr25  1  0.82641422  0.82798610  0.15797599  1
  Cr  Cr26  1  0.66017953  0.66280518  0.33067758  1
  Cr  Cr27  1  0.16253879  0.15972250  0.49517615  1
  Cr  Cr28  1  0.99407040  0.99431470  0.66154467  1
  Cr  Cr29  1  0.16359712  0.16029224  0.82695298  1
  Cr  Cr30  1  0.15960049  0.49447779  0.49544354  1
  Cr  Cr31  1  0.99303142  0.32591216  0.66096256  1
  Ni  Ni32  1  0.16320321  0.49681389  0.83060114  1
  Ni  Ni33  1  0.16527582  0.83034130  0.49486617  1
  Cr  Cr34  1  -0.00498772  0.66342463  0.66102742  1
  Cr  Cr35  1  0.16212459  0.82715590  0.82811733  1
  Cr  Cr36  1  0.49400501  0.15901013  0.49429259  1
  Ni  Ni37  1  0.33065633  0.99220872  0.66106517  1
  Ni  Ni38  1  0.49514393  0.15749568  0.82909940  1
  Cr  Cr39  1  0.49591738  0.49465161  0.49534432  1
  Cr  Cr40  1  0.33016753  0.32780528  0.66566441  1
  Ni  Ni41  1  0.49210051  0.49630022  0.82903157  1
  Ni  Ni42  1  0.49204136  0.83181234  0.49364272  1
  Cr  Cr43  1  0.32967360  0.66372589  0.66110781  1
  Ni  Ni44  1  0.49396595  0.83006202  0.82964749  1
  Ni  Ni45  1  0.82779345  0.16292186  0.49292996  1
  Cr  Cr46  1  0.66123236  0.99433991  0.66321594  1
  Ni  Ni47  1  0.82490603  0.15857144  0.82888547  1
  Ni  Ni48  1  0.82939411  0.49174289  0.49345872  1
  Cr  Cr49  1  0.66126591  0.32670415  0.66330275  1
  Cr  Cr50  1  0.83028520  0.49629425  0.82800198  1
  Cr  Cr51  1  0.82770575  0.82805792  0.49419537  1
  Cr  Cr52  1  0.65940795  0.66269605  0.66125127  1
  Ni  Ni53  1  0.82565199  0.82953515  0.83060007  1
" 