5710,Ni37Fe39Cr22_11,-231.075924259901, 195.831655829011,Ni37Fe39Cr22,"# generated using pymatgen
 data_Cr13Fe21Ni20
_symmetry_space_group_name_H-M   'P 1'
_cell_length_a   7.45219176
_cell_length_b   7.45219176
_cell_length_c   10.53899066
_cell_angle_alpha   90.00000000
_cell_angle_beta   90.00000000
_cell_angle_gamma   90.00000000
_symmetry_Int_Tables_number   1
_chemical_formula_structural   Cr13Fe21Ni20
_chemical_formula_sum   'Cr13 Fe21 Ni20'
_cell_volume   585.28455427
_cell_formula_units_Z   1
loop_
 _symmetry_equiv_pos_site_id
 _symmetry_equiv_pos_as_xyz
  1  'x, y, z'
loop_
 _atom_site_type_symbol
 _atom_site_label
 _atom_site_symmetry_multiplicity
 _atom_site_fract_x
 _atom_site_fract_y
 _atom_site_fract_z
 _atom_site_occupancy
  Fe  Fe0  1  0.00366108  1.00042564  1.00073148  1
  Fe  Fe1  1  0.16871231  0.16678312  0.16878989  1
  Ni  Ni2  1  0.00129872  0.00210820  0.33400029  1
  Fe  Fe3  1  1.00071668  0.33493903  1.00004282  1
  Fe  Fe4  1  0.16680241  0.50164190  0.16895293  1
  Ni  Ni5  1  0.00419863  0.33376772  0.33473440  1
  Ni  Ni6  1  1.00080299  0.66697310  0.00134730  1
  Ni  Ni7  1  0.16715011  0.83444656  0.16710364  1
  Fe  Fe8  1  0.00283330  0.66675587  0.33340183  1
  Ni  Ni9  1  0.33325295  0.00216803  0.00143851  1
  Fe  Fe10  1  0.49954012  0.16700135  0.16787523  1
  Fe  Fe11  1  0.33399473  0.00264088  0.33391920  1
  Cr  Cr12  1  0.33462793  0.33329612  0.00115239  1
  Ni  Ni13  1  0.50014615  0.49942835  0.16713317  1
  Ni  Ni14  1  0.33212622  0.33519406  0.33405769  1
  Cr  Cr15  1  0.33247277  0.66801340  1.00058693  1
  Cr  Cr16  1  0.49910964  0.83506061  0.16827759  1
  Ni  Ni17  1  0.33300355  0.66558738  0.33378634  1
  Ni  Ni18  1  0.66741005  0.00305810  1.00026106  1
  Cr  Cr19  1  0.83460919  0.16803641  0.16687196  1
  Ni  Ni20  1  0.66819187  0.00122893  0.33729614  1
  Fe  Fe21  1  0.66775987  0.33483820  1.00042878  1
  Fe  Fe22  1  0.83583935  0.50165370  0.16626311  1
  Cr  Cr23  1  0.66657401  0.33363752  0.33446415  1
  Fe  Fe24  1  0.66858920  0.66575355  0.00109159  1
  Cr  Cr25  1  0.83663699  0.83485419  0.16730014  1
  Cr  Cr26  1  0.66706711  0.66838963  0.33471885  1
  Fe  Fe27  1  0.16689525  0.17051081  0.49859593  1
  Cr  Cr28  1  0.99945723  0.00272682  0.66882043  1
  Fe  Fe29  1  0.16649136  0.16744012  0.83561021  1
  Fe  Fe30  1  0.16786217  0.49914500  0.50060465  1
  Ni  Ni31  1  0.99927231  0.33561407  0.66803227  1
  Ni  Ni32  1  0.16576241  0.50182798  0.83272302  1
  Cr  Cr33  1  0.16791944  0.83210227  0.50024314  1
  Fe  Fe34  1  1.00093371  0.66486228  0.66887889  1
  Ni  Ni35  1  0.16729533  0.83281485  0.83596974  1
  Ni  Ni36  1  0.50382920  0.16793475  0.49981755  1
  Cr  Cr37  1  0.33523615  1.00054574  0.66842508  1
  Fe  Fe38  1  0.50249154  0.16742405  0.83467568  1
  Ni  Ni39  1  0.50005887  0.50093853  0.50264160  1
  Cr  Cr40  1  0.33389709  0.33617675  0.66764431  1
  Fe  Fe41  1  0.50213745  0.50132988  0.83296080  1
  Fe  Fe42  1  0.50299765  0.83452310  0.50136581  1
  Ni  Ni43  1  0.33506828  0.66579906  0.66847104  1
  Cr  Cr44  1  0.50014056  0.83427771  0.83339882  1
  Ni  Ni45  1  0.83321913  0.16760759  0.50180071  1
  Ni  Ni46  1  0.66849939  0.00172587  0.66543146  1
  Fe  Fe47  1  0.83400642  0.16931343  0.83410276  1
  Fe  Fe48  1  0.83475277  0.49960566  0.50279783  1
  Ni  Ni49  1  0.66953502  0.33497996  0.66827275  1
  Fe  Fe50  1  0.83533514  0.50042150  0.83392984  1
  Fe  Fe51  1  0.83156160  0.83549571  0.50093992  1
  Ni  Ni52  1  0.66698631  0.66628440  0.66674668  1
  Cr  Cr53  1  0.83505446  0.83471471  0.83489582  1
" 