7164,Ni37Fe49Cr12_6,-233.732954483383, 210.221224013694,Ni37Fe49Cr12,"# generated using pymatgen
 data_Cr4Fe13Ni10
_symmetry_space_group_name_H-M   'P 1'
_cell_length_a   7.42128826
_cell_length_b   7.42128826
_cell_length_c   10.49528651
_cell_angle_alpha   90.00000000
_cell_angle_beta   90.00000000
_cell_angle_gamma   90.00000000
_symmetry_Int_Tables_number   1
_chemical_formula_structural   Cr4Fe13Ni10
_chemical_formula_sum   'Cr8 Fe26 Ni20'
_cell_volume   578.03335709
_cell_formula_units_Z   2
loop_
 _symmetry_equiv_pos_site_id
 _symmetry_equiv_pos_as_xyz
  1  'x, y, z'
loop_
 _atom_site_type_symbol
 _atom_site_label
 _atom_site_symmetry_multiplicity
 _atom_site_fract_x
 _atom_site_fract_y
 _atom_site_fract_z
 _atom_site_occupancy
  Fe  Fe0  1  0.00433577  0.00473864  1.00270477  1
  Fe  Fe1  1  0.17026540  0.16890790  0.16878524  1
  Fe  Fe2  1  1.00223336  0.00327199  0.33704858  1
  Ni  Ni3  1  1.00196166  0.33616347  0.00575817  1
  Fe  Fe4  1  0.16935074  0.50374218  0.16838030  1
  Cr  Cr5  1  1.00229938  0.33762641  0.33447309  1
  Fe  Fe6  1  0.00553815  0.66732218  1.00283236  1
  Fe  Fe7  1  0.17167512  0.83687186  0.17105417  1
  Fe  Fe8  1  1.00235475  0.67321596  0.33724086  1
  Fe  Fe9  1  0.33753406  0.00465938  0.00437313  1
  Ni  Ni10  1  0.50251477  0.16944466  0.16880239  1
  Ni  Ni11  1  0.33823598  1.00013358  0.33615768  1
  Ni  Ni12  1  0.33538265  0.33810709  0.00331707  1
  Cr  Cr13  1  0.50445674  0.50078167  0.17016815  1
  Fe  Fe14  1  0.33986777  0.33211319  0.33617277  1
  Ni  Ni15  1  0.33522985  0.67250292  1.00279376  1
  Fe  Fe16  1  0.50325119  0.83768548  0.16856512  1
  Fe  Fe17  1  0.33859183  0.67084406  0.33668439  1
  Fe  Fe18  1  0.66704395  0.00492268  1.00180553  1
  Ni  Ni19  1  0.83468565  0.16989332  0.16846175  1
  Ni  Ni20  1  0.66713496  1.00299773  0.33582248  1
  Ni  Ni21  1  0.67157803  0.33325524  1.00232869  1
  Ni  Ni22  1  0.83664701  0.50370229  0.17049910  1
  Ni  Ni23  1  0.67148732  0.33416728  0.33825754  1
  Fe  Fe24  1  0.66733182  0.66763688  1.00142570  1
  Cr  Cr25  1  0.83647535  0.83617459  0.16725609  1
  Fe  Fe26  1  0.66967518  0.66997110  0.33911141  1
  Fe  Fe27  1  0.17251521  0.16629541  0.50271272  1
  Fe  Fe28  1  1.00262206  0.99838060  0.66935150  1
  Cr  Cr29  1  0.17157565  0.16915725  0.83482767  1
  Cr  Cr30  1  0.17343149  0.50514849  0.50323336  1
  Cr  Cr31  1  1.00142681  0.33447455  0.66717852  1
  Fe  Fe32  1  0.17230847  0.50378834  0.83720854  1
  Ni  Ni33  1  0.16765993  0.83729863  0.50384411  1
  Ni  Ni34  1  0.00433979  0.66997628  0.67076661  1
  Fe  Fe35  1  0.17000970  0.83564817  0.83583154  1
  Ni  Ni36  1  0.50197566  0.17137079  0.50281175  1
  Fe  Fe37  1  0.33627770  1.00057801  0.66809599  1
  Ni  Ni38  1  0.50269214  0.17022432  0.83772803  1
  Ni  Ni39  1  0.50464775  0.50127810  0.50446186  1
  Fe  Fe40  1  0.34053798  0.33816392  0.67052583  1
  Fe  Fe41  1  0.50135297  0.50274274  0.83683548  1
  Fe  Fe42  1  0.50171997  0.83526018  0.50278826  1
  Ni  Ni43  1  0.33704805  0.67152765  0.67108013  1
  Ni  Ni44  1  0.50130860  0.83620945  0.83787435  1
  Fe  Fe45  1  0.83446892  0.16738628  0.50148444  1
  Cr  Cr46  1  0.66773314  0.00487595  0.67020022  1
  Ni  Ni47  1  0.83612081  0.16917716  0.83801270  1
  Fe  Fe48  1  0.83365362  0.50641124  0.50328385  1
  Fe  Fe49  1  0.66698719  0.33882447  0.66993521  1
  Cr  Cr50  1  0.83577717  0.50451934  0.83642203  1
  Ni  Ni51  1  0.83808276  0.83605795  0.50392226  1
  Ni  Ni52  1  0.66758532  0.67214836  0.66918173  1
  Fe  Fe53  1  0.83548356  0.83870349  0.83660188  1
" 