718,Ni37Fe53Cr8_8,-236.095958376342, 209.143653895705,Ni37Fe53Cr8,"# generated using pymatgen
 data_Cr5Fe29Ni20
_symmetry_space_group_name_H-M   'P 1'
_cell_length_a   7.41921038
_cell_length_b   7.41921038
_cell_length_c   10.49234794
_cell_angle_alpha   90.00000000
_cell_angle_beta   90.00000000
_cell_angle_gamma   90.00000000
_symmetry_Int_Tables_number   1
_chemical_formula_structural   Cr5Fe29Ni20
_chemical_formula_sum   'Cr5 Fe29 Ni20'
_cell_volume   577.54796194
_cell_formula_units_Z   1
loop_
 _symmetry_equiv_pos_site_id
 _symmetry_equiv_pos_as_xyz
  1  'x, y, z'
loop_
 _atom_site_type_symbol
 _atom_site_label
 _atom_site_symmetry_multiplicity
 _atom_site_fract_x
 _atom_site_fract_y
 _atom_site_fract_z
 _atom_site_occupancy
  Ni  Ni0  1  0.00413096  0.00336017  1.00248558  1
  Fe  Fe1  1  0.17067658  0.17070971  0.16956527  1
  Fe  Fe2  1  1.00227799  0.00432252  0.33677763  1
  Fe  Fe3  1  0.00438426  0.33655927  1.00249709  1
  Fe  Fe4  1  0.17048762  0.50176857  0.16935301  1
  Fe  Fe5  1  1.00273126  0.33609880  0.33700346  1
  Ni  Ni6  1  1.00184629  0.67010419  1.00303867  1
  Cr  Cr7  1  0.17031349  0.83626347  0.16869064  1
  Fe  Fe8  1  0.00381292  0.66924860  0.33727026  1
  Fe  Fe9  1  0.33644576  0.00461224  0.00330775  1
  Ni  Ni10  1  0.50304583  0.16970452  0.17015403  1
  Ni  Ni11  1  0.33629617  0.00449347  0.33745156  1
  Ni  Ni12  1  0.33583442  0.33562335  1.00317035  1
  Ni  Ni13  1  0.50174822  0.50324971  0.16978104  1
  Fe  Fe14  1  0.33764644  0.33585463  0.33590022  1
  Fe  Fe15  1  0.33676327  0.66806773  0.00370161  1
  Ni  Ni16  1  0.50422683  0.83671786  0.16876541  1
  Fe  Fe17  1  0.33668915  0.66961596  0.33738582  1
  Fe  Fe18  1  0.67073802  1.00283324  0.00550926  1
  Ni  Ni19  1  0.83692259  0.16947799  0.17078745  1
  Fe  Fe20  1  0.66892325  0.00527893  0.33597154  1
  Cr  Cr21  1  0.66909988  0.33773296  1.00292048  1
  Fe  Fe22  1  0.83653406  0.50379977  0.16982409  1
  Ni  Ni23  1  0.66987560  0.33597339  0.33716771  1
  Ni  Ni24  1  0.67111317  0.66927744  0.00490388  1
  Ni  Ni25  1  0.83548814  0.83720178  0.16865622  1
  Cr  Cr26  1  0.67018641  0.66905545  0.33567703  1
  Ni  Ni27  1  0.17069089  0.16913447  0.50238327  1
  Fe  Fe28  1  0.00501839  0.00450106  0.66976126  1
  Ni  Ni29  1  0.16952860  0.17068545  0.83761932  1
  Fe  Fe30  1  0.17024921  0.50339846  0.50316701  1
  Fe  Fe31  1  0.00336418  0.33589676  0.67017262  1
  Fe  Fe32  1  0.16893796  0.50259535  0.83715138  1
  Ni  Ni33  1  0.17099776  0.83689246  0.50434255  1
  Fe  Fe34  1  0.00420284  0.66927463  0.66924022  1
  Fe  Fe35  1  0.16856371  0.83727937  0.83637703  1
  Ni  Ni36  1  0.50237297  0.16916353  0.50352795  1
  Ni  Ni37  1  0.33495160  0.00413692  0.66956908  1
  Fe  Fe38  1  0.50260110  0.17106496  0.83560386  1
  Fe  Fe39  1  0.50228646  0.50224795  0.50335091  1
  Fe  Fe40  1  0.33630317  0.33535108  0.67037768  1
  Fe  Fe41  1  0.50313717  0.50162715  0.83681563  1
  Ni  Ni42  1  0.50120105  0.83772925  0.50315273  1
  Fe  Fe43  1  0.33588648  0.67024440  0.66858679  1
  Cr  Cr44  1  0.50168923  0.83633510  0.83871754  1
  Fe  Fe45  1  0.83629317  0.16974601  0.50298435  1
  Fe  Fe46  1  0.66903769  0.00491582  0.66819270  1
  Ni  Ni47  1  0.83893024  0.17213690  0.83525926  1
  Ni  Ni48  1  0.83744210  0.50247289  0.50394069  1
  Fe  Fe49  1  0.67000807  0.33616933  0.66955996  1
  Ni  Ni50  1  0.83777021  0.50195081  0.83700640  1
  Fe  Fe51  1  0.83744333  0.83760671  0.50375926  1
  Fe  Fe52  1  0.66958118  0.66858584  0.66850323  1
  Cr  Cr53  1  0.83736199  0.83594095  0.83724959  1
" 