4245,Ni37Cr63_8,-225.108825093745, 136.627518980555,Ni37Cr63,"# generated using pymatgen
 data_Cr19Ni35
_symmetry_space_group_name_H-M   'P 1'
_cell_length_a   7.49418277
_cell_length_b   7.49418277
_cell_length_c   10.59837491
_cell_angle_alpha   90.00000000
_cell_angle_beta   90.00000000
_cell_angle_gamma   90.00000000
_symmetry_Int_Tables_number   1
_chemical_formula_structural   Cr19Ni35
_chemical_formula_sum   'Cr19 Ni35'
_cell_volume   595.23414927
_cell_formula_units_Z   1
loop_
 _symmetry_equiv_pos_site_id
 _symmetry_equiv_pos_as_xyz
  1  'x, y, z'
loop_
 _atom_site_type_symbol
 _atom_site_label
 _atom_site_symmetry_multiplicity
 _atom_site_fract_x
 _atom_site_fract_y
 _atom_site_fract_z
 _atom_site_occupancy
  Cr  Cr0  1  -0.00137177  0.99522719  -0.00140856  1
  Ni  Ni1  1  0.16591487  0.16411741  0.16606115  1
  Ni  Ni2  1  0.99785579  -0.00045555  0.33202396  1
  Ni  Ni3  1  -0.00085511  0.33618489  -0.00054918  1
  Ni  Ni4  1  0.16223406  0.49732401  0.16328965  1
  Ni  Ni5  1  -0.00093037  0.33039208  0.33198898  1
  Ni  Ni6  1  0.99813908  0.66335233  0.99722689  1
  Ni  Ni7  1  0.16573756  0.83316468  0.16413647  1
  Cr  Cr8  1  0.99614348  0.66461760  0.33068813  1
  Ni  Ni9  1  0.33338835  -0.00163349  -0.00023750  1
  Ni  Ni10  1  0.49620569  0.16081034  0.16385235  1
  Ni  Ni11  1  0.33160517  0.00000343  0.32926594  1
  Cr  Cr12  1  0.33040916  0.32996139  0.00021085  1
  Ni  Ni13  1  0.49898778  0.49978491  0.16609294  1
  Cr  Cr14  1  0.32993374  0.33042717  0.33150816  1
  Cr  Cr15  1  0.32767437  0.66591019  -0.00006933  1
  Ni  Ni16  1  0.49872280  0.83393598  0.16564240  1
  Cr  Cr17  1  0.33288226  0.66378176  0.32970772  1
  Ni  Ni18  1  0.66220293  0.99736626  -0.00109290  1
  Cr  Cr19  1  0.83311926  0.16496961  0.16548926  1
  Ni  Ni20  1  0.66510964  0.99620238  0.33107788  1
  Cr  Cr21  1  0.66501163  0.33021094  0.99812096  1
  Ni  Ni22  1  0.83336384  0.49995987  0.16422393  1
  Cr  Cr23  1  0.66501758  0.33235597  0.33285640  1
  Cr  Cr24  1  0.66841744  0.66641136  -0.00012631  1
  Ni  Ni25  1  0.83010172  0.83038713  0.16561469  1
  Ni  Ni26  1  0.66582392  0.66609130  0.33054479  1
  Ni  Ni27  1  0.16370649  0.16598949  0.49873954  1
  Ni  Ni28  1  -0.00080705  0.99709442  0.66366245  1
  Cr  Cr29  1  0.16609705  0.16500480  0.83008701  1
  Ni  Ni30  1  0.16298940  0.49418722  0.50047248  1
  Ni  Ni31  1  -0.00145688  0.33340787  0.66315727  1
  Ni  Ni32  1  0.16008269  0.49945670  0.83084336  1
  Cr  Cr33  1  0.16346654  0.83412503  0.49955381  1
  Ni  Ni34  1  0.99761766  0.66406834  0.66695659  1
  Ni  Ni35  1  0.16241493  0.83048388  0.83065075  1
  Ni  Ni36  1  0.49743632  0.16586262  0.49997231  1
  Ni  Ni37  1  0.32961750  0.00225736  0.66551285  1
  Ni  Ni38  1  0.49736735  0.16352727  0.83079761  1
  Ni  Ni39  1  0.49948843  0.49552611  0.49916362  1
  Ni  Ni40  1  0.33169897  0.32981947  0.66317452  1
  Cr  Cr41  1  0.49839404  0.49534857  0.82922951  1
  Cr  Cr42  1  0.49916672  0.83211046  0.49568502  1
  Cr  Cr43  1  0.32792261  0.66287857  0.66485262  1
  Cr  Cr44  1  0.49676336  0.83534035  0.83264816  1
  Ni  Ni45  1  0.83341136  0.16539018  0.49829941  1
  Cr  Cr46  1  0.66657008  0.00079137  0.66496712  1
  Cr  Cr47  1  0.83075458  0.16657267  0.83138550  1
  Ni  Ni48  1  0.83209948  0.49681328  0.49938598  1
  Ni  Ni49  1  0.66431579  0.33137475  0.66357010  1
  Ni  Ni50  1  0.83611574  0.49921125  0.83093464  1
  Ni  Ni51  1  0.83208052  0.83235540  0.49740851  1
  Cr  Cr52  1  0.66908101  0.66286607  0.66347188  1
  Ni  Ni53  1  0.83499802  0.82951294  0.83151524  1
" 