3470,Ni37Fe49Cr12_0,-233.71253740513, 205.181664012483,Ni37Fe49Cr12,"# generated using pymatgen
 data_Cr4Fe13Ni10
_symmetry_space_group_name_H-M   'P 1'
_cell_length_a   7.42843954
_cell_length_b   7.42843954
_cell_length_c   10.50539995
_cell_angle_alpha   90.00000000
_cell_angle_beta   90.00000000
_cell_angle_gamma   90.00000000
_symmetry_Int_Tables_number   1
_chemical_formula_structural   Cr4Fe13Ni10
_chemical_formula_sum   'Cr8 Fe26 Ni20'
_cell_volume   579.70597629
_cell_formula_units_Z   2
loop_
 _symmetry_equiv_pos_site_id
 _symmetry_equiv_pos_as_xyz
  1  'x, y, z'
loop_
 _atom_site_type_symbol
 _atom_site_label
 _atom_site_symmetry_multiplicity
 _atom_site_fract_x
 _atom_site_fract_y
 _atom_site_fract_z
 _atom_site_occupancy
  Fe  Fe0  1  0.00401187  1.00168147  1.00138212  1
  Cr  Cr1  1  0.16928656  0.16717066  0.17047865  1
  Fe  Fe2  1  1.00149074  0.99921967  0.33686031  1
  Ni  Ni3  1  1.00119583  0.33749521  1.00223814  1
  Fe  Fe4  1  0.16878713  0.50562866  0.17089861  1
  Fe  Fe5  1  0.00370085  0.33819147  0.33559385  1
  Fe  Fe6  1  0.00346204  0.67105938  1.00178003  1
  Ni  Ni7  1  0.16828742  0.83597232  0.16789737  1
  Fe  Fe8  1  0.00492937  0.67046226  0.33577276  1
  Ni  Ni9  1  0.33581862  1.00011990  0.00260610  1
  Fe  Fe10  1  0.50204547  0.16690921  0.17036225  1
  Fe  Fe11  1  0.33807898  0.99984317  0.33585567  1
  Cr  Cr12  1  0.33435765  0.33578087  0.00273585  1
  Ni  Ni13  1  0.50406267  0.50351643  0.16860377  1
  Ni  Ni14  1  0.33604935  0.33803895  0.33642978  1
  Fe  Fe15  1  0.33493696  0.67117457  0.00378077  1
  Fe  Fe16  1  0.50083795  0.83423686  0.17072542  1
  Ni  Ni17  1  0.33580775  0.66908649  0.33604000  1
  Cr  Cr18  1  0.66955052  1.00041237  0.00325362  1
  Fe  Fe19  1  0.83678954  0.16865736  0.16966513  1
  Fe  Fe20  1  0.66819866  1.00056995  0.33632549  1
  Fe  Fe21  1  0.67032339  0.33657843  0.00268627  1
  Fe  Fe22  1  0.83743013  0.50503899  0.16848894  1
  Cr  Cr23  1  0.66724038  0.33581396  0.33528094  1
  Fe  Fe24  1  0.66975397  0.66778078  0.00313265  1
  Ni  Ni25  1  0.83725038  0.83476849  0.17022382  1
  Ni  Ni26  1  0.66828592  0.67196732  0.33497853  1
  Cr  Cr27  1  0.16898500  0.16917181  0.50327921  1
  Ni  Ni28  1  1.00210547  1.00040024  0.67041781  1
  Fe  Fe29  1  0.16789658  0.16767121  0.83549285  1
  Ni  Ni30  1  0.17114929  0.50389841  0.50247268  1
  Ni  Ni31  1  0.00498804  0.33556190  0.66974430  1
  Fe  Fe32  1  0.16711036  0.50421087  0.83383671  1
  Ni  Ni33  1  0.16976809  0.83513802  0.50284648  1
  Ni  Ni34  1  0.00457684  0.67189225  0.66851532  1
  Ni  Ni35  1  0.16902149  0.83666288  0.83709133  1
  Ni  Ni36  1  0.50228223  0.16760538  0.50254006  1
  Fe  Fe37  1  0.33528091  1.00124327  0.67043914  1
  Fe  Fe38  1  0.50022253  0.16593029  0.83485320  1
  Ni  Ni39  1  0.49975350  0.50363457  0.50264437  1
  Ni  Ni40  1  0.33524486  0.33631116  0.66921398  1
  Fe  Fe41  1  0.50133869  0.50556720  0.83646204  1
  Ni  Ni42  1  0.50139908  0.83633894  0.50226964  1
  Fe  Fe43  1  0.33227625  0.66911098  0.66804247  1
  Fe  Fe44  1  0.50079546  0.83590493  0.83554302  1
  Ni  Ni45  1  0.83616992  0.16663122  0.50293599  1
  Fe  Fe46  1  0.67060506  0.00321535  0.66900626  1
  Fe  Fe47  1  0.83948505  0.16818004  0.83528202  1
  Cr  Cr48  1  0.83773333  0.50309067  0.50210553  1
  Cr  Cr49  1  0.66768069  0.33494409  0.67008953  1
  Fe  Fe50  1  0.83927024  0.50440658  0.83633980  1
  Fe  Fe51  1  0.83679216  0.83820424  0.50175873  1
  Cr  Cr52  1  0.66890612  0.67276355  0.66786005  1
  Ni  Ni53  1  0.83752063  0.83546271  0.83516862  1
" 