340,Ni37Fe53Cr8_12,-235.285705720726, 208.250974909594,Ni37Fe53Cr8,"# generated using pymatgen
 data_Cr5Fe29Ni20
_symmetry_space_group_name_H-M   'P 1'
_cell_length_a   7.41232809
_cell_length_b   7.41232809
_cell_length_c   10.48261492
_cell_angle_alpha   90.00000000
_cell_angle_beta   90.00000000
_cell_angle_gamma   90.00000000
_symmetry_Int_Tables_number   1
_chemical_formula_structural   Cr5Fe29Ni20
_chemical_formula_sum   'Cr5 Fe29 Ni20'
_cell_volume   575.94219951
_cell_formula_units_Z   1
loop_
 _symmetry_equiv_pos_site_id
 _symmetry_equiv_pos_as_xyz
  1  'x, y, z'
loop_
 _atom_site_type_symbol
 _atom_site_label
 _atom_site_symmetry_multiplicity
 _atom_site_fract_x
 _atom_site_fract_y
 _atom_site_fract_z
 _atom_site_occupancy
  Ni  Ni0  1  0.00586456  1.00308868  0.00457712  1
  Fe  Fe1  1  0.17169520  0.17015596  0.17164880  1
  Fe  Fe2  1  0.00389807  0.00605764  0.33700463  1
  Fe  Fe3  1  1.00332514  0.33795821  0.00524200  1
  Fe  Fe4  1  0.16885940  0.50430729  0.17147485  1
  Ni  Ni5  1  0.00497922  0.33929002  0.33702045  1
  Ni  Ni6  1  0.00374755  0.67119550  0.00468543  1
  Fe  Fe7  1  0.16999201  0.83719764  0.17151152  1
  Fe  Fe8  1  0.00409486  0.67145870  0.33743728  1
  Fe  Fe9  1  0.33616325  1.00248445  0.00579291  1
  Fe  Fe10  1  0.50423862  0.16840795  0.16987935  1
  Ni  Ni11  1  0.33812023  1.00288715  0.33685220  1
  Fe  Fe12  1  0.33564827  0.33833076  0.00478135  1
  Ni  Ni13  1  0.50069202  0.50380454  0.16976502  1
  Ni  Ni14  1  0.33613352  0.33698725  0.33758011  1
  Fe  Fe15  1  0.33530631  0.66965799  0.00504058  1
  Ni  Ni16  1  0.50403306  0.83500502  0.16967804  1
  Fe  Fe17  1  0.33741596  0.67042320  0.33660651  1
  Fe  Fe18  1  0.67273304  1.00302048  0.00626690  1
  Ni  Ni19  1  0.84032375  0.16974919  0.16930070  1
  Ni  Ni20  1  0.66965593  1.00239797  0.33659612  1
  Fe  Fe21  1  0.67094994  0.33747484  0.00409656  1
  Fe  Fe22  1  0.83631935  0.50597554  0.17044111  1
  Cr  Cr23  1  0.67043690  0.33595551  0.33650443  1
  Ni  Ni24  1  0.67047239  0.66780444  0.00449534  1
  Ni  Ni25  1  0.83722442  0.83843055  0.17204787  1
  Fe  Fe26  1  0.66908940  0.67117776  0.33611261  1
  Fe  Fe27  1  0.17012558  0.16953204  0.50204678  1
  Ni  Ni28  1  0.00631706  1.00235320  0.66890339  1
  Fe  Fe29  1  0.17037403  0.16970602  0.83764937  1
  Fe  Fe30  1  0.16927144  0.50481246  0.50279049  1
  Fe  Fe31  1  0.00400106  0.33622339  0.66907293  1
  Fe  Fe32  1  0.16993945  0.50400978  0.83744864  1
  Ni  Ni33  1  0.17071353  0.83758827  0.50354275  1
  Ni  Ni34  1  0.00611044  0.67030285  0.66990874  1
  Fe  Fe35  1  0.17146473  0.83693318  0.83641425  1
  Fe  Fe36  1  0.50229982  0.16814357  0.50205680  1
  Fe  Fe37  1  0.33523821  0.00431222  0.66903054  1
  Ni  Ni38  1  0.50075396  0.17213895  0.84032165  1
  Fe  Fe39  1  0.50301244  0.50555722  0.50289207  1
  Fe  Fe40  1  0.33396724  0.33633884  0.67031298  1
  Ni  Ni41  1  0.50112575  0.50229899  0.83710591  1
  Ni  Ni42  1  0.50288368  0.83579485  0.50310850  1
  Fe  Fe43  1  0.33645421  0.66999324  0.66907393  1
  Cr  Cr44  1  0.50310642  0.83575904  0.83785757  1
  Ni  Ni45  1  0.84041071  0.17041345  0.50292262  1
  Cr  Cr46  1  0.67067693  0.00518852  0.66844703  1
  Fe  Fe47  1  0.83757124  0.17169719  0.83851124  1
  Ni  Ni48  1  0.83855048  0.50441270  0.50346752  1
  Cr  Cr49  1  0.66798525  0.33765453  0.66976507  1
  Fe  Fe50  1  0.83647895  0.50340197  0.83706352  1
  Ni  Ni51  1  0.83757953  0.83701310  0.50202851  1
  Fe  Fe52  1  0.67216076  0.66990077  0.66872873  1
  Cr  Cr53  1  0.83933494  0.83715563  0.83640892  1
" 