6334,Ni37Fe39Cr22_10,-231.260127252124, 197.7344395839,Ni37Fe39Cr22,"# generated using pymatgen
 data_Cr13Fe21Ni20
_symmetry_space_group_name_H-M   'P 1'
_cell_length_a   7.45194271
_cell_length_b   7.45194271
_cell_length_c   10.53863844
_cell_angle_alpha   90.00000000
_cell_angle_beta   90.00000000
_cell_angle_gamma   90.00000000
_symmetry_Int_Tables_number   1
_chemical_formula_structural   Cr13Fe21Ni20
_chemical_formula_sum   'Cr13 Fe21 Ni20'
_cell_volume   585.22587467
_cell_formula_units_Z   1
loop_
 _symmetry_equiv_pos_site_id
 _symmetry_equiv_pos_as_xyz
  1  'x, y, z'
loop_
 _atom_site_type_symbol
 _atom_site_label
 _atom_site_symmetry_multiplicity
 _atom_site_fract_x
 _atom_site_fract_y
 _atom_site_fract_z
 _atom_site_occupancy
  Fe  Fe0  1  0.00156688  0.00261263  1.00079176  1
  Fe  Fe1  1  0.16314411  0.16565271  0.16573841  1
  Cr  Cr2  1  0.99950885  0.00127171  0.33205402  1
  Ni  Ni3  1  0.99639756  0.33403503  0.99926030  1
  Cr  Cr4  1  0.17003372  0.50161011  0.16806037  1
  Cr  Cr5  1  0.99871677  0.33449812  0.33663913  1
  Cr  Cr6  1  0.00275781  0.66727409  1.00007594  1
  Fe  Fe7  1  0.16814697  0.83492644  0.16791734  1
  Ni  Ni8  1  0.00181078  0.66810510  0.33591575  1
  Cr  Cr9  1  0.33520042  0.99802024  0.99706922  1
  Cr  Cr10  1  0.49895723  0.16533038  0.16878756  1
  Ni  Ni11  1  0.33573922  0.99688988  0.33767442  1
  Cr  Cr12  1  0.33393462  0.33575270  1.00075006  1
  Fe  Fe13  1  0.50600435  0.50436233  0.16695622  1
  Cr  Cr14  1  0.33367646  0.33215311  0.33420668  1
  Ni  Ni15  1  0.33801833  0.66878280  0.99930522  1
  Fe  Fe16  1  0.50284213  0.83234290  0.16890550  1
  Ni  Ni17  1  0.33408673  0.67076806  0.33338292  1
  Fe  Fe18  1  0.66796420  0.00117486  1.00008288  1
  Ni  Ni19  1  0.83184949  0.16618204  0.16319906  1
  Ni  Ni20  1  0.66670348  1.00079795  0.33401507  1
  Fe  Fe21  1  0.66891027  0.33645700  1.00000135  1
  Ni  Ni22  1  0.83710336  0.50312417  0.16836243  1
  Cr  Cr23  1  0.67027161  0.33229543  0.33455683  1
  Fe  Fe24  1  0.66792985  0.66533468  1.00054152  1
  Ni  Ni25  1  0.83341710  0.83483262  0.16700774  1
  Fe  Fe26  1  0.66807446  0.67013630  0.33305443  1
  Fe  Fe27  1  0.16904003  0.16560477  0.50424088  1
  Ni  Ni28  1  0.99930350  0.00173745  0.66982461  1
  Fe  Fe29  1  0.16552674  0.17034532  0.83260198  1
  Ni  Ni30  1  0.16545531  0.50078309  0.50206142  1
  Fe  Fe31  1  0.00201485  0.33468171  0.66808368  1
  Ni  Ni32  1  0.16750667  0.50005709  0.83403214  1
  Fe  Fe33  1  0.16995312  0.83308505  0.50215246  1
  Ni  Ni34  1  0.00149348  0.66725008  0.66718541  1
  Fe  Fe35  1  0.16809540  0.83321635  0.83265682  1
  Ni  Ni36  1  0.50036979  0.16532445  0.50294653  1
  Fe  Fe37  1  0.33341718  0.00137107  0.66787852  1
  Ni  Ni38  1  0.50054640  0.16673622  0.83184635  1
  Cr  Cr39  1  0.49776356  0.50171059  0.49921779  1
  Ni  Ni40  1  0.33527791  0.33347985  0.66894535  1
  Ni  Ni41  1  0.50112465  0.49760813  0.83642626  1
  Ni  Ni42  1  0.50292271  0.83835966  0.50119130  1
  Cr  Cr43  1  0.33461366  0.66624272  0.67090539  1
  Fe  Fe44  1  0.50368181  0.83195491  0.83273553  1
  Fe  Fe45  1  0.83228261  0.16653147  0.50415966  1
  Ni  Ni46  1  0.66684449  0.00388019  0.66863058  1
  Fe  Fe47  1  0.83240172  0.17201350  0.83420297  1
  Fe  Fe48  1  0.83323406  0.50190665  0.50385487  1
  Fe  Fe49  1  0.66711257  0.33500069  0.66843445  1
  Ni  Ni50  1  0.83527534  0.50257582  0.83144595  1
  Cr  Cr51  1  0.83413764  0.83412058  0.50158849  1
  Fe  Fe52  1  0.66744474  0.66786032  0.66881546  1
  Cr  Cr53  1  0.83512163  0.83656723  0.83435135  1
" 