8908,Ni37Fe49Cr12_4,-233.734153648405, 205.37999397021,Ni37Fe49Cr12,"# generated using pymatgen
 data_Cr4Fe13Ni10
_symmetry_space_group_name_H-M   'P 1'
_cell_length_a   7.42539980
_cell_length_b   7.42539980
_cell_length_c   10.50110110
_cell_angle_alpha   90.00000000
_cell_angle_beta   90.00000000
_cell_angle_gamma   90.00000000
_symmetry_Int_Tables_number   1
_chemical_formula_structural   Cr4Fe13Ni10
_chemical_formula_sum   'Cr8 Fe26 Ni20'
_cell_volume   578.99461395
_cell_formula_units_Z   2
loop_
 _symmetry_equiv_pos_site_id
 _symmetry_equiv_pos_as_xyz
  1  'x, y, z'
loop_
 _atom_site_type_symbol
 _atom_site_label
 _atom_site_symmetry_multiplicity
 _atom_site_fract_x
 _atom_site_fract_y
 _atom_site_fract_z
 _atom_site_occupancy
  Ni  Ni0  1  0.00302375  1.00161158  1.00279993  1
  Fe  Fe1  1  0.16900423  0.16905748  0.16909805  1
  Ni  Ni2  1  1.00179964  1.00211403  0.33609746  1
  Cr  Cr3  1  1.00223164  0.33542360  0.00323390  1
  Fe  Fe4  1  0.17002946  0.50475642  0.17006214  1
  Fe  Fe5  1  0.00368468  0.33578180  0.33592517  1
  Fe  Fe6  1  1.00202336  0.67271747  0.00344123  1
  Fe  Fe7  1  0.16807583  0.83459695  0.16913356  1
  Ni  Ni8  1  0.00347270  0.66949131  0.33564633  1
  Fe  Fe9  1  0.33659447  0.00284975  1.00245252  1
  Fe  Fe10  1  0.50427445  0.16899495  0.16778086  1
  Cr  Cr11  1  0.33587051  1.00081850  0.33553686  1
  Fe  Fe12  1  0.33826615  0.33583433  1.00198787  1
  Ni  Ni13  1  0.50217918  0.50298347  0.16882453  1
  Fe  Fe14  1  0.33375553  0.33825889  0.33540236  1
  Fe  Fe15  1  0.33705753  0.66972420  1.00265053  1
  Ni  Ni16  1  0.50460880  0.83600161  0.16970277  1
  Fe  Fe17  1  0.33660456  0.66853369  0.33612929  1
  Ni  Ni18  1  0.66926878  1.00249000  1.00220422  1
  Fe  Fe19  1  0.83513706  0.16703963  0.16955162  1
  Ni  Ni20  1  0.67159785  1.00123388  0.33608679  1
  Fe  Fe21  1  0.66717285  0.33546689  0.00326136  1
  Ni  Ni22  1  0.83606144  0.50560950  0.16982931  1
  Cr  Cr23  1  0.67051319  0.33745838  0.33283506  1
  Ni  Ni24  1  0.66729442  0.66984460  0.00363431  1
  Ni  Ni25  1  0.83636015  0.83610747  0.17006141  1
  Fe  Fe26  1  0.67040679  0.67188301  0.33538177  1
  Fe  Fe27  1  0.16656583  0.17192088  0.50216388  1
  Cr  Cr28  1  1.00192741  1.00251888  0.66982054  1
  Ni  Ni29  1  0.17229555  0.17002103  0.83604421  1
  Fe  Fe30  1  0.16792672  0.50294474  0.50256255  1
  Fe  Fe31  1  0.00378533  0.33759710  0.66911749  1
  Ni  Ni32  1  0.17124398  0.50168248  0.83537352  1
  Fe  Fe33  1  0.16698702  0.83354405  0.50105059  1
  Ni  Ni34  1  1.00257748  0.66811535  0.66997735  1
  Fe  Fe35  1  0.16854390  0.83518361  0.83823486  1
  Cr  Cr36  1  0.50189449  0.17018441  0.50354808  1
  Cr  Cr37  1  0.33642842  1.00240117  0.67107307  1
  Ni  Ni38  1  0.50127614  0.17035342  0.83736321  1
  Ni  Ni39  1  0.50259098  0.50331978  0.50293521  1
  Fe  Fe40  1  0.33544651  0.33736967  0.67102264  1
  Ni  Ni41  1  0.50126213  0.50027929  0.83664714  1
  Fe  Fe42  1  0.50612308  0.83330079  0.50125283  1
  Cr  Cr43  1  0.33595222  0.66836039  0.66946561  1
  Fe  Fe44  1  0.50433426  0.83610317  0.83863788  1
  Fe  Fe45  1  0.83676930  0.16976433  0.50251549  1
  Fe  Fe46  1  0.67070990  1.00163805  0.67038564  1
  Fe  Fe47  1  0.83436666  0.16819789  0.83634204  1
  Ni  Ni48  1  0.83747048  0.50565180  0.50394165  1
  Ni  Ni49  1  0.66933892  0.33682874  0.67102025  1
  Cr  Cr50  1  0.83569542  0.50623933  0.83497936  1
  Ni  Ni51  1  0.83638008  0.83472079  0.50137325  1
  Fe  Fe52  1  0.67093308  0.66978738  0.66885813  1
  Ni  Ni53  1  0.83624410  0.83672655  0.83698075  1
" 