8059,Ni37Fe53Cr8_15,-235.216681706044, 207.681294664573,Ni37Fe53Cr8,"# generated using pymatgen
 data_Cr5Fe29Ni20
_symmetry_space_group_name_H-M   'P 1'
_cell_length_a   7.41278483
_cell_length_b   7.41278483
_cell_length_c   10.48326084
_cell_angle_alpha   90.00000000
_cell_angle_beta   90.00000000
_cell_angle_gamma   90.00000000
_symmetry_Int_Tables_number   1
_chemical_formula_structural   Cr5Fe29Ni20
_chemical_formula_sum   'Cr5 Fe29 Ni20'
_cell_volume   576.04867279
_cell_formula_units_Z   1
loop_
 _symmetry_equiv_pos_site_id
 _symmetry_equiv_pos_as_xyz
  1  'x, y, z'
loop_
 _atom_site_type_symbol
 _atom_site_label
 _atom_site_symmetry_multiplicity
 _atom_site_fract_x
 _atom_site_fract_y
 _atom_site_fract_z
 _atom_site_occupancy
  Cr  Cr0  1  0.00521831  0.00398563  0.00393074  1
  Ni  Ni1  1  0.17000085  0.17137457  0.17143701  1
  Fe  Fe2  1  1.00346991  0.00409259  0.33670465  1
  Fe  Fe3  1  0.00394900  0.33848850  0.00409267  1
  Ni  Ni4  1  0.16915506  0.50424447  0.17018306  1
  Ni  Ni5  1  0.00386777  0.33626982  0.33590223  1
  Ni  Ni6  1  0.00464062  0.66852982  0.00536569  1
  Ni  Ni7  1  0.17035150  0.83535990  0.17056366  1
  Fe  Fe8  1  1.00329686  0.66924071  0.33679305  1
  Fe  Fe9  1  0.33673075  1.00216389  1.00232944  1
  Cr  Cr10  1  0.50370122  0.17041796  0.16974082  1
  Fe  Fe11  1  0.33618355  1.00358719  0.33827862  1
  Fe  Fe12  1  0.33501505  0.33785080  1.00280989  1
  Fe  Fe13  1  0.50274434  0.50514262  0.17063726  1
  Fe  Fe14  1  0.33618051  0.33791511  0.33821464  1
  Fe  Fe15  1  0.33593457  0.67096478  1.00331634  1
  Fe  Fe16  1  0.50262041  0.83531721  0.16997438  1
  Fe  Fe17  1  0.33661981  0.66947778  0.33719213  1
  Fe  Fe18  1  0.66934417  1.00327821  1.00305016  1
  Fe  Fe19  1  0.83900812  0.17141858  0.17090209  1
  Fe  Fe20  1  0.67133185  1.00365308  0.33792690  1
  Fe  Fe21  1  0.67201572  0.33770270  1.00310552  1
  Fe  Fe22  1  0.83810264  0.50355657  0.17116722  1
  Ni  Ni23  1  0.67151272  0.33788963  0.33816992  1
  Fe  Fe24  1  0.66997873  0.66999939  0.00417642  1
  Fe  Fe25  1  0.83733077  0.83600475  0.17082615  1
  Ni  Ni26  1  0.67018965  0.67018050  0.33677772  1
  Ni  Ni27  1  0.17144797  0.17007039  0.50365693  1
  Fe  Fe28  1  0.00743851  0.00566973  0.67010375  1
  Ni  Ni29  1  0.17105237  0.17086276  0.83588503  1
  Ni  Ni30  1  0.17016875  0.50329000  0.50293603  1
  Fe  Fe31  1  0.00449030  0.33552837  0.66976185  1
  Fe  Fe32  1  0.17107564  0.50325001  0.83773707  1
  Ni  Ni33  1  0.17103823  0.83761868  0.50371647  1
  Cr  Cr34  1  0.00459485  0.67003345  0.66957466  1
  Ni  Ni35  1  0.17404919  0.83719904  0.83670747  1
  Ni  Ni36  1  0.50310672  0.17118063  0.50369894  1
  Ni  Ni37  1  0.33539260  0.00436482  0.67149007  1
  Fe  Fe38  1  0.50233078  0.16997937  0.83719951  1
  Fe  Fe39  1  0.50311181  0.50343902  0.50389923  1
  Ni  Ni40  1  0.33652365  0.33611689  0.66989317  1
  Fe  Fe41  1  0.50332566  0.50402996  0.83644560  1
  Fe  Fe42  1  0.50217032  0.83579331  0.50382275  1
  Ni  Ni43  1  0.33819648  0.67049630  0.67080554  1
  Ni  Ni44  1  0.50151057  0.83586250  0.83802396  1
  Fe  Fe45  1  0.83866003  0.17192126  0.50283041  1
  Cr  Cr46  1  0.66932741  0.00399754  0.66947532  1
  Ni  Ni47  1  0.83675881  0.17395393  0.83673139  1
  Ni  Ni48  1  0.83547173  0.50355175  0.50348969  1
  Fe  Fe49  1  0.66940885  0.33889412  0.66980420  1
  Fe  Fe50  1  0.83657964  0.50187000  0.83741304  1
  Fe  Fe51  1  0.83738592  0.83651628  0.50222087  1
  Ni  Ni52  1  0.66825465  0.66843910  0.66995756  1
  Cr  Cr53  1  0.83627850  0.83560842  0.83679548  1
" 