460,Ni37Fe39Cr22_0,-230.75287516579, 188.725977417888,Ni37Fe39Cr22,"# generated using pymatgen
 data_Cr13Fe21Ni20
_symmetry_space_group_name_H-M   'P 1'
_cell_length_a   7.45937478
_cell_length_b   7.45937478
_cell_length_c   10.54914898
_cell_angle_alpha   90.00000000
_cell_angle_beta   90.00000000
_cell_angle_gamma   90.00000000
_symmetry_Int_Tables_number   1
_chemical_formula_structural   Cr13Fe21Ni20
_chemical_formula_sum   'Cr13 Fe21 Ni20'
_cell_volume   586.97861847
_cell_formula_units_Z   1
loop_
 _symmetry_equiv_pos_site_id
 _symmetry_equiv_pos_as_xyz
  1  'x, y, z'
loop_
 _atom_site_type_symbol
 _atom_site_label
 _atom_site_symmetry_multiplicity
 _atom_site_fract_x
 _atom_site_fract_y
 _atom_site_fract_z
 _atom_site_occupancy
  Cr  Cr0  1  0.00074250  0.00248889  0.99941620  1
  Ni  Ni1  1  0.16688948  0.16567674  0.16596796  1
  Ni  Ni2  1  0.99985363  0.99771523  0.33317916  1
  Ni  Ni3  1  0.00162971  0.33414279  1.00021373  1
  Ni  Ni4  1  0.16752479  0.50038385  0.16516266  1
  Cr  Cr5  1  0.99992421  0.33545564  0.33152873  1
  Cr  Cr6  1  0.00109142  0.66493037  0.00145176  1
  Fe  Fe7  1  0.16758026  0.83437180  0.16820930  1
  Fe  Fe8  1  1.00015145  0.66819360  0.33393770  1
  Fe  Fe9  1  0.33335131  0.00171211  0.00185832  1
  Fe  Fe10  1  0.50080362  0.16920853  0.16814290  1
  Ni  Ni11  1  0.33432018  0.99931191  0.33344364  1
  Ni  Ni12  1  0.33246137  0.33484449  0.00095956  1
  Ni  Ni13  1  0.50164524  0.50124144  0.16438077  1
  Cr  Cr14  1  0.33512717  0.33425465  0.33407168  1
  Ni  Ni15  1  0.33397041  0.66585662  0.00183351  1
  Fe  Fe16  1  0.49977489  0.83376502  0.16630056  1
  Cr  Cr17  1  0.33216048  0.66679644  0.33389476  1
  Cr  Cr18  1  0.66715149  0.00075634  0.00195986  1
  Ni  Ni19  1  0.83380155  0.16759763  0.16834667  1
  Ni  Ni20  1  0.66737587  0.00093345  0.33343991  1
  Ni  Ni21  1  0.66744434  0.33476727  0.00096013  1
  Ni  Ni22  1  0.83235577  0.49925411  0.16546710  1
  Ni  Ni23  1  0.66723409  0.33231857  0.33403997  1
  Ni  Ni24  1  0.66611664  0.66606154  0.00124196  1
  Fe  Fe25  1  0.83416432  0.83363962  0.16874939  1
  Cr  Cr26  1  0.66806714  0.66696730  0.33389447  1
  Cr  Cr27  1  0.16914333  0.16533425  0.50045002  1
  Fe  Fe28  1  0.00171339  0.99896040  0.66834136  1
  Fe  Fe29  1  0.16919934  0.16849451  0.83443941  1
  Ni  Ni30  1  0.16699679  0.50440745  0.50207115  1
  Cr  Cr31  1  0.00149334  0.33558004  0.66935052  1
  Ni  Ni32  1  0.16706366  0.50004663  0.83435475  1
  Fe  Fe33  1  0.16626880  0.83342593  0.50061484  1
  Fe  Fe34  1  0.00063170  0.66675958  0.66698657  1
  Fe  Fe35  1  0.16762727  0.83281884  0.83269818  1
  Ni  Ni36  1  0.50084845  0.16609127  0.50051394  1
  Fe  Fe37  1  0.33337871  0.00212109  0.66642732  1
  Fe  Fe38  1  0.49869948  0.17005511  0.83302693  1
  Fe  Fe39  1  0.50153007  0.49798618  0.50253662  1
  Ni  Ni40  1  0.33472255  0.33487383  0.66650486  1
  Cr  Cr41  1  0.50066877  0.50009746  0.83430683  1
  Fe  Fe42  1  0.49978616  0.83496765  0.50076644  1
  Fe  Fe43  1  0.33238898  0.66551055  0.66629037  1
  Cr  Cr44  1  0.49941611  0.83271406  0.83548035  1
  Cr  Cr45  1  0.83156850  0.16716703  0.49787701  1
  Cr  Cr46  1  0.66749442  0.00085857  0.66684397  1
  Fe  Fe47  1  0.83366223  0.16977892  0.83444612  1
  Ni  Ni48  1  0.83287314  0.50327922  0.50173679  1
  Ni  Ni49  1  0.66517326  0.33476738  0.66649585  1
  Fe  Fe50  1  0.83353853  0.50019023  0.83435421  1
  Fe  Fe51  1  0.83547243  0.83273672  0.50007163  1
  Fe  Fe52  1  0.66849744  0.66452189  0.66602167  1
  Fe  Fe53  1  0.83520245  0.83158190  0.83271260  1
" 