7748,Ni37Fe39Cr22_12,-230.546675627887, 197.240288625912,Ni37Fe39Cr22,"# generated using pymatgen
 data_Cr13Fe21Ni20
_symmetry_space_group_name_H-M   'P 1'
_cell_length_a   7.44326385
_cell_length_b   7.44326385
_cell_length_c   10.52636468
_cell_angle_alpha   90.00000000
_cell_angle_beta   90.00000000
_cell_angle_gamma   90.00000000
_symmetry_Int_Tables_number   1
_chemical_formula_structural   Cr13Fe21Ni20
_chemical_formula_sum   'Cr13 Fe21 Ni20'
_cell_volume   583.18351653
_cell_formula_units_Z   1
loop_
 _symmetry_equiv_pos_site_id
 _symmetry_equiv_pos_as_xyz
  1  'x, y, z'
loop_
 _atom_site_type_symbol
 _atom_site_label
 _atom_site_symmetry_multiplicity
 _atom_site_fract_x
 _atom_site_fract_y
 _atom_site_fract_z
 _atom_site_occupancy
  Cr  Cr0  1  0.00256920  0.99915781  1.00098421  1
  Cr  Cr1  1  0.16691195  0.17101675  0.16678202  1
  Ni  Ni2  1  0.99923337  0.99904975  0.33582260  1
  Fe  Fe3  1  1.00076564  0.33661938  0.00280016  1
  Ni  Ni4  1  0.16493661  0.50033976  0.16945875  1
  Ni  Ni5  1  0.99788613  0.33526760  0.33466631  1
  Cr  Cr6  1  0.99857148  0.66931940  0.00226831  1
  Fe  Fe7  1  0.16602266  0.83281621  0.16948751  1
  Fe  Fe8  1  0.99974547  0.66858786  0.33311157  1
  Ni  Ni9  1  0.33380802  0.00502274  0.99980622  1
  Fe  Fe10  1  0.50563577  0.16911554  0.16609178  1
  Cr  Cr11  1  0.33433708  1.00073720  0.33625034  1
  Ni  Ni12  1  0.33798492  0.33208113  1.00032245  1
  Cr  Cr13  1  0.50259409  0.50223468  0.16830016  1
  Cr  Cr14  1  0.33834574  0.33584165  0.33507902  1
  Cr  Cr15  1  0.33380043  0.66744494  0.00218501  1
  Cr  Cr16  1  0.50425129  0.83765328  0.16762395  1
  Fe  Fe17  1  0.33421063  0.66907152  0.33569959  1
  Fe  Fe18  1  0.66676775  0.00258763  0.00250467  1
  Fe  Fe19  1  0.83247522  0.16960808  0.16992656  1
  Ni  Ni20  1  0.67136985  0.00263913  0.33514088  1
  Ni  Ni21  1  0.66698742  0.33675754  0.00203689  1
  Ni  Ni22  1  0.83650607  0.50081753  0.16980286  1
  Ni  Ni23  1  0.67075806  0.33538725  0.33599434  1
  Ni  Ni24  1  0.67200947  0.66496119  0.99988074  1
  Ni  Ni25  1  0.83250128  0.83515343  0.16969628  1
  Fe  Fe26  1  0.67082959  0.66862019  0.33564190  1
  Fe  Fe27  1  0.16779479  0.16718577  0.50244399  1
  Cr  Cr28  1  0.00272828  0.99892306  0.66817213  1
  Ni  Ni29  1  0.17142755  0.16892001  0.83358407  1
  Cr  Cr30  1  0.16622272  0.49983847  0.50155783  1
  Fe  Fe31  1  1.00029806  0.33383411  0.66716649  1
  Cr  Cr32  1  0.16677011  0.49814810  0.83446057  1
  Fe  Fe33  1  0.16904642  0.83463869  0.50239652  1
  Fe  Fe34  1  0.99978048  0.66781967  0.66924335  1
  Ni  Ni35  1  0.17065805  0.83626953  0.83295125  1
  Fe  Fe36  1  0.50388571  0.16773674  0.50419689  1
  Ni  Ni37  1  0.33469015  0.00288977  0.66798610  1
  Ni  Ni38  1  0.50025554  0.16745837  0.83528784  1
  Fe  Fe39  1  0.50398012  0.50270017  0.50240674  1
  Ni  Ni40  1  0.33826062  0.33364777  0.66908832  1
  Fe  Fe41  1  0.50372468  0.49787105  0.83478388  1
  Ni  Ni42  1  0.50349670  0.83573122  0.50185625  1
  Fe  Fe43  1  0.33679699  0.66975487  0.66723165  1
  Cr  Cr44  1  0.50303592  0.83711313  0.83532771  1
  Fe  Fe45  1  0.83321981  0.16855964  0.50053288  1
  Ni  Ni46  1  0.66736220  0.00192873  0.66729229  1
  Cr  Cr47  1  0.83322226  0.17100907  0.83623191  1
  Fe  Fe48  1  0.83228451  0.50145621  0.50158251  1
  Ni  Ni49  1  0.66595271  0.33716817  0.66729722  1
  Ni  Ni50  1  0.83357868  0.50150356  0.83341973  1
  Fe  Fe51  1  0.83331577  0.83469475  0.49996834  1
  Fe  Fe52  1  0.66812031  0.66806978  0.66807594  1
  Fe  Fe53  1  0.83454985  0.83349461  0.83436671  1
" 