92,Ni37Cr63_16,-225.188070775519, 138.389934902049,Ni37Cr63,"# generated using pymatgen
 data_Cr19Ni35
_symmetry_space_group_name_H-M   'P 1'
_cell_length_a   7.49841960
_cell_length_b   7.49841960
_cell_length_c   10.60436669
_cell_angle_alpha   90.00000000
_cell_angle_beta   90.00000000
_cell_angle_gamma   90.00000000
_symmetry_Int_Tables_number   1
_chemical_formula_structural   Cr19Ni35
_chemical_formula_sum   'Cr19 Ni35'
_cell_volume   596.24426537
_cell_formula_units_Z   1
loop_
 _symmetry_equiv_pos_site_id
 _symmetry_equiv_pos_as_xyz
  1  'x, y, z'
loop_
 _atom_site_type_symbol
 _atom_site_label
 _atom_site_symmetry_multiplicity
 _atom_site_fract_x
 _atom_site_fract_y
 _atom_site_fract_z
 _atom_site_occupancy
  Cr  Cr0  1  0.99754121  0.99681968  0.99748454  1
  Cr  Cr1  1  0.16869648  0.16355743  0.16538319  1
  Cr  Cr2  1  -0.00056628  0.99762600  0.33206853  1
  Cr  Cr3  1  0.99654529  0.33467605  0.99519288  1
  Cr  Cr4  1  0.16531347  0.50058464  0.16503768  1
  Cr  Cr5  1  -0.00176426  0.33322073  0.33343225  1
  Ni  Ni6  1  0.99760632  0.66461106  -0.00165877  1
  Ni  Ni7  1  0.16685471  0.82884396  0.16473889  1
  Ni  Ni8  1  0.99712690  0.66331508  0.32969558  1
  Ni  Ni9  1  0.33420421  0.99740162  -0.00056112  1
  Ni  Ni10  1  0.49849246  0.16519314  0.16454003  1
  Ni  Ni11  1  0.33254537  -0.00105218  0.32998274  1
  Cr  Cr12  1  0.33391234  0.33198496  0.99626135  1
  Ni  Ni13  1  0.49950523  0.49768879  0.16630487  1
  Ni  Ni14  1  0.33504871  0.33145689  0.33332201  1
  Ni  Ni15  1  0.33118285  0.66466977  -0.00169816  1
  Ni  Ni16  1  0.49617827  0.83074073  0.16458575  1
  Ni  Ni17  1  0.33261174  0.66303345  0.33056995  1
  Ni  Ni18  1  0.66253993  -0.00125751  0.99761088  1
  Cr  Cr19  1  0.82647411  0.16823418  0.16349820  1
  Cr  Cr20  1  0.66212624  -0.00180639  0.33082471  1
  Ni  Ni21  1  0.66296463  0.33122159  0.99716985  1
  Ni  Ni22  1  0.82792427  0.50054948  0.16557616  1
  Ni  Ni23  1  0.66142005  0.33427640  0.33188427  1
  Cr  Cr24  1  0.66489350  0.66296810  -0.00187636  1
  Ni  Ni25  1  0.83076829  0.82797462  0.16431376  1
  Ni  Ni26  1  0.66389989  0.66105643  0.32993028  1
  Ni  Ni27  1  0.16575249  0.16779431  0.49903678  1
  Ni  Ni28  1  0.99748406  0.00277325  0.66541201  1
  Ni  Ni29  1  0.16462259  0.16642877  0.82901976  1
  Ni  Ni30  1  0.16631271  0.49590575  0.49816410  1
  Ni  Ni31  1  -0.00161920  0.33024892  0.66460695  1
  Ni  Ni32  1  0.16532876  0.49697085  0.83014322  1
  Cr  Cr33  1  0.16601646  0.82941767  0.49739796  1
  Cr  Cr34  1  0.99745467  0.66112768  0.66579885  1
  Cr  Cr35  1  0.16556653  0.82984394  0.83175019  1
  Ni  Ni36  1  0.49736090  0.16979780  0.49659467  1
  Cr  Cr37  1  0.33065551  0.00268269  0.66375579  1
  Ni  Ni38  1  0.49938854  0.16764766  0.83256899  1
  Ni  Ni39  1  0.49714700  0.49462283  0.49727877  1
  Ni  Ni40  1  0.33126132  0.33290036  0.66440759  1
  Ni  Ni41  1  0.49721989  0.49455478  0.82997615  1
  Cr  Cr42  1  0.49605848  0.82788370  0.49709260  1
  Ni  Ni43  1  0.33102653  0.65780123  0.66469354  1
  Cr  Cr44  1  0.49725760  0.83071074  0.83163769  1
  Ni  Ni45  1  0.83066347  0.16947954  0.50036547  1
  Cr  Cr46  1  0.66600443  0.00117360  0.66564405  1
  Ni  Ni47  1  0.82979759  0.16648108  0.83003959  1
  Ni  Ni48  1  0.83016203  0.49441252  0.49644359  1
  Ni  Ni49  1  0.66405787  0.33159342  0.66463934  1
  Ni  Ni50  1  0.83096072  0.49504323  0.83155922  1
  Cr  Cr51  1  0.83151485  0.83015166  0.49804582  1
  Cr  Cr52  1  0.66318723  0.65957560  0.66496355  1
  Ni  Ni53  1  0.83234806  0.83242477  0.83238686  1
" 