1811,Ni37Fe49Cr12_10,-233.932746899883, 202.084381992811,Ni37Fe49Cr12,"# generated using pymatgen
 data_Cr4Fe13Ni10
_symmetry_space_group_name_H-M   'P 1'
_cell_length_a   7.42735777
_cell_length_b   7.42735777
_cell_length_c   10.50387009
_cell_angle_alpha   90.00000000
_cell_angle_beta   90.00000000
_cell_angle_gamma   90.00000000
_symmetry_Int_Tables_number   1
_chemical_formula_structural   Cr4Fe13Ni10
_chemical_formula_sum   'Cr8 Fe26 Ni20'
_cell_volume   579.45275253
_cell_formula_units_Z   2
loop_
 _symmetry_equiv_pos_site_id
 _symmetry_equiv_pos_as_xyz
  1  'x, y, z'
loop_
 _atom_site_type_symbol
 _atom_site_label
 _atom_site_symmetry_multiplicity
 _atom_site_fract_x
 _atom_site_fract_y
 _atom_site_fract_z
 _atom_site_occupancy
  Fe  Fe0  1  0.00320218  1.00069443  0.00415732  1
  Cr  Cr1  1  0.16825294  0.16934676  0.16630937  1
  Ni  Ni2  1  1.00018090  1.00039415  0.33681812  1
  Ni  Ni3  1  1.00109406  0.34032151  0.00317048  1
  Fe  Fe4  1  0.16901458  0.50433925  0.16841750  1
  Cr  Cr5  1  1.00019716  0.33616194  0.33618873  1
  Ni  Ni6  1  0.00381958  0.66738109  0.00294479  1
  Fe  Fe7  1  0.16805277  0.83497530  0.16785162  1
  Fe  Fe8  1  1.00125971  0.67313028  0.33474361  1
  Ni  Ni9  1  0.33695128  1.00068092  1.00223982  1
  Ni  Ni10  1  0.50426749  0.17155633  0.16961011  1
  Cr  Cr11  1  0.33670008  1.00221765  0.33709031  1
  Fe  Fe12  1  0.33781432  0.33698876  1.00262500  1
  Fe  Fe13  1  0.50362310  0.50185548  0.16934921  1
  Fe  Fe14  1  0.33897225  0.33641229  0.33626506  1
  Fe  Fe15  1  0.33556032  0.66897576  1.00176046  1
  Fe  Fe16  1  0.50337211  0.83624898  0.16963791  1
  Fe  Fe17  1  0.33609132  0.66821932  0.33534704  1
  Cr  Cr18  1  0.66656414  0.00379674  0.00328829  1
  Ni  Ni19  1  0.83484377  0.16805058  0.16926677  1
  Ni  Ni20  1  0.67117223  0.00364308  0.33531274  1
  Ni  Ni21  1  0.66982422  0.33737449  0.00426932  1
  Fe  Fe22  1  0.83537923  0.50247771  0.16768655  1
  Fe  Fe23  1  0.66803245  0.33451274  0.33595649  1
  Fe  Fe24  1  0.66995473  0.66737866  0.00276090  1
  Ni  Ni25  1  0.83685966  0.83571989  0.17020191  1
  Fe  Fe26  1  0.67067696  0.66986948  0.33554760  1
  Ni  Ni27  1  0.16793796  0.16849409  0.50458987  1
  Fe  Fe28  1  0.00269005  1.00121931  0.66678822  1
  Cr  Cr29  1  0.17029871  0.16889027  0.83675521  1
  Cr  Cr30  1  0.17226341  0.50243963  0.50385732  1
  Fe  Fe31  1  1.00201772  0.33571721  0.66833765  1
  Fe  Fe32  1  0.16968243  0.50426875  0.83619338  1
  Fe  Fe33  1  0.16706394  0.83731425  0.50410472  1
  Fe  Fe34  1  1.00198079  0.67107525  0.67060773  1
  Ni  Ni35  1  0.16935178  0.83428728  0.83595740  1
  Fe  Fe36  1  0.50410320  0.17115767  0.50383798  1
  Ni  Ni37  1  0.33662383  1.00159455  0.66914775  1
  Ni  Ni38  1  0.50185952  0.17114086  0.83481046  1
  Ni  Ni39  1  0.50305398  0.50187919  0.50187877  1
  Fe  Fe40  1  0.33886466  0.33562372  0.66912281  1
  Ni  Ni41  1  0.50264385  0.50330398  0.83618203  1
  Cr  Cr42  1  0.50468124  0.83392684  0.50382698  1
  Ni  Ni43  1  0.33485553  0.67029797  0.67097003  1
  Fe  Fe44  1  0.50081385  0.83620340  0.83459791  1
  Ni  Ni45  1  0.83667213  0.16692999  0.50251828  1
  Ni  Ni46  1  0.66817028  0.00401080  0.66890521  1
  Cr  Cr47  1  0.83572267  0.16924423  0.83682654  1
  Fe  Fe48  1  0.83361351  0.50278074  0.50368574  1
  Ni  Ni49  1  0.66935035  0.33612057  0.66768185  1
  Fe  Fe50  1  0.83582016  0.50335176  0.83664404  1
  Ni  Ni51  1  0.83712116  0.83754515  0.50263045  1
  Fe  Fe52  1  0.66882789  0.66880737  0.66970985  1
  Fe  Fe53  1  0.83646275  0.83393248  0.83529569  1
" 