1749,Ni37Fe49Cr12_16,-233.631468707941, 197.174352834927,Ni37Fe49Cr12,"# generated using pymatgen
 data_Cr4Fe13Ni10
_symmetry_space_group_name_H-M   'P 1'
_cell_length_a   7.42753712
_cell_length_b   7.42753712
_cell_length_c   10.50412372
_cell_angle_alpha   90.00000000
_cell_angle_beta   90.00000000
_cell_angle_gamma   90.00000000
_symmetry_Int_Tables_number   1
_chemical_formula_structural   Cr4Fe13Ni10
_chemical_formula_sum   'Cr8 Fe26 Ni20'
_cell_volume   579.49472871
_cell_formula_units_Z   2
loop_
 _symmetry_equiv_pos_site_id
 _symmetry_equiv_pos_as_xyz
  1  'x, y, z'
loop_
 _atom_site_type_symbol
 _atom_site_label
 _atom_site_symmetry_multiplicity
 _atom_site_fract_x
 _atom_site_fract_y
 _atom_site_fract_z
 _atom_site_occupancy
  Ni  Ni0  1  0.00548250  0.00270839  0.00322354  1
  Ni  Ni1  1  0.16954561  0.16992719  0.16926802  1
  Ni  Ni2  1  1.00217124  0.00427634  0.33395873  1
  Ni  Ni3  1  0.00596101  0.33448259  0.00412741  1
  Ni  Ni4  1  0.16848468  0.50461397  0.16929937  1
  Ni  Ni5  1  0.00319202  0.33523321  0.33570131  1
  Fe  Fe6  1  1.00251669  0.67055818  0.00350926  1
  Fe  Fe7  1  0.16884737  0.83804384  0.16929072  1
  Fe  Fe8  1  1.00041176  0.66798630  0.33517965  1
  Fe  Fe9  1  0.33466271  1.00261661  0.00365649  1
  Ni  Ni10  1  0.50261323  0.16960997  0.17056260  1
  Fe  Fe11  1  0.33778655  0.00355293  0.33454661  1
  Fe  Fe12  1  0.33505129  0.33650963  0.00387689  1
  Fe  Fe13  1  0.50208330  0.50167632  0.16901100  1
  Fe  Fe14  1  0.33620951  0.33655704  0.33496949  1
  Fe  Fe15  1  0.33489348  0.66924346  0.00321233  1
  Fe  Fe16  1  0.50138691  0.83542661  0.17070185  1
  Fe  Fe17  1  0.33549574  0.66786040  0.33395604  1
  Cr  Cr18  1  0.66962369  1.00066841  0.00375391  1
  Ni  Ni19  1  0.83636870  0.17009187  0.16963232  1
  Fe  Fe20  1  0.67064108  0.00337949  0.33514925  1
  Ni  Ni21  1  0.66818058  0.33796361  0.00682760  1
  Fe  Fe22  1  0.83656747  0.50138339  0.16916260  1
  Fe  Fe23  1  0.67061030  0.33545196  0.33570480  1
  Ni  Ni24  1  0.66608198  0.66948961  0.00363693  1
  Fe  Fe25  1  0.83748834  0.83553120  0.17017048  1
  Ni  Ni26  1  0.66704419  0.66907313  0.33571058  1
  Cr  Cr27  1  0.17046297  0.16649925  0.50253324  1
  Ni  Ni28  1  0.00338368  0.99963060  0.67025491  1
  Ni  Ni29  1  0.17092236  0.16597744  0.83649889  1
  Fe  Fe30  1  0.17034581  0.50168427  0.50060303  1
  Cr  Cr31  1  0.00577198  0.33622676  0.66904510  1
  Fe  Fe32  1  0.17155931  0.50212978  0.83748120  1
  Cr  Cr33  1  0.16925662  0.83401838  0.50014926  1
  Ni  Ni34  1  1.00263126  0.67095911  0.66874376  1
  Ni  Ni35  1  0.16922012  0.83494854  0.83705241  1
  Ni  Ni36  1  0.50356897  0.16912008  0.50144209  1
  Ni  Ni37  1  0.33685474  1.00141913  0.67010498  1
  Cr  Cr38  1  0.50142335  0.17193031  0.83667132  1
  Fe  Fe39  1  0.50082344  0.50328794  0.50168689  1
  Ni  Ni40  1  0.33666810  0.33708317  0.66946217  1
  Ni  Ni41  1  0.50164833  0.50546020  0.83716072  1
  Fe  Fe42  1  0.50391046  0.83795843  0.50199683  1
  Fe  Fe43  1  0.33454412  0.66844588  0.67066254  1
  Fe  Fe44  1  0.50104830  0.83413295  0.83550669  1
  Ni  Ni45  1  0.83464165  0.16799436  0.50121773  1
  Fe  Fe46  1  0.66952927  1.00074051  0.66735716  1
  Cr  Cr47  1  0.83718660  0.16916105  0.83673191  1
  Fe  Fe48  1  0.83658971  0.50401856  0.50049751  1
  Cr  Cr49  1  0.66791422  0.33777716  0.66711677  1
  Cr  Cr50  1  0.83419890  0.50403238  0.83929950  1
  Fe  Fe51  1  0.83461259  0.83787373  0.50181845  1
  Fe  Fe52  1  0.66823502  0.67194435  0.66876143  1
  Fe  Fe53  1  0.83727161  0.83525548  0.83596916  1
" 