1534,Ni37Cr63_19,-225.45151372937, 146.085341449757,Ni37Cr63,"# generated using pymatgen
 data_Cr19Ni35
_symmetry_space_group_name_H-M   'P 1'
_cell_length_a   7.49280044
_cell_length_b   7.49280044
_cell_length_c   10.59642000
_cell_angle_alpha   90.00000000
_cell_angle_beta   90.00000000
_cell_angle_gamma   90.00000000
_symmetry_Int_Tables_number   1
_chemical_formula_structural   Cr19Ni35
_chemical_formula_sum   'Cr19 Ni35'
_cell_volume   594.90483117
_cell_formula_units_Z   1
loop_
 _symmetry_equiv_pos_site_id
 _symmetry_equiv_pos_as_xyz
  1  'x, y, z'
loop_
 _atom_site_type_symbol
 _atom_site_label
 _atom_site_symmetry_multiplicity
 _atom_site_fract_x
 _atom_site_fract_y
 _atom_site_fract_z
 _atom_site_occupancy
  Ni  Ni0  1  0.99787317  0.00166780  0.99728494  1
  Ni  Ni1  1  0.16674818  0.16524105  0.16458159  1
  Ni  Ni2  1  0.00172176  -0.00170649  0.33226625  1
  Ni  Ni3  1  0.00032852  0.32938567  0.99819232  1
  Ni  Ni4  1  0.16446156  0.49661794  0.16561926  1
  Cr  Cr5  1  -0.00112653  0.33187276  0.33346446  1
  Cr  Cr6  1  0.00044542  0.66384100  0.00054941  1
  Ni  Ni7  1  0.16346738  0.83285735  0.16887057  1
  Ni  Ni8  1  0.00078887  0.66399561  0.33158716  1
  Cr  Cr9  1  0.33114353  0.99813434  -0.00028100  1
  Ni  Ni10  1  0.49674482  0.16633004  0.16584180  1
  Ni  Ni11  1  0.32951408  -0.00169053  0.33192317  1
  Ni  Ni12  1  0.32928614  0.33124313  0.99813552  1
  Cr  Cr13  1  0.49843533  0.49359565  0.16661579  1
  Ni  Ni14  1  0.33085355  0.33174288  0.33149783  1
  Cr  Cr15  1  0.33141789  0.66301136  -0.00146921  1
  Cr  Cr16  1  0.49809045  0.83449987  0.16875696  1
  Ni  Ni17  1  0.32964709  0.66486634  0.33299633  1
  Ni  Ni18  1  0.66648987  0.00063165  0.99597115  1
  Cr  Cr19  1  0.82970025  0.16526861  0.16399804  1
  Ni  Ni20  1  0.66374661  -0.00046981  0.33242644  1
  Ni  Ni21  1  0.66522249  0.32983180  -0.00126090  1
  Ni  Ni22  1  0.83273790  0.49714268  0.16642916  1
  Ni  Ni23  1  0.66442157  0.33264304  0.33252571  1
  Cr  Cr24  1  0.66315031  0.66590018  0.99592037  1
  Cr  Cr25  1  0.83389079  0.83160536  0.16640918  1
  Ni  Ni26  1  0.66438361  0.66275708  0.33423170  1
  Ni  Ni27  1  0.16707771  0.16409925  0.49784650  1
  Cr  Cr28  1  -0.00115946  0.00098246  0.66436227  1
  Ni  Ni29  1  0.16427965  0.16784635  0.83231946  1
  Ni  Ni30  1  0.16635144  0.49945850  0.49790711  1
  Cr  Cr31  1  -0.00009328  0.33113836  0.66251384  1
  Ni  Ni32  1  0.16672075  0.49406411  0.83180352  1
  Ni  Ni33  1  0.16655168  0.83128046  0.49590317  1
  Ni  Ni34  1  0.99788125  0.66371939  0.66362660  1
  Cr  Cr35  1  0.16259892  0.83226979  0.83023374  1
  Cr  Cr36  1  0.49526550  0.16557048  0.49521648  1
  Ni  Ni37  1  0.33065735  -0.00119880  0.66353487  1
  Cr  Cr38  1  0.49579031  0.16744168  0.83311979  1
  Ni  Ni39  1  0.49742548  0.49986626  0.49687123  1
  Ni  Ni40  1  0.32941773  0.33220045  0.66516763  1
  Ni  Ni41  1  0.49651163  0.49718195  0.83127467  1
  Ni  Ni42  1  0.49639903  0.82976579  0.49682486  1
  Cr  Cr43  1  0.33369460  0.66452210  0.66505696  1
  Ni  Ni44  1  0.50073054  0.83142228  0.82993939  1
  Ni  Ni45  1  0.83233845  0.16519220  0.49483214  1
  Cr  Cr46  1  0.66391777  0.99655314  0.66626577  1
  Ni  Ni47  1  0.83358887  0.16353200  0.83582913  1
  Ni  Ni48  1  0.83081715  0.50045518  0.49661990  1
  Cr  Cr49  1  0.66539371  0.33337717  0.66196044  1
  Cr  Cr50  1  0.83326648  0.49815100  0.83164863  1
  Cr  Cr51  1  0.83320294  0.82953828  0.49652691  1
  Ni  Ni52  1  0.66440680  0.66483822  0.66507224  1
  Ni  Ni53  1  0.83058313  0.83311631  0.83183947  1
" 