4407,Ni37Fe39Cr22_14,-230.409751919012, 197.972952866978,Ni37Fe39Cr22,"# generated using pymatgen
 data_Cr13Fe21Ni20
_symmetry_space_group_name_H-M   'P 1'
_cell_length_a   7.44348563
_cell_length_b   7.44348563
_cell_length_c   10.52667833
_cell_angle_alpha   90.00000000
_cell_angle_beta   90.00000000
_cell_angle_gamma   90.00000000
_symmetry_Int_Tables_number   1
_chemical_formula_structural   Cr13Fe21Ni20
_chemical_formula_sum   'Cr13 Fe21 Ni20'
_cell_volume   583.23564880
_cell_formula_units_Z   1
loop_
 _symmetry_equiv_pos_site_id
 _symmetry_equiv_pos_as_xyz
  1  'x, y, z'
loop_
 _atom_site_type_symbol
 _atom_site_label
 _atom_site_symmetry_multiplicity
 _atom_site_fract_x
 _atom_site_fract_y
 _atom_site_fract_z
 _atom_site_occupancy
  Ni  Ni0  1  0.00174578  0.00488220  1.00098480  1
  Fe  Fe1  1  0.16786089  0.16802269  0.16635521  1
  Ni  Ni2  1  0.00548778  0.00544737  0.33439539  1
  Ni  Ni3  1  0.00247388  0.33599030  1.00018241  1
  Ni  Ni4  1  0.17037947  0.50251944  0.16871839  1
  Fe  Fe5  1  0.00637781  0.33665786  0.33425104  1
  Fe  Fe6  1  0.00340156  0.67037064  1.00007650  1
  Ni  Ni7  1  0.16858526  0.83444610  0.16928961  1
  Fe  Fe8  1  0.00591315  0.66791943  0.33600707  1
  Ni  Ni9  1  0.33420062  0.00181017  0.00285749  1
  Ni  Ni10  1  0.49950187  0.16778396  0.16847305  1
  Ni  Ni11  1  0.33102972  1.00016403  0.33367737  1
  Fe  Fe12  1  0.33272616  0.33301429  0.00185186  1
  Fe  Fe13  1  0.49841541  0.50133017  0.16778036  1
  Fe  Fe14  1  0.33381410  0.33531024  0.33433484  1
  Cr  Cr15  1  0.33718045  0.66849542  1.00025284  1
  Fe  Fe16  1  0.49806090  0.83605784  0.16951632  1
  Ni  Ni17  1  0.33355357  0.66843789  0.33732310  1
  Ni  Ni18  1  0.66753912  1.00012256  0.00479117  1
  Fe  Fe19  1  0.83752932  0.16901437  0.16706384  1
  Fe  Fe20  1  0.66496333  1.00130066  0.33322239  1
  Fe  Fe21  1  0.66690521  0.33302003  0.00364503  1
  Cr  Cr22  1  0.83945716  0.50388742  0.16454701  1
  Cr  Cr23  1  0.67112870  0.33650549  0.33405937  1
  Fe  Fe24  1  0.67023094  0.67017341  0.99928685  1
  Cr  Cr25  1  0.83946227  0.83767064  0.16881702  1
  Cr  Cr26  1  0.66578950  0.66709558  0.33453155  1
  Fe  Fe27  1  0.16701395  0.16821470  0.50108358  1
  Fe  Fe28  1  0.99998080  0.99934983  0.66853103  1
  Ni  Ni29  1  0.16666096  0.16965188  0.83698221  1
  Fe  Fe30  1  0.16761542  0.50329363  0.50160782  1
  Fe  Fe31  1  0.99996531  0.33580226  0.67032050  1
  Ni  Ni32  1  0.16843236  0.50129004  0.83506934  1
  Fe  Fe33  1  0.16912119  0.83337832  0.50048160  1
  Ni  Ni34  1  1.00014835  0.66495079  0.66846974  1
  Cr  Cr35  1  0.16440154  0.83477219  0.83474234  1
  Cr  Cr36  1  0.50050442  0.16722634  0.50151623  1
  Cr  Cr37  1  0.33275730  0.99970987  0.66936011  1
  Cr  Cr38  1  0.50128111  0.16843087  0.83540186  1
  Ni  Ni39  1  0.50047552  0.50316212  0.50196997  1
  Cr  Cr40  1  0.33147328  0.33660325  0.66914743  1
  Ni  Ni41  1  0.50318371  0.50116150  0.83574688  1
  Ni  Ni42  1  0.49961644  0.83312707  0.50164970  1
  Fe  Fe43  1  0.33700700  0.66725195  0.66813731  1
  Fe  Fe44  1  0.50449667  0.83448962  0.83450754  1
  Cr  Cr45  1  0.83524611  0.16825630  0.50196141  1
  Ni  Ni46  1  0.66839986  0.99631580  0.66685448  1
  Cr  Cr47  1  0.83277486  0.16502678  0.83401686  1
  Ni  Ni48  1  0.83715147  0.50172675  0.50405255  1
  Fe  Fe49  1  0.66813609  0.33836278  0.66757399  1
  Fe  Fe50  1  0.83617170  0.50213596  0.83533650  1
  Cr  Cr51  1  0.83661404  0.83376762  0.49962839  1
  Ni  Ni52  1  0.66927251  0.66685416  0.66974660  1
  Ni  Ni53  1  0.83385123  0.83370454  0.83527925  1
" 