7397,Ni37Fe53Cr8_1,-235.496311509408, 209.361222407383,Ni37Fe53Cr8,"# generated using pymatgen
 data_Cr5Fe29Ni20
_symmetry_space_group_name_H-M   'P 1'
_cell_length_a   7.41231419
_cell_length_b   7.41231419
_cell_length_c   10.48259526
_cell_angle_alpha   90.00000000
_cell_angle_beta   90.00000000
_cell_angle_gamma   90.00000000
_symmetry_Int_Tables_number   1
_chemical_formula_structural   Cr5Fe29Ni20
_chemical_formula_sum   'Cr5 Fe29 Ni20'
_cell_volume   575.93895989
_cell_formula_units_Z   1
loop_
 _symmetry_equiv_pos_site_id
 _symmetry_equiv_pos_as_xyz
  1  'x, y, z'
loop_
 _atom_site_type_symbol
 _atom_site_label
 _atom_site_symmetry_multiplicity
 _atom_site_fract_x
 _atom_site_fract_y
 _atom_site_fract_z
 _atom_site_occupancy
  Cr  Cr0  1  0.00512922  1.00309650  1.00178513  1
  Fe  Fe1  1  0.17439971  0.17022577  0.17091457  1
  Fe  Fe2  1  0.00595877  1.00164838  0.33693819  1
  Ni  Ni3  1  0.00527218  0.33879237  0.00508466  1
  Fe  Fe4  1  0.17163283  0.50228092  0.17124269  1
  Fe  Fe5  1  0.00763262  0.33795234  0.33766851  1
  Fe  Fe6  1  0.00676620  0.66962103  0.00542882  1
  Ni  Ni7  1  0.17234228  0.83430894  0.17159008  1
  Fe  Fe8  1  0.00439623  0.67092308  0.33757766  1
  Ni  Ni9  1  0.33793522  1.00323710  0.00412004  1
  Ni  Ni10  1  0.50203560  0.17005690  0.16859479  1
  Ni  Ni11  1  0.33793687  1.00358230  0.33652131  1
  Ni  Ni12  1  0.33652620  0.33730955  1.00251683  1
  Fe  Fe13  1  0.50117706  0.50367778  0.16849976  1
  Ni  Ni14  1  0.33671359  0.33688401  0.33785961  1
  Fe  Fe15  1  0.33563161  0.67033690  1.00258293  1
  Fe  Fe16  1  0.50266863  0.83846174  0.16944372  1
  Fe  Fe17  1  0.33789804  0.66992840  0.33816780  1
  Fe  Fe18  1  0.66782033  0.00448384  1.00217373  1
  Cr  Cr19  1  0.83622284  0.17058706  0.17155193  1
  Ni  Ni20  1  0.66757590  1.00078854  0.33649398  1
  Fe  Fe21  1  0.66770120  0.33587910  1.00258313  1
  Fe  Fe22  1  0.83789152  0.50671415  0.16879864  1
  Cr  Cr23  1  0.66786750  0.33860990  0.33837850  1
  Fe  Fe24  1  0.66842151  0.67075424  0.00392306  1
  Fe  Fe25  1  0.83615426  0.83499130  0.17236312  1
  Fe  Fe26  1  0.66865782  0.67222051  0.33732394  1
  Ni  Ni27  1  0.17269520  0.17128592  0.50250370  1
  Fe  Fe28  1  0.00500569  0.00372460  0.67145042  1
  Fe  Fe29  1  0.17232649  0.17255741  0.83565664  1
  Ni  Ni30  1  0.17164339  0.50472173  0.50415961  1
  Ni  Ni31  1  0.00473913  0.33793799  0.66932036  1
  Fe  Fe32  1  0.17236696  0.50296175  0.83588250  1
  Fe  Fe33  1  0.17095936  0.83861172  0.50311073  1
  Fe  Fe34  1  0.00476881  0.67210364  0.66835925  1
  Fe  Fe35  1  0.17280869  0.83576930  0.83666685  1
  Ni  Ni36  1  0.50183509  0.16889262  0.50549230  1
  Ni  Ni37  1  0.33713999  1.00183522  0.67044167  1
  Fe  Fe38  1  0.50403706  0.17041861  0.83662812  1
  Fe  Fe39  1  0.50183866  0.50366202  0.50616435  1
  Fe  Fe40  1  0.33774771  0.33648082  0.66950669  1
  Ni  Ni41  1  0.50145460  0.50508036  0.83653538  1
  Fe  Fe42  1  0.50273168  0.83898993  0.50504854  1
  Ni  Ni43  1  0.33616659  0.67137812  0.67033928  1
  Ni  Ni44  1  0.50161687  0.83653051  0.83809531  1
  Cr  Cr45  1  0.83678074  0.16742098  0.50420595  1
  Ni  Ni46  1  0.66903131  1.00307738  0.67221002  1
  Ni  Ni47  1  0.83726937  0.17026501  0.83607153  1
  Fe  Fe48  1  0.83888608  0.50494226  0.50556233  1
  Ni  Ni49  1  0.67015960  0.33723156  0.67058061  1
  Cr  Cr50  1  0.83746998  0.50200961  0.83642737  1
  Ni  Ni51  1  0.83616062  0.83574533  0.50385741  1
  Fe  Fe52  1  0.66762389  0.67138524  0.67000951  1
  Fe  Fe53  1  0.83374196  0.83699892  0.83495766  1
" 