823,Ni37Fe49Cr12_2,-233.536698005734, 198.928478548584,Ni37Fe49Cr12,"# generated using pymatgen
 data_Cr4Fe13Ni10
_symmetry_space_group_name_H-M   'P 1'
_cell_length_a   7.42941158
_cell_length_b   7.42941158
_cell_length_c   10.50677461
_cell_angle_alpha   90.00000000
_cell_angle_beta   90.00000000
_cell_angle_gamma   90.00000000
_symmetry_Int_Tables_number   1
_chemical_formula_structural   Cr4Fe13Ni10
_chemical_formula_sum   'Cr8 Fe26 Ni20'
_cell_volume   579.93357488
_cell_formula_units_Z   2
loop_
 _symmetry_equiv_pos_site_id
 _symmetry_equiv_pos_as_xyz
  1  'x, y, z'
loop_
 _atom_site_type_symbol
 _atom_site_label
 _atom_site_symmetry_multiplicity
 _atom_site_fract_x
 _atom_site_fract_y
 _atom_site_fract_z
 _atom_site_occupancy
  Ni  Ni0  1  1.00110204  0.00292801  1.00168786  1
  Fe  Fe1  1  0.16876816  0.16854511  0.17059819  1
  Ni  Ni2  1  1.00240005  0.00405175  0.33538450  1
  Ni  Ni3  1  1.00169603  0.33469453  1.00037105  1
  Cr  Cr4  1  0.17026278  0.50183691  0.16979427  1
  Ni  Ni5  1  1.00191664  0.33341157  0.33750142  1
  Ni  Ni6  1  0.99978594  0.66997879  1.00085371  1
  Ni  Ni7  1  0.16822564  0.83813674  0.17017379  1
  Cr  Cr8  1  1.00245096  0.66986356  0.33653040  1
  Cr  Cr9  1  0.33493645  0.00519591  0.00392820  1
  Ni  Ni10  1  0.50326551  0.16936033  0.16914136  1
  Ni  Ni11  1  0.33674842  1.00248805  0.33505709  1
  Fe  Fe12  1  0.33600388  0.33599967  1.00241539  1
  Ni  Ni13  1  0.50300052  0.50156545  0.16969583  1
  Ni  Ni14  1  0.33760364  0.33535255  0.33512608  1
  Cr  Cr15  1  0.33603332  0.66789530  0.00342471  1
  Fe  Fe16  1  0.50348805  0.83486311  0.17084459  1
  Ni  Ni17  1  0.33896149  0.66975845  0.33736571  1
  Fe  Fe18  1  0.67274695  0.00318538  0.00255349  1
  Fe  Fe19  1  0.83671320  0.16798987  0.16856251  1
  Fe  Fe20  1  0.66871769  0.00272406  0.33674642  1
  Fe  Fe21  1  0.66928159  0.33533790  1.00199395  1
  Cr  Cr22  1  0.83501456  0.50263906  0.16817302  1
  Fe  Fe23  1  0.66733324  0.33503638  0.33628365  1
  Ni  Ni24  1  0.67144731  0.66802655  1.00178368  1
  Fe  Fe25  1  0.83496664  0.83752687  0.16858828  1
  Ni  Ni26  1  0.66650858  0.66927442  0.33718843  1
  Cr  Cr27  1  0.16960339  0.17005906  0.50170452  1
  Fe  Fe28  1  1.00116867  0.00307898  0.66998990  1
  Fe  Fe29  1  0.16787090  0.17005402  0.83522360  1
  Ni  Ni30  1  0.17042485  0.50245404  0.50166394  1
  Fe  Fe31  1  1.00206410  0.33458306  0.67025050  1
  Ni  Ni32  1  0.16870163  0.50087982  0.83663938  1
  Fe  Fe33  1  0.17112637  0.83639812  0.50163001  1
  Cr  Cr34  1  1.00241608  0.66855397  0.66942574  1
  Fe  Fe35  1  0.16644681  0.83687634  0.83592230  1
  Ni  Ni36  1  0.50403120  0.16836741  0.50347623  1
  Ni  Ni37  1  0.33739259  0.00330216  0.66915367  1
  Fe  Fe38  1  0.50316534  0.17127423  0.83441926  1
  Fe  Fe39  1  0.50220376  0.50274896  0.50129712  1
  Fe  Fe40  1  0.33676414  0.33610306  0.66931485  1
  Fe  Fe41  1  0.50351917  0.50028886  0.83597507  1
  Fe  Fe42  1  0.50222731  0.83622716  0.50278022  1
  Fe  Fe43  1  0.33638915  0.66892454  0.66834956  1
  Cr  Cr44  1  0.50466661  0.83638875  0.83439242  1
  Fe  Fe45  1  0.83483615  0.16901665  0.50292889  1
  Ni  Ni46  1  0.66833021  0.00432697  0.66852547  1
  Ni  Ni47  1  0.83619733  0.16870027  0.83552749  1
  Fe  Fe48  1  0.83466178  0.50098837  0.50189684  1
  Fe  Fe49  1  0.66877458  0.33432935  0.66931805  1
  Fe  Fe50  1  0.83572314  0.50171626  0.83760218  1
  Ni  Ni51  1  0.83348550  0.83712633  0.50277920  1
  Fe  Fe52  1  0.66826630  0.66981853  0.66823327  1
  Fe  Fe53  1  0.83694068  0.83652547  0.83658977  1
" 