5434,Ni37Cr63_17,-225.160274193346, 138.143913271444,Ni37Cr63,"# generated using pymatgen
 data_Cr19Ni35
_symmetry_space_group_name_H-M   'P 1'
_cell_length_a   7.50171491
_cell_length_b   7.50171491
_cell_length_c   10.60902697
_cell_angle_alpha   90.00000000
_cell_angle_beta   90.00000000
_cell_angle_gamma   90.00000000
_symmetry_Int_Tables_number   1
_chemical_formula_structural   Cr19Ni35
_chemical_formula_sum   'Cr19 Ni35'
_cell_volume   597.03070162
_cell_formula_units_Z   1
loop_
 _symmetry_equiv_pos_site_id
 _symmetry_equiv_pos_as_xyz
  1  'x, y, z'
loop_
 _atom_site_type_symbol
 _atom_site_label
 _atom_site_symmetry_multiplicity
 _atom_site_fract_x
 _atom_site_fract_y
 _atom_site_fract_z
 _atom_site_occupancy
  Ni  Ni0  1  -0.00025658  0.99708012  0.99711753  1
  Cr  Cr1  1  0.16336738  0.16623485  0.15919542  1
  Cr  Cr2  1  -0.00172207  0.99493647  0.33295890  1
  Ni  Ni3  1  -0.00172932  0.32981416  0.99594970  1
  Ni  Ni4  1  0.16495343  0.50122870  0.16115790  1
  Cr  Cr5  1  0.99674941  0.32997840  0.33384406  1
  Ni  Ni6  1  0.00029353  0.66629961  -0.00069750  1
  Ni  Ni7  1  0.16224444  0.82814105  0.16048651  1
  Ni  Ni8  1  0.99559982  0.66694209  0.33095022  1
  Ni  Ni9  1  0.32778043  0.99338958  0.99677325  1
  Cr  Cr10  1  0.49924388  0.16387111  0.16599339  1
  Cr  Cr11  1  0.33021118  0.99551177  0.33186514  1
  Ni  Ni12  1  0.32966145  0.33359958  0.99741723  1
  Ni  Ni13  1  0.49641522  0.49969049  0.16441265  1
  Cr  Cr14  1  0.33362334  0.33208824  0.33341709  1
  Ni  Ni15  1  0.33000165  0.66609941  -0.00144314  1
  Ni  Ni16  1  0.49830739  0.82912579  0.16369584  1
  Cr  Cr17  1  0.32955475  0.66632786  0.32782561  1
  Cr  Cr18  1  0.66509760  0.99566956  -0.00104089  1
  Ni  Ni19  1  0.83162149  0.16215107  0.16427269  1
  Ni  Ni20  1  0.66687603  0.99705797  0.33071151  1
  Cr  Cr21  1  0.66531013  0.33222253  0.99518275  1
  Cr  Cr22  1  0.83390817  0.49864014  0.16540492  1
  Ni  Ni23  1  0.66501197  0.33117601  0.33315097  1
  Cr  Cr24  1  0.66071400  0.66475901  0.99509255  1
  Ni  Ni25  1  0.83212261  0.83137491  0.16614200  1
  Ni  Ni26  1  0.66507339  0.66459578  0.33123687  1
  Ni  Ni27  1  0.16608623  0.16131347  0.50267579  1
  Ni  Ni28  1  -0.00109974  -0.00170367  0.66334088  1
  Ni  Ni29  1  0.16374840  0.16154964  0.83167020  1
  Cr  Cr30  1  0.16515934  0.49987501  0.49770496  1
  Cr  Cr31  1  0.99641956  0.32698847  0.66430248  1
  Cr  Cr32  1  0.16494360  0.49787593  0.83384351  1
  Ni  Ni33  1  0.16241675  0.83269866  0.50057748  1
  Cr  Cr34  1  0.99659217  0.66683863  0.66231922  1
  Ni  Ni35  1  0.16689541  0.83381322  0.83178506  1
  Ni  Ni36  1  0.49964261  0.16463363  0.49870644  1
  Ni  Ni37  1  0.32859584  0.99696130  0.66435072  1
  Cr  Cr38  1  0.49336232  0.16115357  0.82961575  1
  Ni  Ni39  1  0.50102579  0.49729990  0.49893313  1
  Ni  Ni40  1  0.33241107  0.33008607  0.66297397  1
  Ni  Ni41  1  0.49479673  0.50053437  0.82917194  1
  Cr  Cr42  1  0.50041024  0.83183439  0.50054556  1
  Ni  Ni43  1  0.33358942  0.66593135  0.66581932  1
  Ni  Ni44  1  0.49351587  0.82937105  0.82863093  1
  Ni  Ni45  1  0.82802844  0.16148564  0.49773204  1
  Ni  Ni46  1  0.66561555  0.99722084  0.66350223  1
  Ni  Ni47  1  0.83534575  0.16265262  0.83186869  1
  Ni  Ni48  1  0.82648860  0.50060736  0.49563394  1
  Cr  Cr49  1  0.66539293  0.33313449  0.66574112  1
  Ni  Ni50  1  0.83115349  0.49807932  0.83187662  1
  Ni  Ni51  1  0.83049739  0.83106791  0.49713362  1
  Ni  Ni52  1  0.66210465  0.66438284  0.66487644  1
  Cr  Cr53  1  0.83205310  0.83153396  0.82882109  1
" 