8897,Ni37Fe53Cr8_14,-235.722317611154, 208.237106182444,Ni37Fe53Cr8,"# generated using pymatgen
 data_Cr5Fe29Ni20
_symmetry_space_group_name_H-M   'P 1'
_cell_length_a   7.41780016
_cell_length_b   7.41780016
_cell_length_c   10.49035360
_cell_angle_alpha   90.00000000
_cell_angle_beta   90.00000000
_cell_angle_gamma   90.00000000
_symmetry_Int_Tables_number   1
_chemical_formula_structural   Cr5Fe29Ni20
_chemical_formula_sum   'Cr5 Fe29 Ni20'
_cell_volume   577.21869109
_cell_formula_units_Z   1
loop_
 _symmetry_equiv_pos_site_id
 _symmetry_equiv_pos_as_xyz
  1  'x, y, z'
loop_
 _atom_site_type_symbol
 _atom_site_label
 _atom_site_symmetry_multiplicity
 _atom_site_fract_x
 _atom_site_fract_y
 _atom_site_fract_z
 _atom_site_occupancy
  Ni  Ni0  1  0.00469677  0.00448713  1.00195759  1
  Fe  Fe1  1  0.16869481  0.17031490  0.17003779  1
  Ni  Ni2  1  0.00465943  0.00427658  0.33765041  1
  Fe  Fe3  1  0.00347826  0.33607565  1.00173450  1
  Ni  Ni4  1  0.17239557  0.50320641  0.17093517  1
  Fe  Fe5  1  0.00424010  0.33490861  0.33729769  1
  Fe  Fe6  1  0.00379191  0.66951657  1.00104353  1
  Fe  Fe7  1  0.17171372  0.83640004  0.17029009  1
  Fe  Fe8  1  0.00620144  0.67040502  0.33869692  1
  Fe  Fe9  1  0.33618183  1.00279640  1.00285763  1
  Cr  Cr10  1  0.50367464  0.17014385  0.17061126  1
  Ni  Ni11  1  0.33466902  1.00267732  0.33687721  1
  Fe  Fe12  1  0.33578069  0.33782820  1.00316989  1
  Ni  Ni13  1  0.49997517  0.50297044  0.16969867  1
  Ni  Ni14  1  0.33578486  0.33763308  0.33729313  1
  Fe  Fe15  1  0.33703232  0.66933201  1.00330762  1
  Fe  Fe16  1  0.50092325  0.83497086  0.16942011  1
  Fe  Fe17  1  0.33568027  0.66994163  0.33653339  1
  Fe  Fe18  1  0.67088196  1.00311487  1.00142908  1
  Fe  Fe19  1  0.83785171  0.17072537  0.16983751  1
  Ni  Ni20  1  0.67062826  0.00489992  0.33665085  1
  Ni  Ni21  1  0.67030542  0.33804767  1.00200225  1
  Cr  Cr22  1  0.83729456  0.50211505  0.16957443  1
  Ni  Ni23  1  0.66975299  0.33565354  0.33784055  1
  Ni  Ni24  1  0.66791167  0.66869036  1.00083535  1
  Cr  Cr25  1  0.83669032  0.83905031  0.16941783  1
  Cr  Cr26  1  0.66794366  0.66936209  0.33823673  1
  Fe  Fe27  1  0.17056054  0.16848585  0.50219682  1
  Fe  Fe28  1  1.00243736  1.00146003  0.67043365  1
  Ni  Ni29  1  0.17157682  0.16991302  0.83730547  1
  Fe  Fe30  1  0.17044663  0.50491285  0.50284114  1
  Cr  Cr31  1  1.00234316  0.33675755  0.67100866  1
  Ni  Ni32  1  0.17085252  0.50331546  0.83717342  1
  Fe  Fe33  1  0.16949842  0.83656439  0.50324082  1
  Ni  Ni34  1  0.00446704  0.67145441  0.67070185  1
  Fe  Fe35  1  0.16843708  0.83649130  0.83642833  1
  Fe  Fe36  1  0.50428566  0.16955880  0.50264016  1
  Fe  Fe37  1  0.33680882  1.00328724  0.66975801  1
  Fe  Fe38  1  0.50442498  0.17067806  0.83646665  1
  Fe  Fe39  1  0.50305878  0.50249469  0.50351858  1
  Fe  Fe40  1  0.33795548  0.33715687  0.66991459  1
  Fe  Fe41  1  0.50421902  0.50275623  0.83717308  1
  Fe  Fe42  1  0.50293533  0.83790726  0.50406127  1
  Ni  Ni43  1  0.33573508  0.67027718  0.67002569  1
  Fe  Fe44  1  0.50381541  0.83652519  0.83647394  1
  Fe  Fe45  1  0.83510938  0.16861077  0.50262179  1
  Ni  Ni46  1  0.67005391  0.00373437  0.67051762  1
  Ni  Ni47  1  0.83561950  0.16829453  0.83787357  1
  Fe  Fe48  1  0.83644914  0.50356120  0.50379562  1
  Ni  Ni49  1  0.66887635  0.33618862  0.67011705  1
  Ni  Ni50  1  0.83614519  0.50513272  0.83698932  1
  Ni  Ni51  1  0.83734154  0.83751744  0.50450784  1
  Fe  Fe52  1  0.67076792  0.67014544  0.67040934  1
  Ni  Ni53  1  0.83619975  0.83653009  0.83582396  1
" 