2662,Ni37Cr63_14,-225.249706912333, 140.046247118778,Ni37Cr63,"# generated using pymatgen
 data_Cr19Ni35
_symmetry_space_group_name_H-M   'P 1'
_cell_length_a   7.49639987
_cell_length_b   7.49639987
_cell_length_c   10.60151037
_cell_angle_alpha   90.00000000
_cell_angle_beta   90.00000000
_cell_angle_gamma   90.00000000
_symmetry_Int_Tables_number   1
_chemical_formula_structural   Cr19Ni35
_chemical_formula_sum   'Cr19 Ni35'
_cell_volume   595.76259383
_cell_formula_units_Z   1
loop_
 _symmetry_equiv_pos_site_id
 _symmetry_equiv_pos_as_xyz
  1  'x, y, z'
loop_
 _atom_site_type_symbol
 _atom_site_label
 _atom_site_symmetry_multiplicity
 _atom_site_fract_x
 _atom_site_fract_y
 _atom_site_fract_z
 _atom_site_occupancy
  Ni  Ni0  1  -0.00034659  0.99600786  0.99647462  1
  Ni  Ni1  1  0.16582670  0.16336496  0.16574020  1
  Ni  Ni2  1  0.99598328  0.00020381  0.33094231  1
  Cr  Cr3  1  -0.00186629  0.32763087  0.99662863  1
  Cr  Cr4  1  0.16456689  0.49732250  0.16550120  1
  Ni  Ni5  1  -0.00001737  0.32931823  0.33379277  1
  Ni  Ni6  1  0.99699102  0.66968934  0.99697014  1
  Cr  Cr7  1  0.16358682  0.83320372  0.16214702  1
  Ni  Ni8  1  0.99613192  0.66455187  0.33149907  1
  Ni  Ni9  1  0.33057965  0.99722334  0.99691895  1
  Ni  Ni10  1  0.49741737  0.16534074  0.16577096  1
  Cr  Cr11  1  0.33175733  0.00175284  0.32995459  1
  Cr  Cr12  1  0.33378504  0.32997428  -0.00016777  1
  Ni  Ni13  1  0.50015408  0.49777216  0.16454916  1
  Ni  Ni14  1  0.33208324  0.33054005  0.33230917  1
  Ni  Ni15  1  0.33452780  0.66718890  0.99691273  1
  Ni  Ni16  1  0.50065072  0.83111760  0.16363391  1
  Cr  Cr17  1  0.33301772  0.66044987  0.33120175  1
  Cr  Cr18  1  0.66445098  0.99759834  0.99642507  1
  Cr  Cr19  1  0.83092477  0.16403534  0.16633005  1
  Ni  Ni20  1  0.66584970  -0.00092757  0.33091440  1
  Ni  Ni21  1  0.66144765  0.33236419  0.99673185  1
  Cr  Cr22  1  0.82937063  0.49920783  0.16429017  1
  Ni  Ni23  1  0.66201837  0.33066533  0.33203209  1
  Ni  Ni24  1  0.66269280  0.66531153  -0.00160661  1
  Ni  Ni25  1  0.83033851  0.83068582  0.16592482  1
  Ni  Ni26  1  0.66461660  0.66456461  0.32898239  1
  Ni  Ni27  1  0.16512051  0.16831979  0.49784623  1
  Cr  Cr28  1  -0.00194409  -0.00011206  0.66668268  1
  Ni  Ni29  1  0.16616168  0.16161196  0.83065875  1
  Ni  Ni30  1  0.16550777  0.49497348  0.49914422  1
  Ni  Ni31  1  0.00133905  0.33008525  0.66351308  1
  Cr  Cr32  1  0.16611033  0.49966815  0.82940092  1
  Cr  Cr33  1  0.16481529  0.83080222  0.49998591  1
  Ni  Ni34  1  0.00116231  0.66394043  0.66561028  1
  Ni  Ni35  1  0.16618362  0.83255763  0.83225414  1
  Ni  Ni36  1  0.49708137  0.16757794  0.49716607  1
  Ni  Ni37  1  0.33088956  0.00017318  0.66713133  1
  Ni  Ni38  1  0.49593265  0.16443911  0.83120175  1
  Ni  Ni39  1  0.49537821  0.49491063  0.49716617  1
  Ni  Ni40  1  0.33036183  0.33078616  0.66314102  1
  Ni  Ni41  1  0.49710375  0.49870625  0.83262391  1
  Cr  Cr42  1  0.49741903  0.83306900  0.49849197  1
  Ni  Ni43  1  0.33058932  0.66318385  0.66581773  1
  Ni  Ni44  1  0.49487236  0.83114967  0.83206442  1
  Ni  Ni45  1  0.83191529  0.16636776  0.49539945  1
  Cr  Cr46  1  0.66414858  -0.00051647  0.66590769  1
  Ni  Ni47  1  0.83198174  0.16388787  0.83203396  1
  Cr  Cr48  1  0.83303546  0.49657874  0.49664696  1
  Cr  Cr49  1  0.66365682  0.32963205  0.66597375  1
  Cr  Cr50  1  0.83096533  0.49780017  0.83324207  1
  Cr  Cr51  1  0.83157180  0.83230777  0.49433918  1
  Cr  Cr52  1  0.66317539  0.66508900  0.66642444  1
  Ni  Ni53  1  0.83320680  0.83113321  0.83360938  1
" 