3456,Ni37Fe49Cr12_13,-233.901927580071, 201.327817492345,Ni37Fe49Cr12,"# generated using pymatgen
 data_Cr4Fe13Ni10
_symmetry_space_group_name_H-M   'P 1'
_cell_length_a   7.43290799
_cell_length_b   7.43290799
_cell_length_c   10.51171929
_cell_angle_alpha   90.00000000
_cell_angle_beta   90.00000000
_cell_angle_gamma   90.00000000
_symmetry_Int_Tables_number   1
_chemical_formula_structural   Cr4Fe13Ni10
_chemical_formula_sum   'Cr8 Fe26 Ni20'
_cell_volume   580.75274087
_cell_formula_units_Z   2
loop_
 _symmetry_equiv_pos_site_id
 _symmetry_equiv_pos_as_xyz
  1  'x, y, z'
loop_
 _atom_site_type_symbol
 _atom_site_label
 _atom_site_symmetry_multiplicity
 _atom_site_fract_x
 _atom_site_fract_y
 _atom_site_fract_z
 _atom_site_occupancy
  Cr  Cr0  1  1.00206283  1.00159575  1.00223044  1
  Fe  Fe1  1  0.17080012  0.16814165  0.16905834  1
  Fe  Fe2  1  0.00556369  1.00056275  0.33509086  1
  Ni  Ni3  1  1.00094567  0.33722204  1.00145614  1
  Cr  Cr4  1  0.16826997  0.50187376  0.16807008  1
  Fe  Fe5  1  0.00365109  0.33464005  0.33482540  1
  Ni  Ni6  1  1.00119475  0.66749645  1.00139028  1
  Ni  Ni7  1  0.16965193  0.83793470  0.17078907  1
  Fe  Fe8  1  0.00331877  0.67168965  0.33551444  1
  Fe  Fe9  1  0.33658741  0.00390712  1.00209827  1
  Fe  Fe10  1  0.50109137  0.16932921  0.16789093  1
  Ni  Ni11  1  0.33427160  1.00072788  0.33486257  1
  Ni  Ni12  1  0.33661021  0.33483367  1.00090524  1
  Ni  Ni13  1  0.50541931  0.50149590  0.17034155  1
  Fe  Fe14  1  0.33672687  0.33509620  0.33572235  1
  Cr  Cr15  1  0.33516555  0.66973314  1.00138722  1
  Ni  Ni16  1  0.50172823  0.83584914  0.16870498  1
  Ni  Ni17  1  0.33557392  0.66995599  0.33741337  1
  Ni  Ni18  1  0.66770435  0.00318538  1.00172638  1
  Fe  Fe19  1  0.83499698  0.17029126  0.16854455  1
  Cr  Cr20  1  0.66787411  1.00136919  0.33586236  1
  Ni  Ni21  1  0.66933421  0.33495913  0.00275462  1
  Fe  Fe22  1  0.83415426  0.50291977  0.16801203  1
  Fe  Fe23  1  0.66651540  0.33734237  0.33380518  1
  Fe  Fe24  1  0.67028572  0.66779619  1.00207928  1
  Fe  Fe25  1  0.83534498  0.83367814  0.16901490  1
  Fe  Fe26  1  0.66678503  0.66904128  0.33506320  1
  Fe  Fe27  1  0.17126067  0.16675137  0.50206088  1
  Fe  Fe28  1  0.00330610  1.00006553  0.66961402  1
  Ni  Ni29  1  0.16976731  0.16873378  0.83599589  1
  Fe  Fe30  1  0.17089384  0.50437496  0.50110614  1
  Cr  Cr31  1  0.00441826  0.33639213  0.67170982  1
  Fe  Fe32  1  0.16904397  0.50245503  0.83646849  1
  Ni  Ni33  1  0.16991189  0.83649488  0.50176673  1
  Fe  Fe34  1  0.00268886  0.67224725  0.67001393  1
  Ni  Ni35  1  0.16945931  0.83714071  0.83433259  1
  Fe  Fe36  1  0.49962254  0.16701360  0.50255499  1
  Ni  Ni37  1  0.33648818  1.00065013  0.66884674  1
  Fe  Fe38  1  0.50137528  0.16803067  0.83644278  1
  Fe  Fe39  1  0.50019373  0.50431613  0.50124251  1
  Fe  Fe40  1  0.33609156  0.33464397  0.66982948  1
  Ni  Ni41  1  0.50388600  0.50203900  0.83552305  1
  Ni  Ni42  1  0.50065408  0.83515798  0.50305857  1
  Fe  Fe43  1  0.33644179  0.67026015  0.66878805  1
  Ni  Ni44  1  0.50257538  0.83639489  0.83512397  1
  Cr  Cr45  1  0.83638071  0.16702504  0.50257714  1
  Ni  Ni46  1  0.66768750  0.99978345  0.66924479  1
  Fe  Fe47  1  0.83443593  0.16836892  0.83660673  1
  Cr  Cr48  1  0.83475867  0.50423759  0.49963417  1
  Cr  Cr49  1  0.66711184  0.33448719  0.67020125  1
  Ni  Ni50  1  0.83513159  0.50234706  0.83860087  1
  Ni  Ni51  1  0.83632705  0.83538094  0.50368472  1
  Fe  Fe52  1  0.66775916  0.67190906  0.66975005  1
  Fe  Fe53  1  0.83471248  0.83464283  0.83461961  1
" 