1222,Ni37Fe39Cr22_2,-230.53850969863, 194.341602320134,Ni37Fe39Cr22,"# generated using pymatgen
 data_Cr13Fe21Ni20
_symmetry_space_group_name_H-M   'P 1'
_cell_length_a   7.44729023
_cell_length_b   7.44729023
_cell_length_c   10.53205885
_cell_angle_alpha   90.00000000
_cell_angle_beta   90.00000000
_cell_angle_gamma   90.00000000
_symmetry_Int_Tables_number   1
_chemical_formula_structural   Cr13Fe21Ni20
_chemical_formula_sum   'Cr13 Fe21 Ni20'
_cell_volume   584.13043602
_cell_formula_units_Z   1
loop_
 _symmetry_equiv_pos_site_id
 _symmetry_equiv_pos_as_xyz
  1  'x, y, z'
loop_
 _atom_site_type_symbol
 _atom_site_label
 _atom_site_symmetry_multiplicity
 _atom_site_fract_x
 _atom_site_fract_y
 _atom_site_fract_z
 _atom_site_occupancy
  Ni  Ni0  1  0.00177481  1.00061596  0.00202572  1
  Ni  Ni1  1  0.16860346  0.16594002  0.16801681  1
  Fe  Fe2  1  1.00099601  0.99927134  0.33458067  1
  Cr  Cr3  1  0.00435138  0.33380891  0.99954370  1
  Cr  Cr4  1  0.16784620  0.50207247  0.16707543  1
  Fe  Fe5  1  0.99988879  0.33271941  0.33700444  1
  Cr  Cr6  1  0.00179740  0.67042355  0.99977841  1
  Ni  Ni7  1  0.16708119  0.83681497  0.16776242  1
  Fe  Fe8  1  0.99969082  0.67159244  0.33637958  1
  Fe  Fe9  1  0.33199580  0.00141440  1.00039119  1
  Ni  Ni10  1  0.50129408  0.16797661  0.16521306  1
  Cr  Cr11  1  0.33465902  0.00258472  0.33645104  1
  Ni  Ni12  1  0.33646830  0.33329717  1.00071918  1
  Fe  Fe13  1  0.50259328  0.49990456  0.16613802  1
  Cr  Cr14  1  0.33484733  0.33338046  0.33406382  1
  Ni  Ni15  1  0.33528494  0.66705611  1.00076886  1
  Cr  Cr16  1  0.50219052  0.83565138  0.16751943  1
  Cr  Cr17  1  0.33593067  0.66777185  0.33404999  1
  Fe  Fe18  1  0.66697378  0.00151472  1.00021993  1
  Cr  Cr19  1  0.83287378  0.16706663  0.16864327  1
  Ni  Ni20  1  0.66971240  1.00084788  0.33481233  1
  Fe  Fe21  1  0.66579217  0.33562118  0.99911085  1
  Cr  Cr22  1  0.83294832  0.50204830  0.17094985  1
  Fe  Fe23  1  0.66622175  0.33408330  0.33731736  1
  Cr  Cr24  1  0.66855517  0.66879484  0.99858965  1
  Ni  Ni25  1  0.83499363  0.83560933  0.16883771  1
  Ni  Ni26  1  0.67013430  0.66936192  0.33727488  1
  Fe  Fe27  1  0.16497692  0.16715214  0.50379208  1
  Fe  Fe28  1  0.00372810  1.00112126  0.66805864  1
  Ni  Ni29  1  0.16979405  0.16681336  0.83329989  1
  Cr  Cr30  1  0.16675257  0.50096163  0.50403010  1
  Ni  Ni31  1  1.00129808  0.33517631  0.66821737  1
  Fe  Fe32  1  0.17072013  0.50077092  0.83260717  1
  Fe  Fe33  1  0.16521488  0.83422336  0.50310666  1
  Ni  Ni34  1  1.00048975  0.66881291  0.66951117  1
  Fe  Fe35  1  0.16950253  0.83464712  0.83441085  1
  Fe  Fe36  1  0.50384473  0.16924681  0.50157096  1
  Fe  Fe37  1  0.33286853  0.00194945  0.66781805  1
  Fe  Fe38  1  0.49978157  0.16987420  0.83499510  1
  Fe  Fe39  1  0.50356610  0.50227478  0.50381662  1
  Ni  Ni40  1  0.33542056  0.33405040  0.66877824  1
  Ni  Ni41  1  0.50002905  0.50241098  0.83329485  1
  Fe  Fe42  1  0.50295360  0.83249100  0.50225532  1
  Ni  Ni43  1  0.33459808  0.66857409  0.66861932  1
  Ni  Ni44  1  0.49827500  0.83422008  0.83334746  1
  Fe  Fe45  1  0.83546877  0.16894328  0.50134306  1
  Cr  Cr46  1  0.66808103  1.00006193  0.66833141  1
  Cr  Cr47  1  0.83577663  0.16913896  0.83463064  1
  Ni  Ni48  1  0.83412213  0.50159699  0.50232664  1
  Ni  Ni49  1  0.66755371  0.33446556  0.66732912  1
  Ni  Ni50  1  0.83381820  0.50132272  0.83018615  1
  Ni  Ni51  1  0.83428654  0.83410004  0.50156724  1
  Fe  Fe52  1  0.66827121  0.66511722  0.66784266  1
  Fe  Fe53  1  0.83493821  0.83486805  0.83330558  1
" 