5319,Ni37Fe39Cr22_7,-230.715274693736, 197.288077403344,Ni37Fe39Cr22,"# generated using pymatgen
 data_Cr13Fe21Ni20
_symmetry_space_group_name_H-M   'P 1'
_cell_length_a   7.44567394
_cell_length_b   7.44567394
_cell_length_c   10.52977307
_cell_angle_alpha   90.00000000
_cell_angle_beta   90.00000000
_cell_angle_gamma   90.00000000
_symmetry_Int_Tables_number   1
_chemical_formula_structural   Cr13Fe21Ni20
_chemical_formula_sum   'Cr13 Fe21 Ni20'
_cell_volume   583.75019564
_cell_formula_units_Z   1
loop_
 _symmetry_equiv_pos_site_id
 _symmetry_equiv_pos_as_xyz
  1  'x, y, z'
loop_
 _atom_site_type_symbol
 _atom_site_label
 _atom_site_symmetry_multiplicity
 _atom_site_fract_x
 _atom_site_fract_y
 _atom_site_fract_z
 _atom_site_occupancy
  Ni  Ni0  1  0.00149223  1.00112421  0.00300469  1
  Ni  Ni1  1  0.16646078  0.16948549  0.16859205  1
  Fe  Fe2  1  1.00081897  1.00003639  0.33416773  1
  Fe  Fe3  1  0.00188645  0.33266073  1.00075002  1
  Fe  Fe4  1  0.16763748  0.50241534  0.16747736  1
  Cr  Cr5  1  1.00121400  0.33388490  0.33393702  1
  Fe  Fe6  1  0.99988296  0.66743852  0.00177738  1
  Fe  Fe7  1  0.16799876  0.83494185  0.16856061  1
  Fe  Fe8  1  1.00087262  0.66960699  0.33432258  1
  Cr  Cr9  1  0.33183579  0.00242789  1.00087638  1
  Cr  Cr10  1  0.50006430  0.16793236  0.16947627  1
  Ni  Ni11  1  0.33068287  0.99954513  0.33436236  1
  Ni  Ni12  1  0.33305991  0.33703662  1.00031231  1
  Cr  Cr13  1  0.50060645  0.50187311  0.16831283  1
  Ni  Ni14  1  0.33256756  0.33396392  0.33488847  1
  Fe  Fe15  1  0.33444419  0.66710740  1.00115448  1
  Ni  Ni16  1  0.50277028  0.83302439  0.16998354  1
  Fe  Fe17  1  0.33489736  0.66739919  0.33511736  1
  Cr  Cr18  1  0.67083657  1.00110620  0.00147256  1
  Fe  Fe19  1  0.83530242  0.16702618  0.16760942  1
  Fe  Fe20  1  0.66990053  1.00028154  0.33471480  1
  Ni  Ni21  1  0.66922427  0.33743618  0.99945558  1
  Fe  Fe22  1  0.83541848  0.50284683  0.16584190  1
  Cr  Cr23  1  0.66935359  0.33832001  0.33694288  1
  Fe  Fe24  1  0.67003057  0.66716445  0.00192128  1
  Ni  Ni25  1  0.83597353  0.83334067  0.16842424  1
  Ni  Ni26  1  0.66999403  0.66961896  0.33440829  1
  Fe  Fe27  1  0.16822033  0.16714959  0.50142429  1
  Cr  Cr28  1  1.00100986  0.00147061  0.66717706  1
  Ni  Ni29  1  0.16805838  0.17145405  0.83387908  1
  Cr  Cr30  1  0.16808848  0.50054669  0.50319122  1
  Ni  Ni31  1  1.00096048  0.33421473  0.66906664  1
  Fe  Fe32  1  0.16703118  0.50081366  0.83378016  1
  Fe  Fe33  1  0.16783106  0.83513240  0.50126624  1
  Fe  Fe34  1  1.00002449  0.66556990  0.66838066  1
  Cr  Cr35  1  0.16564746  0.83416649  0.83320774  1
  Cr  Cr36  1  0.50102693  0.16956183  0.50236715  1
  Fe  Fe37  1  0.33552831  0.00415617  0.66845217  1
  Fe  Fe38  1  0.50266752  0.17151143  0.83367574  1
  Ni  Ni39  1  0.49961680  0.50127086  0.50157160  1
  Ni  Ni40  1  0.33438846  0.33637212  0.66948367  1
  Fe  Fe41  1  0.50097253  0.49934207  0.83454020  1
  Cr  Cr42  1  0.50221015  0.83471967  0.50061816  1
  Ni  Ni43  1  0.33409215  0.66680469  0.66803987  1
  Cr  Cr44  1  0.50293186  0.83484713  0.83404953  1
  Ni  Ni45  1  0.83583703  0.16700939  0.50215248  1
  Ni  Ni46  1  0.67078481  0.00221855  0.66874982  1
  Fe  Fe47  1  0.83582105  0.16872220  0.83414243  1
  Fe  Fe48  1  0.83362592  0.50151875  0.50303281  1
  Ni  Ni49  1  0.66893579  0.33494771  0.66826910  1
  Ni  Ni50  1  0.83597971  0.50023094  0.83496850  1
  Ni  Ni51  1  0.83658030  0.83501550  0.50061179  1
  Cr  Cr52  1  0.66865063  0.66687095  0.66807498  1
  Ni  Ni53  1  0.83575798  0.83282307  0.83546915  1
" 