8982,Ni37Fe39Cr22_18,-230.969565084637, 196.853087180978,Ni37Fe39Cr22,"# generated using pymatgen
 data_Cr13Fe21Ni20
_symmetry_space_group_name_H-M   'P 1'
_cell_length_a   7.44888277
_cell_length_b   7.44888277
_cell_length_c   10.53431103
_cell_angle_alpha   90.00000000
_cell_angle_beta   90.00000000
_cell_angle_gamma   90.00000000
_symmetry_Int_Tables_number   1
_chemical_formula_structural   Cr13Fe21Ni20
_chemical_formula_sum   'Cr13 Fe21 Ni20'
_cell_volume   584.50524917
_cell_formula_units_Z   1
loop_
 _symmetry_equiv_pos_site_id
 _symmetry_equiv_pos_as_xyz
  1  'x, y, z'
loop_
 _atom_site_type_symbol
 _atom_site_label
 _atom_site_symmetry_multiplicity
 _atom_site_fract_x
 _atom_site_fract_y
 _atom_site_fract_z
 _atom_site_occupancy
  Cr  Cr0  1  0.00259808  0.00124398  1.00069387  1
  Fe  Fe1  1  0.16642304  0.16766134  0.16877195  1
  Ni  Ni2  1  1.00064488  0.00479590  0.33526279  1
  Fe  Fe3  1  0.99962381  0.33507546  0.00231600  1
  Fe  Fe4  1  0.16751719  0.50093665  0.16745430  1
  Fe  Fe5  1  1.00057133  0.33337210  0.33525378  1
  Fe  Fe6  1  0.00138056  0.66694767  0.00128848  1
  Fe  Fe7  1  0.17023336  0.83506071  0.16664831  1
  Cr  Cr8  1  1.00008704  0.66769642  0.33463853  1
  Ni  Ni9  1  0.33512641  0.99856557  1.00075602  1
  Cr  Cr10  1  0.50305992  0.16640254  0.16769900  1
  Fe  Fe11  1  0.33454175  0.00167894  0.33416915  1
  Cr  Cr12  1  0.33576889  0.33436757  1.00054306  1
  Ni  Ni13  1  0.50127941  0.50238143  0.16745148  1
  Fe  Fe14  1  0.33337197  0.33424643  0.33524702  1
  Ni  Ni15  1  0.33574552  0.66976303  0.00229923  1
  Ni  Ni16  1  0.49865000  0.83436389  0.16562789  1
  Cr  Cr17  1  0.33612584  0.66666335  0.33421597  1
  Ni  Ni18  1  0.66622000  1.00107276  1.00109390  1
  Ni  Ni19  1  0.83540294  0.17044945  0.16889624  1
  Fe  Fe20  1  0.66860756  0.00180496  0.33569893  1
  Ni  Ni21  1  0.66905964  0.33648999  0.00158885  1
  Ni  Ni22  1  0.83499988  0.49750049  0.16519537  1
  Fe  Fe23  1  0.66971734  0.33406184  0.33433429  1
  Fe  Fe24  1  0.66579458  0.66714257  0.00133399  1
  Cr  Cr25  1  0.83344464  0.83607861  0.16765281  1
  Cr  Cr26  1  0.66744471  0.66701353  0.33524243  1
  Fe  Fe27  1  0.16488151  0.16898202  0.50065500  1
  Ni  Ni28  1  0.99925082  0.00266069  0.66746106  1
  Ni  Ni29  1  0.16719239  0.16558021  0.83405636  1
  Ni  Ni30  1  0.16811213  0.49870978  0.50148068  1
  Ni  Ni31  1  0.99944872  0.33285443  0.66600016  1
  Cr  Cr32  1  0.16822850  0.50229149  0.83483298  1
  Cr  Cr33  1  0.16824349  0.83444053  0.50166592  1
  Cr  Cr34  1  0.99979345  0.66866540  0.66697131  1
  Ni  Ni35  1  0.16965516  0.83547126  0.83564870  1
  Fe  Fe36  1  0.50333413  0.16766358  0.49974719  1
  Cr  Cr37  1  0.33386206  1.00100812  0.66994208  1
  Fe  Fe38  1  0.50096937  0.16727720  0.83618193  1
  Fe  Fe39  1  0.50225524  0.50154959  0.50216302  1
  Cr  Cr40  1  0.33496829  0.33544387  0.66729989  1
  Ni  Ni41  1  0.50304898  0.50319549  0.83415830  1
  Ni  Ni42  1  0.50286742  0.83511350  0.50209240  1
  Ni  Ni43  1  0.33782965  0.66726125  0.66735553  1
  Fe  Fe44  1  0.50021979  0.83389496  0.83570627  1
  Ni  Ni45  1  0.83457018  0.16793964  0.50074683  1
  Fe  Fe46  1  0.66929651  1.00027609  0.66679527  1
  Cr  Cr47  1  0.83434558  0.16863404  0.83422705  1
  Ni  Ni48  1  0.83464686  0.49796057  0.50267903  1
  Fe  Fe49  1  0.66925960  0.33550111  0.66753936  1
  Fe  Fe50  1  0.83312313  0.50124846  0.83525421  1
  Ni  Ni51  1  0.83213618  0.83775824  0.50254359  1
  Fe  Fe52  1  0.66674245  0.66788328  0.66708496  1
  Fe  Fe53  1  0.83412030  0.83374020  0.83417944  1
" 