6580,Ni37Fe53Cr8_13,-235.756035970335, 210.17775175741,Ni37Fe53Cr8,"# generated using pymatgen
 data_Cr5Fe29Ni20
_symmetry_space_group_name_H-M   'P 1'
_cell_length_a   7.41743866
_cell_length_b   7.41743866
_cell_length_c   10.48984235
_cell_angle_alpha   90.00000000
_cell_angle_beta   90.00000000
_cell_angle_gamma   90.00000000
_symmetry_Int_Tables_number   1
_chemical_formula_structural   Cr5Fe29Ni20
_chemical_formula_sum   'Cr5 Fe29 Ni20'
_cell_volume   577.13430378
_cell_formula_units_Z   1
loop_
 _symmetry_equiv_pos_site_id
 _symmetry_equiv_pos_as_xyz
  1  'x, y, z'
loop_
 _atom_site_type_symbol
 _atom_site_label
 _atom_site_symmetry_multiplicity
 _atom_site_fract_x
 _atom_site_fract_y
 _atom_site_fract_z
 _atom_site_occupancy
  Fe  Fe0  1  1.00277409  0.00601537  0.00399649  1
  Fe  Fe1  1  0.16863956  0.16946133  0.16942101  1
  Ni  Ni2  1  0.00374679  1.00244075  0.33524851  1
  Fe  Fe3  1  1.00313046  0.33545222  1.00305950  1
  Fe  Fe4  1  0.17098017  0.50383858  0.17115450  1
  Fe  Fe5  1  1.00283510  0.33752037  0.33670780  1
  Cr  Cr6  1  1.00246529  0.67101781  0.00447765  1
  Ni  Ni7  1  0.17010803  0.83762195  0.17139912  1
  Ni  Ni8  1  1.00296226  0.67155500  0.33702952  1
  Fe  Fe9  1  0.33677796  0.00383987  0.00353700  1
  Cr  Cr10  1  0.50320521  0.17028903  0.17036191  1
  Fe  Fe11  1  0.33605835  1.00132176  0.33737473  1
  Ni  Ni12  1  0.33751572  0.33686301  1.00222449  1
  Ni  Ni13  1  0.50420129  0.50429683  0.17040229  1
  Fe  Fe14  1  0.33569540  0.33795249  0.33778204  1
  Fe  Fe15  1  0.33942134  0.66875535  0.00461608  1
  Ni  Ni16  1  0.50298802  0.83531492  0.16927748  1
  Fe  Fe17  1  0.33640008  0.67075876  0.33653937  1
  Fe  Fe18  1  0.67047882  1.00282293  1.00277567  1
  Fe  Fe19  1  0.83762162  0.16952740  0.17004529  1
  Fe  Fe20  1  0.67105985  1.00148975  0.33748645  1
  Ni  Ni21  1  0.66900122  0.33699298  0.00335306  1
  Ni  Ni22  1  0.83596510  0.50305836  0.17116574  1
  Fe  Fe23  1  0.67149997  0.33785820  0.33684079  1
  Fe  Fe24  1  0.66848695  0.66910819  0.00366122  1
  Ni  Ni25  1  0.83693793  0.83632200  0.17078455  1
  Ni  Ni26  1  0.67002719  0.66953649  0.33586561  1
  Fe  Fe27  1  0.17079971  0.16984215  0.50408027  1
  Ni  Ni28  1  1.00284922  1.00288675  0.66978346  1
  Ni  Ni29  1  0.17099989  0.17175048  0.83588951  1
  Ni  Ni30  1  0.16827397  0.50235990  0.50367971  1
  Fe  Fe31  1  0.00514042  0.33756473  0.67026459  1
  Fe  Fe32  1  0.16942571  0.50035059  0.83590563  1
  Fe  Fe33  1  0.16933521  0.83742493  0.50235363  1
  Ni  Ni34  1  1.00100966  0.67127843  0.66871958  1
  Cr  Cr35  1  0.16942919  0.83835056  0.83535679  1
  Ni  Ni36  1  0.50223201  0.16866672  0.50352100  1
  Fe  Fe37  1  0.33744332  0.00532991  0.66911797  1
  Fe  Fe38  1  0.50264323  0.16989204  0.83734601  1
  Fe  Fe39  1  0.50302589  0.50335458  0.50179468  1
  Ni  Ni40  1  0.33614029  0.33478796  0.67036739  1
  Fe  Fe41  1  0.50358614  0.50298547  0.83862395  1
  Ni  Ni42  1  0.50440428  0.83869055  0.50307834  1
  Cr  Cr43  1  0.33699696  0.66834179  0.66964256  1
  Fe  Fe44  1  0.50608564  0.83715384  0.83711910  1
  Fe  Fe45  1  0.83727515  0.16885914  0.50252447  1
  Fe  Fe46  1  0.66992842  1.00112496  0.66976788  1
  Fe  Fe47  1  0.83800202  0.16904469  0.83745851  1
  Fe  Fe48  1  0.83685347  0.50482350  0.50268660  1
  Cr  Cr49  1  0.66808392  0.33711730  0.66977895  1
  Ni  Ni50  1  0.83634991  0.50389115  0.83570052  1
  Fe  Fe51  1  0.83668158  0.83635254  0.50352070  1
  Ni  Ni52  1  0.67205659  0.67133991  0.67099701  1
  Ni  Ni53  1  0.83454453  0.83598381  0.83491343  1
" 