8781,Ni37Fe39Cr22_9,-230.670299004708, 196.280020873378,Ni37Fe39Cr22,"# generated using pymatgen
 data_Cr13Fe21Ni20
_symmetry_space_group_name_H-M   'P 1'
_cell_length_a   7.44644316
_cell_length_b   7.44644316
_cell_length_c   10.53086091
_cell_angle_alpha   90.00000000
_cell_angle_beta   90.00000000
_cell_angle_gamma   90.00000000
_symmetry_Int_Tables_number   1
_chemical_formula_structural   Cr13Fe21Ni20
_chemical_formula_sum   'Cr13 Fe21 Ni20'
_cell_volume   583.93113868
_cell_formula_units_Z   1
loop_
 _symmetry_equiv_pos_site_id
 _symmetry_equiv_pos_as_xyz
  1  'x, y, z'
loop_
 _atom_site_type_symbol
 _atom_site_label
 _atom_site_symmetry_multiplicity
 _atom_site_fract_x
 _atom_site_fract_y
 _atom_site_fract_z
 _atom_site_occupancy
  Ni  Ni0  1  0.99978165  1.00018468  0.99967983  1
  Fe  Fe1  1  0.16781888  0.16596810  0.16800148  1
  Cr  Cr2  1  0.99953876  0.99944648  0.33565840  1
  Ni  Ni3  1  0.00229518  0.33307249  0.99821504  1
  Cr  Cr4  1  0.16561174  0.50048952  0.17027837  1
  Ni  Ni5  1  0.00273553  0.33479526  0.33742623  1
  Fe  Fe6  1  1.00065444  0.67061816  1.00048674  1
  Ni  Ni7  1  0.16830808  0.83698213  0.16900316  1
  Ni  Ni8  1  0.00196065  0.66923818  0.33520133  1
  Fe  Fe9  1  0.33338510  0.00152531  1.00092339  1
  Fe  Fe10  1  0.50109246  0.16491951  0.16823113  1
  Fe  Fe11  1  0.33446213  0.00327107  0.33421433  1
  Cr  Cr12  1  0.33432416  0.33319892  1.00024157  1
  Cr  Cr13  1  0.50287401  0.50056840  0.16919491  1
  Ni  Ni14  1  0.33468246  0.33187389  0.33462747  1
  Cr  Cr15  1  0.33505059  0.66817027  0.99951943  1
  Ni  Ni16  1  0.50013766  0.83735159  0.16764437  1
  Fe  Fe17  1  0.33206442  0.66894927  0.33433451  1
  Ni  Ni18  1  0.66841750  0.99935131  0.00187982  1
  Cr  Cr19  1  0.83623585  0.16947870  0.16672209  1
  Fe  Fe20  1  0.66701642  0.00371832  0.33383848  1
  Fe  Fe21  1  0.66885958  0.33244543  0.99840976  1
  Cr  Cr22  1  0.83576116  0.49985805  0.16646141  1
  Ni  Ni23  1  0.66659979  0.33217873  0.33645836  1
  Fe  Fe24  1  0.67012916  0.66986784  1.00027848  1
  Ni  Ni25  1  0.83551519  0.83584079  0.16695149  1
  Cr  Cr26  1  0.67128925  0.67201330  0.33334716  1
  Ni  Ni27  1  0.16632069  0.16743507  0.50128165  1
  Ni  Ni28  1  1.00072763  0.00215244  0.66837501  1
  Ni  Ni29  1  0.16559736  0.16459686  0.83520245  1
  Fe  Fe30  1  0.16732124  0.50039434  0.49952319  1
  Ni  Ni31  1  0.00216584  0.33348378  0.66791708  1
  Fe  Fe32  1  0.16453337  0.50053267  0.83503534  1
  Fe  Fe33  1  0.16785163  0.83514172  0.50191745  1
  Cr  Cr34  1  1.00095047  0.66826573  0.66841202  1
  Ni  Ni35  1  0.16794688  0.83816976  0.83338993  1
  Fe  Fe36  1  0.49966020  0.16788984  0.50072273  1
  Fe  Fe37  1  0.33073699  0.00246276  0.66916508  1
  Ni  Ni38  1  0.50221720  0.16790368  0.83486434  1
  Cr  Cr39  1  0.50186179  0.50173771  0.50144603  1
  Cr  Cr40  1  0.33354672  0.33487645  0.67069406  1
  Ni  Ni41  1  0.50495619  0.50240864  0.83307995  1
  Cr  Cr42  1  0.49867412  0.83480922  0.50277861  1
  Fe  Fe43  1  0.33373743  0.66941120  0.67114416  1
  Fe  Fe44  1  0.50299901  0.83684116  0.83498150  1
  Fe  Fe45  1  0.83531538  0.17028303  0.50193165  1
  Cr  Cr46  1  0.67035937  0.00153690  0.66801478  1
  Ni  Ni47  1  0.83630848  0.16846538  0.83410261  1
  Fe  Fe48  1  0.83716272  0.49898228  0.50079924  1
  Fe  Fe49  1  0.67159805  0.33491911  0.66912715  1
  Ni  Ni50  1  0.83310118  0.49997909  0.83547281  1
  Fe  Fe51  1  0.83652018  0.83496998  0.50185205  1
  Fe  Fe52  1  0.66990691  0.66647641  0.67017240  1
  Ni  Ni53  1  0.83603062  0.83520858  0.83607749  1
" 