2983,Ni37Fe39Cr22_1,-230.620789372279, 195.032086151045,Ni37Fe39Cr22,"# generated using pymatgen
 data_Cr13Fe21Ni20
_symmetry_space_group_name_H-M   'P 1'
_cell_length_a   7.44720188
_cell_length_b   7.44720188
_cell_length_c   10.53193390
_cell_angle_alpha   90.00000000
_cell_angle_beta   90.00000000
_cell_angle_gamma   90.00000000
_symmetry_Int_Tables_number   1
_chemical_formula_structural   Cr13Fe21Ni20
_chemical_formula_sum   'Cr13 Fe21 Ni20'
_cell_volume   584.10964644
_cell_formula_units_Z   1
loop_
 _symmetry_equiv_pos_site_id
 _symmetry_equiv_pos_as_xyz
  1  'x, y, z'
loop_
 _atom_site_type_symbol
 _atom_site_label
 _atom_site_symmetry_multiplicity
 _atom_site_fract_x
 _atom_site_fract_y
 _atom_site_fract_z
 _atom_site_occupancy
  Fe  Fe0  1  1.00062447  0.00329372  0.99966109  1
  Ni  Ni1  1  0.16916671  0.16892799  0.16538978  1
  Ni  Ni2  1  0.99781052  1.00039548  0.33449075  1
  Ni  Ni3  1  0.00500157  0.33473260  1.00114073  1
  Ni  Ni4  1  0.17069460  0.49978976  0.16714312  1
  Cr  Cr5  1  0.00165889  0.33554062  0.33437786  1
  Cr  Cr6  1  0.99975213  0.66719661  1.00068686  1
  Cr  Cr7  1  0.16972197  0.83660716  0.16823625  1
  Cr  Cr8  1  1.00015603  0.66733418  0.33531211  1
  Fe  Fe9  1  0.33530243  0.00329627  0.00180316  1
  Ni  Ni10  1  0.50100694  0.16773790  0.16724588  1
  Fe  Fe11  1  0.33730183  1.00109011  0.33301747  1
  Ni  Ni12  1  0.33356568  0.33391192  0.00178201  1
  Fe  Fe13  1  0.50149178  0.50206433  0.16736989  1
  Cr  Cr14  1  0.33483246  0.33444216  0.33209469  1
  Fe  Fe15  1  0.33631545  0.66601961  0.00213976  1
  Ni  Ni16  1  0.50267862  0.83342498  0.16927487  1
  Ni  Ni17  1  0.33666218  0.66824648  0.33396745  1
  Ni  Ni18  1  0.66688776  0.99978244  1.00126701  1
  Cr  Cr19  1  0.83479840  0.16782124  0.16817892  1
  Ni  Ni20  1  0.66689126  0.99998147  0.33637598  1
  Fe  Fe21  1  0.66749650  0.33503597  1.00092374  1
  Fe  Fe22  1  0.83240696  0.50188793  0.16740774  1
  Ni  Ni23  1  0.66678707  0.33259061  0.33513576  1
  Ni  Ni24  1  0.66761336  0.66991188  0.00331244  1
  Ni  Ni25  1  0.83077072  0.83494189  0.16740699  1
  Fe  Fe26  1  0.66793626  0.66931706  0.33371365  1
  Cr  Cr27  1  0.16545964  0.16644944  0.50201776  1
  Ni  Ni28  1  1.00092988  0.00307132  0.67045913  1
  Fe  Fe29  1  0.16697421  0.16774751  0.83498276  1
  Fe  Fe30  1  0.16655920  0.50130926  0.50225652  1
  Ni  Ni31  1  0.00278845  0.33440156  0.66787704  1
  Fe  Fe32  1  0.16907014  0.49926003  0.83551153  1
  Cr  Cr33  1  0.16965440  0.83546733  0.50088243  1
  Cr  Cr34  1  1.00121422  0.66712331  0.66803461  1
  Ni  Ni35  1  0.16894733  0.83589209  0.83422925  1
  Fe  Fe36  1  0.50463789  0.16657376  0.50015332  1
  Fe  Fe37  1  0.33256975  0.00199548  0.66923554  1
  Fe  Fe38  1  0.50078753  0.16956216  0.83654264  1
  Cr  Cr39  1  0.50225151  0.50202103  0.50146753  1
  Fe  Fe40  1  0.33389069  0.33422041  0.66992631  1
  Fe  Fe41  1  0.50070364  0.49918165  0.83565793  1
  Fe  Fe42  1  0.50266572  0.83611429  0.49891111  1
  Fe  Fe43  1  0.33266690  0.66771679  0.66845165  1
  Cr  Cr44  1  0.49846779  0.83254119  0.83599316  1
  Ni  Ni45  1  0.83374989  0.16887984  0.50150252  1
  Cr  Cr46  1  0.66885585  0.00259237  0.66606733  1
  Ni  Ni47  1  0.83617051  0.17044799  0.83458299  1
  Ni  Ni48  1  0.83254838  0.49835094  0.50136525  1
  Fe  Fe49  1  0.67104039  0.33338809  0.66781857  1
  Fe  Fe50  1  0.83435742  0.49892234  0.83513807  1
  Ni  Ni51  1  0.83385722  0.83671049  0.50021580  1
  Cr  Cr52  1  0.66955364  0.66938428  0.66726340  1
  Fe  Fe53  1  0.83624644  0.83730380  0.83655100  1
" 