8027,Ni37Cr63_4,-225.330268221158, 143.750070590467,Ni37Cr63,"# generated using pymatgen
 data_Cr19Ni35
_symmetry_space_group_name_H-M   'P 1'
_cell_length_a   7.49337465
_cell_length_b   7.49337465
_cell_length_c   10.59723206
_cell_angle_alpha   90.00000000
_cell_angle_beta   90.00000000
_cell_angle_gamma   90.00000000
_symmetry_Int_Tables_number   1
_chemical_formula_structural   Cr19Ni35
_chemical_formula_sum   'Cr19 Ni35'
_cell_volume   595.04161316
_cell_formula_units_Z   1
loop_
 _symmetry_equiv_pos_site_id
 _symmetry_equiv_pos_as_xyz
  1  'x, y, z'
loop_
 _atom_site_type_symbol
 _atom_site_label
 _atom_site_symmetry_multiplicity
 _atom_site_fract_x
 _atom_site_fract_y
 _atom_site_fract_z
 _atom_site_occupancy
  Cr  Cr0  1  0.99451185  0.99748574  -0.00086037  1
  Cr  Cr1  1  0.16583946  0.16318987  0.16608465  1
  Ni  Ni2  1  0.99760495  0.99669000  0.33142120  1
  Cr  Cr3  1  0.99803506  0.33090971  0.99629881  1
  Ni  Ni4  1  0.16487804  0.50158763  0.16332645  1
  Ni  Ni5  1  0.99765998  0.32946187  0.33091261  1
  Ni  Ni6  1  -0.00011861  0.66515391  -0.00173938  1
  Ni  Ni7  1  0.16325644  0.82916658  0.16521210  1
  Ni  Ni8  1  0.99742248  0.66868556  0.33047295  1
  Ni  Ni9  1  0.33154896  0.99731893  0.99685166  1
  Cr  Cr10  1  0.50111722  0.16473773  0.16323469  1
  Ni  Ni11  1  0.32922359  0.99619092  0.33430589  1
  Ni  Ni12  1  0.33224655  0.33502865  0.99739771  1
  Ni  Ni13  1  0.49787984  0.49728556  0.16408224  1
  Cr  Cr14  1  0.33155718  0.33271463  0.33164628  1
  Ni  Ni15  1  0.33070167  0.66234227  -0.00160064  1
  Cr  Cr16  1  0.49729114  0.83333019  0.16357967  1
  Cr  Cr17  1  0.33349462  0.66523552  0.33200022  1
  Ni  Ni18  1  0.66665822  -0.00125200  0.99695857  1
  Ni  Ni19  1  0.82912537  0.16353000  0.16695766  1
  Ni  Ni20  1  0.66781267  0.99585027  0.33132397  1
  Ni  Ni21  1  0.66380191  0.33104349  0.99752831  1
  Cr  Cr22  1  0.83239806  0.49865095  0.16795928  1
  Ni  Ni23  1  0.66563232  0.33262803  0.33030135  1
  Cr  Cr24  1  0.66523718  0.66533981  0.99648205  1
  Ni  Ni25  1  0.83347125  0.83277580  0.16700858  1
  Ni  Ni26  1  0.66559165  0.66632151  0.33308004  1
  Ni  Ni27  1  0.16423514  0.16169645  0.49764524  1
  Cr  Cr28  1  0.99763610  -0.00085827  0.66508715  1
  Ni  Ni29  1  0.16559669  0.16669843  0.83072910  1
  Cr  Cr30  1  0.15961439  0.49913621  0.49879672  1
  Ni  Ni31  1  0.99761836  0.33130162  0.66795951  1
  Ni  Ni32  1  0.16320115  0.49793632  0.83288145  1
  Ni  Ni33  1  0.16410595  0.83400110  0.49684045  1
  Ni  Ni34  1  0.99693096  0.66477064  0.66633889  1
  Cr  Cr35  1  0.16673263  0.82970963  0.83318628  1
  Cr  Cr36  1  0.49919477  0.16264792  0.49811083  1
  Ni  Ni37  1  0.33197954  0.99744278  0.66336162  1
  Cr  Cr38  1  0.49863106  0.16236754  0.83309926  1
  Ni  Ni39  1  0.50170347  0.49892000  0.49666812  1
  Cr  Cr40  1  0.33046149  0.33149580  0.66486176  1
  Ni  Ni41  1  0.49852834  0.49759723  0.83375800  1
  Ni  Ni42  1  0.49899753  0.83369722  0.49777444  1
  Cr  Cr43  1  0.33375960  0.66568908  0.66382645  1
  Ni  Ni44  1  0.49885309  0.83299213  0.83211470  1
  Cr  Cr45  1  0.83139401  0.16618468  0.49705582  1
  Ni  Ni46  1  0.66491568  0.99682087  0.66627625  1
  Ni  Ni47  1  0.82944770  0.16645605  0.83083730  1
  Cr  Cr48  1  0.83183378  0.49916364  0.49783963  1
  Ni  Ni49  1  0.66657707  0.33204918  0.66710348  1
  Ni  Ni50  1  0.83308506  0.49734793  0.82989820  1
  Ni  Ni51  1  0.83168344  0.83124264  0.49622565  1
  Cr  Cr52  1  0.66448024  0.66630123  0.66501109  1
  Ni  Ni53  1  0.83006257  0.83092764  0.83162489  1
" 