4749,Ni37Fe53Cr8_5,-235.573436519197, 208.913213094928,Ni37Fe53Cr8,"# generated using pymatgen
 data_Cr5Fe29Ni20
_symmetry_space_group_name_H-M   'P 1'
_cell_length_a   7.41151829
_cell_length_b   7.41151829
_cell_length_c   10.48146968
_cell_angle_alpha   90.00000000
_cell_angle_beta   90.00000000
_cell_angle_gamma   90.00000000
_symmetry_Int_Tables_number   1
_chemical_formula_structural   Cr5Fe29Ni20
_chemical_formula_sum   'Cr5 Fe29 Ni20'
_cell_volume   575.75345378
_cell_formula_units_Z   1
loop_
 _symmetry_equiv_pos_site_id
 _symmetry_equiv_pos_as_xyz
  1  'x, y, z'
loop_
 _atom_site_type_symbol
 _atom_site_label
 _atom_site_symmetry_multiplicity
 _atom_site_fract_x
 _atom_site_fract_y
 _atom_site_fract_z
 _atom_site_occupancy
  Cr  Cr0  1  1.00164846  0.00376516  0.00412751  1
  Fe  Fe1  1  0.17281605  0.17186899  0.17063231  1
  Ni  Ni2  1  1.00209118  1.00086743  0.33739688  1
  Fe  Fe3  1  0.00419153  0.33822021  1.00350797  1
  Ni  Ni4  1  0.17040485  0.50330579  0.17051822  1
  Cr  Cr5  1  0.00541698  0.33472969  0.33536588  1
  Fe  Fe6  1  1.00266526  0.66722380  1.00253972  1
  Cr  Cr7  1  0.17501105  0.83698009  0.16994221  1
  Fe  Fe8  1  0.00417906  0.67077229  0.33663598  1
  Fe  Fe9  1  0.34098473  0.00608365  1.00249722  1
  Fe  Fe10  1  0.50304389  0.17136995  0.17022767  1
  Ni  Ni11  1  0.33712621  0.00433694  0.33663853  1
  Ni  Ni12  1  0.33705992  0.34000552  0.00537958  1
  Fe  Fe13  1  0.50330206  0.50414875  0.17047984  1
  Ni  Ni14  1  0.33969723  0.33851970  0.33766480  1
  Fe  Fe15  1  0.33834902  0.66950321  1.00198772  1
  Ni  Ni16  1  0.50484572  0.83837912  0.16943541  1
  Fe  Fe17  1  0.33820583  0.67034885  0.33892806  1
  Ni  Ni18  1  0.67070285  1.00182753  0.00453028  1
  Ni  Ni19  1  0.83397391  0.17217431  0.17081424  1
  Fe  Fe20  1  0.66900984  0.00517213  0.33547733  1
  Fe  Fe21  1  0.67011266  0.33531351  0.00472221  1
  Ni  Ni22  1  0.83628307  0.50257099  0.16737412  1
  Ni  Ni23  1  0.66775623  0.33899137  0.33603278  1
  Fe  Fe24  1  0.66995638  0.67111328  1.00362874  1
  Fe  Fe25  1  0.83513958  0.83548819  0.17056443  1
  Fe  Fe26  1  0.66888720  0.67170633  0.33588340  1
  Ni  Ni27  1  0.17096622  0.16754902  0.50280046  1
  Ni  Ni28  1  1.00285340  0.00425866  0.67036687  1
  Ni  Ni29  1  0.17184136  0.17130115  0.83834307  1
  Fe  Fe30  1  0.17207506  0.50635793  0.50368365  1
  Ni  Ni31  1  1.00326188  0.33438738  0.67237728  1
  Ni  Ni32  1  0.16981421  0.50299322  0.83665765  1
  Ni  Ni33  1  0.17292363  0.83942196  0.50570634  1
  Fe  Fe34  1  0.00730686  0.67175208  0.67218288  1
  Fe  Fe35  1  0.16973499  0.83641278  0.83515064  1
  Fe  Fe36  1  0.50332879  0.16775720  0.50202202  1
  Ni  Ni37  1  0.33618959  1.00215017  0.67295350  1
  Fe  Fe38  1  0.50353576  0.16997112  0.83888902  1
  Fe  Fe39  1  0.50210676  0.50596343  0.50218864  1
  Cr  Cr40  1  0.33624693  0.33753724  0.66701622  1
  Fe  Fe41  1  0.50319730  0.50408085  0.83784955  1
  Ni  Ni42  1  0.50294649  0.83865591  0.50469010  1
  Ni  Ni43  1  0.33938346  0.67125025  0.67071151  1
  Fe  Fe44  1  0.50254151  0.83728818  0.83740983  1
  Fe  Fe45  1  0.83672785  0.16637789  0.50346441  1
  Fe  Fe46  1  0.66905731  1.00345007  0.67194974  1
  Fe  Fe47  1  0.83698687  0.17054343  0.83680500  1
  Cr  Cr48  1  0.83721076  0.50236819  0.50633018  1
  Fe  Fe49  1  0.67015305  0.33459475  0.67076248  1
  Fe  Fe50  1  0.83797102  0.50325236  0.83678720  1
  Fe  Fe51  1  0.83796457  0.83952406  0.50490098  1
  Fe  Fe52  1  0.66874533  0.67258897  0.67148029  1
  Ni  Ni53  1  0.83436038  0.83571707  0.83587958  1
" 