4898,Ni37Fe53Cr8_10,-235.839312381176, 209.479432639046,Ni37Fe53Cr8,"# generated using pymatgen
 data_Cr5Fe29Ni20
_symmetry_space_group_name_H-M   'P 1'
_cell_length_a   7.42189664
_cell_length_b   7.42189664
_cell_length_c   10.49614689
_cell_angle_alpha   90.00000000
_cell_angle_beta   90.00000000
_cell_angle_gamma   90.00000000
_symmetry_Int_Tables_number   1
_chemical_formula_structural   Cr5Fe29Ni20
_chemical_formula_sum   'Cr5 Fe29 Ni20'
_cell_volume   578.17552517
_cell_formula_units_Z   1
loop_
 _symmetry_equiv_pos_site_id
 _symmetry_equiv_pos_as_xyz
  1  'x, y, z'
loop_
 _atom_site_type_symbol
 _atom_site_label
 _atom_site_symmetry_multiplicity
 _atom_site_fract_x
 _atom_site_fract_y
 _atom_site_fract_z
 _atom_site_occupancy
  Fe  Fe0  1  1.00165474  1.00196042  0.00322583  1
  Fe  Fe1  1  0.16791884  0.17140753  0.16907619  1
  Fe  Fe2  1  1.00218011  0.00687677  0.33662034  1
  Ni  Ni3  1  1.00057132  0.33818942  1.00196563  1
  Fe  Fe4  1  0.16874418  0.50543946  0.17028705  1
  Ni  Ni5  1  1.00299056  0.33877280  0.33753870  1
  Ni  Ni6  1  1.00233820  0.66956235  1.00191273  1
  Ni  Ni7  1  0.16810219  0.83795479  0.16828852  1
  Fe  Fe8  1  1.00198544  0.66923750  0.33553916  1
  Ni  Ni9  1  0.33745483  1.00147144  1.00301634  1
  Fe  Fe10  1  0.50401593  0.17058185  0.16943197  1
  Cr  Cr11  1  0.33652157  0.00318261  0.33673257  1
  Cr  Cr12  1  0.33673020  0.33802134  0.00389517  1
  Ni  Ni13  1  0.50532870  0.50238082  0.17025536  1
  Ni  Ni14  1  0.33561526  0.33664076  0.33690448  1
  Ni  Ni15  1  0.33589041  0.67160742  1.00290703  1
  Fe  Fe16  1  0.50234344  0.83346562  0.16737101  1
  Fe  Fe17  1  0.33688125  0.66624034  0.33413384  1
  Fe  Fe18  1  0.67048476  1.00254189  1.00271234  1
  Fe  Fe19  1  0.83750692  0.17251832  0.17025764  1
  Cr  Cr20  1  0.67015962  1.00105309  0.33700645  1
  Ni  Ni21  1  0.67147432  0.33623607  0.00349743  1
  Fe  Fe22  1  0.83698926  0.50314674  0.16838152  1
  Ni  Ni23  1  0.67048681  0.33668563  0.33673654  1
  Ni  Ni24  1  0.67061034  0.66955991  0.00306592  1
  Fe  Fe25  1  0.83691870  0.83366930  0.16950926  1
  Fe  Fe26  1  0.66988995  0.66604038  0.33679377  1
  Fe  Fe27  1  0.16724965  0.17247531  0.50500322  1
  Ni  Ni28  1  1.00167027  1.00134660  0.66872328  1
  Cr  Cr29  1  0.16734157  0.16667240  0.83474502  1
  Fe  Fe30  1  0.16775514  0.50199370  0.50338973  1
  Fe  Fe31  1  0.99855743  0.33763898  0.66983413  1
  Fe  Fe32  1  0.16841463  0.50436704  0.83614143  1
  Cr  Cr33  1  0.16901298  0.83582303  0.50415035  1
  Ni  Ni34  1  1.00292736  0.66911828  0.67087616  1
  Fe  Fe35  1  0.16929203  0.83270524  0.83676826  1
  Fe  Fe36  1  0.50456377  0.17134630  0.50464682  1
  Fe  Fe37  1  0.33927467  1.00181793  0.67062501  1
  Fe  Fe38  1  0.50578067  0.17078848  0.83623464  1
  Fe  Fe39  1  0.50466773  0.50295968  0.50259194  1
  Fe  Fe40  1  0.33759526  0.33844216  0.66907663  1
  Ni  Ni41  1  0.50590556  0.50438200  0.83630420  1
  Fe  Fe42  1  0.50582429  0.83485365  0.50543272  1
  Fe  Fe43  1  0.33869056  0.66882851  0.67180507  1
  Fe  Fe44  1  0.50478851  0.83507378  0.83665329  1
  Ni  Ni45  1  0.83646610  0.17045677  0.50449630  1
  Ni  Ni46  1  0.67042653  1.00284434  0.66980868  1
  Fe  Fe47  1  0.83325431  0.17132141  0.83495379  1
  Fe  Fe48  1  0.83669251  0.50347397  0.50413761  1
  Ni  Ni49  1  0.66840329  0.33668791  0.66923108  1
  Ni  Ni50  1  0.83315580  0.50330432  0.83628719  1
  Ni  Ni51  1  0.83724074  0.83645392  0.50269625  1
  Ni  Ni52  1  0.67165541  0.66998491  0.66805616  1
  Fe  Fe53  1  0.83585940  0.83464875  0.83452223  1
" 