3427,Ni37Fe39Cr22_19,-230.837324623146, 199.895637049249,Ni37Fe39Cr22,"# generated using pymatgen
 data_Cr13Fe21Ni20
_symmetry_space_group_name_H-M   'P 1'
_cell_length_a   7.44510154
_cell_length_b   7.44510154
_cell_length_c   10.52896357
_cell_angle_alpha   90.00000000
_cell_angle_beta   90.00000000
_cell_angle_gamma   90.00000000
_symmetry_Int_Tables_number   1
_chemical_formula_structural   Cr13Fe21Ni20
_chemical_formula_sum   'Cr13 Fe21 Ni20'
_cell_volume   583.61557421
_cell_formula_units_Z   1
loop_
 _symmetry_equiv_pos_site_id
 _symmetry_equiv_pos_as_xyz
  1  'x, y, z'
loop_
 _atom_site_type_symbol
 _atom_site_label
 _atom_site_symmetry_multiplicity
 _atom_site_fract_x
 _atom_site_fract_y
 _atom_site_fract_z
 _atom_site_occupancy
  Fe  Fe0  1  0.99961005  0.00257227  0.00325088  1
  Ni  Ni1  1  0.16915351  0.16919760  0.16658450  1
  Ni  Ni2  1  1.00089866  1.00121986  0.32959140  1
  Fe  Fe3  1  0.00163256  0.33354755  0.00360142  1
  Ni  Ni4  1  0.16896405  0.50025027  0.16930127  1
  Cr  Cr5  1  1.00144057  0.33522217  0.33433726  1
  Fe  Fe6  1  0.99977949  0.66805043  0.00382759  1
  Ni  Ni7  1  0.16733326  0.83498340  0.16761306  1
  Ni  Ni8  1  1.00042525  0.66890221  0.33142176  1
  Ni  Ni9  1  0.33157031  0.00200579  0.00373026  1
  Fe  Fe10  1  0.50134220  0.16651308  0.16601102  1
  Fe  Fe11  1  0.33492964  0.00152110  0.33036033  1
  Ni  Ni12  1  0.33591014  0.33451969  0.00459293  1
  Fe  Fe13  1  0.50327246  0.50070612  0.16716976  1
  Fe  Fe14  1  0.33748240  0.33267577  0.33277553  1
  Cr  Cr15  1  0.33412089  0.66880892  0.00222752  1
  Ni  Ni16  1  0.50267691  0.83542334  0.16855330  1
  Cr  Cr17  1  0.33422722  0.66701301  0.33409169  1
  Fe  Fe18  1  0.66828344  0.00187372  0.00351760  1
  Ni  Ni19  1  0.83368785  0.16794859  0.16779734  1
  Ni  Ni20  1  0.66690237  0.00265807  0.33202916  1
  Ni  Ni21  1  0.67038138  0.33519805  0.00335529  1
  Fe  Fe22  1  0.83558903  0.50316239  0.16738936  1
  Fe  Fe23  1  0.66810040  0.33566079  0.33272743  1
  Fe  Fe24  1  0.66901084  0.66824850  0.00284508  1
  Ni  Ni25  1  0.83306408  0.83527496  0.16881064  1
  Ni  Ni26  1  0.66802376  0.66855743  0.33263256  1
  Cr  Cr27  1  0.16868409  0.16715233  0.50188007  1
  Ni  Ni28  1  1.00142241  1.00139369  0.67296961  1
  Fe  Fe29  1  0.16543744  0.16614900  0.83787511  1
  Fe  Fe30  1  0.16538137  0.50177890  0.50023984  1
  Fe  Fe31  1  0.99833534  0.33416426  0.66882858  1
  Cr  Cr32  1  0.16899018  0.49985576  0.83507335  1
  Cr  Cr33  1  0.16863480  0.83618113  0.49967580  1
  Cr  Cr34  1  0.99967297  0.66906784  0.66770732  1
  Fe  Fe35  1  0.16419154  0.83750826  0.83680244  1
  Fe  Fe36  1  0.50261144  0.16518882  0.49975670  1
  Fe  Fe37  1  0.33584569  0.99994021  0.66936395  1
  Cr  Cr38  1  0.50117121  0.16728033  0.83862208  1
  Fe  Fe39  1  0.50383500  0.50317718  0.49989019  1
  Cr  Cr40  1  0.33537359  0.33588400  0.66771566  1
  Fe  Fe41  1  0.50677713  0.50099588  0.83796954  1
  Fe  Fe42  1  0.50425386  0.83609535  0.50086284  1
  Fe  Fe43  1  0.33727163  0.67004072  0.66676472  1
  Cr  Cr44  1  0.50215547  0.83423192  0.83355951  1
  Cr  Cr45  1  0.83446667  0.16649188  0.50171981  1
  Ni  Ni46  1  0.67024012  0.99987352  0.66889800  1
  Ni  Ni47  1  0.83553315  0.16833558  0.83536083  1
  Ni  Ni48  1  0.83230310  0.50255452  0.49908330  1
  Cr  Cr49  1  0.66879422  0.33544991  0.66790572  1
  Ni  Ni50  1  0.83603602  0.50150162  0.83751792  1
  Cr  Cr51  1  0.83309820  0.83450864  0.49758691  1
  Ni  Ni52  1  0.66793402  0.66794001  0.66907340  1
  Ni  Ni53  1  0.83332508  0.83513208  0.83673928  1
" 