1797,Ni37Fe53Cr8_2,-235.927709781022, 204.336115086873,Ni37Fe53Cr8,"# generated using pymatgen
 data_Cr5Fe29Ni20
_symmetry_space_group_name_H-M   'P 1'
_cell_length_a   7.41930095
_cell_length_b   7.41930095
_cell_length_c   10.49247603
_cell_angle_alpha   90.00000000
_cell_angle_beta   90.00000000
_cell_angle_gamma   90.00000000
_symmetry_Int_Tables_number   1
_chemical_formula_structural   Cr5Fe29Ni20
_chemical_formula_sum   'Cr5 Fe29 Ni20'
_cell_volume   577.56911521
_cell_formula_units_Z   1
loop_
 _symmetry_equiv_pos_site_id
 _symmetry_equiv_pos_as_xyz
  1  'x, y, z'
loop_
 _atom_site_type_symbol
 _atom_site_label
 _atom_site_symmetry_multiplicity
 _atom_site_fract_x
 _atom_site_fract_y
 _atom_site_fract_z
 _atom_site_occupancy
  Fe  Fe0  1  0.00336941  1.00318703  1.00302784  1
  Fe  Fe1  1  0.16884347  0.17032590  0.16927018  1
  Fe  Fe2  1  1.00161159  0.00489126  0.33692459  1
  Ni  Ni3  1  1.00313299  0.33559349  1.00229210  1
  Cr  Cr4  1  0.17031117  0.50135362  0.16816664  1
  Ni  Ni5  1  1.00221258  0.33470089  0.33789799  1
  Fe  Fe6  1  1.00265819  0.66982565  1.00258948  1
  Fe  Fe7  1  0.16950015  0.83802213  0.16784958  1
  Cr  Cr8  1  1.00158528  0.66901549  0.33691533  1
  Fe  Fe9  1  0.33659193  1.00298500  0.00357821  1
  Fe  Fe10  1  0.50466671  0.17110383  0.16970034  1
  Cr  Cr11  1  0.33776927  0.00387044  0.33679722  1
  Ni  Ni12  1  0.33597120  0.33618274  0.00337153  1
  Ni  Ni13  1  0.50492184  0.50335157  0.16980505  1
  Fe  Fe14  1  0.33708551  0.33545428  0.33737117  1
  Ni  Ni15  1  0.33814319  0.67046817  1.00233436  1
  Ni  Ni16  1  0.50470859  0.83629262  0.16753308  1
  Cr  Cr17  1  0.33849480  0.66940708  0.33804888  1
  Fe  Fe18  1  0.66969646  1.00308089  0.00371616  1
  Ni  Ni19  1  0.83721291  0.16972452  0.17022754  1
  Ni  Ni20  1  0.67077504  0.00344081  0.33683007  1
  Fe  Fe21  1  0.66937554  0.33786731  0.00358204  1
  Ni  Ni22  1  0.83452273  0.50178518  0.16798046  1
  Fe  Fe23  1  0.67041808  0.33639778  0.33627826  1
  Ni  Ni24  1  0.66919197  0.67073903  0.00407508  1
  Fe  Fe25  1  0.83458389  0.83675838  0.16909833  1
  Fe  Fe26  1  0.67021172  0.67005683  0.33649116  1
  Ni  Ni27  1  0.16981322  0.17083771  0.50332674  1
  Fe  Fe28  1  0.00425286  1.00220007  0.66970837  1
  Fe  Fe29  1  0.16982663  0.17031989  0.83659892  1
  Ni  Ni30  1  0.16937039  0.50105681  0.50507253  1
  Fe  Fe31  1  1.00279620  0.33704630  0.66921555  1
  Fe  Fe32  1  0.17015594  0.50332600  0.83700479  1
  Ni  Ni33  1  0.16907317  0.83775882  0.50584347  1
  Fe  Fe34  1  1.00233200  0.67040527  0.66897562  1
  Fe  Fe35  1  0.17005523  0.83600508  0.83638358  1
  Ni  Ni36  1  0.50221991  0.17059749  0.50288156  1
  Fe  Fe37  1  0.33552779  1.00287688  0.66875762  1
  Fe  Fe38  1  0.50268023  0.17079822  0.83685016  1
  Fe  Fe39  1  0.50356872  0.50318287  0.50434602  1
  Fe  Fe40  1  0.33730484  0.33669010  0.66997165  1
  Ni  Ni41  1  0.50286076  0.50297181  0.83669701  1
  Ni  Ni42  1  0.50435330  0.83660755  0.50476971  1
  Fe  Fe43  1  0.33709183  0.67008554  0.66973233  1
  Fe  Fe44  1  0.50323917  0.83474846  0.83753072  1
  Fe  Fe45  1  0.83777570  0.17011565  0.50153124  1
  Cr  Cr46  1  0.66947149  1.00214675  0.66939954  1
  Fe  Fe47  1  0.83714190  0.17069312  0.83803600  1
  Ni  Ni48  1  0.83646530  0.50319250  0.50422640  1
  Fe  Fe49  1  0.66954778  0.33860824  0.66979232  1
  Fe  Fe50  1  0.83588408  0.50388286  0.83665178  1
  Ni  Ni51  1  0.83622297  0.83616341  0.50208920  1
  Ni  Ni52  1  0.66981360  0.66942905  0.66851717  1
  Ni  Ni53  1  0.83734637  0.83612919  0.83809489  1
" 