7125,Ni37Fe53Cr8_16,-235.684808131327, 209.666330479994,Ni37Fe53Cr8,"# generated using pymatgen
 data_Cr5Fe29Ni20
_symmetry_space_group_name_H-M   'P 1'
_cell_length_a   7.41604826
_cell_length_b   7.41604826
_cell_length_c   10.48787603
_cell_angle_alpha   90.00000000
_cell_angle_beta   90.00000000
_cell_angle_gamma   90.00000000
_symmetry_Int_Tables_number   1
_chemical_formula_structural   Cr5Fe29Ni20
_chemical_formula_sum   'Cr5 Fe29 Ni20'
_cell_volume   576.80981336
_cell_formula_units_Z   1
loop_
 _symmetry_equiv_pos_site_id
 _symmetry_equiv_pos_as_xyz
  1  'x, y, z'
loop_
 _atom_site_type_symbol
 _atom_site_label
 _atom_site_symmetry_multiplicity
 _atom_site_fract_x
 _atom_site_fract_y
 _atom_site_fract_z
 _atom_site_occupancy
  Ni  Ni0  1  0.00390087  0.00355843  1.00310996  1
  Fe  Fe1  1  0.17036515  0.16847783  0.17027446  1
  Fe  Fe2  1  0.00414745  1.00277944  0.33587848  1
  Ni  Ni3  1  1.00218597  0.33510666  1.00281995  1
  Cr  Cr4  1  0.17003071  0.50534639  0.17063175  1
  Ni  Ni5  1  1.00341880  0.33748315  0.33692703  1
  Ni  Ni6  1  1.00229063  0.67164851  1.00300024  1
  Ni  Ni7  1  0.16949621  0.83636693  0.17021891  1
  Ni  Ni8  1  0.00427690  0.67001923  0.33815112  1
  Fe  Fe9  1  0.33549589  0.00360056  0.00416104  1
  Ni  Ni10  1  0.50564713  0.16992332  0.17090577  1
  Ni  Ni11  1  0.33729527  0.00368880  0.33645688  1
  Ni  Ni12  1  0.33845498  0.33527399  1.00273019  1
  Fe  Fe13  1  0.50352819  0.50257540  0.16857322  1
  Fe  Fe14  1  0.33756109  0.33550241  0.33736831  1
  Ni  Ni15  1  0.33854987  0.67168355  0.00357030  1
  Fe  Fe16  1  0.50194292  0.83802057  0.16972391  1
  Fe  Fe17  1  0.33554823  0.67109710  0.33732233  1
  Fe  Fe18  1  0.67043812  0.00399844  0.00363569  1
  Fe  Fe19  1  0.83704080  0.17005317  0.17008586  1
  Ni  Ni20  1  0.66743983  0.00454842  0.33649743  1
  Fe  Fe21  1  0.67008136  0.33692091  1.00288508  1
  Fe  Fe22  1  0.83672936  0.50253880  0.16978007  1
  Ni  Ni23  1  0.66977002  0.33557318  0.33597322  1
  Fe  Fe24  1  0.67027559  0.66939375  1.00334866  1
  Fe  Fe25  1  0.83797221  0.83772315  0.16935095  1
  Cr  Cr26  1  0.67077042  0.67018414  0.33700882  1
  Ni  Ni27  1  0.17168695  0.16977974  0.50222426  1
  Fe  Fe28  1  0.00389595  1.00144544  0.67120583  1
  Fe  Fe29  1  0.17104044  0.16862555  0.83769733  1
  Ni  Ni30  1  0.17104561  0.50577327  0.50198428  1
  Cr  Cr31  1  1.00325444  0.33743561  0.67092506  1
  Cr  Cr32  1  0.17124725  0.50538535  0.83798689  1
  Ni  Ni33  1  0.16971280  0.83476045  0.50319092  1
  Ni  Ni34  1  1.00267742  0.67227823  0.66916535  1
  Fe  Fe35  1  0.17009778  0.83820601  0.83720477  1
  Fe  Fe36  1  0.50106901  0.17000603  0.50294615  1
  Fe  Fe37  1  0.33634528  0.00380291  0.66926271  1
  Ni  Ni38  1  0.50568413  0.17073457  0.83584676  1
  Fe  Fe39  1  0.50195940  0.50213689  0.50481246  1
  Fe  Fe40  1  0.33904287  0.33653267  0.66986932  1
  Ni  Ni41  1  0.50415334  0.50277656  0.83732986  1
  Fe  Fe42  1  0.50151440  0.83817422  0.50372828  1
  Fe  Fe43  1  0.33725720  0.66998366  0.66958812  1
  Fe  Fe44  1  0.50360391  0.83682267  0.83686416  1
  Cr  Cr45  1  0.83481720  0.16889501  0.50142032  1
  Fe  Fe46  1  0.67007240  1.00322946  0.67090803  1
  Ni  Ni47  1  0.83461133  0.16857267  0.83824399  1
  Fe  Fe48  1  0.83847634  0.50472357  0.50315996  1
  Ni  Ni49  1  0.66755811  0.33738603  0.67118197  1
  Fe  Fe50  1  0.83406586  0.50326068  0.83737735  1
  Fe  Fe51  1  0.83905312  0.83572091  0.50409044  1
  Fe  Fe52  1  0.67046527  0.66924893  0.67019605  1
  Fe  Fe53  1  0.83661426  0.83689267  0.83687575  1
" 