3411,Ni37Fe49Cr12_5,-234.724791694118, 209.339689747067,Ni37Fe49Cr12,"# generated using pymatgen
 data_Cr4Fe13Ni10
_symmetry_space_group_name_H-M   'P 1'
_cell_length_a   7.43258891
_cell_length_b   7.43258891
_cell_length_c   10.51126804
_cell_angle_alpha   90.00000000
_cell_angle_beta   90.00000000
_cell_angle_gamma   90.00000000
_symmetry_Int_Tables_number   1
_chemical_formula_structural   Cr4Fe13Ni10
_chemical_formula_sum   'Cr8 Fe26 Ni20'
_cell_volume   580.67795224
_cell_formula_units_Z   2
loop_
 _symmetry_equiv_pos_site_id
 _symmetry_equiv_pos_as_xyz
  1  'x, y, z'
loop_
 _atom_site_type_symbol
 _atom_site_label
 _atom_site_symmetry_multiplicity
 _atom_site_fract_x
 _atom_site_fract_y
 _atom_site_fract_z
 _atom_site_occupancy
  Fe  Fe0  1  1.00063743  0.99998176  1.00063571  1
  Cr  Cr1  1  0.16741599  0.16794444  0.16906490  1
  Fe  Fe2  1  0.00364297  1.00105172  0.33697745  1
  Fe  Fe3  1  1.00139258  0.33543414  0.99943675  1
  Fe  Fe4  1  0.17182536  0.50447923  0.16775981  1
  Ni  Ni5  1  0.00449226  0.33543738  0.33561682  1
  Ni  Ni6  1  0.00361524  0.66891438  1.00143273  1
  Ni  Ni7  1  0.16976649  0.83617019  0.16797424  1
  Cr  Cr8  1  0.00281656  0.66997723  0.33678646  1
  Fe  Fe9  1  0.33614382  0.99974239  1.00043676  1
  Cr  Cr10  1  0.50197652  0.16929662  0.16983522  1
  Ni  Ni11  1  0.33563876  1.00201790  0.33693818  1
  Fe  Fe12  1  0.33639467  0.33654295  0.99995422  1
  Ni  Ni13  1  0.50078267  0.50202671  0.16840819  1
  Fe  Fe14  1  0.33505813  0.33773934  0.33773438  1
  Fe  Fe15  1  0.33518293  0.67057724  0.00252952  1
  Ni  Ni16  1  0.49973867  0.83577445  0.16923806  1
  Fe  Fe17  1  0.33467499  0.67035780  0.33547584  1
  Ni  Ni18  1  0.66811779  0.00265668  0.00241344  1
  Fe  Fe19  1  0.83497087  0.16579204  0.16955580  1
  Fe  Fe20  1  0.66952294  1.00151077  0.33507659  1
  Fe  Fe21  1  0.66924388  0.33471803  0.99899358  1
  Cr  Cr22  1  0.83605708  0.49882265  0.16869434  1
  Fe  Fe23  1  0.66797141  0.33574804  0.33749325  1
  Cr  Cr24  1  0.66948726  0.67147028  0.00303338  1
  Ni  Ni25  1  0.83757706  0.83741821  0.16872670  1
  Cr  Cr26  1  0.66803829  0.67119340  0.33457276  1
  Ni  Ni27  1  0.16810310  0.16776528  0.50184068  1
  Ni  Ni28  1  0.00523636  1.00215145  0.66942970  1
  Ni  Ni29  1  0.16805451  0.16802107  0.83543231  1
  Fe  Fe30  1  0.16854230  0.50217816  0.50270073  1
  Ni  Ni31  1  0.00306772  0.33523983  0.67019702  1
  Fe  Fe32  1  0.16896363  0.50248209  0.83648430  1
  Ni  Ni33  1  0.17143567  0.83702331  0.50422227  1
  Fe  Fe34  1  0.00264187  0.66916475  0.66958249  1
  Fe  Fe35  1  0.16924499  0.83602615  0.83535099  1
  Fe  Fe36  1  0.50107627  0.16571157  0.50249399  1
  Ni  Ni37  1  0.33463302  1.00179410  0.66975660  1
  Ni  Ni38  1  0.50177663  0.16699511  0.83477978  1
  Fe  Fe39  1  0.50209131  0.50287911  0.50241038  1
  Cr  Cr40  1  0.33449665  0.33155122  0.66783233  1
  Fe  Fe41  1  0.50281572  0.50213272  0.83548003  1
  Ni  Ni42  1  0.50095467  0.83522217  0.50317775  1
  Fe  Fe43  1  0.33633904  0.67012398  0.66892745  1
  Ni  Ni44  1  0.50114288  0.83604938  0.83461571  1
  Cr  Cr45  1  0.83655646  0.17109209  0.50291591  1
  Fe  Fe46  1  0.66809628  0.00282150  0.67055911  1
  Fe  Fe47  1  0.83472958  0.16837589  0.83426194  1
  Fe  Fe48  1  0.83665197  0.50351550  0.50501847  1
  Ni  Ni49  1  0.66843067  0.33815164  0.66996667  1
  Ni  Ni50  1  0.83695740  0.50222261  0.83339582  1
  Fe  Fe51  1  0.83618227  0.83708830  0.50467170  1
  Ni  Ni52  1  0.66911470  0.66978868  0.66932133  1
  Fe  Fe53  1  0.83565817  0.83681279  0.83555587  1
" 