8816,Ni37Fe39Cr22_13,-231.051666852304, 194.190694679094,Ni37Fe39Cr22,"# generated using pymatgen
 data_Cr13Fe21Ni20
_symmetry_space_group_name_H-M   'P 1'
_cell_length_a   7.45092824
_cell_length_b   7.45092824
_cell_length_c   10.53720376
_cell_angle_alpha   90.00000000
_cell_angle_beta   90.00000000
_cell_angle_gamma   90.00000000
_symmetry_Int_Tables_number   1
_chemical_formula_structural   Cr13Fe21Ni20
_chemical_formula_sum   'Cr13 Fe21 Ni20'
_cell_volume   584.98689791
_cell_formula_units_Z   1
loop_
 _symmetry_equiv_pos_site_id
 _symmetry_equiv_pos_as_xyz
  1  'x, y, z'
loop_
 _atom_site_type_symbol
 _atom_site_label
 _atom_site_symmetry_multiplicity
 _atom_site_fract_x
 _atom_site_fract_y
 _atom_site_fract_z
 _atom_site_occupancy
  Ni  Ni0  1  0.00201277  0.00181447  0.99992624  1
  Cr  Cr1  1  0.16890203  0.16773077  0.17008267  1
  Ni  Ni2  1  0.99867844  1.00012256  0.33745568  1
  Cr  Cr3  1  0.00356233  0.33443727  0.00292005  1
  Ni  Ni4  1  0.16745319  0.50335096  0.16965270  1
  Ni  Ni5  1  0.00449811  0.33617305  0.33735985  1
  Fe  Fe6  1  1.00006740  0.66885886  0.00448039  1
  Cr  Cr7  1  0.16934604  0.83306521  0.16799481  1
  Ni  Ni8  1  0.00201252  0.66699082  0.33427846  1
  Fe  Fe9  1  0.33513557  0.99880952  0.99957971  1
  Cr  Cr10  1  0.49958425  0.16573327  0.16875573  1
  Fe  Fe11  1  0.33428945  1.00020190  0.33790216  1
  Fe  Fe12  1  0.33653344  0.33531330  0.99958513  1
  Cr  Cr13  1  0.49883142  0.50363182  0.16860915  1
  Ni  Ni14  1  0.33116591  0.33711345  0.33655925  1
  Ni  Ni15  1  0.33822878  0.66694406  0.99923704  1
  Ni  Ni16  1  0.50163723  0.83280014  0.17023446  1
  Ni  Ni17  1  0.33439241  0.66644094  0.33785168  1
  Cr  Cr18  1  0.66678741  0.99813985  1.00070275  1
  Cr  Cr19  1  0.83485971  0.16662524  0.17141626  1
  Ni  Ni20  1  0.66791814  0.99668564  0.33722064  1
  Fe  Fe21  1  0.66553421  0.33657828  1.00050344  1
  Fe  Fe22  1  0.83624095  0.50511809  0.16930473  1
  Cr  Cr23  1  0.66750775  0.33464014  0.33737979  1
  Ni  Ni24  1  0.66390850  0.66861321  0.00275926  1
  Fe  Fe25  1  0.83382148  0.83203626  0.16921567  1
  Fe  Fe26  1  0.66907677  0.66924839  0.33653553  1
  Ni  Ni27  1  0.16805258  0.16723110  0.50053096  1
  Fe  Fe28  1  0.00285421  0.00174637  0.66450918  1
  Fe  Fe29  1  0.17120921  0.16715470  0.83261308  1
  Ni  Ni30  1  0.16794191  0.50073336  0.50000457  1
  Fe  Fe31  1  0.00238076  0.33536221  0.66339590  1
  Cr  Cr32  1  0.16975458  0.50300849  0.83295656  1
  Fe  Fe33  1  0.16796143  0.83315256  0.50000703  1
  Fe  Fe34  1  0.00111199  0.66653759  0.66298230  1
  Cr  Cr35  1  0.16866862  0.83471956  0.83401271  1
  Ni  Ni36  1  0.49963759  0.16688253  0.50097846  1
  Fe  Fe37  1  0.33658362  0.00196017  0.66616881  1
  Fe  Fe38  1  0.49824582  0.16879533  0.83228351  1
  Ni  Ni39  1  0.50028678  0.50120681  0.50233379  1
  Ni  Ni40  1  0.33410199  0.33392175  0.66736076  1
  Ni  Ni41  1  0.50152629  0.50159401  0.83389428  1
  Fe  Fe42  1  0.50053583  0.83292484  0.50070841  1
  Fe  Fe43  1  0.33779701  0.66633061  0.66589929  1
  Ni  Ni44  1  0.50003064  0.83305288  0.83302555  1
  Fe  Fe45  1  0.83532032  0.16886784  0.50107272  1
  Fe  Fe46  1  0.66369798  1.00044049  0.66510176  1
  Cr  Cr47  1  0.83392315  0.16836779  0.83004737  1
  Ni  Ni48  1  0.83521517  0.50294450  0.50139591  1
  Fe  Fe49  1  0.66378536  0.33662483  0.66436560  1
  Cr  Cr50  1  0.83098554  0.50227262  0.83389736  1
  Fe  Fe51  1  0.83455999  0.83333902  0.50102011  1
  Ni  Ni52  1  0.66539617  0.66916339  0.66635897  1
  Cr  Cr53  1  0.83486121  0.83285911  0.83398377  1
" 