2599,Ni37Fe39Cr22_8,-231.115496571546, 198.120193399711,Ni37Fe39Cr22,"# generated using pymatgen
 data_Cr13Fe21Ni20
_symmetry_space_group_name_H-M   'P 1'
_cell_length_a   7.45020549
_cell_length_b   7.45020549
_cell_length_c   10.53618165
_cell_angle_alpha   90.00000000
_cell_angle_beta   90.00000000
_cell_angle_gamma   90.00000000
_symmetry_Int_Tables_number   1
_chemical_formula_structural   Cr13Fe21Ni20
_chemical_formula_sum   'Cr13 Fe21 Ni20'
_cell_volume   584.81668242
_cell_formula_units_Z   1
loop_
 _symmetry_equiv_pos_site_id
 _symmetry_equiv_pos_as_xyz
  1  'x, y, z'
loop_
 _atom_site_type_symbol
 _atom_site_label
 _atom_site_symmetry_multiplicity
 _atom_site_fract_x
 _atom_site_fract_y
 _atom_site_fract_z
 _atom_site_occupancy
  Fe  Fe0  1  0.00134039  0.00165242  1.00055487  1
  Fe  Fe1  1  0.16777207  0.16847752  0.16672269  1
  Fe  Fe2  1  1.00016954  0.00267179  0.33505937  1
  Ni  Ni3  1  1.00085555  0.33619045  0.00222825  1
  Ni  Ni4  1  0.16834122  0.50004758  0.16785750  1
  Fe  Fe5  1  0.00135450  0.33400349  0.33405547  1
  Ni  Ni6  1  1.00105441  0.66648581  1.00055368  1
  Fe  Fe7  1  0.16892058  0.83500247  0.16693366  1
  Cr  Cr8  1  0.00145590  0.66612822  0.33464450  1
  Ni  Ni9  1  0.33596353  0.00146849  0.00230310  1
  Ni  Ni10  1  0.50082064  0.16769786  0.16711363  1
  Cr  Cr11  1  0.33535274  1.00009888  0.33251607  1
  Ni  Ni12  1  0.33384722  0.33311004  0.00218401  1
  Fe  Fe13  1  0.50070546  0.50093042  0.16909023  1
  Fe  Fe14  1  0.33338073  0.33599348  0.33322618  1
  Cr  Cr15  1  0.33316606  0.66899379  0.00131845  1
  Ni  Ni16  1  0.50091046  0.83485253  0.16858375  1
  Ni  Ni17  1  0.33520989  0.66738228  0.33394571  1
  Ni  Ni18  1  0.66635832  0.00166662  1.00061705  1
  Ni  Ni19  1  0.83455966  0.16807401  0.16881108  1
  Fe  Fe20  1  0.66845808  1.00068370  0.33399955  1
  Cr  Cr21  1  0.66842348  0.33321724  1.00068919  1
  Fe  Fe22  1  0.83459404  0.49978063  0.16740916  1
  Fe  Fe23  1  0.66865560  0.33461504  0.33333120  1
  Fe  Fe24  1  0.66837326  0.66826855  1.00028442  1
  Cr  Cr25  1  0.83414811  0.83494357  0.16620542  1
  Fe  Fe26  1  0.66646900  0.66809837  0.33520196  1
  Fe  Fe27  1  0.16571415  0.16940372  0.50120402  1
  Ni  Ni28  1  0.99888388  1.00063524  0.66709059  1
  Cr  Cr29  1  0.16841753  0.16750245  0.83574447  1
  Fe  Fe30  1  0.16814062  0.49983758  0.50016180  1
  Cr  Cr31  1  1.00103162  0.33470529  0.66660835  1
  Fe  Fe32  1  0.16792047  0.50083135  0.83576913  1
  Cr  Cr33  1  0.16695011  0.83445361  0.50128528  1
  Cr  Cr34  1  1.00038100  0.66769505  0.66839416  1
  Ni  Ni35  1  0.16702947  0.83371608  0.83563689  1
  Cr  Cr36  1  0.50127615  0.16807589  0.50165426  1
  Cr  Cr37  1  0.33567662  1.00083640  0.66845364  1
  Ni  Ni38  1  0.50150927  0.16765863  0.83517432  1
  Cr  Cr39  1  0.50036148  0.50219815  0.50095798  1
  Ni  Ni40  1  0.33416296  0.33560497  0.66793895  1
  Fe  Fe41  1  0.50067679  0.50083971  0.83342823  1
  Fe  Fe42  1  0.50412472  0.83280298  0.50085751  1
  Fe  Fe43  1  0.33560507  0.66715674  0.66859237  1
  Fe  Fe44  1  0.50273719  0.83537363  0.83480226  1
  Fe  Fe45  1  0.83556069  0.16631470  0.50047658  1
  Ni  Ni46  1  0.66882211  0.99941116  0.66757213  1
  Ni  Ni47  1  0.83330974  0.16641992  0.83417364  1
  Ni  Ni48  1  0.83436809  0.50199048  0.49943923  1
  Cr  Cr49  1  0.66838148  0.33381263  0.66968053  1
  Ni  Ni50  1  0.83422308  0.50264460  0.83611673  1
  Ni  Ni51  1  0.83334711  0.83528228  0.50224907  1
  Ni  Ni52  1  0.66780157  0.66969479  0.66776558  1
  Fe  Fe53  1  0.83396342  0.83560358  0.83436902  1
" 