5324,Ni37Fe49Cr12_7,-234.189062610157, 198.481202400421,Ni37Fe49Cr12,"# generated using pymatgen
 data_Cr4Fe13Ni10
_symmetry_space_group_name_H-M   'P 1'
_cell_length_a   7.43368578
_cell_length_b   7.43368578
_cell_length_c   10.51281926
_cell_angle_alpha   90.00000000
_cell_angle_beta   90.00000000
_cell_angle_gamma   90.00000000
_symmetry_Int_Tables_number   1
_chemical_formula_structural   Cr4Fe13Ni10
_chemical_formula_sum   'Cr8 Fe26 Ni20'
_cell_volume   580.93507363
_cell_formula_units_Z   2
loop_
 _symmetry_equiv_pos_site_id
 _symmetry_equiv_pos_as_xyz
  1  'x, y, z'
loop_
 _atom_site_type_symbol
 _atom_site_label
 _atom_site_symmetry_multiplicity
 _atom_site_fract_x
 _atom_site_fract_y
 _atom_site_fract_z
 _atom_site_occupancy
  Cr  Cr0  1  0.00361096  1.00161383  1.00121659  1
  Fe  Fe1  1  0.16992964  0.17019425  0.16973895  1
  Fe  Fe2  1  1.00175556  0.00278616  0.33579546  1
  Fe  Fe3  1  0.00230585  0.33741646  1.00142890  1
  Fe  Fe4  1  0.16902371  0.50178284  0.16933018  1
  Ni  Ni5  1  0.00279956  0.33500558  0.33563237  1
  Fe  Fe6  1  1.00186240  0.66708739  1.00146277  1
  Fe  Fe7  1  0.16938056  0.83475158  0.16971457  1
  Ni  Ni8  1  1.00146563  0.66998990  0.33569205  1
  Fe  Fe9  1  0.33514454  0.00315861  0.00257497  1
  Fe  Fe10  1  0.50127498  0.17036785  0.16969140  1
  Fe  Fe11  1  0.33561000  0.00267617  0.33615624  1
  Ni  Ni12  1  0.33495253  0.33479588  1.00173444  1
  Fe  Fe13  1  0.50251794  0.50194767  0.16876759  1
  Ni  Ni14  1  0.33566713  0.33456511  0.33682638  1
  Fe  Fe15  1  0.33445666  0.66865574  0.00338805  1
  Fe  Fe16  1  0.50198953  0.83441297  0.16975881  1
  Fe  Fe17  1  0.33557539  0.66755094  0.33606908  1
  Cr  Cr18  1  0.66914506  1.00216907  1.00107912  1
  Fe  Fe19  1  0.83552873  0.17072201  0.17078095  1
  Fe  Fe20  1  0.66936673  0.00230555  0.33582060  1
  Fe  Fe21  1  0.66947869  0.33673925  0.00315846  1
  Fe  Fe22  1  0.83519048  0.50249873  0.16962661  1
  Ni  Ni23  1  0.66826687  0.33579970  0.33440661  1
  Ni  Ni24  1  0.67029668  0.66775790  0.00335128  1
  Fe  Fe25  1  0.83536379  0.83351088  0.17038979  1
  Ni  Ni26  1  0.66944783  0.66934468  0.33585175  1
  Ni  Ni27  1  0.16968117  0.17236958  0.50003290  1
  Cr  Cr28  1  1.00123146  1.00137498  0.66901669  1
  Ni  Ni29  1  0.17002307  0.17244817  0.83701983  1
  Ni  Ni30  1  0.16758659  0.49896058  0.50191228  1
  Ni  Ni31  1  0.00416250  0.33690153  0.66972896  1
  Ni  Ni32  1  0.16579803  0.49883333  0.83636069  1
  Fe  Fe33  1  0.16726523  0.83399160  0.49994652  1
  Ni  Ni34  1  0.99970363  0.66818157  0.67028098  1
  Fe  Fe35  1  0.16636185  0.83336446  0.83707244  1
  Fe  Fe36  1  0.50189545  0.16952301  0.50058461  1
  Cr  Cr37  1  0.33524571  0.00489208  0.66989886  1
  Fe  Fe38  1  0.50093022  0.17058549  0.83645514  1
  Fe  Fe39  1  0.50249244  0.50251128  0.50065754  1
  Ni  Ni40  1  0.33330157  0.33422690  0.66817160  1
  Cr  Cr41  1  0.50224553  0.50173753  0.83616092  1
  Ni  Ni42  1  0.50566101  0.83599021  0.50035959  1
  Cr  Cr43  1  0.33399084  0.66670409  0.66672621  1
  Cr  Cr44  1  0.50475309  0.83635608  0.83619844  1
  Fe  Fe45  1  0.83629212  0.16954829  0.50040581  1
  Fe  Fe46  1  0.67007316  1.00052470  0.66822240  1
  Fe  Fe47  1  0.83645548  0.17093233  0.83553872  1
  Ni  Ni48  1  0.83711436  0.50409288  0.50154184  1
  Cr  Cr49  1  0.66898021  0.33612732  0.66873173  1
  Ni  Ni50  1  0.83868778  0.50400610  0.83700480  1
  Ni  Ni51  1  0.83235862  0.83390061  0.50163772  1
  Ni  Ni52  1  0.67269468  0.67062033  0.66752983  1
  Ni  Ni53  1  0.83478074  0.83286226  0.83453297  1
" 