6323,Ni37Cr63_9,-225.306470249889, 141.384031476239,Ni37Cr63,"# generated using pymatgen
 data_Cr19Ni35
_symmetry_space_group_name_H-M   'P 1'
_cell_length_a   7.49627048
_cell_length_b   7.49627048
_cell_length_c   10.60132739
_cell_angle_alpha   90.00000000
_cell_angle_beta   90.00000000
_cell_angle_gamma   90.00000000
_symmetry_Int_Tables_number   1
_chemical_formula_structural   Cr19Ni35
_chemical_formula_sum   'Cr19 Ni35'
_cell_volume   595.73174550
_cell_formula_units_Z   1
loop_
 _symmetry_equiv_pos_site_id
 _symmetry_equiv_pos_as_xyz
  1  'x, y, z'
loop_
 _atom_site_type_symbol
 _atom_site_label
 _atom_site_symmetry_multiplicity
 _atom_site_fract_x
 _atom_site_fract_y
 _atom_site_fract_z
 _atom_site_occupancy
  Cr  Cr0  1  0.99793796  -0.00179386  0.99763123  1
  Ni  Ni1  1  0.16559063  0.16305519  0.16570862  1
  Ni  Ni2  1  0.00109838  -0.00128296  0.33003031  1
  Cr  Cr3  1  0.99686748  0.33099744  0.99706729  1
  Cr  Cr4  1  0.16678543  0.50130204  0.16185974  1
  Cr  Cr5  1  -0.00189599  0.33122531  0.33294608  1
  Ni  Ni6  1  0.99679376  0.66319617  0.99704773  1
  Ni  Ni7  1  0.16552999  0.83195062  0.16570712  1
  Cr  Cr8  1  -0.00088208  0.66356359  0.33330936  1
  Cr  Cr9  1  0.33177707  -0.00060396  -0.00141321  1
  Ni  Ni10  1  0.49798453  0.16612905  0.16470100  1
  Ni  Ni11  1  0.33022317  0.99651384  0.33169613  1
  Ni  Ni12  1  0.33334404  0.33313331  0.99804862  1
  Ni  Ni13  1  0.49931581  0.49836729  0.16240445  1
  Cr  Cr14  1  0.33130031  0.33138300  0.32998536  1
  Ni  Ni15  1  0.33311189  0.66242507  0.99707764  1
  Cr  Cr16  1  0.49675598  0.82891910  0.16610364  1
  Ni  Ni17  1  0.33250530  0.66736073  0.33241913  1
  Cr  Cr18  1  0.66454432  -0.00088966  0.99585458  1
  Ni  Ni19  1  0.83063928  0.16505877  0.16571710  1
  Ni  Ni20  1  0.66295233  0.99729712  0.33046103  1
  Ni  Ni21  1  0.66369778  0.33421376  -0.00064111  1
  Ni  Ni22  1  0.82849871  0.49836155  0.16326136  1
  Cr  Cr23  1  0.66483400  0.33350412  0.32769244  1
  Ni  Ni24  1  0.66425599  0.66109120  0.99614943  1
  Cr  Cr25  1  0.83320242  0.82978871  0.16515768  1
  Ni  Ni26  1  0.66267964  0.66462465  0.33163182  1
  Ni  Ni27  1  0.16558313  0.16392653  0.49927696  1
  Cr  Cr28  1  -0.00074296  -0.00129371  0.66696725  1
  Ni  Ni29  1  0.16498661  0.16854962  0.82939272  1
  Ni  Ni30  1  0.16564622  0.49814620  0.50058447  1
  Ni  Ni31  1  -0.00109581  0.33247223  0.66508691  1
  Ni  Ni32  1  0.16639351  0.49636895  0.83117148  1
  Ni  Ni33  1  0.16861696  0.83214476  0.49615731  1
  Cr  Cr34  1  0.99791025  0.66191615  0.66472863  1
  Cr  Cr35  1  0.16654033  0.82835461  0.83334772  1
  Cr  Cr36  1  0.49764736  0.16207068  0.50015145  1
  Ni  Ni37  1  0.33224397  0.99664210  0.66362811  1
  Cr  Cr38  1  0.49730564  0.16770460  0.82890283  1
  Cr  Cr39  1  0.49811160  0.50017492  0.49946621  1
  Ni  Ni40  1  0.32896305  0.33269023  0.66588456  1
  Ni  Ni41  1  0.49773913  0.49927040  0.83206274  1
  Ni  Ni42  1  0.49626193  0.83112508  0.49845919  1
  Ni  Ni43  1  0.33324261  0.66478953  0.66452448  1
  Ni  Ni44  1  0.49945565  0.82769890  0.82855336  1
  Cr  Cr45  1  0.83109326  0.16513805  0.49937371  1
  Ni  Ni46  1  0.66263060  0.99567891  0.66682210  1
  Ni  Ni47  1  0.83076033  0.16705700  0.82946783  1
  Ni  Ni48  1  0.83090159  0.49821209  0.49992808  1
  Ni  Ni49  1  0.66631514  0.33389124  0.66690987  1
  Ni  Ni50  1  0.82996788  0.49782045  0.83134111  1
  Cr  Cr51  1  0.82800166  0.83175161  0.49699912  1
  Ni  Ni52  1  0.66274079  0.66448860  0.66617785  1
  Ni  Ni53  1  0.82807674  0.82906437  0.83176466  1
" 