2048,Ni37Cr63_18,-225.379033922718, 138.587951191665,Ni37Cr63,"# generated using pymatgen
 data_Cr19Ni35
_symmetry_space_group_name_H-M   'P 1'
_cell_length_a   7.49462309
_cell_length_b   7.49462309
_cell_length_c   10.59899761
_cell_angle_alpha   90.00000000
_cell_angle_beta   90.00000000
_cell_angle_gamma   90.00000000
_symmetry_Int_Tables_number   1
_chemical_formula_structural   Cr19Ni35
_chemical_formula_sum   'Cr19 Ni35'
_cell_volume   595.33907397
_cell_formula_units_Z   1
loop_
 _symmetry_equiv_pos_site_id
 _symmetry_equiv_pos_as_xyz
  1  'x, y, z'
loop_
 _atom_site_type_symbol
 _atom_site_label
 _atom_site_symmetry_multiplicity
 _atom_site_fract_x
 _atom_site_fract_y
 _atom_site_fract_z
 _atom_site_occupancy
  Ni  Ni0  1  0.99599102  -0.00109699  0.00074901  1
  Ni  Ni1  1  0.16107263  0.16758447  0.16482203  1
  Ni  Ni2  1  0.99487707  -0.00034970  0.32980193  1
  Ni  Ni3  1  -0.00137412  0.33257862  -0.00131158  1
  Ni  Ni4  1  0.16241618  0.49665253  0.16346101  1
  Ni  Ni5  1  0.99757951  0.33178147  0.33136632  1
  Ni  Ni6  1  0.99669224  0.66269620  -0.00055664  1
  Ni  Ni7  1  0.15893120  0.83017814  0.16345830  1
  Ni  Ni8  1  0.99680586  0.66319181  0.33101677  1
  Cr  Cr9  1  0.32945234  0.00049279  0.00004397  1
  Ni  Ni10  1  0.49858066  0.16870065  0.16710063  1
  Cr  Cr11  1  0.32636941  0.00063039  0.32852723  1
  Ni  Ni12  1  0.32952300  0.33327159  0.00035912  1
  Ni  Ni13  1  0.49773874  0.49484881  0.16422137  1
  Ni  Ni14  1  0.32842791  0.33136251  0.32927330  1
  Ni  Ni15  1  0.32990504  0.66234118  -0.00009856  1
  Cr  Cr16  1  0.50090015  0.82988991  0.16476459  1
  Cr  Cr17  1  0.32624098  0.66115295  0.32976051  1
  Cr  Cr18  1  0.66766458  0.00001594  0.99692853  1
  Ni  Ni19  1  0.83425628  0.16554167  0.16653259  1
  Ni  Ni20  1  0.66979831  0.00073762  0.33087565  1
  Cr  Cr21  1  0.66862613  0.33216365  -0.00003235  1
  Ni  Ni22  1  0.83416360  0.49760381  0.16475928  1
  Ni  Ni23  1  0.66824842  0.32969731  0.32898699  1
  Ni  Ni24  1  0.66777435  0.66432826  -0.00158779  1
  Ni  Ni25  1  0.83569215  0.83139243  0.16490888  1
  Cr  Cr26  1  0.67013352  0.66136072  0.33025455  1
  Ni  Ni27  1  0.16120849  0.16980733  0.49667430  1
  Cr  Cr28  1  0.99543247  0.00034841  0.66444473  1
  Cr  Cr29  1  0.16226101  0.16982626  0.83287152  1
  Ni  Ni30  1  0.15979001  0.49384076  0.49838542  1
  Ni  Ni31  1  -0.00115229  0.33413954  0.66432719  1
  Ni  Ni32  1  0.16118339  0.49717571  0.83212407  1
  Cr  Cr33  1  0.15986060  0.83130684  0.49607734  1
  Ni  Ni34  1  0.99608800  0.66147794  0.66422307  1
  Cr  Cr35  1  0.16125700  0.82806024  0.83535018  1
  Cr  Cr36  1  0.49975104  0.16598488  0.49682131  1
  Cr  Cr37  1  0.33149895  -0.00005705  0.66603652  1
  Ni  Ni38  1  0.49896395  0.16525546  0.83039644  1
  Cr  Cr39  1  0.49852682  0.49480259  0.49528617  1
  Ni  Ni40  1  0.32832936  0.33181458  0.66435033  1
  Cr  Cr41  1  0.49625145  0.49735112  0.83414048  1
  Cr  Cr42  1  0.50239542  0.83300363  0.49785501  1
  Cr  Cr43  1  0.32752723  0.66303971  0.66385368  1
  Ni  Ni44  1  0.50083073  0.83157361  0.83242272  1
  Ni  Ni45  1  0.83399695  0.16556885  0.49650984  1
  Ni  Ni46  1  0.66826337  -0.00112059  0.66679331  1
  Ni  Ni47  1  0.83282727  0.16529387  0.83186497  1
  Ni  Ni48  1  0.83679632  0.49652976  0.49683768  1
  Cr  Cr49  1  0.67100303  0.33051154  0.66626272  1
  Ni  Ni50  1  0.83641242  0.49865084  0.83302823  1
  Ni  Ni51  1  0.83373080  0.83234749  0.49708968  1
  Cr  Cr52  1  0.66946231  0.66479967  0.66563340  1
  Ni  Ni53  1  0.83167378  0.83057535  0.83261109  1
" 