2813,Ni37Fe53Cr8_4,-235.706717711558, 211.604675606728,Ni37Fe53Cr8,"# generated using pymatgen
 data_Cr5Fe29Ni20
_symmetry_space_group_name_H-M   'P 1'
_cell_length_a   7.41503945
_cell_length_b   7.41503945
_cell_length_c   10.48644936
_cell_angle_alpha   90.00000000
_cell_angle_beta   90.00000000
_cell_angle_gamma   90.00000000
_symmetry_Int_Tables_number   1
_chemical_formula_structural   Cr5Fe29Ni20
_chemical_formula_sum   'Cr5 Fe29 Ni20'
_cell_volume   576.57445408
_cell_formula_units_Z   1
loop_
 _symmetry_equiv_pos_site_id
 _symmetry_equiv_pos_as_xyz
  1  'x, y, z'
loop_
 _atom_site_type_symbol
 _atom_site_label
 _atom_site_symmetry_multiplicity
 _atom_site_fract_x
 _atom_site_fract_y
 _atom_site_fract_z
 _atom_site_occupancy
  Fe  Fe0  1  1.00176157  1.00346789  1.00240189  1
  Ni  Ni1  1  0.17159872  0.17096924  0.17165946  1
  Fe  Fe2  1  1.00285111  0.00450593  0.33789104  1
  Cr  Cr3  1  1.00281104  0.33719970  1.00224837  1
  Fe  Fe4  1  0.17246425  0.50368205  0.17015951  1
  Fe  Fe5  1  0.00416519  0.33537912  0.33626532  1
  Ni  Ni6  1  1.00258926  0.67031494  1.00287192  1
  Cr  Cr7  1  0.17044355  0.83988223  0.16760734  1
  Cr  Cr8  1  0.00363052  0.67076905  0.33669255  1
  Ni  Ni9  1  0.33791221  0.00466856  1.00220055  1
  Fe  Fe10  1  0.50322169  0.16778913  0.16938288  1
  Fe  Fe11  1  0.33832356  1.00244632  0.33660047  1
  Fe  Fe12  1  0.33739442  0.33563452  0.00367115  1
  Fe  Fe13  1  0.50371572  0.50445767  0.17007787  1
  Fe  Fe14  1  0.33714679  0.33774649  0.33775148  1
  Fe  Fe15  1  0.33814828  0.66955301  0.00410780  1
  Ni  Ni16  1  0.50499182  0.83567045  0.16935247  1
  Ni  Ni17  1  0.33835461  0.67030130  0.33774281  1
  Fe  Fe18  1  0.67092826  1.00263513  1.00251569  1
  Fe  Fe19  1  0.83616479  0.16745998  0.17197757  1
  Fe  Fe20  1  0.66959229  1.00207151  0.33790081  1
  Ni  Ni21  1  0.67030693  0.33546796  0.00448895  1
  Fe  Fe22  1  0.83451915  0.50431294  0.16936745  1
  Fe  Fe23  1  0.66870486  0.33705422  0.33647940  1
  Ni  Ni24  1  0.67197853  0.67078596  0.00434406  1
  Ni  Ni25  1  0.83465057  0.83584271  0.17044503  1
  Ni  Ni26  1  0.66834318  0.67137335  0.33752869  1
  Ni  Ni27  1  0.17103524  0.16841309  0.50255786  1
  Fe  Fe28  1  1.00331797  0.00505640  0.66973856  1
  Ni  Ni29  1  0.17200034  0.16834979  0.83591383  1
  Fe  Fe30  1  0.17200066  0.50157697  0.50432844  1
  Fe  Fe31  1  0.00368895  0.33426689  0.67143903  1
  Fe  Fe32  1  0.16975953  0.50387207  0.83521005  1
  Ni  Ni33  1  0.17144284  0.83821195  0.50443571  1
  Fe  Fe34  1  0.00389609  0.67092925  0.67141526  1
  Fe  Fe35  1  0.17040824  0.83683157  0.83694076  1
  Ni  Ni36  1  0.50297260  0.17093287  0.50302336  1
  Fe  Fe37  1  0.33852916  0.00545712  0.67045771  1
  Ni  Ni38  1  0.50201654  0.17045150  0.83778520  1
  Fe  Fe39  1  0.50094249  0.50197574  0.50409090  1
  Ni  Ni40  1  0.33594061  0.33548958  0.66968809  1
  Cr  Cr41  1  0.50602508  0.50193986  0.83674932  1
  Fe  Fe42  1  0.50373372  0.83881479  0.50267407  1
  Fe  Fe43  1  0.33776029  0.67068807  0.66804275  1
  Fe  Fe44  1  0.50491791  0.83871633  0.83802780  1
  Ni  Ni45  1  0.83668323  0.17100914  0.50342983  1
  Ni  Ni46  1  0.66921861  0.00419775  0.67063203  1
  Fe  Fe47  1  0.83460946  0.17000455  0.83496796  1
  Cr  Cr48  1  0.83370785  0.50357843  0.50557628  1
  Ni  Ni49  1  0.66895769  0.33355493  0.67019808  1
  Ni  Ni50  1  0.83572519  0.50530599  0.83641085  1
  Fe  Fe51  1  0.83653117  0.84114769  0.50440847  1
  Fe  Fe52  1  0.66927108  0.67200317  0.67081657  1
  Ni  Ni53  1  0.83756920  0.83515778  0.83668332  1
" 