7408,Ni37Cr63_11,-225.103201071036, 137.908973200999,Ni37Cr63,"# generated using pymatgen
 data_Cr19Ni35
_symmetry_space_group_name_H-M   'P 1'
_cell_length_a   7.49811419
_cell_length_b   7.49811419
_cell_length_c   10.60393478
_cell_angle_alpha   90.00000000
_cell_angle_beta   90.00000000
_cell_angle_gamma   90.00000000
_symmetry_Int_Tables_number   1
_chemical_formula_structural   Cr19Ni35
_chemical_formula_sum   'Cr19 Ni35'
_cell_volume   596.17141431
_cell_formula_units_Z   1
loop_
 _symmetry_equiv_pos_site_id
 _symmetry_equiv_pos_as_xyz
  1  'x, y, z'
loop_
 _atom_site_type_symbol
 _atom_site_label
 _atom_site_symmetry_multiplicity
 _atom_site_fract_x
 _atom_site_fract_y
 _atom_site_fract_z
 _atom_site_occupancy
  Cr  Cr0  1  -0.00134115  0.99748649  0.99518100  1
  Cr  Cr1  1  0.16528290  0.16678480  0.16556490  1
  Ni  Ni2  1  0.99698234  0.99703894  0.33479075  1
  Ni  Ni3  1  -0.00187122  0.33314579  0.99781024  1
  Ni  Ni4  1  0.16425876  0.49834487  0.16422087  1
  Ni  Ni5  1  -0.00203939  0.33097469  0.33099806  1
  Ni  Ni6  1  0.99718073  0.66368246  -0.00205740  1
  Cr  Cr7  1  0.16614972  0.82994951  0.16555073  1
  Ni  Ni8  1  0.99700629  0.66581970  0.33085382  1
  Ni  Ni9  1  0.33109345  0.99788644  0.99554325  1
  Cr  Cr10  1  0.49698031  0.16375683  0.16503364  1
  Ni  Ni11  1  0.33100924  0.99788197  0.33310270  1
  Ni  Ni12  1  0.33133943  0.33170187  0.99696251  1
  Ni  Ni13  1  0.49818031  0.49992720  0.16463337  1
  Ni  Ni14  1  0.33221236  0.33226135  0.33299208  1
  Ni  Ni15  1  0.33131365  0.66415547  -0.00039857  1
  Ni  Ni16  1  0.49884931  0.82821197  0.16511776  1
  Ni  Ni17  1  0.33223563  0.66354321  0.33045958  1
  Cr  Cr18  1  0.66454686  0.99696431  0.99673666  1
  Cr  Cr19  1  0.83149590  0.16651766  0.16682025  1
  Ni  Ni20  1  0.66579953  0.99690812  0.33291170  1
  Ni  Ni21  1  0.66431891  0.33345157  0.99735901  1
  Ni  Ni22  1  0.83133448  0.49987674  0.16400171  1
  Ni  Ni23  1  0.66360289  0.33227610  0.33245598  1
  Ni  Ni24  1  0.66527198  0.66331977  0.00065120  1
  Ni  Ni25  1  0.82922123  0.82691416  0.16648096  1
  Ni  Ni26  1  0.66447362  0.66448521  0.32926714  1
  Ni  Ni27  1  0.16575569  0.16385801  0.49540073  1
  Cr  Cr28  1  0.99657244  0.99643139  0.66480794  1
  Ni  Ni29  1  0.16653143  0.16457762  0.83311422  1
  Cr  Cr30  1  0.16531679  0.49822510  0.49732070  1
  Cr  Cr31  1  -0.00041126  0.32877404  0.66480056  1
  Cr  Cr32  1  0.16392189  0.49830762  0.83222176  1
  Ni  Ni33  1  0.16193210  0.83225405  0.49593878  1
  Ni  Ni34  1  0.99792135  0.66888874  0.66506397  1
  Ni  Ni35  1  0.16269212  0.83155645  0.83260810  1
  Ni  Ni36  1  0.49793257  0.16595435  0.49713998  1
  Cr  Cr37  1  0.33037918  0.00096344  0.66531502  1
  Ni  Ni38  1  0.49704314  0.16488405  0.83155302  1
  Ni  Ni39  1  0.49681873  0.49487211  0.49550608  1
  Ni  Ni40  1  0.33242636  0.32856223  0.66369112  1
  Cr  Cr41  1  0.49727037  0.49597116  0.83226369  1
  Cr  Cr42  1  0.49893690  0.83242763  0.49532428  1
  Cr  Cr43  1  0.32904051  0.66330903  0.66300836  1
  Cr  Cr44  1  0.49793907  0.83291821  0.83336373  1
  Ni  Ni45  1  0.83014734  0.16182756  0.49560973  1
  Ni  Ni46  1  0.66676088  -0.00016507  0.66482562  1
  Ni  Ni47  1  0.83030080  0.16358258  0.83178994  1
  Cr  Cr48  1  0.83116826  0.49894575  0.49643413  1
  Cr  Cr49  1  0.66170030  0.32769327  0.66357772  1
  Cr  Cr50  1  0.83255614  0.49885949  0.83339720  1
  Ni  Ni51  1  0.83296788  0.83332455  0.49692262  1
  Cr  Cr52  1  0.66652895  0.66646966  0.66356156  1
  Ni  Ni53  1  0.83309422  0.83159200  0.83052771  1
" 