2431,Ni37Fe53Cr8_6,-235.507900693736, 210.488646508516,Ni37Fe53Cr8,"# generated using pymatgen
 data_Cr5Fe29Ni20
_symmetry_space_group_name_H-M   'P 1'
_cell_length_a   7.41233152
_cell_length_b   7.41233152
_cell_length_c   10.48261977
_cell_angle_alpha   90.00000000
_cell_angle_beta   90.00000000
_cell_angle_gamma   90.00000000
_symmetry_Int_Tables_number   1
_chemical_formula_structural   Cr5Fe29Ni20
_chemical_formula_sum   'Cr5 Fe29 Ni20'
_cell_volume   575.94299924
_cell_formula_units_Z   1
loop_
 _symmetry_equiv_pos_site_id
 _symmetry_equiv_pos_as_xyz
  1  'x, y, z'
loop_
 _atom_site_type_symbol
 _atom_site_label
 _atom_site_symmetry_multiplicity
 _atom_site_fract_x
 _atom_site_fract_y
 _atom_site_fract_z
 _atom_site_occupancy
  Ni  Ni0  1  0.00563537  1.00199738  1.00294095  1
  Ni  Ni1  1  0.17045346  0.16694212  0.16958158  1
  Ni  Ni2  1  0.00421925  1.00342363  0.33664642  1
  Cr  Cr3  1  0.00393986  0.33505305  0.00525904  1
  Fe  Fe4  1  0.17020184  0.50488397  0.17071833  1
  Ni  Ni5  1  1.00191864  0.33721816  0.33769693  1
  Fe  Fe6  1  1.00283506  0.67346449  0.00468587  1
  Ni  Ni7  1  0.17018193  0.83888564  0.17022384  1
  Fe  Fe8  1  0.00386787  0.66977412  0.33752680  1
  Fe  Fe9  1  0.33557846  0.00382508  1.00368548  1
  Fe  Fe10  1  0.50343685  0.17095642  0.17006705  1
  Ni  Ni11  1  0.33650608  1.00196702  0.33668812  1
  Fe  Fe12  1  0.33996310  0.33603697  0.00413894  1
  Ni  Ni13  1  0.50646163  0.50366209  0.16832007  1
  Cr  Cr14  1  0.33695121  0.33746331  0.33642348  1
  Fe  Fe15  1  0.33795879  0.67121314  0.00464495  1
  Fe  Fe16  1  0.50252575  0.83582864  0.17114070  1
  Fe  Fe17  1  0.33667825  0.67141880  0.33696533  1
  Cr  Cr18  1  0.67123624  1.00319869  0.00394883  1
  Fe  Fe19  1  0.83771715  0.17097572  0.17194343  1
  Fe  Fe20  1  0.67053561  0.00467373  0.33703128  1
  Ni  Ni21  1  0.66760590  0.33929581  0.00435104  1
  Ni  Ni22  1  0.83492990  0.50393041  0.17140683  1
  Ni  Ni23  1  0.67179561  0.33830121  0.33636296  1
  Ni  Ni24  1  0.66894012  0.66890349  0.00397687  1
  Fe  Fe25  1  0.83832722  0.83611341  0.17069359  1
  Fe  Fe26  1  0.67052787  0.66951809  0.33659583  1
  Fe  Fe27  1  0.16967663  0.17056678  0.50392696  1
  Ni  Ni28  1  0.00417124  1.00268362  0.67147713  1
  Fe  Fe29  1  0.17133422  0.16761151  0.83637561  1
  Ni  Ni30  1  0.16905207  0.50453274  0.50382194  1
  Fe  Fe31  1  0.00458366  0.33573257  0.66825380  1
  Cr  Cr32  1  0.17119744  0.50532940  0.83697622  1
  Fe  Fe33  1  0.17019048  0.83632912  0.50394328  1
  Ni  Ni34  1  1.00312855  0.67217539  0.66932936  1
  Ni  Ni35  1  0.17006886  0.83945316  0.83710385  1
  Fe  Fe36  1  0.50404351  0.17088063  0.50495527  1
  Ni  Ni37  1  0.33645741  0.00437457  0.67091720  1
  Ni  Ni38  1  0.50330625  0.17041137  0.83669630  1
  Ni  Ni39  1  0.50497331  0.50395624  0.50563883  1
  Ni  Ni40  1  0.33831104  0.33652359  0.67019115  1
  Fe  Fe41  1  0.50348305  0.50344080  0.83743295  1
  Fe  Fe42  1  0.50338978  0.83614959  0.50360334  1
  Fe  Fe43  1  0.33659669  0.67123396  0.66946413  1
  Fe  Fe44  1  0.50266362  0.83643327  0.83632981  1
  Fe  Fe45  1  0.83735603  0.17160892  0.50324171  1
  Fe  Fe46  1  0.67012683  0.00387996  0.67080609  1
  Fe  Fe47  1  0.83735112  0.16842887  0.83589174  1
  Ni  Ni48  1  0.83704491  0.50323626  0.50351469  1
  Fe  Fe49  1  0.66944537  0.33598672  0.66957820  1
  Cr  Cr50  1  0.83497648  0.50427774  0.83611642  1
  Fe  Fe51  1  0.83748843  0.83593011  0.50408164  1
  Fe  Fe52  1  0.66969302  0.67120547  0.66967716  1
  Fe  Fe53  1  0.83826868  0.83801070  0.83629833  1
" 