3976,Ni37Cr63_1,-225.245598722989, 139.598253645917,Ni37Cr63,"# generated using pymatgen
 data_Cr19Ni35
_symmetry_space_group_name_H-M   'P 1'
_cell_length_a   7.49575017
_cell_length_b   7.49575017
_cell_length_c   10.60059155
_cell_angle_alpha   90.00000000
_cell_angle_beta   90.00000000
_cell_angle_gamma   90.00000000
_symmetry_Int_Tables_number   1
_chemical_formula_structural   Cr19Ni35
_chemical_formula_sum   'Cr19 Ni35'
_cell_volume   595.60770541
_cell_formula_units_Z   1
loop_
 _symmetry_equiv_pos_site_id
 _symmetry_equiv_pos_as_xyz
  1  'x, y, z'
loop_
 _atom_site_type_symbol
 _atom_site_label
 _atom_site_symmetry_multiplicity
 _atom_site_fract_x
 _atom_site_fract_y
 _atom_site_fract_z
 _atom_site_occupancy
  Cr  Cr0  1  -0.00185023  -0.00040917  0.00010830  1
  Ni  Ni1  1  0.16524858  0.16618370  0.16526836  1
  Ni  Ni2  1  0.99682136  0.00105240  0.33236696  1
  Ni  Ni3  1  -0.00076779  0.33222795  0.00078415  1
  Ni  Ni4  1  0.16386985  0.49645923  0.16477462  1
  Ni  Ni5  1  0.99771114  0.33030008  0.33020243  1
  Cr  Cr6  1  -0.00015989  0.66327338  -0.00167929  1
  Cr  Cr7  1  0.16950087  0.83252001  0.16739968  1
  Ni  Ni8  1  0.99803977  0.66297031  0.33155828  1
  Ni  Ni9  1  0.33337923  -0.00065569  -0.00103853  1
  Ni  Ni10  1  0.49854331  0.16296027  0.16343220  1
  Ni  Ni11  1  0.33353923  -0.00086370  0.33134240  1
  Ni  Ni12  1  0.33026113  0.33045083  -0.00139523  1
  Cr  Cr13  1  0.49915137  0.49906935  0.16457009  1
  Cr  Cr14  1  0.33029147  0.33036798  0.33306209  1
  Ni  Ni15  1  0.33071378  0.66451049  -0.00167917  1
  Ni  Ni16  1  0.49784204  0.83303021  0.16494326  1
  Ni  Ni17  1  0.33209414  0.66494843  0.33221616  1
  Ni  Ni18  1  0.66172684  0.00018776  0.00000684  1
  Ni  Ni19  1  0.83038333  0.16744752  0.16593691  1
  Ni  Ni20  1  0.66403759  -0.00076302  0.33208178  1
  Ni  Ni21  1  0.66453174  0.32890736  0.00006546  1
  Ni  Ni22  1  0.83145684  0.49527911  0.16531827  1
  Ni  Ni23  1  0.66580715  0.32906642  0.33165032  1
  Ni  Ni24  1  0.66356905  0.66507134  0.00008062  1
  Cr  Cr25  1  0.82794910  0.83124736  0.16770917  1
  Ni  Ni26  1  0.66400540  0.66589400  0.33250716  1
  Ni  Ni27  1  0.16320941  0.16443128  0.49794395  1
  Ni  Ni28  1  -0.00062636  0.99800052  0.66278170  1
  Cr  Cr29  1  0.16624174  0.16404719  0.83062272  1
  Ni  Ni30  1  0.16338071  0.49754089  0.49726792  1
  Ni  Ni31  1  0.00024874  0.33145866  0.66301153  1
  Ni  Ni32  1  0.16429679  0.49786024  0.83214581  1
  Cr  Cr33  1  0.16418133  0.83344049  0.49682457  1
  Ni  Ni34  1  0.00032396  0.66480313  0.66494760  1
  Ni  Ni35  1  0.16643964  0.83134058  0.83024086  1
  Ni  Ni36  1  0.49769774  0.16261590  0.49661751  1
  Ni  Ni37  1  0.33098110  -0.00115102  0.66394070  1
  Ni  Ni38  1  0.49661609  0.16397630  0.83387258  1
  Ni  Ni39  1  0.49770501  0.49872077  0.49505457  1
  Cr  Cr40  1  0.33163952  0.33065130  0.66199464  1
  Cr  Cr41  1  0.49784971  0.49516888  0.83459469  1
  Ni  Ni42  1  0.49801632  0.83286865  0.49467247  1
  Cr  Cr43  1  0.33069817  0.66418509  0.66366536  1
  Cr  Cr44  1  0.49559414  0.83360847  0.83474125  1
  Ni  Ni45  1  0.83347842  0.16350065  0.49653354  1
  Cr  Cr46  1  0.66344913  -0.00112747  0.66238456  1
  Cr  Cr47  1  0.83059986  0.16631445  0.83172886  1
  Cr  Cr48  1  0.83254418  0.49723995  0.49637278  1
  Cr  Cr49  1  0.66284497  0.32930554  0.66193920  1
  Cr  Cr50  1  0.83194582  0.49599747  0.83226417  1
  Ni  Ni51  1  0.83207298  0.83299563  0.49666623  1
  Cr  Cr52  1  0.66476411  0.66614430  0.66196177  1
  Cr  Cr53  1  0.83272257  0.83194045  0.83022738  1
" 