8500,Ni37Cr63_0,-225.34287600153, 142.295778427245,Ni37Cr63,"# generated using pymatgen
 data_Cr19Ni35
_symmetry_space_group_name_H-M   'P 1'
_cell_length_a   7.49492549
_cell_length_b   7.49492549
_cell_length_c   10.59942528
_cell_angle_alpha   90.00000000
_cell_angle_beta   90.00000000
_cell_angle_gamma   90.00000000
_symmetry_Int_Tables_number   1
_chemical_formula_structural   Cr19Ni35
_chemical_formula_sum   'Cr19 Ni35'
_cell_volume   595.41114143
_cell_formula_units_Z   1
loop_
 _symmetry_equiv_pos_site_id
 _symmetry_equiv_pos_as_xyz
  1  'x, y, z'
loop_
 _atom_site_type_symbol
 _atom_site_label
 _atom_site_symmetry_multiplicity
 _atom_site_fract_x
 _atom_site_fract_y
 _atom_site_fract_z
 _atom_site_occupancy
  Ni  Ni0  1  0.00067606  -0.00152127  0.99705144  1
  Ni  Ni1  1  0.16413479  0.16413306  0.16570199  1
  Ni  Ni2  1  -0.00126140  0.00064479  0.33233692  1
  Ni  Ni3  1  0.99623170  0.33011272  -0.00145998  1
  Ni  Ni4  1  0.16305306  0.49586540  0.16556312  1
  Ni  Ni5  1  0.00179253  0.32805618  0.33147549  1
  Ni  Ni6  1  0.99743466  0.66580899  0.99721091  1
  Ni  Ni7  1  0.16427959  0.83440964  0.16319539  1
  Cr  Cr8  1  -0.00080248  0.66550658  0.33235991  1
  Ni  Ni9  1  0.32762963  -0.00025687  -0.00169945  1
  Ni  Ni10  1  0.49654519  0.16399904  0.16567234  1
  Ni  Ni11  1  0.33090492  0.00080432  0.33182764  1
  Cr  Cr12  1  0.33276513  0.32846692  -0.00138955  1
  Cr  Cr13  1  0.49891520  0.49737925  0.16454742  1
  Ni  Ni14  1  0.32804626  0.32805999  0.33154836  1
  Cr  Cr15  1  0.32956479  0.66629541  -0.00164530  1
  Cr  Cr16  1  0.49775130  0.83368542  0.16620762  1
  Cr  Cr17  1  0.33015890  0.66497799  0.33234344  1
  Cr  Cr18  1  0.66540194  0.00126522  0.99771449  1
  Ni  Ni19  1  0.83373119  0.16521640  0.16496397  1
  Ni  Ni20  1  0.66477263  -0.00152350  0.33385782  1
  Ni  Ni21  1  0.66667579  0.33160300  0.99578011  1
  Cr  Cr22  1  0.83276205  0.49689157  0.16283295  1
  Cr  Cr23  1  0.66456963  0.32775177  0.33053821  1
  Ni  Ni24  1  0.66789891  0.66192522  0.99547037  1
  Cr  Cr25  1  0.83229060  0.83257629  0.16505227  1
  Ni  Ni26  1  0.66476441  0.66854119  0.33323062  1
  Ni  Ni27  1  0.16467591  0.16476491  0.49429242  1
  Cr  Cr28  1  0.99613082  0.99770516  0.66506123  1
  Ni  Ni29  1  0.16374814  0.16213936  0.83445115  1
  Ni  Ni30  1  0.16577083  0.49713936  0.49680335  1
  Cr  Cr31  1  0.99657356  0.32984762  0.66406072  1
  Cr  Cr32  1  0.16393502  0.49846522  0.83138467  1
  Ni  Ni33  1  0.16594984  0.83249215  0.49757155  1
  Cr  Cr34  1  -0.00119095  0.66686849  0.66454305  1
  Ni  Ni35  1  0.16314968  0.83335376  0.83366843  1
  Ni  Ni36  1  0.49868013  0.16179513  0.49722806  1
  Cr  Cr37  1  0.33200295  0.99758167  0.66491928  1
  Ni  Ni38  1  0.49996744  0.16669088  0.83154382  1
  Cr  Cr39  1  0.49736660  0.49937025  0.49967882  1
  Cr  Cr40  1  0.33319011  0.33156846  0.66455061  1
  Ni  Ni41  1  0.50305572  0.49744873  0.83043826  1
  Ni  Ni42  1  0.49987625  0.83302555  0.49791896  1
  Ni  Ni43  1  0.33263716  0.66533709  0.66370045  1
  Cr  Cr44  1  0.49826888  0.83065652  0.83042249  1
  Ni  Ni45  1  0.83105937  0.16193330  0.49725779  1
  Ni  Ni46  1  0.66541181  -0.00100055  0.66314096  1
  Ni  Ni47  1  0.83069902  0.16608108  0.83218483  1
  Cr  Cr48  1  0.83164833  0.49779750  0.49811244  1
  Ni  Ni49  1  0.66421730  0.32993368  0.66752734  1
  Ni  Ni50  1  0.82763551  0.49802508  0.83367818  1
  Ni  Ni51  1  0.82859302  0.83407766  0.49722100  1
  Ni  Ni52  1  0.66369709  0.66549114  0.66574284  1
  Ni  Ni53  1  0.83213520  0.83030774  0.83218046  1
" 