3594,Ni37Cr63_10,-225.352621607559, 142.847539040957,Ni37Cr63,"# generated using pymatgen
 data_Cr19Ni35
_symmetry_space_group_name_H-M   'P 1'
_cell_length_a   7.49352085
_cell_length_b   7.49352085
_cell_length_c   10.59743881
_cell_angle_alpha   90.00000000
_cell_angle_beta   90.00000000
_cell_angle_gamma   90.00000000
_symmetry_Int_Tables_number   1
_chemical_formula_structural   Cr19Ni35
_chemical_formula_sum   'Cr19 Ni35'
_cell_volume   595.07644179
_cell_formula_units_Z   1
loop_
 _symmetry_equiv_pos_site_id
 _symmetry_equiv_pos_as_xyz
  1  'x, y, z'
loop_
 _atom_site_type_symbol
 _atom_site_label
 _atom_site_symmetry_multiplicity
 _atom_site_fract_x
 _atom_site_fract_y
 _atom_site_fract_z
 _atom_site_occupancy
  Cr  Cr0  1  -0.00061358  0.99801863  0.99668017  1
  Ni  Ni1  1  0.16807656  0.16578386  0.16620280  1
  Ni  Ni2  1  -0.00046515  -0.00009664  0.33028276  1
  Cr  Cr3  1  -0.00046096  0.33427414  -0.00042382  1
  Ni  Ni4  1  0.16638558  0.49739566  0.16393691  1
  Cr  Cr5  1  -0.00087881  0.33312609  0.32957015  1
  Ni  Ni6  1  -0.00136408  0.66235586  0.99613880  1
  Cr  Cr7  1  0.16789785  0.83147302  0.16483828  1
  Cr  Cr8  1  0.00038260  0.66183818  0.33239778  1
  Ni  Ni9  1  0.33277740  0.99670055  0.99764756  1
  Cr  Cr10  1  0.49489663  0.16471203  0.16636887  1
  Ni  Ni11  1  0.33422138  0.99820406  0.33115257  1
  Ni  Ni12  1  0.32998111  0.33280000  0.99729081  1
  Cr  Cr13  1  0.49689166  0.49973506  0.16375173  1
  Ni  Ni14  1  0.33208088  0.33213679  0.33250950  1
  Ni  Ni15  1  0.33161147  0.66527982  0.99704696  1
  Ni  Ni16  1  0.49601513  0.83133388  0.16510725  1
  Ni  Ni17  1  0.33277520  0.66441154  0.33224659  1
  Cr  Cr18  1  0.66143222  0.99544110  0.99561751  1
  Cr  Cr19  1  0.83148841  0.16517790  0.16854782  1
  Ni  Ni20  1  0.66096869  -0.00082332  0.33247896  1
  Cr  Cr21  1  0.66533251  0.33297035  0.99525647  1
  Ni  Ni22  1  0.83230999  0.49947823  0.16392137  1
  Ni  Ni23  1  0.66324362  0.33127582  0.33385210  1
  Ni  Ni24  1  0.66446891  0.66518718  0.99656938  1
  Cr  Cr25  1  0.82974734  0.82959977  0.16517757  1
  Cr  Cr26  1  0.66142674  0.66461255  0.33245295  1
  Cr  Cr27  1  0.16850917  0.16396814  0.49815772  1
  Ni  Ni28  1  0.99690895  0.99557945  0.66809499  1
  Cr  Cr29  1  0.16848117  0.16401177  0.83069116  1
  Ni  Ni30  1  0.16764521  0.49825738  0.49777359  1
  Cr  Cr31  1  0.99789910  0.33490025  0.66572625  1
  Ni  Ni32  1  0.16612670  0.50135775  0.83299806  1
  Cr  Cr33  1  0.16518413  0.83213309  0.49896683  1
  Ni  Ni34  1  0.99644523  0.66450334  0.66706592  1
  Ni  Ni35  1  0.16436990  0.82970456  0.83154849  1
  Ni  Ni36  1  0.49820105  0.16578330  0.49826569  1
  Ni  Ni37  1  0.33523344  -0.00121954  0.66596227  1
  Ni  Ni38  1  0.49803891  0.16544161  0.82930716  1
  Ni  Ni39  1  0.49830876  0.49576306  0.49796463  1
  Ni  Ni40  1  0.33549428  0.33161303  0.66474349  1
  Ni  Ni41  1  0.49848424  0.49800501  0.83171338  1
  Ni  Ni42  1  0.49830602  0.83321732  0.49711341  1
  Cr  Cr43  1  0.33277381  0.66443731  0.66417586  1
  Ni  Ni44  1  0.49845584  0.83121696  0.83236932  1
  Cr  Cr45  1  0.82805276  0.16397638  0.49817440  1
  Ni  Ni46  1  0.66253889  0.99819139  0.66665138  1
  Ni  Ni47  1  0.82857080  0.16363910  0.82827250  1
  Ni  Ni48  1  0.82881728  0.49834289  0.49987731  1
  Ni  Ni49  1  0.66244150  0.33213294  0.66549502  1
  Ni  Ni50  1  0.83007404  0.50176004  0.83099231  1
  Cr  Cr51  1  0.83115339  0.83193357  0.50039402  1
  Ni  Ni52  1  0.66568465  0.66436844  0.66590519  1
  Ni  Ni53  1  0.83178542  0.82919328  0.82959380  1
" 