4189,Ni37Fe49Cr12_11,-233.619191656987, 205.708826983144,Ni37Fe49Cr12,"# generated using pymatgen
 data_Cr4Fe13Ni10
_symmetry_space_group_name_H-M   'P 1'
_cell_length_a   7.42380500
_cell_length_b   7.42380500
_cell_length_c   10.49884571
_cell_angle_alpha   90.00000000
_cell_angle_beta   90.00000000
_cell_angle_gamma   90.00000000
_symmetry_Int_Tables_number   1
_chemical_formula_structural   Cr4Fe13Ni10
_chemical_formula_sum   'Cr8 Fe26 Ni20'
_cell_volume   578.62163067
_cell_formula_units_Z   2
loop_
 _symmetry_equiv_pos_site_id
 _symmetry_equiv_pos_as_xyz
  1  'x, y, z'
loop_
 _atom_site_type_symbol
 _atom_site_label
 _atom_site_symmetry_multiplicity
 _atom_site_fract_x
 _atom_site_fract_y
 _atom_site_fract_z
 _atom_site_occupancy
  Ni  Ni0  1  1.00266851  0.00341593  1.00066097  1
  Fe  Fe1  1  0.16884750  0.16695603  0.16892513  1
  Ni  Ni2  1  1.00280510  1.00271412  0.33917034  1
  Fe  Fe3  1  0.00428153  0.33526092  0.99920316  1
  Cr  Cr4  1  0.17150637  0.50472208  0.16899555  1
  Cr  Cr5  1  1.00262877  0.33431268  0.33940937  1
  Fe  Fe6  1  0.00472902  0.67093322  0.99931710  1
  Cr  Cr7  1  0.16863752  0.83618736  0.17001114  1
  Fe  Fe8  1  1.00276525  0.67240951  0.33920622  1
  Ni  Ni9  1  0.33488474  0.00362427  1.00272687  1
  Fe  Fe10  1  0.50176698  0.16765157  0.16775261  1
  Ni  Ni11  1  0.33608296  1.00245864  0.33698217  1
  Ni  Ni12  1  0.33690389  0.33521989  1.00268931  1
  Fe  Fe13  1  0.50394077  0.50426150  0.16945468  1
  Cr  Cr14  1  0.33551461  0.33419444  0.33612436  1
  Ni  Ni15  1  0.33850607  0.66988322  1.00134707  1
  Fe  Fe16  1  0.50362447  0.83704934  0.16997696  1
  Ni  Ni17  1  0.33982228  0.67154223  0.33772384  1
  Fe  Fe18  1  0.66726466  0.00382457  1.00023951  1
  Cr  Cr19  1  0.83492132  0.16646748  0.16959436  1
  Fe  Fe20  1  0.66830924  1.00090900  0.33838423  1
  Ni  Ni21  1  0.66831838  0.33659130  1.00180164  1
  Cr  Cr22  1  0.83711202  0.50426796  0.16935719  1
  Fe  Fe23  1  0.66822817  0.33544526  0.33753402  1
  Cr  Cr24  1  0.67000282  0.67067926  0.99981062  1
  Ni  Ni25  1  0.83588730  0.83839194  0.16899607  1
  Ni  Ni26  1  0.66994844  0.67136108  0.33636471  1
  Ni  Ni27  1  0.17086634  0.16693609  0.50538966  1
  Fe  Fe28  1  1.00011572  1.00273635  0.66929424  1
  Fe  Fe29  1  0.16886353  0.17015514  0.83536822  1
  Fe  Fe30  1  0.16824973  0.50465365  0.50528100  1
  Ni  Ni31  1  0.00357994  0.33571789  0.66966491  1
  Ni  Ni32  1  0.17178919  0.50376029  0.83534490  1
  Fe  Fe33  1  0.16945416  0.83559781  0.50283752  1
  Ni  Ni34  1  1.00216623  0.66964284  0.66889465  1
  Fe  Fe35  1  0.16917527  0.83670252  0.83671291  1
  Fe  Fe36  1  0.50459998  0.16690511  0.50450544  1
  Fe  Fe37  1  0.33644197  0.00297060  0.66940068  1
  Fe  Fe38  1  0.50284721  0.17052719  0.83605701  1
  Cr  Cr39  1  0.50345348  0.50365828  0.50484440  1
  Fe  Fe40  1  0.33564224  0.33560230  0.67070442  1
  Fe  Fe41  1  0.50262285  0.50032496  0.83481758  1
  Fe  Fe42  1  0.50408777  0.83765860  0.50366968  1
  Fe  Fe43  1  0.33602046  0.67005773  0.67130626  1
  Fe  Fe44  1  0.50087219  0.83792913  0.83483824  1
  Fe  Fe45  1  0.83544249  0.16881857  0.50581779  1
  Ni  Ni46  1  0.66881615  1.00159202  0.67002657  1
  Ni  Ni47  1  0.83446833  0.16876195  0.83522848  1
  Ni  Ni48  1  0.83457076  0.50455872  0.50408602  1
  Ni  Ni49  1  0.67112585  0.33579835  0.66930181  1
  Fe  Fe50  1  0.83768849  0.50038706  0.83364458  1
  Ni  Ni51  1  0.83543972  0.83668398  0.50307954  1
  Ni  Ni52  1  0.67049999  0.67090158  0.67106266  1
  Fe  Fe53  1  0.83846246  0.83749766  0.83433278  1
" 