2167,Ni37Cr63_5,-225.197745540503, 138.098212083651,Ni37Cr63,"# generated using pymatgen
 data_Cr19Ni35
_symmetry_space_group_name_H-M   'P 1'
_cell_length_a   7.49312396
_cell_length_b   7.49312396
_cell_length_c   10.59687753
_cell_angle_alpha   90.00000000
_cell_angle_beta   90.00000000
_cell_angle_gamma   90.00000000
_symmetry_Int_Tables_number   1
_chemical_formula_structural   Cr19Ni35
_chemical_formula_sum   'Cr19 Ni35'
_cell_volume   594.98189416
_cell_formula_units_Z   1
loop_
 _symmetry_equiv_pos_site_id
 _symmetry_equiv_pos_as_xyz
  1  'x, y, z'
loop_
 _atom_site_type_symbol
 _atom_site_label
 _atom_site_symmetry_multiplicity
 _atom_site_fract_x
 _atom_site_fract_y
 _atom_site_fract_z
 _atom_site_occupancy
  Ni  Ni0  1  -0.00084082  -0.00063880  -0.00071667  1
  Ni  Ni1  1  0.16249868  0.16266115  0.16487600  1
  Ni  Ni2  1  -0.00067432  0.99539860  0.32816074  1
  Ni  Ni3  1  -0.00063967  0.32868827  -0.00088800  1
  Cr  Cr4  1  0.16694050  0.49912203  0.16467387  1
  Cr  Cr5  1  0.99809793  0.33287107  0.33064074  1
  Cr  Cr6  1  -0.00063027  0.66624228  0.99824279  1
  Ni  Ni7  1  0.16271740  0.83371756  0.16654530  1
  Ni  Ni8  1  0.99620730  0.66697309  0.33199791  1
  Cr  Cr9  1  0.32765291  -0.00052976  0.99737813  1
  Cr  Cr10  1  0.49778844  0.16894629  0.16579287  1
  Ni  Ni11  1  0.32909545  0.99729924  0.33059939  1
  Ni  Ni12  1  0.33166026  0.33308542  0.99600098  1
  Ni  Ni13  1  0.49960020  0.49725052  0.16547799  1
  Ni  Ni14  1  0.33340180  0.33313977  0.33174046  1
  Ni  Ni15  1  0.33086735  0.66189515  0.99696162  1
  Cr  Cr16  1  0.49554287  0.82775286  0.16704606  1
  Ni  Ni17  1  0.33292694  0.66430156  0.33249212  1
  Cr  Cr18  1  0.66788253  -0.00094343  0.99723389  1
  Ni  Ni19  1  0.83435921  0.16576825  0.16357232  1
  Cr  Cr20  1  0.66612904  0.99624220  0.33235289  1
  Ni  Ni21  1  0.66373309  0.33250048  -0.00064065  1
  Ni  Ni22  1  0.82874611  0.49695886  0.16613457  1
  Ni  Ni23  1  0.66373600  0.33628967  0.33042032  1
  Cr  Cr24  1  0.66463210  0.66287102  -0.00052733  1
  Ni  Ni25  1  0.83551899  0.83205129  0.16668471  1
  Ni  Ni26  1  0.66563651  0.66267265  0.33245823  1
  Cr  Cr27  1  0.16467393  0.16623331  0.49773805  1
  Ni  Ni28  1  0.99809660  0.99649513  0.66729102  1
  Ni  Ni29  1  0.16491883  0.16632775  0.83181937  1
  Ni  Ni30  1  0.16594549  0.49975963  0.50000232  1
  Ni  Ni31  1  0.00047310  0.33358811  0.66498768  1
  Ni  Ni32  1  0.16816576  0.49767785  0.83008837  1
  Cr  Cr33  1  0.16451250  0.82914310  0.49687697  1
  Ni  Ni34  1  -0.00024726  0.66470269  0.66479328  1
  Ni  Ni35  1  0.16261429  0.83075617  0.83105184  1
  Cr  Cr36  1  0.49777675  0.16702604  0.49760417  1
  Cr  Cr37  1  0.33093102  -0.00100075  0.66650315  1
  Ni  Ni38  1  0.49653158  0.17032335  0.83133071  1
  Ni  Ni39  1  0.49770891  0.49935735  0.49718472  1
  Ni  Ni40  1  0.33115151  0.33496825  0.66700868  1
  Ni  Ni41  1  0.49420670  0.49457147  0.83211837  1
  Ni  Ni42  1  0.49828693  0.82755387  0.49625556  1
  Ni  Ni43  1  0.32960118  0.66104912  0.66533118  1
  Cr  Cr44  1  0.49640619  0.82947829  0.83183706  1
  Cr  Cr45  1  0.83237035  0.16610213  0.49995656  1
  Cr  Cr46  1  0.66564820  0.99742209  0.66523213  1
  Cr  Cr47  1  0.83264148  0.16534234  0.83129209  1
  Ni  Ni48  1  0.83112037  0.50018315  0.49804364  1
  Ni  Ni49  1  0.66312571  0.33337283  0.66503201  1
  Cr  Cr50  1  0.83255434  0.49691095  0.83093104  1
  Ni  Ni51  1  0.83238217  0.82869011  0.49768922  1
  Cr  Cr52  1  0.66535932  0.66423483  0.66291147  1
  Ni  Ni53  1  0.83649654  0.83318255  0.83041707  1
" 