1917,Ni37Fe49Cr12_14,-234.021411377592, 204.92235088349,Ni37Fe49Cr12,"# generated using pymatgen
 data_Cr4Fe13Ni10
_symmetry_space_group_name_H-M   'P 1'
_cell_length_a   7.42839735
_cell_length_b   7.42839735
_cell_length_c   10.50534028
_cell_angle_alpha   90.00000000
_cell_angle_beta   90.00000000
_cell_angle_gamma   90.00000000
_symmetry_Int_Tables_number   1
_chemical_formula_structural   Cr4Fe13Ni10
_chemical_formula_sum   'Cr8 Fe26 Ni20'
_cell_volume   579.69609871
_cell_formula_units_Z   2
loop_
 _symmetry_equiv_pos_site_id
 _symmetry_equiv_pos_as_xyz
  1  'x, y, z'
loop_
 _atom_site_type_symbol
 _atom_site_label
 _atom_site_symmetry_multiplicity
 _atom_site_fract_x
 _atom_site_fract_y
 _atom_site_fract_z
 _atom_site_occupancy
  Ni  Ni0  1  0.00391196  1.00161919  0.00325035  1
  Fe  Fe1  1  0.16938665  0.16808104  0.17015956  1
  Fe  Fe2  1  0.00412024  1.00158247  0.33523507  1
  Cr  Cr3  1  1.00169686  0.33525797  0.00314371  1
  Fe  Fe4  1  0.16721489  0.50334305  0.16960126  1
  Ni  Ni5  1  0.00389556  0.33720518  0.33548678  1
  Fe  Fe6  1  1.00166138  0.67116964  0.00336911  1
  Fe  Fe7  1  0.16832268  0.83638367  0.16912945  1
  Ni  Ni8  1  1.00165440  0.66795223  0.33607054  1
  Fe  Fe9  1  0.33547731  1.00172869  0.00347094  1
  Fe  Fe10  1  0.50250425  0.16677067  0.16910571  1
  Ni  Ni11  1  0.33646429  0.00329349  0.33663753  1
  Fe  Fe12  1  0.33646741  0.33647114  1.00214819  1
  Cr  Cr13  1  0.50220497  0.50230833  0.16750381  1
  Fe  Fe14  1  0.33226901  0.33255618  0.33634682  1
  Ni  Ni15  1  0.33709107  0.67089384  1.00108862  1
  Fe  Fe16  1  0.50349606  0.83776801  0.16795774  1
  Cr  Cr17  1  0.33470947  0.67217772  0.33701059  1
  Fe  Fe18  1  0.66974511  1.00024011  0.00349543  1
  Fe  Fe19  1  0.83591677  0.16787579  0.16888990  1
  Fe  Fe20  1  0.66863065  1.00039551  0.33559431  1
  Ni  Ni21  1  0.66890538  0.33740069  1.00209253  1
  Fe  Fe22  1  0.83729643  0.50433602  0.16999550  1
  Cr  Cr23  1  0.67161427  0.33522250  0.33611468  1
  Ni  Ni24  1  0.66767828  0.66942157  1.00212261  1
  Ni  Ni25  1  0.83693798  0.83620652  0.16997994  1
  Fe  Fe26  1  0.67310767  0.67198660  0.33589837  1
  Ni  Ni27  1  0.17080771  0.16818894  0.50187993  1
  Ni  Ni28  1  0.00429960  0.00303992  0.66893035  1
  Ni  Ni29  1  0.16919614  0.16846083  0.83517788  1
  Fe  Fe30  1  0.16626163  0.50101504  0.50283731  1
  Ni  Ni31  1  0.00427218  0.33629534  0.66873969  1
  Fe  Fe32  1  0.17064971  0.50332039  0.83536421  1
  Ni  Ni33  1  0.16787552  0.83749463  0.50304829  1
  Fe  Fe34  1  1.00129346  0.66992899  0.66832095  1
  Fe  Fe35  1  0.16958206  0.83655140  0.83584998  1
  Ni  Ni36  1  0.49963916  0.16803598  0.50273031  1
  Fe  Fe37  1  0.33502673  1.00227373  0.66761127  1
  Cr  Cr38  1  0.50150447  0.17076466  0.83615036  1
  Cr  Cr39  1  0.50333169  0.50200210  0.50401719  1
  Fe  Fe40  1  0.33453726  0.33492592  0.66930586  1
  Ni  Ni41  1  0.50236932  0.50463153  0.83662920  1
  Fe  Fe42  1  0.50313742  0.83894864  0.50390654  1
  Fe  Fe43  1  0.33556949  0.67060461  0.67061191  1
  Ni  Ni44  1  0.50316715  0.83235377  0.83657917  1
  Cr  Cr45  1  0.83741597  0.16832669  0.50384306  1
  Ni  Ni46  1  0.66809034  0.99980882  0.66826580  1
  Cr  Cr47  1  0.83742774  0.16719190  0.83499010  1
  Ni  Ni48  1  0.83737137  0.50518700  0.50255260  1
  Fe  Fe49  1  0.66993963  0.33714989  0.66922580  1
  Fe  Fe50  1  0.83401110  0.50482724  0.83470339  1
  Fe  Fe51  1  0.83615578  0.83477060  0.50304902  1
  Ni  Ni52  1  0.66867838  0.67027683  0.66944117  1
  Ni  Ni53  1  0.83649010  0.83445889  0.83582171  1
" 