4727,Ni37Fe39Cr22_6,-230.290581755404, 189.881434733151,Ni37Fe39Cr22,"# generated using pymatgen
 data_Cr13Fe21Ni20
_symmetry_space_group_name_H-M   'P 1'
_cell_length_a   7.44670991
_cell_length_b   7.44670991
_cell_length_c   10.53123815
_cell_angle_alpha   90.00000000
_cell_angle_beta   90.00000000
_cell_angle_gamma   90.00000000
_symmetry_Int_Tables_number   1
_chemical_formula_structural   Cr13Fe21Ni20
_chemical_formula_sum   'Cr13 Fe21 Ni20'
_cell_volume   583.99389427
_cell_formula_units_Z   1
loop_
 _symmetry_equiv_pos_site_id
 _symmetry_equiv_pos_as_xyz
  1  'x, y, z'
loop_
 _atom_site_type_symbol
 _atom_site_label
 _atom_site_symmetry_multiplicity
 _atom_site_fract_x
 _atom_site_fract_y
 _atom_site_fract_z
 _atom_site_occupancy
  Fe  Fe0  1  1.00096870  1.00028470  1.00113959  1
  Cr  Cr1  1  0.16863746  0.16891416  0.16755366  1
  Fe  Fe2  1  0.99878156  1.00094068  0.33625457  1
  Fe  Fe3  1  0.00284235  0.33633069  1.00100042  1
  Fe  Fe4  1  0.16618601  0.50221007  0.16848868  1
  Fe  Fe5  1  1.00015873  0.33587987  0.33572802  1
  Ni  Ni6  1  0.00289865  0.66854337  0.00340022  1
  Cr  Cr7  1  0.16930797  0.83714561  0.16953543  1
  Fe  Fe8  1  0.99909739  0.66739629  0.33454374  1
  Fe  Fe9  1  0.33707577  0.00202407  0.99925940  1
  Fe  Fe10  1  0.50225471  0.16546020  0.16926040  1
  Fe  Fe11  1  0.33728259  0.00165802  0.33619434  1
  Ni  Ni12  1  0.33234614  0.33183557  1.00132012  1
  Cr  Cr13  1  0.50049082  0.50208351  0.17099047  1
  Fe  Fe14  1  0.33562233  0.33537793  0.33666693  1
  Cr  Cr15  1  0.33241199  0.66792850  0.99886033  1
  Ni  Ni16  1  0.50145053  0.83665787  0.16873536  1
  Ni  Ni17  1  0.33251534  0.66837489  0.33630103  1
  Ni  Ni18  1  0.66719193  0.00219264  0.00404129  1
  Fe  Fe19  1  0.83388649  0.16625372  0.17016375  1
  Fe  Fe20  1  0.66861603  1.00091984  0.33454814  1
  Cr  Cr21  1  0.66628398  0.33119144  0.00231329  1
  Ni  Ni22  1  0.83621159  0.50036304  0.16888928  1
  Ni  Ni23  1  0.66897113  0.33177810  0.33487620  1
  Cr  Cr24  1  0.66967140  0.67094359  0.00232822  1
  Ni  Ni25  1  0.83422725  0.83502147  0.16981722  1
  Ni  Ni26  1  0.66873455  0.66861592  0.33331951  1
  Fe  Fe27  1  0.16746769  0.16712990  0.50222579  1
  Fe  Fe28  1  0.00250157  0.00375054  0.66590578  1
  Ni  Ni29  1  0.16980646  0.16773108  0.83416308  1
  Fe  Fe30  1  0.16910551  0.50032423  0.50149560  1
  Ni  Ni31  1  0.00450011  0.33337632  0.66807834  1
  Ni  Ni32  1  0.16947065  0.49885568  0.83551839  1
  Fe  Fe33  1  0.16677005  0.83669832  0.50068469  1
  Cr  Cr34  1  0.00403909  0.66928459  0.66750588  1
  Ni  Ni35  1  0.16949708  0.83768042  0.83366730  1
  Fe  Fe36  1  0.50332481  0.16861994  0.50211414  1
  Ni  Ni37  1  0.33366825  0.00274297  0.66879344  1
  Fe  Fe38  1  0.49928280  0.16631930  0.83359568  1
  Fe  Fe39  1  0.50155890  0.49968002  0.50083178  1
  Ni  Ni40  1  0.33294346  0.33244984  0.66599433  1
  Cr  Cr41  1  0.50127571  0.50046005  0.82954002  1
  Cr  Cr42  1  0.50150885  0.83242927  0.50218262  1
  Fe  Fe43  1  0.33438650  0.66761368  0.66771924  1
  Fe  Fe44  1  0.50023366  0.83836980  0.83321501  1
  Ni  Ni45  1  0.83592522  0.16743819  0.50157736  1
  Ni  Ni46  1  0.66659598  0.00271246  0.66646044  1
  Cr  Cr47  1  0.83671794  0.16768693  0.83295273  1
  Cr  Cr48  1  0.83105225  0.50068935  0.50348824  1
  Ni  Ni49  1  0.66676593  0.33113870  0.66609387  1
  Cr  Cr50  1  0.83519509  0.50001606  0.83333502  1
  Ni  Ni51  1  0.83408169  0.83705792  0.50058746  1
  Ni  Ni52  1  0.66766949  0.67041147  0.66714538  1
  Cr  Cr53  1  0.83427154  0.83674688  0.83333845  1
" 