2315,Ni37Cr63_7,-225.33759714652, 140.315960839499,Ni37Cr63,"# generated using pymatgen
 data_Cr19Ni35
_symmetry_space_group_name_H-M   'P 1'
_cell_length_a   7.49484111
_cell_length_b   7.49484111
_cell_length_c   10.59930594
_cell_angle_alpha   90.00000000
_cell_angle_beta   90.00000000
_cell_angle_gamma   90.00000000
_symmetry_Int_Tables_number   1
_chemical_formula_structural   Cr19Ni35
_chemical_formula_sum   'Cr19 Ni35'
_cell_volume   595.39103060
_cell_formula_units_Z   1
loop_
 _symmetry_equiv_pos_site_id
 _symmetry_equiv_pos_as_xyz
  1  'x, y, z'
loop_
 _atom_site_type_symbol
 _atom_site_label
 _atom_site_symmetry_multiplicity
 _atom_site_fract_x
 _atom_site_fract_y
 _atom_site_fract_z
 _atom_site_occupancy
  Cr  Cr0  1  0.99770748  0.00120629  0.99735561  1
  Ni  Ni1  1  0.16170116  0.16556977  0.16711964  1
  Ni  Ni2  1  0.99778953  -0.00060350  0.33144153  1
  Ni  Ni3  1  0.99634665  0.32889526  0.99797654  1
  Ni  Ni4  1  0.16200019  0.49635749  0.16665729  1
  Ni  Ni5  1  -0.00128857  0.32982352  0.33217294  1
  Cr  Cr6  1  0.99789126  0.66672050  -0.00159800  1
  Ni  Ni7  1  0.16306761  0.83256459  0.16737141  1
  Ni  Ni8  1  -0.00114850  0.66526190  0.33250835  1
  Cr  Cr9  1  0.32946970  0.99753357  0.99805444  1
  Cr  Cr10  1  0.49977103  0.16436417  0.16860044  1
  Ni  Ni11  1  0.32813425  -0.00063105  0.33034573  1
  Cr  Cr12  1  0.33003677  0.33042598  -0.00122335  1
  Cr  Cr13  1  0.49884522  0.49578850  0.16538068  1
  Ni  Ni14  1  0.32865586  0.33024623  0.33267687  1
  Cr  Cr15  1  0.33251133  0.66604450  -0.00109058  1
  Ni  Ni16  1  0.49803741  0.83384999  0.16650720  1
  Cr  Cr17  1  0.32965793  0.66288766  0.33114817  1
  Cr  Cr18  1  0.66757052  -0.00109634  -0.00095197  1
  Ni  Ni19  1  0.83403677  0.16525511  0.16637215  1
  Ni  Ni20  1  0.66847478  -0.00060558  0.33041377  1
  Ni  Ni21  1  0.66849327  0.33096783  0.99631896  1
  Cr  Cr22  1  0.83490998  0.49597911  0.16467444  1
  Ni  Ni23  1  0.66716994  0.32947463  0.33315753  1
  Cr  Cr24  1  0.66403121  0.66541887  0.99618389  1
  Ni  Ni25  1  0.83336765  0.83363966  0.16781375  1
  Cr  Cr26  1  0.66683140  0.66439878  0.33323423  1
  Ni  Ni27  1  0.16395683  0.16542419  0.49774595  1
  Cr  Cr28  1  0.99737603  0.00115216  0.66492706  1
  Ni  Ni29  1  0.16285503  0.16539755  0.82955569  1
  Ni  Ni30  1  0.16275561  0.49523590  0.49649389  1
  Ni  Ni31  1  0.99688700  0.33014193  0.66432034  1
  Cr  Cr32  1  0.16158556  0.49600248  0.83161182  1
  Ni  Ni33  1  0.16301935  0.83366916  0.49615613  1
  Cr  Cr34  1  0.99551306  0.66437541  0.66248436  1
  Ni  Ni35  1  0.16537226  0.83359153  0.83043356  1
  Cr  Cr36  1  0.49802621  0.16446943  0.49780260  1
  Ni  Ni37  1  0.32969827  -0.00062626  0.66593788  1
  Cr  Cr38  1  0.49863272  0.16529849  0.82842165  1
  Ni  Ni39  1  0.49932544  0.49499905  0.49963150  1
  Ni  Ni40  1  0.33045351  0.33071850  0.66349090  1
  Ni  Ni41  1  0.50140681  0.49770788  0.82947888  1
  Cr  Cr42  1  0.49889445  0.83489775  0.49925280  1
  Cr  Cr43  1  0.33254087  0.66328628  0.66450360  1
  Ni  Ni44  1  0.49921962  0.83125201  0.82901433  1
  Ni  Ni45  1  0.83220366  0.16554075  0.49711742  1
  Ni  Ni46  1  0.66703733  0.99807874  0.66562878  1
  Ni  Ni47  1  0.83205589  0.16778895  0.83091067  1
  Ni  Ni48  1  0.83239808  0.49624892  0.49851468  1
  Ni  Ni49  1  0.66698646  0.33276877  0.66471865  1
  Ni  Ni50  1  0.82956720  0.49560835  0.83070691  1
  Ni  Ni51  1  0.83245262  0.83252979  0.49707010  1
  Ni  Ni52  1  0.66576107  0.66339175  0.66579950  1
  Ni  Ni53  1  0.82982175  0.83118764  0.82952327  1
" 