6690,Ni37Fe53Cr8_3,-236.10669730191, 210.21168770125,Ni37Fe53Cr8,"# generated using pymatgen
 data_Cr5Fe29Ni20
_symmetry_space_group_name_H-M   'P 1'
_cell_length_a   7.41664540
_cell_length_b   7.41664540
_cell_length_c   10.48872051
_cell_angle_alpha   90.00000000
_cell_angle_beta   90.00000000
_cell_angle_gamma   90.00000000
_symmetry_Int_Tables_number   1
_chemical_formula_structural   Cr5Fe29Ni20
_chemical_formula_sum   'Cr5 Fe29 Ni20'
_cell_volume   576.94915666
_cell_formula_units_Z   1
loop_
 _symmetry_equiv_pos_site_id
 _symmetry_equiv_pos_as_xyz
  1  'x, y, z'
loop_
 _atom_site_type_symbol
 _atom_site_label
 _atom_site_symmetry_multiplicity
 _atom_site_fract_x
 _atom_site_fract_y
 _atom_site_fract_z
 _atom_site_occupancy
  Cr  Cr0  1  0.00444071  0.00445147  0.00370869  1
  Ni  Ni1  1  0.17097762  0.17037225  0.17003272  1
  Ni  Ni2  1  1.00300418  1.00338799  0.33782367  1
  Ni  Ni3  1  0.00405679  0.33743574  0.00361683  1
  Fe  Fe4  1  0.17002001  0.50381088  0.16994819  1
  Fe  Fe5  1  0.00489527  0.33600428  0.33610164  1
  Fe  Fe6  1  0.00416456  0.66737135  0.00447111  1
  Ni  Ni7  1  0.16950204  0.83700565  0.17002603  1
  Ni  Ni8  1  0.00451050  0.67154435  0.33515042  1
  Fe  Fe9  1  0.33772757  0.00396016  0.00361135  1
  Fe  Fe10  1  0.50278133  0.16976435  0.16966492  1
  Fe  Fe11  1  0.33520678  1.00283161  0.33644777  1
  Ni  Ni12  1  0.33651202  0.33675771  0.00361435  1
  Ni  Ni13  1  0.50351626  0.50311107  0.16942146  1
  Fe  Fe14  1  0.33581387  0.33734111  0.33655701  1
  Fe  Fe15  1  0.33638045  0.66919135  0.00342371  1
  Fe  Fe16  1  0.50299945  0.83640803  0.16984590  1
  Ni  Ni17  1  0.33663332  0.66917910  0.33715548  1
  Fe  Fe18  1  0.66817097  0.00435518  0.00372495  1
  Fe  Fe19  1  0.83682362  0.17032482  0.17110379  1
  Fe  Fe20  1  0.67116202  1.00241595  0.33737360  1
  Fe  Fe21  1  0.66999523  0.33717092  0.00364076  1
  Fe  Fe22  1  0.83726877  0.50403316  0.16975752  1
  Fe  Fe23  1  0.66948696  0.33668312  0.33626049  1
  Ni  Ni24  1  0.66885496  0.66910569  0.00452109  1
  Ni  Ni25  1  0.83632999  0.83607771  0.17088862  1
  Fe  Fe26  1  0.66982228  0.67109453  0.33590659  1
  Ni  Ni27  1  0.16904894  0.17080198  0.50365306  1
  Ni  Ni28  1  1.00197821  0.00624928  0.66850049  1
  Fe  Fe29  1  0.16967111  0.17191044  0.83708674  1
  Ni  Ni30  1  0.17391963  0.50201328  0.50244435  1
  Fe  Fe31  1  0.00421275  0.33447305  0.67096884  1
  Ni  Ni32  1  0.17174815  0.50193553  0.83782911  1
  Fe  Fe33  1  0.16932001  0.83635759  0.50138700  1
  Cr  Cr34  1  0.00476571  0.67048138  0.66967974  1
  Fe  Fe35  1  0.17220621  0.83565587  0.83742631  1
  Fe  Fe36  1  0.50455884  0.17117613  0.50298020  1
  Cr  Cr37  1  0.33579639  1.00309755  0.66960403  1
  Fe  Fe38  1  0.50382065  0.17084795  0.83754683  1
  Ni  Ni39  1  0.50101250  0.50400304  0.50501800  1
  Fe  Fe40  1  0.33662966  0.33865753  0.67011164  1
  Fe  Fe41  1  0.50316579  0.50405073  0.83672580  1
  Fe  Fe42  1  0.50424852  0.83546713  0.50339988  1
  Ni  Ni43  1  0.33884186  0.66781309  0.67015756  1
  Fe  Fe44  1  0.50270809  0.83529207  0.83694628  1
  Ni  Ni45  1  0.83754934  0.16650921  0.50450311  1
  Ni  Ni46  1  0.67165273  0.00442134  0.66909025  1
  Fe  Fe47  1  0.83670461  0.17236792  0.83531126  1
  Cr  Cr48  1  0.83571260  0.50445274  0.50348768  1
  Fe  Fe49  1  0.66935309  0.33594093  0.67029767  1
  Fe  Fe50  1  0.83633846  0.50151826  0.83769318  1
  Ni  Ni51  1  0.83555681  0.83995895  0.50312971  1
  Ni  Ni52  1  0.66679135  0.66967694  0.66895131  1
  Cr  Cr53  1  0.83511769  0.83716784  0.83575855  1
" 