504,Ni37Fe39Cr22_16,-230.80394960271, 194.77864120221,Ni37Fe39Cr22,"# generated using pymatgen
 data_Cr13Fe21Ni20
_symmetry_space_group_name_H-M   'P 1'
_cell_length_a   7.44891178
_cell_length_b   7.44891178
_cell_length_c   10.53435206
_cell_angle_alpha   90.00000000
_cell_angle_beta   90.00000000
_cell_angle_gamma   90.00000000
_symmetry_Int_Tables_number   1
_chemical_formula_structural   Cr13Fe21Ni20
_chemical_formula_sum   'Cr13 Fe21 Ni20'
_cell_volume   584.51207816
_cell_formula_units_Z   1
loop_
 _symmetry_equiv_pos_site_id
 _symmetry_equiv_pos_as_xyz
  1  'x, y, z'
loop_
 _atom_site_type_symbol
 _atom_site_label
 _atom_site_symmetry_multiplicity
 _atom_site_fract_x
 _atom_site_fract_y
 _atom_site_fract_z
 _atom_site_occupancy
  Ni  Ni0  1  0.00145077  0.99952225  0.99815453  1
  Cr  Cr1  1  0.17063506  0.16742453  0.16647386  1
  Cr  Cr2  1  0.00205210  0.00134043  0.33659271  1
  Cr  Cr3  1  0.99777568  0.33373573  1.00043410  1
  Cr  Cr4  1  0.16836204  0.50108130  0.16855208  1
  Ni  Ni5  1  1.00076615  0.33427282  0.33772538  1
  Fe  Fe6  1  0.00211300  0.66956071  1.00002279  1
  Fe  Fe7  1  0.17016777  0.83435605  0.16629203  1
  Fe  Fe8  1  0.00153900  0.66626135  0.33597008  1
  Ni  Ni9  1  0.33551151  0.99999263  1.00058685  1
  Ni  Ni10  1  0.50012743  0.16714123  0.16711194  1
  Fe  Fe11  1  0.33688939  0.00338031  0.33520696  1
  Ni  Ni12  1  0.33844444  0.33490370  1.00009924  1
  Ni  Ni13  1  0.50058271  0.50025088  0.16714610  1
  Ni  Ni14  1  0.33659934  0.33481858  0.33605843  1
  Ni  Ni15  1  0.33625308  0.66881843  0.00184296  1
  Fe  Fe16  1  0.49948268  0.83545016  0.16758899  1
  Fe  Fe17  1  0.33507000  0.66794193  0.33475957  1
  Ni  Ni18  1  0.66684867  0.00175291  0.99998314  1
  Cr  Cr19  1  0.83231998  0.16795822  0.16753802  1
  Fe  Fe20  1  0.66515180  0.00356985  0.33548352  1
  Fe  Fe21  1  0.66436692  0.33325508  1.00093768  1
  Ni  Ni22  1  0.83343877  0.50213441  0.16926581  1
  Ni  Ni23  1  0.66645906  0.33486318  0.33182635  1
  Cr  Cr24  1  0.66561352  0.66463960  0.99977014  1
  Cr  Cr25  1  0.83431587  0.83464377  0.16691063  1
  Fe  Fe26  1  0.66669948  0.66737173  0.33368469  1
  Ni  Ni27  1  0.16947714  0.16955604  0.50241673  1
  Cr  Cr28  1  0.00162601  0.00215579  0.66820725  1
  Fe  Fe29  1  0.17090746  0.16639352  0.83517767  1
  Ni  Ni30  1  0.16849398  0.49809861  0.50025845  1
  Fe  Fe31  1  1.00053290  0.33375538  0.66722215  1
  Cr  Cr32  1  0.16945136  0.49953149  0.83502857  1
  Fe  Fe33  1  0.16921791  0.83419253  0.49989591  1
  Cr  Cr34  1  1.00095768  0.66920819  0.66749784  1
  Fe  Fe35  1  0.17011500  0.83472758  0.83703114  1
  Fe  Fe36  1  0.50279508  0.16804597  0.50038434  1
  Fe  Fe37  1  0.33702793  0.00289093  0.66800550  1
  Fe  Fe38  1  0.50143041  0.16868077  0.83592005  1
  Cr  Cr39  1  0.50100385  0.50183158  0.50235698  1
  Fe  Fe40  1  0.33466433  0.33182278  0.66794762  1
  Ni  Ni41  1  0.50174456  0.50128043  0.83455012  1
  Ni  Ni42  1  0.50274394  0.83738228  0.50011553  1
  Cr  Cr43  1  0.33650595  0.66906609  0.66766302  1
  Ni  Ni44  1  0.50149362  0.83691254  0.83492278  1
  Ni  Ni45  1  0.83378936  0.16700333  0.50159842  1
  Fe  Fe46  1  0.66599573  1.00099857  0.66791190  1
  Fe  Fe47  1  0.83137542  0.16796544  0.83421220  1
  Cr  Cr48  1  0.83406533  0.50053929  0.50069456  1
  Ni  Ni49  1  0.66723432  0.33315448  0.67001819  1
  Ni  Ni50  1  0.83307097  0.50034479  0.83390361  1
  Ni  Ni51  1  0.83044545  0.83606200  0.50161930  1
  Fe  Fe52  1  0.66787357  0.66923209  0.66983114  1
  Fe  Fe53  1  0.83266130  0.83446250  0.83532721  1
" 