8249,Ni37Fe53Cr8_11,-235.59187289787, 208.929753145067,Ni37Fe53Cr8,"# generated using pymatgen
 data_Cr5Fe29Ni20
_symmetry_space_group_name_H-M   'P 1'
_cell_length_a   7.41405312
_cell_length_b   7.41405312
_cell_length_c   10.48505447
_cell_angle_alpha   90.00000000
_cell_angle_beta   90.00000000
_cell_angle_gamma   90.00000000
_symmetry_Int_Tables_number   1
_chemical_formula_structural   Cr5Fe29Ni20
_chemical_formula_sum   'Cr5 Fe29 Ni20'
_cell_volume   576.34439908
_cell_formula_units_Z   1
loop_
 _symmetry_equiv_pos_site_id
 _symmetry_equiv_pos_as_xyz
  1  'x, y, z'
loop_
 _atom_site_type_symbol
 _atom_site_label
 _atom_site_symmetry_multiplicity
 _atom_site_fract_x
 _atom_site_fract_y
 _atom_site_fract_z
 _atom_site_occupancy
  Cr  Cr0  1  0.00557240  0.00518074  1.00350693  1
  Ni  Ni1  1  0.16907466  0.17242324  0.17309654  1
  Fe  Fe2  1  0.00568215  0.00375212  0.33559292  1
  Ni  Ni3  1  1.00124459  0.33678268  0.00465351  1
  Ni  Ni4  1  0.17264206  0.50371782  0.16794633  1
  Fe  Fe5  1  0.00690445  0.33900960  0.33563211  1
  Fe  Fe6  1  0.00589261  0.66954979  0.00393777  1
  Fe  Fe7  1  0.17294933  0.83828895  0.17096751  1
  Cr  Cr8  1  0.00496731  0.67078949  0.33755835  1
  Ni  Ni9  1  0.33757876  1.00333358  1.00319705  1
  Fe  Fe10  1  0.50061645  0.17009037  0.17061809  1
  Fe  Fe11  1  0.33797745  1.00320857  0.33791385  1
  Fe  Fe12  1  0.33318721  0.33474913  0.00472977  1
  Fe  Fe13  1  0.50207043  0.50358974  0.16928289  1
  Ni  Ni14  1  0.33644239  0.33645080  0.33832643  1
  Ni  Ni15  1  0.33727956  0.67284791  0.00461002  1
  Fe  Fe16  1  0.50234771  0.83715290  0.17090330  1
  Ni  Ni17  1  0.33843457  0.66983554  0.33730035  1
  Fe  Fe18  1  0.66866005  0.00427416  0.00376125  1
  Ni  Ni19  1  0.83603018  0.16940192  0.17111061  1
  Fe  Fe20  1  0.66757193  1.00097447  0.33616636  1
  Fe  Fe21  1  0.66945964  0.33472020  1.00349018  1
  Fe  Fe22  1  0.83792511  0.50259565  0.16877964  1
  Cr  Cr23  1  0.66914483  0.33850237  0.33791205  1
  Fe  Fe24  1  0.67134829  0.67203679  0.00432492  1
  Fe  Fe25  1  0.83656738  0.83706880  0.17080246  1
  Ni  Ni26  1  0.66901502  0.67091380  0.33766820  1
  Ni  Ni27  1  0.17083464  0.17063882  0.50216319  1
  Fe  Fe28  1  0.00479532  1.00209365  0.67134199  1
  Ni  Ni29  1  0.16911496  0.17131941  0.83532684  1
  Ni  Ni30  1  0.17173866  0.50368716  0.50516055  1
  Ni  Ni31  1  1.00342807  0.33464128  0.66954898  1
  Fe  Fe32  1  0.16766548  0.50272678  0.83701068  1
  Ni  Ni33  1  0.17267866  0.83693153  0.50376584  1
  Fe  Fe34  1  0.00369692  0.66851798  0.66926920  1
  Fe  Fe35  1  0.17234789  0.83665330  0.83567831  1
  Ni  Ni36  1  0.50334104  0.16786502  0.50541600  1
  Fe  Fe37  1  0.33694082  0.00493899  0.66979558  1
  Fe  Fe38  1  0.50263543  0.16975558  0.83596111  1
  Fe  Fe39  1  0.50106474  0.50351715  0.50527112  1
  Fe  Fe40  1  0.33634886  0.33737034  0.66825957  1
  Cr  Cr41  1  0.50117897  0.50599854  0.83697988  1
  Ni  Ni42  1  0.50437102  0.83460616  0.50338521  1
  Ni  Ni43  1  0.33634203  0.67342265  0.66853866  1
  Fe  Fe44  1  0.50297558  0.83975080  0.83605951  1
  Cr  Cr45  1  0.83859184  0.16922898  0.50249307  1
  Fe  Fe46  1  0.66953616  1.00282112  0.67092475  1
  Ni  Ni47  1  0.83661359  0.16941701  0.83660206  1
  Fe  Fe48  1  0.83724612  0.50508544  0.50608717  1
  Ni  Ni49  1  0.67149867  0.33629971  0.67050461  1
  Fe  Fe50  1  0.83822501  0.50150537  0.83568659  1
  Fe  Fe51  1  0.83735625  0.83678833  0.50422444  1
  Ni  Ni52  1  0.66962905  0.67031318  0.66813977  1
  Fe  Fe53  1  0.83620950  0.83585637  0.83560771  1
" 