7457,Ni37Fe39Cr22_5,-231.385014934428, 197.045723878677,Ni37Fe39Cr22,"# generated using pymatgen
 data_Cr13Fe21Ni20
_symmetry_space_group_name_H-M   'P 1'
_cell_length_a   7.45280395
_cell_length_b   7.45280395
_cell_length_c   10.53985642
_cell_angle_alpha   90.00000000
_cell_angle_beta   90.00000000
_cell_angle_gamma   90.00000000
_symmetry_Int_Tables_number   1
_chemical_formula_structural   Cr13Fe21Ni20
_chemical_formula_sum   'Cr13 Fe21 Ni20'
_cell_volume   585.42880681
_cell_formula_units_Z   1
loop_
 _symmetry_equiv_pos_site_id
 _symmetry_equiv_pos_as_xyz
  1  'x, y, z'
loop_
 _atom_site_type_symbol
 _atom_site_label
 _atom_site_symmetry_multiplicity
 _atom_site_fract_x
 _atom_site_fract_y
 _atom_site_fract_z
 _atom_site_occupancy
  Ni  Ni0  1  0.00311028  0.00180577  0.00240570  1
  Fe  Fe1  1  0.16567930  0.17029036  0.16906968  1
  Fe  Fe2  1  0.00107417  1.00011371  0.33323704  1
  Ni  Ni3  1  0.00362142  0.33653643  0.00141690  1
  Ni  Ni4  1  0.16823115  0.50156052  0.16852436  1
  Ni  Ni5  1  0.00157551  0.33581605  0.33399514  1
  Ni  Ni6  1  0.00165357  0.66470096  0.00265787  1
  Ni  Ni7  1  0.16570112  0.82959467  0.16731432  1
  Fe  Fe8  1  0.00176458  0.66505193  0.33477636  1
  Cr  Cr9  1  0.33216332  0.00252602  0.00137495  1
  Cr  Cr10  1  0.50223587  0.17193467  0.17128885  1
  Cr  Cr11  1  0.33189212  0.99964432  0.33634542  1
  Ni  Ni12  1  0.33144465  0.33628019  0.99945646  1
  Fe  Fe13  1  0.49703813  0.50249775  0.17067697  1
  Ni  Ni14  1  0.33211571  0.33600911  0.33705999  1
  Ni  Ni15  1  0.33233140  0.66430368  0.00261639  1
  Fe  Fe16  1  0.49818708  0.82971025  0.17029359  1
  Ni  Ni17  1  0.33414232  0.66702398  0.33578012  1
  Cr  Cr18  1  0.66789936  1.00034781  0.00437764  1
  Fe  Fe19  1  0.83963100  0.16917168  0.16930628  1
  Fe  Fe20  1  0.66834424  0.99933572  0.33493841  1
  Cr  Cr21  1  0.66934451  0.33731025  0.99998891  1
  Fe  Fe22  1  0.83714196  0.50068539  0.17082312  1
  Ni  Ni23  1  0.66949492  0.33774187  0.33556588  1
  Cr  Cr24  1  0.66911237  0.66474768  0.00216881  1
  Fe  Fe25  1  0.83786863  0.83294773  0.16979023  1
  Ni  Ni26  1  0.66894526  0.66750009  0.33525352  1
  Ni  Ni27  1  0.16705582  0.17140193  0.50093213  1
  Fe  Fe28  1  0.00205825  0.00099944  0.66474227  1
  Fe  Fe29  1  0.16742365  0.17051942  0.83323312  1
  Fe  Fe30  1  0.16601505  0.50113979  0.50007192  1
  Ni  Ni31  1  0.00212798  0.33817980  0.66770050  1
  Ni  Ni32  1  0.16768606  0.49997598  0.83484748  1
  Fe  Fe33  1  0.16441581  0.83221017  0.50047225  1
  Ni  Ni34  1  1.00010481  0.66363535  0.66446682  1
  Cr  Cr35  1  0.16551738  0.82837310  0.83421520  1
  Fe  Fe36  1  0.50116979  0.17072435  0.49944339  1
  Cr  Cr37  1  0.33327072  0.00212689  0.66576633  1
  Ni  Ni38  1  0.50012081  0.17272735  0.83237181  1
  Fe  Fe39  1  0.50190977  0.50111828  0.49883228  1
  Fe  Fe40  1  0.33210382  0.33694178  0.66712005  1
  Fe  Fe41  1  0.49745222  0.50013031  0.83288341  1
  Ni  Ni42  1  0.50132044  0.83090553  0.49900819  1
  Fe  Fe43  1  0.33280041  0.66430461  0.66532478  1
  Cr  Cr44  1  0.49942484  0.83192499  0.83626144  1
  Cr  Cr45  1  0.83588100  0.16978802  0.49873566  1
  Cr  Cr46  1  0.66519931  0.99985975  0.66527150  1
  Cr  Cr47  1  0.83603519  0.16869357  0.83371775  1
  Ni  Ni48  1  0.83500282  0.50169501  0.50067239  1
  Fe  Fe49  1  0.66766969  0.33823935  0.66664909  1
  Fe  Fe50  1  0.83812664  0.50154952  0.83173890  1
  Ni  Ni51  1  0.83423288  0.83181162  0.49941093  1
  Fe  Fe52  1  0.66838349  0.66468361  0.66434262  1
  Cr  Cr53  1  0.83734931  0.83275383  0.83286679  1
" 