7284,Ni37Fe53Cr8_17,-235.902118472832, 204.800408416744,Ni37Fe53Cr8,"# generated using pymatgen
 data_Cr5Fe29Ni20
_symmetry_space_group_name_H-M   'P 1'
_cell_length_a   7.41943842
_cell_length_b   7.41943842
_cell_length_c   10.49267044
_cell_angle_alpha   90.00000000
_cell_angle_beta   90.00000000
_cell_angle_gamma   90.00000000
_symmetry_Int_Tables_number   1
_chemical_formula_structural   Cr5Fe29Ni20
_chemical_formula_sum   'Cr5 Fe29 Ni20'
_cell_volume   577.60122076
_cell_formula_units_Z   1
loop_
 _symmetry_equiv_pos_site_id
 _symmetry_equiv_pos_as_xyz
  1  'x, y, z'
loop_
 _atom_site_type_symbol
 _atom_site_label
 _atom_site_symmetry_multiplicity
 _atom_site_fract_x
 _atom_site_fract_y
 _atom_site_fract_z
 _atom_site_occupancy
  Fe  Fe0  1  1.00262693  1.00257058  1.00184540  1
  Cr  Cr1  1  0.16971009  0.16962074  0.17141808  1
  Fe  Fe2  1  1.00072440  1.00246051  0.33688286  1
  Fe  Fe3  1  1.00284249  0.33671736  1.00234462  1
  Fe  Fe4  1  0.16980264  0.50372643  0.16998205  1
  Ni  Ni5  1  1.00047570  0.33853477  0.33623773  1
  Fe  Fe6  1  0.00330139  0.67033782  1.00283743  1
  Fe  Fe7  1  0.16894103  0.83650985  0.16996205  1
  Fe  Fe8  1  1.00268822  0.66927064  0.33656423  1
  Ni  Ni9  1  0.33700196  1.00264639  1.00056352  1
  Ni  Ni10  1  0.50393241  0.17108849  0.16987807  1
  Ni  Ni11  1  0.33738126  1.00187847  0.33734214  1
  Fe  Fe12  1  0.33649726  0.33573603  1.00282834  1
  Fe  Fe13  1  0.50394810  0.50069974  0.17055124  1
  Fe  Fe14  1  0.33918332  0.33796436  0.33702581  1
  Fe  Fe15  1  0.33522305  0.67050176  1.00313232  1
  Cr  Cr16  1  0.50340013  0.83621045  0.17007862  1
  Fe  Fe17  1  0.33633305  0.66843592  0.33737764  1
  Fe  Fe18  1  0.67011905  0.00384236  1.00241223  1
  Ni  Ni19  1  0.83624598  0.17035564  0.17013723  1
  Fe  Fe20  1  0.67067313  0.00531542  0.33721073  1
  Fe  Fe21  1  0.67028746  0.33506527  0.00437398  1
  Fe  Fe22  1  0.83587425  0.50205432  0.17047560  1
  Ni  Ni23  1  0.67086339  0.33715334  0.33616159  1
  Fe  Fe24  1  0.67110222  0.67072083  1.00283891  1
  Fe  Fe25  1  0.83755197  0.83737077  0.16951758  1
  Ni  Ni26  1  0.67087603  0.66831909  0.33717132  1
  Cr  Cr27  1  0.16938696  0.16955536  0.50289971  1
  Ni  Ni28  1  0.00463362  1.00235950  0.67115311  1
  Ni  Ni29  1  0.16964903  0.16911281  0.83616141  1
  Fe  Fe30  1  0.16966170  0.50313476  0.50331803  1
  Ni  Ni31  1  1.00203152  0.33823742  0.67153483  1
  Fe  Fe32  1  0.16789407  0.50322002  0.83632724  1
  Fe  Fe33  1  0.17018978  0.83582319  0.50322987  1
  Fe  Fe34  1  1.00287497  0.66940129  0.67022606  1
  Fe  Fe35  1  0.16985215  0.83711216  0.83643527  1
  Ni  Ni36  1  0.50296501  0.17095533  0.50221677  1
  Ni  Ni37  1  0.33574642  1.00205915  0.67171874  1
  Fe  Fe38  1  0.50231128  0.16860912  0.83702148  1
  Ni  Ni39  1  0.50439799  0.50403422  0.50265224  1
  Ni  Ni40  1  0.33632537  0.33650748  0.66989999  1
  Cr  Cr41  1  0.50446094  0.50432305  0.83594042  1
  Fe  Fe42  1  0.50286850  0.83607435  0.50242511  1
  Fe  Fe43  1  0.33591066  0.67026551  0.66911241  1
  Ni  Ni44  1  0.50259106  0.83659673  0.83675076  1
  Ni  Ni45  1  0.83693913  0.17130948  0.50251656  1
  Cr  Cr46  1  0.66899544  0.00391259  0.66956284  1
  Fe  Fe47  1  0.83748796  0.17056693  0.83670422  1
  Ni  Ni48  1  0.83530266  0.50347353  0.50361814  1
  Ni  Ni49  1  0.67126800  0.33804780  0.66900654  1
  Ni  Ni50  1  0.83763823  0.50416802  0.83610481  1
  Fe  Fe51  1  0.83656791  0.83587251  0.50285548  1
  Fe  Fe52  1  0.67084138  0.66852056  0.66908996  1
  Ni  Ni53  1  0.83685542  0.83489388  0.83762074  1
" 