2378,Ni37Fe39Cr22_4,-230.797175892506, 196.848529097327,Ni37Fe39Cr22,"# generated using pymatgen
 data_Cr13Fe21Ni20
_symmetry_space_group_name_H-M   'P 1'
_cell_length_a   7.44580154
_cell_length_b   7.44580154
_cell_length_c   10.52995352
_cell_angle_alpha   90.00000000
_cell_angle_beta   90.00000000
_cell_angle_gamma   90.00000000
_symmetry_Int_Tables_number   1
_chemical_formula_structural   Cr13Fe21Ni20
_chemical_formula_sum   'Cr13 Fe21 Ni20'
_cell_volume   583.78020766
_cell_formula_units_Z   1
loop_
 _symmetry_equiv_pos_site_id
 _symmetry_equiv_pos_as_xyz
  1  'x, y, z'
loop_
 _atom_site_type_symbol
 _atom_site_label
 _atom_site_symmetry_multiplicity
 _atom_site_fract_x
 _atom_site_fract_y
 _atom_site_fract_z
 _atom_site_occupancy
  Fe  Fe0  1  0.00145280  0.00394304  0.00378792  1
  Fe  Fe1  1  0.16730266  0.16856605  0.16941130  1
  Ni  Ni2  1  0.00325466  1.00115479  0.33519891  1
  Fe  Fe3  1  0.00199754  0.33383342  0.00143755  1
  Ni  Ni4  1  0.16815389  0.50270632  0.16767115  1
  Fe  Fe5  1  1.00003942  0.33516932  0.33589417  1
  Fe  Fe6  1  0.00231465  0.66713434  0.00305567  1
  Ni  Ni7  1  0.16827498  0.83354531  0.16926287  1
  Fe  Fe8  1  0.00233428  0.66825976  0.33706476  1
  Cr  Cr9  1  0.33622949  0.00328391  0.00490982  1
  Ni  Ni10  1  0.50323330  0.16686564  0.17156300  1
  Fe  Fe11  1  0.33682254  0.99826467  0.33438807  1
  Ni  Ni12  1  0.33252582  0.33614675  0.00387960  1
  Ni  Ni13  1  0.49940085  0.50208813  0.16783789  1
  Cr  Cr14  1  0.33551548  0.33652093  0.33233155  1
  Ni  Ni15  1  0.33740747  0.66536751  0.00437492  1
  Ni  Ni16  1  0.50122047  0.83486999  0.16648580  1
  Fe  Fe17  1  0.33743720  0.67108857  0.33311223  1
  Ni  Ni18  1  0.66956314  1.00091313  0.00255289  1
  Fe  Fe19  1  0.83462688  0.16676263  0.17074274  1
  Ni  Ni20  1  0.66739934  0.99849189  0.33427318  1
  Cr  Cr21  1  0.66515827  0.33582762  0.00412566  1
  Cr  Cr22  1  0.83520093  0.50174111  0.16953481  1
  Fe  Fe23  1  0.66767753  0.33557632  0.33455879  1
  Ni  Ni24  1  0.66579432  0.66836701  1.00053531  1
  Cr  Cr25  1  0.83438306  0.83534579  0.16951058  1
  Ni  Ni26  1  0.66628806  0.66735413  0.33558190  1
  Fe  Fe27  1  0.16909358  0.17122820  0.49986425  1
  Cr  Cr28  1  1.00119539  0.00229206  0.66725950  1
  Fe  Fe29  1  0.16790723  0.17100300  0.83533434  1
  Fe  Fe30  1  0.16979596  0.50047637  0.50042964  1
  Ni  Ni31  1  0.00383563  0.33544470  0.66803322  1
  Cr  Cr32  1  0.17126420  0.50166624  0.83512020  1
  Fe  Fe33  1  0.16887253  0.83291249  0.49726348  1
  Cr  Cr34  1  0.99731021  0.66670121  0.66268549  1
  Cr  Cr35  1  0.17025813  0.83333954  0.83693137  1
  Fe  Fe36  1  0.50265907  0.16929256  0.50043980  1
  Cr  Cr37  1  0.33479141  0.00235916  0.66455134  1
  Cr  Cr38  1  0.50250519  0.16938961  0.83081266  1
  Ni  Ni39  1  0.50213296  0.50251706  0.50276904  1
  Ni  Ni40  1  0.33403627  0.33629420  0.66631048  1
  Ni  Ni41  1  0.50096700  0.50098206  0.83386963  1
  Ni  Ni42  1  0.50108650  0.83395194  0.50234796  1
  Fe  Fe43  1  0.33737134  0.66656237  0.66677520  1
  Fe  Fe44  1  0.50198064  0.83131656  0.83536054  1
  Cr  Cr45  1  0.83259060  0.16784709  0.50069994  1
  Ni  Ni46  1  0.66737266  0.99752236  0.66717026  1
  Fe  Fe47  1  0.83534754  0.17108047  0.83434686  1
  Ni  Ni48  1  0.83370010  0.50008674  0.50128307  1
  Fe  Fe49  1  0.66899932  0.33717332  0.66727887  1
  Fe  Fe50  1  0.83255762  0.50049199  0.83364871  1
  Fe  Fe51  1  0.82915987  0.83265707  0.49849153  1
  Ni  Ni52  1  0.66594714  0.66701915  0.66843238  1
  Cr  Cr53  1  0.83329549  0.83624702  0.83644980  1
" 