1288,Ni37Fe49Cr12_17,-233.579208950252, 207.75064710624,Ni37Fe49Cr12,"# generated using pymatgen
 data_Cr4Fe13Ni10
_symmetry_space_group_name_H-M   'P 1'
_cell_length_a   7.42328585
_cell_length_b   7.42328585
_cell_length_c   10.49811152
_cell_angle_alpha   90.00000000
_cell_angle_beta   90.00000000
_cell_angle_gamma   90.00000000
_symmetry_Int_Tables_number   1
_chemical_formula_structural   Cr4Fe13Ni10
_chemical_formula_sum   'Cr8 Fe26 Ni20'
_cell_volume   578.50024878
_cell_formula_units_Z   2
loop_
 _symmetry_equiv_pos_site_id
 _symmetry_equiv_pos_as_xyz
  1  'x, y, z'
loop_
 _atom_site_type_symbol
 _atom_site_label
 _atom_site_symmetry_multiplicity
 _atom_site_fract_x
 _atom_site_fract_y
 _atom_site_fract_z
 _atom_site_occupancy
  Ni  Ni0  1  0.00327633  0.00441797  0.00386663  1
  Fe  Fe1  1  0.16736237  0.16614812  0.16931361  1
  Fe  Fe2  1  1.00255325  1.00095669  0.33590863  1
  Ni  Ni3  1  1.00053465  0.33391095  0.00339558  1
  Cr  Cr4  1  0.16890668  0.50480085  0.16943876  1
  Cr  Cr5  1  0.00330654  0.33548481  0.33583385  1
  Fe  Fe6  1  0.00361445  0.66986270  0.00308567  1
  Ni  Ni7  1  0.16917478  0.83720676  0.16901171  1
  Fe  Fe8  1  1.00116350  0.67229497  0.33700779  1
  Fe  Fe9  1  0.33537862  1.00098169  1.00250377  1
  Cr  Cr10  1  0.50347546  0.16872720  0.16844344  1
  Fe  Fe11  1  0.33574488  1.00216020  0.33675411  1
  Cr  Cr12  1  0.33576906  0.33703151  1.00196166  1
  Fe  Fe13  1  0.50393202  0.50634093  0.16987419  1
  Fe  Fe14  1  0.33696213  0.33581922  0.33830747  1
  Ni  Ni15  1  0.33656049  0.67223080  1.00250691  1
  Ni  Ni16  1  0.50197073  0.83684847  0.17027337  1
  Fe  Fe17  1  0.33736856  0.67086341  0.33679519  1
  Fe  Fe18  1  0.67052475  0.00432934  1.00227858  1
  Fe  Fe19  1  0.83781995  0.16759349  0.16731432  1
  Ni  Ni20  1  0.67012311  0.99963940  0.33650272  1
  Ni  Ni21  1  0.67293868  0.33613222  1.00224553  1
  Ni  Ni22  1  0.83633399  0.50355229  0.16796989  1
  Cr  Cr23  1  0.67046264  0.33770875  0.33664371  1
  Cr  Cr24  1  0.66782605  0.66948180  0.00480197  1
  Ni  Ni25  1  0.83769692  0.83672219  0.17062899  1
  Fe  Fe26  1  0.67031048  0.67108274  0.33649679  1
  Fe  Fe27  1  0.17003834  0.16936181  0.50232978  1
  Fe  Fe28  1  1.00151902  1.00088364  0.66980778  1
  Fe  Fe29  1  0.16906822  0.16971938  0.83719834  1
  Fe  Fe30  1  0.17097067  0.50502368  0.50321310  1
  Cr  Cr31  1  0.00342588  0.33589947  0.66947898  1
  Fe  Fe32  1  0.17059882  0.50333777  0.83644371  1
  Ni  Ni33  1  0.16766659  0.83588286  0.50217176  1
  Fe  Fe34  1  1.00288385  0.67142454  0.66874699  1
  Fe  Fe35  1  0.16964850  0.83578603  0.83725870  1
  Fe  Fe36  1  0.50353924  0.16942788  0.50326701  1
  Cr  Cr37  1  0.33705669  1.00252984  0.67021174  1
  Ni  Ni38  1  0.50502621  0.17084960  0.83554995  1
  Ni  Ni39  1  0.50207866  0.50179581  0.50335520  1
  Ni  Ni40  1  0.33654287  0.33832959  0.66849547  1
  Ni  Ni41  1  0.50201263  0.50137800  0.83523369  1
  Fe  Fe42  1  0.50455314  0.83477162  0.50219248  1
  Ni  Ni43  1  0.33743229  0.66803031  0.66959042  1
  Fe  Fe44  1  0.50336334  0.83629853  0.83631716  1
  Fe  Fe45  1  0.83526825  0.16709143  0.50400389  1
  Ni  Ni46  1  0.67105267  1.00156541  0.66966646  1
  Ni  Ni47  1  0.83455758  0.16881118  0.83747678  1
  Ni  Ni48  1  0.83502952  0.50531068  0.50440019  1
  Fe  Fe49  1  0.66692800  0.33683278  0.67016433  1
  Fe  Fe50  1  0.83527904  0.50169158  0.83664582  1
  Ni  Ni51  1  0.83777520  0.83642779  0.50329834  1
  Ni  Ni52  1  0.66893157  0.67054725  0.66829785  1
  Fe  Fe53  1  0.83583259  0.83783252  0.83518970  1
" 