7238,Ni37Fe49Cr12_8,-233.73125586633, 203.359654149261,Ni37Fe49Cr12,"# generated using pymatgen
 data_Cr4Fe13Ni10
_symmetry_space_group_name_H-M   'P 1'
_cell_length_a   7.42767920
_cell_length_b   7.42767920
_cell_length_c   10.50432466
_cell_angle_alpha   90.00000000
_cell_angle_beta   90.00000000
_cell_angle_gamma   90.00000000
_symmetry_Int_Tables_number   1
_chemical_formula_structural   Cr4Fe13Ni10
_chemical_formula_sum   'Cr8 Fe26 Ni20'
_cell_volume   579.52798603
_cell_formula_units_Z   2
loop_
 _symmetry_equiv_pos_site_id
 _symmetry_equiv_pos_as_xyz
  1  'x, y, z'
loop_
 _atom_site_type_symbol
 _atom_site_label
 _atom_site_symmetry_multiplicity
 _atom_site_fract_x
 _atom_site_fract_y
 _atom_site_fract_z
 _atom_site_occupancy
  Fe  Fe0  1  0.00313019  0.00315380  0.00332478  1
  Ni  Ni1  1  0.16762014  0.16854536  0.16925565  1
  Ni  Ni2  1  1.00119860  1.00174430  0.33513017  1
  Ni  Ni3  1  0.00445708  0.33832172  0.00371161  1
  Fe  Fe4  1  0.16683374  0.50326276  0.16802000  1
  Fe  Fe5  1  1.00107549  0.33526773  0.33602054  1
  Fe  Fe6  1  0.00359510  0.66852449  0.00274172  1
  Fe  Fe7  1  0.16805109  0.83549708  0.17070100  1
  Ni  Ni8  1  1.00166143  0.66889988  0.33437595  1
  Cr  Cr9  1  0.33547933  0.00400558  0.00315969  1
  Fe  Fe10  1  0.50358394  0.16842621  0.17014076  1
  Fe  Fe11  1  0.33602506  1.00219420  0.33572318  1
  Ni  Ni12  1  0.33454090  0.33645553  1.00086151  1
  Cr  Cr13  1  0.50286219  0.50242046  0.16888445  1
  Cr  Cr14  1  0.33495973  0.33450870  0.33745055  1
  Fe  Fe15  1  0.33436783  0.66696027  1.00157398  1
  Fe  Fe16  1  0.50213761  0.83725792  0.17156226  1
  Fe  Fe17  1  0.33559712  0.67146088  0.33591563  1
  Cr  Cr18  1  0.66912094  0.00332693  0.00285263  1
  Fe  Fe19  1  0.83676813  0.16964426  0.17014832  1
  Ni  Ni20  1  0.66938118  1.00198204  0.33598958  1
  Ni  Ni21  1  0.66895611  0.33669260  0.00337910  1
  Fe  Fe22  1  0.83853060  0.50181389  0.17020148  1
  Fe  Fe23  1  0.67224288  0.33484116  0.33734118  1
  Cr  Cr24  1  0.67146340  0.66890538  1.00069814  1
  Ni  Ni25  1  0.83763534  0.83654271  0.17125758  1
  Fe  Fe26  1  0.67110596  0.67074310  0.33632414  1
  Ni  Ni27  1  0.16835182  0.16906129  0.50400488  1
  Ni  Ni28  1  0.00299847  0.00307268  0.66977096  1
  Ni  Ni29  1  0.16963258  0.16988129  0.83469361  1
  Fe  Fe30  1  0.16867647  0.50047886  0.50267779  1
  Fe  Fe31  1  0.00316087  0.33385568  0.66877981  1
  Ni  Ni32  1  0.17224643  0.50193177  0.83748798  1
  Cr  Cr33  1  0.16964077  0.83818308  0.50167678  1
  Cr  Cr34  1  1.00140387  0.66856362  0.67068817  1
  Fe  Fe35  1  0.16919976  0.83600377  0.83531841  1
  Ni  Ni36  1  0.50360227  0.16903205  0.50333478  1
  Ni  Ni37  1  0.33704326  0.00427696  0.66937528  1
  Fe  Fe38  1  0.50123003  0.17128142  0.83414865  1
  Fe  Fe39  1  0.50376613  0.50193063  0.50372987  1
  Fe  Fe40  1  0.33600749  0.33461385  0.66980292  1
  Ni  Ni41  1  0.50117251  0.50268138  0.83518583  1
  Fe  Fe42  1  0.50438832  0.83745178  0.50278977  1
  Fe  Fe43  1  0.33844568  0.66915973  0.67045589  1
  Fe  Fe44  1  0.50162057  0.83536262  0.83359644  1
  Ni  Ni45  1  0.83599440  0.16971792  0.50196730  1
  Ni  Ni46  1  0.66791010  1.00233146  0.66867752  1
  Cr  Cr47  1  0.83733864  0.16855216  0.83561084  1
  Ni  Ni48  1  0.83407450  0.50160737  0.50176271  1
  Ni  Ni49  1  0.66762385  0.33644309  0.66875669  1
  Fe  Fe50  1  0.83615517  0.50204080  0.83586464  1
  Fe  Fe51  1  0.83434222  0.83809232  0.50170716  1
  Fe  Fe52  1  0.66822070  0.67003954  0.66982409  1
  Ni  Ni53  1  0.83647818  0.83606012  0.83467183  1
" 