5158,Ni37Fe49Cr12_18,-233.398477706923, 200.130082567339,Ni37Fe49Cr12,"# generated using pymatgen
 data_Cr4Fe13Ni10
_symmetry_space_group_name_H-M   'P 1'
_cell_length_a   7.42767625
_cell_length_b   7.42767625
_cell_length_c   10.50432050
_cell_angle_alpha   90.00000000
_cell_angle_beta   90.00000000
_cell_angle_gamma   90.00000000
_symmetry_Int_Tables_number   1
_chemical_formula_structural   Cr4Fe13Ni10
_chemical_formula_sum   'Cr8 Fe26 Ni20'
_cell_volume   579.52729597
_cell_formula_units_Z   2
loop_
 _symmetry_equiv_pos_site_id
 _symmetry_equiv_pos_as_xyz
  1  'x, y, z'
loop_
 _atom_site_type_symbol
 _atom_site_label
 _atom_site_symmetry_multiplicity
 _atom_site_fract_x
 _atom_site_fract_y
 _atom_site_fract_z
 _atom_site_occupancy
  Ni  Ni0  1  1.00159240  0.00318916  0.00488655  1
  Ni  Ni1  1  0.16839166  0.16898009  0.16815797  1
  Fe  Fe2  1  0.00293855  0.00281758  0.33520234  1
  Ni  Ni3  1  0.00450569  0.33542152  0.00357431  1
  Fe  Fe4  1  0.16933232  0.50133585  0.17026766  1
  Ni  Ni5  1  0.00345711  0.33529022  0.33416393  1
  Fe  Fe6  1  1.00114005  0.66861557  0.00360775  1
  Ni  Ni7  1  0.16670138  0.83715436  0.17070228  1
  Ni  Ni8  1  0.00335466  0.66999796  0.33350294  1
  Fe  Fe9  1  0.33396298  0.00773807  0.00361905  1
  Ni  Ni10  1  0.50252019  0.17130323  0.16893796  1
  Fe  Fe11  1  0.33456481  0.00349932  0.33645128  1
  Ni  Ni12  1  0.33580791  0.33453509  0.00277560  1
  Ni  Ni13  1  0.50467260  0.50079737  0.17020266  1
  Fe  Fe14  1  0.33564066  0.33411943  0.33406206  1
  Cr  Cr15  1  0.33561881  0.66633150  0.00350969  1
  Cr  Cr16  1  0.50243380  0.83635770  0.16932199  1
  Fe  Fe17  1  0.33512391  0.67033368  0.33530224  1
  Fe  Fe18  1  0.66987909  0.00452730  0.00325851  1
  Fe  Fe19  1  0.83615699  0.16910284  0.16921661  1
  Ni  Ni20  1  0.66919257  0.00310761  0.33653760  1
  Fe  Fe21  1  0.66811179  0.33632369  0.00367902  1
  Fe  Fe22  1  0.83649964  0.50219010  0.16978753  1
  Fe  Fe23  1  0.66981482  0.33472427  0.33397141  1
  Fe  Fe24  1  0.67237366  0.66710241  1.00238704  1
  Fe  Fe25  1  0.83752393  0.83665796  0.16942613  1
  Fe  Fe26  1  0.67049695  0.66989580  0.33569196  1
  Ni  Ni27  1  0.16795172  0.16745640  0.50358610  1
  Fe  Fe28  1  0.00315086  1.00259892  0.66848979  1
  Ni  Ni29  1  0.17014661  0.17128316  0.83621204  1
  Cr  Cr30  1  0.16823010  0.50210158  0.50287481  1
  Ni  Ni31  1  0.00502312  0.33556788  0.67021032  1
  Fe  Fe32  1  0.16908208  0.49918557  0.83449640  1
  Fe  Fe33  1  0.16965493  0.83658504  0.50249108  1
  Ni  Ni34  1  1.00200281  0.66942369  0.67110709  1
  Cr  Cr35  1  0.16799117  0.83741789  0.83444243  1
  Fe  Fe36  1  0.50254566  0.16738900  0.50284930  1
  Fe  Fe37  1  0.33599954  0.00398729  0.66787785  1
  Ni  Ni38  1  0.50118821  0.17099316  0.83586600  1
  Cr  Cr39  1  0.50374359  0.50437695  0.50299124  1
  Ni  Ni40  1  0.33501224  0.33497411  0.67156047  1
  Fe  Fe41  1  0.50236209  0.49973832  0.83519469  1
  Ni  Ni42  1  0.50311361  0.83710156  0.50289922  1
  Ni  Ni43  1  0.33642360  0.66841008  0.66841156  1
  Cr  Cr44  1  0.50393743  0.83658846  0.83575212  1
  Fe  Fe45  1  0.83594245  0.16779668  0.50271625  1
  Ni  Ni46  1  0.66892858  1.00154834  0.66783342  1
  Cr  Cr47  1  0.83708966  0.17049154  0.83545684  1
  Cr  Cr48  1  0.83597935  0.50196084  0.50334806  1
  Fe  Fe49  1  0.66838233  0.33615968  0.67030202  1
  Fe  Fe50  1  0.83651215  0.50353252  0.83531715  1
  Fe  Fe51  1  0.83554648  0.83729573  0.50292455  1
  Ni  Ni52  1  0.66952353  0.67213886  0.67009811  1
  Fe  Fe53  1  0.83584416  0.83556405  0.83560401  1
" 