5916,Ni37Fe53Cr8_19,-235.301398066877, 208.004986886128,Ni37Fe53Cr8,"# generated using pymatgen
 data_Cr5Fe29Ni20
_symmetry_space_group_name_H-M   'P 1'
_cell_length_a   7.41580912
_cell_length_b   7.41580912
_cell_length_c   10.48753783
_cell_angle_alpha   90.00000000
_cell_angle_beta   90.00000000
_cell_angle_gamma   90.00000000
_symmetry_Int_Tables_number   1
_chemical_formula_structural   Cr5Fe29Ni20
_chemical_formula_sum   'Cr5 Fe29 Ni20'
_cell_volume   576.75401327
_cell_formula_units_Z   1
loop_
 _symmetry_equiv_pos_site_id
 _symmetry_equiv_pos_as_xyz
  1  'x, y, z'
loop_
 _atom_site_type_symbol
 _atom_site_label
 _atom_site_symmetry_multiplicity
 _atom_site_fract_x
 _atom_site_fract_y
 _atom_site_fract_z
 _atom_site_occupancy
  Ni  Ni0  1  0.00384773  0.00363931  1.00293641  1
  Fe  Fe1  1  0.16938543  0.17072008  0.16992384  1
  Fe  Fe2  1  1.00343829  0.00389380  0.33622342  1
  Ni  Ni3  1  0.00438542  0.33585898  1.00339533  1
  Ni  Ni4  1  0.16906751  0.50323566  0.17045947  1
  Fe  Fe5  1  0.00440379  0.33807372  0.33674083  1
  Fe  Fe6  1  1.00275437  0.66982130  1.00315356  1
  Fe  Fe7  1  0.16974304  0.83631151  0.16998119  1
  Fe  Fe8  1  0.00466928  0.66839614  0.33637904  1
  Fe  Fe9  1  0.33646258  0.00434487  1.00274594  1
  Ni  Ni10  1  0.50239083  0.16871794  0.17181661  1
  Fe  Fe11  1  0.33717769  0.00507367  0.33550671  1
  Fe  Fe12  1  0.33458024  0.33581105  0.00395614  1
  Fe  Fe13  1  0.50208006  0.50353507  0.17064646  1
  Ni  Ni14  1  0.33677324  0.33720214  0.33719071  1
  Fe  Fe15  1  0.33596250  0.67020717  0.00374599  1
  Fe  Fe16  1  0.50304352  0.83671922  0.16957559  1
  Ni  Ni17  1  0.33595963  0.66828540  0.33540252  1
  Fe  Fe18  1  0.67056439  1.00226178  0.00350386  1
  Fe  Fe19  1  0.83778233  0.16975483  0.17046659  1
  Fe  Fe20  1  0.66974734  0.00534091  0.33560715  1
  Cr  Cr21  1  0.67077367  0.33726613  0.00388080  1
  Ni  Ni22  1  0.83911438  0.50426403  0.17038994  1
  Fe  Fe23  1  0.66939818  0.33600646  0.33693130  1
  Fe  Fe24  1  0.67164814  0.67170666  0.00348239  1
  Ni  Ni25  1  0.83687909  0.83638471  0.16993323  1
  Cr  Cr26  1  0.67003571  0.66901156  0.33608362  1
  Ni  Ni27  1  0.17146193  0.17141929  0.50221878  1
  Ni  Ni28  1  1.00318231  1.00190731  0.67081066  1
  Ni  Ni29  1  0.17200187  0.16929862  0.83784987  1
  Ni  Ni30  1  0.16942995  0.50215092  0.50279538  1
  Cr  Cr31  1  1.00329042  0.33603418  0.67086527  1
  Fe  Fe32  1  0.17062612  0.50464181  0.83756599  1
  Cr  Cr33  1  0.16913610  0.83647633  0.50337016  1
  Ni  Ni34  1  1.00290984  0.67209575  0.67042669  1
  Ni  Ni35  1  0.16998517  0.83760274  0.83644688  1
  Fe  Fe36  1  0.50302482  0.17264484  0.50333975  1
  Fe  Fe37  1  0.33612677  0.00521310  0.67211016  1
  Ni  Ni38  1  0.50178730  0.16880440  0.83498480  1
  Fe  Fe39  1  0.50195131  0.50099169  0.50388983  1
  Fe  Fe40  1  0.33736440  0.33622116  0.66957724  1
  Fe  Fe41  1  0.50297580  0.50438735  0.83582373  1
  Cr  Cr42  1  0.50380899  0.83830827  0.50433894  1
  Fe  Fe43  1  0.33610031  0.66892959  0.67117044  1
  Ni  Ni44  1  0.50378352  0.83811786  0.83749067  1
  Fe  Fe45  1  0.83690842  0.16986746  0.50310545  1
  Fe  Fe46  1  0.67140095  0.00400400  0.67125400  1
  Fe  Fe47  1  0.83712592  0.16791815  0.83679250  1
  Ni  Ni48  1  0.83730096  0.50317985  0.50286064  1
  Ni  Ni49  1  0.66808401  0.33711529  0.66914213  1
  Ni  Ni50  1  0.83709551  0.50545962  0.83711429  1
  Fe  Fe51  1  0.83875126  0.83722682  0.50442178  1
  Fe  Fe52  1  0.67227205  0.66929643  0.67101942  1
  Ni  Ni53  1  0.83659834  0.83539582  0.83570861  1
" 