454,Ni37Fe53Cr8_0,-235.343566484455, 207.00233930281,Ni37Fe53Cr8,"# generated using pymatgen
 data_Cr5Fe29Ni20
_symmetry_space_group_name_H-M   'P 1'
_cell_length_a   7.41683516
_cell_length_b   7.41683516
_cell_length_c   10.48898887
_cell_angle_alpha   90.00000000
_cell_angle_beta   90.00000000
_cell_angle_gamma   90.00000000
_symmetry_Int_Tables_number   1
_chemical_formula_structural   Cr5Fe29Ni20
_chemical_formula_sum   'Cr5 Fe29 Ni20'
_cell_volume   576.99344352
_cell_formula_units_Z   1
loop_
 _symmetry_equiv_pos_site_id
 _symmetry_equiv_pos_as_xyz
  1  'x, y, z'
loop_
 _atom_site_type_symbol
 _atom_site_label
 _atom_site_symmetry_multiplicity
 _atom_site_fract_x
 _atom_site_fract_y
 _atom_site_fract_z
 _atom_site_occupancy
  Fe  Fe0  1  1.00172668  0.00532227  0.00407034  1
  Ni  Ni1  1  0.16910618  0.16838615  0.17041426  1
  Fe  Fe2  1  0.00571167  1.00241596  0.33701064  1
  Ni  Ni3  1  0.00366086  0.33676005  1.00303523  1
  Fe  Fe4  1  0.17016972  0.50382052  0.17030289  1
  Fe  Fe5  1  0.00507863  0.33642482  0.33760341  1
  Fe  Fe6  1  0.00353352  0.66960027  0.00382211  1
  Ni  Ni7  1  0.16881957  0.83838983  0.17175443  1
  Ni  Ni8  1  0.00551370  0.66968590  0.33759791  1
  Cr  Cr9  1  0.33907923  0.00339580  0.00513086  1
  Fe  Fe10  1  0.50314267  0.16982381  0.16944898  1
  Fe  Fe11  1  0.33412536  1.00283089  0.33661931  1
  Ni  Ni12  1  0.33547039  0.33845653  1.00250492  1
  Cr  Cr13  1  0.50333804  0.50324187  0.16980847  1
  Fe  Fe14  1  0.33537634  0.33662508  0.33746493  1
  Ni  Ni15  1  0.33629754  0.66822055  0.00394434  1
  Fe  Fe16  1  0.50235848  0.83694814  0.16980895  1
  Ni  Ni17  1  0.33469952  0.67048305  0.33725976  1
  Ni  Ni18  1  0.67135156  0.00402394  1.00328213  1
  Fe  Fe19  1  0.83777246  0.16923288  0.16855006  1
  Cr  Cr20  1  0.66954614  0.00427805  0.33612355  1
  Ni  Ni21  1  0.67102405  0.33377834  1.00249906  1
  Cr  Cr22  1  0.83542015  0.50375473  0.17064948  1
  Fe  Fe23  1  0.66970136  0.33798559  0.33798218  1
  Fe  Fe24  1  0.66919459  0.67057980  1.00160086  1
  Fe  Fe25  1  0.83820886  0.83788755  0.16984142  1
  Fe  Fe26  1  0.67011223  0.67006328  0.33873109  1
  Ni  Ni27  1  0.16972371  0.16923034  0.50373442  1
  Ni  Ni28  1  1.00242857  0.00468550  0.66870826  1
  Ni  Ni29  1  0.16881634  0.17124640  0.83600507  1
  Ni  Ni30  1  0.17111944  0.50283212  0.50326196  1
  Ni  Ni31  1  1.00281228  0.33697716  0.66962620  1
  Fe  Fe32  1  0.17046257  0.50158268  0.83638932  1
  Fe  Fe33  1  0.17012445  0.83571063  0.50348022  1
  Ni  Ni34  1  1.00332053  0.66849036  0.66889217  1
  Cr  Cr35  1  0.16854337  0.83825043  0.83465765  1
  Fe  Fe36  1  0.50221876  0.17099065  0.50413723  1
  Ni  Ni37  1  0.33825827  1.00331997  0.66813392  1
  Fe  Fe38  1  0.50373882  0.17095247  0.83656705  1
  Ni  Ni39  1  0.50409264  0.50366955  0.50298032  1
  Fe  Fe40  1  0.33509345  0.33679936  0.67021174  1
  Ni  Ni41  1  0.50462328  0.50319803  0.83733861  1
  Fe  Fe42  1  0.50153412  0.83539911  0.50428750  1
  Ni  Ni43  1  0.33718405  0.67003902  0.66895055  1
  Fe  Fe44  1  0.50470497  0.83602238  0.83605741  1
  Fe  Fe45  1  0.83810861  0.17136156  0.50448743  1
  Fe  Fe46  1  0.67083959  1.00248560  0.67008715  1
  Fe  Fe47  1  0.83693620  0.17060709  0.83711188  1
  Fe  Fe48  1  0.83780272  0.50346530  0.50323806  1
  Fe  Fe49  1  0.66998785  0.33726883  0.67042015  1
  Fe  Fe50  1  0.83734820  0.50254220  0.83705908  1
  Ni  Ni51  1  0.83774895  0.83584452  0.50426355  1
  Fe  Fe52  1  0.67035120  0.67040000  0.66982544  1
  Fe  Fe53  1  0.83532929  0.83700483  0.83601781  1
" 