7315,Ni37Cr63_3,-225.326658343893, 143.039405737417,Ni37Cr63,"# generated using pymatgen
 data_Cr19Ni35
_symmetry_space_group_name_H-M   'P 1'
_cell_length_a   7.49476757
_cell_length_b   7.49476757
_cell_length_c   10.59920194
_cell_angle_alpha   90.00000000
_cell_angle_beta   90.00000000
_cell_angle_gamma   90.00000000
_symmetry_Int_Tables_number   1
_chemical_formula_structural   Cr19Ni35
_chemical_formula_sum   'Cr19 Ni35'
_cell_volume   595.37350580
_cell_formula_units_Z   1
loop_
 _symmetry_equiv_pos_site_id
 _symmetry_equiv_pos_as_xyz
  1  'x, y, z'
loop_
 _atom_site_type_symbol
 _atom_site_label
 _atom_site_symmetry_multiplicity
 _atom_site_fract_x
 _atom_site_fract_y
 _atom_site_fract_z
 _atom_site_occupancy
  Ni  Ni0  1  -0.00181003  0.99775231  0.00077481  1
  Ni  Ni1  1  0.16448467  0.16523792  0.16492225  1
  Ni  Ni2  1  0.99737481  -0.00101320  0.32865417  1
  Ni  Ni3  1  -0.00182146  0.33303053  -0.00043370  1
  Ni  Ni4  1  0.16363349  0.49733703  0.16368704  1
  Cr  Cr5  1  -0.00115999  0.33191622  0.33163113  1
  Ni  Ni6  1  -0.00063255  0.66362132  -0.00066004  1
  Ni  Ni7  1  0.16126205  0.83186573  0.16569195  1
  Ni  Ni8  1  0.99688955  0.66337407  0.32905633  1
  Cr  Cr9  1  0.33166243  0.99708261  -0.00035371  1
  Ni  Ni10  1  0.49826885  0.16563165  0.16463152  1
  Ni  Ni11  1  0.33126366  -0.00047708  0.32753563  1
  Ni  Ni12  1  0.32980860  0.33227283  0.00193478  1
  Ni  Ni13  1  0.49849909  0.49625882  0.16514648  1
  Ni  Ni14  1  0.33121879  0.33130492  0.32937134  1
  Cr  Cr15  1  0.32852736  0.66558288  0.99774229  1
  Ni  Ni16  1  0.50037515  0.83277514  0.16678792  1
  Cr  Cr17  1  0.33058281  0.66192007  0.32940928  1
  Ni  Ni18  1  0.66528202  -0.00064476  0.00113784  1
  Ni  Ni19  1  0.83183181  0.16315045  0.16290635  1
  Ni  Ni20  1  0.66578188  -0.00136868  0.32825128  1
  Ni  Ni21  1  0.66661770  0.33066723  0.00081417  1
  Ni  Ni22  1  0.83239649  0.49949421  0.16354533  1
  Cr  Cr23  1  0.66571096  0.33147477  0.33168692  1
  Cr  Cr24  1  0.66493668  0.66569209  -0.00049006  1
  Ni  Ni25  1  0.83271888  0.83159315  0.16586745  1
  Ni  Ni26  1  0.66621816  0.66365640  0.32976683  1
  Cr  Cr27  1  0.16500585  0.16448425  0.49857828  1
  Ni  Ni28  1  0.00013336  0.00024295  0.66471650  1
  Cr  Cr29  1  0.16388906  0.16731466  0.83105889  1
  Ni  Ni30  1  0.16594967  0.49731508  0.49913675  1
  Ni  Ni31  1  0.99736591  0.33243962  0.66393200  1
  Ni  Ni32  1  0.16338431  0.49766701  0.83163228  1
  Cr  Cr33  1  0.16420795  0.83152929  0.49733349  1
  Cr  Cr34  1  -0.00022611  0.66233470  0.66560385  1
  Ni  Ni35  1  0.16446686  0.83079589  0.83027733  1
  Cr  Cr36  1  0.49625599  0.16590057  0.49809985  1
  Ni  Ni37  1  0.32957048  0.99652242  0.66695933  1
  Cr  Cr38  1  0.49797867  0.16707851  0.83248265  1
  Ni  Ni39  1  0.49690273  0.49710239  0.49884064  1
  Ni  Ni40  1  0.32987844  0.33446347  0.66356655  1
  Cr  Cr41  1  0.49755211  0.49512395  0.83139799  1
  Cr  Cr42  1  0.49720882  0.83010109  0.49689601  1
  Ni  Ni43  1  0.33008678  0.66359024  0.66607910  1
  Ni  Ni44  1  0.49564568  0.83202469  0.83009797  1
  Ni  Ni45  1  0.83254537  0.16532116  0.49964974  1
  Cr  Cr46  1  0.66556461  -0.00025746  0.66550934  1
  Cr  Cr47  1  0.83260498  0.16769319  0.83278356  1
  Ni  Ni48  1  0.83162622  0.49731214  0.49847016  1
  Ni  Ni49  1  0.66726353  0.33305638  0.66309366  1
  Ni  Ni50  1  0.83421646  0.49550711  0.83261786  1
  Cr  Cr51  1  0.83319738  0.83209040  0.49309024  1
  Cr  Cr52  1  0.66403330  0.66258941  0.66450508  1
  Cr  Cr53  1  0.83390823  0.83160673  0.83471381  1
" 