6482,Ni37Fe53Cr8_9,-235.28245625616, 209.912457303889,Ni37Fe53Cr8,"# generated using pymatgen
 data_Cr5Fe29Ni20
_symmetry_space_group_name_H-M   'P 1'
_cell_length_a   7.41119293
_cell_length_b   7.41119293
_cell_length_c   10.48100956
_cell_angle_alpha   90.00000000
_cell_angle_beta   90.00000000
_cell_angle_gamma   90.00000000
_symmetry_Int_Tables_number   1
_chemical_formula_structural   Cr5Fe29Ni20
_chemical_formula_sum   'Cr5 Fe29 Ni20'
_cell_volume   575.67763209
_cell_formula_units_Z   1
loop_
 _symmetry_equiv_pos_site_id
 _symmetry_equiv_pos_as_xyz
  1  'x, y, z'
loop_
 _atom_site_type_symbol
 _atom_site_label
 _atom_site_symmetry_multiplicity
 _atom_site_fract_x
 _atom_site_fract_y
 _atom_site_fract_z
 _atom_site_occupancy
  Fe  Fe0  1  0.00496535  0.00594183  1.00186386  1
  Fe  Fe1  1  0.16822677  0.17030339  0.17181135  1
  Fe  Fe2  1  0.00410434  0.00503958  0.33930581  1
  Ni  Ni3  1  1.00164352  0.33702485  0.00403173  1
  Ni  Ni4  1  0.16966592  0.50210084  0.17080139  1
  Fe  Fe5  1  0.00462544  0.33792546  0.33737854  1
  Fe  Fe6  1  0.00562429  0.66752118  1.00243336  1
  Fe  Fe7  1  0.16952471  0.83622150  0.16954094  1
  Fe  Fe8  1  1.00209643  0.66785684  0.33845435  1
  Ni  Ni9  1  0.33617931  1.00280336  0.00593742  1
  Fe  Fe10  1  0.50558068  0.17116097  0.17118038  1
  Fe  Fe11  1  0.33796955  0.00678678  0.33707374  1
  Cr  Cr12  1  0.33760346  0.33697426  0.00381502  1
  Fe  Fe13  1  0.50620847  0.50391892  0.17056870  1
  Ni  Ni14  1  0.33900955  0.33693706  0.33613459  1
  Ni  Ni15  1  0.33599087  0.67123202  1.00351256  1
  Fe  Fe16  1  0.50207932  0.83610255  0.16900420  1
  Cr  Cr17  1  0.33571457  0.67042473  0.33841549  1
  Fe  Fe18  1  0.66928706  0.00767236  1.00346895  1
  Fe  Fe19  1  0.83755106  0.17327990  0.16991665  1
  Fe  Fe20  1  0.66873928  0.00519131  0.33813767  1
  Ni  Ni21  1  0.67290048  0.33719480  1.00351884  1
  Ni  Ni22  1  0.83837806  0.50355074  0.17058521  1
  Ni  Ni23  1  0.67184545  0.33674058  0.33708561  1
  Fe  Fe24  1  0.66964035  0.66701013  1.00308546  1
  Cr  Cr25  1  0.83534314  0.83649786  0.16863752  1
  Fe  Fe26  1  0.67087614  0.66809834  0.33834037  1
  Ni  Ni27  1  0.17269398  0.17215009  0.50377667  1
  Ni  Ni28  1  1.00291274  0.00394873  0.67048454  1
  Fe  Fe29  1  0.16871572  0.16964470  0.83535315  1
  Ni  Ni30  1  0.17099776  0.49944366  0.50380702  1
  Ni  Ni31  1  1.00295234  0.33638701  0.66963123  1
  Ni  Ni32  1  0.17097142  0.50112284  0.83681208  1
  Fe  Fe33  1  0.16806508  0.83873706  0.50410987  1
  Cr  Cr34  1  1.00221860  0.67067836  0.67066537  1
  Fe  Fe35  1  0.16831335  0.83811152  0.83820009  1
  Fe  Fe36  1  0.50408473  0.17223352  0.50356687  1
  Ni  Ni37  1  0.33646844  0.00449343  0.66875935  1
  Fe  Fe38  1  0.50482829  0.17181732  0.83637384  1
  Fe  Fe39  1  0.50472870  0.50129663  0.50444301  1
  Ni  Ni40  1  0.33822461  0.33663413  0.67082212  1
  Fe  Fe41  1  0.50616222  0.50324937  0.83631050  1
  Fe  Fe42  1  0.50350203  0.83747637  0.50553742  1
  Fe  Fe43  1  0.33568967  0.66880913  0.67001042  1
  Cr  Cr44  1  0.50353936  0.83881182  0.83672739  1
  Fe  Fe45  1  0.83915667  0.17174301  0.50439199  1
  Fe  Fe46  1  0.67238135  0.00563284  0.66967998  1
  Ni  Ni47  1  0.83721613  0.17023689  0.83691281  1
  Ni  Ni48  1  0.83727169  0.50383130  0.50246742  1
  Fe  Fe49  1  0.67240795  0.33660164  0.67069321  1
  Ni  Ni50  1  0.83843010  0.50280617  0.83830918  1
  Ni  Ni51  1  0.83394461  0.83826478  0.50321138  1
  Fe  Fe52  1  0.67088735  0.66943985  0.66963820  1
  Ni  Ni53  1  0.83534787  0.83837198  0.83875143  1
" 