8382,Ni37Fe49Cr12_19,-233.369607083866, 205.966894113105,Ni37Fe49Cr12,"# generated using pymatgen
 data_Cr4Fe13Ni10
_symmetry_space_group_name_H-M   'P 1'
_cell_length_a   7.42070393
_cell_length_b   7.42070393
_cell_length_c   10.49446014
_cell_angle_alpha   90.00000000
_cell_angle_beta   90.00000000
_cell_angle_gamma   90.00000000
_symmetry_Int_Tables_number   1
_chemical_formula_structural   Cr4Fe13Ni10
_chemical_formula_sum   'Cr8 Fe26 Ni20'
_cell_volume   577.89682932
_cell_formula_units_Z   2
loop_
 _symmetry_equiv_pos_site_id
 _symmetry_equiv_pos_as_xyz
  1  'x, y, z'
loop_
 _atom_site_type_symbol
 _atom_site_label
 _atom_site_symmetry_multiplicity
 _atom_site_fract_x
 _atom_site_fract_y
 _atom_site_fract_z
 _atom_site_occupancy
  Fe  Fe0  1  1.00157557  1.00136983  0.00473017  1
  Fe  Fe1  1  0.16836481  0.17008027  0.17081102  1
  Fe  Fe2  1  0.00447319  1.00155451  0.33534878  1
  Cr  Cr3  1  0.00632343  0.33698187  0.00324979  1
  Fe  Fe4  1  0.17132783  0.50402698  0.17092924  1
  Ni  Ni5  1  0.00452307  0.33634283  0.33590709  1
  Fe  Fe6  1  1.00183928  0.67066527  0.00316161  1
  Ni  Ni7  1  0.16806686  0.83525335  0.16992620  1
  Fe  Fe8  1  0.00339364  0.66953090  0.33722696  1
  Cr  Cr9  1  0.33576327  0.00483403  0.00346165  1
  Cr  Cr10  1  0.50339945  0.17203140  0.17070689  1
  Fe  Fe11  1  0.33559057  1.00193836  0.33750204  1
  Ni  Ni12  1  0.33487228  0.33752325  1.00168615  1
  Ni  Ni13  1  0.50185046  0.50394851  0.17002374  1
  Ni  Ni14  1  0.33446395  0.33658974  0.33644402  1
  Fe  Fe15  1  0.33700110  0.66604915  0.00568754  1
  Fe  Fe16  1  0.50416121  0.83300998  0.17087669  1
  Ni  Ni17  1  0.33771583  0.67018154  0.33604446  1
  Fe  Fe18  1  0.67219920  1.00067450  0.00331812  1
  Fe  Fe19  1  0.83829426  0.16793056  0.17149075  1
  Fe  Fe20  1  0.66930108  1.00138748  0.33741629  1
  Cr  Cr21  1  0.66828939  0.33863401  1.00268972  1
  Fe  Fe22  1  0.83603646  0.50547712  0.17145194  1
  Fe  Fe23  1  0.66917693  0.33911279  0.33642608  1
  Ni  Ni24  1  0.67142655  0.67179607  1.00289374  1
  Ni  Ni25  1  0.83799463  0.83651025  0.16834312  1
  Ni  Ni26  1  0.66970327  0.67109173  0.33721743  1
  Fe  Fe27  1  0.17147764  0.16964631  0.50338344  1
  Fe  Fe28  1  0.00401397  1.00186264  0.66928510  1
  Ni  Ni29  1  0.17169242  0.17208744  0.83527758  1
  Fe  Fe30  1  0.16983812  0.50360018  0.50297580  1
  Fe  Fe31  1  0.00429560  0.33822984  0.66989627  1
  Fe  Fe32  1  0.16985393  0.50197112  0.83545791  1
  Ni  Ni33  1  0.17063350  0.83586509  0.50333940  1
  Ni  Ni34  1  1.00092915  0.66956573  0.66909464  1
  Cr  Cr35  1  0.16747882  0.83588917  0.83591879  1
  Ni  Ni36  1  0.50142608  0.17011752  0.50407403  1
  Fe  Fe37  1  0.33645032  0.00469547  0.66808314  1
  Fe  Fe38  1  0.50166403  0.17133697  0.83438815  1
  Fe  Fe39  1  0.50318799  0.50387062  0.50205743  1
  Ni  Ni40  1  0.33592167  0.33497258  0.67123882  1
  Fe  Fe41  1  0.50245436  0.50205179  0.83679095  1
  Ni  Ni42  1  0.50161492  0.83693134  0.50174236  1
  Fe  Fe43  1  0.33633826  0.66892682  0.66739099  1
  Cr  Cr44  1  0.50493245  0.83556032  0.83718111  1
  Cr  Cr45  1  0.83549399  0.17127423  0.50266517  1
  Ni  Ni46  1  0.66907356  1.00137947  0.67011259  1
  Cr  Cr47  1  0.83633507  0.16877758  0.83543517  1
  Ni  Ni48  1  0.83658515  0.50410945  0.50267101  1
  Fe  Fe49  1  0.66854298  0.33811676  0.66984189  1
  Ni  Ni50  1  0.83608927  0.50537551  0.83528263  1
  Ni  Ni51  1  0.83712250  0.83414886  0.50429825  1
  Fe  Fe52  1  0.67138346  0.66920992  0.66903549  1
  Ni  Ni53  1  0.83666325  0.83452100  0.83673069  1
" 