226,Ni37Fe49Cr12_15,-233.711499080865, 206.497560206689,Ni37Fe49Cr12,"# generated using pymatgen
 data_Cr4Fe13Ni10
_symmetry_space_group_name_H-M   'P 1'
_cell_length_a   7.42447787
_cell_length_b   7.42447787
_cell_length_c   10.49979730
_cell_angle_alpha   90.00000000
_cell_angle_beta   90.00000000
_cell_angle_gamma   90.00000000
_symmetry_Int_Tables_number   1
_chemical_formula_structural   Cr4Fe13Ni10
_chemical_formula_sum   'Cr8 Fe26 Ni20'
_cell_volume   578.77897949
_cell_formula_units_Z   2
loop_
 _symmetry_equiv_pos_site_id
 _symmetry_equiv_pos_as_xyz
  1  'x, y, z'
loop_
 _atom_site_type_symbol
 _atom_site_label
 _atom_site_symmetry_multiplicity
 _atom_site_fract_x
 _atom_site_fract_y
 _atom_site_fract_z
 _atom_site_occupancy
  Ni  Ni0  1  1.00128963  0.00310461  0.00344783  1
  Fe  Fe1  1  0.16656400  0.17275802  0.16865105  1
  Cr  Cr2  1  1.00139346  1.00273869  0.33445849  1
  Fe  Fe3  1  0.00361037  0.33624380  0.00318442  1
  Ni  Ni4  1  0.17023949  0.50318630  0.16917787  1
  Fe  Fe5  1  1.00232069  0.33850462  0.33556972  1
  Fe  Fe6  1  0.00512884  0.66971097  0.00304209  1
  Fe  Fe7  1  0.16812321  0.83310209  0.16843473  1
  Fe  Fe8  1  0.00375944  0.66669565  0.33563326  1
  Cr  Cr9  1  0.33437992  1.00244996  0.00334775  1
  Cr  Cr10  1  0.50407179  0.17121565  0.16985233  1
  Cr  Cr11  1  0.33651385  1.00097846  0.33603357  1
  Ni  Ni12  1  0.33593372  0.33885705  1.00253981  1
  Ni  Ni13  1  0.50036295  0.50317318  0.17054122  1
  Ni  Ni14  1  0.33737014  0.34045078  0.33579178  1
  Ni  Ni15  1  0.33582934  0.66738456  0.00315666  1
  Fe  Fe16  1  0.50434982  0.83289260  0.17107370  1
  Ni  Ni17  1  0.33655932  0.66761519  0.33584996  1
  Fe  Fe18  1  0.67149276  0.00367082  1.00280890  1
  Ni  Ni19  1  0.83666924  0.16825910  0.16889990  1
  Ni  Ni20  1  0.67076734  0.00323568  0.33577597  1
  Fe  Fe21  1  0.66935746  0.33556446  1.00227473  1
  Ni  Ni22  1  0.83800340  0.50309336  0.17082346  1
  Ni  Ni23  1  0.67021842  0.33733024  0.33685863  1
  Cr  Cr24  1  0.66842951  0.66802582  0.00400471  1
  Ni  Ni25  1  0.83668234  0.83724873  0.16912173  1
  Fe  Fe26  1  0.66783128  0.66890275  0.33482322  1
  Cr  Cr27  1  0.17076733  0.17351016  0.50320445  1
  Cr  Cr28  1  0.00350806  1.00246057  0.67022420  1
  Fe  Fe29  1  0.17053777  0.17168937  0.83604114  1
  Ni  Ni30  1  0.16951095  0.50324340  0.50343290  1
  Ni  Ni31  1  1.00152410  0.33837375  0.66971753  1
  Fe  Fe32  1  0.17074443  0.50223291  0.83584929  1
  Fe  Fe33  1  0.17209639  0.83174161  0.50370018  1
  Ni  Ni34  1  0.00344398  0.66826756  0.67038388  1
  Fe  Fe35  1  0.17013434  0.83467908  0.83646798  1
  Fe  Fe36  1  0.50494814  0.17053785  0.50368432  1
  Fe  Fe37  1  0.33829296  0.00306512  0.67019696  1
  Ni  Ni38  1  0.50334135  0.17057623  0.83433099  1
  Fe  Fe39  1  0.50209473  0.50266683  0.50259602  1
  Ni  Ni40  1  0.33813051  0.33707404  0.67026458  1
  Ni  Ni41  1  0.50112314  0.50104935  0.83545944  1
  Ni  Ni42  1  0.50329770  0.83641132  0.50386732  1
  Fe  Fe43  1  0.33573139  0.66828678  0.66922535  1
  Fe  Fe44  1  0.50266627  0.83606496  0.83449227  1
  Fe  Fe45  1  0.83289204  0.17267928  0.50237470  1
  Fe  Fe46  1  0.66740082  0.00444061  0.66970175  1
  Fe  Fe47  1  0.83472379  0.17076421  0.83709392  1
  Fe  Fe48  1  0.83655170  0.50133168  0.50316723  1
  Ni  Ni49  1  0.66894209  0.33663813  0.66961031  1
  Fe  Fe50  1  0.83610653  0.50156350  0.83492923  1
  Cr  Cr51  1  0.83406292  0.83511302  0.50256318  1
  Fe  Fe52  1  0.66918787  0.66768152  0.67054608  1
  Fe  Fe53  1  0.83579695  0.83627393  0.83650723  1
" 