4759,Ni37Cr63_12,-224.923650933201, 132.696421189389,Ni37Cr63,"# generated using pymatgen
 data_Cr19Ni35
_symmetry_space_group_name_H-M   'P 1'
_cell_length_a   7.50267833
_cell_length_b   7.50267833
_cell_length_c   10.61038945
_cell_angle_alpha   90.00000000
_cell_angle_beta   90.00000000
_cell_angle_gamma   90.00000000
_symmetry_Int_Tables_number   1
_chemical_formula_structural   Cr19Ni35
_chemical_formula_sum   'Cr19 Ni35'
_cell_volume   597.26075543
_cell_formula_units_Z   1
loop_
 _symmetry_equiv_pos_site_id
 _symmetry_equiv_pos_as_xyz
  1  'x, y, z'
loop_
 _atom_site_type_symbol
 _atom_site_label
 _atom_site_symmetry_multiplicity
 _atom_site_fract_x
 _atom_site_fract_y
 _atom_site_fract_z
 _atom_site_occupancy
  Cr  Cr0  1  0.99604054  0.99482859  -0.00207761  1
  Ni  Ni1  1  0.16327781  0.16505280  0.16354519  1
  Cr  Cr2  1  -0.00236272  0.99648187  0.33189063  1
  Cr  Cr3  1  -0.00222653  0.33362186  -0.00102930  1
  Ni  Ni4  1  0.16447729  0.49946470  0.16599650  1
  Cr  Cr5  1  -0.00225392  0.33217841  0.33171330  1
  Cr  Cr6  1  -0.00200135  0.66494166  0.99635115  1
  Ni  Ni7  1  0.16355315  0.82800613  0.16755950  1
  Ni  Ni8  1  -0.00234087  0.66456923  0.33157233  1
  Cr  Cr9  1  0.32860437  0.99294606  -0.00073931  1
  Cr  Cr10  1  0.49839619  0.16358030  0.16242403  1
  Cr  Cr11  1  0.33060365  0.99446410  0.33427856  1
  Ni  Ni12  1  0.32883917  0.33294393  -0.00020103  1
  Ni  Ni13  1  0.49730255  0.50070154  0.16571976  1
  Cr  Cr14  1  0.33014045  0.33289984  0.33296096  1
  Cr  Cr15  1  0.32790250  0.66262639  -0.00053467  1
  Ni  Ni16  1  0.50011550  0.82861251  0.16687921  1
  Ni  Ni17  1  0.33107969  0.66437174  0.33150626  1
  Ni  Ni18  1  0.66727816  0.99664548  -0.00142781  1
  Ni  Ni19  1  0.83073235  0.16246786  0.16456011  1
  Ni  Ni20  1  0.66517738  0.99502029  0.33220905  1
  Cr  Cr21  1  0.66695955  0.33329714  0.99672916  1
  Ni  Ni22  1  0.83099633  0.50047276  0.16720933  1
  Cr  Cr23  1  0.66543503  0.33227680  0.33550859  1
  Cr  Cr24  1  0.66644348  0.66587448  0.99643657  1
  Ni  Ni25  1  0.82958613  0.83006141  0.16652583  1
  Ni  Ni26  1  0.66421522  0.66590197  0.33222033  1
  Ni  Ni27  1  0.16355051  0.16446267  0.50192277  1
  Ni  Ni28  1  -0.00128592  0.99624565  0.66310953  1
  Cr  Cr29  1  0.16475837  0.16564906  0.82792121  1
  Ni  Ni30  1  0.16380841  0.49970047  0.49933554  1
  Ni  Ni31  1  -0.00137791  0.33202568  0.66274242  1
  Ni  Ni32  1  0.16265037  0.49861746  0.82762514  1
  Ni  Ni33  1  0.16368441  0.82852959  0.49985004  1
  Ni  Ni34  1  -0.00208780  0.66441295  0.66392835  1
  Ni  Ni35  1  0.16193953  0.82875967  0.82568921  1
  Ni  Ni36  1  0.49623045  0.16289021  0.49931850  1
  Ni  Ni37  1  0.32810397  0.99623541  0.66074582  1
  Cr  Cr38  1  0.49683606  0.16419408  0.83200920  1
  Ni  Ni39  1  0.49636027  0.50158880  0.49870159  1
  Ni  Ni40  1  0.32858522  0.33234320  0.66064388  1
  Cr  Cr41  1  0.49464529  0.49735771  0.82819521  1
  Ni  Ni42  1  0.49798956  0.82856687  0.49754843  1
  Ni  Ni43  1  0.32875471  0.66460721  0.66188036  1
  Cr  Cr44  1  0.49738447  0.83087722  0.82853758  1
  Ni  Ni45  1  0.83279368  0.16274401  0.49866854  1
  Cr  Cr46  1  0.66559961  0.99654830  0.66240236  1
  Ni  Ni47  1  0.83299719  0.16329664  0.82990699  1
  Ni  Ni48  1  0.83281208  0.50135056  0.49864787  1
  Cr  Cr49  1  0.66647041  0.33313902  0.66066788  1
  Ni  Ni50  1  0.83420179  0.49911137  0.82633014  1
  Ni  Ni51  1  0.83111369  0.82901113  0.49744856  1
  Ni  Ni52  1  0.66611905  0.66443276  0.66206706  1
  Ni  Ni53  1  0.83316661  0.83076762  0.82814438  1
" 