286,Ni37Cr63_2,-225.499976926286, 145.763842782833,Ni37Cr63,"# generated using pymatgen
 data_Cr19Ni35
_symmetry_space_group_name_H-M   'P 1'
_cell_length_a   7.49920558
_cell_length_b   7.49920558
_cell_length_c   10.60547825
_cell_angle_alpha   90.00000000
_cell_angle_beta   90.00000000
_cell_angle_gamma   90.00000000
_symmetry_Int_Tables_number   1
_chemical_formula_structural   Cr19Ni35
_chemical_formula_sum   'Cr19 Ni35'
_cell_volume   596.43178072
_cell_formula_units_Z   1
loop_
 _symmetry_equiv_pos_site_id
 _symmetry_equiv_pos_as_xyz
  1  'x, y, z'
loop_
 _atom_site_type_symbol
 _atom_site_label
 _atom_site_symmetry_multiplicity
 _atom_site_fract_x
 _atom_site_fract_y
 _atom_site_fract_z
 _atom_site_occupancy
  Ni  Ni0  1  -0.00009020  0.99757763  -0.00110956  1
  Ni  Ni1  1  0.16221713  0.16496142  0.16420569  1
  Ni  Ni2  1  0.99533824  -0.00000502  0.32891520  1
  Ni  Ni3  1  -0.00184140  0.33102610  -0.00041503  1
  Ni  Ni4  1  0.16310140  0.49677254  0.16404217  1
  Ni  Ni5  1  0.99753350  0.32938431  0.32929301  1
  Ni  Ni6  1  -0.00138603  0.66491772  -0.00144730  1
  Ni  Ni7  1  0.16153326  0.83176188  0.16154233  1
  Cr  Cr8  1  -0.00153422  0.66415885  0.33000374  1
  Ni  Ni9  1  0.32618920  0.99774534  -0.00103531  1
  Ni  Ni10  1  0.49845194  0.16702423  0.16564383  1
  Cr  Cr11  1  0.32952239  -0.00097260  0.32897616  1
  Cr  Cr12  1  0.33158377  0.33105527  -0.00033165  1
  Ni  Ni13  1  0.49953212  0.49654695  0.16455618  1
  Ni  Ni14  1  0.33137654  0.33314847  0.32941717  1
  Ni  Ni15  1  0.32881318  0.66285098  0.99763780  1
  Cr  Cr16  1  0.49752867  0.82977187  0.16339321  1
  Cr  Cr17  1  0.33116264  0.66114478  0.33361268  1
  Cr  Cr18  1  0.66780408  0.00129127  -0.00039245  1
  Ni  Ni19  1  0.83290332  0.16611331  0.16647357  1
  Ni  Ni20  1  0.66751390  -0.00036139  0.33084668  1
  Ni  Ni21  1  0.66561620  0.33424869  0.00075967  1
  Ni  Ni22  1  0.83103241  0.49694200  0.16347682  1
  Ni  Ni23  1  0.66465134  0.33084694  0.32895784  1
  Ni  Ni24  1  0.66589113  0.66179923  -0.00080908  1
  Ni  Ni25  1  0.83276067  0.83071590  0.16412507  1
  Ni  Ni26  1  0.66384579  0.66289923  0.32997282  1
  Cr  Cr27  1  0.16123111  0.16781978  0.49661157  1
  Cr  Cr28  1  0.99678815  0.99740725  0.66528284  1
  Ni  Ni29  1  0.16325092  0.16593051  0.83243530  1
  Ni  Ni30  1  0.16619284  0.49493587  0.49802043  1
  Ni  Ni31  1  -0.00021326  0.33080016  0.66445528  1
  Ni  Ni32  1  0.16502879  0.49671567  0.83155604  1
  Ni  Ni33  1  0.16542125  0.83107624  0.49638451  1
  Cr  Cr34  1  0.00060684  0.66399091  0.66520225  1
  Ni  Ni35  1  0.16310912  0.83063734  0.83563120  1
  Cr  Cr36  1  0.49995932  0.16546839  0.49777981  1
  Cr  Cr37  1  0.33027234  0.99714946  0.66556487  1
  Cr  Cr38  1  0.49639490  0.16673714  0.83046262  1
  Ni  Ni39  1  0.49764022  0.49614295  0.49697477  1
  Ni  Ni40  1  0.33041028  0.33399996  0.66531458  1
  Ni  Ni41  1  0.49669311  0.49724515  0.83203749  1
  Ni  Ni42  1  0.49909949  0.83053037  0.49668321  1
  Cr  Cr43  1  0.33011290  0.66215103  0.66212386  1
  Cr  Cr44  1  0.49793781  0.82987719  0.83408058  1
  Ni  Ni45  1  0.83049370  0.16572272  0.49705459  1
  Ni  Ni46  1  0.66585390  -0.00064512  0.66304920  1
  Cr  Cr47  1  0.83292950  0.16666615  0.82937207  1
  Cr  Cr48  1  0.83214141  0.49226270  0.49656753  1
  Ni  Ni49  1  0.66340930  0.33066422  0.66373349  1
  Cr  Cr50  1  0.83186939  0.49785961  0.83363694  1
  Cr  Cr51  1  0.82971375  0.83381929  0.49558339  1
  Cr  Cr52  1  0.66355737  0.66467828  0.66457226  1
  Ni  Ni53  1  0.83326361  0.83120993  0.83373710  1
" 