3133,Ni37Fe39Cr22_3,-230.769280027848, 196.615041589204,Ni37Fe39Cr22,"# generated using pymatgen
 data_Cr13Fe21Ni20
_symmetry_space_group_name_H-M   'P 1'
_cell_length_a   7.44745076
_cell_length_b   7.44745076
_cell_length_c   10.53228587
_cell_angle_alpha   90.00000000
_cell_angle_beta   90.00000000
_cell_angle_gamma   90.00000000
_symmetry_Int_Tables_number   1
_chemical_formula_structural   Cr13Fe21Ni20
_chemical_formula_sum   'Cr13 Fe21 Ni20'
_cell_volume   584.16820968
_cell_formula_units_Z   1
loop_
 _symmetry_equiv_pos_site_id
 _symmetry_equiv_pos_as_xyz
  1  'x, y, z'
loop_
 _atom_site_type_symbol
 _atom_site_label
 _atom_site_symmetry_multiplicity
 _atom_site_fract_x
 _atom_site_fract_y
 _atom_site_fract_z
 _atom_site_occupancy
  Ni  Ni0  1  0.00186575  0.99963932  0.00250379  1
  Ni  Ni1  1  0.16899035  0.16866513  0.16788766  1
  Fe  Fe2  1  0.00525305  0.00196670  0.33378948  1
  Ni  Ni3  1  1.00005840  0.33651375  0.00229906  1
  Ni  Ni4  1  0.16729728  0.50120862  0.16901660  1
  Fe  Fe5  1  0.00587756  0.33432867  0.33307365  1
  Ni  Ni6  1  0.00267998  0.66758445  0.00136546  1
  Ni  Ni7  1  0.16777282  0.83404635  0.16654475  1
  Fe  Fe8  1  0.00495666  0.66790128  0.33280151  1
  Fe  Fe9  1  0.33401460  0.00167888  0.00387605  1
  Ni  Ni10  1  0.50064156  0.16625174  0.16767188  1
  Ni  Ni11  1  0.33273732  0.00206019  0.33295526  1
  Cr  Cr12  1  0.33583144  0.33511877  0.00337496  1
  Fe  Fe13  1  0.49879439  0.50139262  0.16889050  1
  Ni  Ni14  1  0.33456811  0.33343032  0.33504735  1
  Fe  Fe15  1  0.33211923  0.66758818  0.00264176  1
  Fe  Fe16  1  0.49895152  0.83544251  0.16798931  1
  Ni  Ni17  1  0.33174304  0.66850970  0.33373105  1
  Ni  Ni18  1  0.66751930  0.00321042  0.00209807  1
  Cr  Cr19  1  0.83701900  0.16739962  0.16596127  1
  Fe  Fe20  1  0.66502042  0.00202847  0.33194655  1
  Ni  Ni21  1  0.66773323  0.33475377  1.00057020  1
  Fe  Fe22  1  0.83651900  0.50212917  0.16654841  1
  Cr  Cr23  1  0.66803354  0.33366415  0.33318602  1
  Fe  Fe24  1  0.67012570  0.66621811  0.00332060  1
  Fe  Fe25  1  0.83625279  0.83421585  0.16694025  1
  Fe  Fe26  1  0.66604435  0.66857812  0.33128063  1
  Ni  Ni27  1  0.16807495  0.17025091  0.49940361  1
  Ni  Ni28  1  0.00183483  0.00174694  0.66668191  1
  Cr  Cr29  1  0.16660220  0.16987506  0.83856218  1
  Ni  Ni30  1  0.16669413  0.49922200  0.50065413  1
  Fe  Fe31  1  0.00218244  0.33459158  0.66852409  1
  Ni  Ni32  1  0.16521422  0.50164473  0.83453946  1
  Fe  Fe33  1  0.16737556  0.83475741  0.49855368  1
  Ni  Ni34  1  0.00348520  0.66918830  0.66800386  1
  Fe  Fe35  1  0.16686776  0.83465054  0.83704295  1
  Ni  Ni36  1  0.50026851  0.16735757  0.50208727  1
  Cr  Cr37  1  0.33161081  0.00206823  0.66779710  1
  Ni  Ni38  1  0.50303122  0.16855613  0.83449314  1
  Cr  Cr39  1  0.49777464  0.49999518  0.50134954  1
  Fe  Fe40  1  0.33293553  0.33363523  0.66802321  1
  Fe  Fe41  1  0.50068661  0.49850785  0.83510111  1
  Cr  Cr42  1  0.50227599  0.83652647  0.49944946  1
  Cr  Cr43  1  0.33061429  0.66761712  0.66881111  1
  Cr  Cr44  1  0.50187401  0.83653203  0.83765045  1
  Fe  Fe45  1  0.83530414  0.16910016  0.50210973  1
  Fe  Fe46  1  0.67013763  0.00434583  0.66868505  1
  Fe  Fe47  1  0.83478191  0.16901065  0.83629194  1
  Cr  Cr48  1  0.83856202  0.50197885  0.50037580  1
  Ni  Ni49  1  0.66835157  0.33081179  0.66990438  1
  Fe  Fe50  1  0.83649551  0.49846421  0.83550410  1
  Cr  Cr51  1  0.83480350  0.83583404  0.49930315  1
  Cr  Cr52  1  0.66885444  0.66379834  0.66938440  1
  Cr  Cr53  1  0.83593250  0.83545443  0.83544758  1
" 