160,Ni37Cr63_13,-225.339416346394, 143.899700230483,Ni37Cr63,"# generated using pymatgen
 data_Cr19Ni35
_symmetry_space_group_name_H-M   'P 1'
_cell_length_a   7.49068226
_cell_length_b   7.49068226
_cell_length_c   10.59342444
_cell_angle_alpha   90.00000000
_cell_angle_beta   90.00000000
_cell_angle_gamma   90.00000000
_symmetry_Int_Tables_number   1
_chemical_formula_structural   Cr19Ni35
_chemical_formula_sum   'Cr19 Ni35'
_cell_volume   594.40044304
_cell_formula_units_Z   1
loop_
 _symmetry_equiv_pos_site_id
 _symmetry_equiv_pos_as_xyz
  1  'x, y, z'
loop_
 _atom_site_type_symbol
 _atom_site_label
 _atom_site_symmetry_multiplicity
 _atom_site_fract_x
 _atom_site_fract_y
 _atom_site_fract_z
 _atom_site_occupancy
  Cr  Cr0  1  0.99803483  -0.00107918  0.99726404  1
  Cr  Cr1  1  0.16659647  0.16491410  0.16630917  1
  Ni  Ni2  1  -0.00076305  0.99764778  0.33277661  1
  Cr  Cr3  1  0.99678140  0.33237128  -0.00036771  1
  Ni  Ni4  1  0.16781239  0.50003586  0.16489619  1
  Cr  Cr5  1  0.99631213  0.33078242  0.32916706  1
  Cr  Cr6  1  -0.00020843  0.66428755  -0.00124182  1
  Ni  Ni7  1  0.16811053  0.83012068  0.16730102  1
  Cr  Cr8  1  0.99835877  0.66574144  0.33053918  1
  Cr  Cr9  1  0.33340689  0.99661747  0.99633537  1
  Cr  Cr10  1  0.49994914  0.16438625  0.16464000  1
  Ni  Ni11  1  0.33053990  0.99676959  0.33166720  1
  Ni  Ni12  1  0.33353211  0.33315916  0.99640676  1
  Cr  Cr13  1  0.49797299  0.49855404  0.16578925  1
  Ni  Ni14  1  0.33425868  0.33254943  0.33284826  1
  Ni  Ni15  1  0.33208803  0.66533796  0.99839499  1
  Ni  Ni16  1  0.49603316  0.83083028  0.16542339  1
  Ni  Ni17  1  0.33240698  0.66584434  0.33079873  1
  Ni  Ni18  1  0.66457201  0.00020344  0.99612568  1
  Ni  Ni19  1  0.82965183  0.16614977  0.16520181  1
  Cr  Cr20  1  0.66497287  -0.00016154  0.33329356  1
  Ni  Ni21  1  0.66532523  0.33041973  0.99693997  1
  Ni  Ni22  1  0.82987873  0.49626663  0.16561881  1
  Ni  Ni23  1  0.66422406  0.33243127  0.33270517  1
  Cr  Cr24  1  0.66399505  0.66492049  0.99684579  1
  Cr  Cr25  1  0.82900039  0.83378260  0.16584845  1
  Ni  Ni26  1  0.66311881  0.66323946  0.33166662  1
  Cr  Cr27  1  0.16488419  0.16413908  0.49880036  1
  Ni  Ni28  1  0.99672502  0.99784442  0.66542979  1
  Ni  Ni29  1  0.16489869  0.16538930  0.83001134  1
  Cr  Cr30  1  0.16818660  0.49971907  0.50110205  1
  Ni  Ni31  1  0.99626764  0.32968275  0.66724988  1
  Cr  Cr32  1  0.16643646  0.49787757  0.82976669  1
  Ni  Ni33  1  0.16342356  0.83175516  0.49817958  1
  Ni  Ni34  1  -0.00134988  0.66777197  0.66627446  1
  Ni  Ni35  1  0.16488847  0.83133676  0.82979000  1
  Ni  Ni36  1  0.50019686  0.16829084  0.49842096  1
  Cr  Cr37  1  0.33375101  -0.00119984  0.66658698  1
  Ni  Ni38  1  0.50064402  0.16693279  0.83181078  1
  Ni  Ni39  1  0.49757995  0.49595561  0.49761055  1
  Ni  Ni40  1  0.33508177  0.33199103  0.66594657  1
  Ni  Ni41  1  0.49823948  0.49676211  0.83135319  1
  Cr  Cr42  1  0.49817697  0.83037902  0.49676495  1
  Ni  Ni43  1  0.33158136  0.66489995  0.66604728  1
  Ni  Ni44  1  0.49898434  0.83175687  0.83269629  1
  Ni  Ni45  1  0.83021545  0.16337007  0.49984382  1
  Ni  Ni46  1  0.66707872  0.00105128  0.66639393  1
  Ni  Ni47  1  0.82986338  0.16475992  0.83049051  1
  Cr  Cr48  1  0.82956664  0.49843456  0.49982677  1
  Ni  Ni49  1  0.66390369  0.32957500  0.66554001  1
  Ni  Ni50  1  0.83007840  0.49666125  0.83031712  1
  Ni  Ni51  1  0.83406642  0.83451740  0.49960233  1
  Cr  Cr52  1  0.66396791  0.66517753  0.66613104  1
  Ni  Ni53  1  0.83151039  0.83385568  0.82962861  1
" 