139,Ni37Fe39Cr22_17,-231.298395186183, 202.72531735254,Ni37Fe39Cr22,"# generated using pymatgen
 data_Cr13Fe21Ni20
_symmetry_space_group_name_H-M   'P 1'
_cell_length_a   7.45072948
_cell_length_b   7.45072948
_cell_length_c   10.53692268
_cell_angle_alpha   90.00000000
_cell_angle_beta   90.00000000
_cell_angle_gamma   90.00000000
_symmetry_Int_Tables_number   1
_chemical_formula_structural   Cr13Fe21Ni20
_chemical_formula_sum   'Cr13 Fe21 Ni20'
_cell_volume   584.94008436
_cell_formula_units_Z   1
loop_
 _symmetry_equiv_pos_site_id
 _symmetry_equiv_pos_as_xyz
  1  'x, y, z'
loop_
 _atom_site_type_symbol
 _atom_site_label
 _atom_site_symmetry_multiplicity
 _atom_site_fract_x
 _atom_site_fract_y
 _atom_site_fract_z
 _atom_site_occupancy
  Cr  Cr0  1  1.00026296  1.00011881  0.00147331  1
  Ni  Ni1  1  0.16923880  0.16689114  0.16726432  1
  Fe  Fe2  1  0.00204767  1.00093286  0.33478284  1
  Fe  Fe3  1  0.00317951  0.33516303  1.00032613  1
  Cr  Cr4  1  0.16740723  0.50133503  0.16494740  1
  Fe  Fe5  1  0.99911733  0.33404908  0.33566586  1
  Ni  Ni6  1  1.00089119  0.66757967  0.00269817  1
  Fe  Fe7  1  0.16665795  0.83442866  0.16785839  1
  Fe  Fe8  1  0.99981296  0.66830293  0.33400700  1
  Ni  Ni9  1  0.33503236  0.00485118  0.00190390  1
  Fe  Fe10  1  0.50051082  0.16886286  0.16683620  1
  Fe  Fe11  1  0.33426343  1.00010881  0.33521484  1
  Ni  Ni12  1  0.33511584  0.33314849  1.00026743  1
  Ni  Ni13  1  0.50267069  0.50059721  0.16761348  1
  Cr  Cr14  1  0.33479410  0.33361127  0.33494691  1
  Ni  Ni15  1  0.33388484  0.66528949  0.00113442  1
  Cr  Cr16  1  0.50030179  0.83445529  0.16821254  1
  Fe  Fe17  1  0.33587755  0.66974096  0.33610224  1
  Fe  Fe18  1  0.66626668  0.00159737  0.99978714  1
  Cr  Cr19  1  0.83422181  0.16884431  0.16820792  1
  Ni  Ni20  1  0.66810806  1.00074096  0.33419090  1
  Fe  Fe21  1  0.66579718  0.33379620  0.00115363  1
  Ni  Ni22  1  0.83317377  0.50200747  0.16897426  1
  Fe  Fe23  1  0.66842773  0.33566424  0.33471354  1
  Cr  Cr24  1  0.66920488  0.66857729  1.00108682  1
  Ni  Ni25  1  0.83469552  0.83247459  0.16859338  1
  Ni  Ni26  1  0.66866103  0.66722730  0.33445470  1
  Ni  Ni27  1  0.16720707  0.16585027  0.50124762  1
  Ni  Ni28  1  0.00181043  1.00078560  0.66733431  1
  Ni  Ni29  1  0.16868528  0.16850565  0.83478129  1
  Fe  Fe30  1  0.16747216  0.50416726  0.50092735  1
  Cr  Cr31  1  0.00313274  0.33240042  0.66736355  1
  Fe  Fe32  1  0.16833414  0.50137180  0.83614091  1
  Ni  Ni33  1  0.17045719  0.83522434  0.50099925  1
  Ni  Ni34  1  0.00176185  0.66981169  0.66708757  1
  Cr  Cr35  1  0.16879056  0.83384311  0.83296343  1
  Fe  Fe36  1  0.50053621  0.16502842  0.49944893  1
  Fe  Fe37  1  0.33266680  0.99933127  0.66689798  1
  Fe  Fe38  1  0.50058090  0.16669071  0.83700167  1
  Fe  Fe39  1  0.50112198  0.50445346  0.50031468  1
  Cr  Cr40  1  0.33354474  0.33475394  0.66829949  1
  Fe  Fe41  1  0.49896040  0.50181811  0.83548195  1
  Ni  Ni42  1  0.49861451  0.83277092  0.50170188  1
  Ni  Ni43  1  0.33518875  0.66782506  0.66654808  1
  Fe  Fe44  1  0.50130927  0.83477667  0.83404844  1
  Fe  Fe45  1  0.83554356  0.16697631  0.49952254  1
  Cr  Cr46  1  0.66905881  0.99931049  0.67017000  1
  Ni  Ni47  1  0.83462575  0.16670340  0.83492007  1
  Fe  Fe48  1  0.83469252  0.50224008  0.49973226  1
  Cr  Cr49  1  0.66660478  0.33483182  0.66579161  1
  Cr  Cr50  1  0.83519610  0.50200768  0.83508334  1
  Cr  Cr51  1  0.83415411  0.83327491  0.50216027  1
  Ni  Ni52  1  0.66633087  0.66899483  0.66749590  1
  Ni  Ni53  1  0.83312859  0.83498907  0.83325168  1
" 