5277,Ni37Fe49Cr12_1,-234.1010379705, 209.158611104821,Ni37Fe49Cr12,"# generated using pymatgen
 data_Cr4Fe13Ni10
_symmetry_space_group_name_H-M   'P 1'
_cell_length_a   7.42859242
_cell_length_b   7.42859242
_cell_length_c   10.50561615
_cell_angle_alpha   90.00000000
_cell_angle_beta   90.00000000
_cell_angle_gamma   90.00000000
_symmetry_Int_Tables_number   1
_chemical_formula_structural   Cr4Fe13Ni10
_chemical_formula_sum   'Cr8 Fe26 Ni20'
_cell_volume   579.74176693
_cell_formula_units_Z   2
loop_
 _symmetry_equiv_pos_site_id
 _symmetry_equiv_pos_as_xyz
  1  'x, y, z'
loop_
 _atom_site_type_symbol
 _atom_site_label
 _atom_site_symmetry_multiplicity
 _atom_site_fract_x
 _atom_site_fract_y
 _atom_site_fract_z
 _atom_site_occupancy
  Ni  Ni0  1  0.00323273  0.00303203  0.00504760  1
  Fe  Fe1  1  0.17050075  0.16894480  0.16823503  1
  Fe  Fe2  1  0.00298385  1.00045512  0.33527247  1
  Ni  Ni3  1  0.00296781  0.33525671  0.00288864  1
  Fe  Fe4  1  0.16856000  0.50142154  0.16900907  1
  Fe  Fe5  1  1.00233700  0.33413882  0.33330069  1
  Ni  Ni6  1  0.00351678  0.66976957  0.00297907  1
  Fe  Fe7  1  0.16835348  0.83713576  0.17106289  1
  Fe  Fe8  1  1.00158571  0.67262925  0.33467894  1
  Fe  Fe9  1  0.33349972  0.00612031  1.00202951  1
  Ni  Ni10  1  0.50111166  0.16987954  0.16873068  1
  Ni  Ni11  1  0.33537900  1.00257302  0.33759306  1
  Ni  Ni12  1  0.33558298  0.33584406  0.00276925  1
  Ni  Ni13  1  0.50071061  0.50112050  0.17116785  1
  Fe  Fe14  1  0.33784622  0.33292234  0.33428228  1
  Cr  Cr15  1  0.33473646  0.66933723  1.00253042  1
  Cr  Cr16  1  0.50544526  0.83775361  0.16884665  1
  Fe  Fe17  1  0.33657972  0.67130235  0.33637999  1
  Fe  Fe18  1  0.67052058  0.00348968  0.00292945  1
  Fe  Fe19  1  0.83510467  0.16767662  0.16959810  1
  Ni  Ni20  1  0.66888508  0.00368461  0.33587091  1
  Cr  Cr21  1  0.66911903  0.33490470  1.00253938  1
  Fe  Fe22  1  0.83540365  0.50394258  0.16969870  1
  Fe  Fe23  1  0.66694659  0.33464657  0.33481730  1
  Fe  Fe24  1  0.67172054  0.66798292  0.00276813  1
  Ni  Ni25  1  0.83717074  0.83628774  0.16907746  1
  Fe  Fe26  1  0.66979566  0.67054105  0.33692631  1
  Fe  Fe27  1  0.17126644  0.16530915  0.50323091  1
  Ni  Ni28  1  0.00445813  0.00300887  0.66739287  1
  Ni  Ni29  1  0.16846906  0.17226025  0.83526098  1
  Cr  Cr30  1  0.16864003  0.49956784  0.50219344  1
  Fe  Fe31  1  1.00258447  0.33520965  0.67187023  1
  Ni  Ni32  1  0.16806483  0.49952523  0.83720777  1
  Ni  Ni33  1  0.16816071  0.83522292  0.50223027  1
  Fe  Fe34  1  1.00018898  0.67031832  0.66949857  1
  Fe  Fe35  1  0.16802589  0.83944491  0.83570708  1
  Ni  Ni36  1  0.50110927  0.16831363  0.50237595  1
  Fe  Fe37  1  0.33757180  0.00328710  0.66828563  1
  Fe  Fe38  1  0.50076143  0.16664447  0.83605121  1
  Fe  Fe39  1  0.50440546  0.50376887  0.50006680  1
  Fe  Fe40  1  0.33584784  0.33304417  0.67086581  1
  Fe  Fe41  1  0.50217289  0.50259418  0.83666211  1
  Ni  Ni42  1  0.50458117  0.83778103  0.50159321  1
  Cr  Cr43  1  0.33633875  0.67088844  0.66970131  1
  Ni  Ni44  1  0.50422598  0.83732327  0.83670664  1
  Cr  Cr45  1  0.83604289  0.16717419  0.50181381  1
  Ni  Ni46  1  0.66931982  1.00229703  0.66902673  1
  Ni  Ni47  1  0.83888055  0.16795655  0.83719363  1
  Fe  Fe48  1  0.83439926  0.50564247  0.50150346  1
  Cr  Cr49  1  0.66901685  0.33587675  0.66984311  1
  Fe  Fe50  1  0.83862920  0.50262451  0.83616712  1
  Ni  Ni51  1  0.83488769  0.83524599  0.50294451  1
  Ni  Ni52  1  0.66825504  0.66934545  0.66785790  1
  Cr  Cr53  1  0.83386874  0.83730120  0.83548858  1
" 