5979,Ni37Fe49Cr12_9,-234.064609103994, 206.6534741322,Ni37Fe49Cr12,"# generated using pymatgen
 data_Cr4Fe13Ni10
_symmetry_space_group_name_H-M   'P 1'
_cell_length_a   7.42867764
_cell_length_b   7.42867764
_cell_length_c   10.50573666
_cell_angle_alpha   90.00000000
_cell_angle_beta   90.00000000
_cell_angle_gamma   90.00000000
_symmetry_Int_Tables_number   1
_chemical_formula_structural   Cr4Fe13Ni10
_chemical_formula_sum   'Cr8 Fe26 Ni20'
_cell_volume   579.76171902
_cell_formula_units_Z   2
loop_
 _symmetry_equiv_pos_site_id
 _symmetry_equiv_pos_as_xyz
  1  'x, y, z'
loop_
 _atom_site_type_symbol
 _atom_site_label
 _atom_site_symmetry_multiplicity
 _atom_site_fract_x
 _atom_site_fract_y
 _atom_site_fract_z
 _atom_site_occupancy
  Ni  Ni0  1  0.00274332  0.00416593  0.00403209  1
  Fe  Fe1  1  0.16995449  0.16949230  0.16862064  1
  Ni  Ni2  1  1.00222354  0.00332278  0.33534595  1
  Ni  Ni3  1  0.00427176  0.33537699  1.00107003  1
  Fe  Fe4  1  0.16902087  0.50279860  0.16951937  1
  Fe  Fe5  1  0.00305154  0.33687754  0.33641126  1
  Fe  Fe6  1  0.00284623  0.66712869  0.00482887  1
  Fe  Fe7  1  0.16695496  0.83544738  0.16953586  1
  Ni  Ni8  1  0.00305400  0.66828283  0.33315930  1
  Fe  Fe9  1  0.33538973  0.00398806  1.00215974  1
  Fe  Fe10  1  0.50161144  0.17104438  0.16954849  1
  Fe  Fe11  1  0.33481352  1.00229374  0.33559130  1
  Ni  Ni12  1  0.33542288  0.33676862  0.00331699  1
  Fe  Fe13  1  0.50276917  0.50146116  0.16868444  1
  Fe  Fe14  1  0.33475836  0.33706252  0.33539340  1
  Ni  Ni15  1  0.33728077  0.66636037  1.00166092  1
  Cr  Cr16  1  0.50166242  0.83562569  0.16950174  1
  Ni  Ni17  1  0.33593439  0.66644306  0.33718742  1
  Fe  Fe18  1  0.66874337  0.00348432  1.00181639  1
  Cr  Cr19  1  0.83558112  0.16932782  0.16925643  1
  Ni  Ni20  1  0.67042487  0.00276105  0.33646859  1
  Fe  Fe21  1  0.66878502  0.33737041  1.00122820  1
  Ni  Ni22  1  0.83637868  0.50361419  0.16902173  1
  Fe  Fe23  1  0.66994421  0.33742101  0.33662901  1
  Ni  Ni24  1  0.66850293  0.66789312  0.00343736  1
  Fe  Fe25  1  0.83750880  0.83430508  0.16953507  1
  Fe  Fe26  1  0.66971626  0.66840664  0.33575797  1
  Fe  Fe27  1  0.16678780  0.17003262  0.50212066  1
  Ni  Ni28  1  1.00226022  0.00595448  0.66837797  1
  Fe  Fe29  1  0.16812214  0.16991098  0.83700534  1
  Ni  Ni30  1  0.16991929  0.50317417  0.50208970  1
  Fe  Fe31  1  0.99997333  0.33467555  0.66945208  1
  Fe  Fe32  1  0.16868110  0.50133502  0.83695291  1
  Cr  Cr33  1  0.17049732  0.83524446  0.50299394  1
  Fe  Fe34  1  1.00211226  0.66705310  0.66843569  1
  Cr  Cr35  1  0.17056590  0.83531389  0.83588675  1
  Cr  Cr36  1  0.50512849  0.16889178  0.50140731  1
  Ni  Ni37  1  0.33602602  1.00185625  0.66971041  1
  Fe  Fe38  1  0.50365622  0.16866275  0.83600585  1
  Ni  Ni39  1  0.50204268  0.50426589  0.50071038  1
  Cr  Cr40  1  0.33494852  0.33688994  0.66988759  1
  Ni  Ni41  1  0.50256483  0.50273127  0.83754542  1
  Fe  Fe42  1  0.50274352  0.83429413  0.50264090  1
  Fe  Fe43  1  0.33851064  0.66955652  0.66893617  1
  Fe  Fe44  1  0.50327163  0.83561252  0.83583766  1
  Ni  Ni45  1  0.83662226  0.16994717  0.50319876  1
  Ni  Ni46  1  0.66946592  1.00249142  0.67025803  1
  Ni  Ni47  1  0.83546475  0.17037237  0.83527148  1
  Fe  Fe48  1  0.83574057  0.50094709  0.50231264  1
  Ni  Ni49  1  0.67149722  0.33735690  0.67027218  1
  Fe  Fe50  1  0.83508711  0.50095770  0.83647979  1
  Cr  Cr51  1  0.83537103  0.83795437  0.50197692  1
  Ni  Ni52  1  0.66741012  0.66789590  0.66788618  1
  Cr  Cr53  1  0.83563859  0.83755557  0.83708682  1
" 