3259,Ni37Cr63_6,-225.534038553103, 146.867563728424,Ni37Cr63,"# generated using pymatgen
 data_Cr19Ni35
_symmetry_space_group_name_H-M   'P 1'
_cell_length_a   7.49181740
_cell_length_b   7.49181740
_cell_length_c   10.59502977
_cell_angle_alpha   90.00000000
_cell_angle_beta   90.00000000
_cell_angle_gamma   90.00000000
_symmetry_Int_Tables_number   1
_chemical_formula_structural   Cr19Ni35
_chemical_formula_sum   'Cr19 Ni35'
_cell_volume   594.67070981
_cell_formula_units_Z   1
loop_
 _symmetry_equiv_pos_site_id
 _symmetry_equiv_pos_as_xyz
  1  'x, y, z'
loop_
 _atom_site_type_symbol
 _atom_site_label
 _atom_site_symmetry_multiplicity
 _atom_site_fract_x
 _atom_site_fract_y
 _atom_site_fract_z
 _atom_site_occupancy
  Ni  Ni0  1  0.99822581  0.00183661  0.99769637  1
  Ni  Ni1  1  0.16260554  0.16653859  0.16497204  1
  Ni  Ni2  1  0.99746528  0.99747177  0.33193595  1
  Ni  Ni3  1  0.99748874  0.32878862  0.99764882  1
  Ni  Ni4  1  0.16725371  0.49614089  0.16532937  1
  Cr  Cr5  1  0.00089067  0.33061643  0.33059191  1
  Cr  Cr6  1  -0.00081493  0.66453023  0.99549723  1
  Cr  Cr7  1  0.16385764  0.83236237  0.16367933  1
  Ni  Ni8  1  0.99642394  0.66694708  0.33404047  1
  Ni  Ni9  1  0.33004167  -0.00158963  0.99629014  1
  Cr  Cr10  1  0.49951275  0.16548165  0.16440342  1
  Cr  Cr11  1  0.33000232  0.00026498  0.33433039  1
  Cr  Cr12  1  0.33039286  0.33215399  0.00000787  1
  Ni  Ni13  1  0.49709000  0.49885215  0.16461827  1
  Ni  Ni14  1  0.32983002  0.33164947  0.32950649  1
  Ni  Ni15  1  0.33189414  0.66500885  -0.00113190  1
  Cr  Cr16  1  0.50010311  0.83002173  0.16280822  1
  Cr  Cr17  1  0.33216671  0.66306475  0.33071198  1
  Ni  Ni18  1  0.66677696  0.00013690  0.99705492  1
  Ni  Ni19  1  0.83348334  0.16370766  0.16311662  1
  Ni  Ni20  1  0.66787951  0.99546578  0.33250270  1
  Ni  Ni21  1  0.66729368  0.33063883  0.99759197  1
  Cr  Cr22  1  0.83112472  0.49781048  0.16461867  1
  Cr  Cr23  1  0.66362076  0.33281170  0.33059090  1
  Ni  Ni24  1  0.66385596  0.66423409  0.99834226  1
  Cr  Cr25  1  0.83107190  0.83454247  0.16638012  1
  Ni  Ni26  1  0.66678509  0.66681660  0.33346483  1
  Ni  Ni27  1  0.16523365  0.16298082  0.49743186  1
  Cr  Cr28  1  -0.00062790  0.99725613  0.66561335  1
  Ni  Ni29  1  0.16385428  0.16416804  0.83265117  1
  Cr  Cr30  1  0.16233806  0.49869547  0.49918733  1
  Ni  Ni31  1  0.99658625  0.33382370  0.66682580  1
  Ni  Ni32  1  0.16204737  0.49919686  0.83104419  1
  Ni  Ni33  1  0.16420909  0.83240150  0.49911898  1
  Ni  Ni34  1  0.99731354  0.66385394  0.66523647  1
  Ni  Ni35  1  0.16520639  0.83168877  0.83168137  1
  Cr  Cr36  1  0.49758172  0.16286925  0.49991425  1
  Ni  Ni37  1  0.33188313  0.99669289  0.66469711  1
  Ni  Ni38  1  0.50026602  0.16309086  0.83134740  1
  Cr  Cr39  1  0.50048324  0.50001928  0.49870820  1
  Cr  Cr40  1  0.33032343  0.32942787  0.66559390  1
  Cr  Cr41  1  0.49982931  0.49858550  0.83189892  1
  Ni  Ni42  1  0.50014253  0.83179641  0.49982267  1
  Ni  Ni43  1  0.33008482  0.66838660  0.66507666  1
  Cr  Cr44  1  0.49768238  0.83336222  0.83218876  1
  Cr  Cr45  1  0.83235423  0.16469974  0.49849311  1
  Ni  Ni46  1  0.66368915  0.99745483  0.66545725  1
  Ni  Ni47  1  0.83093537  0.16626759  0.83336096  1
  Ni  Ni48  1  0.83174986  0.50235593  0.50035208  1
  Ni  Ni49  1  0.66825751  0.33206861  0.66689576  1
  Ni  Ni50  1  0.83289427  0.49693478  0.83008723  1
  Ni  Ni51  1  0.83070975  0.82899905  0.49633854  1
  Ni  Ni52  1  0.66760492  0.66551318  0.66324844  1
  Ni  Ni53  1  0.83177708  0.83183650  0.83186024  1
" 