8262,Ni37Fe53Cr8_18,-235.394923629312, 206.084022984516,Ni37Fe53Cr8,"# generated using pymatgen
 data_Cr5Fe29Ni20
_symmetry_space_group_name_H-M   'P 1'
_cell_length_a   7.41384248
_cell_length_b   7.41384248
_cell_length_c   10.48475659
_cell_angle_alpha   90.00000000
_cell_angle_beta   90.00000000
_cell_angle_gamma   90.00000000
_symmetry_Int_Tables_number   1
_chemical_formula_structural   Cr5Fe29Ni20
_chemical_formula_sum   'Cr5 Fe29 Ni20'
_cell_volume   576.29527911
_cell_formula_units_Z   1
loop_
 _symmetry_equiv_pos_site_id
 _symmetry_equiv_pos_as_xyz
  1  'x, y, z'
loop_
 _atom_site_type_symbol
 _atom_site_label
 _atom_site_symmetry_multiplicity
 _atom_site_fract_x
 _atom_site_fract_y
 _atom_site_fract_z
 _atom_site_occupancy
  Ni  Ni0  1  0.00493707  1.00346653  0.00523443  1
  Fe  Fe1  1  0.17043278  0.17039877  0.16944358  1
  Fe  Fe2  1  0.00482950  0.00432551  0.33591832  1
  Ni  Ni3  1  1.00293168  0.33697541  0.00391400  1
  Fe  Fe4  1  0.17068572  0.50237664  0.17121259  1
  Fe  Fe5  1  0.00469086  0.33692254  0.33676907  1
  Fe  Fe6  1  1.00295399  0.67029975  1.00305180  1
  Fe  Fe7  1  0.17102053  0.83787894  0.17022098  1
  Fe  Fe8  1  0.00602132  0.66955265  0.33724958  1
  Fe  Fe9  1  0.33525547  0.00480705  0.00374345  1
  Ni  Ni10  1  0.50266592  0.17106382  0.16969764  1
  Ni  Ni11  1  0.33640668  1.00315643  0.33661294  1
  Fe  Fe12  1  0.33649302  0.33589744  1.00293884  1
  Fe  Fe13  1  0.50360189  0.50297040  0.17024883  1
  Fe  Fe14  1  0.33707164  0.33642462  0.33798287  1
  Fe  Fe15  1  0.33612679  0.67020658  0.00434613  1
  Fe  Fe16  1  0.50290691  0.83710639  0.17224280  1
  Ni  Ni17  1  0.33676413  0.67075199  0.33783964  1
  Cr  Cr18  1  0.67058620  0.00444999  1.00315851  1
  Ni  Ni19  1  0.83673588  0.17091326  0.17137160  1
  Fe  Fe20  1  0.66787210  0.00480104  0.33605799  1
  Ni  Ni21  1  0.67042540  0.33852509  0.00469651  1
  Fe  Fe22  1  0.83642172  0.50225918  0.17082066  1
  Fe  Fe23  1  0.66918242  0.33592016  0.33691357  1
  Fe  Fe24  1  0.67173024  0.66911708  1.00270243  1
  Fe  Fe25  1  0.83740446  0.83718769  0.17056777  1
  Fe  Fe26  1  0.66854305  0.67001966  0.33750805  1
  Fe  Fe27  1  0.17026685  0.16983037  0.50439319  1
  Ni  Ni28  1  0.00564719  1.00322168  0.66977123  1
  Ni  Ni29  1  0.17140395  0.17040702  0.83737188  1
  Ni  Ni30  1  0.17019560  0.50319940  0.50357141  1
  Fe  Fe31  1  0.00699635  0.33794620  0.66927008  1
  Fe  Fe32  1  0.16881587  0.50279889  0.83673994  1
  Fe  Fe33  1  0.17045221  0.83825791  0.50311617  1
  Ni  Ni34  1  1.00321970  0.67071440  0.67081251  1
  Ni  Ni35  1  0.16928501  0.83732815  0.83765921  1
  Ni  Ni36  1  0.50241396  0.16834229  0.50359382  1
  Ni  Ni37  1  0.33511880  0.00450308  0.67062105  1
  Fe  Fe38  1  0.50078074  0.16996808  0.83700382  1
  Fe  Fe39  1  0.50476119  0.50356800  0.50193861  1
  Ni  Ni40  1  0.33682995  0.33559963  0.66970654  1
  Fe  Fe41  1  0.50298793  0.50374426  0.83851033  1
  Ni  Ni42  1  0.50270910  0.83825802  0.50338874  1
  Cr  Cr43  1  0.33645552  0.67045998  0.66830710  1
  Fe  Fe44  1  0.50296242  0.83752808  0.83578486  1
  Ni  Ni45  1  0.83686739  0.17085376  0.50266615  1
  Fe  Fe46  1  0.66815255  1.00160229  0.67017514  1
  Cr  Cr47  1  0.83904923  0.16960261  0.83510898  1
  Ni  Ni48  1  0.83975342  0.50341184  0.50316549  1
  Cr  Cr49  1  0.66997513  0.33815222  0.66933612  1
  Fe  Fe50  1  0.83878757  0.50510510  0.83749754  1
  Cr  Cr51  1  0.83605328  0.83715818  0.50443066  1
  Ni  Ni52  1  0.67110675  0.66934640  0.67106667  1
  Ni  Ni53  1  0.83801936  0.83508185  0.83629255  1
" 