8694,Ni37Fe39Cr22_15,-230.61127877885, 197.911216687322,Ni37Fe39Cr22,"# generated using pymatgen
 data_Cr13Fe21Ni20
_symmetry_space_group_name_H-M   'P 1'
_cell_length_a   7.44326982
_cell_length_b   7.44326982
_cell_length_c   10.52637313
_cell_angle_alpha   90.00000000
_cell_angle_beta   90.00000000
_cell_angle_gamma   90.00000000
_symmetry_Int_Tables_number   1
_chemical_formula_structural   Cr13Fe21Ni20
_chemical_formula_sum   'Cr13 Fe21 Ni20'
_cell_volume   583.18492056
_cell_formula_units_Z   1
loop_
 _symmetry_equiv_pos_site_id
 _symmetry_equiv_pos_as_xyz
  1  'x, y, z'
loop_
 _atom_site_type_symbol
 _atom_site_label
 _atom_site_symmetry_multiplicity
 _atom_site_fract_x
 _atom_site_fract_y
 _atom_site_fract_z
 _atom_site_occupancy
  Ni  Ni0  1  0.00359228  0.00316297  1.00028652  1
  Cr  Cr1  1  0.16675346  0.16797306  0.16826269  1
  Cr  Cr2  1  0.99953237  0.00169500  0.33658960  1
  Ni  Ni3  1  1.00138783  0.33610719  0.00176644  1
  Fe  Fe4  1  0.16867985  0.50247550  0.16937569  1
  Fe  Fe5  1  1.00003283  0.33691701  0.33649452  1
  Fe  Fe6  1  0.00161389  0.66563322  0.00319321  1
  Ni  Ni7  1  0.16722904  0.83378811  0.16582823  1
  Ni  Ni8  1  0.00273077  0.66528050  0.33356522  1
  Fe  Fe9  1  0.33328611  1.00123855  0.99946004  1
  Cr  Cr10  1  0.50122839  0.17128720  0.16905326  1
  Cr  Cr11  1  0.33636544  0.00196585  0.33700157  1
  Fe  Fe12  1  0.33525336  0.33658873  1.00045830  1
  Ni  Ni13  1  0.50180157  0.50149902  0.16851324  1
  Ni  Ni14  1  0.33302351  0.33707508  0.33636071  1
  Fe  Fe15  1  0.33338927  0.66670566  1.00123103  1
  Fe  Fe16  1  0.49927598  0.83294641  0.16796874  1
  Fe  Fe17  1  0.33248121  0.66765363  0.33359465  1
  Cr  Cr18  1  0.66839897  0.00342665  0.00307644  1
  Fe  Fe19  1  0.83541495  0.17067512  0.16828717  1
  Ni  Ni20  1  0.66837342  0.00216419  0.33506584  1
  Ni  Ni21  1  0.67002926  0.33655042  1.00144638  1
  Ni  Ni22  1  0.83488563  0.50077540  0.16871529  1
  Fe  Fe23  1  0.67103307  0.33397594  0.33489379  1
  Cr  Cr24  1  0.66719126  0.66521729  1.00104451  1
  Fe  Fe25  1  0.83757849  0.83474929  0.16797404  1
  Cr  Cr26  1  0.67053086  0.66905402  0.33463980  1
  Ni  Ni27  1  0.16691771  0.16972866  0.50267191  1
  Fe  Fe28  1  1.00152552  0.00484314  0.66772879  1
  Ni  Ni29  1  0.16738713  0.16826094  0.83500578  1
  Ni  Ni30  1  0.16683152  0.49918755  0.49868239  1
  Ni  Ni31  1  0.00186692  0.33435655  0.66738655  1
  Fe  Fe32  1  0.16774573  0.49892002  0.83569796  1
  Fe  Fe33  1  0.16555234  0.83236566  0.49993795  1
  Cr  Cr34  1  0.00168985  0.66425308  0.66764182  1
  Fe  Fe35  1  0.16932362  0.83424457  0.83829886  1
  Fe  Fe36  1  0.50349615  0.17190639  0.50007341  1
  Cr  Cr37  1  0.33345123  0.00342092  0.66782639  1
  Fe  Fe38  1  0.50163937  0.17164196  0.83607480  1
  Cr  Cr39  1  0.50327234  0.50133984  0.50215934  1
  Fe  Fe40  1  0.33379405  0.33509371  0.66830260  1
  Ni  Ni41  1  0.50290378  0.50041418  0.83444460  1
  Fe  Fe42  1  0.50372743  0.83524932  0.50190616  1
  Cr  Cr43  1  0.33466022  0.66782775  0.66793995  1
  Ni  Ni44  1  0.50007313  0.83316968  0.83605892  1
  Ni  Ni45  1  0.83587608  0.16929407  0.50154573  1
  Cr  Cr46  1  0.66726777  0.00304544  0.66729727  1
  Fe  Fe47  1  0.83646849  0.17206986  0.83508967  1
  Ni  Ni48  1  0.83537723  0.50048387  0.50255120  1
  Ni  Ni49  1  0.67081042  0.33572416  0.66946061  1
  Ni  Ni50  1  0.83335099  0.49926068  0.83381273  1
  Fe  Fe51  1  0.83570056  0.83344201  0.50187003  1
  Ni  Ni52  1  0.66802413  0.66649248  0.66891188  1
  Cr  Cr53  1  0.83642564  0.83363492  0.83372819  1
" 