1230,Ni37Cr63_15,-225.420343982382, 143.826417004144,Ni37Cr63,"# generated using pymatgen
 data_Cr19Ni35
_symmetry_space_group_name_H-M   'P 1'
_cell_length_a   7.49615260
_cell_length_b   7.49615260
_cell_length_c   10.60116068
_cell_angle_alpha   90.00000000
_cell_angle_beta   90.00000000
_cell_angle_gamma   90.00000000
_symmetry_Int_Tables_number   1
_chemical_formula_structural   Cr19Ni35
_chemical_formula_sum   'Cr19 Ni35'
_cell_volume   595.70364219
_cell_formula_units_Z   1
loop_
 _symmetry_equiv_pos_site_id
 _symmetry_equiv_pos_as_xyz
  1  'x, y, z'
loop_
 _atom_site_type_symbol
 _atom_site_label
 _atom_site_symmetry_multiplicity
 _atom_site_fract_x
 _atom_site_fract_y
 _atom_site_fract_z
 _atom_site_occupancy
  Ni  Ni0  1  -0.00115439  0.00031120  0.99651460  1
  Ni  Ni1  1  0.16515180  0.16600051  0.16475022  1
  Ni  Ni2  1  0.00004222  -0.00071896  0.33156175  1
  Ni  Ni3  1  -0.00128915  0.33103933  0.00013854  1
  Ni  Ni4  1  0.16222871  0.49503608  0.16489728  1
  Ni  Ni5  1  0.00194310  0.33202504  0.32836836  1
  Ni  Ni6  1  -0.00167434  0.66263969  0.99641332  1
  Cr  Cr7  1  0.16382966  0.83396709  0.16375186  1
  Ni  Ni8  1  0.00024971  0.66297711  0.33291618  1
  Ni  Ni9  1  0.33035559  -0.00095919  -0.00092445  1
  Ni  Ni10  1  0.49410170  0.16599764  0.16402641  1
  Ni  Ni11  1  0.32984359  -0.00116652  0.33023130  1
  Ni  Ni12  1  0.33014533  0.33198564  0.00019387  1
  Ni  Ni13  1  0.49812881  0.49579894  0.16201685  1
  Ni  Ni14  1  0.32734934  0.33089676  0.32826500  1
  Cr  Cr15  1  0.33007147  0.66270644  0.99583326  1
  Ni  Ni16  1  0.49684731  0.83238617  0.16370234  1
  Cr  Cr17  1  0.32887378  0.66286291  0.33218540  1
  Cr  Cr18  1  0.66620816  -0.00001236  0.99787139  1
  Ni  Ni19  1  0.83536539  0.16700837  0.16314967  1
  Cr  Cr20  1  0.66540749  -0.00133950  0.33117165  1
  Ni  Ni21  1  0.66524093  0.33235443  -0.00021294  1
  Ni  Ni22  1  0.83359455  0.49670784  0.16295055  1
  Cr  Cr23  1  0.66631453  0.32967738  0.32706253  1
  Ni  Ni24  1  0.66403574  0.66312141  -0.00166653  1
  Cr  Cr25  1  0.83471029  0.82751736  0.16346971  1
  Cr  Cr26  1  0.66421521  0.66547243  0.33066384  1
  Cr  Cr27  1  0.16583288  0.16480988  0.49777503  1
  Ni  Ni28  1  -0.00063044  0.99581970  0.66597848  1
  Cr  Cr29  1  0.16458025  0.16390841  0.83190680  1
  Ni  Ni30  1  0.16239614  0.49787772  0.49822219  1
  Ni  Ni31  1  0.00019282  0.33220196  0.66586847  1
  Ni  Ni32  1  0.16366923  0.49750773  0.83105613  1
  Ni  Ni33  1  0.16228920  0.83210639  0.49814965  1
  Ni  Ni34  1  0.00056418  0.66627211  0.66436119  1
  Ni  Ni35  1  0.16208285  0.83187756  0.83150562  1
  Cr  Cr36  1  0.49347127  0.16531179  0.50019998  1
  Ni  Ni37  1  0.32887759  0.99518768  0.66459642  1
  Cr  Cr38  1  0.49581029  0.16755545  0.82977121  1
  Cr  Cr39  1  0.49631542  0.49453666  0.50043677  1
  Ni  Ni40  1  0.32799063  0.33355229  0.66595233  1
  Ni  Ni41  1  0.49752262  0.49674606  0.83247361  1
  Ni  Ni42  1  0.49502534  0.83361191  0.49762993  1
  Cr  Cr43  1  0.32708269  0.66497443  0.66628205  1
  Ni  Ni44  1  0.49681331  0.83115925  0.83286541  1
  Cr  Cr45  1  0.83488339  0.16588961  0.50030191  1
  Cr  Cr46  1  0.66758658  0.99728647  0.66510644  1
  Ni  Ni47  1  0.83383189  0.16537140  0.83119418  1
  Cr  Cr48  1  0.83497757  0.49909013  0.49833909  1
  Ni  Ni49  1  0.66579466  0.33106842  0.66773758  1
  Cr  Cr50  1  0.83151015  0.49787341  0.83272159  1
  Ni  Ni51  1  0.83692169  0.83099589  0.49786899  1
  Cr  Cr52  1  0.66441464  0.66726515  0.66524265  1
  Ni  Ni53  1  0.83522489  0.83101754  0.83232254  1
" 