2159,Ni37Fe49Cr12_12,-233.244236014716, 203.477234291977,Ni37Fe49Cr12,"# generated using pymatgen
 data_Cr4Fe13Ni10
_symmetry_space_group_name_H-M   'P 1'
_cell_length_a   7.42271461
_cell_length_b   7.42271461
_cell_length_c   10.49730367
_cell_angle_alpha   90.00000000
_cell_angle_beta   90.00000000
_cell_angle_gamma   90.00000000
_symmetry_Int_Tables_number   1
_chemical_formula_structural   Cr4Fe13Ni10
_chemical_formula_sum   'Cr8 Fe26 Ni20'
_cell_volume   578.36670848
_cell_formula_units_Z   2
loop_
 _symmetry_equiv_pos_site_id
 _symmetry_equiv_pos_as_xyz
  1  'x, y, z'
loop_
 _atom_site_type_symbol
 _atom_site_label
 _atom_site_symmetry_multiplicity
 _atom_site_fract_x
 _atom_site_fract_y
 _atom_site_fract_z
 _atom_site_occupancy
  Fe  Fe0  1  1.00180839  0.00309789  1.00287715  1
  Fe  Fe1  1  0.16827139  0.17286865  0.16814469  1
  Fe  Fe2  1  0.99880915  0.00421151  0.33599428  1
  Fe  Fe3  1  1.00289258  0.33645971  0.00446381  1
  Ni  Ni4  1  0.17089248  0.50310210  0.16989841  1
  Fe  Fe5  1  1.00247356  0.33685890  0.33441311  1
  Fe  Fe6  1  1.00272621  0.66852720  1.00215614  1
  Cr  Cr7  1  0.17145936  0.83540550  0.16873226  1
  Fe  Fe8  1  1.00278259  0.66774568  0.33642139  1
  Ni  Ni9  1  0.33768441  0.00481086  1.00204835  1
  Fe  Fe10  1  0.50323718  0.17183080  0.16781153  1
  Cr  Cr11  1  0.33754269  0.00359244  0.33604458  1
  Ni  Ni12  1  0.33551830  0.33617352  0.00371131  1
  Fe  Fe13  1  0.50350259  0.50235006  0.16834544  1
  Ni  Ni14  1  0.33833479  0.33780222  0.33541117  1
  Fe  Fe15  1  0.33957798  0.66854840  1.00177945  1
  Fe  Fe16  1  0.50561124  0.83504323  0.16793529  1
  Fe  Fe17  1  0.33843938  0.66638368  0.33725782  1
  Ni  Ni18  1  0.66881055  1.00113727  0.00465204  1
  Ni  Ni19  1  0.83470611  0.16951456  0.17010264  1
  Fe  Fe20  1  0.67036238  0.00431570  0.33492922  1
  Fe  Fe21  1  0.66681297  0.33611798  0.00355115  1
  Ni  Ni22  1  0.83620667  0.50211026  0.16841932  1
  Ni  Ni23  1  0.66910765  0.33699562  0.33476783  1
  Ni  Ni24  1  0.67194514  0.66966424  0.00348627  1
  Fe  Fe25  1  0.83579845  0.83488988  0.16925658  1
  Fe  Fe26  1  0.66827819  0.66943406  0.33407485  1
  Cr  Cr27  1  0.16937573  0.17158770  0.50150334  1
  Cr  Cr28  1  0.00390542  1.00014529  0.66937793  1
  Ni  Ni29  1  0.17222400  0.16839754  0.83983929  1
  Ni  Ni30  1  0.17241307  0.50650339  0.50161407  1
  Cr  Cr31  1  1.00228918  0.33883673  0.67092054  1
  Fe  Fe32  1  0.17076034  0.50417636  0.83773749  1
  Fe  Fe33  1  0.16827019  0.83335453  0.50282606  1
  Ni  Ni34  1  1.00247505  0.67140762  0.67084233  1
  Fe  Fe35  1  0.17186104  0.83591813  0.83750803  1
  Fe  Fe36  1  0.50687695  0.17057626  0.50331417  1
  Ni  Ni37  1  0.33843460  1.00049060  0.67086070  1
  Ni  Ni38  1  0.50216675  0.16983171  0.83655904  1
  Fe  Fe39  1  0.50397965  0.50323424  0.50271062  1
  Cr  Cr40  1  0.33824376  0.33577775  0.66957434  1
  Ni  Ni41  1  0.50268496  0.50420494  0.83706285  1
  Fe  Fe42  1  0.50388773  0.83529966  0.50394148  1
  Ni  Ni43  1  0.33553700  0.67155189  0.66929669  1
  Fe  Fe44  1  0.50369217  0.83726128  0.83765535  1
  Ni  Ni45  1  0.83193201  0.16798460  0.50205562  1
  Fe  Fe46  1  0.66766672  1.00122512  0.66953697  1
  Cr  Cr47  1  0.83348622  0.16834943  0.83642226  1
  Cr  Cr48  1  0.83574602  0.50297106  0.50440246  1
  Ni  Ni49  1  0.66808764  0.33700449  0.67067977  1
  Fe  Fe50  1  0.83366349  0.50454149  0.83766659  1
  Ni  Ni51  1  0.83367677  0.83643588  0.50070260  1
  Fe  Fe52  1  0.66871268  0.67101521  0.67197225  1
  Ni  Ni53  1  0.83561903  0.83418572  0.83799163  1
" 