4536,Ni37Fe49Cr12_3,-234.052446569162, 204.524623365167,Ni37Fe49Cr12,"# generated using pymatgen
 data_Cr4Fe13Ni10
_symmetry_space_group_name_H-M   'P 1'
_cell_length_a   7.42836003
_cell_length_b   7.42836003
_cell_length_c   10.50528750
_cell_angle_alpha   90.00000000
_cell_angle_beta   90.00000000
_cell_angle_gamma   90.00000000
_symmetry_Int_Tables_number   1
_chemical_formula_structural   Cr4Fe13Ni10
_chemical_formula_sum   'Cr8 Fe26 Ni20'
_cell_volume   579.68736141
_cell_formula_units_Z   2
loop_
 _symmetry_equiv_pos_site_id
 _symmetry_equiv_pos_as_xyz
  1  'x, y, z'
loop_
 _atom_site_type_symbol
 _atom_site_label
 _atom_site_symmetry_multiplicity
 _atom_site_fract_x
 _atom_site_fract_y
 _atom_site_fract_z
 _atom_site_occupancy
  Ni  Ni0  1  1.00019658  0.00354798  0.00461735  1
  Ni  Ni1  1  0.16853051  0.17126241  0.16795487  1
  Fe  Fe2  1  0.00319984  0.00449666  0.33475135  1
  Fe  Fe3  1  1.00081612  0.33500913  1.00199621  1
  Fe  Fe4  1  0.16837453  0.50032156  0.16729611  1
  Fe  Fe5  1  0.00262100  0.33495435  0.33602447  1
  Fe  Fe6  1  1.00002555  0.66971551  0.00277594  1
  Fe  Fe7  1  0.16676153  0.83802342  0.16655621  1
  Cr  Cr8  1  1.00169286  0.66924801  0.33507880  1
  Fe  Fe9  1  0.33627604  0.00482134  1.00181654  1
  Fe  Fe10  1  0.50421285  0.17137867  0.16686230  1
  Cr  Cr11  1  0.33571220  0.00445929  0.33525054  1
  Fe  Fe12  1  0.33643235  0.33513575  1.00254829  1
  Fe  Fe13  1  0.50459084  0.49922669  0.16799727  1
  Ni  Ni14  1  0.33633351  0.33643922  0.33463286  1
  Fe  Fe15  1  0.33580473  0.66789896  1.00164137  1
  Cr  Cr16  1  0.50396093  0.83393378  0.16591695  1
  Cr  Cr17  1  0.33424256  0.66676205  0.33668479  1
  Ni  Ni18  1  0.67156848  0.00341745  1.00151252  1
  Ni  Ni19  1  0.83751147  0.17042442  0.16977965  1
  Cr  Cr20  1  0.67186794  0.00398426  0.33676220  1
  Fe  Fe21  1  0.67068493  0.33456976  1.00139624  1
  Fe  Fe22  1  0.83469454  0.50142613  0.16873681  1
  Fe  Fe23  1  0.66934358  0.33763045  0.33679340  1
  Ni  Ni24  1  0.67082270  0.66847237  1.00248448  1
  Ni  Ni25  1  0.83566340  0.83571873  0.16889649  1
  Fe  Fe26  1  0.66892191  0.66713472  0.33623777  1
  Cr  Cr27  1  0.16842683  0.17000313  0.50568344  1
  Ni  Ni28  1  1.00123479  0.00284868  0.66884365  1
  Fe  Fe29  1  0.16775868  0.16941220  0.83559508  1
  Fe  Fe30  1  0.16753955  0.50107334  0.50468064  1
  Ni  Ni31  1  1.00159446  0.33706528  0.67071804  1
  Fe  Fe32  1  0.16875896  0.50066766  0.83515530  1
  Fe  Fe33  1  0.16737915  0.83510437  0.50585357  1
  Ni  Ni34  1  1.00191552  0.66743497  0.66965842  1
  Cr  Cr35  1  0.16865571  0.83611593  0.83543495  1
  Fe  Fe36  1  0.50351201  0.17325672  0.50436842  1
  Ni  Ni37  1  0.33705087  0.00299127  0.67012212  1
  Ni  Ni38  1  0.50173188  0.17119051  0.83634657  1
  Fe  Fe39  1  0.50355318  0.50006764  0.50397616  1
  Ni  Ni40  1  0.33632175  0.33690795  0.67054454  1
  Fe  Fe41  1  0.50409239  0.50327472  0.83534826  1
  Fe  Fe42  1  0.50320816  0.83469742  0.50420259  1
  Ni  Ni43  1  0.33621526  0.66762721  0.66847526  1
  Fe  Fe44  1  0.50449747  0.83568126  0.83667185  1
  Ni  Ni45  1  0.83712835  0.17233674  0.50276733  1
  Cr  Cr46  1  0.67033822  0.00397438  0.67077380  1
  Ni  Ni47  1  0.83654751  0.16986214  0.83561572  1
  Ni  Ni48  1  0.83439911  0.50199884  0.50350791  1
  Ni  Ni49  1  0.66977932  0.33640152  0.66983218  1
  Fe  Fe50  1  0.83487105  0.50291966  0.83460164  1
  Fe  Fe51  1  0.83747437  0.83524284  0.50405239  1
  Ni  Ni52  1  0.66968106  0.66820913  0.66868048  1
  Ni  Ni53  1  0.83608937  0.83483990  0.83610633  1
" 