357,Ni37Fe53Cr8_7,-235.378110865976, 206.211814233117,Ni37Fe53Cr8,"# generated using pymatgen
 data_Cr5Fe29Ni20
_symmetry_space_group_name_H-M   'P 1'
_cell_length_a   7.41493319
_cell_length_b   7.41493319
_cell_length_c   10.48629908
_cell_angle_alpha   90.00000000
_cell_angle_beta   90.00000000
_cell_angle_gamma   90.00000000
_symmetry_Int_Tables_number   1
_chemical_formula_structural   Cr5Fe29Ni20
_chemical_formula_sum   'Cr5 Fe29 Ni20'
_cell_volume   576.54966510
_cell_formula_units_Z   1
loop_
 _symmetry_equiv_pos_site_id
 _symmetry_equiv_pos_as_xyz
  1  'x, y, z'
loop_
 _atom_site_type_symbol
 _atom_site_label
 _atom_site_symmetry_multiplicity
 _atom_site_fract_x
 _atom_site_fract_y
 _atom_site_fract_z
 _atom_site_occupancy
  Cr  Cr0  1  0.00494057  0.00473044  1.00322997  1
  Fe  Fe1  1  0.17122762  0.17071786  0.17019184  1
  Fe  Fe2  1  0.00357524  0.00366564  0.33781879  1
  Fe  Fe3  1  1.00324641  0.33816079  0.00359870  1
  Fe  Fe4  1  0.16924128  0.50247823  0.17113987  1
  Fe  Fe5  1  1.00262365  0.33783431  0.33658466  1
  Fe  Fe6  1  1.00279005  0.66765614  1.00306124  1
  Fe  Fe7  1  0.17152537  0.83734926  0.17129757  1
  Ni  Ni8  1  1.00346903  0.66989113  0.33773886  1
  Ni  Ni9  1  0.33687585  0.00539747  0.00375406  1
  Ni  Ni10  1  0.50289596  0.17014981  0.17041071  1
  Fe  Fe11  1  0.33754654  1.00218879  0.33614267  1
  Ni  Ni12  1  0.33740458  0.33446898  0.00353055  1
  Fe  Fe13  1  0.50576722  0.50247082  0.17065731  1
  Fe  Fe14  1  0.33608282  0.33689003  0.33610396  1
  Cr  Cr15  1  0.33832057  0.67112638  0.00438323  1
  Ni  Ni16  1  0.50239008  0.83767830  0.17062725  1
  Fe  Fe17  1  0.33638213  0.67146394  0.33610832  1
  Fe  Fe18  1  0.66686324  0.00497803  1.00298070  1
  Ni  Ni19  1  0.83593803  0.17336123  0.17082555  1
  Fe  Fe20  1  0.66941682  1.00336632  0.33719981  1
  Ni  Ni21  1  0.67019768  0.33769734  0.00390201  1
  Ni  Ni22  1  0.83752643  0.50221995  0.17012578  1
  Fe  Fe23  1  0.67183531  0.33666875  0.33550142  1
  Ni  Ni24  1  0.67081773  0.66854779  1.00343979  1
  Cr  Cr25  1  0.83558889  0.83534949  0.17020803  1
  Ni  Ni26  1  0.67046216  0.67012949  0.33631176  1
  Fe  Fe27  1  0.17158219  0.16920892  0.50360546  1
  Ni  Ni28  1  0.00426698  1.00211175  0.66933505  1
  Ni  Ni29  1  0.17234686  0.17032976  0.83707081  1
  Fe  Fe30  1  0.17003422  0.50460437  0.50262190  1
  Cr  Cr31  1  0.00364971  0.33495349  0.67102603  1
  Fe  Fe32  1  0.17022891  0.50264380  0.83678662  1
  Fe  Fe33  1  0.17025374  0.83672521  0.50383486  1
  Fe  Fe34  1  1.00323115  0.67150565  0.67012522  1
  Ni  Ni35  1  0.16919192  0.83663505  0.83486492  1
  Fe  Fe36  1  0.50333113  0.16890539  0.50390245  1
  Fe  Fe37  1  0.33712199  0.00403409  0.67088955  1
  Ni  Ni38  1  0.50287555  0.17137345  0.83609856  1
  Cr  Cr39  1  0.50363387  0.50369103  0.50333978  1
  Ni  Ni40  1  0.33785260  0.33566089  0.67121131  1
  Fe  Fe41  1  0.50465445  0.50186271  0.83574253  1
  Ni  Ni42  1  0.50355598  0.83745151  0.50385478  1
  Fe  Fe43  1  0.33632382  0.67064528  0.67083121  1
  Fe  Fe44  1  0.50447147  0.83853844  0.83636926  1
  Fe  Fe45  1  0.83563009  0.16912264  0.50313966  1
  Fe  Fe46  1  0.67041324  0.00419803  0.67036197  1
  Ni  Ni47  1  0.83531749  0.17012338  0.83704510  1
  Fe  Fe48  1  0.83662947  0.50523946  0.50215644  1
  Ni  Ni49  1  0.66871141  0.33705631  0.67040431  1
  Fe  Fe50  1  0.83566047  0.50401660  0.83805118  1
  Fe  Fe51  1  0.83632175  0.83617766  0.50380040  1
  Ni  Ni52  1  0.67038453  0.67080776  0.67078749  1
  Ni  Ni53  1  0.83713802  0.83550494  0.83563299  1
" 