3945,Ni38Fe39Cr22_14,-230.473975558391, 200.214078751811,Ni38Fe39Cr22,"# generated using pymatgen
 data_Cr13Fe21Ni20
_symmetry_space_group_name_H-M   'P 1'
_cell_length_a   7.43948861
_cell_length_b   7.43948861
_cell_length_c   10.52102569
_cell_angle_alpha   90.00000000
_cell_angle_beta   90.00000000
_cell_angle_gamma   90.00000000
_symmetry_Int_Tables_number   1
_chemical_formula_structural   Cr13Fe21Ni20
_chemical_formula_sum   'Cr13 Fe21 Ni20'
_cell_volume   582.29659051
_cell_formula_units_Z   1
loop_
 _symmetry_equiv_pos_site_id
 _symmetry_equiv_pos_as_xyz
  1  'x, y, z'
loop_
 _atom_site_type_symbol
 _atom_site_label
 _atom_site_symmetry_multiplicity
 _atom_site_fract_x
 _atom_site_fract_y
 _atom_site_fract_z
 _atom_site_occupancy
  Ni  Ni0  1  0.00228189  0.00345523  1.00061161  1
  Ni  Ni1  1  0.16761542  0.16870739  0.16831232  1
  Ni  Ni2  1  0.99963718  0.00192702  0.33678118  1
  Ni  Ni3  1  1.00086501  0.33281808  0.00415781  1
  Fe  Fe4  1  0.16875318  0.49826173  0.16817162  1
  Fe  Fe5  1  1.00130786  0.33206873  0.33273045  1
  Cr  Cr6  1  1.00034167  0.66929386  0.00244951  1
  Cr  Cr7  1  0.16986699  0.83884800  0.16786334  1
  Cr  Cr8  1  1.00097203  0.66902939  0.33290922  1
  Ni  Ni9  1  0.33652887  0.00282588  0.00203827  1
  Fe  Fe10  1  0.50183903  0.16710286  0.16807541  1
  Fe  Fe11  1  0.33570293  0.00228166  0.33394689  1
  Ni  Ni12  1  0.33546728  0.33034214  1.00149878  1
  Cr  Cr13  1  0.50171914  0.50170359  0.16865004  1
  Ni  Ni14  1  0.33638248  0.33482314  0.33451437  1
  Fe  Fe15  1  0.33578958  0.67062934  1.00100438  1
  Ni  Ni16  1  0.50236992  0.83727740  0.16865948  1
  Fe  Fe17  1  0.33795230  0.67121502  0.33595002  1
  Fe  Fe18  1  0.66911948  0.00457472  0.00275630  1
  Ni  Ni19  1  0.83626521  0.16826231  0.16955630  1
  Ni  Ni20  1  0.66870223  1.00129078  0.33362935  1
  Ni  Ni21  1  0.66927077  0.33302604  0.00250193  1
  Ni  Ni22  1  0.83484744  0.49866826  0.16825922  1
  Fe  Fe23  1  0.67022508  0.33302661  0.33401193  1
  Cr  Cr24  1  0.66930705  0.67088850  1.00147433  1
  Fe  Fe25  1  0.83372254  0.83919302  0.16901454  1
  Fe  Fe26  1  0.66750533  0.67127686  0.33430063  1
  Cr  Cr27  1  0.16779750  0.16612616  0.50218473  1
  Fe  Fe28  1  1.00078969  0.99975195  0.66907829  1
  Fe  Fe29  1  0.17017289  0.16482509  0.83700701  1
  Cr  Cr30  1  0.16935170  0.50100917  0.49987302  1
  Cr  Cr31  1  0.99968195  0.33346059  0.67077814  1
  Cr  Cr32  1  0.16773986  0.50050935  0.83833501  1
  Fe  Fe33  1  0.16658275  0.83687541  0.50233405  1
  Ni  Ni34  1  1.00011617  0.67111139  0.66960402  1
  Ni  Ni35  1  0.16762224  0.83799150  0.83406564  1
  Cr  Cr36  1  0.50277432  0.16841174  0.50091713  1
  Ni  Ni37  1  0.33654772  1.00159850  0.66904852  1
  Ni  Ni38  1  0.50270233  0.16696559  0.83596573  1
  Fe  Fe39  1  0.50323600  0.50251203  0.50094010  1
  Fe  Fe40  1  0.33631870  0.33282526  0.66939458  1
  Cr  Cr41  1  0.50303009  0.49954265  0.83379856  1
  Fe  Fe42  1  0.50356873  0.83556499  0.50042191  1
  Cr  Cr43  1  0.33498713  0.67176765  0.66789687  1
  Ni  Ni44  1  0.50257629  0.83918471  0.83551451  1
  Fe  Fe45  1  0.83390534  0.16596096  0.50041242  1
  Fe  Fe46  1  0.66887112  1.00123497  0.66891374  1
  Fe  Fe47  1  0.83327295  0.16722576  0.83744198  1
  Cr  Cr48  1  0.83297069  0.50255228  0.50232684  1
  Ni  Ni49  1  0.66809511  0.33299438  0.66844559  1
  Fe  Fe50  1  0.83352847  0.50173819  0.83521346  1
  Ni  Ni51  1  0.83410073  0.83630642  0.50202663  1
  Fe  Fe52  1  0.66978013  0.67158927  0.66965847  1
  Ni  Ni53  1  0.83554087  0.83756588  0.83459320  1
" 