814,Ni38Fe50Cr11_6,-234.941980533465, 209.211914993455,Ni38Fe50Cr11,"# generated using pymatgen
 data_Cr7Fe27Ni20
_symmetry_space_group_name_H-M   'P 1'
_cell_length_a   7.42247771
_cell_length_b   7.42247771
_cell_length_c   10.49696865
_cell_angle_alpha   90.00000000
_cell_angle_beta   90.00000000
_cell_angle_gamma   90.00000000
_symmetry_Int_Tables_number   1
_chemical_formula_structural   Cr7Fe27Ni20
_chemical_formula_sum   'Cr7 Fe27 Ni20'
_cell_volume   578.31133453
_cell_formula_units_Z   1
loop_
 _symmetry_equiv_pos_site_id
 _symmetry_equiv_pos_as_xyz
  1  'x, y, z'
loop_
 _atom_site_type_symbol
 _atom_site_label
 _atom_site_symmetry_multiplicity
 _atom_site_fract_x
 _atom_site_fract_y
 _atom_site_fract_z
 _atom_site_occupancy
  Cr  Cr0  1  1.00271292  1.00246931  1.00201194  1
  Fe  Fe1  1  0.17066705  0.17126499  0.16970826  1
  Cr  Cr2  1  1.00160080  0.00322029  0.33574208  1
  Ni  Ni3  1  1.00268238  0.33717273  0.00335990  1
  Fe  Fe4  1  0.16840281  0.50185975  0.16928249  1
  Ni  Ni5  1  1.00247905  0.33757744  0.33749416  1
  Ni  Ni6  1  0.00425596  0.66943194  0.00504197  1
  Fe  Fe7  1  0.16876758  0.83588105  0.16783182  1
  Fe  Fe8  1  1.00051253  0.66677197  0.33618357  1
  Ni  Ni9  1  0.33734332  1.00243669  0.00317674  1
  Fe  Fe10  1  0.50347946  0.17100626  0.17020869  1
  Fe  Fe11  1  0.33862470  0.00705102  0.33671709  1
  Fe  Fe12  1  0.33546708  0.33653556  1.00285832  1
  Fe  Fe13  1  0.50398326  0.50036382  0.16935250  1
  Ni  Ni14  1  0.33640089  0.33509498  0.33548378  1
  Ni  Ni15  1  0.33568894  0.66951081  1.00048957  1
  Cr  Cr16  1  0.50266371  0.83804637  0.17002987  1
  Cr  Cr17  1  0.33569085  0.66886691  0.33730829  1
  Fe  Fe18  1  0.66887722  0.00340844  1.00264892  1
  Ni  Ni19  1  0.83537826  0.17249650  0.16916992  1
  Ni  Ni20  1  0.66951389  0.00400093  0.33779808  1
  Fe  Fe21  1  0.66925648  0.33553689  0.00363632  1
  Fe  Fe22  1  0.83661924  0.50226335  0.16936873  1
  Ni  Ni23  1  0.67012788  0.33485388  0.33544700  1
  Fe  Fe24  1  0.66954527  0.67006471  1.00285028  1
  Fe  Fe25  1  0.83635749  0.83537790  0.17023994  1
  Fe  Fe26  1  0.67251246  0.66953394  0.33674337  1
  Fe  Fe27  1  0.17148801  0.17188324  0.50360355  1
  Fe  Fe28  1  1.00268683  0.00362697  0.67037930  1
  Fe  Fe29  1  0.17154994  0.16950037  0.83569374  1
  Ni  Ni30  1  0.16648038  0.50059291  0.50379822  1
  Fe  Fe31  1  0.00435600  0.33590853  0.66878873  1
  Fe  Fe32  1  0.17155862  0.50374513  0.83614979  1
  Cr  Cr33  1  0.17039737  0.83576245  0.50345649  1
  Ni  Ni34  1  0.00303213  0.67047606  0.66905297  1
  Ni  Ni35  1  0.17132713  0.83533400  0.83656523  1
  Ni  Ni36  1  0.50332036  0.16810350  0.50119206  1
  Ni  Ni37  1  0.33743733  0.00344815  0.66927803  1
  Ni  Ni38  1  0.50289631  0.16880294  0.83762754  1
  Cr  Cr39  1  0.50331045  0.50156171  0.50414336  1
  Ni  Ni40  1  0.33677125  0.33547662  0.67052614  1
  Fe  Fe41  1  0.50117176  0.50318471  0.83607574  1
  Ni  Ni42  1  0.50539170  0.83960449  0.50373673  1
  Fe  Fe43  1  0.33628126  0.66958779  0.67131945  1
  Ni  Ni44  1  0.50135191  0.83750776  0.83577568  1
  Fe  Fe45  1  0.83477493  0.17032280  0.50265774  1
  Fe  Fe46  1  0.66866664  0.00321056  0.66893982  1
  Fe  Fe47  1  0.83515653  0.16867216  0.83626887  1
  Fe  Fe48  1  0.83750060  0.50336312  0.50324812  1
  Ni  Ni49  1  0.66893880  0.33468416  0.66938877  1
  Cr  Cr50  1  0.83754577  0.50211131  0.83645324  1
  Ni  Ni51  1  0.83430510  0.83540837  0.50324314  1
  Fe  Fe52  1  0.66910170  0.67126018  0.66941644  1
  Fe  Fe53  1  0.83571713  0.83688900  0.83516498  1
" 