3581,Ni38Fe60Cr0_11,-236.920781977358, 207.787755758927,Ni38Fe60Cr0,"# generated using pymatgen
 data_Cr(Fe8Ni5)2
_symmetry_space_group_name_H-M   'P 1'
_cell_length_a   7.40333870
_cell_length_b   7.40333870
_cell_length_c   10.46990200
_cell_angle_alpha   90.00000000
_cell_angle_beta   90.00000000
_cell_angle_gamma   90.00000000
_symmetry_Int_Tables_number   1
_chemical_formula_structural   Cr(Fe8Ni5)2
_chemical_formula_sum   'Cr2 Fe32 Ni20'
_cell_volume   573.84929751
_cell_formula_units_Z   2
loop_
 _symmetry_equiv_pos_site_id
 _symmetry_equiv_pos_as_xyz
  1  'x, y, z'
loop_
 _atom_site_type_symbol
 _atom_site_label
 _atom_site_symmetry_multiplicity
 _atom_site_fract_x
 _atom_site_fract_y
 _atom_site_fract_z
 _atom_site_occupancy
  Ni  Ni0  1  1.00374761  0.00465554  0.00477272  1
  Ni  Ni1  1  0.17042978  0.17110051  0.17289973  1
  Fe  Fe2  1  0.00603187  0.00442895  0.33750511  1
  Ni  Ni3  1  1.00265580  0.33626977  1.00319282  1
  Fe  Fe4  1  0.17005823  0.50528620  0.17207618  1
  Ni  Ni5  1  0.00568817  0.33794774  0.33811358  1
  Fe  Fe6  1  1.00344610  0.67039822  0.00440686  1
  Fe  Fe7  1  0.17105969  0.83820642  0.17103934  1
  Ni  Ni8  1  1.00330702  0.67046389  0.33768904  1
  Fe  Fe9  1  0.33816487  1.00287849  0.00478055  1
  Fe  Fe10  1  0.50400532  0.17032728  0.17130865  1
  Ni  Ni11  1  0.33660773  0.00549220  0.33783500  1
  Cr  Cr12  1  0.33775970  0.33817238  1.00375074  1
  Fe  Fe13  1  0.50530775  0.50580953  0.17157644  1
  Ni  Ni14  1  0.33677238  0.33676870  0.33819143  1
  Ni  Ni15  1  0.33914428  0.67258229  0.00432325  1
  Ni  Ni16  1  0.50384534  0.83642040  0.17019514  1
  Fe  Fe17  1  0.33751575  0.67082347  0.33709722  1
  Fe  Fe18  1  0.67091896  1.00387879  1.00422151  1
  Fe  Fe19  1  0.83897629  0.17132351  0.17015185  1
  Cr  Cr20  1  0.67075583  1.00315350  0.33757327  1
  Ni  Ni21  1  0.67251711  0.33817584  0.00455782  1
  Fe  Fe22  1  0.83754282  0.50467210  0.17059412  1
  Fe  Fe23  1  0.67087677  0.33917193  0.33789908  1
  Ni  Ni24  1  0.67010591  0.67147846  1.00365567  1
  Ni  Ni25  1  0.83780981  0.83577951  0.17046206  1
  Ni  Ni26  1  0.67144353  0.67029764  0.33835327  1
  Fe  Fe27  1  0.17096568  0.17093902  0.50342576  1
  Ni  Ni28  1  1.00381145  0.00449153  0.66974215  1
  Fe  Fe29  1  0.16947504  0.16947064  0.83750640  1
  Fe  Fe30  1  0.17083550  0.50321872  0.50376308  1
  Fe  Fe31  1  1.00399932  0.33736944  0.67093890  1
  Fe  Fe32  1  0.17037358  0.50558966  0.83706414  1
  Fe  Fe33  1  0.17076744  0.83875190  0.50433297  1
  Fe  Fe34  1  1.00403060  0.67137525  0.67079212  1
  Fe  Fe35  1  0.17085200  0.83784849  0.83753404  1
  Ni  Ni36  1  0.50329202  0.17182414  0.50409348  1
  Fe  Fe37  1  0.33793173  0.00453565  0.67065790  1
  Ni  Ni38  1  0.50407389  0.16972068  0.83744190  1
  Fe  Fe39  1  0.50477466  0.50339054  0.50393782  1
  Fe  Fe40  1  0.33759259  0.33678853  0.67058909  1
  Fe  Fe41  1  0.50614182  0.50579203  0.83739624  1
  Fe  Fe42  1  0.50390213  0.83764221  0.50467233  1
  Fe  Fe43  1  0.33719370  0.67158510  0.67171443  1
  Ni  Ni44  1  0.50432085  0.83829499  0.83779961  1
  Ni  Ni45  1  0.83840277  0.17214218  0.50483600  1
  Fe  Fe46  1  0.67110681  0.00456744  0.67084365  1
  Fe  Fe47  1  0.83725510  0.17060434  0.83748677  1
  Fe  Fe48  1  0.83729824  0.50359146  0.50411307  1
  Fe  Fe49  1  0.67131635  0.33662614  0.67135406  1
  Ni  Ni50  1  0.83879255  0.50481575  0.83808181  1
  Fe  Fe51  1  0.83823432  0.83750882  0.50493761  1
  Fe  Fe52  1  0.67168598  0.67171403  0.67154676  1
  Ni  Ni53  1  0.83742602  0.83618467  0.83752206  1
" 