2892,Ni38Fe50Cr11_10,-234.294669913044, 206.8863645254,Ni38Fe50Cr11,"# generated using pymatgen
 data_Cr7Fe27Ni20
_symmetry_space_group_name_H-M   'P 1'
_cell_length_a   7.41757453
_cell_length_b   7.41757453
_cell_length_c   10.49003450
_cell_angle_alpha   90.00000000
_cell_angle_beta   90.00000000
_cell_angle_gamma   90.00000000
_symmetry_Int_Tables_number   1
_chemical_formula_structural   Cr7Fe27Ni20
_chemical_formula_sum   'Cr7 Fe27 Ni20'
_cell_volume   577.16601907
_cell_formula_units_Z   1
loop_
 _symmetry_equiv_pos_site_id
 _symmetry_equiv_pos_as_xyz
  1  'x, y, z'
loop_
 _atom_site_type_symbol
 _atom_site_label
 _atom_site_symmetry_multiplicity
 _atom_site_fract_x
 _atom_site_fract_y
 _atom_site_fract_z
 _atom_site_occupancy
  Cr  Cr0  1  1.00308772  0.00492137  1.00243262  1
  Fe  Fe1  1  0.17094404  0.17174223  0.16985942  1
  Fe  Fe2  1  1.00223732  1.00301162  0.33761886  1
  Ni  Ni3  1  0.00432442  0.33748508  1.00267902  1
  Fe  Fe4  1  0.16964760  0.50213989  0.17063036  1
  Fe  Fe5  1  0.00436002  0.33647112  0.33692605  1
  Fe  Fe6  1  1.00317502  0.66865532  1.00150699  1
  Cr  Cr7  1  0.17156207  0.83629727  0.17038267  1
  Ni  Ni8  1  1.00295821  0.66925412  0.33784158  1
  Ni  Ni9  1  0.33830233  0.00442800  1.00170277  1
  Fe  Fe10  1  0.50262513  0.16837414  0.17019074  1
  Ni  Ni11  1  0.33802606  0.00442884  0.33743152  1
  Fe  Fe12  1  0.33539456  0.33473020  1.00219951  1
  Cr  Cr13  1  0.50212838  0.50449536  0.16920149  1
  Fe  Fe14  1  0.33594106  0.33741923  0.33787149  1
  Fe  Fe15  1  0.33665391  0.67068624  1.00212656  1
  Ni  Ni16  1  0.50270909  0.83741593  0.17106092  1
  Ni  Ni17  1  0.33697074  0.66981578  0.33782256  1
  Cr  Cr18  1  0.66851712  1.00294157  0.00395949  1
  Ni  Ni19  1  0.83738736  0.17046837  0.17068936  1
  Fe  Fe20  1  0.67016643  1.00207419  0.33653652  1
  Fe  Fe21  1  0.67044435  0.33576312  1.00180377  1
  Cr  Cr22  1  0.83780942  0.50298433  0.17111873  1
  Fe  Fe23  1  0.66970595  0.33575087  0.33823596  1
  Fe  Fe24  1  0.67017697  0.67064240  1.00150562  1
  Fe  Fe25  1  0.83465844  0.83641972  0.17190054  1
  Ni  Ni26  1  0.67007226  0.67166651  0.33810695  1
  Fe  Fe27  1  0.17049476  0.17087019  0.50286056  1
  Cr  Cr28  1  0.00373803  0.00350977  0.67106360  1
  Ni  Ni29  1  0.17214758  0.17083963  0.83683154  1
  Ni  Ni30  1  0.17090091  0.50382674  0.50252341  1
  Fe  Fe31  1  1.00327834  0.33911612  0.67051953  1
  Fe  Fe32  1  0.16963524  0.50352856  0.83614707  1
  Fe  Fe33  1  0.17043582  0.83497978  0.50215376  1
  Ni  Ni34  1  0.00343870  0.66800773  0.67048554  1
  Fe  Fe35  1  0.17169087  0.83563081  0.83668303  1
  Fe  Fe36  1  0.50284475  0.17104104  0.50286203  1
  Fe  Fe37  1  0.33688052  1.00235299  0.67092116  1
  Ni  Ni38  1  0.50046973  0.17051772  0.83709567  1
  Ni  Ni39  1  0.50249693  0.50388707  0.50388348  1
  Fe  Fe40  1  0.33666583  0.33767796  0.66993235  1
  Fe  Fe41  1  0.50395676  0.50370267  0.83594675  1
  Fe  Fe42  1  0.50275835  0.83495427  0.50228607  1
  Ni  Ni43  1  0.33697055  0.66889672  0.66980590  1
  Ni  Ni44  1  0.50172718  0.83589074  0.83666522  1
  Ni  Ni45  1  0.83711472  0.17074222  0.50250809  1
  Cr  Cr46  1  0.66922766  1.00313865  0.67058060  1
  Fe  Fe47  1  0.83643298  0.17274950  0.83701356  1
  Fe  Fe48  1  0.83664122  0.50406736  0.50362352  1
  Fe  Fe49  1  0.67006054  0.33911204  0.66996432  1
  Ni  Ni50  1  0.83688008  0.50402472  0.83572646  1
  Ni  Ni51  1  0.83705588  0.83566510  0.50048671  1
  Ni  Ni52  1  0.66959700  0.66831637  0.67022409  1
  Ni  Ni53  1  0.83655527  0.83255294  0.83794610  1
" 