3471,Ni38Fe50Cr11_16,-234.75099072683, 206.767036672561,Ni38Fe50Cr11,"# generated using pymatgen
 data_Cr7Fe27Ni20
_symmetry_space_group_name_H-M   'P 1'
_cell_length_a   7.42522110
_cell_length_b   7.42522110
_cell_length_c   10.50084838
_cell_angle_alpha   90.00000000
_cell_angle_beta   90.00000000
_cell_angle_gamma   90.00000000
_symmetry_Int_Tables_number   1
_chemical_formula_structural   Cr7Fe27Ni20
_chemical_formula_sum   'Cr7 Fe27 Ni20'
_cell_volume   578.95281252
_cell_formula_units_Z   1
loop_
 _symmetry_equiv_pos_site_id
 _symmetry_equiv_pos_as_xyz
  1  'x, y, z'
loop_
 _atom_site_type_symbol
 _atom_site_label
 _atom_site_symmetry_multiplicity
 _atom_site_fract_x
 _atom_site_fract_y
 _atom_site_fract_z
 _atom_site_occupancy
  Ni  Ni0  1  1.00081913  0.00581901  1.00147093  1
  Fe  Fe1  1  0.16926569  0.17177791  0.16812546  1
  Cr  Cr2  1  1.00141550  0.00343500  0.33574018  1
  Ni  Ni3  1  0.00336815  0.33305670  0.00286766  1
  Fe  Fe4  1  0.17055805  0.50003992  0.17060221  1
  Fe  Fe5  1  0.00324221  0.33744127  0.33626763  1
  Cr  Cr6  1  1.00253589  0.66986744  1.00185790  1
  Cr  Cr7  1  0.16918099  0.83744675  0.16886057  1
  Fe  Fe8  1  0.00289381  0.66783611  0.33737506  1
  Fe  Fe9  1  0.33608657  0.00509036  1.00134732  1
  Fe  Fe10  1  0.50389799  0.16969867  0.16987451  1
  Fe  Fe11  1  0.33859224  0.00327577  0.33758284  1
  Fe  Fe12  1  0.33546066  0.33464249  0.00282922  1
  Ni  Ni13  1  0.50239171  0.50171044  0.17009820  1
  Ni  Ni14  1  0.33589086  0.33701813  0.33503021  1
  Cr  Cr15  1  0.33792685  0.66831674  1.00202290  1
  Fe  Fe16  1  0.50594785  0.83638352  0.16993441  1
  Ni  Ni17  1  0.33642618  0.66835532  0.33598446  1
  Ni  Ni18  1  0.67088157  0.00347828  0.00354039  1
  Ni  Ni19  1  0.83582587  0.16850730  0.16860641  1
  Fe  Fe20  1  0.66784933  0.00292960  0.33568113  1
  Fe  Fe21  1  0.66946570  0.33516339  1.00279429  1
  Cr  Cr22  1  0.83432884  0.50227456  0.17018308  1
  Ni  Ni23  1  0.66910389  0.33529729  0.33556768  1
  Fe  Fe24  1  0.66951237  0.67081145  1.00196267  1
  Ni  Ni25  1  0.83402764  0.83827093  0.17001668  1
  Ni  Ni26  1  0.66858254  0.67008948  0.33527669  1
  Fe  Fe27  1  0.17066016  0.16980967  0.50387020  1
  Fe  Fe28  1  0.00286008  1.00192166  0.66975706  1
  Ni  Ni29  1  0.16901109  0.16988384  0.83634663  1
  Fe  Fe30  1  0.16865185  0.50345390  0.50292904  1
  Fe  Fe31  1  0.00450992  0.33616606  0.67029979  1
  Ni  Ni32  1  0.17052669  0.50018199  0.83431276  1
  Ni  Ni33  1  0.16985773  0.83621984  0.50459869  1
  Fe  Fe34  1  0.00282834  0.67036179  0.66968327  1
  Fe  Fe35  1  0.17022528  0.83718042  0.83435066  1
  Fe  Fe36  1  0.50176149  0.16709089  0.50210907  1
  Ni  Ni37  1  0.33571429  1.00166942  0.66946509  1
  Fe  Fe38  1  0.50188929  0.16816749  0.83646558  1
  Cr  Cr39  1  0.50259534  0.50343964  0.50265306  1
  Fe  Fe40  1  0.33487418  0.33568944  0.67040768  1
  Ni  Ni41  1  0.50254454  0.50341613  0.83629908  1
  Fe  Fe42  1  0.50228100  0.83711796  0.50374644  1
  Ni  Ni43  1  0.33502963  0.67068027  0.67025479  1
  Ni  Ni44  1  0.50456657  0.83572034  0.83494550  1
  Fe  Fe45  1  0.83602748  0.16936384  0.50232320  1
  Ni  Ni46  1  0.66949974  1.00157731  0.66853153  1
  Fe  Fe47  1  0.83686007  0.16854227  0.83771834  1
  Fe  Fe48  1  0.83795731  0.50397441  0.50178301  1
  Cr  Cr49  1  0.67013824  0.33539502  0.67110186  1
  Fe  Fe50  1  0.83622890  0.50320199  0.83615247  1
  Fe  Fe51  1  0.83523927  0.83511160  0.50363961  1
  Ni  Ni52  1  0.66946774  0.67148514  0.67128403  1
  Ni  Ni53  1  0.83480756  0.83723568  0.83556274  1
" 