3171,Ni38Fe62_11,-242.897913622958, 221.941499755895,Ni38Fe62,"# generated using pymatgen
 data_Fe10Ni17
_symmetry_space_group_name_H-M   'P 1'
_cell_length_a   7.40777092
_cell_length_b   7.40777092
_cell_length_c   10.47617010
_cell_angle_alpha   90.00000000
_cell_angle_beta   90.00000000
_cell_angle_gamma   90.00000000
_symmetry_Int_Tables_number   1
_chemical_formula_structural   Fe10Ni17
_chemical_formula_sum   'Fe20 Ni34'
_cell_volume   574.88056815
_cell_formula_units_Z   2
loop_
 _symmetry_equiv_pos_site_id
 _symmetry_equiv_pos_as_xyz
  1  'x, y, z'
loop_
 _atom_site_type_symbol
 _atom_site_label
 _atom_site_symmetry_multiplicity
 _atom_site_fract_x
 _atom_site_fract_y
 _atom_site_fract_z
 _atom_site_occupancy
  Ni  Ni0  1  1.00332451  0.00490071  0.00439185  1
  Ni  Ni1  1  0.17180793  0.16932653  0.17062816  1
  Ni  Ni2  1  1.00327198  0.00431055  0.33749565  1
  Fe  Fe3  1  1.00293957  0.33708918  1.00400023  1
  Fe  Fe4  1  0.17081385  0.50387853  0.17129104  1
  Ni  Ni5  1  1.00384843  0.33711582  0.33684653  1
  Fe  Fe6  1  1.00234731  0.67161216  0.00521553  1
  Ni  Ni7  1  0.17055307  0.83829981  0.17051670  1
  Ni  Ni8  1  0.00523273  0.67061152  0.33760113  1
  Fe  Fe9  1  0.33810706  1.00374857  0.00527991  1
  Ni  Ni10  1  0.50269644  0.17109164  0.17014358  1
  Ni  Ni11  1  0.33754016  1.00362061  0.33775502  1
  Fe  Fe12  1  0.33852351  0.33657234  1.00364274  1
  Fe  Fe13  1  0.50328370  0.50332330  0.17022141  1
  Ni  Ni14  1  0.33741166  0.33828219  0.33694482  1
  Ni  Ni15  1  0.33742972  0.66968706  1.00389539  1
  Fe  Fe16  1  0.50328982  0.83787259  0.17111301  1
  Ni  Ni17  1  0.33694402  0.67004396  0.33748750  1
  Ni  Ni18  1  0.67244718  0.00435738  1.00387268  1
  Fe  Fe19  1  0.83742273  0.17083769  0.17060734  1
  Ni  Ni20  1  0.67119202  0.00496984  0.33696013  1
  Ni  Ni21  1  0.67079870  0.33699758  1.00265600  1
  Ni  Ni22  1  0.83618897  0.50515945  0.16981145  1
  Ni  Ni23  1  0.67068141  0.33634129  0.33842116  1
  Ni  Ni24  1  0.66881353  0.67071095  0.00450235  1
  Fe  Fe25  1  0.83796331  0.83852882  0.17046445  1
  Fe  Fe26  1  0.67133924  0.67019551  0.33798474  1
  Ni  Ni27  1  0.17098897  0.17037395  0.50311346  1
  Ni  Ni28  1  1.00242564  0.00526378  0.66999510  1
  Ni  Ni29  1  0.17057107  0.16997664  0.83824401  1
  Fe  Fe30  1  0.17084341  0.50316242  0.50389485  1
  Ni  Ni31  1  0.00493452  0.33561680  0.67085036  1
  Fe  Fe32  1  0.17062303  0.50355807  0.83679627  1
  Fe  Fe33  1  0.17076098  0.83758368  0.50284448  1
  Fe  Fe34  1  1.00314970  0.67107041  0.66992487  1
  Fe  Fe35  1  0.17016073  0.83768071  0.83823519  1
  Ni  Ni36  1  0.50250214  0.17102765  0.50505496  1
  Fe  Fe37  1  0.33705369  0.00455737  0.66966427  1
  Fe  Fe38  1  0.50521616  0.17067380  0.83746911  1
  Ni  Ni39  1  0.50449759  0.50454618  0.50273110  1
  Ni  Ni40  1  0.33636384  0.33916756  0.67085415  1
  Ni  Ni41  1  0.50415110  0.50486176  0.83795896  1
  Ni  Ni42  1  0.50427211  0.83646609  0.50375265  1
  Ni  Ni43  1  0.33837178  0.66921070  0.67042509  1
  Fe  Fe44  1  0.50493993  0.83740203  0.83689679  1
  Ni  Ni45  1  0.83849850  0.17072569  0.50316231  1
  Ni  Ni46  1  0.67266605  1.00330935  0.67114844  1
  Ni  Ni47  1  0.83892939  0.16957501  0.83791144  1
  Ni  Ni48  1  0.83663251  0.50488920  0.50546503  1
  Fe  Fe49  1  0.67058884  0.33750364  0.67036347  1
  Fe  Fe50  1  0.83691382  0.50338712  0.83753841  1
  Ni  Ni51  1  0.83719681  0.83641606  0.50307282  1
  Ni  Ni52  1  0.66903299  0.67174662  0.67074391  1
  Ni  Ni53  1  0.83755505  0.83681504  0.83819093  1
" 