274,Ni38Cr62_0,-224.49576517244, 139.018940501598,Ni38Cr62,"# generated using pymatgen
 data_Cr10Ni17
_symmetry_space_group_name_H-M   'P 1'
_cell_length_a   7.50122309
_cell_length_b   7.50122309
_cell_length_c   10.60833143
_cell_angle_alpha   90.00000000
_cell_angle_beta   90.00000000
_cell_angle_gamma   90.00000000
_symmetry_Int_Tables_number   1
_chemical_formula_structural   Cr10Ni17
_chemical_formula_sum   'Cr20 Ni34'
_cell_volume   596.91328241
_cell_formula_units_Z   2
loop_
 _symmetry_equiv_pos_site_id
 _symmetry_equiv_pos_as_xyz
  1  'x, y, z'
loop_
 _atom_site_type_symbol
 _atom_site_label
 _atom_site_symmetry_multiplicity
 _atom_site_fract_x
 _atom_site_fract_y
 _atom_site_fract_z
 _atom_site_occupancy
  Ni  Ni0  1  -0.00095864  0.00014132  -0.00139749  1
  Ni  Ni1  1  0.16282303  0.16783047  0.16234840  1
  Cr  Cr2  1  -0.00174110  0.99701749  0.33195544  1
  Ni  Ni3  1  -0.00104294  0.32994052  -0.00065136  1
  Ni  Ni4  1  0.16625449  0.49662717  0.16446920  1
  Cr  Cr5  1  -0.00133374  0.33398881  0.33102854  1
  Cr  Cr6  1  0.99569350  0.66194649  -0.00164213  1
  Cr  Cr7  1  0.16413766  0.82786592  0.16375618  1
  Ni  Ni8  1  0.99661424  0.66298141  0.33232772  1
  Cr  Cr9  1  0.33190562  0.99734239  0.99573217  1
  Cr  Cr10  1  0.49758088  0.16682563  0.16723775  1
  Cr  Cr11  1  0.33170163  0.99690716  0.33288945  1
  Ni  Ni12  1  0.32908394  0.33150740  -0.00113748  1
  Ni  Ni13  1  0.49523717  0.49939956  0.16627995  1
  Ni  Ni14  1  0.33100683  0.33478238  0.33123019  1
  Ni  Ni15  1  0.33222728  0.66363807  -0.00137909  1
  Ni  Ni16  1  0.49901014  0.82698402  0.16632363  1
  Ni  Ni17  1  0.33247638  0.66195473  0.33174571  1
  Cr  Cr18  1  0.66272201  0.99622984  -0.00080969  1
  Ni  Ni19  1  0.83248762  0.16421146  0.16444812  1
  Ni  Ni20  1  0.66484322  0.99450471  0.33002598  1
  Cr  Cr21  1  0.66501331  0.33368915  -0.00117693  1
  Ni  Ni22  1  0.83149439  0.49786973  0.16603816  1
  Ni  Ni23  1  0.66398077  0.33489656  0.33024640  1
  Cr  Cr24  1  0.66202615  0.66354640  -0.00072522  1
  Ni  Ni25  1  0.83022211  0.83104987  0.16661724  1
  Ni  Ni26  1  0.66418841  0.66355744  0.33089044  1
  Ni  Ni27  1  0.16656280  0.16698490  0.49774351  1
  Cr  Cr28  1  0.00099446  0.99687123  0.66255793  1
  Ni  Ni29  1  0.16590054  0.16536125  0.83297497  1
  Ni  Ni30  1  0.16781851  0.49951273  0.49654002  1
  Cr  Cr31  1  -0.00111689  0.33308166  0.66289663  1
  Cr  Cr32  1  0.16588555  0.49834137  0.83259189  1
  Ni  Ni33  1  0.16544071  0.82691362  0.49713077  1
  Cr  Cr34  1  0.99751513  0.66322808  0.66149518  1
  Ni  Ni35  1  0.16682814  0.83114083  0.83185154  1
  Cr  Cr36  1  0.49921468  0.16734756  0.49767280  1
  Cr  Cr37  1  0.33123716  0.99686467  0.66474136  1
  Ni  Ni38  1  0.49607968  0.16513130  0.82886423  1
  Ni  Ni39  1  0.49733906  0.49948381  0.49747445  1
  Ni  Ni40  1  0.33185793  0.33176567  0.66334613  1
  Cr  Cr41  1  0.49641280  0.49781131  0.82932278  1
  Ni  Ni42  1  0.49959266  0.82750318  0.49772815  1
  Ni  Ni43  1  0.33308066  0.66469561  0.66287045  1
  Ni  Ni44  1  0.49611139  0.83003160  0.82921290  1
  Cr  Cr45  1  0.82748228  0.16347158  0.49754787  1
  Ni  Ni46  1  0.66177800  0.99535322  0.66423133  1
  Cr  Cr47  1  0.83057737  0.16516720  0.83077982  1
  Ni  Ni48  1  0.82783663  0.50037757  0.49735271  1
  Ni  Ni49  1  0.66259085  0.33379380  0.66434397  1
  Ni  Ni50  1  0.83027720  0.49676981  0.82971042  1
  Ni  Ni51  1  0.82829978  0.82836814  0.49651743  1
  Ni  Ni52  1  0.66250393  0.66383576  0.66296975  1
  Cr  Cr53  1  0.83123297  0.83054474  0.82984802  1
" 