3526,Ni38Fe39Cr22_3,-230.900720297772, 200.655187722606,Ni38Fe39Cr22,"# generated using pymatgen
 data_Cr13Fe21Ni20
_symmetry_space_group_name_H-M   'P 1'
_cell_length_a   7.44755438
_cell_length_b   7.44755438
_cell_length_c   10.53243242
_cell_angle_alpha   90.00000000
_cell_angle_beta   90.00000000
_cell_angle_gamma   90.00000000
_symmetry_Int_Tables_number   1
_chemical_formula_structural   Cr13Fe21Ni20
_chemical_formula_sum   'Cr13 Fe21 Ni20'
_cell_volume   584.19259486
_cell_formula_units_Z   1
loop_
 _symmetry_equiv_pos_site_id
 _symmetry_equiv_pos_as_xyz
  1  'x, y, z'
loop_
 _atom_site_type_symbol
 _atom_site_label
 _atom_site_symmetry_multiplicity
 _atom_site_fract_x
 _atom_site_fract_y
 _atom_site_fract_z
 _atom_site_occupancy
  Fe  Fe0  1  1.00107639  1.00002455  0.00205726  1
  Fe  Fe1  1  0.16859364  0.16679814  0.16695730  1
  Cr  Cr2  1  0.00321320  0.99938991  0.33334048  1
  Ni  Ni3  1  0.99946905  0.33647275  0.00218911  1
  Ni  Ni4  1  0.16693875  0.50082262  0.16756972  1
  Cr  Cr5  1  0.00244519  0.33724487  0.33416267  1
  Ni  Ni6  1  1.00045845  0.66787189  0.00238123  1
  Ni  Ni7  1  0.16572101  0.83439704  0.16618487  1
  Fe  Fe8  1  1.00037359  0.66602221  0.33340262  1
  Ni  Ni9  1  0.33521112  0.99979283  0.00216065  1
  Fe  Fe10  1  0.50112744  0.16842250  0.16852776  1
  Fe  Fe11  1  0.33620550  0.00343643  0.33490213  1
  Cr  Cr12  1  0.33484633  0.33454024  0.00278676  1
  Fe  Fe13  1  0.50241623  0.50065046  0.16864758  1
  Ni  Ni14  1  0.33581178  0.33238612  0.33400711  1
  Fe  Fe15  1  0.33257766  0.66841838  1.00050031  1
  Cr  Cr16  1  0.50264902  0.83521031  0.16755186  1
  Cr  Cr17  1  0.33407681  0.66815815  0.33520311  1
  Fe  Fe18  1  0.66886205  0.00163742  0.99955720  1
  Fe  Fe19  1  0.83420488  0.16779865  0.16688987  1
  Fe  Fe20  1  0.66545197  0.00193425  0.33450906  1
  Fe  Fe21  1  0.66932126  0.33454084  1.00128045  1
  Fe  Fe22  1  0.83479555  0.50316547  0.16792906  1
  Ni  Ni23  1  0.66605713  0.33592820  0.33345970  1
  Fe  Fe24  1  0.66903978  0.66775122  1.00042847  1
  Ni  Ni25  1  0.83544995  0.83460863  0.16842727  1
  Ni  Ni26  1  0.67001286  0.66731306  0.33377943  1
  Fe  Fe27  1  0.17079539  0.16873249  0.50174789  1
  Ni  Ni28  1  1.00026438  1.00062707  0.66989076  1
  Cr  Cr29  1  0.16649069  0.16876591  0.83519531  1
  Ni  Ni30  1  0.16842479  0.50007396  0.50155617  1
  Cr  Cr31  1  0.00190250  0.33530934  0.66767756  1
  Ni  Ni32  1  0.16953120  0.50234349  0.83480059  1
  Fe  Fe33  1  0.16900263  0.83399406  0.50105830  1
  Cr  Cr34  1  0.00217303  0.66817550  0.66671977  1
  Fe  Fe35  1  0.16867674  0.83311356  0.83673222  1
  Fe  Fe36  1  0.50075833  0.16817464  0.50101863  1
  Cr  Cr37  1  0.33618405  1.00103955  0.66602967  1
  Ni  Ni38  1  0.50444819  0.16807901  0.83358838  1
  Cr  Cr39  1  0.50036488  0.50012049  0.50162218  1
  Ni  Ni40  1  0.33574039  0.33542420  0.66734252  1
  Ni  Ni41  1  0.50002085  0.50120402  0.83444306  1
  Ni  Ni42  1  0.50113056  0.83715932  0.50055240  1
  Fe  Fe43  1  0.33403289  0.66731652  0.66869381  1
  Ni  Ni44  1  0.50299691  0.83463932  0.83584071  1
  Cr  Cr45  1  0.83280283  0.16801279  0.50405974  1
  Ni  Ni46  1  0.66727018  0.00169822  0.66928499  1
  Fe  Fe47  1  0.83190143  0.16699039  0.83474552  1
  Ni  Ni48  1  0.83573763  0.50092029  0.49891459  1
  Fe  Fe49  1  0.66640648  0.33243787  0.66907299  1
  Fe  Fe50  1  0.83363321  0.50101894  0.83671930  1
  Cr  Cr51  1  0.83292432  0.83460949  0.49947295  1
  Cr  Cr52  1  0.66692713  0.66866817  0.66930798  1
  Ni  Ni53  1  0.83372161  0.83728404  0.83578876  1
" 