986,Ni38Fe60Cr0_13,-237.436290311265, 213.511942377722,Ni38Fe60Cr0,"# generated using pymatgen
 data_Cr(Fe8Ni5)2
_symmetry_space_group_name_H-M   'P 1'
_cell_length_a   7.40611376
_cell_length_b   7.40611376
_cell_length_c   10.47382652
_cell_angle_alpha   90.00000000
_cell_angle_beta   90.00000000
_cell_angle_gamma   90.00000000
_symmetry_Int_Tables_number   1
_chemical_formula_structural   Cr(Fe8Ni5)2
_chemical_formula_sum   'Cr2 Fe32 Ni20'
_cell_volume   574.49484124
_cell_formula_units_Z   2
loop_
 _symmetry_equiv_pos_site_id
 _symmetry_equiv_pos_as_xyz
  1  'x, y, z'
loop_
 _atom_site_type_symbol
 _atom_site_label
 _atom_site_symmetry_multiplicity
 _atom_site_fract_x
 _atom_site_fract_y
 _atom_site_fract_z
 _atom_site_occupancy
  Ni  Ni0  1  0.00568247  0.00443540  1.00274899  1
  Fe  Fe1  1  0.17102103  0.16915609  0.17133821  1
  Ni  Ni2  1  0.00484582  0.00516346  0.33848081  1
  Fe  Fe3  1  1.00323290  0.33624525  0.00461680  1
  Fe  Fe4  1  0.17127808  0.50504660  0.17094821  1
  Ni  Ni5  1  0.00450376  0.33590457  0.33712365  1
  Fe  Fe6  1  1.00340651  0.67198348  0.00514532  1
  Ni  Ni7  1  0.17131271  0.83705512  0.17045207  1
  Fe  Fe8  1  0.00497014  0.67085347  0.33709512  1
  Ni  Ni9  1  0.33461361  1.00371919  0.00458569  1
  Fe  Fe10  1  0.50339871  0.16976497  0.17002331  1
  Ni  Ni11  1  0.33619162  1.00401217  0.33773706  1
  Ni  Ni12  1  0.33771787  0.33652379  0.00534393  1
  Fe  Fe13  1  0.50415495  0.50545499  0.17051667  1
  Ni  Ni14  1  0.33650484  0.33702577  0.33824500  1
  Fe  Fe15  1  0.33857962  0.67194901  0.00557798  1
  Ni  Ni16  1  0.50390573  0.83785420  0.16941965  1
  Ni  Ni17  1  0.33944372  0.67130336  0.33752374  1
  Fe  Fe18  1  0.67112328  1.00355080  0.00514263  1
  Fe  Fe19  1  0.83791829  0.16934077  0.17107806  1
  Fe  Fe20  1  0.67023882  1.00378354  0.33758913  1
  Ni  Ni21  1  0.67124391  0.34061013  1.00402928  1
  Fe  Fe22  1  0.83691004  0.50562267  0.17108487  1
  Fe  Fe23  1  0.67081739  0.33734520  0.33741109  1
  Ni  Ni24  1  0.67052757  0.66979731  1.00294692  1
  Ni  Ni25  1  0.83712365  0.83728050  0.17126194  1
  Ni  Ni26  1  0.67018271  0.67095979  0.33786516  1
  Ni  Ni27  1  0.17046204  0.17166858  0.50494148  1
  Fe  Fe28  1  1.00360840  0.00453467  0.67061706  1
  Fe  Fe29  1  0.16923943  0.16916575  0.83733624  1
  Fe  Fe30  1  0.17034346  0.50304385  0.50408678  1
  Ni  Ni31  1  1.00349034  0.33531951  0.67086255  1
  Cr  Cr32  1  0.17029218  0.50377482  0.83800012  1
  Fe  Fe33  1  0.17056269  0.83820352  0.50323488  1
  Fe  Fe34  1  1.00272459  0.67080081  0.67010288  1
  Fe  Fe35  1  0.17091243  0.83975715  0.83834113  1
  Fe  Fe36  1  0.50407961  0.17080921  0.50408951  1
  Fe  Fe37  1  0.33674581  1.00316526  0.66970888  1
  Cr  Cr38  1  0.50446317  0.17042660  0.83730730  1
  Fe  Fe39  1  0.50459237  0.50408572  0.50388248  1
  Fe  Fe40  1  0.33720079  0.33776802  0.66922834  1
  Fe  Fe41  1  0.50615203  0.50565996  0.83794394  1
  Ni  Ni42  1  0.50379974  0.83748567  0.50423838  1
  Fe  Fe43  1  0.33839316  0.67140659  0.66945803  1
  Fe  Fe44  1  0.50412662  0.83534898  0.83731633  1
  Ni  Ni45  1  0.83810136  0.17220849  0.50445995  1
  Fe  Fe46  1  0.67198644  1.00333790  0.66960779  1
  Fe  Fe47  1  0.83954438  0.17119404  0.83712894  1
  Ni  Ni48  1  0.83811988  0.50322709  0.50447022  1
  Fe  Fe49  1  0.67258910  0.33864980  0.67024809  1
  Fe  Fe50  1  0.83513533  0.50398557  0.83683718  1
  Fe  Fe51  1  0.83712131  0.83769410  0.50370363  1
  Ni  Ni52  1  0.67020815  0.67051804  0.67152796  1
  Fe  Fe53  1  0.83729816  0.83716138  0.83813133  1
" 