4735,Ni38Fe39Cr22_11,-231.168469656436, 194.080218292505,Ni38Fe39Cr22,"# generated using pymatgen
 data_Cr13Fe21Ni20
_symmetry_space_group_name_H-M   'P 1'
_cell_length_a   7.45211695
_cell_length_b   7.45211695
_cell_length_c   10.53888486
_cell_angle_alpha   90.00000000
_cell_angle_beta   90.00000000
_cell_angle_gamma   90.00000000
_symmetry_Int_Tables_number   1
_chemical_formula_structural   Cr13Fe21Ni20
_chemical_formula_sum   'Cr13 Fe21 Ni20'
_cell_volume   585.26692755
_cell_formula_units_Z   1
loop_
 _symmetry_equiv_pos_site_id
 _symmetry_equiv_pos_as_xyz
  1  'x, y, z'
loop_
 _atom_site_type_symbol
 _atom_site_label
 _atom_site_symmetry_multiplicity
 _atom_site_fract_x
 _atom_site_fract_y
 _atom_site_fract_z
 _atom_site_occupancy
  Fe  Fe0  1  0.00226466  0.99957549  0.99986534  1
  Ni  Ni1  1  0.17098272  0.16597266  0.16668365  1
  Fe  Fe2  1  0.00352167  0.99876123  0.33495146  1
  Fe  Fe3  1  0.00574708  0.33330457  1.00074147  1
  Fe  Fe4  1  0.16883355  0.50048306  0.16633154  1
  Cr  Cr5  1  0.00435055  0.33261430  0.33449876  1
  Fe  Fe6  1  0.00441283  0.67017681  1.00038546  1
  Fe  Fe7  1  0.16809156  0.83522431  0.16716851  1
  Fe  Fe8  1  0.00223282  0.67119797  0.33379530  1
  Ni  Ni9  1  0.33408428  0.00149375  0.00135554  1
  Ni  Ni10  1  0.49776334  0.16572121  0.16877450  1
  Fe  Fe11  1  0.33375081  0.00274610  0.33418578  1
  Ni  Ni12  1  0.33131100  0.33358413  0.00119256  1
  Cr  Cr13  1  0.49828011  0.49953542  0.16862238  1
  Ni  Ni14  1  0.33558984  0.33259194  0.33411747  1
  Ni  Ni15  1  0.33119990  0.66792971  1.00036571  1
  Fe  Fe16  1  0.50062696  0.83774680  0.16740461  1
  Fe  Fe17  1  0.33411252  0.66826279  0.33467558  1
  Ni  Ni18  1  0.66774614  0.99992004  1.00053873  1
  Cr  Cr19  1  0.83318741  0.16470682  0.16629757  1
  Fe  Fe20  1  0.66569126  1.00057147  0.33318787  1
  Cr  Cr21  1  0.66542464  0.33089313  1.00062747  1
  Cr  Cr22  1  0.83556710  0.50344134  0.16813919  1
  Fe  Fe23  1  0.66305238  0.33323722  0.33564931  1
  Cr  Cr24  1  0.66691912  0.67199427  0.99918064  1
  Ni  Ni25  1  0.83616503  0.83485018  0.16891456  1
  Fe  Fe26  1  0.66668025  0.66917908  0.33533014  1
  Ni  Ni27  1  0.16996787  0.16274392  0.50194826  1
  Ni  Ni28  1  0.00122486  0.00130588  0.66734579  1
  Fe  Fe29  1  0.16755001  0.16685944  0.83527860  1
  Cr  Cr30  1  0.16925339  0.50172949  0.50006461  1
  Fe  Fe31  1  1.00075947  0.33190933  0.66883781  1
  Ni  Ni32  1  0.16889007  0.50153020  0.83807898  1
  Ni  Ni33  1  0.16759412  0.83806455  0.49917801  1
  Cr  Cr34  1  1.00059134  0.67112473  0.66754983  1
  Ni  Ni35  1  0.16697450  0.83556736  0.83624614  1
  Ni  Ni36  1  0.49997161  0.16754674  0.49918922  1
  Fe  Fe37  1  0.33423204  1.00098535  0.66777936  1
  Ni  Ni38  1  0.50112238  0.16666922  0.83505827  1
  Ni  Ni39  1  0.50322255  0.50051905  0.49985314  1
  Cr  Cr40  1  0.33528442  0.33281107  0.66785075  1
  Ni  Ni41  1  0.49954558  0.49980989  0.83372674  1
  Fe  Fe42  1  0.50090944  0.83503394  0.50041144  1
  Cr  Cr43  1  0.33673098  0.66867882  0.66885835  1
  Fe  Fe44  1  0.50048519  0.83496354  0.83508638  1
  Cr  Cr45  1  0.83345016  0.16648308  0.50289977  1
  Fe  Fe46  1  0.66702759  1.00045246  0.66931996  1
  Fe  Fe47  1  0.83467371  0.16533778  0.83315806  1
  Cr  Cr48  1  0.83069893  0.50215546  0.50178955  1
  Ni  Ni49  1  0.66605883  0.33386909  0.66711455  1
  Cr  Cr50  1  0.83429958  0.50083337  0.83297351  1
  Fe  Fe51  1  0.83379100  0.83553731  0.50070703  1
  Ni  Ni52  1  0.66679757  0.66870069  0.66694098  1
  Ni  Ni53  1  0.83539900  0.83715820  0.83386955  1
" 