2220,Ni38Fe60Cr0_4,-236.878178099185, 211.817643849991,Ni38Fe60Cr0,"# generated using pymatgen
 data_Cr(Fe8Ni5)2
_symmetry_space_group_name_H-M   'P 1'
_cell_length_a   7.39946172
_cell_length_b   7.39946172
_cell_length_c   10.46441913
_cell_angle_alpha   90.00000000
_cell_angle_beta   90.00000000
_cell_angle_gamma   90.00000000
_symmetry_Int_Tables_number   1
_chemical_formula_structural   Cr(Fe8Ni5)2
_chemical_formula_sum   'Cr2 Fe32 Ni20'
_cell_volume   572.94822979
_cell_formula_units_Z   2
loop_
 _symmetry_equiv_pos_site_id
 _symmetry_equiv_pos_as_xyz
  1  'x, y, z'
loop_
 _atom_site_type_symbol
 _atom_site_label
 _atom_site_symmetry_multiplicity
 _atom_site_fract_x
 _atom_site_fract_y
 _atom_site_fract_z
 _atom_site_occupancy
  Cr  Cr0  1  0.00462748  0.00517240  0.00503032  1
  Ni  Ni1  1  0.17242871  0.17250931  0.17269678  1
  Fe  Fe2  1  1.00210349  0.00482338  0.33649005  1
  Fe  Fe3  1  0.00458808  0.33895229  1.00438491  1
  Ni  Ni4  1  0.17098629  0.50437758  0.17084212  1
  Fe  Fe5  1  1.00368408  0.33851042  0.33769032  1
  Fe  Fe6  1  1.00432724  0.66999197  0.00525460  1
  Fe  Fe7  1  0.17064809  0.83693379  0.17189115  1
  Ni  Ni8  1  1.00390224  0.67019287  0.33675830  1
  Fe  Fe9  1  0.33932175  0.00482730  1.00381551  1
  Fe  Fe10  1  0.50556625  0.17144270  0.17182196  1
  Fe  Fe11  1  0.33952370  0.00542577  0.33759492  1
  Fe  Fe12  1  0.33744599  0.33728550  0.00463370  1
  Fe  Fe13  1  0.50537525  0.50413809  0.17147564  1
  Fe  Fe14  1  0.33837098  0.33833443  0.33786775  1
  Fe  Fe15  1  0.33763756  0.67158918  1.00381734  1
  Fe  Fe16  1  0.50541322  0.83812054  0.17122196  1
  Fe  Fe17  1  0.33908911  0.66993886  0.33748349  1
  Ni  Ni18  1  0.67002966  0.00480155  1.00454388  1
  Ni  Ni19  1  0.83620210  0.17138946  0.17235530  1
  Ni  Ni20  1  0.67133989  0.00461673  0.33784900  1
  Fe  Fe21  1  0.67166769  0.33726814  0.00530733  1
  Ni  Ni22  1  0.83796662  0.50517330  0.17122895  1
  Ni  Ni23  1  0.67141110  0.33769013  0.33755001  1
  Fe  Fe24  1  0.67173462  0.67186740  0.00480986  1
  Ni  Ni25  1  0.83603827  0.83713862  0.17210526  1
  Ni  Ni26  1  0.67183150  0.67139542  0.33750008  1
  Fe  Fe27  1  0.17125495  0.17265902  0.50508177  1
  Fe  Fe28  1  1.00435522  0.00467374  0.67252250  1
  Ni  Ni29  1  0.17278277  0.17195983  0.83596772  1
  Ni  Ni30  1  0.17162271  0.50351097  0.50512747  1
  Ni  Ni31  1  0.00537878  0.33744508  0.67131048  1
  Ni  Ni32  1  0.17134566  0.50492167  0.83772929  1
  Cr  Cr33  1  0.17023200  0.83636089  0.50461333  1
  Fe  Fe34  1  0.00459502  0.67052902  0.67161406  1
  Ni  Ni35  1  0.17215534  0.83681876  0.83726232  1
  Ni  Ni36  1  0.50540144  0.17152391  0.50480977  1
  Ni  Ni37  1  0.33799589  0.00493336  0.67306036  1
  Fe  Fe38  1  0.50333899  0.17076235  0.83757047  1
  Fe  Fe39  1  0.50487896  0.50518290  0.50463184  1
  Fe  Fe40  1  0.33754400  0.33833375  0.67119991  1
  Fe  Fe41  1  0.50340200  0.50507786  0.83759110  1
  Fe  Fe42  1  0.50618304  0.83773419  0.50489169  1
  Ni  Ni43  1  0.33896849  0.67107783  0.67187627  1
  Fe  Fe44  1  0.50317205  0.83786183  0.83758898  1
  Fe  Fe45  1  0.83788077  0.17135286  0.50408410  1
  Fe  Fe46  1  0.67088473  1.00415988  0.67085694  1
  Fe  Fe47  1  0.83842862  0.17214731  0.83762075  1
  Fe  Fe48  1  0.83778354  0.50482758  0.50408455  1
  Fe  Fe49  1  0.67050216  0.33809265  0.67068227  1
  Fe  Fe50  1  0.83910061  0.50443060  0.83791137  1
  Ni  Ni51  1  0.83574584  0.83773441  0.50489895  1
  Ni  Ni52  1  0.67047580  0.67147167  0.67084461  1
  Fe  Fe53  1  0.83794475  0.83712402  0.83716175  1
" 