987,Ni38Cr62_11,-224.624869130531, 142.2479159636,Ni38Cr62,"# generated using pymatgen
 data_Cr10Ni17
_symmetry_space_group_name_H-M   'P 1'
_cell_length_a   7.49991219
_cell_length_b   7.49991219
_cell_length_c   10.60647754
_cell_angle_alpha   90.00000000
_cell_angle_beta   90.00000000
_cell_angle_gamma   90.00000000
_symmetry_Int_Tables_number   1
_chemical_formula_structural   Cr10Ni17
_chemical_formula_sum   'Cr20 Ni34'
_cell_volume   596.60039191
_cell_formula_units_Z   2
loop_
 _symmetry_equiv_pos_site_id
 _symmetry_equiv_pos_as_xyz
  1  'x, y, z'
loop_
 _atom_site_type_symbol
 _atom_site_label
 _atom_site_symmetry_multiplicity
 _atom_site_fract_x
 _atom_site_fract_y
 _atom_site_fract_z
 _atom_site_occupancy
  Cr  Cr0  1  -0.00197030  0.00032359  0.99615719  1
  Ni  Ni1  1  0.16351997  0.16971794  0.16539827  1
  Ni  Ni2  1  0.99412843  0.00098926  0.33140997  1
  Ni  Ni3  1  -0.00138820  0.33164444  -0.00161062  1
  Ni  Ni4  1  0.16424631  0.49302048  0.16718182  1
  Ni  Ni5  1  0.99641559  0.32990871  0.32789065  1
  Cr  Cr6  1  0.99765997  0.66054639  0.99559794  1
  Cr  Cr7  1  0.16525821  0.83094359  0.16945095  1
  Ni  Ni8  1  0.99767549  0.66244336  0.32921051  1
  Cr  Cr9  1  0.33191311  0.00218386  0.99772454  1
  Ni  Ni10  1  0.50017913  0.16723465  0.16361037  1
  Cr  Cr11  1  0.33546776  0.00250740  0.33077391  1
  Ni  Ni12  1  0.33052880  0.32968494  -0.00064392  1
  Ni  Ni13  1  0.49709782  0.49365148  0.16628299  1
  Ni  Ni14  1  0.33306963  0.33336164  0.32886008  1
  Cr  Cr15  1  0.33012013  0.66021444  0.00149327  1
  Ni  Ni16  1  0.49888235  0.83243726  0.16601797  1
  Ni  Ni17  1  0.33317777  0.66164908  0.32985477  1
  Ni  Ni18  1  0.66321385  0.00139007  0.00018629  1
  Ni  Ni19  1  0.82994205  0.16844854  0.16580139  1
  Ni  Ni20  1  0.66568204  0.00044869  0.33164098  1
  Ni  Ni21  1  0.66397505  0.32971838  0.00004704  1
  Ni  Ni22  1  0.83191231  0.49259590  0.16456925  1
  Ni  Ni23  1  0.66344764  0.32794006  0.33074720  1
  Cr  Cr24  1  0.66626746  0.66282077  0.00013397  1
  Cr  Cr25  1  0.83021261  0.83516497  0.16595879  1
  Cr  Cr26  1  0.66355791  0.66227832  0.33103045  1
  Cr  Cr27  1  0.16126749  0.16654083  0.49623973  1
  Cr  Cr28  1  -0.00128671  -0.00030880  0.66477080  1
  Ni  Ni29  1  0.16528617  0.16701885  0.83100315  1
  Cr  Cr30  1  0.16620403  0.49777306  0.49461027  1
  Ni  Ni31  1  0.99556535  0.33131855  0.66702851  1
  Ni  Ni32  1  0.16380451  0.49501635  0.83124075  1
  Cr  Cr33  1  0.16552590  0.83023974  0.49485460  1
  Cr  Cr34  1  0.99586868  0.66369634  0.66833846  1
  Ni  Ni35  1  0.16576670  0.83088311  0.82878397  1
  Ni  Ni36  1  0.50043039  0.16599986  0.49719077  1
  Ni  Ni37  1  0.33271442  0.99699344  0.66539151  1
  Ni  Ni38  1  0.49623069  0.16541634  0.83232412  1
  Ni  Ni39  1  0.49870391  0.49751733  0.49761798  1
  Cr  Cr40  1  0.33177215  0.32851047  0.66403638  1
  Cr  Cr41  1  0.50007400  0.49475304  0.82975437  1
  Ni  Ni42  1  0.49871660  0.83026462  0.49797157  1
  Ni  Ni43  1  0.33304302  0.66501828  0.66356028  1
  Cr  Cr44  1  0.49833393  0.83234950  0.83161948  1
  Ni  Ni45  1  0.82816825  0.16464689  0.49490776  1
  Cr  Cr46  1  0.66325589  -0.00128492  0.66104469  1
  Cr  Cr47  1  0.82718603  0.16784762  0.83283588  1
  Cr  Cr48  1  0.83077945  0.49377901  0.49850049  1
  Ni  Ni49  1  0.66474783  0.33219251  0.66288476  1
  Ni  Ni50  1  0.83187356  0.49602268  0.83065016  1
  Ni  Ni51  1  0.82920061  0.83228728  0.49510600  1
  Ni  Ni52  1  0.66377239  0.66375369  0.66329727  1
  Ni  Ni53  1  0.83048802  0.83017222  0.83134642  1
" 