1514,Ni38Cr62_16,-224.314529823541, 134.533926386561,Ni38Cr62,"# generated using pymatgen
 data_Cr10Ni17
_symmetry_space_group_name_H-M   'P 1'
_cell_length_a   7.50757444
_cell_length_b   7.50757444
_cell_length_c   10.61731360
_cell_angle_alpha   90.00000000
_cell_angle_beta   90.00000000
_cell_angle_gamma   90.00000000
_symmetry_Int_Tables_number   1
_chemical_formula_structural   Cr10Ni17
_chemical_formula_sum   'Cr20 Ni34'
_cell_volume   598.43080260
_cell_formula_units_Z   2
loop_
 _symmetry_equiv_pos_site_id
 _symmetry_equiv_pos_as_xyz
  1  'x, y, z'
loop_
 _atom_site_type_symbol
 _atom_site_label
 _atom_site_symmetry_multiplicity
 _atom_site_fract_x
 _atom_site_fract_y
 _atom_site_fract_z
 _atom_site_occupancy
  Ni  Ni0  1  0.99687376  -0.00154348  0.99631971  1
  Cr  Cr1  1  0.16455508  0.16337640  0.16350303  1
  Ni  Ni2  1  0.99474574  -0.00123189  0.33164158  1
  Cr  Cr3  1  -0.00181819  0.32798239  0.99589591  1
  Cr  Cr4  1  0.16349339  0.49662375  0.16367102  1
  Ni  Ni5  1  0.99243579  0.32909096  0.33122286  1
  Cr  Cr6  1  -0.00193822  0.66430752  0.99683356  1
  Cr  Cr7  1  0.16331986  0.83182104  0.16375646  1
  Ni  Ni8  1  0.99471918  0.66405885  0.33082251  1
  Ni  Ni9  1  0.33252602  -0.00262574  0.99532835  1
  Ni  Ni10  1  0.50083856  0.16095912  0.16293187  1
  Cr  Cr11  1  0.33303103  0.99721016  0.33411116  1
  Ni  Ni12  1  0.33166194  0.32900549  0.99410298  1
  Cr  Cr13  1  0.49630450  0.49453023  0.16247797  1
  Cr  Cr14  1  0.33247874  0.32772225  0.33211183  1
  Ni  Ni15  1  0.33174376  0.66555600  0.99426621  1
  Ni  Ni16  1  0.49950647  0.83513013  0.16159178  1
  Cr  Cr17  1  0.33188387  0.66685569  0.33201969  1
  Ni  Ni18  1  0.66258434  -0.00156818  -0.00135244  1
  Ni  Ni19  1  0.82857376  0.16142026  0.16575634  1
  Ni  Ni20  1  0.66480277  0.00006508  0.32909610  1
  Cr  Cr21  1  0.66356925  0.32816885  0.99670300  1
  Ni  Ni22  1  0.83114991  0.49622808  0.16809427  1
  Ni  Ni23  1  0.66706636  0.32791501  0.33212081  1
  Cr  Cr24  1  0.66127478  0.66660342  -0.00112952  1
  Ni  Ni25  1  0.82975313  0.83428279  0.16479843  1
  Cr  Cr26  1  0.66327911  0.66447275  0.32962213  1
  Ni  Ni27  1  0.16418229  0.16231310  0.49726316  1
  Cr  Cr28  1  0.00194397  -0.00119473  0.66478676  1
  Ni  Ni29  1  0.16779910  0.16275626  0.83186609  1
  Cr  Cr30  1  0.16344139  0.49792110  0.49714943  1
  Cr  Cr31  1  0.99724624  0.32871003  0.66500046  1
  Ni  Ni32  1  0.16950208  0.49808979  0.83012631  1
  Ni  Ni33  1  0.16466991  0.83155108  0.49859415  1
  Ni  Ni34  1  0.00185489  0.66343375  0.66366524  1
  Ni  Ni35  1  0.16782962  0.83087603  0.83021394  1
  Ni  Ni36  1  0.49846168  0.16507979  0.49815068  1
  Ni  Ni37  1  0.33064457  0.99729964  0.66352385  1
  Ni  Ni38  1  0.49523549  0.16406453  0.83076154  1
  Ni  Ni39  1  0.49896712  0.49473061  0.49973941  1
  Ni  Ni40  1  0.33289382  0.32940586  0.66521246  1
  Ni  Ni41  1  0.49186050  0.49586343  0.82926871  1
  Ni  Ni42  1  0.49480666  0.83208646  0.49840398  1
  Ni  Ni43  1  0.33010736  0.66509282  0.66498851  1
  Ni  Ni44  1  0.49219111  0.83207475  0.83203020  1
  Ni  Ni45  1  0.82905191  0.16655116  0.49445484  1
  Cr  Cr46  1  0.66029459  0.00082400  0.66418664  1
  Ni  Ni47  1  0.82895892  0.16270326  0.83187344  1
  Ni  Ni48  1  0.82953062  0.49440538  0.49605435  1
  Ni  Ni49  1  0.66104288  0.32960348  0.66258221  1
  Cr  Cr50  1  0.82931040  0.49662733  0.82693909  1
  Cr  Cr51  1  0.83255149  0.83115172  0.49638127  1
  Cr  Cr52  1  0.66055864  0.66202874  0.66328798  1
  Cr  Cr53  1  0.83089865  0.83378427  0.83142831  1
" 