4599,Ni38Fe50Cr11_15,-234.67826696796, 204.228244408557,Ni38Fe50Cr11,"# generated using pymatgen
 data_Cr7Fe27Ni20
_symmetry_space_group_name_H-M   'P 1'
_cell_length_a   7.42698658
_cell_length_b   7.42698658
_cell_length_c   10.50334514
_cell_angle_alpha   90.00000000
_cell_angle_beta   90.00000000
_cell_angle_gamma   90.00000000
_symmetry_Int_Tables_number   1
_chemical_formula_structural   Cr7Fe27Ni20
_chemical_formula_sum   'Cr7 Fe27 Ni20'
_cell_volume   579.36587926
_cell_formula_units_Z   1
loop_
 _symmetry_equiv_pos_site_id
 _symmetry_equiv_pos_as_xyz
  1  'x, y, z'
loop_
 _atom_site_type_symbol
 _atom_site_label
 _atom_site_symmetry_multiplicity
 _atom_site_fract_x
 _atom_site_fract_y
 _atom_site_fract_z
 _atom_site_occupancy
  Ni  Ni0  1  0.00275716  1.00165221  1.00230948  1
  Fe  Fe1  1  0.16891273  0.16903950  0.16945779  1
  Fe  Fe2  1  0.00286466  1.00210142  0.33538136  1
  Fe  Fe3  1  0.00352158  0.33595679  1.00184290  1
  Ni  Ni4  1  0.16945385  0.50494449  0.17006462  1
  Fe  Fe5  1  1.00220468  0.33735590  0.33650448  1
  Fe  Fe6  1  0.00340530  0.67016894  0.00348107  1
  Ni  Ni7  1  0.16874627  0.83456908  0.16999920  1
  Ni  Ni8  1  0.00371175  0.66858537  0.33490903  1
  Fe  Fe9  1  0.33506196  1.00040377  1.00116234  1
  Cr  Cr10  1  0.50291267  0.16901433  0.17090916  1
  Fe  Fe11  1  0.33626619  1.00123362  0.33731178  1
  Cr  Cr12  1  0.33404501  0.33722206  1.00200536  1
  Ni  Ni13  1  0.50220908  0.50546691  0.17086397  1
  Fe  Fe14  1  0.33553879  0.33683942  0.33570892  1
  Ni  Ni15  1  0.33486792  0.67018811  0.00337966  1
  Fe  Fe16  1  0.50244517  0.83393930  0.16984518  1
  Fe  Fe17  1  0.33620077  0.67002206  0.33475057  1
  Ni  Ni18  1  0.67101004  1.00043076  1.00139050  1
  Cr  Cr19  1  0.83707423  0.16814652  0.16996161  1
  Ni  Ni20  1  0.66864541  1.00259741  0.33667516  1
  Cr  Cr21  1  0.66982305  0.33611734  1.00098924  1
  Fe  Fe22  1  0.83677204  0.50514820  0.17086617  1
  Ni  Ni23  1  0.66990803  0.33617646  0.33713543  1
  Fe  Fe24  1  0.66895606  0.67118439  0.00293526  1
  Fe  Fe25  1  0.83612374  0.83423876  0.16978632  1
  Ni  Ni26  1  0.67009012  0.66931794  0.33347001  1
  Fe  Fe27  1  0.17023746  0.16890951  0.50354882  1
  Fe  Fe28  1  0.00543024  0.00362257  0.67116443  1
  Ni  Ni29  1  0.16840592  0.16797062  0.83630000  1
  Fe  Fe30  1  0.16842661  0.50347238  0.50243114  1
  Fe  Fe31  1  0.00294049  0.33592615  0.66974711  1
  Fe  Fe32  1  0.16933070  0.50264710  0.83557767  1
  Fe  Fe33  1  0.17144924  0.83570736  0.50293908  1
  Fe  Fe34  1  0.00383890  0.66853686  0.66967502  1
  Ni  Ni35  1  0.16924175  0.83609908  0.83488508  1
  Fe  Fe36  1  0.50238623  0.16827224  0.50239763  1
  Ni  Ni37  1  0.33411854  0.00274112  0.66985401  1
  Ni  Ni38  1  0.50289640  0.16948827  0.83436661  1
  Cr  Cr39  1  0.50305417  0.50309642  0.50305171  1
  Ni  Ni40  1  0.33513441  0.33549253  0.67027343  1
  Fe  Fe41  1  0.50210029  0.50330317  0.83430461  1
  Ni  Ni42  1  0.50101330  0.83615602  0.50173841  1
  Ni  Ni43  1  0.33439424  0.66985527  0.66947809  1
  Fe  Fe44  1  0.50143424  0.83644711  0.83599841  1
  Fe  Fe45  1  0.83546104  0.17129607  0.50189787  1
  Cr  Cr46  1  0.66850769  0.00394420  0.67009545  1
  Ni  Ni47  1  0.83678935  0.16951339  0.83547624  1
  Fe  Fe48  1  0.83628648  0.50207524  0.50247693  1
  Ni  Ni49  1  0.67001520  0.33650477  0.66983877  1
  Fe  Fe50  1  0.83665512  0.50241613  0.83474044  1
  Cr  Cr51  1  0.83615382  0.83556301  0.50228932  1
  Ni  Ni52  1  0.66945149  0.66754969  0.67110973  1
  Fe  Fe53  1  0.83695595  0.83697014  0.83688495  1
" 