6639,Ni38Fe60Cr0_15,-237.448803718662, 210.65025230089,Ni38Fe60Cr0,"# generated using pymatgen
 data_Cr(Fe8Ni5)2
_symmetry_space_group_name_H-M   'P 1'
_cell_length_a   7.40747495
_cell_length_b   7.40747495
_cell_length_c   10.47575154
_cell_angle_alpha   90.00000000
_cell_angle_beta   90.00000000
_cell_angle_gamma   90.00000000
_symmetry_Int_Tables_number   1
_chemical_formula_structural   Cr(Fe8Ni5)2
_chemical_formula_sum   'Cr2 Fe32 Ni20'
_cell_volume   574.81166393
_cell_formula_units_Z   2
loop_
 _symmetry_equiv_pos_site_id
 _symmetry_equiv_pos_as_xyz
  1  'x, y, z'
loop_
 _atom_site_type_symbol
 _atom_site_label
 _atom_site_symmetry_multiplicity
 _atom_site_fract_x
 _atom_site_fract_y
 _atom_site_fract_z
 _atom_site_occupancy
  Ni  Ni0  1  1.00302628  1.00305545  0.00412597  1
  Fe  Fe1  1  0.16976135  0.17169714  0.17060067  1
  Fe  Fe2  1  1.00312534  0.00447676  0.33678495  1
  Fe  Fe3  1  1.00267890  0.33809261  0.00505666  1
  Fe  Fe4  1  0.16988794  0.50374032  0.17138477  1
  Ni  Ni5  1  0.00487231  0.33727198  0.33691033  1
  Fe  Fe6  1  1.00375525  0.67095532  0.00462061  1
  Fe  Fe7  1  0.16928551  0.83662366  0.17058807  1
  Ni  Ni8  1  1.00377804  0.67070762  0.33688557  1
  Fe  Fe9  1  0.33805954  1.00308827  0.00453444  1
  Fe  Fe10  1  0.50544349  0.17166399  0.17091173  1
  Fe  Fe11  1  0.33784349  1.00386719  0.33814786  1
  Ni  Ni12  1  0.33805343  0.33775924  0.00443105  1
  Ni  Ni13  1  0.50409277  0.50490014  0.17142768  1
  Ni  Ni14  1  0.33680516  0.33700776  0.33799617  1
  Fe  Fe15  1  0.33766703  0.67031303  0.00417124  1
  Fe  Fe16  1  0.50612226  0.83645394  0.17170219  1
  Ni  Ni17  1  0.33728181  0.67034443  0.33759792  1
  Fe  Fe18  1  0.67121048  0.00416866  0.00484666  1
  Ni  Ni19  1  0.83882937  0.17035577  0.17013189  1
  Ni  Ni20  1  0.67074377  1.00361242  0.33695045  1
  Fe  Fe21  1  0.67056396  0.33770301  0.00476593  1
  Ni  Ni22  1  0.83616318  0.50418688  0.17075410  1
  Ni  Ni23  1  0.67038609  0.33648368  0.33728490  1
  Ni  Ni24  1  0.67091315  0.67132105  1.00395819  1
  Ni  Ni25  1  0.83743461  0.83752270  0.17145195  1
  Ni  Ni26  1  0.67100174  0.67196499  0.33784311  1
  Ni  Ni27  1  0.16883274  0.17092793  0.50383052  1
  Fe  Fe28  1  1.00267572  0.00543412  0.67014330  1
  Cr  Cr29  1  0.16898850  0.17057840  0.83694263  1
  Fe  Fe30  1  0.17126691  0.50228149  0.50257854  1
  Ni  Ni31  1  0.00427473  0.33574472  0.67065929  1
  Fe  Fe32  1  0.17215730  0.50434553  0.83810495  1
  Fe  Fe33  1  0.17170133  0.83888963  0.50289969  1
  Cr  Cr34  1  1.00329978  0.67022699  0.67108095  1
  Fe  Fe35  1  0.17187181  0.83626148  0.83857675  1
  Fe  Fe36  1  0.50407800  0.17012962  0.50347965  1
  Fe  Fe37  1  0.33794619  1.00275053  0.66938171  1
  Fe  Fe38  1  0.50533194  0.17142315  0.83767295  1
  Fe  Fe39  1  0.50411455  0.50381055  0.50355147  1
  Fe  Fe40  1  0.33799293  0.33899700  0.67017851  1
  Ni  Ni41  1  0.50428927  0.50573282  0.83643875  1
  Ni  Ni42  1  0.50397909  0.83524558  0.50421428  1
  Fe  Fe43  1  0.33955994  0.67031404  0.67034948  1
  Fe  Fe44  1  0.50428507  0.83657584  0.83648733  1
  Ni  Ni45  1  0.83991226  0.17092140  0.50481787  1
  Fe  Fe46  1  0.67143581  1.00387020  0.66970966  1
  Fe  Fe47  1  0.83562929  0.17113230  0.83716926  1
  Fe  Fe48  1  0.83668121  0.50263842  0.50249088  1
  Fe  Fe49  1  0.67154869  0.33803651  0.67050651  1
  Fe  Fe50  1  0.83594041  0.50329465  0.83823184  1
  Fe  Fe51  1  0.83592652  0.83885319  0.50241643  1
  Ni  Ni52  1  0.66872868  0.67175027  0.67026181  1
  Fe  Fe53  1  0.83590544  0.83763599  0.83910029  1
" 