3039,Ni38Fe50Cr11_19,-234.399913297777, 209.829417622078,Ni38Fe50Cr11,"# generated using pymatgen
 data_Cr7Fe27Ni20
_symmetry_space_group_name_H-M   'P 1'
_cell_length_a   7.41879497
_cell_length_b   7.41879497
_cell_length_c   10.49176047
_cell_angle_alpha   90.00000000
_cell_angle_beta   90.00000000
_cell_angle_gamma   90.00000000
_symmetry_Int_Tables_number   1
_chemical_formula_structural   Cr7Fe27Ni20
_chemical_formula_sum   'Cr7 Fe27 Ni20'
_cell_volume   577.45095663
_cell_formula_units_Z   1
loop_
 _symmetry_equiv_pos_site_id
 _symmetry_equiv_pos_as_xyz
  1  'x, y, z'
loop_
 _atom_site_type_symbol
 _atom_site_label
 _atom_site_symmetry_multiplicity
 _atom_site_fract_x
 _atom_site_fract_y
 _atom_site_fract_z
 _atom_site_occupancy
  Cr  Cr0  1  1.00160971  1.00214524  0.00448348  1
  Fe  Fe1  1  0.16911616  0.17151030  0.17068281  1
  Cr  Cr2  1  1.00180465  1.00292561  0.33460663  1
  Fe  Fe3  1  0.00350638  0.33849194  0.00343922  1
  Ni  Ni4  1  0.16855825  0.50085514  0.17067851  1
  Ni  Ni5  1  1.00300358  0.33698639  0.33574397  1
  Ni  Ni6  1  0.00613256  0.67056931  0.00444735  1
  Fe  Fe7  1  0.17388607  0.83215288  0.17132705  1
  Fe  Fe8  1  0.00440368  0.66852144  0.33446388  1
  Fe  Fe9  1  0.33618869  1.00211727  1.00281420  1
  Cr  Cr10  1  0.50012161  0.17000077  0.17102542  1
  Fe  Fe11  1  0.33679810  1.00081639  0.33907009  1
  Fe  Fe12  1  0.33278985  0.33699563  1.00188312  1
  Fe  Fe13  1  0.50118557  0.50759141  0.17107686  1
  Fe  Fe14  1  0.33517261  0.33759246  0.33820529  1
  Fe  Fe15  1  0.33770443  0.66960490  0.00631259  1
  Ni  Ni16  1  0.50629225  0.83820071  0.17089999  1
  Ni  Ni17  1  0.33774520  0.66916137  0.33800380  1
  Ni  Ni18  1  0.67025113  0.00336885  1.00230524  1
  Fe  Fe19  1  0.83442900  0.17074442  0.17084177  1
  Ni  Ni20  1  0.66970651  1.00280878  0.33787896  1
  Cr  Cr21  1  0.66918884  0.33819565  1.00167007  1
  Fe  Fe22  1  0.83714070  0.50441554  0.17060535  1
  Fe  Fe23  1  0.67069805  0.33705885  0.33850748  1
  Fe  Fe24  1  0.67353943  0.67207427  1.00257684  1
  Ni  Ni25  1  0.83473056  0.83389767  0.16898390  1
  Fe  Fe26  1  0.67014928  0.66942098  0.33664233  1
  Ni  Ni27  1  0.17076824  0.17026437  0.50196869  1
  Fe  Fe28  1  0.00399275  0.00479228  0.67018905  1
  Fe  Fe29  1  0.16866130  0.17042864  0.83526314  1
  Fe  Fe30  1  0.16808292  0.50322297  0.50047436  1
  Ni  Ni31  1  1.00250011  0.33625091  0.67069381  1
  Fe  Fe32  1  0.16992652  0.50464166  0.83914982  1
  Ni  Ni33  1  0.16931689  0.83620448  0.50421404  1
  Fe  Fe34  1  0.00359074  0.66538458  0.67165822  1
  Fe  Fe35  1  0.17032137  0.83373520  0.83418358  1
  Ni  Ni36  1  0.50257313  0.16979435  0.50242631  1
  Fe  Fe37  1  0.33641043  0.00455211  0.66768919  1
  Ni  Ni38  1  0.50020767  0.17055321  0.83622208  1
  Ni  Ni39  1  0.50591199  0.50185469  0.50108125  1
  Cr  Cr40  1  0.33777593  0.34055365  0.66889229  1
  Ni  Ni41  1  0.50341983  0.50294265  0.83878877  1
  Fe  Fe42  1  0.50194118  0.83538759  0.50270181  1
  Fe  Fe43  1  0.33743007  0.66858449  0.66701315  1
  Cr  Cr44  1  0.50517866  0.83738562  0.83556793  1
  Fe  Fe45  1  0.83683538  0.17279159  0.50326927  1
  Fe  Fe46  1  0.67023334  0.00695359  0.66974295  1
  Fe  Fe47  1  0.83340226  0.16987912  0.83421565  1
  Ni  Ni48  1  0.83811143  0.50284647  0.50263222  1
  Ni  Ni49  1  0.67055444  0.33909077  0.66925429  1
  Ni  Ni50  1  0.83875578  0.50544346  0.83691416  1
  Cr  Cr51  1  0.83723511  0.83215842  0.50605190  1
  Ni  Ni52  1  0.66765794  0.66708689  0.67078185  1
  Ni  Ni53  1  0.83896262  0.83460293  0.83539490  1
" 