4412,Ni38Fe61Cr0_3,-237.3367460814, 209.167067324558,Ni38Fe61Cr0,"# generated using pymatgen
 data_CrFe33Ni20
_symmetry_space_group_name_H-M   'P 1'
_cell_length_a   7.39673847
_cell_length_b   7.39673847
_cell_length_c   10.46056786
_cell_angle_alpha   90.00000000
_cell_angle_beta   90.00000000
_cell_angle_gamma   90.00000000
_symmetry_Int_Tables_number   1
_chemical_formula_structural   CrFe33Ni20
_chemical_formula_sum   'Cr1 Fe33 Ni20'
_cell_volume   572.31586881
_cell_formula_units_Z   1
loop_
 _symmetry_equiv_pos_site_id
 _symmetry_equiv_pos_as_xyz
  1  'x, y, z'
loop_
 _atom_site_type_symbol
 _atom_site_label
 _atom_site_symmetry_multiplicity
 _atom_site_fract_x
 _atom_site_fract_y
 _atom_site_fract_z
 _atom_site_occupancy
  Ni  Ni0  1  1.00293810  1.00408838  1.00465926  1
  Fe  Fe1  1  0.17028066  0.17154852  0.17101652  1
  Ni  Ni2  1  1.00363658  1.00420414  0.33865649  1
  Fe  Fe3  1  0.00674194  0.33826243  1.00392080  1
  Ni  Ni4  1  0.17020752  0.50545798  0.17059125  1
  Fe  Fe5  1  1.00423472  0.33736781  0.33924358  1
  Fe  Fe6  1  0.00650021  0.67133873  1.00459195  1
  Fe  Fe7  1  0.17097503  0.83752713  0.17109694  1
  Fe  Fe8  1  0.00557711  0.67095164  0.33795227  1
  Ni  Ni9  1  0.33674854  1.00473097  0.00493500  1
  Fe  Fe10  1  0.50486008  0.17230459  0.17092066  1
  Ni  Ni11  1  0.33680796  1.00395134  0.33750428  1
  Ni  Ni12  1  0.33861968  0.33928572  1.00440068  1
  Ni  Ni13  1  0.50579430  0.50542844  0.17082651  1
  Cr  Cr14  1  0.33821624  0.34012130  0.33904259  1
  Ni  Ni15  1  0.33861055  0.67018660  0.00640121  1
  Fe  Fe16  1  0.50411824  0.83669555  0.17125457  1
  Fe  Fe17  1  0.33684086  0.67347577  0.33765868  1
  Fe  Fe18  1  0.66925716  1.00463269  1.00340137  1
  Fe  Fe19  1  0.83880407  0.17269558  0.17113423  1
  Fe  Fe20  1  0.67025040  0.00513015  0.33914947  1
  Fe  Fe21  1  0.67096068  0.33803142  1.00433630  1
  Ni  Ni22  1  0.83881730  0.50479762  0.17065400  1
  Fe  Fe23  1  0.67332194  0.33719345  0.33865119  1
  Fe  Fe24  1  0.67121495  0.67183134  0.00506390  1
  Fe  Fe25  1  0.83863065  0.83702888  0.17149913  1
  Fe  Fe26  1  0.67162784  0.67154993  0.33748411  1
  Ni  Ni27  1  0.17282302  0.17035600  0.50626495  1
  Fe  Fe28  1  0.00551989  0.00567347  0.67166108  1
  Fe  Fe29  1  0.17091570  0.17283899  0.83802315  1
  Ni  Ni30  1  0.16889372  0.50525762  0.50540496  1
  Ni  Ni31  1  1.00441216  0.33831206  0.67070011  1
  Ni  Ni32  1  0.17070971  0.50515771  0.83827430  1
  Fe  Fe33  1  0.17145732  0.83804460  0.50454052  1
  Fe  Fe34  1  1.00415297  0.66932487  0.67173527  1
  Fe  Fe35  1  0.17186561  0.83642834  0.83895330  1
  Ni  Ni36  1  0.50488379  0.16821585  0.50574556  1
  Fe  Fe37  1  0.33946477  0.00612840  0.67160400  1
  Fe  Fe38  1  0.50458102  0.17306864  0.83676534  1
  Fe  Fe39  1  0.50504679  0.50380460  0.50547406  1
  Ni  Ni40  1  0.33772922  0.34068046  0.67152163  1
  Fe  Fe41  1  0.50409188  0.50496233  0.83849286  1
  Fe  Fe42  1  0.50387783  0.83713456  0.50532152  1
  Ni  Ni43  1  0.33733718  0.67047566  0.67016715  1
  Fe  Fe44  1  0.50364171  0.83621664  0.83772804  1
  Fe  Fe45  1  0.83919301  0.17269536  0.50526901  1
  Ni  Ni46  1  0.67395340  1.00399196  0.67128344  1
  Fe  Fe47  1  0.83884058  0.17292863  0.83749268  1
  Ni  Ni48  1  0.83844372  0.50620099  0.50426229  1
  Ni  Ni49  1  0.67209967  0.33801189  0.67053152  1
  Ni  Ni50  1  0.83862437  0.50503229  0.83905310  1
  Fe  Fe51  1  0.83889652  0.83880734  0.50472547  1
  Fe  Fe52  1  0.67174280  0.66948177  0.67156354  1
  Fe  Fe53  1  0.83885482  0.83759735  0.83804067  1
" 