524,Ni38Cr62_3,-224.665316714376, 141.637975218713,Ni38Cr62,"# generated using pymatgen
 data_Cr10Ni17
_symmetry_space_group_name_H-M   'P 1'
_cell_length_a   7.49776844
_cell_length_b   7.49776844
_cell_length_c   10.60344582
_cell_angle_alpha   90.00000000
_cell_angle_beta   90.00000000
_cell_angle_gamma   90.00000000
_symmetry_Int_Tables_number   1
_chemical_formula_structural   Cr10Ni17
_chemical_formula_sum   'Cr20 Ni34'
_cell_volume   596.08894761
_cell_formula_units_Z   2
loop_
 _symmetry_equiv_pos_site_id
 _symmetry_equiv_pos_as_xyz
  1  'x, y, z'
loop_
 _atom_site_type_symbol
 _atom_site_label
 _atom_site_symmetry_multiplicity
 _atom_site_fract_x
 _atom_site_fract_y
 _atom_site_fract_z
 _atom_site_occupancy
  Cr  Cr0  1  0.99624617  0.99643414  -0.00052866  1
  Cr  Cr1  1  0.16206086  0.16282345  0.16930446  1
  Ni  Ni2  1  0.99544242  0.99708728  0.33244623  1
  Cr  Cr3  1  0.99367409  0.33196994  -0.00172976  1
  Cr  Cr4  1  0.16386849  0.49844062  0.16739639  1
  Ni  Ni5  1  0.99378552  0.33135841  0.33373603  1
  Cr  Cr6  1  0.99663815  0.66506072  0.99667792  1
  Ni  Ni7  1  0.16158621  0.83178301  0.16814700  1
  Ni  Ni8  1  0.99523398  0.66534734  0.33266798  1
  Cr  Cr9  1  0.33202198  0.99618542  0.99725408  1
  Cr  Cr10  1  0.49976295  0.16629948  0.16676349  1
  Ni  Ni11  1  0.33111200  0.99671148  0.33457573  1
  Cr  Cr12  1  0.33409314  0.33161144  0.99706976  1
  Ni  Ni13  1  0.50463363  0.49827191  0.16513138  1
  Cr  Cr14  1  0.33478839  0.33104557  0.33572973  1
  Cr  Cr15  1  0.33198396  0.66586034  0.99792837  1
  Cr  Cr16  1  0.50022414  0.82908111  0.16766652  1
  Cr  Cr17  1  0.33285104  0.66540566  0.33444830  1
  Cr  Cr18  1  0.66507583  -0.00110404  -0.00153873  1
  Ni  Ni19  1  0.82963951  0.16558737  0.16804174  1
  Ni  Ni20  1  0.66648447  -0.00177722  0.33326264  1
  Ni  Ni21  1  0.66577148  0.33338306  -0.00096688  1
  Ni  Ni22  1  0.82798194  0.49865738  0.16612454  1
  Ni  Ni23  1  0.66790565  0.33165141  0.33210969  1
  Ni  Ni24  1  0.66591076  0.66307137  -0.00118468  1
  Ni  Ni25  1  0.83157141  0.82976556  0.16777762  1
  Ni  Ni26  1  0.66764319  0.66393654  0.33279866  1
  Ni  Ni27  1  0.16437715  0.16279223  0.49774550  1
  Ni  Ni28  1  -0.00186842  0.99719042  0.66131632  1
  Cr  Cr29  1  0.16596005  0.16451082  0.82786699  1
  Ni  Ni30  1  0.16327607  0.49672131  0.49687930  1
  Cr  Cr31  1  0.99610905  0.33246005  0.66171863  1
  Ni  Ni32  1  0.16438333  0.49888717  0.82968903  1
  Ni  Ni33  1  0.16331586  0.83408053  0.49650934  1
  Cr  Cr34  1  0.99676452  0.66461148  0.66291996  1
  Ni  Ni35  1  0.16601576  0.83190208  0.82892765  1
  Ni  Ni36  1  0.49927024  0.16357600  0.49933059  1
  Ni  Ni37  1  0.33317106  -0.00173149  0.66330094  1
  Ni  Ni38  1  0.49919573  0.16409720  0.82815013  1
  Ni  Ni39  1  0.50185783  0.49715933  0.49827208  1
  Ni  Ni40  1  0.33330587  0.32975794  0.66205933  1
  Cr  Cr41  1  0.50100254  0.49794526  0.83048497  1
  Ni  Ni42  1  0.50062054  0.83280008  0.49813463  1
  Cr  Cr43  1  0.33176402  0.66510193  0.66177696  1
  Ni  Ni44  1  0.49841720  0.83227886  0.82905156  1
  Ni  Ni45  1  0.83019904  0.16359363  0.49696980  1
  Ni  Ni46  1  0.66280117  -0.00173137  0.66222871  1
  Cr  Cr47  1  0.82837871  0.16569219  0.82827934  1
  Ni  Ni48  1  0.82873628  0.49837241  0.49646054  1
  Ni  Ni49  1  0.66305350  0.33091882  0.66253323  1
  Ni  Ni50  1  0.82871744  0.49825373  0.83104258  1
  Ni  Ni51  1  0.82998243  0.83179461  0.49718425  1
  Ni  Ni52  1  0.66423832  0.66460329  0.66216062  1
  Cr  Cr53  1  0.82833544  0.82978484  0.82726953  1
" 