1413,Ni38Fe50Cr11_13,-234.374615017939, 206.925638509022,Ni38Fe50Cr11,"# generated using pymatgen
 data_Cr7Fe27Ni20
_symmetry_space_group_name_H-M   'P 1'
_cell_length_a   7.42095180
_cell_length_b   7.42095180
_cell_length_c   10.49481068
_cell_angle_alpha   90.00000000
_cell_angle_beta   90.00000000
_cell_angle_gamma   90.00000000
_symmetry_Int_Tables_number   1
_chemical_formula_structural   Cr7Fe27Ni20
_chemical_formula_sum   'Cr7 Fe27 Ni20'
_cell_volume   577.95474066
_cell_formula_units_Z   1
loop_
 _symmetry_equiv_pos_site_id
 _symmetry_equiv_pos_as_xyz
  1  'x, y, z'
loop_
 _atom_site_type_symbol
 _atom_site_label
 _atom_site_symmetry_multiplicity
 _atom_site_fract_x
 _atom_site_fract_y
 _atom_site_fract_z
 _atom_site_occupancy
  Fe  Fe0  1  1.00159657  0.00422477  1.00301178  1
  Ni  Ni1  1  0.16761352  0.16678736  0.16951485  1
  Fe  Fe2  1  0.00458017  0.00355765  0.33744276  1
  Ni  Ni3  1  0.00468867  0.33722985  0.00483548  1
  Ni  Ni4  1  0.16744562  0.50323761  0.16939185  1
  Fe  Fe5  1  1.00088511  0.33682203  0.33479414  1
  Ni  Ni6  1  0.00391035  0.67004497  0.00350836  1
  Fe  Fe7  1  0.16932961  0.83400603  0.17045435  1
  Ni  Ni8  1  0.00407658  0.67038026  0.33770522  1
  Fe  Fe9  1  0.33728375  1.00260206  0.00394154  1
  Fe  Fe10  1  0.50256281  0.16968023  0.17051302  1
  Fe  Fe11  1  0.33348051  1.00294336  0.33661164  1
  Cr  Cr12  1  0.33529004  0.33783156  1.00179209  1
  Ni  Ni13  1  0.50522412  0.50612994  0.17030070  1
  Cr  Cr14  1  0.33713491  0.33732339  0.33573179  1
  Ni  Ni15  1  0.33530425  0.66910842  0.00409499  1
  Fe  Fe16  1  0.50179335  0.83538914  0.16768723  1
  Fe  Fe17  1  0.33607645  0.66968806  0.33494060  1
  Ni  Ni18  1  0.67037045  1.00112594  1.00155842  1
  Fe  Fe19  1  0.83825684  0.17139672  0.16904937  1
  Cr  Cr20  1  0.67066653  0.00411758  0.33729101  1
  Cr  Cr21  1  0.66939620  0.33347386  0.00406708  1
  Ni  Ni22  1  0.83668202  0.50334207  0.17107417  1
  Ni  Ni23  1  0.66982794  0.33632869  0.33723978  1
  Fe  Fe24  1  0.66948046  0.67129958  0.00326337  1
  Fe  Fe25  1  0.83829813  0.83418420  0.16822705  1
  Fe  Fe26  1  0.67111783  0.66642324  0.33674877  1
  Fe  Fe27  1  0.17079336  0.16856399  0.50374360  1
  Ni  Ni28  1  1.00207394  1.00273425  0.66853464  1
  Fe  Fe29  1  0.16723220  0.16956559  0.83559517  1
  Fe  Fe30  1  0.17066066  0.50479355  0.50327171  1
  Fe  Fe31  1  0.00332356  0.33405849  0.67017023  1
  Fe  Fe32  1  0.16911474  0.50367327  0.83663096  1
  Ni  Ni33  1  0.16854608  0.83752596  0.50194341  1
  Fe  Fe34  1  1.00263718  0.67277585  0.66794357  1
  Cr  Cr35  1  0.17034415  0.83749140  0.83727843  1
  Ni  Ni36  1  0.50370039  0.17089133  0.50449582  1
  Ni  Ni37  1  0.33624201  0.00530368  0.66921815  1
  Fe  Fe38  1  0.50461287  0.16622934  0.83397910  1
  Ni  Ni39  1  0.50532639  0.50204689  0.50416243  1
  Fe  Fe40  1  0.33733599  0.33593721  0.66934506  1
  Fe  Fe41  1  0.50257164  0.50649814  0.83452253  1
  Cr  Cr42  1  0.50056747  0.83599277  0.50362508  1
  Fe  Fe43  1  0.33680854  0.67066859  0.67025691  1
  Ni  Ni44  1  0.50322515  0.83667577  0.83668550  1
  Fe  Fe45  1  0.83619649  0.17070879  0.50512901  1
  Ni  Ni46  1  0.67088366  1.00258236  0.67085256  1
  Ni  Ni47  1  0.83796697  0.16898422  0.83644792  1
  Fe  Fe48  1  0.83569094  0.50360838  0.50239011  1
  Fe  Fe49  1  0.66941753  0.33443968  0.66844566  1
  Cr  Cr50  1  0.83709759  0.50295514  0.83718652  1
  Fe  Fe51  1  0.83733056  0.83544333  0.50508433  1
  Ni  Ni52  1  0.67047322  0.67076971  0.66995219  1
  Ni  Ni53  1  0.83516649  0.83811632  0.83603051  1
" 