3750,Ni38Fe61Cr0_15,-237.951479127574, 214.243318880724,Ni38Fe61Cr0,"# generated using pymatgen
 data_CrFe33Ni20
_symmetry_space_group_name_H-M   'P 1'
_cell_length_a   7.40476031
_cell_length_b   7.40476031
_cell_length_c   10.47191246
_cell_angle_alpha   90.00000000
_cell_angle_beta   90.00000000
_cell_angle_gamma   90.00000000
_symmetry_Int_Tables_number   1
_chemical_formula_structural   CrFe33Ni20
_chemical_formula_sum   'Cr1 Fe33 Ni20'
_cell_volume   574.17993728
_cell_formula_units_Z   1
loop_
 _symmetry_equiv_pos_site_id
 _symmetry_equiv_pos_as_xyz
  1  'x, y, z'
loop_
 _atom_site_type_symbol
 _atom_site_label
 _atom_site_symmetry_multiplicity
 _atom_site_fract_x
 _atom_site_fract_y
 _atom_site_fract_z
 _atom_site_occupancy
  Fe  Fe0  1  1.00401601  0.00597114  0.00445178  1
  Fe  Fe1  1  0.17070827  0.17133010  0.17170363  1
  Fe  Fe2  1  0.00540349  0.00430350  0.33791815  1
  Fe  Fe3  1  1.00388726  0.33579837  0.00428015  1
  Fe  Fe4  1  0.17174815  0.50274021  0.17198141  1
  Fe  Fe5  1  0.00520705  0.33806686  0.33725392  1
  Cr  Cr6  1  0.00528355  0.67061128  0.00429082  1
  Fe  Fe7  1  0.17160869  0.83854375  0.17269114  1
  Ni  Ni8  1  0.00485106  0.67120955  0.33759823  1
  Fe  Fe9  1  0.33828317  1.00330844  0.00475325  1
  Ni  Ni10  1  0.50476956  0.17015632  0.17057781  1
  Ni  Ni11  1  0.33817500  0.00474688  0.33780859  1
  Fe  Fe12  1  0.33767861  0.33771222  1.00387876  1
  Fe  Fe13  1  0.50490387  0.50296423  0.17125127  1
  Ni  Ni14  1  0.33871862  0.33705182  0.33696524  1
  Ni  Ni15  1  0.33773040  0.67015268  1.00376472  1
  Fe  Fe16  1  0.50479006  0.83806432  0.17042641  1
  Ni  Ni17  1  0.33499634  0.67081594  0.33812914  1
  Ni  Ni18  1  0.67093250  0.00588405  0.00483440  1
  Ni  Ni19  1  0.83689218  0.17185828  0.17062924  1
  Fe  Fe20  1  0.66976094  1.00415292  0.33745424  1
  Fe  Fe21  1  0.67105385  0.33758945  0.00572785  1
  Ni  Ni22  1  0.83720717  0.50260339  0.17153406  1
  Ni  Ni23  1  0.67036599  0.33587790  0.33795971  1
  Fe  Fe24  1  0.66840911  0.67145744  1.00404492  1
  Fe  Fe25  1  0.83621096  0.83911623  0.17212239  1
  Fe  Fe26  1  0.67005966  0.67044948  0.33774533  1
  Ni  Ni27  1  0.17108869  0.17211498  0.50390876  1
  Fe  Fe28  1  0.00433363  0.00422371  0.67024967  1
  Fe  Fe29  1  0.17162830  0.17122028  0.83678583  1
  Ni  Ni30  1  0.17067733  0.50346568  0.50358053  1
  Fe  Fe31  1  0.00488812  0.33769114  0.67107516  1
  Ni  Ni32  1  0.17129227  0.50283233  0.83691212  1
  Ni  Ni33  1  0.17143939  0.83704225  0.50517605  1
  Ni  Ni34  1  0.00470586  0.67106113  0.67101618  1
  Fe  Fe35  1  0.17223901  0.83734509  0.83645386  1
  Fe  Fe36  1  0.50292907  0.17016957  0.50350677  1
  Fe  Fe37  1  0.33758921  1.00383046  0.66991993  1
  Fe  Fe38  1  0.50399819  0.17075598  0.83783479  1
  Fe  Fe39  1  0.50267762  0.50458196  0.50371292  1
  Ni  Ni40  1  0.33767551  0.33749723  0.67075921  1
  Fe  Fe41  1  0.50305940  0.50464731  0.83765476  1
  Ni  Ni42  1  0.50474513  0.83783636  0.50367857  1
  Fe  Fe43  1  0.33747680  0.67108074  0.67107601  1
  Ni  Ni44  1  0.50474852  0.83773818  0.83831953  1
  Fe  Fe45  1  0.83800088  0.16967564  0.50390775  1
  Ni  Ni46  1  0.67100037  0.00482919  0.67019709  1
  Fe  Fe47  1  0.83699659  0.17029740  0.83828317  1
  Fe  Fe48  1  0.83881810  0.50564896  0.50341494  1
  Fe  Fe49  1  0.67108904  0.33759094  0.67048392  1
  Fe  Fe50  1  0.83685846  0.50404039  0.83696724  1
  Ni  Ni51  1  0.83642859  0.83743166  0.50392160  1
  Fe  Fe52  1  0.67069077  0.67164691  0.67082566  1
  Fe  Fe53  1  0.83639199  0.83828613  0.83571981  1
" 