2586,Ni38Fe60Cr0_14,-236.707079791721, 208.668036301223,Ni38Fe60Cr0,"# generated using pymatgen
 data_Cr(Fe8Ni5)2
_symmetry_space_group_name_H-M   'P 1'
_cell_length_a   7.40399115
_cell_length_b   7.40399115
_cell_length_c   10.47082470
_cell_angle_alpha   90.00000000
_cell_angle_beta   90.00000000
_cell_angle_gamma   90.00000000
_symmetry_Int_Tables_number   1
_chemical_formula_structural   Cr(Fe8Ni5)2
_chemical_formula_sum   'Cr2 Fe32 Ni20'
_cell_volume   574.00102927
_cell_formula_units_Z   2
loop_
 _symmetry_equiv_pos_site_id
 _symmetry_equiv_pos_as_xyz
  1  'x, y, z'
loop_
 _atom_site_type_symbol
 _atom_site_label
 _atom_site_symmetry_multiplicity
 _atom_site_fract_x
 _atom_site_fract_y
 _atom_site_fract_z
 _atom_site_occupancy
  Fe  Fe0  1  0.00461764  0.00603518  0.00453221  1
  Fe  Fe1  1  0.16856067  0.17161479  0.17095496  1
  Fe  Fe2  1  1.00400787  0.00432865  0.33735250  1
  Fe  Fe3  1  1.00401089  0.33617940  0.00452838  1
  Fe  Fe4  1  0.17069609  0.50278521  0.17190311  1
  Ni  Ni5  1  0.00503036  0.33794779  0.33672318  1
  Cr  Cr6  1  1.00292174  0.67150407  0.00468191  1
  Fe  Fe7  1  0.17025451  0.83837685  0.17172236  1
  Ni  Ni8  1  1.00272962  0.67131323  0.33769740  1
  Fe  Fe9  1  0.33667886  1.00322544  1.00303906  1
  Cr  Cr10  1  0.50459254  0.17129547  0.17194609  1
  Fe  Fe11  1  0.33637802  1.00291915  0.33869728  1
  Ni  Ni12  1  0.33752135  0.33720759  1.00315654  1
  Fe  Fe13  1  0.50515017  0.50542538  0.17138187  1
  Ni  Ni14  1  0.33675823  0.33718028  0.33866947  1
  Fe  Fe15  1  0.33912874  0.67110346  1.00379138  1
  Fe  Fe16  1  0.50590936  0.83604735  0.17095882  1
  Fe  Fe17  1  0.33742073  0.67049705  0.33809777  1
  Fe  Fe18  1  0.67148585  1.00363678  1.00378037  1
  Ni  Ni19  1  0.83929592  0.17196268  0.17018262  1
  Fe  Fe20  1  0.67239185  1.00358272  0.33814139  1
  Fe  Fe21  1  0.67202536  0.33863120  1.00323457  1
  Ni  Ni22  1  0.83736958  0.50300412  0.17203688  1
  Fe  Fe23  1  0.67270090  0.33930997  0.33886588  1
  Fe  Fe24  1  0.66920782  0.67049891  0.00476720  1
  Ni  Ni25  1  0.83766527  0.83782084  0.17172812  1
  Ni  Ni26  1  0.67205056  0.67231967  0.33699125  1
  Fe  Fe27  1  0.17117163  0.17172284  0.50417256  1
  Fe  Fe28  1  0.00457344  0.00500873  0.67088339  1
  Fe  Fe29  1  0.17129899  0.17111874  0.83764519  1
  Fe  Fe30  1  0.17065999  0.50420352  0.50420141  1
  Ni  Ni31  1  0.00454466  0.33854742  0.67166720  1
  Fe  Fe32  1  0.17174773  0.50396073  0.83667024  1
  Ni  Ni33  1  0.17223717  0.83779369  0.50419458  1
  Ni  Ni34  1  1.00366488  0.67157308  0.67052539  1
  Ni  Ni35  1  0.17311866  0.83867446  0.83715106  1
  Fe  Fe36  1  0.50432769  0.17141936  0.50432646  1
  Fe  Fe37  1  0.33711730  1.00411058  0.67104639  1
  Fe  Fe38  1  0.50395040  0.17104622  0.83777180  1
  Ni  Ni39  1  0.50479892  0.50422377  0.50421207  1
  Ni  Ni40  1  0.33818831  0.33669831  0.67095659  1
  Fe  Fe41  1  0.50390755  0.50442548  0.83722408  1
  Ni  Ni42  1  0.50219253  0.83732566  0.50373828  1
  Fe  Fe43  1  0.33737240  0.67052484  0.67088721  1
  Ni  Ni44  1  0.50229278  0.83785003  0.83845317  1
  Ni  Ni45  1  0.83781499  0.17284122  0.50380617  1
  Fe  Fe46  1  0.67108320  0.00504268  0.67085527  1
  Fe  Fe47  1  0.83752710  0.17064625  0.83726476  1
  Ni  Ni48  1  0.83734271  0.50245123  0.50385681  1
  Ni  Ni49  1  0.67004556  0.33700057  0.67065536  1
  Ni  Ni50  1  0.83705585  0.50217065  0.83687940  1
  Fe  Fe51  1  0.83729757  0.83667159  0.50353209  1
  Fe  Fe52  1  0.67100930  0.66939789  0.67047109  1
  Fe  Fe53  1  0.83704503  0.83774403  0.83733621  1
" 