6660,Ni38Cr62_14,-224.587473629708, 139.213280641683,Ni38Cr62,"# generated using pymatgen
 data_Cr10Ni17
_symmetry_space_group_name_H-M   'P 1'
_cell_length_a   7.49337479
_cell_length_b   7.49337479
_cell_length_c   10.59723226
_cell_angle_alpha   90.00000000
_cell_angle_beta   90.00000000
_cell_angle_gamma   90.00000000
_symmetry_Int_Tables_number   1
_chemical_formula_structural   Cr10Ni17
_chemical_formula_sum   'Cr20 Ni34'
_cell_volume   595.04164713
_cell_formula_units_Z   2
loop_
 _symmetry_equiv_pos_site_id
 _symmetry_equiv_pos_as_xyz
  1  'x, y, z'
loop_
 _atom_site_type_symbol
 _atom_site_label
 _atom_site_symmetry_multiplicity
 _atom_site_fract_x
 _atom_site_fract_y
 _atom_site_fract_z
 _atom_site_occupancy
  Ni  Ni0  1  0.99668867  -0.00150879  -0.00116763  1
  Ni  Ni1  1  0.16172469  0.16448034  0.16590463  1
  Ni  Ni2  1  0.99663747  0.00018316  0.32907583  1
  Cr  Cr3  1  0.99726809  0.32946495  0.99644412  1
  Cr  Cr4  1  0.16499430  0.49569459  0.16527688  1
  Ni  Ni5  1  -0.00081585  0.32991842  0.33201060  1
  Cr  Cr6  1  0.99724783  0.66712529  0.99628409  1
  Ni  Ni7  1  0.16056396  0.83501600  0.16449829  1
  Cr  Cr8  1  0.99580855  0.66459930  0.33233642  1
  Cr  Cr9  1  0.32814172  -0.00174184  0.99619775  1
  Cr  Cr10  1  0.49844112  0.16581191  0.16459251  1
  Cr  Cr11  1  0.32962481  0.00116272  0.33358269  1
  Ni  Ni12  1  0.32957326  0.33093567  -0.00109363  1
  Ni  Ni13  1  0.49885887  0.49707442  0.16575984  1
  Ni  Ni14  1  0.32946093  0.33033118  0.33209728  1
  Cr  Cr15  1  0.33061687  0.66507492  0.99775835  1
  Cr  Cr16  1  0.50070171  0.83167982  0.16540724  1
  Cr  Cr17  1  0.33244147  0.66349642  0.33018099  1
  Ni  Ni18  1  0.66922141  0.99735997  0.99704975  1
  Ni  Ni19  1  0.83441101  0.16217757  0.16516400  1
  Ni  Ni20  1  0.66811859  0.99729351  0.33174078  1
  Cr  Cr21  1  0.66715204  0.33150566  -0.00121210  1
  Ni  Ni22  1  0.83101759  0.49813511  0.16704750  1
  Cr  Cr23  1  0.66594431  0.33260247  0.33110656  1
  Cr  Cr24  1  0.66711669  0.66485010  -0.00107444  1
  Ni  Ni25  1  0.83266064  0.83442077  0.16608446  1
  Ni  Ni26  1  0.66788380  0.66528614  0.33048113  1
  Ni  Ni27  1  0.16554585  0.16870711  0.49777748  1
  Cr  Cr28  1  -0.00100780  -0.00126090  0.66642183  1
  Ni  Ni29  1  0.16379817  0.16605910  0.83106603  1
  Ni  Ni30  1  0.16310400  0.49463280  0.50033905  1
  Ni  Ni31  1  -0.00116995  0.33358425  0.66555406  1
  Ni  Ni32  1  0.16407294  0.49726433  0.82862697  1
  Cr  Cr33  1  0.16202928  0.83068797  0.49954275  1
  Ni  Ni34  1  0.99710127  0.66291266  0.66581392  1
  Ni  Ni35  1  0.16404182  0.83153941  0.83021310  1
  Ni  Ni36  1  0.49723022  0.16535118  0.50035726  1
  Ni  Ni37  1  0.33191613  -0.00057213  0.66556732  1
  Cr  Cr38  1  0.49943497  0.16417334  0.82979260  1
  Cr  Cr39  1  0.49775907  0.49781515  0.49931823  1
  Ni  Ni40  1  0.32914174  0.33018196  0.66387848  1
  Cr  Cr41  1  0.49692791  0.49828910  0.83065974  1
  Cr  Cr42  1  0.50182231  0.83304032  0.50065282  1
  Ni  Ni43  1  0.32983960  0.66513724  0.66710526  1
  Ni  Ni44  1  0.49958259  0.83209094  0.82881316  1
  Cr  Cr45  1  0.83220796  0.16404935  0.49837086  1
  Ni  Ni46  1  0.66454717  0.99769222  0.66580053  1
  Ni  Ni47  1  0.83292981  0.16360243  0.83121400  1
  Ni  Ni48  1  0.83355364  0.49948718  0.50009711  1
  Ni  Ni49  1  0.66678354  0.33157779  0.66510306  1
  Ni  Ni50  1  0.83341998  0.49828244  0.82748129  1
  Ni  Ni51  1  0.83011028  0.83015768  0.49773716  1
  Ni  Ni52  1  0.66777396  0.66549334  0.66555320  1
  Ni  Ni53  1  0.83113735  0.83273230  0.83074720  1
" 