3902,Ni38Cr62_12,-224.615328655516, 141.443251242721,Ni38Cr62,"# generated using pymatgen
 data_Cr10Ni17
_symmetry_space_group_name_H-M   'P 1'
_cell_length_a   7.49855026
_cell_length_b   7.49855026
_cell_length_c   10.60455148
_cell_angle_alpha   90.00000000
_cell_angle_beta   90.00000000
_cell_angle_gamma   90.00000000
_symmetry_Int_Tables_number   1
_chemical_formula_structural   Cr10Ni17
_chemical_formula_sum   'Cr20 Ni34'
_cell_volume   596.27543546
_cell_formula_units_Z   2
loop_
 _symmetry_equiv_pos_site_id
 _symmetry_equiv_pos_as_xyz
  1  'x, y, z'
loop_
 _atom_site_type_symbol
 _atom_site_label
 _atom_site_symmetry_multiplicity
 _atom_site_fract_x
 _atom_site_fract_y
 _atom_site_fract_z
 _atom_site_occupancy
  Ni  Ni0  1  0.99777457  -0.00174375  0.00009055  1
  Ni  Ni1  1  0.16359802  0.16565821  0.16206144  1
  Cr  Cr2  1  0.99594103  -0.00058448  0.33043893  1
  Ni  Ni3  1  0.99690085  0.33197489  -0.00087702  1
  Ni  Ni4  1  0.16251713  0.49603307  0.16291751  1
  Cr  Cr5  1  -0.00144599  0.33022969  0.33006337  1
  Ni  Ni6  1  0.99536282  0.66348888  -0.00069361  1
  Ni  Ni7  1  0.16119969  0.83204227  0.16191469  1
  Cr  Cr8  1  0.99606471  0.66400547  0.32904449  1
  Ni  Ni9  1  0.32827083  -0.00130732  -0.00052243  1
  Cr  Cr10  1  0.49802921  0.16575778  0.16393544  1
  Cr  Cr11  1  0.32995877  0.00129983  0.33030584  1
  Ni  Ni12  1  0.32907634  0.33153773  -0.00143940  1
  Cr  Cr13  1  0.49888565  0.49570303  0.16370368  1
  Ni  Ni14  1  0.33050622  0.33001166  0.33238131  1
  Cr  Cr15  1  0.33098662  0.66442685  0.99597793  1
  Cr  Cr16  1  0.49958060  0.83230262  0.16403325  1
  Cr  Cr17  1  0.33005755  0.66193386  0.33093746  1
  Cr  Cr18  1  0.66690309  0.99701004  0.99625863  1
  Ni  Ni19  1  0.83334828  0.16439992  0.16280440  1
  Ni  Ni20  1  0.66720190  -0.00104399  0.33270563  1
  Ni  Ni21  1  0.66778253  0.33407463  0.99697262  1
  Ni  Ni22  1  0.83367659  0.49812830  0.16093571  1
  Cr  Cr23  1  0.66599014  0.33000725  0.33345253  1
  Ni  Ni24  1  0.66820172  0.66268638  0.99650009  1
  Ni  Ni25  1  0.83364242  0.83126164  0.16340731  1
  Cr  Cr26  1  0.66761507  0.66450728  0.33154505  1
  Ni  Ni27  1  0.16459196  0.16672419  0.49929458  1
  Ni  Ni28  1  0.99331558  -0.00077197  0.66321464  1
  Cr  Cr29  1  0.16142557  0.16715480  0.83220230  1
  Cr  Cr30  1  0.16455162  0.49631509  0.50077895  1
  Ni  Ni31  1  0.99601903  0.33109476  0.66436758  1
  Ni  Ni32  1  0.16349331  0.49734865  0.83009920  1
  Cr  Cr33  1  0.16109253  0.83096027  0.50099271  1
  Ni  Ni34  1  0.99652009  0.66341220  0.66520211  1
  Cr  Cr35  1  0.16181349  0.82982732  0.83025944  1
  Ni  Ni36  1  0.49922928  0.16738472  0.49808276  1
  Cr  Cr37  1  0.33236972  -0.00126421  0.66472352  1
  Cr  Cr38  1  0.49986662  0.16662753  0.83211358  1
  Ni  Ni39  1  0.49782741  0.49360988  0.49951824  1
  Ni  Ni40  1  0.33195763  0.33394414  0.66287565  1
  Ni  Ni41  1  0.49812464  0.49758727  0.83104662  1
  Cr  Cr42  1  0.50032277  0.83192543  0.49781486  1
  Ni  Ni43  1  0.33143498  0.66070640  0.66630767  1
  Ni  Ni44  1  0.49986998  0.82930620  0.83141102  1
  Ni  Ni45  1  0.82990577  0.16359124  0.50072727  1
  Ni  Ni46  1  0.66837551  -0.00043086  0.66374977  1
  Ni  Ni47  1  0.83175623  0.16560788  0.83010002  1
  Ni  Ni48  1  0.83028266  0.49688897  0.50028105  1
  Ni  Ni49  1  0.66568076  0.33048961  0.66354594  1
  Ni  Ni50  1  0.83208566  0.49718249  0.83253709  1
  Ni  Ni51  1  0.83099855  0.83325963  0.49922127  1
  Cr  Cr52  1  0.66471227  0.66334179  0.66622083  1
  Ni  Ni53  1  0.83131857  0.83094339  0.83102443  1
" 