6647,Ni38Fe61Cr0_13,-237.59557333286, 212.716496605206,Ni38Fe61Cr0,"# generated using pymatgen
 data_CrFe33Ni20
_symmetry_space_group_name_H-M   'P 1'
_cell_length_a   7.39853785
_cell_length_b   7.39853785
_cell_length_c   10.46311258
_cell_angle_alpha   90.00000000
_cell_angle_beta   90.00000000
_cell_angle_gamma   90.00000000
_symmetry_Int_Tables_number   1
_chemical_formula_structural   CrFe33Ni20
_chemical_formula_sum   'Cr1 Fe33 Ni20'
_cell_volume   572.73364784
_cell_formula_units_Z   1
loop_
 _symmetry_equiv_pos_site_id
 _symmetry_equiv_pos_as_xyz
  1  'x, y, z'
loop_
 _atom_site_type_symbol
 _atom_site_label
 _atom_site_symmetry_multiplicity
 _atom_site_fract_x
 _atom_site_fract_y
 _atom_site_fract_z
 _atom_site_occupancy
  Ni  Ni0  1  0.00465800  0.00591401  1.00457349  1
  Ni  Ni1  1  0.17120440  0.17260362  0.17101613  1
  Fe  Fe2  1  1.00419907  0.00499008  0.33723103  1
  Ni  Ni3  1  1.00391065  0.33649303  1.00457510  1
  Fe  Fe4  1  0.17029948  0.50438595  0.17122937  1
  Fe  Fe5  1  0.00491600  0.33724378  0.33730723  1
  Fe  Fe6  1  0.00467598  0.67173807  1.00424421  1
  Fe  Fe7  1  0.17073233  0.83901183  0.17152683  1
  Fe  Fe8  1  0.00636210  0.67165764  0.33905851  1
  Fe  Fe9  1  0.33657915  0.00505595  0.00470689  1
  Fe  Fe10  1  0.50531762  0.17087702  0.17200641  1
  Ni  Ni11  1  0.33676669  0.00493589  0.33730149  1
  Fe  Fe12  1  0.33650230  0.33778104  1.00405035  1
  Fe  Fe13  1  0.50437756  0.50322564  0.17022722  1
  Fe  Fe14  1  0.33804041  0.33760103  0.33867819  1
  Ni  Ni15  1  0.33888905  0.67185178  1.00449353  1
  Fe  Fe16  1  0.50356199  0.83978768  0.17080826  1
  Fe  Fe17  1  0.33659374  0.67130001  0.33780389  1
  Fe  Fe18  1  0.67277251  1.00443868  0.00466376  1
  Ni  Ni19  1  0.83829886  0.17064050  0.17138399  1
  Fe  Fe20  1  0.67129202  0.00643446  0.33780660  1
  Fe  Fe21  1  0.67209657  0.33763692  0.00532226  1
  Fe  Fe22  1  0.83921547  0.50262729  0.17054391  1
  Ni  Ni23  1  0.67196231  0.33703825  0.33814613  1
  Fe  Fe24  1  0.67205545  0.67181174  1.00434982  1
  Ni  Ni25  1  0.83765005  0.83903865  0.17012503  1
  Cr  Cr26  1  0.67216504  0.67073149  0.33816891  1
  Ni  Ni27  1  0.17185083  0.17279488  0.50471586  1
  Fe  Fe28  1  0.00491920  1.00419523  0.67195369  1
  Ni  Ni29  1  0.17120952  0.17260604  0.83815735  1
  Ni  Ni30  1  0.17258323  0.50390039  0.50440147  1
  Fe  Fe31  1  0.00567157  0.33803830  0.67187407  1
  Fe  Fe32  1  0.17030108  0.50419194  0.83762405  1
  Ni  Ni33  1  0.17184495  0.83719298  0.50450517  1
  Ni  Ni34  1  1.00270596  0.67157789  0.67151624  1
  Fe  Fe35  1  0.17043196  0.83890694  0.83770527  1
  Fe  Fe36  1  0.50320622  0.17035381  0.50451599  1
  Ni  Ni37  1  0.33734562  0.00582005  0.67201398  1
  Fe  Fe38  1  0.50476895  0.17087817  0.83736805  1
  Fe  Fe39  1  0.50316861  0.50436096  0.50568327  1
  Ni  Ni40  1  0.33772333  0.33611941  0.67106978  1
  Fe  Fe41  1  0.50506625  0.50427125  0.83797908  1
  Ni  Ni42  1  0.50478950  0.83776414  0.50571333  1
  Fe  Fe43  1  0.33793664  0.67127627  0.67118226  1
  Fe  Fe44  1  0.50484758  0.83873942  0.83740307  1
  Fe  Fe45  1  0.83849459  0.17081620  0.50414094  1
  Fe  Fe46  1  0.67129566  1.00355888  0.67142162  1
  Ni  Ni47  1  0.83881617  0.17063437  0.83810502  1
  Fe  Fe48  1  0.83959300  0.50495510  0.50568114  1
  Fe  Fe49  1  0.67092004  0.33829701  0.67105906  1
  Fe  Fe50  1  0.83852311  0.50426847  0.83766761  1
  Ni  Ni51  1  0.83725367  0.83849532  0.50560920  1
  Ni  Ni52  1  0.67280563  0.67120158  0.67144520  1
  Ni  Ni53  1  0.83684978  0.83795040  0.83815707  1
" 