2178,Ni38Fe19Cr41_19,-222.692042643015, 169.313898624144,Ni38Fe19Cr41,"# generated using pymatgen
 data_Cr12(FeNi2)5
_symmetry_space_group_name_H-M   'P 1'
_cell_length_a   7.49588676
_cell_length_b   7.49588676
_cell_length_c   10.60078472
_cell_angle_alpha   90.00000000
_cell_angle_beta   90.00000000
_cell_angle_gamma   90.00000000
_symmetry_Int_Tables_number   1
_chemical_formula_structural   Cr12(FeNi2)5
_chemical_formula_sum   'Cr24 Fe10 Ni20'
_cell_volume   595.64026627
_cell_formula_units_Z   2
loop_
 _symmetry_equiv_pos_site_id
 _symmetry_equiv_pos_as_xyz
  1  'x, y, z'
loop_
 _atom_site_type_symbol
 _atom_site_label
 _atom_site_symmetry_multiplicity
 _atom_site_fract_x
 _atom_site_fract_y
 _atom_site_fract_z
 _atom_site_occupancy
  Cr  Cr0  1  0.99780556  0.99637406  -0.00137555  1
  Cr  Cr1  1  0.16618433  0.16429376  0.16523325  1
  Ni  Ni2  1  -0.00045874  0.99508617  0.33210070  1
  Fe  Fe3  1  0.00037348  0.33028358  0.99430980  1
  Cr  Cr4  1  0.16366605  0.49590406  0.16535175  1
  Fe  Fe5  1  -0.00078701  0.32957904  0.33394012  1
  Cr  Cr6  1  0.99679014  0.66751310  0.99607298  1
  Ni  Ni7  1  0.16445132  0.83175515  0.16767821  1
  Ni  Ni8  1  -0.00070510  0.67177311  0.33029726  1
  Ni  Ni9  1  0.32979131  0.00140152  0.99708882  1
  Cr  Cr10  1  0.49420045  0.16395695  0.16374631  1
  Fe  Fe11  1  0.32927058  0.99585579  0.33261282  1
  Ni  Ni12  1  0.33149710  0.32987119  0.99644706  1
  Fe  Fe13  1  0.49666709  0.49871868  0.16675297  1
  Ni  Ni14  1  0.33192821  0.33231276  0.33180134  1
  Cr  Cr15  1  0.33020024  0.66398461  -0.00018893  1
  Cr  Cr16  1  0.49815148  0.83207615  0.16479398  1
  Fe  Fe17  1  0.33142225  0.66638649  0.33296209  1
  Cr  Cr18  1  0.66736088  -0.00174789  -0.00183459  1
  Cr  Cr19  1  0.83389938  0.16420019  0.16865321  1
  Fe  Fe20  1  0.66647141  0.99517864  0.33296737  1
  Cr  Cr21  1  0.66339148  0.33087119  0.99688910  1
  Cr  Cr22  1  0.83207632  0.50014236  0.16585396  1
  Cr  Cr23  1  0.66106770  0.33052671  0.33430180  1
  Fe  Fe24  1  0.66577794  0.66581164  -0.00182656  1
  Ni  Ni25  1  0.83176172  0.82883918  0.16720825  1
  Ni  Ni26  1  0.66302428  0.66603413  0.32982497  1
  Ni  Ni27  1  0.16365186  0.16096903  0.49543850  1
  Ni  Ni28  1  0.99749183  -0.00046311  0.66448586  1
  Ni  Ni29  1  0.16655567  0.16563864  0.83326894  1
  Cr  Cr30  1  0.16344538  0.49791290  0.49532629  1
  Cr  Cr31  1  0.99730583  0.32732649  0.66619275  1
  Fe  Fe32  1  0.16387579  0.49492440  0.83306759  1
  Ni  Ni33  1  0.16673711  0.83610185  0.49625419  1
  Cr  Cr34  1  0.00008526  0.66868769  0.66678741  1
  Cr  Cr35  1  0.16604680  0.83591934  0.82912608  1
  Cr  Cr36  1  0.49817087  0.16161786  0.50003221  1
  Fe  Fe37  1  0.33013470  0.00024718  0.66392901  1
  Ni  Ni38  1  0.49543378  0.16439876  0.83080650  1
  Ni  Ni39  1  0.49833864  0.49966787  0.49473769  1
  Cr  Cr40  1  0.33339334  0.33120812  0.66487594  1
  Cr  Cr41  1  0.49989823  0.49672515  0.83234667  1
  Ni  Ni42  1  0.49647264  0.83169536  0.49720793  1
  Cr  Cr43  1  0.33069860  0.66497348  0.65962911  1
  Cr  Cr44  1  0.49952512  0.83705063  0.83013299  1
  Ni  Ni45  1  0.83375122  0.16267213  0.49899328  1
  Ni  Ni46  1  0.66737982  0.00142633  0.66496791  1
  Fe  Fe47  1  0.83018395  0.16276360  0.82837908  1
  Cr  Cr48  1  0.83054613  0.49670106  0.49734775  1
  Ni  Ni49  1  0.66423641  0.32710186  0.66515080  1
  Ni  Ni50  1  0.83226637  0.49681282  0.83247570  1
  Cr  Cr51  1  0.83099099  0.83292487  0.49757681  1
  Cr  Cr52  1  0.66368741  0.66367986  0.66507319  1
  Ni  Ni53  1  0.83053846  0.83045560  0.83084944  1
" 