7042,Ni38Fe39Cr22_0,-230.918739537456, 196.959598810594,Ni38Fe39Cr22,"# generated using pymatgen
 data_Cr13Fe21Ni20
_symmetry_space_group_name_H-M   'P 1'
_cell_length_a   7.44814850
_cell_length_b   7.44814850
_cell_length_c   10.53327263
_cell_angle_alpha   90.00000000
_cell_angle_beta   90.00000000
_cell_angle_gamma   90.00000000
_symmetry_Int_Tables_number   1
_chemical_formula_structural   Cr13Fe21Ni20
_chemical_formula_sum   'Cr13 Fe21 Ni20'
_cell_volume   584.33241528
_cell_formula_units_Z   1
loop_
 _symmetry_equiv_pos_site_id
 _symmetry_equiv_pos_as_xyz
  1  'x, y, z'
loop_
 _atom_site_type_symbol
 _atom_site_label
 _atom_site_symmetry_multiplicity
 _atom_site_fract_x
 _atom_site_fract_y
 _atom_site_fract_z
 _atom_site_occupancy
  Ni  Ni0  1  1.00045287  0.99840319  1.00039232  1
  Cr  Cr1  1  0.16832013  0.16707648  0.16482621  1
  Fe  Fe2  1  0.99877218  1.00108484  0.33475976  1
  Fe  Fe3  1  0.99681383  0.33621850  0.99885976  1
  Cr  Cr4  1  0.16714255  0.50321561  0.16338853  1
  Cr  Cr5  1  0.99876454  0.33472440  0.33338591  1
  Ni  Ni6  1  1.00059858  0.66930102  0.99875187  1
  Ni  Ni7  1  0.16911475  0.83476007  0.16655856  1
  Cr  Cr8  1  0.99983249  0.66845958  0.33375362  1
  Fe  Fe9  1  0.33667079  0.99789197  1.00055301  1
  Fe  Fe10  1  0.50431487  0.16668043  0.16575108  1
  Cr  Cr11  1  0.33502279  0.99956051  0.33426905  1
  Ni  Ni12  1  0.33753250  0.33529321  1.00044368  1
  Fe  Fe13  1  0.50223967  0.50367752  0.16501787  1
  Cr  Cr14  1  0.33604282  0.33573346  0.33479074  1
  Ni  Ni15  1  0.33436449  0.66859264  1.00015940  1
  Fe  Fe16  1  0.50151267  0.83292734  0.16589065  1
  Fe  Fe17  1  0.33744908  0.66892861  0.33326006  1
  Ni  Ni18  1  0.66809483  0.00127206  0.99995383  1
  Fe  Fe19  1  0.83351099  0.16711134  0.16458793  1
  Ni  Ni20  1  0.66816601  0.99987662  0.33460178  1
  Ni  Ni21  1  0.66740964  0.33460514  1.00034146  1
  Ni  Ni22  1  0.83128878  0.50183352  0.16501492  1
  Cr  Cr23  1  0.66941172  0.33547823  0.33420761  1
  Ni  Ni24  1  0.66875705  0.66784780  1.00122307  1
  Cr  Cr25  1  0.83322431  0.83391234  0.16598588  1
  Fe  Fe26  1  0.66679623  0.66852907  0.33533528  1
  Fe  Fe27  1  0.16312828  0.16543228  0.50275157  1
  Fe  Fe28  1  0.99823222  1.00009194  0.66993173  1
  Cr  Cr29  1  0.16713576  0.16863905  0.83710998  1
  Cr  Cr30  1  0.16837503  0.50254512  0.50292949  1
  Ni  Ni31  1  0.99937887  0.33640664  0.66877803  1
  Ni  Ni32  1  0.16809723  0.50260889  0.83581230  1
  Fe  Fe33  1  0.16565061  0.83477489  0.50243243  1
  Fe  Fe34  1  0.99903689  0.66896743  0.67005274  1
  Ni  Ni35  1  0.16744137  0.83252338  0.83575825  1
  Cr  Cr36  1  0.50321322  0.16706834  0.50375227  1
  Cr  Cr37  1  0.33530409  0.99868811  0.67075248  1
  Fe  Fe38  1  0.50412770  0.16792915  0.83575690  1
  Fe  Fe39  1  0.50443349  0.50553250  0.50265789  1
  Cr  Cr40  1  0.33506791  0.33586528  0.66917149  1
  Fe  Fe41  1  0.50306043  0.50344564  0.83624568  1
  Fe  Fe42  1  0.50436684  0.83160830  0.50192881  1
  Fe  Fe43  1  0.33589228  0.66871704  0.67075869  1
  Fe  Fe44  1  0.50430883  0.83221732  0.83589432  1
  Fe  Fe45  1  0.83540975  0.16647779  0.50390456  1
  Ni  Ni46  1  0.66903243  0.99857824  0.66933672  1
  Ni  Ni47  1  0.83218057  0.16721135  0.83421932  1
  Ni  Ni48  1  0.83355024  0.50345047  0.50345809  1
  Fe  Fe49  1  0.67072972  0.33553396  0.66983966  1
  Ni  Ni50  1  0.83378326  0.50253219  0.83459278  1
  Ni  Ni51  1  0.83323675  0.83560181  0.50168748  1
  Ni  Ni52  1  0.66974887  0.66891721  0.66781703  1
  Ni  Ni53  1  0.83296666  0.83415061  0.83511590  1
" 