5779,Ni38Fe24Cr37_16,-224.450738864831, 180.002594021884,Ni38Fe24Cr37,"# generated using pymatgen
 data_Cr11(Fe3Ni5)2
_symmetry_space_group_name_H-M   'P 1'
_cell_length_a   7.48550648
_cell_length_b   7.48550648
_cell_length_c   10.58610478
_cell_angle_alpha   90.00000000
_cell_angle_beta   90.00000000
_cell_angle_gamma   90.00000000
_symmetry_Int_Tables_number   1
_chemical_formula_structural   Cr11(Fe3Ni5)2
_chemical_formula_sum   'Cr22 Fe12 Ni20'
_cell_volume   593.16916809
_cell_formula_units_Z   2
loop_
 _symmetry_equiv_pos_site_id
 _symmetry_equiv_pos_as_xyz
  1  'x, y, z'
loop_
 _atom_site_type_symbol
 _atom_site_label
 _atom_site_symmetry_multiplicity
 _atom_site_fract_x
 _atom_site_fract_y
 _atom_site_fract_z
 _atom_site_occupancy
  Ni  Ni0  1  0.99806634  0.99857146  0.99709464  1
  Fe  Fe1  1  0.16399979  0.16030461  0.16668158  1
  Fe  Fe2  1  0.99746775  0.99876021  0.33309525  1
  Cr  Cr3  1  0.99735896  0.32865811  -0.00038752  1
  Cr  Cr4  1  0.16469733  0.50313492  0.16750285  1
  Cr  Cr5  1  0.99671384  0.33125203  0.33363363  1
  Ni  Ni6  1  0.99815580  0.66637335  0.99722888  1
  Cr  Cr7  1  0.16395309  0.82977172  0.16374374  1
  Fe  Fe8  1  -0.00094303  0.66522615  0.33487508  1
  Cr  Cr9  1  0.33058616  0.99716054  0.99611404  1
  Ni  Ni10  1  0.50004130  0.16396369  0.16742874  1
  Ni  Ni11  1  0.33293940  0.99584331  0.33073873  1
  Cr  Cr12  1  0.33183437  0.33181918  0.00153067  1
  Fe  Fe13  1  0.49900382  0.50235874  0.16628178  1
  Cr  Cr14  1  0.32993568  0.33171891  0.33042300  1
  Ni  Ni15  1  0.33326280  0.66674541  0.99841343  1
  Ni  Ni16  1  0.49667236  0.83339133  0.16798951  1
  Ni  Ni17  1  0.33335491  0.66940376  0.33257629  1
  Cr  Cr18  1  0.66663765  0.99764518  -0.00020529  1
  Ni  Ni19  1  0.83123848  0.16378833  0.16654839  1
  Fe  Fe20  1  0.66529926  -0.00100604  0.33226214  1
  Cr  Cr21  1  0.66704339  0.33340241  0.00053651  1
  Fe  Fe22  1  0.83227841  0.50069671  0.16556506  1
  Cr  Cr23  1  0.66854670  0.33215679  0.33035555  1
  Cr  Cr24  1  0.66456965  0.66680582  0.99700197  1
  Cr  Cr25  1  0.83468517  0.83323369  0.16603125  1
  Cr  Cr26  1  0.66651640  0.66823059  0.33372335  1
  Cr  Cr27  1  0.16478906  0.16318809  0.50105103  1
  Ni  Ni28  1  0.99771895  0.99853547  0.66660060  1
  Fe  Fe29  1  0.16178342  0.16205552  0.82954713  1
  Fe  Fe30  1  0.16092785  0.50002024  0.49927161  1
  Ni  Ni31  1  0.99395048  0.33140611  0.66449252  1
  Cr  Cr32  1  0.16336179  0.50186764  0.83059947  1
  Cr  Cr33  1  0.16415044  0.83070022  0.49825072  1
  Ni  Ni34  1  0.99479054  0.66617248  0.66376871  1
  Fe  Fe35  1  0.16195159  0.83343109  0.83162256  1
  Cr  Cr36  1  0.50182362  0.16358176  0.49999767  1
  Ni  Ni37  1  0.32962143  0.99627823  0.66705703  1
  Cr  Cr38  1  0.50209019  0.16689822  0.82788309  1
  Cr  Cr39  1  0.49921114  0.49821979  0.50151597  1
  Cr  Cr40  1  0.32820371  0.33141519  0.66540241  1
  Fe  Fe41  1  0.50187048  0.50070237  0.83020704  1
  Fe  Fe42  1  0.50074984  0.83296685  0.49807693  1
  Cr  Cr43  1  0.33351082  0.66986889  0.66489693  1
  Ni  Ni44  1  0.49876397  0.83021137  0.83003188  1
  Ni  Ni45  1  0.83261846  0.16446200  0.50008107  1
  Cr  Cr46  1  0.66774004  0.99368099  0.66346054  1
  Ni  Ni47  1  0.83428930  0.16429760  0.82971734  1
  Ni  Ni48  1  0.83375271  0.50043568  0.50206429  1
  Ni  Ni49  1  0.67172027  0.33442943  0.66562373  1
  Fe  Fe50  1  0.83171879  0.50008796  0.82922107  1
  Ni  Ni51  1  0.83430530  0.83174222  0.49858476  1
  Ni  Ni52  1  0.66886609  0.66568296  0.66618201  1
  Ni  Ni53  1  0.83522335  0.83167014  0.83142801  1
" 