2792,Ni38Cr62_17,-224.788014783537, 146.992342025939,Ni38Cr62,"# generated using pymatgen
 data_Cr10Ni17
_symmetry_space_group_name_H-M   'P 1'
_cell_length_a   7.49478640
_cell_length_b   7.49478640
_cell_length_c   10.59922857
_cell_angle_alpha   90.00000000
_cell_angle_beta   90.00000000
_cell_angle_gamma   90.00000000
_symmetry_Int_Tables_number   1
_chemical_formula_structural   Cr10Ni17
_chemical_formula_sum   'Cr20 Ni34'
_cell_volume   595.37799226
_cell_formula_units_Z   2
loop_
 _symmetry_equiv_pos_site_id
 _symmetry_equiv_pos_as_xyz
  1  'x, y, z'
loop_
 _atom_site_type_symbol
 _atom_site_label
 _atom_site_symmetry_multiplicity
 _atom_site_fract_x
 _atom_site_fract_y
 _atom_site_fract_z
 _atom_site_occupancy
  Ni  Ni0  1  0.00084225  0.99680393  0.99706268  1
  Ni  Ni1  1  0.16593854  0.16456483  0.16597857  1
  Ni  Ni2  1  0.99766284  0.00202862  0.33141177  1
  Cr  Cr3  1  0.99748650  0.33334843  -0.00138298  1
  Ni  Ni4  1  0.16254185  0.49544357  0.16497311  1
  Ni  Ni5  1  0.99767497  0.33149349  0.33112992  1
  Ni  Ni6  1  0.99782043  0.66383251  0.99699944  1
  Cr  Cr7  1  0.16349547  0.83498390  0.16380300  1
  Cr  Cr8  1  0.99799705  0.66073767  0.33261641  1
  Ni  Ni9  1  0.33080691  -0.00147661  0.99762455  1
  Ni  Ni10  1  0.49469678  0.16412789  0.16591791  1
  Ni  Ni11  1  0.33301569  0.00131620  0.32969230  1
  Cr  Cr12  1  0.33331027  0.33087802  -0.00019036  1
  Ni  Ni13  1  0.50077100  0.49787230  0.16480860  1
  Cr  Cr14  1  0.33091712  0.33241550  0.33017750  1
  Cr  Cr15  1  0.33129670  0.66508763  0.99625157  1
  Cr  Cr16  1  0.50031501  0.83143012  0.16643378  1
  Cr  Cr17  1  0.33238259  0.66277958  0.33247322  1
  Cr  Cr18  1  0.66204284  -0.00066068  0.99525079  1
  Cr  Cr19  1  0.83393272  0.16460265  0.16599773  1
  Ni  Ni20  1  0.66376400  0.00000607  0.33280134  1
  Cr  Cr21  1  0.66376639  0.33241345  0.99591656  1
  Ni  Ni22  1  0.83115670  0.49978625  0.16464410  1
  Cr  Cr23  1  0.66552738  0.33180324  0.33268092  1
  Ni  Ni24  1  0.66557476  0.66203362  0.99799739  1
  Cr  Cr25  1  0.83055896  0.82913755  0.16516867  1
  Ni  Ni26  1  0.66512773  0.66246561  0.33084974  1
  Cr  Cr27  1  0.16579670  0.16545570  0.49728582  1
  Ni  Ni28  1  0.99647316  0.99682971  0.66596832  1
  Cr  Cr29  1  0.16603640  0.16390958  0.83130344  1
  Ni  Ni30  1  0.16514451  0.49699239  0.50052567  1
  Cr  Cr31  1  0.99478386  0.33323032  0.66393938  1
  Ni  Ni32  1  0.16514033  0.50163943  0.82925576  1
  Cr  Cr33  1  0.16553050  0.83246040  0.50112419  1
  Ni  Ni34  1  -0.00068845  0.66387989  0.66614912  1
  Ni  Ni35  1  0.16582830  0.83083330  0.83048015  1
  Ni  Ni36  1  0.49965381  0.16537659  0.50007827  1
  Ni  Ni37  1  0.33426486  0.99741379  0.66731910  1
  Ni  Ni38  1  0.49816287  0.16465211  0.82818058  1
  Ni  Ni39  1  0.49975355  0.49692908  0.50113076  1
  Ni  Ni40  1  0.33567844  0.33389290  0.66464728  1
  Ni  Ni41  1  0.49962260  0.49903196  0.82861787  1
  Cr  Cr42  1  0.49925677  0.83131797  0.49821798  1
  Ni  Ni43  1  0.33129722  0.66328654  0.66664941  1
  Ni  Ni44  1  0.49649028  0.83074920  0.82969999  1
  Ni  Ni45  1  0.82972688  0.16536243  0.49838666  1
  Ni  Ni46  1  0.66371608  0.00107300  0.66530809  1
  Ni  Ni47  1  0.82979208  0.16510704  0.82867187  1
  Ni  Ni48  1  0.82968931  0.49704655  0.49871022  1
  Ni  Ni49  1  0.66310382  0.33086616  0.66518797  1
  Ni  Ni50  1  0.82977634  0.49942167  0.83104096  1
  Cr  Cr51  1  0.82978174  0.83197988  0.49781044  1
  Ni  Ni52  1  0.66380234  0.66230670  0.66567351  1
  Cr  Cr53  1  0.83203315  0.82977131  0.83161983  1
" 