1816,Ni38Fe24Cr37_5,-224.140998787747, 174.281864552643,Ni38Fe24Cr37,"# generated using pymatgen
 data_Cr11(Fe3Ni5)2
_symmetry_space_group_name_H-M   'P 1'
_cell_length_a   7.48797516
_cell_length_b   7.48797516
_cell_length_c   10.58959603
_cell_angle_alpha   90.00000000
_cell_angle_beta   90.00000000
_cell_angle_gamma   90.00000000
_symmetry_Int_Tables_number   1
_chemical_formula_structural   Cr11(Fe3Ni5)2
_chemical_formula_sum   'Cr22 Fe12 Ni20'
_cell_volume   593.75623471
_cell_formula_units_Z   2
loop_
 _symmetry_equiv_pos_site_id
 _symmetry_equiv_pos_as_xyz
  1  'x, y, z'
loop_
 _atom_site_type_symbol
 _atom_site_label
 _atom_site_symmetry_multiplicity
 _atom_site_fract_x
 _atom_site_fract_y
 _atom_site_fract_z
 _atom_site_occupancy
  Fe  Fe0  1  -0.00075901  -0.00054473  -0.00089740  1
  Cr  Cr1  1  0.16447068  0.16372780  0.16806206  1
  Ni  Ni2  1  -0.00082262  -0.00071268  0.33088032  1
  Cr  Cr3  1  0.99614204  0.33259328  0.99759380  1
  Cr  Cr4  1  0.16647327  0.49727364  0.16885913  1
  Ni  Ni5  1  0.99762965  0.33067714  0.33320070  1
  Cr  Cr6  1  0.00146833  0.66537732  0.00070826  1
  Fe  Fe7  1  0.16425789  0.83329459  0.16655807  1
  Cr  Cr8  1  0.99798070  0.66414150  0.33373252  1
  Ni  Ni9  1  0.32894167  0.99441171  0.99806015  1
  Fe  Fe10  1  0.49751417  0.16642710  0.16775422  1
  Ni  Ni11  1  0.33076401  0.00028466  0.33331760  1
  Cr  Cr12  1  0.33111396  0.32850969  0.99588706  1
  Cr  Cr13  1  0.49838874  0.49704314  0.16458151  1
  Ni  Ni14  1  0.33026566  0.33026181  0.33588930  1
  Fe  Fe15  1  0.33179985  0.66498976  0.99653190  1
  Cr  Cr16  1  0.49653235  0.83332312  0.16538472  1
  Cr  Cr17  1  0.33048814  0.66766981  0.33471036  1
  Cr  Cr18  1  0.66381628  0.00145569  0.00043685  1
  Fe  Fe19  1  0.83026246  0.16681835  0.16743104  1
  Ni  Ni20  1  0.66540474  -0.00039452  0.33125528  1
  Ni  Ni21  1  0.66606463  0.33202912  0.99849183  1
  Ni  Ni22  1  0.83189014  0.49596087  0.16618043  1
  Ni  Ni23  1  0.66559671  0.33179540  0.32902043  1
  Cr  Cr24  1  0.66705944  0.66387472  0.99786126  1
  Fe  Fe25  1  0.83329984  0.83287698  0.16756915  1
  Cr  Cr26  1  0.66685461  0.66596970  0.33560145  1
  Ni  Ni27  1  0.16314799  0.16551186  0.49789273  1
  Ni  Ni28  1  0.00204570  0.99785048  0.66660601  1
  Fe  Fe29  1  0.16589049  0.16271139  0.83130908  1
  Fe  Fe30  1  0.16511838  0.49795875  0.49906128  1
  Cr  Cr31  1  0.00060773  0.33131968  0.66705257  1
  Ni  Ni32  1  0.16582184  0.49982662  0.83001968  1
  Ni  Ni33  1  0.16175994  0.83538424  0.49797967  1
  Ni  Ni34  1  0.00039845  0.66500778  0.66255177  1
  Fe  Fe35  1  0.16660137  0.83136625  0.83090670  1
  Cr  Cr36  1  0.49740736  0.16762041  0.49361926  1
  Cr  Cr37  1  0.33127021  0.00005789  0.66263354  1
  Cr  Cr38  1  0.50008670  0.16464229  0.83187862  1
  Ni  Ni39  1  0.49712593  0.49741593  0.49727596  1
  Fe  Fe40  1  0.33090063  0.33413513  0.66414461  1
  Ni  Ni41  1  0.49479176  0.49946254  0.83366186  1
  Ni  Ni42  1  0.49875609  0.83157585  0.49641114  1
  Cr  Cr43  1  0.33226037  0.66716411  0.66366726  1
  Ni  Ni44  1  0.49695382  0.82985020  0.83320280  1
  Cr  Cr45  1  0.83451257  0.16246851  0.49680452  1
  Cr  Cr46  1  0.66503497  0.99732686  0.66252035  1
  Ni  Ni47  1  0.83617577  0.16467234  0.83431422  1
  Fe  Fe48  1  0.83226585  0.49694142  0.49756701  1
  Cr  Cr49  1  0.66552586  0.33316633  0.66825750  1
  Fe  Fe50  1  0.83143763  0.49928634  0.83208346  1
  Ni  Ni51  1  0.83597165  0.83289201  0.49831350  1
  Cr  Cr52  1  0.66552019  0.66521673  0.66169239  1
  Cr  Cr53  1  0.83425228  0.83457290  0.82845034  1
" 