8214,Ni38Fe61Cr0_14,-237.016656064857, 213.299090497223,Ni38Fe61Cr0,"# generated using pymatgen
 data_CrFe33Ni20
_symmetry_space_group_name_H-M   'P 1'
_cell_length_a   7.39370174
_cell_length_b   7.39370174
_cell_length_c   10.45627327
_cell_angle_alpha   90.00000000
_cell_angle_beta   90.00000000
_cell_angle_gamma   90.00000000
_symmetry_Int_Tables_number   1
_chemical_formula_structural   CrFe33Ni20
_chemical_formula_sum   'Cr1 Fe33 Ni20'
_cell_volume   571.61126519
_cell_formula_units_Z   1
loop_
 _symmetry_equiv_pos_site_id
 _symmetry_equiv_pos_as_xyz
  1  'x, y, z'
loop_
 _atom_site_type_symbol
 _atom_site_label
 _atom_site_symmetry_multiplicity
 _atom_site_fract_x
 _atom_site_fract_y
 _atom_site_fract_z
 _atom_site_occupancy
  Fe  Fe0  1  0.00584571  1.00463694  0.00523397  1
  Ni  Ni1  1  0.16958991  0.17063066  0.17315199  1
  Ni  Ni2  1  1.00469311  1.00344525  0.33698556  1
  Fe  Fe3  1  0.00547770  0.33780266  1.00436102  1
  Fe  Fe4  1  0.17320304  0.50554458  0.17109504  1
  Fe  Fe5  1  0.00532385  0.33734637  0.33688723  1
  Ni  Ni6  1  0.00609276  0.67119352  1.00352906  1
  Fe  Fe7  1  0.17232901  0.83672072  0.17273907  1
  Ni  Ni8  1  1.00486740  0.67026199  0.33895848  1
  Fe  Fe9  1  0.33772925  1.00306960  0.00586556  1
  Fe  Fe10  1  0.50369442  0.17155416  0.17181580  1
  Ni  Ni11  1  0.33911662  0.00653327  0.33860819  1
  Fe  Fe12  1  0.33756062  0.33689001  0.00509305  1
  Ni  Ni13  1  0.50595187  0.50739831  0.17125397  1
  Fe  Fe14  1  0.33804418  0.33780682  0.33824024  1
  Ni  Ni15  1  0.33728128  0.66994956  1.00456838  1
  Ni  Ni16  1  0.50508391  0.83735028  0.17271902  1
  Fe  Fe17  1  0.33840583  0.67350022  0.33830336  1
  Ni  Ni18  1  0.67134417  0.00672547  1.00470544  1
  Fe  Fe19  1  0.83634057  0.17102603  0.17127934  1
  Ni  Ni20  1  0.67091766  0.00593542  0.33814920  1
  Fe  Fe21  1  0.67173944  0.34019253  1.00454366  1
  Fe  Fe22  1  0.83908640  0.50618643  0.17048539  1
  Fe  Fe23  1  0.67125238  0.33913203  0.33711440  1
  Fe  Fe24  1  0.67095226  0.67338361  1.00401104  1
  Fe  Fe25  1  0.83812315  0.83805179  0.17155219  1
  Fe  Fe26  1  0.67199173  0.67349049  0.33882572  1
  Fe  Fe27  1  0.17394570  0.17029639  0.50457940  1
  Fe  Fe28  1  0.00676324  1.00315637  0.67162340  1
  Ni  Ni29  1  0.17130217  0.17032040  0.83660459  1
  Fe  Fe30  1  0.17230731  0.50378633  0.50509978  1
  Fe  Fe31  1  0.00602391  0.34079036  0.67344429  1
  Fe  Fe32  1  0.17278550  0.50360367  0.83830967  1
  Ni  Ni33  1  0.17225402  0.83680957  0.50407433  1
  Fe  Fe34  1  0.00595168  0.67119687  0.67130088  1
  Fe  Fe35  1  0.17145039  0.83809100  0.83734647  1
  Ni  Ni36  1  0.50490601  0.17245197  0.50427206  1
  Fe  Fe37  1  0.33938514  1.00368201  0.67069826  1
  Ni  Ni38  1  0.50437809  0.16971142  0.83957932  1
  Fe  Fe39  1  0.50443820  0.50511707  0.50493154  1
  Ni  Ni40  1  0.33814821  0.33686286  0.67165308  1
  Fe  Fe41  1  0.50472563  0.50344575  0.83857154  1
  Fe  Fe42  1  0.50516059  0.83913596  0.50535779  1
  Ni  Ni43  1  0.33882534  0.66929364  0.67132781  1
  Ni  Ni44  1  0.50324479  0.83704455  0.83802852  1
  Cr  Cr45  1  0.83869571  0.17353595  0.50621614  1
  Fe  Fe46  1  0.66882818  1.00484648  0.67348199  1
  Ni  Ni47  1  0.83897596  0.17368626  0.83825677  1
  Fe  Fe48  1  0.83791930  0.50745582  0.50599954  1
  Fe  Fe49  1  0.66902287  0.34032835  0.67344468  1
  Ni  Ni50  1  0.83874076  0.50586738  0.83810914  1
  Fe  Fe51  1  0.83843696  0.83811718  0.50449241  1
  Ni  Ni52  1  0.67192341  0.67268496  0.67235085  1
  Fe  Fe53  1  0.83726400  0.84076400  0.83861164  1
" 