8954,Ni38Fe62_8,-242.841340716637, 225.278125239112,Ni38Fe62,"# generated using pymatgen
 data_Fe10Ni17
_symmetry_space_group_name_H-M   'P 1'
_cell_length_a   7.40663798
_cell_length_b   7.40663798
_cell_length_c   10.47456788
_cell_angle_alpha   90.00000000
_cell_angle_beta   90.00000000
_cell_angle_gamma   90.00000000
_symmetry_Int_Tables_number   1
_chemical_formula_structural   Fe10Ni17
_chemical_formula_sum   'Fe20 Ni34'
_cell_volume   574.61684251
_cell_formula_units_Z   2
loop_
 _symmetry_equiv_pos_site_id
 _symmetry_equiv_pos_as_xyz
  1  'x, y, z'
loop_
 _atom_site_type_symbol
 _atom_site_label
 _atom_site_symmetry_multiplicity
 _atom_site_fract_x
 _atom_site_fract_y
 _atom_site_fract_z
 _atom_site_occupancy
  Ni  Ni0  1  1.00365317  1.00376986  0.00434726  1
  Ni  Ni1  1  0.17118291  0.17042216  0.16985770  1
  Fe  Fe2  1  1.00400957  0.00505271  0.33741369  1
  Fe  Fe3  1  0.00457402  0.33727247  1.00380005  1
  Ni  Ni4  1  0.17082901  0.50543532  0.17009595  1
  Fe  Fe5  1  0.00422324  0.33678102  0.33762180  1
  Ni  Ni6  1  1.00398285  0.67096747  1.00286725  1
  Ni  Ni7  1  0.17114449  0.83637757  0.17083382  1
  Ni  Ni8  1  1.00399195  0.67057265  0.33830816  1
  Ni  Ni9  1  0.33733022  0.00550363  1.00340354  1
  Ni  Ni10  1  0.50485901  0.17009552  0.17075184  1
  Ni  Ni11  1  0.33816914  0.00563594  0.33808882  1
  Ni  Ni12  1  0.33765530  0.33716486  1.00363784  1
  Fe  Fe13  1  0.50299248  0.50292110  0.17092372  1
  Ni  Ni14  1  0.33847637  0.33667438  0.33841752  1
  Ni  Ni15  1  0.33666907  0.66956296  0.00434816  1
  Fe  Fe16  1  0.50327214  0.83871039  0.17071001  1
  Fe  Fe17  1  0.33775933  0.67053428  0.33769099  1
  Ni  Ni18  1  0.67125285  0.00475604  1.00363726  1
  Ni  Ni19  1  0.83619246  0.17040984  0.17050804  1
  Ni  Ni20  1  0.67040591  0.00562855  0.33819443  1
  Fe  Fe21  1  0.67059866  0.33685059  0.00418933  1
  Fe  Fe22  1  0.83828884  0.50375953  0.17074576  1
  Ni  Ni23  1  0.66975984  0.33634350  0.33776432  1
  Ni  Ni24  1  0.67158408  0.67064266  1.00382689  1
  Fe  Fe25  1  0.83835435  0.83821699  0.17078261  1
  Fe  Fe26  1  0.67025369  0.67074685  0.33792744  1
  Ni  Ni27  1  0.17099643  0.17108268  0.50367329  1
  Ni  Ni28  1  1.00339321  1.00370353  0.66999392  1
  Ni  Ni29  1  0.17116888  0.17013626  0.83870268  1
  Ni  Ni30  1  0.17066262  0.50448474  0.50408285  1
  Fe  Fe31  1  0.00446608  0.33786916  0.67081246  1
  Ni  Ni32  1  0.17009563  0.50569256  0.83805623  1
  Fe  Fe33  1  0.17046563  0.83713394  0.50441967  1
  Ni  Ni34  1  0.00448263  0.67106305  0.67106133  1
  Ni  Ni35  1  0.17117165  0.83640441  0.83762623  1
  Ni  Ni36  1  0.50430363  0.16999794  0.50365064  1
  Fe  Fe37  1  0.33653819  1.00348807  0.67074324  1
  Ni  Ni38  1  0.50459685  0.16982847  0.83783260  1
  Ni  Ni39  1  0.50397326  0.50490223  0.50390879  1
  Fe  Fe40  1  0.33622443  0.33768268  0.67053460  1
  Fe  Fe41  1  0.50326780  0.50355054  0.83737445  1
  Ni  Ni42  1  0.50474277  0.83733388  0.50367319  1
  Ni  Ni43  1  0.33654747  0.66965830  0.67021762  1
  Fe  Fe44  1  0.50351476  0.83755087  0.83758718  1
  Ni  Ni45  1  0.83693346  0.17031038  0.50390774  1
  Fe  Fe46  1  0.67115913  1.00351973  0.67025550  1
  Ni  Ni47  1  0.83646775  0.17090349  0.83781645  1
  Ni  Ni48  1  0.83759851  0.50492454  0.50356003  1
  Fe  Fe49  1  0.67154267  0.33772425  0.67014182  1
  Ni  Ni50  1  0.83787209  0.50459912  0.83792849  1
  Ni  Ni51  1  0.83651286  0.83700042  0.50408217  1
  Fe  Fe52  1  0.67134390  0.67098995  0.67050300  1
  Fe  Fe53  1  0.83870873  0.83787195  0.83737562  1
" 