4556,Ni38Fe39Cr22_18,-230.693334254124, 194.1732563529,Ni38Fe39Cr22,"# generated using pymatgen
 data_Cr13Fe21Ni20
_symmetry_space_group_name_H-M   'P 1'
_cell_length_a   7.45104091
_cell_length_b   7.45104091
_cell_length_c   10.53736310
_cell_angle_alpha   90.00000000
_cell_angle_beta   90.00000000
_cell_angle_gamma   90.00000000
_symmetry_Int_Tables_number   1
_chemical_formula_structural   Cr13Fe21Ni20
_chemical_formula_sum   'Cr13 Fe21 Ni20'
_cell_volume   585.01343636
_cell_formula_units_Z   1
loop_
 _symmetry_equiv_pos_site_id
 _symmetry_equiv_pos_as_xyz
  1  'x, y, z'
loop_
 _atom_site_type_symbol
 _atom_site_label
 _atom_site_symmetry_multiplicity
 _atom_site_fract_x
 _atom_site_fract_y
 _atom_site_fract_z
 _atom_site_occupancy
  Ni  Ni0  1  0.00195633  0.00143284  0.00263825  1
  Fe  Fe1  1  0.16582559  0.16693539  0.16600228  1
  Fe  Fe2  1  0.00269976  1.00067202  0.33270708  1
  Fe  Fe3  1  0.00410861  0.33265829  0.00163580  1
  Fe  Fe4  1  0.16698592  0.50142685  0.16757976  1
  Ni  Ni5  1  0.00181467  0.33624691  0.33352964  1
  Cr  Cr6  1  0.00273977  0.66850528  0.99951277  1
  Ni  Ni7  1  0.16890558  0.83575037  0.16868088  1
  Fe  Fe8  1  1.00018351  0.66703371  0.33454852  1
  Ni  Ni9  1  0.33293345  1.00099300  0.00222071  1
  Fe  Fe10  1  0.50065382  0.16605316  0.16540225  1
  Fe  Fe11  1  0.33229412  1.00023896  0.33378167  1
  Ni  Ni12  1  0.33262798  0.33511222  0.00140685  1
  Ni  Ni13  1  0.49934872  0.50253016  0.16771524  1
  Cr  Cr14  1  0.33329801  0.33450285  0.33452332  1
  Ni  Ni15  1  0.33391705  0.66711909  0.00122907  1
  Fe  Fe16  1  0.50043629  0.83410524  0.16692702  1
  Fe  Fe17  1  0.33396119  0.66830846  0.33421711  1
  Ni  Ni18  1  0.66833290  1.00014261  0.00243001  1
  Ni  Ni19  1  0.83641481  0.16639272  0.16641749  1
  Cr  Cr20  1  0.66787203  0.99932243  0.33297978  1
  Cr  Cr21  1  0.66673275  0.33440976  0.00385508  1
  Ni  Ni22  1  0.83459205  0.50001148  0.16988456  1
  Cr  Cr23  1  0.66863042  0.33662276  0.33352237  1
  Cr  Cr24  1  0.66664823  0.66869930  1.00051972  1
  Ni  Ni25  1  0.83552960  0.83681642  0.16851051  1
  Fe  Fe26  1  0.66907964  0.66657937  0.33417512  1
  Fe  Fe27  1  0.16748289  0.16902737  0.50157575  1
  Cr  Cr28  1  0.00214739  1.00088518  0.66755126  1
  Ni  Ni29  1  0.16790162  0.16906824  0.83491161  1
  Ni  Ni30  1  0.16828697  0.50116172  0.50140129  1
  Ni  Ni31  1  0.00462835  0.33586566  0.66787251  1
  Ni  Ni32  1  0.17086206  0.50000992  0.83467055  1
  Fe  Fe33  1  0.16831520  0.83310305  0.49931102  1
  Cr  Cr34  1  0.00274848  0.66610264  0.66848058  1
  Fe  Fe35  1  0.17109508  0.83486701  0.83630275  1
  Fe  Fe36  1  0.49916619  0.16632137  0.50294999  1
  Fe  Fe37  1  0.33512862  1.00050894  0.66759966  1
  Cr  Cr38  1  0.49917224  0.16608806  0.83433963  1
  Fe  Fe39  1  0.50003023  0.50323541  0.50132478  1
  Fe  Fe40  1  0.33152143  0.33588471  0.66796340  1
  Ni  Ni41  1  0.49604265  0.50385539  0.83367886  1
  Fe  Fe42  1  0.50046663  0.83366577  0.50181696  1
  Ni  Ni43  1  0.33426109  0.66705233  0.66794413  1
  Fe  Fe44  1  0.49851962  0.83427813  0.83447735  1
  Cr  Cr45  1  0.83555638  0.16773586  0.50200292  1
  Ni  Ni46  1  0.66538835  0.99925025  0.66712914  1
  Cr  Cr47  1  0.83649472  0.16582655  0.83541423  1
  Ni  Ni48  1  0.83658208  0.50241990  0.49980121  1
  Cr  Cr49  1  0.66712614  0.33504638  0.66584615  1
  Fe  Fe50  1  0.83653361  0.49993500  0.83391623  1
  Ni  Ni51  1  0.83346394  0.83363464  0.49962609  1
  Cr  Cr52  1  0.66695285  0.66876474  0.66825580  1
  Fe  Fe53  1  0.83360514  0.83578687  0.83528610  1
" 