8094,Ni38Fe19Cr41_4,-222.44323357067, 163.739385380567,Ni38Fe19Cr41,"# generated using pymatgen
 data_Cr12(FeNi2)5
_symmetry_space_group_name_H-M   'P 1'
_cell_length_a   7.49504375
_cell_length_b   7.49504375
_cell_length_c   10.59959252
_cell_angle_alpha   90.00000000
_cell_angle_beta   90.00000000
_cell_angle_gamma   90.00000000
_symmetry_Int_Tables_number   1
_chemical_formula_structural   Cr12(FeNi2)5
_chemical_formula_sum   'Cr24 Fe10 Ni20'
_cell_volume   595.43932551
_cell_formula_units_Z   2
loop_
 _symmetry_equiv_pos_site_id
 _symmetry_equiv_pos_as_xyz
  1  'x, y, z'
loop_
 _atom_site_type_symbol
 _atom_site_label
 _atom_site_symmetry_multiplicity
 _atom_site_fract_x
 _atom_site_fract_y
 _atom_site_fract_z
 _atom_site_occupancy
  Ni  Ni0  1  -0.00124430  0.99700377  -0.00161134  1
  Cr  Cr1  1  0.16486515  0.16650711  0.16460374  1
  Cr  Cr2  1  0.99662136  0.99768483  0.33037742  1
  Cr  Cr3  1  0.99760994  0.33180006  0.99759895  1
  Ni  Ni4  1  0.16827086  0.49908440  0.16350689  1
  Cr  Cr5  1  -0.00184104  0.33358320  0.33138946  1
  Fe  Fe6  1  -0.00014611  0.66450471  0.99679829  1
  Cr  Cr7  1  0.16384305  0.83041466  0.16037308  1
  Cr  Cr8  1  0.99781769  0.66318848  0.33284372  1
  Fe  Fe9  1  0.33116738  -0.00117015  0.99749910  1
  Ni  Ni10  1  0.49997715  0.16855342  0.16482473  1
  Cr  Cr11  1  0.33331588  0.00043674  0.33133370  1
  Fe  Fe12  1  0.33258299  0.33338990  -0.00146695  1
  Ni  Ni13  1  0.49681510  0.49614563  0.16510976  1
  Ni  Ni14  1  0.33449043  0.33242818  0.33005262  1
  Fe  Fe15  1  0.32930871  0.66211257  0.99737877  1
  Fe  Fe16  1  0.49732837  0.83163755  0.16334555  1
  Cr  Cr17  1  0.33041953  0.66252561  0.33140246  1
  Cr  Cr18  1  0.66497066  0.00078359  -0.00094198  1
  Ni  Ni19  1  0.82885279  0.16389322  0.16465636  1
  Cr  Cr20  1  0.66437827  -0.00026739  0.33043108  1
  Cr  Cr21  1  0.66430272  0.33138248  0.99654235  1
  Fe  Fe22  1  0.83108799  0.49556316  0.16565945  1
  Ni  Ni23  1  0.66263288  0.33126143  0.32858890  1
  Cr  Cr24  1  0.66349246  0.66217889  -0.00026773  1
  Fe  Fe25  1  0.83145049  0.83174679  0.16334468  1
  Cr  Cr26  1  0.66602752  0.66367745  0.33033793  1
  Cr  Cr27  1  0.16699914  0.16803920  0.49919679  1
  Ni  Ni28  1  -0.00124144  0.99731979  0.66603978  1
  Cr  Cr29  1  0.16308518  0.16404501  0.83086700  1
  Ni  Ni30  1  0.16304419  0.49590775  0.49986359  1
  Ni  Ni31  1  -0.00077837  0.33365869  0.66575285  1
  Ni  Ni32  1  0.16649431  0.49941499  0.83123837  1
  Cr  Cr33  1  0.16208788  0.83137819  0.50182690  1
  Ni  Ni34  1  -0.00139509  0.66349511  0.66535215  1
  Ni  Ni35  1  0.16347794  0.83043656  0.83256080  1
  Ni  Ni36  1  0.49786347  0.16665425  0.49938473  1
  Ni  Ni37  1  0.33117443  0.00073156  0.66635158  1
  Fe  Fe38  1  0.49601422  0.16571194  0.83019571  1
  Cr  Cr39  1  0.49731764  0.49344083  0.49609433  1
  Ni  Ni40  1  0.33043087  0.32989359  0.66589815  1
  Ni  Ni41  1  0.49480013  0.49598950  0.83287669  1
  Cr  Cr42  1  0.50034765  0.83361157  0.49960668  1
  Cr  Cr43  1  0.32827419  0.66341576  0.66546073  1
  Cr  Cr44  1  0.49600306  0.83091641  0.83094677  1
  Cr  Cr45  1  0.83049663  0.16519206  0.49954419  1
  Fe  Fe46  1  0.66551389  0.00029782  0.66471475  1
  Ni  Ni47  1  0.83238366  0.16391443  0.83004859  1
  Ni  Ni48  1  0.83364622  0.49920143  0.49906202  1
  Cr  Cr49  1  0.66500402  0.33099159  0.66852970  1
  Fe  Fe50  1  0.83498577  0.49772906  0.82965147  1
  Ni  Ni51  1  0.83253104  0.83055861  0.50043444  1
  Cr  Cr52  1  0.66723738  0.66369645  0.66405263  1
  Cr  Cr53  1  0.83495135  0.83345481  0.82988492  1
" 