4777,Ni38Fe62_3,-242.719347139555, 221.20187836172,Ni38Fe62,"# generated using pymatgen
 data_Fe10Ni17
_symmetry_space_group_name_H-M   'P 1'
_cell_length_a   7.40796679
_cell_length_b   7.40796679
_cell_length_c   10.47644710
_cell_angle_alpha   90.00000000
_cell_angle_beta   90.00000000
_cell_angle_gamma   90.00000000
_symmetry_Int_Tables_number   1
_chemical_formula_structural   Fe10Ni17
_chemical_formula_sum   'Fe20 Ni34'
_cell_volume   574.92617025
_cell_formula_units_Z   2
loop_
 _symmetry_equiv_pos_site_id
 _symmetry_equiv_pos_as_xyz
  1  'x, y, z'
loop_
 _atom_site_type_symbol
 _atom_site_label
 _atom_site_symmetry_multiplicity
 _atom_site_fract_x
 _atom_site_fract_y
 _atom_site_fract_z
 _atom_site_occupancy
  Ni  Ni0  1  1.00348633  1.00368480  0.00398779  1
  Fe  Fe1  1  0.16966320  0.17054213  0.17027706  1
  Ni  Ni2  1  1.00227004  1.00359000  0.33702590  1
  Fe  Fe3  1  0.00498463  0.33647939  1.00383574  1
  Ni  Ni4  1  0.16995493  0.50377910  0.17110391  1
  Ni  Ni5  1  1.00388027  0.33742751  0.33616822  1
  Fe  Fe6  1  0.00502081  0.67050169  0.00513158  1
  Fe  Fe7  1  0.16915751  0.83700696  0.17125806  1
  Ni  Ni8  1  0.00440865  0.67094492  0.33736109  1
  Ni  Ni9  1  0.33687465  0.00454360  0.00409107  1
  Fe  Fe10  1  0.50481509  0.17108294  0.17066660  1
  Fe  Fe11  1  0.33719593  0.00411409  0.33788234  1
  Ni  Ni12  1  0.33770353  0.33762413  1.00386900  1
  Fe  Fe13  1  0.50469554  0.50399064  0.17149105  1
  Ni  Ni14  1  0.33771253  0.33903835  0.33723917  1
  Fe  Fe15  1  0.33680482  0.67124632  0.00406338  1
  Ni  Ni16  1  0.50451591  0.83753174  0.17108329  1
  Ni  Ni17  1  0.33721172  0.66936393  0.33654915  1
  Fe  Fe18  1  0.66998494  0.00442580  0.00406505  1
  Ni  Ni19  1  0.83749907  0.17064426  0.17038594  1
  Ni  Ni20  1  0.67194990  0.00409238  0.33652618  1
  Fe  Fe21  1  0.67073166  0.33581336  0.00457990  1
  Ni  Ni22  1  0.83909883  0.50341984  0.17092989  1
  Ni  Ni23  1  0.67037131  0.33690044  0.33738600  1
  Fe  Fe24  1  0.67013744  0.67172145  1.00387230  1
  Ni  Ni25  1  0.83591924  0.83789622  0.17082452  1
  Fe  Fe26  1  0.67093180  0.67038031  0.33729359  1
  Ni  Ni27  1  0.16956393  0.17139735  0.50404079  1
  Ni  Ni28  1  1.00321938  0.00497011  0.67094830  1
  Ni  Ni29  1  0.16999249  0.17206741  0.83711731  1
  Ni  Ni30  1  0.17082823  0.50429924  0.50397494  1
  Ni  Ni31  1  0.00482096  0.33648833  0.67108934  1
  Ni  Ni32  1  0.17035327  0.50363225  0.83688448  1
  Ni  Ni33  1  0.17154647  0.83626679  0.50408279  1
  Fe  Fe34  1  0.00514347  0.67077799  0.67012966  1
  Fe  Fe35  1  0.17122073  0.83914544  0.83679350  1
  Ni  Ni36  1  0.50498311  0.16993065  0.50421965  1
  Ni  Ni37  1  0.33751975  0.00407041  0.67063334  1
  Ni  Ni38  1  0.50453839  0.16887102  0.83702189  1
  Ni  Ni39  1  0.50299013  0.50503682  0.50398804  1
  Ni  Ni40  1  0.33662201  0.33808906  0.67085364  1
  Fe  Fe41  1  0.50318709  0.50295339  0.83648301  1
  Ni  Ni42  1  0.50374497  0.83699373  0.50400976  1
  Ni  Ni43  1  0.33874539  0.66980401  0.67178547  1
  Ni  Ni44  1  0.50421380  0.83783281  0.83687238  1
  Ni  Ni45  1  0.83741501  0.17064529  0.50397440  1
  Ni  Ni46  1  0.67122546  1.00284144  0.67180611  1
  Ni  Ni47  1  0.83743196  0.17046281  0.83760149  1
  Fe  Fe48  1  0.83741251  0.50334468  0.50331026  1
  Fe  Fe49  1  0.67013096  0.33616140  0.67005324  1
  Fe  Fe50  1  0.83712857  0.50314742  0.83751166  1
  Fe  Fe51  1  0.83739264  0.83827723  0.50354922  1
  Ni  Ni52  1  0.66962148  0.67140646  0.67013704  1
  Fe  Fe53  1  0.83736090  0.83863350  0.83751384  1
" 