8378,Ni38Fe60Cr0_12,-237.513143750028, 214.29195039305,Ni38Fe60Cr0,"# generated using pymatgen
 data_Cr(Fe8Ni5)2
_symmetry_space_group_name_H-M   'P 1'
_cell_length_a   7.40475314
_cell_length_b   7.40475314
_cell_length_c   10.47190232
_cell_angle_alpha   90.00000000
_cell_angle_beta   90.00000000
_cell_angle_gamma   90.00000000
_symmetry_Int_Tables_number   1
_chemical_formula_structural   Cr(Fe8Ni5)2
_chemical_formula_sum   'Cr2 Fe32 Ni20'
_cell_volume   574.17826981
_cell_formula_units_Z   2
loop_
 _symmetry_equiv_pos_site_id
 _symmetry_equiv_pos_as_xyz
  1  'x, y, z'
loop_
 _atom_site_type_symbol
 _atom_site_label
 _atom_site_symmetry_multiplicity
 _atom_site_fract_x
 _atom_site_fract_y
 _atom_site_fract_z
 _atom_site_occupancy
  Cr  Cr0  1  0.00485327  1.00269500  1.00349377  1
  Ni  Ni1  1  0.17121721  0.17185047  0.17349444  1
  Ni  Ni2  1  0.00458880  0.00487025  0.33765126  1
  Fe  Fe3  1  1.00388304  0.33848717  0.00451387  1
  Ni  Ni4  1  0.17123652  0.50307443  0.17005059  1
  Fe  Fe5  1  0.00501702  0.33602971  0.33695395  1
  Fe  Fe6  1  1.00356597  0.66955677  1.00407764  1
  Ni  Ni7  1  0.17207208  0.83769251  0.17081230  1
  Cr  Cr8  1  0.00585099  0.67302880  0.33705883  1
  Fe  Fe9  1  0.33952360  0.00453013  1.00345806  1
  Fe  Fe10  1  0.50342415  0.17133685  0.17137559  1
  Fe  Fe11  1  0.33699918  0.00446989  0.33804894  1
  Fe  Fe12  1  0.33780438  0.33687522  0.00466079  1
  Fe  Fe13  1  0.50279605  0.50381294  0.17093376  1
  Ni  Ni14  1  0.33925940  0.33813347  0.33717183  1
  Fe  Fe15  1  0.33816447  0.67121462  0.00468602  1
  Fe  Fe16  1  0.50286141  0.83746963  0.17034276  1
  Ni  Ni17  1  0.33842591  0.66990642  0.33814434  1
  Ni  Ni18  1  0.66972649  0.00515559  1.00341135  1
  Fe  Fe19  1  0.83768811  0.17167626  0.17170499  1
  Fe  Fe20  1  0.67039001  0.00471240  0.33718854  1
  Ni  Ni21  1  0.66969004  0.33756845  1.00363335  1
  Fe  Fe22  1  0.83775471  0.50291209  0.17004528  1
  Ni  Ni23  1  0.66910538  0.33734646  0.33738017  1
  Fe  Fe24  1  0.67089060  0.67128072  1.00300032  1
  Fe  Fe25  1  0.83734823  0.83803115  0.17041173  1
  Fe  Fe26  1  0.66885822  0.67037747  0.33807309  1
  Fe  Fe27  1  0.17127201  0.17002739  0.50431367  1
  Ni  Ni28  1  0.00540473  1.00293603  0.67112765  1
  Ni  Ni29  1  0.17123279  0.17119819  0.83620003  1
  Fe  Fe30  1  0.17234380  0.50358007  0.50419547  1
  Fe  Fe31  1  0.00441635  0.33739777  0.67115351  1
  Fe  Fe32  1  0.17106258  0.50527727  0.83789155  1
  Ni  Ni33  1  0.17097389  0.83823633  0.50494247  1
  Ni  Ni34  1  1.00382735  0.67231065  0.67198052  1
  Ni  Ni35  1  0.17090517  0.83768733  0.83686963  1
  Ni  Ni36  1  0.50489101  0.17174174  0.50427024  1
  Ni  Ni37  1  0.33621081  0.00463813  0.67154299  1
  Fe  Fe38  1  0.50399048  0.16977967  0.83738193  1
  Fe  Fe39  1  0.50388372  0.50413548  0.50407815  1
  Fe  Fe40  1  0.33722804  0.33730204  0.67062330  1
  Ni  Ni41  1  0.50548748  0.50418794  0.83721719  1
  Fe  Fe42  1  0.50363884  0.83772692  0.50478590  1
  Fe  Fe43  1  0.33705182  0.67218208  0.67080654  1
  Ni  Ni44  1  0.50515020  0.83696110  0.83716617  1
  Fe  Fe45  1  0.83768335  0.17026719  0.50375572  1
  Fe  Fe46  1  0.67115053  1.00304069  0.67150840  1
  Fe  Fe47  1  0.83649170  0.17064528  0.83715222  1
  Fe  Fe48  1  0.83639503  0.50355058  0.50528337  1
  Fe  Fe49  1  0.67097746  0.33763521  0.67066676  1
  Fe  Fe50  1  0.83732849  0.50529905  0.83728886  1
  Fe  Fe51  1  0.83712560  0.83880202  0.50589427  1
  Ni  Ni52  1  0.67146040  0.66994092  0.67096224  1
  Ni  Ni53  1  0.83656587  0.83656279  0.83630842  1
" 