3717,Ni38Fe24Cr37_2,-224.364300895453, 172.494021497912,Ni38Fe24Cr37,"# generated using pymatgen
 data_Cr11(Fe3Ni5)2
_symmetry_space_group_name_H-M   'P 1'
_cell_length_a   7.48584439
_cell_length_b   7.48584439
_cell_length_c   10.58658267
_cell_angle_alpha   90.00000000
_cell_angle_beta   90.00000000
_cell_angle_gamma   90.00000000
_symmetry_Int_Tables_number   1
_chemical_formula_structural   Cr11(Fe3Ni5)2
_chemical_formula_sum   'Cr22 Fe12 Ni20'
_cell_volume   593.24950421
_cell_formula_units_Z   2
loop_
 _symmetry_equiv_pos_site_id
 _symmetry_equiv_pos_as_xyz
  1  'x, y, z'
loop_
 _atom_site_type_symbol
 _atom_site_label
 _atom_site_symmetry_multiplicity
 _atom_site_fract_x
 _atom_site_fract_y
 _atom_site_fract_z
 _atom_site_occupancy
  Cr  Cr0  1  0.99849501  0.99730472  0.99774844  1
  Ni  Ni1  1  0.16485604  0.16939320  0.16754106  1
  Ni  Ni2  1  0.00303884  0.00221069  0.33430944  1
  Ni  Ni3  1  -0.00086943  0.33565040  0.99864319  1
  Fe  Fe4  1  0.16628203  0.49608320  0.16418371  1
  Ni  Ni5  1  -0.00056290  0.33009365  0.33253481  1
  Ni  Ni6  1  0.99675817  0.66338456  0.99684018  1
  Cr  Cr7  1  0.16559531  0.83290857  0.16589889  1
  Cr  Cr8  1  -0.00069042  0.66493338  0.33264757  1
  Cr  Cr9  1  0.33254624  0.00109333  0.99799453  1
  Cr  Cr10  1  0.49597991  0.16783158  0.16593150  1
  Ni  Ni11  1  0.32787794  -0.00072167  0.33338560  1
  Ni  Ni12  1  0.33180397  0.33317095  0.00144665  1
  Ni  Ni13  1  0.49781247  0.49970748  0.16691113  1
  Fe  Fe14  1  0.32997759  0.33246873  0.33075041  1
  Fe  Fe15  1  0.33007061  0.66242142  -0.00004903  1
  Cr  Cr16  1  0.49924313  0.82824655  0.16651950  1
  Ni  Ni17  1  0.33293480  0.66459766  0.33312673  1
  Fe  Fe18  1  0.66727064  -0.00106196  0.99650193  1
  Cr  Cr19  1  0.83637075  0.16698475  0.16755536  1
  Cr  Cr20  1  0.66567831  -0.00036403  0.33261762  1
  Cr  Cr21  1  0.66491018  0.33276552  0.99698634  1
  Fe  Fe22  1  0.83211513  0.49794977  0.16536171  1
  Ni  Ni23  1  0.66609888  0.33519988  0.33238719  1
  Fe  Fe24  1  0.66762879  0.66419898  -0.00123290  1
  Cr  Cr25  1  0.83139035  0.83061371  0.16511454  1
  Ni  Ni26  1  0.66317662  0.66097247  0.32939202  1
  Ni  Ni27  1  0.16218788  0.16350593  0.49675599  1
  Ni  Ni28  1  -0.00025146  -0.00074099  0.66507171  1
  Cr  Cr29  1  0.16347176  0.16534493  0.83275230  1
  Fe  Fe30  1  0.16554602  0.49771400  0.49775034  1
  Fe  Fe31  1  0.99676355  0.32865423  0.66486815  1
  Cr  Cr32  1  0.16426227  0.49957271  0.83377388  1
  Ni  Ni33  1  0.16742599  0.83492220  0.49922733  1
  Cr  Cr34  1  -0.00011838  0.66706809  0.66630645  1
  Ni  Ni35  1  0.16457368  0.83168819  0.83073436  1
  Cr  Cr36  1  0.49903201  0.16565703  0.49881601  1
  Ni  Ni37  1  0.32985302  0.99842660  0.66536122  1
  Fe  Fe38  1  0.50079383  0.16442293  0.83142041  1
  Cr  Cr39  1  0.49800574  0.50002087  0.49689496  1
  Cr  Cr40  1  0.33271200  0.33027350  0.66476193  1
  Cr  Cr41  1  0.49833505  0.49862880  0.83213008  1
  Cr  Cr42  1  0.49543970  0.83056340  0.49738294  1
  Fe  Fe43  1  0.32912219  0.66899193  0.66421849  1
  Cr  Cr44  1  0.49788874  0.83256805  0.83226870  1
  Ni  Ni45  1  0.83628328  0.16689157  0.49949733  1
  Fe  Fe46  1  0.66757731  0.00134299  0.66685122  1
  Ni  Ni47  1  0.83129131  0.16537267  0.82962392  1
  Cr  Cr48  1  0.83163225  0.49444933  0.49760893  1
  Fe  Fe49  1  0.66890085  0.32843763  0.66654228  1
  Ni  Ni50  1  0.83238037  0.49748354  0.83375087  1
  Cr  Cr51  1  0.83357464  0.83539006  0.49707931  1
  Cr  Cr52  1  0.66715633  0.66420336  0.66618460  1
  Ni  Ni53  1  0.83257473  0.83331258  0.83352177  1
" 