3174,Ni38Fe50Cr11_9,-234.769352858816, 205.005668229572,Ni38Fe50Cr11,"# generated using pymatgen
 data_Cr7Fe27Ni20
_symmetry_space_group_name_H-M   'P 1'
_cell_length_a   7.42778621
_cell_length_b   7.42778621
_cell_length_c   10.50447600
_cell_angle_alpha   90.00000000
_cell_angle_beta   90.00000000
_cell_angle_gamma   90.00000000
_symmetry_Int_Tables_number   1
_chemical_formula_structural   Cr7Fe27Ni20
_chemical_formula_sum   'Cr7 Fe27 Ni20'
_cell_volume   579.55303469
_cell_formula_units_Z   1
loop_
 _symmetry_equiv_pos_site_id
 _symmetry_equiv_pos_as_xyz
  1  'x, y, z'
loop_
 _atom_site_type_symbol
 _atom_site_label
 _atom_site_symmetry_multiplicity
 _atom_site_fract_x
 _atom_site_fract_y
 _atom_site_fract_z
 _atom_site_occupancy
  Ni  Ni0  1  1.00244863  1.00237616  0.00445987  1
  Ni  Ni1  1  0.17055884  0.17006157  0.17045055  1
  Fe  Fe2  1  1.00102184  0.00363049  0.33458373  1
  Ni  Ni3  1  1.00032782  0.33536989  0.00331835  1
  Fe  Fe4  1  0.16710591  0.50349007  0.17063371  1
  Ni  Ni5  1  1.00079567  0.33608691  0.33618173  1
  Ni  Ni6  1  0.00371898  0.67003027  0.00464969  1
  Fe  Fe7  1  0.16742484  0.83419446  0.16759711  1
  Fe  Fe8  1  0.00306425  0.66656971  0.33625073  1
  Fe  Fe9  1  0.33631954  1.00098101  0.00389221  1
  Fe  Fe10  1  0.50626219  0.17044021  0.17047851  1
  Cr  Cr11  1  0.33474769  1.00147117  0.33543036  1
  Cr  Cr12  1  0.33732048  0.33882915  0.00511437  1
  Fe  Fe13  1  0.50384672  0.50412502  0.17063487  1
  Ni  Ni14  1  0.33694252  0.33764886  0.33688274  1
  Ni  Ni15  1  0.33624508  0.67152631  1.00107011  1
  Fe  Fe16  1  0.50327854  0.83361563  0.16869330  1
  Ni  Ni17  1  0.33617020  0.66847291  0.33689119  1
  Fe  Fe18  1  0.66956701  1.00261636  0.00423768  1
  Fe  Fe19  1  0.83761288  0.17033524  0.16922536  1
  Fe  Fe20  1  0.67033763  0.00387314  0.33637404  1
  Ni  Ni21  1  0.67030969  0.33573910  0.00292647  1
  Ni  Ni22  1  0.83565275  0.50429085  0.16872499  1
  Ni  Ni23  1  0.67043054  0.33689762  0.33568670  1
  Ni  Ni24  1  0.66720528  0.66819217  0.00423757  1
  Ni  Ni25  1  0.83485183  0.83389826  0.17056683  1
  Fe  Fe26  1  0.66936364  0.66678850  0.33488069  1
  Fe  Fe27  1  0.16864756  0.17418567  0.50034364  1
  Cr  Cr28  1  1.00176918  1.00212905  0.66667881  1
  Cr  Cr29  1  0.17036523  0.17116426  0.83661363  1
  Ni  Ni30  1  0.16832907  0.50274447  0.50191457  1
  Fe  Fe31  1  0.00341113  0.33929198  0.66710274  1
  Ni  Ni32  1  0.16881148  0.50533305  0.83590127  1
  Fe  Fe33  1  0.16883547  0.83145913  0.50212569  1
  Ni  Ni34  1  0.00357593  0.66877648  0.66788631  1
  Ni  Ni35  1  0.16962105  0.83312185  0.83839811  1
  Ni  Ni36  1  0.50286209  0.16901476  0.50147409  1
  Cr  Cr37  1  0.33648662  1.00120793  0.66923844  1
  Ni  Ni38  1  0.50522222  0.16829869  0.83689075  1
  Fe  Fe39  1  0.50280438  0.50142063  0.50139258  1
  Fe  Fe40  1  0.33655785  0.33880451  0.66782877  1
  Fe  Fe41  1  0.50151725  0.50360299  0.83600440  1
  Fe  Fe42  1  0.50446396  0.83232510  0.50189024  1
  Fe  Fe43  1  0.33373088  0.66721051  0.66937420  1
  Fe  Fe44  1  0.50122456  0.83415955  0.83746009  1
  Fe  Fe45  1  0.83454561  0.17306810  0.50085204  1
  Fe  Fe46  1  0.66881673  0.00325341  0.66798941  1
  Fe  Fe47  1  0.83505250  0.16938440  0.83740479  1
  Ni  Ni48  1  0.83652055  0.50484605  0.50211234  1
  Fe  Fe49  1  0.66892903  0.33497176  0.66810732  1
  Cr  Cr50  1  0.83802503  0.50366439  0.83735760  1
  Fe  Fe51  1  0.83483482  0.83394161  0.50086983  1
  Fe  Fe52  1  0.66898708  0.66952679  0.66771425  1
  Cr  Cr53  1  0.83583692  0.83425698  0.83771573  1
" 