883,Ni38Fe24Cr37_7,-224.425696787999, 169.481632620157,Ni38Fe24Cr37,"# generated using pymatgen
 data_Cr11(Fe3Ni5)2
_symmetry_space_group_name_H-M   'P 1'
_cell_length_a   7.49108856
_cell_length_b   7.49108856
_cell_length_c   10.59399904
_cell_angle_alpha   90.00000000
_cell_angle_beta   90.00000000
_cell_angle_gamma   90.00000000
_symmetry_Int_Tables_number   1
_chemical_formula_structural   Cr11(Fe3Ni5)2
_chemical_formula_sum   'Cr22 Fe12 Ni20'
_cell_volume   594.49717113
_cell_formula_units_Z   2
loop_
 _symmetry_equiv_pos_site_id
 _symmetry_equiv_pos_as_xyz
  1  'x, y, z'
loop_
 _atom_site_type_symbol
 _atom_site_label
 _atom_site_symmetry_multiplicity
 _atom_site_fract_x
 _atom_site_fract_y
 _atom_site_fract_z
 _atom_site_occupancy
  Ni  Ni0  1  0.99331380  0.99818010  -0.00065150  1
  Cr  Cr1  1  0.16104215  0.16734708  0.16572103  1
  Ni  Ni2  1  0.99742978  0.99838025  0.33028341  1
  Ni  Ni3  1  0.99638885  0.33198189  -0.00144679  1
  Ni  Ni4  1  0.16168922  0.50181725  0.16593521  1
  Fe  Fe5  1  0.99764591  0.33270996  0.33053481  1
  Ni  Ni6  1  0.99622346  0.66514346  -0.00137550  1
  Ni  Ni7  1  0.16105535  0.82880982  0.16595624  1
  Ni  Ni8  1  -0.00055230  0.66653709  0.33034965  1
  Cr  Cr9  1  0.33099079  -0.00099579  0.99740602  1
  Cr  Cr10  1  0.50419607  0.16485759  0.16508350  1
  Cr  Cr11  1  0.32990164  0.99569296  0.33298527  1
  Cr  Cr12  1  0.33052663  0.33285857  0.99697856  1
  Cr  Cr13  1  0.49771642  0.49824274  0.16629659  1
  Fe  Fe14  1  0.33095532  0.33359301  0.33198528  1
  Cr  Cr15  1  0.33073532  0.66364287  0.00088979  1
  Cr  Cr16  1  0.50102518  0.83169303  0.16476225  1
  Ni  Ni17  1  0.33040271  0.66416559  0.33133771  1
  Ni  Ni18  1  0.67105553  0.99800950  -0.00084132  1
  Ni  Ni19  1  0.83221220  0.16347910  0.16645254  1
  Fe  Fe20  1  0.66749688  0.99711748  0.33151388  1
  Cr  Cr21  1  0.66667541  0.33130887  0.99575799  1
  Cr  Cr22  1  0.83392733  0.49690161  0.16514795  1
  Ni  Ni23  1  0.66648721  0.33150697  0.33322415  1
  Ni  Ni24  1  0.66923760  0.66662358  0.99615175  1
  Fe  Fe25  1  0.83481727  0.83209637  0.16453881  1
  Cr  Cr26  1  0.66493955  0.66415622  0.33347568  1
  Fe  Fe27  1  0.16591730  0.16452979  0.49863876  1
  Cr  Cr28  1  0.99735235  -0.00151212  0.66550679  1
  Cr  Cr29  1  0.16500118  0.16672853  0.82956165  1
  Cr  Cr30  1  0.16237279  0.49767818  0.49579624  1
  Cr  Cr31  1  0.99649577  0.33296981  0.66509816  1
  Ni  Ni32  1  0.16160364  0.49867315  0.83309203  1
  Cr  Cr33  1  0.16504974  0.82990823  0.50030858  1
  Ni  Ni34  1  0.99413767  0.66182268  0.66668145  1
  Cr  Cr35  1  0.16232526  0.82865915  0.83116486  1
  Cr  Cr36  1  0.49950419  0.16484239  0.49885058  1
  Ni  Ni37  1  0.33596963  0.00100143  0.66392309  1
  Ni  Ni38  1  0.50349981  0.16502942  0.82899420  1
  Fe  Fe39  1  0.49890915  0.49852999  0.49780871  1
  Ni  Ni40  1  0.33432559  0.33216670  0.66511361  1
  Fe  Fe41  1  0.49851337  0.49694306  0.83066810  1
  Ni  Ni42  1  0.49951269  0.83120295  0.49953024  1
  Cr  Cr43  1  0.33239698  0.66376348  0.66467573  1
  Cr  Cr44  1  0.50182340  0.83381229  0.83133933  1
  Cr  Cr45  1  0.83136050  0.16703810  0.49567626  1
  Ni  Ni46  1  0.66463212  -0.00107094  0.66541011  1
  Ni  Ni47  1  0.82868022  0.16519597  0.83303128  1
  Fe  Fe48  1  0.83018114  0.49964937  0.49792203  1
  Fe  Fe49  1  0.66446702  0.33201029  0.66626481  1
  Fe  Fe50  1  0.83286571  0.49959656  0.83274774  1
  Cr  Cr51  1  0.83136068  0.83100567  0.49938130  1
  Fe  Fe52  1  0.66574650  0.66447569  0.66542433  1
  Fe  Fe53  1  0.83180994  0.83284257  0.83228670  1
" 