2453,Ni38Fe61Cr0_16,-237.204309468903, 212.211221642468,Ni38Fe61Cr0,"# generated using pymatgen
 data_CrFe33Ni20
_symmetry_space_group_name_H-M   'P 1'
_cell_length_a   7.39955386
_cell_length_b   7.39955386
_cell_length_c   10.46454942
_cell_angle_alpha   90.00000000
_cell_angle_beta   90.00000000
_cell_angle_gamma   90.00000000
_symmetry_Int_Tables_number   1
_chemical_formula_structural   CrFe33Ni20
_chemical_formula_sum   'Cr1 Fe33 Ni20'
_cell_volume   572.96963218
_cell_formula_units_Z   1
loop_
 _symmetry_equiv_pos_site_id
 _symmetry_equiv_pos_as_xyz
  1  'x, y, z'
loop_
 _atom_site_type_symbol
 _atom_site_label
 _atom_site_symmetry_multiplicity
 _atom_site_fract_x
 _atom_site_fract_y
 _atom_site_fract_z
 _atom_site_occupancy
  Fe  Fe0  1  0.00474386  0.00467251  0.00462994  1
  Fe  Fe1  1  0.17065713  0.17115467  0.17137325  1
  Fe  Fe2  1  0.00521791  1.00384680  0.33802654  1
  Fe  Fe3  1  0.00514046  0.33822084  1.00450006  1
  Fe  Fe4  1  0.17056582  0.50504178  0.17081860  1
  Ni  Ni5  1  1.00299165  0.33801341  0.33741940  1
  Fe  Fe6  1  0.00676330  0.67078790  0.00490100  1
  Fe  Fe7  1  0.17124962  0.83748527  0.17164692  1
  Fe  Fe8  1  0.00484402  0.67174562  0.33779371  1
  Ni  Ni9  1  0.33724366  1.00385800  1.00446554  1
  Fe  Fe10  1  0.50516089  0.17108138  0.17086770  1
  Ni  Ni11  1  0.33786851  1.00268185  0.33803495  1
  Ni  Ni12  1  0.33768229  0.33776124  0.00498839  1
  Fe  Fe13  1  0.50440653  0.50426803  0.17118952  1
  Fe  Fe14  1  0.33748665  0.33782186  0.33782541  1
  Ni  Ni15  1  0.33628150  0.67206501  0.00497965  1
  Fe  Fe16  1  0.50380022  0.83832915  0.17210837  1
  Ni  Ni17  1  0.33812740  0.67299312  0.33702293  1
  Fe  Fe18  1  0.67046121  0.00650678  1.00418098  1
  Fe  Fe19  1  0.83786350  0.17176828  0.17074525  1
  Fe  Fe20  1  0.67129602  1.00406108  0.33831510  1
  Ni  Ni21  1  0.67266997  0.33679279  0.00474466  1
  Ni  Ni22  1  0.83845304  0.50409797  0.17153302  1
  Fe  Fe23  1  0.67084904  0.33819611  0.33752268  1
  Cr  Cr24  1  0.67112618  0.67012296  1.00386458  1
  Ni  Ni25  1  0.83878568  0.83861068  0.17209254  1
  Fe  Fe26  1  0.67156607  0.67142649  0.33735651  1
  Fe  Fe27  1  0.17090447  0.17050826  0.50447685  1
  Fe  Fe28  1  0.00460465  0.00514702  0.67102788  1
  Fe  Fe29  1  0.17173584  0.17228034  0.83783173  1
  Fe  Fe30  1  0.17083543  0.50528511  0.50513955  1
  Ni  Ni31  1  1.00335742  0.33819735  0.67171184  1
  Ni  Ni32  1  0.17316142  0.50471153  0.83819286  1
  Ni  Ni33  1  0.17097915  0.83813829  0.50447378  1
  Fe  Fe34  1  0.00506244  0.67116628  0.67098963  1
  Fe  Fe35  1  0.17209628  0.83739248  0.83761473  1
  Fe  Fe36  1  0.50443215  0.16991365  0.50502349  1
  Ni  Ni37  1  0.33826283  1.00324247  0.67118115  1
  Fe  Fe38  1  0.50448154  0.17220862  0.83779193  1
  Fe  Fe39  1  0.50422841  0.50560527  0.50534323  1
  Ni  Ni40  1  0.33716555  0.33820339  0.67075208  1
  Ni  Ni41  1  0.50224315  0.50318564  0.83724966  1
  Fe  Fe42  1  0.50388832  0.83816281  0.50462170  1
  Ni  Ni43  1  0.33775028  0.67223735  0.67168049  1
  Fe  Fe44  1  0.50307475  0.83850685  0.83695114  1
  Fe  Fe45  1  0.83834499  0.17085052  0.50548403  1
  Ni  Ni46  1  0.67140394  1.00441922  0.67168363  1
  Ni  Ni47  1  0.83709417  0.17068628  0.83843182  1
  Fe  Fe48  1  0.83861579  0.50473904  0.50402681  1
  Ni  Ni49  1  0.67315897  0.33768389  0.67134563  1
  Fe  Fe50  1  0.83858195  0.50260080  0.83740078  1
  Ni  Ni51  1  0.83855638  0.83847393  0.50466808  1
  Fe  Fe52  1  0.67044408  0.67084444  0.67128391  1
  Fe  Fe53  1  0.83850936  0.83847342  0.83695020  1
" 