3000,Ni38Fe62_17,-242.727300683958, 224.190284016943,Ni38Fe62,"# generated using pymatgen
 data_Fe10Ni17
_symmetry_space_group_name_H-M   'P 1'
_cell_length_a   7.40329677
_cell_length_b   7.40329677
_cell_length_c   10.46984270
_cell_angle_alpha   90.00000000
_cell_angle_beta   90.00000000
_cell_angle_gamma   90.00000000
_symmetry_Int_Tables_number   1
_chemical_formula_structural   Fe10Ni17
_chemical_formula_sum   'Fe20 Ni34'
_cell_volume   573.83954623
_cell_formula_units_Z   2
loop_
 _symmetry_equiv_pos_site_id
 _symmetry_equiv_pos_as_xyz
  1  'x, y, z'
loop_
 _atom_site_type_symbol
 _atom_site_label
 _atom_site_symmetry_multiplicity
 _atom_site_fract_x
 _atom_site_fract_y
 _atom_site_fract_z
 _atom_site_occupancy
  Fe  Fe0  1  1.00357754  1.00377876  1.00424228  1
  Ni  Ni1  1  0.17082637  0.17039994  0.17069250  1
  Ni  Ni2  1  0.00518821  0.00431690  0.33720250  1
  Ni  Ni3  1  0.00498110  0.33928596  1.00372633  1
  Fe  Fe4  1  0.17008646  0.50472726  0.17070184  1
  Ni  Ni5  1  0.00473296  0.33870678  0.33836201  1
  Ni  Ni6  1  1.00355191  0.66905995  1.00370278  1
  Fe  Fe7  1  0.17091315  0.83741649  0.17155600  1
  Ni  Ni8  1  1.00406577  0.66989320  0.33815053  1
  Ni  Ni9  1  0.33912007  0.00457843  1.00298350  1
  Fe  Fe10  1  0.50485818  0.17022186  0.17104333  1
  Ni  Ni11  1  0.33827455  1.00430390  0.33888078  1
  Fe  Fe12  1  0.33788856  0.33788575  1.00351738  1
  Ni  Ni13  1  0.50522040  0.50497747  0.17112832  1
  Fe  Fe14  1  0.33770065  0.33715513  0.33849632  1
  Fe  Fe15  1  0.33804879  0.67097766  1.00416747  1
  Ni  Ni16  1  0.50519749  0.83755253  0.17069437  1
  Fe  Fe17  1  0.33812326  0.67145405  0.33818760  1
  Ni  Ni18  1  0.66914308  1.00314850  0.00454402  1
  Fe  Fe19  1  0.83721724  0.17105058  0.17093080  1
  Ni  Ni20  1  0.66945237  1.00363939  0.33763177  1
  Fe  Fe21  1  0.67125465  0.33811532  1.00427675  1
  Ni  Ni22  1  0.83722801  0.50529975  0.17024953  1
  Ni  Ni23  1  0.67088193  0.33841677  0.33795958  1
  Ni  Ni24  1  0.67131359  0.67154994  1.00385953  1
  Ni  Ni25  1  0.83721881  0.83719905  0.17140844  1
  Ni  Ni26  1  0.67086872  0.67086208  0.33790962  1
  Ni  Ni27  1  0.17118475  0.17030204  0.50507159  1
  Ni  Ni28  1  1.00394037  0.00485369  0.67157920  1
  Fe  Fe29  1  0.17031407  0.17218009  0.83757378  1
  Ni  Ni30  1  0.17011771  0.50381660  0.50331122  1
  Ni  Ni31  1  0.00580174  0.33815977  0.67083041  1
  Ni  Ni32  1  0.17076126  0.50409089  0.83807332  1
  Ni  Ni33  1  0.17086312  0.83880496  0.50358057  1
  Fe  Fe34  1  0.00444562  0.67070136  0.67110723  1
  Fe  Fe35  1  0.17036116  0.83729507  0.83739194  1
  Ni  Ni36  1  0.50351196  0.17030501  0.50339653  1
  Fe  Fe37  1  0.33732614  0.00537977  0.67029672  1
  Ni  Ni38  1  0.50420564  0.17086454  0.83830109  1
  Ni  Ni39  1  0.50491970  0.50414116  0.50414697  1
  Ni  Ni40  1  0.33675189  0.33827054  0.67096286  1
  Ni  Ni41  1  0.50408040  0.50364955  0.83764295  1
  Ni  Ni42  1  0.50416207  0.83846815  0.50433620  1
  Fe  Fe43  1  0.33711392  0.67053799  0.67055506  1
  Fe  Fe44  1  0.50565058  0.83765322  0.83817424  1
  Fe  Fe45  1  0.83784383  0.17117537  0.50468465  1
  Ni  Ni46  1  0.67048132  1.00344933  0.67074778  1
  Ni  Ni47  1  0.83762160  0.17010582  0.83820545  1
  Ni  Ni48  1  0.83788329  0.50446288  0.50454361  1
  Fe  Fe49  1  0.67108479  0.33689815  0.67079965  1
  Ni  Ni50  1  0.83807976  0.50473322  0.83812316  1
  Fe  Fe51  1  0.83763915  0.83764251  0.50402800  1
  Fe  Fe52  1  0.67135908  0.67051372  0.67104511  1
  Ni  Ni53  1  0.83806209  0.83807199  0.83778568  1
" 