1531,Ni38Fe60Cr0_6,-236.920716619623, 208.915378762539,Ni38Fe60Cr0,"# generated using pymatgen
 data_Cr(Fe8Ni5)2
_symmetry_space_group_name_H-M   'P 1'
_cell_length_a   7.40402066
_cell_length_b   7.40402066
_cell_length_c   10.47086643
_cell_angle_alpha   90.00000000
_cell_angle_beta   90.00000000
_cell_angle_gamma   90.00000000
_symmetry_Int_Tables_number   1
_chemical_formula_structural   Cr(Fe8Ni5)2
_chemical_formula_sum   'Cr2 Fe32 Ni20'
_cell_volume   574.00789159
_cell_formula_units_Z   2
loop_
 _symmetry_equiv_pos_site_id
 _symmetry_equiv_pos_as_xyz
  1  'x, y, z'
loop_
 _atom_site_type_symbol
 _atom_site_label
 _atom_site_symmetry_multiplicity
 _atom_site_fract_x
 _atom_site_fract_y
 _atom_site_fract_z
 _atom_site_occupancy
  Fe  Fe0  1  1.00387553  1.00389101  0.00494688  1
  Ni  Ni1  1  0.17190752  0.17143719  0.17131015  1
  Ni  Ni2  1  0.00445956  1.00347665  0.33721038  1
  Fe  Fe3  1  0.00446236  0.33816608  0.00514033  1
  Fe  Fe4  1  0.16971165  0.50480273  0.17133311  1
  Fe  Fe5  1  1.00373217  0.33897232  0.33692153  1
  Fe  Fe6  1  1.00328148  0.67082912  1.00419729  1
  Fe  Fe7  1  0.16931914  0.83746250  0.17088369  1
  Ni  Ni8  1  0.00460212  0.67202936  0.33672500  1
  Fe  Fe9  1  0.33653354  0.00553487  0.00468316  1
  Fe  Fe10  1  0.50548296  0.17130137  0.17021887  1
  Fe  Fe11  1  0.33721166  1.00370998  0.33771283  1
  Fe  Fe12  1  0.33728853  0.33755863  1.00310795  1
  Fe  Fe13  1  0.50460887  0.50426461  0.17145984  1
  Fe  Fe14  1  0.33645280  0.33832454  0.33830205  1
  Fe  Fe15  1  0.33638184  0.66935976  0.00508538  1
  Fe  Fe16  1  0.50413957  0.83715156  0.17165450  1
  Ni  Ni17  1  0.33732867  0.67056909  0.33787127  1
  Fe  Fe18  1  0.67247883  0.00486647  0.00501739  1
  Fe  Fe19  1  0.83870923  0.17108822  0.17183491  1
  Fe  Fe20  1  0.67149750  1.00304266  0.33752226  1
  Fe  Fe21  1  0.67102544  0.33827564  0.00515456  1
  Ni  Ni22  1  0.83776007  0.50519699  0.17153805  1
  Ni  Ni23  1  0.66982932  0.33800668  0.33691216  1
  Fe  Fe24  1  0.67268919  0.66980718  0.00430126  1
  Ni  Ni25  1  0.83658752  0.83698193  0.17182313  1
  Fe  Fe26  1  0.67201643  0.67016401  0.33860549  1
  Fe  Fe27  1  0.16966963  0.17254619  0.50277847  1
  Ni  Ni28  1  1.00356929  1.00354015  0.67190698  1
  Fe  Fe29  1  0.17064624  0.17158123  0.83913678  1
  Ni  Ni30  1  0.16980503  0.50298794  0.50353996  1
  Fe  Fe31  1  0.00549838  0.33854772  0.67063436  1
  Ni  Ni32  1  0.17065293  0.50376948  0.83726805  1
  Fe  Fe33  1  0.16944915  0.83430745  0.50377057  1
  Ni  Ni34  1  1.00286267  0.67151576  0.67190505  1
  Ni  Ni35  1  0.16832521  0.83628842  0.83876957  1
  Fe  Fe36  1  0.50549394  0.17405519  0.50386674  1
  Cr  Cr37  1  0.33525514  0.00606152  0.67022794  1
  Ni  Ni38  1  0.50570779  0.17287049  0.83800056  1
  Ni  Ni39  1  0.50409293  0.50519446  0.50435456  1
  Ni  Ni40  1  0.33907298  0.33832693  0.67134627  1
  Ni  Ni41  1  0.50346939  0.50215067  0.83665377  1
  Ni  Ni42  1  0.50584677  0.83771564  0.50353428  1
  Fe  Fe43  1  0.33563922  0.66855820  0.66937326  1
  Cr  Cr44  1  0.50553197  0.83650287  0.83696016  1
  Fe  Fe45  1  0.83762489  0.17164149  0.50351980  1
  Fe  Fe46  1  0.67338047  0.00441878  0.67005534  1
  Fe  Fe47  1  0.83763486  0.17094176  0.83755434  1
  Ni  Ni48  1  0.83879052  0.50392751  0.50386994  1
  Fe  Fe49  1  0.67160612  0.33793473  0.66999153  1
  Fe  Fe50  1  0.83693089  0.50560664  0.83759549  1
  Fe  Fe51  1  0.83848963  0.83556694  0.50459472  1
  Ni  Ni52  1  0.67251173  0.66837705  0.67014616  1
  Ni  Ni53  1  0.83890708  0.83863200  0.83701025  1
" 