2038,Ni38Fe50Cr11_4,-234.891625684533, 207.568774003611,Ni38Fe50Cr11,"# generated using pymatgen
 data_Cr7Fe27Ni20
_symmetry_space_group_name_H-M   'P 1'
_cell_length_a   7.42869532
_cell_length_b   7.42869532
_cell_length_c   10.50576167
_cell_angle_alpha   90.00000000
_cell_angle_beta   90.00000000
_cell_angle_gamma   90.00000000
_symmetry_Int_Tables_number   1
_chemical_formula_structural   Cr7Fe27Ni20
_chemical_formula_sum   'Cr7 Fe27 Ni20'
_cell_volume   579.76585889
_cell_formula_units_Z   1
loop_
 _symmetry_equiv_pos_site_id
 _symmetry_equiv_pos_as_xyz
  1  'x, y, z'
loop_
 _atom_site_type_symbol
 _atom_site_label
 _atom_site_symmetry_multiplicity
 _atom_site_fract_x
 _atom_site_fract_y
 _atom_site_fract_z
 _atom_site_occupancy
  Ni  Ni0  1  1.00241434  0.00295811  1.00154782  1
  Fe  Fe1  1  0.16973812  0.16727935  0.16898131  1
  Fe  Fe2  1  1.00216898  1.00020342  0.33530509  1
  Ni  Ni3  1  1.00225639  0.33495037  1.00221567  1
  Fe  Fe4  1  0.16979133  0.50490587  0.17005046  1
  Cr  Cr5  1  1.00212802  0.33718792  0.33615218  1
  Fe  Fe6  1  1.00251265  0.67029308  0.00313192  1
  Fe  Fe7  1  0.16983488  0.83555912  0.16961538  1
  Ni  Ni8  1  1.00239233  0.67029823  0.33500798  1
  Fe  Fe9  1  0.33551336  1.00101942  0.00291091  1
  Fe  Fe10  1  0.50370790  0.16809780  0.17118536  1
  Ni  Ni11  1  0.33629289  1.00162194  0.33395917  1
  Cr  Cr12  1  0.33470976  0.33521781  0.00285918  1
  Ni  Ni13  1  0.50284398  0.50253080  0.17141186  1
  Ni  Ni14  1  0.33676008  0.33615113  0.33637073  1
  Fe  Fe15  1  0.33528007  0.67127828  0.00404529  1
  Ni  Ni16  1  0.50293094  0.83581371  0.16902666  1
  Ni  Ni17  1  0.33629565  0.66996781  0.33601825  1
  Fe  Fe18  1  0.67036620  1.00204462  1.00249763  1
  Fe  Fe19  1  0.83429365  0.16814200  0.16827385  1
  Ni  Ni20  1  0.66854250  1.00124808  0.33509760  1
  Fe  Fe21  1  0.67135497  0.33480133  0.00446281  1
  Fe  Fe22  1  0.83391143  0.50437922  0.16884021  1
  Ni  Ni23  1  0.66821267  0.33666672  0.33405566  1
  Ni  Ni24  1  0.66920708  0.67150544  0.00340410  1
  Ni  Ni25  1  0.83607718  0.83612229  0.16926078  1
  Ni  Ni26  1  0.66905803  0.66982965  0.33731722  1
  Fe  Fe27  1  0.16716168  0.17004524  0.50247138  1
  Fe  Fe28  1  0.99996950  1.00232184  0.66993470  1
  Fe  Fe29  1  0.16668885  0.16941152  0.83629103  1
  Ni  Ni30  1  0.16981799  0.50253609  0.50458107  1
  Ni  Ni31  1  0.00485709  0.33676006  0.66935366  1
  Fe  Fe32  1  0.16740880  0.50345470  0.83432138  1
  Fe  Fe33  1  0.16779384  0.83387959  0.50146581  1
  Ni  Ni34  1  0.00337518  0.66845746  0.66955966  1
  Fe  Fe35  1  0.16775122  0.83487274  0.83666164  1
  Cr  Cr36  1  0.50177208  0.16992445  0.49951494  1
  Cr  Cr37  1  0.33665335  1.00145438  0.67089753  1
  Fe  Fe38  1  0.50414030  0.16649819  0.83598110  1
  Fe  Fe39  1  0.50228095  0.50507851  0.50067795  1
  Fe  Fe40  1  0.33228666  0.33753528  0.66888650  1
  Cr  Cr41  1  0.50116866  0.50308587  0.83419708  1
  Fe  Fe42  1  0.50393236  0.83322030  0.50087969  1
  Fe  Fe43  1  0.33461603  0.66800938  0.66806285  1
  Fe  Fe44  1  0.50434469  0.83652446  0.83703618  1
  Fe  Fe45  1  0.83728609  0.16839543  0.50278679  1
  Ni  Ni46  1  0.67051608  1.00002503  0.67148839  1
  Fe  Fe47  1  0.83691878  0.16686002  0.83667828  1
  Ni  Ni48  1  0.83699257  0.50532051  0.50231244  1
  Cr  Cr49  1  0.67133015  0.33507258  0.66850177  1
  Cr  Cr50  1  0.83825920  0.50426265  0.83752039  1
  Ni  Ni51  1  0.83632310  0.83547162  0.50303640  1
  Fe  Fe52  1  0.67074360  0.67263458  0.66783978  1
  Ni  Ni53  1  0.83640930  0.83820751  0.83545004  1
" 