7893,Ni38Fe61Cr0_4,-237.650696491916, 213.534394388556,Ni38Fe61Cr0,"# generated using pymatgen
 data_CrFe33Ni20
_symmetry_space_group_name_H-M   'P 1'
_cell_length_a   7.39904977
_cell_length_b   7.39904977
_cell_length_c   10.46383654
_cell_angle_alpha   90.00000000
_cell_angle_beta   90.00000000
_cell_angle_gamma   90.00000000
_symmetry_Int_Tables_number   1
_chemical_formula_structural   CrFe33Ni20
_chemical_formula_sum   'Cr1 Fe33 Ni20'
_cell_volume   572.85254176
_cell_formula_units_Z   1
loop_
 _symmetry_equiv_pos_site_id
 _symmetry_equiv_pos_as_xyz
  1  'x, y, z'
loop_
 _atom_site_type_symbol
 _atom_site_label
 _atom_site_symmetry_multiplicity
 _atom_site_fract_x
 _atom_site_fract_y
 _atom_site_fract_z
 _atom_site_occupancy
  Fe  Fe0  1  0.00618496  1.00453734  0.00532580  1
  Ni  Ni1  1  0.17168193  0.17230809  0.17056827  1
  Ni  Ni2  1  1.00424403  1.00352825  0.33838510  1
  Fe  Fe3  1  0.00598432  0.33799742  1.00445398  1
  Fe  Fe4  1  0.17160884  0.50538010  0.17144322  1
  Fe  Fe5  1  1.00421766  0.33746512  0.33839770  1
  Fe  Fe6  1  0.00560333  0.67124946  0.00467229  1
  Fe  Fe7  1  0.17111869  0.83826344  0.17059073  1
  Ni  Ni8  1  1.00442346  0.67185806  0.33864812  1
  Ni  Ni9  1  0.33780011  0.00463848  0.00493126  1
  Fe  Fe10  1  0.50478871  0.17061670  0.17073424  1
  Fe  Fe11  1  0.33799486  0.00474410  0.33799663  1
  Ni  Ni12  1  0.33814416  0.33778649  1.00387720  1
  Fe  Fe13  1  0.50431904  0.50465381  0.17098683  1
  Fe  Fe14  1  0.33712270  0.33726781  0.33767239  1
  Ni  Ni15  1  0.33806402  0.67136218  1.00337443  1
  Ni  Ni16  1  0.50562019  0.83816038  0.17076112  1
  Fe  Fe17  1  0.33835653  0.67177585  0.33770793  1
  Fe  Fe18  1  0.66947185  1.00409020  0.00501687  1
  Fe  Fe19  1  0.83760477  0.17012566  0.17186735  1
  Ni  Ni20  1  0.67192087  0.00514727  0.33888729  1
  Fe  Fe21  1  0.67001964  0.33810235  1.00439913  1
  Fe  Fe22  1  0.83785836  0.50492501  0.17152071  1
  Ni  Ni23  1  0.67113199  0.33789194  0.33864752  1
  Fe  Fe24  1  0.66994852  0.67159138  1.00431995  1
  Ni  Ni25  1  0.83648208  0.83715363  0.17066722  1
  Fe  Fe26  1  0.67239251  0.67239645  0.33832595  1
  Ni  Ni27  1  0.17169336  0.17260918  0.50494985  1
  Fe  Fe28  1  0.00507323  1.00433710  0.67067606  1
  Fe  Fe29  1  0.17219998  0.17058185  0.83813158  1
  Ni  Ni30  1  0.16991078  0.50292974  0.50489901  1
  Fe  Fe31  1  0.00484729  0.33814771  0.67093282  1
  Fe  Fe32  1  0.17210115  0.50517378  0.83791341  1
  Fe  Fe33  1  0.17053477  0.83750096  0.50509728  1
  Fe  Fe34  1  0.00635213  0.67129698  0.67067919  1
  Ni  Ni35  1  0.17253932  0.83797333  0.83788278  1
  Fe  Fe36  1  0.50494808  0.17132947  0.50502708  1
  Ni  Ni37  1  0.33737340  0.00498143  0.67123470  1
  Ni  Ni38  1  0.50394898  0.17032662  0.83821852  1
  Fe  Fe39  1  0.50389503  0.50383000  0.50349444  1
  Fe  Fe40  1  0.33778601  0.33737896  0.67137444  1
  Fe  Fe41  1  0.50346388  0.50408186  0.83929818  1
  Ni  Ni42  1  0.50497865  0.83944299  0.50360876  1
  Fe  Fe43  1  0.33635568  0.67214401  0.67171505  1
  Ni  Ni44  1  0.50299001  0.83994276  0.83941435  1
  Fe  Fe45  1  0.83803153  0.17113039  0.50402426  1
  Fe  Fe46  1  0.67030540  0.00576877  0.67088201  1
  Fe  Fe47  1  0.83734741  0.17089349  0.83789793  1
  Ni  Ni48  1  0.83966599  0.50428670  0.50264984  1
  Fe  Fe49  1  0.67115466  0.33609993  0.67122500  1
  Ni  Ni50  1  0.83926913  0.50351438  0.83927263  1
  Ni  Ni51  1  0.83711088  0.83765643  0.50413389  1
  Cr  Cr52  1  0.67170440  0.67095140  0.67056435  1
  Fe  Fe53  1  0.83844282  0.83880488  0.83875544  1
" 