7380,Ni38Fe24Cr37_11,-224.261824617222, 168.933625553336,Ni38Fe24Cr37,"# generated using pymatgen
 data_Cr11(Fe3Ni5)2
_symmetry_space_group_name_H-M   'P 1'
_cell_length_a   7.49261777
_cell_length_b   7.49261777
_cell_length_c   10.59616166
_cell_angle_alpha   90.00000000
_cell_angle_beta   90.00000000
_cell_angle_gamma   90.00000000
_symmetry_Int_Tables_number   1
_chemical_formula_structural   Cr11(Fe3Ni5)2
_chemical_formula_sum   'Cr22 Fe12 Ni20'
_cell_volume   594.86132095
_cell_formula_units_Z   2
loop_
 _symmetry_equiv_pos_site_id
 _symmetry_equiv_pos_as_xyz
  1  'x, y, z'
loop_
 _atom_site_type_symbol
 _atom_site_label
 _atom_site_symmetry_multiplicity
 _atom_site_fract_x
 _atom_site_fract_y
 _atom_site_fract_z
 _atom_site_occupancy
  Cr  Cr0  1  0.99673791  0.00381246  0.99731770  1
  Cr  Cr1  1  0.16772027  0.16741151  0.16405385  1
  Cr  Cr2  1  0.99623987  -0.00157526  0.33340642  1
  Ni  Ni3  1  0.99753063  0.33404941  0.99735097  1
  Fe  Fe4  1  0.16411242  0.49687792  0.16214631  1
  Cr  Cr5  1  0.99773886  0.33228664  0.32902598  1
  Ni  Ni6  1  -0.00120078  0.65785588  -0.00093432  1
  Cr  Cr7  1  0.16478478  0.82641261  0.16188252  1
  Fe  Fe8  1  0.99759098  0.66419094  0.33346288  1
  Ni  Ni9  1  0.33503686  0.00009484  0.99448833  1
  Cr  Cr10  1  0.50051893  0.16557116  0.16534244  1
  Cr  Cr11  1  0.33201923  0.99698695  0.33425806  1
  Ni  Ni12  1  0.32967237  0.33283049  0.99551662  1
  Cr  Cr13  1  0.49509038  0.49541643  0.16349676  1
  Ni  Ni14  1  0.33144163  0.33503732  0.33270394  1
  Ni  Ni15  1  0.33153255  0.66164068  0.99537977  1
  Cr  Cr16  1  0.49784157  0.83340030  0.16071822  1
  Cr  Cr17  1  0.33354484  0.66314096  0.33379852  1
  Ni  Ni18  1  0.66372408  0.00129519  0.99634806  1
  Ni  Ni19  1  0.82951744  0.16724964  0.16164978  1
  Ni  Ni20  1  0.66702394  0.99644711  0.33282642  1
  Fe  Fe21  1  0.66597343  0.33016380  0.99629089  1
  Fe  Fe22  1  0.83389435  0.49698646  0.16238252  1
  Cr  Cr23  1  0.66605668  0.33374430  0.33055981  1
  Cr  Cr24  1  0.66404238  0.66286110  0.99627524  1
  Cr  Cr25  1  0.83182628  0.83175022  0.16467683  1
  Cr  Cr26  1  0.66464659  0.66483909  0.33517438  1
  Cr  Cr27  1  0.16735423  0.16657709  0.50119904  1
  Cr  Cr28  1  -0.00031863  0.00047961  0.66478404  1
  Fe  Fe29  1  0.16500444  0.16895806  0.83115121  1
  Cr  Cr30  1  0.16375083  0.49784151  0.49964858  1
  Ni  Ni31  1  0.99651083  0.33350628  0.66837546  1
  Fe  Fe32  1  0.16143896  0.49576295  0.83155482  1
  Ni  Ni33  1  0.16458881  0.82928611  0.49985056  1
  Ni  Ni34  1  0.99413880  0.66160737  0.66255839  1
  Cr  Cr35  1  0.16641279  0.82841119  0.83386697  1
  Cr  Cr36  1  0.49876257  0.16758256  0.49782374  1
  Ni  Ni37  1  0.33430327  -0.00048491  0.66598581  1
  Fe  Fe38  1  0.49838353  0.16559294  0.83174034  1
  Ni  Ni39  1  0.50036350  0.49819380  0.50118341  1
  Ni  Ni40  1  0.33251830  0.33071877  0.66686669  1
  Fe  Fe41  1  0.49926150  0.49600009  0.83070482  1
  Ni  Ni42  1  0.49959140  0.83233851  0.50154709  1
  Cr  Cr43  1  0.33570344  0.66484476  0.66548287  1
  Fe  Fe44  1  0.50050095  0.83345822  0.83127635  1
  Cr  Cr45  1  0.82881779  0.16749886  0.50091456  1
  Fe  Fe46  1  0.66272787  0.99763730  0.66661257  1
  Ni  Ni47  1  0.82813172  0.16984696  0.83242182  1
  Ni  Ni48  1  0.83061357  0.50039697  0.50117810  1
  Fe  Fe49  1  0.66495930  0.33537927  0.66679976  1
  Ni  Ni50  1  0.83177689  0.49499402  0.83097049  1
  Fe  Fe51  1  0.83015752  0.82903845  0.50050143  1
  Ni  Ni52  1  0.66566387  0.66284649  0.66335031  1
  Cr  Cr53  1  0.83208024  0.82876537  0.82990860  1
" 