1565,Ni38Fe61Cr0_19,-237.886401408492, 211.378335989836,Ni38Fe61Cr0,"# generated using pymatgen
 data_CrFe33Ni20
_symmetry_space_group_name_H-M   'P 1'
_cell_length_a   7.40007890
_cell_length_b   7.40007890
_cell_length_c   10.46529194
_cell_angle_alpha   90.00000000
_cell_angle_beta   90.00000000
_cell_angle_gamma   90.00000000
_symmetry_Int_Tables_number   1
_chemical_formula_structural   CrFe33Ni20
_chemical_formula_sum   'Cr1 Fe33 Ni20'
_cell_volume   573.09160631
_cell_formula_units_Z   1
loop_
 _symmetry_equiv_pos_site_id
 _symmetry_equiv_pos_as_xyz
  1  'x, y, z'
loop_
 _atom_site_type_symbol
 _atom_site_label
 _atom_site_symmetry_multiplicity
 _atom_site_fract_x
 _atom_site_fract_y
 _atom_site_fract_z
 _atom_site_occupancy
  Fe  Fe0  1  0.00565561  1.00325637  1.00358027  1
  Ni  Ni1  1  0.17309993  0.17176522  0.17160430  1
  Fe  Fe2  1  0.00525607  1.00411775  0.33887064  1
  Fe  Fe3  1  0.00626075  0.33945198  1.00381100  1
  Ni  Ni4  1  0.17096147  0.50449612  0.17128170  1
  Fe  Fe5  1  0.00532608  0.33777209  0.33885026  1
  Ni  Ni6  1  1.00306036  0.67020747  0.00504740  1
  Fe  Fe7  1  0.17159168  0.83831688  0.17120265  1
  Fe  Fe8  1  1.00449538  0.67168683  0.33698742  1
  Ni  Ni9  1  0.33802708  0.00583695  0.00538467  1
  Ni  Ni10  1  0.50269731  0.16959604  0.17160290  1
  Ni  Ni11  1  0.33859744  0.00506226  0.33732127  1
  Ni  Ni12  1  0.33736530  0.33654741  0.00491303  1
  Fe  Fe13  1  0.50441387  0.50381661  0.17042036  1
  Fe  Fe14  1  0.33803601  0.33686549  0.33665166  1
  Fe  Fe15  1  0.33785604  0.67065667  1.00394491  1
  Ni  Ni16  1  0.50441247  0.83839267  0.17085695  1
  Fe  Fe17  1  0.33830324  0.67203025  0.33832572  1
  Fe  Fe18  1  0.66993176  1.00298895  1.00391804  1
  Cr  Cr19  1  0.83765257  0.17085219  0.17041951  1
  Ni  Ni20  1  0.66957394  1.00390039  0.33797482  1
  Fe  Fe21  1  0.66972420  0.33931942  1.00347642  1
  Ni  Ni22  1  0.83886119  0.50620752  0.17086272  1
  Fe  Fe23  1  0.67021352  0.33762416  0.33911542  1
  Ni  Ni24  1  0.67314976  0.67086871  0.00505119  1
  Fe  Fe25  1  0.83770823  0.83590563  0.17048191  1
  Fe  Fe26  1  0.67077662  0.67209914  0.33691435  1
  Fe  Fe27  1  0.17082327  0.17092731  0.50418151  1
  Fe  Fe28  1  1.00399192  0.00499682  0.67112179  1
  Fe  Fe29  1  0.17155322  0.17151638  0.83839793  1
  Fe  Fe30  1  0.17061018  0.50422196  0.50492505  1
  Ni  Ni31  1  1.00344163  0.33893614  0.67152172  1
  Ni  Ni32  1  0.17231650  0.50446496  0.83714778  1
  Fe  Fe33  1  0.17141307  0.83842800  0.50472535  1
  Fe  Fe34  1  0.00461364  0.67131032  0.67196139  1
  Fe  Fe35  1  0.17156773  0.83701711  0.83764934  1
  Fe  Fe36  1  0.50528982  0.17052994  0.50418247  1
  Ni  Ni37  1  0.33859558  1.00358107  0.67087008  1
  Fe  Fe38  1  0.50436184  0.17138626  0.83813203  1
  Fe  Fe39  1  0.50503557  0.50415315  0.50551173  1
  Fe  Fe40  1  0.33830347  0.33801376  0.67209898  1
  Ni  Ni41  1  0.50315267  0.50479168  0.83789564  1
  Fe  Fe42  1  0.50462946  0.83889158  0.50414500  1
  Ni  Ni43  1  0.33718658  0.67202927  0.67193778  1
  Fe  Fe44  1  0.50427607  0.83721780  0.83796503  1
  Ni  Ni45  1  0.83768767  0.17053769  0.50506830  1
  Ni  Ni46  1  0.67045883  0.00510101  0.67129248  1
  Fe  Fe47  1  0.83766028  0.17188659  0.83659607  1
  Fe  Fe48  1  0.83792871  0.50356291  0.50423399  1
  Ni  Ni49  1  0.67294666  0.33752630  0.67119611  1
  Fe  Fe50  1  0.83785984  0.50495839  0.83840183  1
  Fe  Fe51  1  0.83752905  0.83867912  0.50487176  1
  Fe  Fe52  1  0.67065272  0.67119307  0.67203147  1
  Ni  Ni53  1  0.83744886  0.83884293  0.83740859  1
" 