2007,Ni38Fe39Cr22_15,-230.837589087227, 203.76217301889,Ni38Fe39Cr22,"# generated using pymatgen
 data_Cr13Fe21Ni20
_symmetry_space_group_name_H-M   'P 1'
_cell_length_a   7.44063009
_cell_length_b   7.44063009
_cell_length_c   10.52263998
_cell_angle_alpha   90.00000000
_cell_angle_beta   90.00000000
_cell_angle_gamma   90.00000000
_symmetry_Int_Tables_number   1
_chemical_formula_structural   Cr13Fe21Ni20
_chemical_formula_sum   'Cr13 Fe21 Ni20'
_cell_volume   582.56466615
_cell_formula_units_Z   1
loop_
 _symmetry_equiv_pos_site_id
 _symmetry_equiv_pos_as_xyz
  1  'x, y, z'
loop_
 _atom_site_type_symbol
 _atom_site_label
 _atom_site_symmetry_multiplicity
 _atom_site_fract_x
 _atom_site_fract_y
 _atom_site_fract_z
 _atom_site_occupancy
  Ni  Ni0  1  0.00288361  0.00399841  1.00032155  1
  Fe  Fe1  1  0.16935324  0.16926534  0.16762349  1
  Ni  Ni2  1  1.00033169  0.00316186  0.33621887  1
  Ni  Ni3  1  0.00294817  0.33342682  1.00175345  1
  Ni  Ni4  1  0.16990967  0.50076611  0.16809109  1
  Fe  Fe5  1  0.00643948  0.33637045  0.33472956  1
  Cr  Cr6  1  0.00343613  0.66847475  1.00070623  1
  Cr  Cr7  1  0.16797464  0.83576238  0.16939630  1
  Ni  Ni8  1  0.00315751  0.66767432  0.33491423  1
  Ni  Ni9  1  0.33462468  0.00244498  0.99937802  1
  Ni  Ni10  1  0.50057441  0.17048862  0.16682606  1
  Cr  Cr11  1  0.33498309  0.00408778  0.33771456  1
  Fe  Fe12  1  0.33341970  0.33379579  0.00280596  1
  Fe  Fe13  1  0.49921848  0.49974398  0.16782075  1
  Ni  Ni14  1  0.33530933  0.33646604  0.33464501  1
  Ni  Ni15  1  0.33504848  0.66832806  0.00238839  1
  Fe  Fe16  1  0.49918929  0.83649580  0.16775791  1
  Ni  Ni17  1  0.33426786  0.66470057  0.33656742  1
  Cr  Cr18  1  0.66872295  0.00215765  1.00139568  1
  Cr  Cr19  1  0.83575473  0.16784766  0.17065921  1
  Fe  Fe20  1  0.66691542  0.00293410  0.33521054  1
  Ni  Ni21  1  0.66853645  0.33400344  0.00201750  1
  Fe  Fe22  1  0.83705761  0.50024393  0.16851580  1
  Fe  Fe23  1  0.66558724  0.33342014  0.33484731  1
  Cr  Cr24  1  0.66745582  0.66878275  0.00330990  1
  Ni  Ni25  1  0.83625344  0.83553765  0.16887715  1
  Cr  Cr26  1  0.66621574  0.66827494  0.33231110  1
  Ni  Ni27  1  0.16947026  0.16966794  0.50133712  1
  Ni  Ni28  1  0.00250079  0.00384179  0.66922171  1
  Ni  Ni29  1  0.16880088  0.16722925  0.83664308  1
  Ni  Ni30  1  0.16854433  0.50029072  0.50172101  1
  Fe  Fe31  1  0.00586980  0.33220261  0.66902133  1
  Fe  Fe32  1  0.17020596  0.50067037  0.83531928  1
  Fe  Fe33  1  0.16774680  0.83584994  0.50149292  1
  Fe  Fe34  1  0.00388548  0.66939235  0.66885570  1
  Ni  Ni35  1  0.16930650  0.83798410  0.83410458  1
  Ni  Ni36  1  0.50098289  0.17019406  0.50305024  1
  Fe  Fe37  1  0.33258669  0.00475303  0.66910347  1
  Fe  Fe38  1  0.49872535  0.16842502  0.83524052  1
  Fe  Fe39  1  0.49955873  0.49841569  0.50156660  1
  Ni  Ni40  1  0.33382943  0.33389961  0.66834608  1
  Cr  Cr41  1  0.50135617  0.49982905  0.83561915  1
  Fe  Fe42  1  0.49978134  0.83520573  0.50233965  1
  Cr  Cr43  1  0.33399475  0.66747320  0.66614834  1
  Ni  Ni44  1  0.49880752  0.83583737  0.83556525  1
  Fe  Fe45  1  0.83727590  0.16933479  0.50085097  1
  Cr  Cr46  1  0.66828879  0.00287868  0.66950632  1
  Fe  Fe47  1  0.83755010  0.16812564  0.83601288  1
  Cr  Cr48  1  0.83593385  0.50065291  0.50205543  1
  Fe  Fe49  1  0.66712058  0.33329378  0.66795005  1
  Cr  Cr50  1  0.83565667  0.50016762  0.83364760  1
  Cr  Cr51  1  0.83705266  0.83537972  0.50139968  1
  Fe  Fe52  1  0.66794175  0.66929192  0.66887443  1
  Fe  Fe53  1  0.83751906  0.83692070  0.83406546  1
" 