2929,Ni38Fe19Cr41_10,-222.382651352597, 165.045968610678,Ni38Fe19Cr41,"# generated using pymatgen
 data_Cr12(FeNi2)5
_symmetry_space_group_name_H-M   'P 1'
_cell_length_a   7.50040284
_cell_length_b   7.50040284
_cell_length_c   10.60717142
_cell_angle_alpha   90.00000000
_cell_angle_beta   90.00000000
_cell_angle_gamma   90.00000000
_symmetry_Int_Tables_number   1
_chemical_formula_structural   Cr12(FeNi2)5
_chemical_formula_sum   'Cr24 Fe10 Ni20'
_cell_volume   596.71748972
_cell_formula_units_Z   2
loop_
 _symmetry_equiv_pos_site_id
 _symmetry_equiv_pos_as_xyz
  1  'x, y, z'
loop_
 _atom_site_type_symbol
 _atom_site_label
 _atom_site_symmetry_multiplicity
 _atom_site_fract_x
 _atom_site_fract_y
 _atom_site_fract_z
 _atom_site_occupancy
  Cr  Cr0  1  0.99492912  -0.00208979  0.99766678  1
  Ni  Ni1  1  0.16333440  0.16450029  0.16525514  1
  Ni  Ni2  1  0.99494220  -0.00135516  0.33201803  1
  Cr  Cr3  1  0.99768243  0.33127725  -0.00085881  1
  Fe  Fe4  1  0.16124707  0.49694582  0.16321844  1
  Cr  Cr5  1  0.99671433  0.32935430  0.32864281  1
  Ni  Ni6  1  0.99494166  0.66438698  -0.00217380  1
  Cr  Cr7  1  0.16102445  0.83311878  0.16543087  1
  Cr  Cr8  1  0.99710701  0.66536280  0.33114844  1
  Cr  Cr9  1  0.33357130  -0.00075737  0.99742686  1
  Ni  Ni10  1  0.49943014  0.16674744  0.16326051  1
  Cr  Cr11  1  0.33001812  -0.00164452  0.32810914  1
  Cr  Cr12  1  0.33046629  0.32989877  0.99640033  1
  Cr  Cr13  1  0.50196141  0.49610202  0.16429450  1
  Cr  Cr14  1  0.32985933  0.33128623  0.32872727  1
  Cr  Cr15  1  0.33068561  0.66420202  0.99619154  1
  Cr  Cr16  1  0.50000943  0.83213824  0.16234993  1
  Cr  Cr17  1  0.32965758  0.66370760  0.33230303  1
  Ni  Ni18  1  0.66611617  -0.00206677  0.99686371  1
  Ni  Ni19  1  0.83065070  0.16539201  0.16606840  1
  Cr  Cr20  1  0.66807448  -0.00154590  0.33047173  1
  Ni  Ni21  1  0.66518451  0.32932153  -0.00105701  1
  Ni  Ni22  1  0.83068034  0.49739377  0.16244784  1
  Fe  Fe23  1  0.66643912  0.32921738  0.32846798  1
  Ni  Ni24  1  0.66735047  0.66595136  0.99708911  1
  Ni  Ni25  1  0.83270582  0.83047416  0.16232338  1
  Cr  Cr26  1  0.66643767  0.66569750  0.33046768  1
  Cr  Cr27  1  0.16365562  0.16136656  0.49907902  1
  Fe  Fe28  1  0.99712859  0.99524047  0.66555662  1
  Fe  Fe29  1  0.16517233  0.16215443  0.82902999  1
  Fe  Fe30  1  0.16509297  0.49970335  0.50047138  1
  Cr  Cr31  1  -0.00066921  0.33056578  0.66580090  1
  Fe  Fe32  1  0.16549452  0.50123727  0.82960069  1
  Fe  Fe33  1  0.16244231  0.83086668  0.50047688  1
  Fe  Fe34  1  0.00033594  0.66825464  0.66546934  1
  Ni  Ni35  1  0.16438322  0.83129517  0.82742504  1
  Cr  Cr36  1  0.49750866  0.16519586  0.49878729  1
  Ni  Ni37  1  0.33102367  0.99644404  0.66671718  1
  Fe  Fe38  1  0.50016298  0.16227193  0.83044928  1
  Cr  Cr39  1  0.49696196  0.49639486  0.49815660  1
  Ni  Ni40  1  0.32889246  0.33219316  0.66702345  1
  Ni  Ni41  1  0.49597854  0.49760615  0.83031160  1
  Cr  Cr42  1  0.49621321  0.83175542  0.49933200  1
  Ni  Ni43  1  0.32795167  0.66470523  0.66520909  1
  Ni  Ni44  1  0.49714659  0.83106412  0.83009819  1
  Fe  Fe45  1  0.83096669  0.16050229  0.49823474  1
  Ni  Ni46  1  0.66596787  0.99656815  0.66600773  1
  Ni  Ni47  1  0.83019969  0.16175979  0.82998363  1
  Cr  Cr48  1  0.83112527  0.49762536  0.49741720  1
  Cr  Cr49  1  0.66419412  0.32775541  0.66486382  1
  Cr  Cr50  1  0.82951267  0.49887458  0.83456773  1
  Ni  Ni51  1  0.83594299  0.83339561  0.49975681  1
  Cr  Cr52  1  0.66399677  0.66898688  0.66586834  1
  Ni  Ni53  1  0.83192436  0.83312769  0.83167921  1
" 