6999,Ni38Fe19Cr41_2,-222.922740997655, 177.916843797765,Ni38Fe19Cr41,"# generated using pymatgen
 data_Cr12(FeNi2)5
_symmetry_space_group_name_H-M   'P 1'
_cell_length_a   7.48937569
_cell_length_b   7.48937569
_cell_length_c   10.59157667
_cell_angle_alpha   90.00000000
_cell_angle_beta   90.00000000
_cell_angle_gamma   90.00000000
_symmetry_Int_Tables_number   1
_chemical_formula_structural   Cr12(FeNi2)5
_chemical_formula_sum   'Cr24 Fe10 Ni20'
_cell_volume   594.08946040
_cell_formula_units_Z   2
loop_
 _symmetry_equiv_pos_site_id
 _symmetry_equiv_pos_as_xyz
  1  'x, y, z'
loop_
 _atom_site_type_symbol
 _atom_site_label
 _atom_site_symmetry_multiplicity
 _atom_site_fract_x
 _atom_site_fract_y
 _atom_site_fract_z
 _atom_site_occupancy
  Ni  Ni0  1  0.99602670  0.00065810  -0.00052517  1
  Fe  Fe1  1  0.16277493  0.16540425  0.16423036  1
  Cr  Cr2  1  0.99650393  -0.00040670  0.33027826  1
  Ni  Ni3  1  -0.00063559  0.32852596  0.00007800  1
  Ni  Ni4  1  0.16415105  0.49773980  0.16524620  1
  Ni  Ni5  1  -0.00147007  0.33278322  0.32978529  1
  Cr  Cr6  1  0.00038251  0.66644234  0.99668783  1
  Cr  Cr7  1  0.16578306  0.83234792  0.16550340  1
  Ni  Ni8  1  -0.00129064  0.66407716  0.33100009  1
  Ni  Ni9  1  0.33218623  0.99724124  0.99660277  1
  Cr  Cr10  1  0.49787388  0.16285081  0.16380128  1
  Ni  Ni11  1  0.33490714  0.99720748  0.33418239  1
  Cr  Cr12  1  0.33009136  0.33400631  -0.00116470  1
  Fe  Fe13  1  0.49635561  0.50128752  0.16578032  1
  Cr  Cr14  1  0.33120124  0.33315582  0.33148381  1
  Ni  Ni15  1  0.33218061  0.66565288  -0.00058306  1
  Cr  Cr16  1  0.49863036  0.83278936  0.16581980  1
  Fe  Fe17  1  0.33211839  0.66511298  0.33140706  1
  Fe  Fe18  1  0.66669283  0.99808249  0.99670929  1
  Fe  Fe19  1  0.83461186  0.16309129  0.16465827  1
  Ni  Ni20  1  0.66446276  0.99729092  0.33226683  1
  Cr  Cr21  1  0.66621557  0.32891900  0.99762643  1
  Cr  Cr22  1  0.83365694  0.49845321  0.16755220  1
  Cr  Cr23  1  0.66536718  0.33031671  0.33399262  1
  Cr  Cr24  1  0.66313760  0.66858165  0.99803495  1
  Ni  Ni25  1  0.83170546  0.83302904  0.16561315  1
  Fe  Fe26  1  0.66473081  0.66712584  0.33221829  1
  Cr  Cr27  1  0.16693844  0.16346269  0.49898159  1
  Ni  Ni28  1  0.99666443  0.99769714  0.66582282  1
  Cr  Cr29  1  0.16644854  0.16446597  0.83185259  1
  Cr  Cr30  1  0.16428031  0.49900796  0.49892572  1
  Cr  Cr31  1  -0.00067397  0.32969917  0.66551225  1
  Fe  Fe32  1  0.16556699  0.49803145  0.83262048  1
  Cr  Cr33  1  0.16593529  0.83312389  0.49855389  1
  Fe  Fe34  1  0.99663852  0.66702241  0.66622974  1
  Cr  Cr35  1  0.16526138  0.83285504  0.83145222  1
  Ni  Ni36  1  0.49803946  0.16438708  0.49930013  1
  Fe  Fe37  1  0.33394981  0.00043468  0.66550593  1
  Ni  Ni38  1  0.49788459  0.16220048  0.83134951  1
  Ni  Ni39  1  0.49905035  0.49868544  0.49759100  1
  Ni  Ni40  1  0.33354440  0.33179302  0.66511659  1
  Cr  Cr41  1  0.49799980  0.49822814  0.83245640  1
  Fe  Fe42  1  0.49928055  0.83250915  0.49732608  1
  Cr  Cr43  1  0.33356074  0.66423181  0.66576590  1
  Ni  Ni44  1  0.49896514  0.83422843  0.83287661  1
  Ni  Ni45  1  0.83007757  0.16471254  0.49677974  1
  Cr  Cr46  1  0.66613804  0.99803389  0.66661719  1
  Ni  Ni47  1  0.83209003  0.16245298  0.83453804  1
  Cr  Cr48  1  0.83081228  0.49940300  0.49840062  1
  Cr  Cr49  1  0.66229416  0.33036105  0.66387456  1
  Cr  Cr50  1  0.83338503  0.49933812  0.82941511  1
  Cr  Cr51  1  0.83167102  0.83045652  0.49853692  1
  Ni  Ni52  1  0.66396582  0.66731734  0.66455462  1
  Ni  Ni53  1  0.83138446  0.83359891  0.83126266  1
" 