2649,Ni38Fe61Cr0_9,-237.573394815848, 209.308185135274,Ni38Fe61Cr0,"# generated using pymatgen
 data_CrFe33Ni20
_symmetry_space_group_name_H-M   'P 1'
_cell_length_a   7.40297062
_cell_length_b   7.40297062
_cell_length_c   10.46938145
_cell_angle_alpha   90.00000000
_cell_angle_beta   90.00000000
_cell_angle_gamma   90.00000000
_symmetry_Int_Tables_number   1
_chemical_formula_structural   CrFe33Ni20
_chemical_formula_sum   'Cr1 Fe33 Ni20'
_cell_volume   573.76370881
_cell_formula_units_Z   1
loop_
 _symmetry_equiv_pos_site_id
 _symmetry_equiv_pos_as_xyz
  1  'x, y, z'
loop_
 _atom_site_type_symbol
 _atom_site_label
 _atom_site_symmetry_multiplicity
 _atom_site_fract_x
 _atom_site_fract_y
 _atom_site_fract_z
 _atom_site_occupancy
  Fe  Fe0  1  0.00474920  0.00481320  1.00413460  1
  Ni  Ni1  1  0.17055163  0.17140287  0.16984305  1
  Fe  Fe2  1  0.00519027  1.00383758  0.33777018  1
  Fe  Fe3  1  0.00673137  0.33729080  0.00469788  1
  Fe  Fe4  1  0.17087308  0.50426807  0.17124859  1
  Ni  Ni5  1  1.00319159  0.33780371  0.33659041  1
  Fe  Fe6  1  0.00437800  0.67088062  1.00425257  1
  Fe  Fe7  1  0.17096698  0.83710120  0.17127892  1
  Ni  Ni8  1  0.00500349  0.67113304  0.33722465  1
  Fe  Fe9  1  0.33743291  0.00513461  1.00383514  1
  Fe  Fe10  1  0.50342652  0.17021026  0.17176983  1
  Fe  Fe11  1  0.33637336  1.00411558  0.33874479  1
  Ni  Ni12  1  0.33700702  0.33748734  0.00498342  1
  Ni  Ni13  1  0.50408239  0.50493208  0.17147511  1
  Fe  Fe14  1  0.33697549  0.33837419  0.33739493  1
  Fe  Fe15  1  0.33810228  0.67026395  1.00432718  1
  Fe  Fe16  1  0.50431827  0.83757079  0.17152193  1
  Ni  Ni17  1  0.33747189  0.67195681  0.33697960  1
  Fe  Fe18  1  0.67079709  1.00277555  0.00470117  1
  Fe  Fe19  1  0.83862880  0.17030582  0.17193996  1
  Fe  Fe20  1  0.67141543  1.00349682  0.33754477  1
  Cr  Cr21  1  0.67047964  0.33713563  0.00561550  1
  Fe  Fe22  1  0.83910034  0.50515671  0.17223075  1
  Fe  Fe23  1  0.67084153  0.33901881  0.33808417  1
  Fe  Fe24  1  0.67050070  0.67224349  0.00492169  1
  Ni  Ni25  1  0.83778703  0.83721351  0.17014993  1
  Fe  Fe26  1  0.67112130  0.67046788  0.33724715  1
  Ni  Ni27  1  0.17066873  0.17036642  0.50580570  1
  Ni  Ni28  1  0.00455441  1.00352848  0.67032976  1
  Fe  Fe29  1  0.17114362  0.17080569  0.83740227  1
  Fe  Fe30  1  0.17212689  0.50462601  0.50440190  1
  Ni  Ni31  1  1.00307012  0.33739429  0.67188223  1
  Fe  Fe32  1  0.17106852  0.50466959  0.83732893  1
  Ni  Ni33  1  0.17033052  0.83854900  0.50421427  1
  Ni  Ni34  1  0.00491219  0.67206212  0.67053743  1
  Ni  Ni35  1  0.17028027  0.83811788  0.83794791  1
  Ni  Ni36  1  0.50371861  0.17226117  0.50451739  1
  Ni  Ni37  1  0.33770925  1.00352547  0.67092944  1
  Fe  Fe38  1  0.50274943  0.16999886  0.83615686  1
  Ni  Ni39  1  0.50526737  0.50407217  0.50533871  1
  Ni  Ni40  1  0.33918988  0.33739062  0.67064699  1
  Fe  Fe41  1  0.50259877  0.50524558  0.83672531  1
  Ni  Ni42  1  0.50405660  0.83665142  0.50486774  1
  Ni  Ni43  1  0.33734784  0.67206931  0.67114476  1
  Fe  Fe44  1  0.50354950  0.83773695  0.83706291  1
  Fe  Fe45  1  0.83738426  0.17102012  0.50477139  1
  Fe  Fe46  1  0.67062804  0.00487783  0.67073546  1
  Fe  Fe47  1  0.83908990  0.16984845  0.83627600  1
  Fe  Fe48  1  0.83789167  0.50395714  0.50455309  1
  Ni  Ni49  1  0.67072451  0.33703343  0.67057177  1
  Fe  Fe50  1  0.83931535  0.50547090  0.83620104  1
  Fe  Fe51  1  0.83768132  0.83800524  0.50382823  1
  Fe  Fe52  1  0.67063288  0.67036413  0.67081630  1
  Fe  Fe53  1  0.83851252  0.83766141  0.83819896  1
" 