1601,Ni38Fe39Cr22_2,-230.143914803099, 192.926606167429,Ni38Fe39Cr22,"# generated using pymatgen
 data_Cr13Fe21Ni20
_symmetry_space_group_name_H-M   'P 1'
_cell_length_a   7.44183447
_cell_length_b   7.44183447
_cell_length_c   10.52434324
_cell_angle_alpha   90.00000000
_cell_angle_beta   90.00000000
_cell_angle_gamma   90.00000000
_symmetry_Int_Tables_number   1
_chemical_formula_structural   Cr13Fe21Ni20
_chemical_formula_sum   'Cr13 Fe21 Ni20'
_cell_volume   582.84760356
_cell_formula_units_Z   1
loop_
 _symmetry_equiv_pos_site_id
 _symmetry_equiv_pos_as_xyz
  1  'x, y, z'
loop_
 _atom_site_type_symbol
 _atom_site_label
 _atom_site_symmetry_multiplicity
 _atom_site_fract_x
 _atom_site_fract_y
 _atom_site_fract_z
 _atom_site_occupancy
  Ni  Ni0  1  0.00304001  0.99938856  0.00338141  1
  Ni  Ni1  1  0.16750499  0.16668936  0.17000145  1
  Ni  Ni2  1  0.00361692  0.00309047  0.33365165  1
  Cr  Cr3  1  0.00180922  0.33514764  0.00525711  1
  Fe  Fe4  1  0.16946719  0.50232416  0.16782090  1
  Fe  Fe5  1  0.00282848  0.33534073  0.33377911  1
  Ni  Ni6  1  1.00036551  0.67019420  0.00355187  1
  Ni  Ni7  1  0.16647674  0.83763776  0.16680533  1
  Cr  Cr8  1  1.00087415  0.66953771  0.33434902  1
  Ni  Ni9  1  0.33487206  0.00289103  1.00118328  1
  Cr  Cr10  1  0.49972317  0.16894081  0.16895741  1
  Fe  Fe11  1  0.33146315  0.00239592  0.33564996  1
  Fe  Fe12  1  0.33699432  0.33585094  0.00208981  1
  Ni  Ni13  1  0.50427944  0.50145450  0.16735223  1
  Fe  Fe14  1  0.33441359  0.33482763  0.33661212  1
  Fe  Fe15  1  0.33428752  0.66913950  0.00265353  1
  Cr  Cr16  1  0.50180238  0.83309892  0.16763127  1
  Cr  Cr17  1  0.33504350  0.66530503  0.33360643  1
  Fe  Fe18  1  0.66924593  0.99919696  1.00094837  1
  Fe  Fe19  1  0.83613664  0.16728081  0.16867857  1
  Cr  Cr20  1  0.67008409  1.00110350  0.33390383  1
  Fe  Fe21  1  0.66636642  0.33646905  0.00173152  1
  Ni  Ni22  1  0.83330396  0.50307358  0.16928029  1
  Fe  Fe23  1  0.66790437  0.33808403  0.33546423  1
  Ni  Ni24  1  0.66813992  0.66657104  0.00171897  1
  Ni  Ni25  1  0.83617818  0.83353172  0.16704541  1
  Ni  Ni26  1  0.66927395  0.66443016  0.33590689  1
  Ni  Ni27  1  0.16909667  0.16922841  0.50064847  1
  Cr  Cr28  1  0.00250446  0.99882802  0.66865774  1
  Cr  Cr29  1  0.17004842  0.16756647  0.83394159  1
  Ni  Ni30  1  0.16758755  0.50047775  0.50328528  1
  Fe  Fe31  1  0.00304560  0.33524761  0.66638506  1
  Cr  Cr32  1  0.16912653  0.50390379  0.83555973  1
  Fe  Fe33  1  0.16894558  0.83567847  0.50143744  1
  Ni  Ni34  1  0.00196852  0.66756042  0.66633241  1
  Fe  Fe35  1  0.16991504  0.83436774  0.83644680  1
  Ni  Ni36  1  0.50010430  0.16943406  0.50239098  1
  Ni  Ni37  1  0.33720903  0.00336256  0.66671839  1
  Ni  Ni38  1  0.50130530  0.16781360  0.83435296  1
  Ni  Ni39  1  0.50204976  0.50139779  0.50258591  1
  Fe  Fe40  1  0.33703554  0.33526992  0.66693958  1
  Ni  Ni41  1  0.50163550  0.50287076  0.83509648  1
  Cr  Cr42  1  0.50266218  0.83536833  0.50067107  1
  Fe  Fe43  1  0.33505778  0.66960814  0.66755317  1
  Fe  Fe44  1  0.50101262  0.83519170  0.83533465  1
  Cr  Cr45  1  0.83526899  0.16858027  0.50135730  1
  Ni  Ni46  1  0.66552882  0.00231612  0.67045710  1
  Cr  Cr47  1  0.83427283  0.16743731  0.83687967  1
  Fe  Fe48  1  0.83393514  0.50173413  0.50257167  1
  Fe  Fe49  1  0.66461624  0.33468996  0.66806183  1
  Cr  Cr50  1  0.83515290  0.50328493  0.83232951  1
  Fe  Fe51  1  0.83541564  0.83336427  0.50186547  1
  Fe  Fe52  1  0.66741852  0.67033575  0.66802364  1
  Fe  Fe53  1  0.83406147  0.83356278  0.83658089  1
" 