5905,Ni38Fe19Cr41_15,-222.575710465869, 169.515051606529,Ni38Fe19Cr41,"# generated using pymatgen
 data_Cr12(FeNi2)5
_symmetry_space_group_name_H-M   'P 1'
_cell_length_a   7.49586036
_cell_length_b   7.49586036
_cell_length_c   10.60074739
_cell_angle_alpha   90.00000000
_cell_angle_beta   90.00000000
_cell_angle_gamma   90.00000000
_symmetry_Int_Tables_number   1
_chemical_formula_structural   Cr12(FeNi2)5
_chemical_formula_sum   'Cr24 Fe10 Ni20'
_cell_volume   595.63397371
_cell_formula_units_Z   2
loop_
 _symmetry_equiv_pos_site_id
 _symmetry_equiv_pos_as_xyz
  1  'x, y, z'
loop_
 _atom_site_type_symbol
 _atom_site_label
 _atom_site_symmetry_multiplicity
 _atom_site_fract_x
 _atom_site_fract_y
 _atom_site_fract_z
 _atom_site_occupancy
  Cr  Cr0  1  -0.00106169  -0.00067944  0.99438557  1
  Fe  Fe1  1  0.16133821  0.16384906  0.16526275  1
  Ni  Ni2  1  -0.00173184  0.99796703  0.33388418  1
  Cr  Cr3  1  0.99696641  0.33141272  -0.00101494  1
  Cr  Cr4  1  0.16522631  0.49768682  0.16500405  1
  Ni  Ni5  1  0.99616089  0.32947684  0.33017882  1
  Ni  Ni6  1  0.99753387  0.66634268  0.99796837  1
  Cr  Cr7  1  0.16113901  0.83012068  0.16356363  1
  Ni  Ni8  1  0.99463741  0.66655192  0.33184472  1
  Fe  Fe9  1  0.32994205  0.00035445  0.99716052  1
  Fe  Fe10  1  0.49697458  0.16492159  0.16373698  1
  Cr  Cr11  1  0.33060726  0.99770650  0.33126719  1
  Ni  Ni12  1  0.33236511  0.32652978  -0.00114980  1
  Ni  Ni13  1  0.49479034  0.49791533  0.16343455  1
  Cr  Cr14  1  0.33012545  0.32803282  0.33152039  1
  Fe  Fe15  1  0.33139114  0.66392508  -0.00131722  1
  Fe  Fe16  1  0.49848516  0.83051811  0.16535113  1
  Fe  Fe17  1  0.32896512  0.66496028  0.33099332  1
  Cr  Cr18  1  0.66315034  -0.00048259  0.00185304  1
  Ni  Ni19  1  0.83192917  0.16128981  0.16830505  1
  Fe  Fe20  1  0.67046887  -0.00103722  0.33057941  1
  Cr  Cr21  1  0.66525426  0.33142396  -0.00153742  1
  Fe  Fe22  1  0.83426877  0.50010492  0.16502296  1
  Cr  Cr23  1  0.66756170  0.33256361  0.32887606  1
  Cr  Cr24  1  0.66874690  0.66315066  -0.00048050  1
  Ni  Ni25  1  0.83256114  0.83529076  0.16711243  1
  Cr  Cr26  1  0.66650400  0.66516251  0.33038205  1
  Ni  Ni27  1  0.15933392  0.16330531  0.49657015  1
  Fe  Fe28  1  -0.00165689  -0.00024442  0.66336659  1
  Ni  Ni29  1  0.16601602  0.16411075  0.83250883  1
  Cr  Cr30  1  0.16473860  0.49702433  0.49395980  1
  Cr  Cr31  1  -0.00144972  0.32864649  0.66503433  1
  Cr  Cr32  1  0.16572361  0.49856057  0.83518015  1
  Ni  Ni33  1  0.15861951  0.83296221  0.49552951  1
  Cr  Cr34  1  0.99650724  0.66768713  0.66489699  1
  Ni  Ni35  1  0.16393010  0.83318506  0.83366521  1
  Cr  Cr36  1  0.50228492  0.16694394  0.50025010  1
  Cr  Cr37  1  0.32444801  0.00031469  0.66613170  1
  Ni  Ni38  1  0.49745921  0.16723518  0.83234944  1
  Cr  Cr39  1  0.49855126  0.49640937  0.50321135  1
  Ni  Ni40  1  0.33064284  0.32618000  0.66573786  1
  Cr  Cr41  1  0.49778906  0.49569173  0.82705363  1
  Cr  Cr42  1  0.50117870  0.83064868  0.49560869  1
  Cr  Cr43  1  0.32871684  0.66858231  0.66230620  1
  Cr  Cr44  1  0.49760978  0.83187362  0.83314628  1
  Ni  Ni45  1  0.83486394  0.16263500  0.49671591  1
  Cr  Cr46  1  0.66659557  -0.00160204  0.66426737  1
  Ni  Ni47  1  0.83079292  0.16612755  0.82922769  1
  Fe  Fe48  1  0.83280926  0.49712911  0.49859053  1
  Ni  Ni49  1  0.66757850  0.33124592  0.66699621  1
  Ni  Ni50  1  0.83098812  0.49676321  0.83124737  1
  Ni  Ni51  1  0.83528735  0.83462626  0.49640108  1
  Ni  Ni52  1  0.66941104  0.66241246  0.66353586  1
  Cr  Cr53  1  0.83314715  0.83270375  0.83054073  1
" 