7322,Ni38Fe62_18,-242.662969995251, 224.381644598695,Ni38Fe62,"# generated using pymatgen
 data_Fe10Ni17
_symmetry_space_group_name_H-M   'P 1'
_cell_length_a   7.40543295
_cell_length_b   7.40543295
_cell_length_c   10.47286371
_cell_angle_alpha   90.00000000
_cell_angle_beta   90.00000000
_cell_angle_gamma   90.00000000
_symmetry_Int_Tables_number   1
_chemical_formula_structural   Fe10Ni17
_chemical_formula_sum   'Fe20 Ni34'
_cell_volume   574.33642364
_cell_formula_units_Z   2
loop_
 _symmetry_equiv_pos_site_id
 _symmetry_equiv_pos_as_xyz
  1  'x, y, z'
loop_
 _atom_site_type_symbol
 _atom_site_label
 _atom_site_symmetry_multiplicity
 _atom_site_fract_x
 _atom_site_fract_y
 _atom_site_fract_z
 _atom_site_occupancy
  Fe  Fe0  1  1.00378868  0.00430216  1.00361068  1
  Ni  Ni1  1  0.17015755  0.17067086  0.17057529  1
  Fe  Fe2  1  1.00367517  1.00353204  0.33833355  1
  Ni  Ni3  1  0.00497191  0.33771509  1.00396195  1
  Fe  Fe4  1  0.16998361  0.50434495  0.17009868  1
  Fe  Fe5  1  1.00338414  0.33680073  0.33742481  1
  Ni  Ni6  1  0.00460718  0.67051071  1.00383421  1
  Fe  Fe7  1  0.17041657  0.83687561  0.17104367  1
  Ni  Ni8  1  1.00362397  0.67033767  0.33801860  1
  Fe  Fe9  1  0.33778810  0.00422949  1.00413193  1
  Fe  Fe10  1  0.50533752  0.17046224  0.17027211  1
  Ni  Ni11  1  0.33816225  0.00508130  0.33732948  1
  Ni  Ni12  1  0.33720511  0.33704632  1.00407463  1
  Ni  Ni13  1  0.50489557  0.50522337  0.17021750  1
  Fe  Fe14  1  0.33797144  0.33746570  0.33708667  1
  Ni  Ni15  1  0.33723076  0.67084091  0.00465518  1
  Ni  Ni16  1  0.50457529  0.83559190  0.17054122  1
  Fe  Fe17  1  0.33855623  0.67181669  0.33708919  1
  Ni  Ni18  1  0.66996689  0.00422743  1.00387356  1
  Ni  Ni19  1  0.83925802  0.17099294  0.17045076  1
  Ni  Ni20  1  0.66952285  1.00391893  0.33853908  1
  Ni  Ni21  1  0.67030337  0.33659116  0.00472100  1
  Ni  Ni22  1  0.83595972  0.50442505  0.17060548  1
  Fe  Fe23  1  0.67112432  0.33800719  0.33770760  1
  Ni  Ni24  1  0.67064107  0.67165866  0.00442460  1
  Ni  Ni25  1  0.83695007  0.83706164  0.17101020  1
  Ni  Ni26  1  0.67180467  0.67147979  0.33732453  1
  Ni  Ni27  1  0.17009264  0.16975763  0.50458428  1
  Ni  Ni28  1  0.00526703  0.00423769  0.67004703  1
  Ni  Ni29  1  0.17088616  0.17052079  0.83731658  1
  Fe  Fe30  1  0.16914008  0.50437829  0.50430660  1
  Ni  Ni31  1  0.00443939  0.33710291  0.67041854  1
  Fe  Fe32  1  0.17137883  0.50471029  0.83807428  1
  Ni  Ni33  1  0.17007975  0.83899064  0.50394543  1
  Ni  Ni34  1  1.00409538  0.67114063  0.67062924  1
  Ni  Ni35  1  0.17008321  0.83860658  0.83819662  1
  Fe  Fe36  1  0.50478398  0.17057102  0.50435325  1
  Fe  Fe37  1  0.33633536  0.00422998  0.67071424  1
  Ni  Ni38  1  0.50295191  0.17234806  0.83800847  1
  Ni  Ni39  1  0.50520021  0.50441546  0.50415978  1
  Fe  Fe40  1  0.33730479  0.33775681  0.67144952  1
  Ni  Ni41  1  0.50478609  0.50403774  0.83810647  1
  Fe  Fe42  1  0.50493479  0.83767206  0.50344000  1
  Fe  Fe43  1  0.33730443  0.67049614  0.67152185  1
  Ni  Ni44  1  0.50444221  0.83609444  0.83712999  1
  Ni  Ni45  1  0.83904459  0.17091835  0.50446667  1
  Fe  Fe46  1  0.67259041  1.00400929  0.67111786  1
  Fe  Fe47  1  0.83687338  0.17027677  0.83741931  1
  Ni  Ni48  1  0.83571743  0.50442379  0.50421804  1
  Ni  Ni49  1  0.67059062  0.33760180  0.67051543  1
  Fe  Fe50  1  0.83719383  0.50459521  0.83735179  1
  Ni  Ni51  1  0.83836683  0.83713650  0.50390786  1
  Ni  Ni52  1  0.67094433  0.67063047  0.67072627  1
  Ni  Ni53  1  0.83795561  0.83677547  0.83756377  1
" 