4519,Ni38Fe24Cr37_6,-224.031037116228, 169.829540330666,Ni38Fe24Cr37,"# generated using pymatgen
 data_Cr11(Fe3Ni5)2
_symmetry_space_group_name_H-M   'P 1'
_cell_length_a   7.48695860
_cell_length_b   7.48695860
_cell_length_c   10.58815839
_cell_angle_alpha   90.00000000
_cell_angle_beta   90.00000000
_cell_angle_gamma   90.00000000
_symmetry_Int_Tables_number   1
_chemical_formula_structural   Cr11(Fe3Ni5)2
_chemical_formula_sum   'Cr22 Fe12 Ni20'
_cell_volume   593.51444320
_cell_formula_units_Z   2
loop_
 _symmetry_equiv_pos_site_id
 _symmetry_equiv_pos_as_xyz
  1  'x, y, z'
loop_
 _atom_site_type_symbol
 _atom_site_label
 _atom_site_symmetry_multiplicity
 _atom_site_fract_x
 _atom_site_fract_y
 _atom_site_fract_z
 _atom_site_occupancy
  Ni  Ni0  1  0.99664045  -0.00062955  0.99734614  1
  Fe  Fe1  1  0.16362062  0.16565218  0.16528315  1
  Fe  Fe2  1  -0.00041901  0.99865235  0.33142581  1
  Ni  Ni3  1  -0.00089651  0.33122547  -0.00009551  1
  Ni  Ni4  1  0.16539771  0.49700246  0.16665702  1
  Ni  Ni5  1  0.00093244  0.33532446  0.33125514  1
  Cr  Cr6  1  0.99777713  0.66642076  -0.00051212  1
  Cr  Cr7  1  0.16462478  0.83358261  0.16901909  1
  Ni  Ni8  1  0.00069552  0.66398163  0.33104988  1
  Cr  Cr9  1  0.33141123  0.99769362  0.99747732  1
  Fe  Fe10  1  0.49814433  0.16233658  0.16602528  1
  Ni  Ni11  1  0.33360792  0.99774250  0.33325533  1
  Fe  Fe12  1  0.32913941  0.33075639  0.00146002  1
  Fe  Fe13  1  0.49883781  0.49953916  0.16528007  1
  Cr  Cr14  1  0.33195602  0.33162531  0.33111124  1
  Cr  Cr15  1  0.33246844  0.66602908  0.00107189  1
  Fe  Fe16  1  0.50003330  0.83393765  0.16560214  1
  Fe  Fe17  1  0.33164769  0.66539606  0.33307167  1
  Ni  Ni18  1  0.66604178  0.99679902  -0.00100290  1
  Cr  Cr19  1  0.83325366  0.16255736  0.16720226  1
  Ni  Ni20  1  0.66093730  0.99710692  0.33117279  1
  Cr  Cr21  1  0.66670382  0.33266429  0.00059335  1
  Ni  Ni22  1  0.83511694  0.49941958  0.16544082  1
  Cr  Cr23  1  0.66513667  0.33213064  0.33384011  1
  Fe  Fe24  1  0.66674634  0.66891920  0.00057723  1
  Ni  Ni25  1  0.83109566  0.83294933  0.16514638  1
  Cr  Cr26  1  0.66618529  0.66552322  0.32866477  1
  Ni  Ni27  1  0.16642058  0.16429395  0.49487086  1
  Cr  Cr28  1  0.00058179  0.99734476  0.66840509  1
  Ni  Ni29  1  0.16264927  0.16508342  0.83633170  1
  Fe  Fe30  1  0.16635790  0.50080957  0.49739313  1
  Cr  Cr31  1  -0.00030618  0.33037029  0.66517329  1
  Cr  Cr32  1  0.16679496  0.49777235  0.83175967  1
  Fe  Fe33  1  0.16675862  0.83107555  0.49650740  1
  Ni  Ni34  1  0.00160523  0.66754989  0.66565003  1
  Fe  Fe35  1  0.16500412  0.83140281  0.83208698  1
  Ni  Ni36  1  0.49521217  0.16312630  0.49642549  1
  Cr  Cr37  1  0.33119572  0.99665361  0.66543307  1
  Cr  Cr38  1  0.49830423  0.16527552  0.83330522  1
  Ni  Ni39  1  0.49513646  0.50210371  0.49938602  1
  Cr  Cr40  1  0.33148962  0.33046501  0.66331856  1
  Cr  Cr41  1  0.49738625  0.50196844  0.83143567  1
  Ni  Ni42  1  0.49602686  0.83103120  0.49675851  1
  Ni  Ni43  1  0.33098578  0.66775618  0.66266447  1
  Ni  Ni44  1  0.50081398  0.83021219  0.83229594  1
  Cr  Cr45  1  0.83345010  0.16310841  0.49550599  1
  Cr  Cr46  1  0.66447096  -0.00130617  0.66539299  1
  Ni  Ni47  1  0.83433160  0.16256817  0.83464199  1
  Cr  Cr48  1  0.83385454  0.50110033  0.49938631  1
  Cr  Cr49  1  0.66458772  0.33066040  0.66165870  1
  Cr  Cr50  1  0.83153552  0.50001438  0.83054981  1
  Cr  Cr51  1  0.83274221  0.83186857  0.49630850  1
  Fe  Fe52  1  0.66367140  0.66833543  0.66449169  1
  Ni  Ni53  1  0.83029745  0.83321305  0.83364011  1
" 