8632,Ni38Fe19Cr41_6,-222.719206414008, 166.70270354147,Ni38Fe19Cr41,"# generated using pymatgen
 data_Cr12(FeNi2)5
_symmetry_space_group_name_H-M   'P 1'
_cell_length_a   7.49876232
_cell_length_b   7.49876232
_cell_length_c   10.60485137
_cell_angle_alpha   90.00000000
_cell_angle_beta   90.00000000
_cell_angle_gamma   90.00000000
_symmetry_Int_Tables_number   1
_chemical_formula_structural   Cr12(FeNi2)5
_chemical_formula_sum   'Cr24 Fe10 Ni20'
_cell_volume   596.32602460
_cell_formula_units_Z   2
loop_
 _symmetry_equiv_pos_site_id
 _symmetry_equiv_pos_as_xyz
  1  'x, y, z'
loop_
 _atom_site_type_symbol
 _atom_site_label
 _atom_site_symmetry_multiplicity
 _atom_site_fract_x
 _atom_site_fract_y
 _atom_site_fract_z
 _atom_site_occupancy
  Ni  Ni0  1  -0.00062375  -0.00180509  -0.00117385  1
  Ni  Ni1  1  0.16592927  0.16265572  0.16263011  1
  Ni  Ni2  1  -0.00029249  -0.00039503  0.33072823  1
  Fe  Fe3  1  -0.00127360  0.32829143  0.00144400  1
  Ni  Ni4  1  0.16366066  0.49681770  0.16086711  1
  Cr  Cr5  1  0.00128193  0.32795593  0.33116082  1
  Fe  Fe6  1  0.99739738  0.67009168  -0.00198973  1
  Cr  Cr7  1  0.16266358  0.83418107  0.16706853  1
  Fe  Fe8  1  -0.00028175  0.66464870  0.33130718  1
  Ni  Ni9  1  0.32949482  -0.00176149  -0.00141312  1
  Ni  Ni10  1  0.49566313  0.16268475  0.16252984  1
  Fe  Fe11  1  0.33096768  0.00026411  0.33013376  1
  Fe  Fe12  1  0.33273298  0.32636774  -0.00020361  1
  Cr  Cr13  1  0.49849732  0.49530430  0.16142049  1
  Cr  Cr14  1  0.32910426  0.33274138  0.32906502  1
  Cr  Cr15  1  0.33068596  0.66690208  -0.00171350  1
  Fe  Fe16  1  0.49717711  0.83410430  0.16320914  1
  Cr  Cr17  1  0.32942888  0.66409312  0.33147980  1
  Cr  Cr18  1  0.66383225  0.99686605  -0.00186100  1
  Ni  Ni19  1  0.83257394  0.16224742  0.16294403  1
  Cr  Cr20  1  0.66473449  -0.00104483  0.32728673  1
  Ni  Ni21  1  0.66385212  0.32903888  -0.00032248  1
  Cr  Cr22  1  0.83125757  0.50082227  0.16265577  1
  Cr  Cr23  1  0.66247505  0.32759275  0.33373051  1
  Ni  Ni24  1  0.66446125  0.66679241  0.99761141  1
  Ni  Ni25  1  0.83361303  0.83347682  0.16389506  1
  Cr  Cr26  1  0.65796849  0.66799115  0.33036856  1
  Fe  Fe27  1  0.16773062  0.16168737  0.49668582  1
  Cr  Cr28  1  -0.00138687  0.99788262  0.66553658  1
  Cr  Cr29  1  0.16937909  0.16168803  0.83369135  1
  Ni  Ni30  1  0.17014400  0.50015858  0.49889830  1
  Cr  Cr31  1  0.00256076  0.32883940  0.66111841  1
  Cr  Cr32  1  0.16614356  0.49701118  0.83387214  1
  Ni  Ni33  1  0.16943015  0.83427481  0.49686944  1
  Cr  Cr34  1  0.00356351  0.66668481  0.66553344  1
  Ni  Ni35  1  0.16603842  0.83291555  0.83142564  1
  Fe  Fe36  1  0.49304096  0.16171473  0.49823782  1
  Fe  Fe37  1  0.33176605  0.99638242  0.66558807  1
  Ni  Ni38  1  0.49503000  0.16343843  0.83140656  1
  Ni  Ni39  1  0.49191908  0.49829663  0.50081689  1
  Ni  Ni40  1  0.33136441  0.33128858  0.66244733  1
  Cr  Cr41  1  0.49780734  0.49300182  0.83114689  1
  Ni  Ni42  1  0.49191237  0.83380005  0.49866920  1
  Ni  Ni43  1  0.33047374  0.66550240  0.66381916  1
  Fe  Fe44  1  0.49420789  0.83284288  0.83209726  1
  Ni  Ni45  1  0.83183808  0.16069995  0.49604614  1
  Cr  Cr46  1  0.66436506  0.99703042  0.66728018  1
  Cr  Cr47  1  0.83058042  0.16540820  0.83375447  1
  Cr  Cr48  1  0.83008633  0.49851941  0.49731021  1
  Cr  Cr49  1  0.66317399  0.32712339  0.66009035  1
  Cr  Cr50  1  0.82996416  0.49914302  0.83441759  1
  Cr  Cr51  1  0.83371533  0.83309714  0.49459412  1
  Cr  Cr52  1  0.65972665  0.66908269  0.66620114  1
  Ni  Ni53  1  0.83425154  0.83136837  0.83539491  1
" 