1627,Ni38Fe50Cr11_0,-234.311003555048, 203.130083996551,Ni38Fe50Cr11,"# generated using pymatgen
 data_Cr7Fe27Ni20
_symmetry_space_group_name_H-M   'P 1'
_cell_length_a   7.42206550
_cell_length_b   7.42206550
_cell_length_c   10.49638569
_cell_angle_alpha   90.00000000
_cell_angle_beta   90.00000000
_cell_angle_gamma   90.00000000
_symmetry_Int_Tables_number   1
_chemical_formula_structural   Cr7Fe27Ni20
_chemical_formula_sum   'Cr7 Fe27 Ni20'
_cell_volume   578.21498982
_cell_formula_units_Z   1
loop_
 _symmetry_equiv_pos_site_id
 _symmetry_equiv_pos_as_xyz
  1  'x, y, z'
loop_
 _atom_site_type_symbol
 _atom_site_label
 _atom_site_symmetry_multiplicity
 _atom_site_fract_x
 _atom_site_fract_y
 _atom_site_fract_z
 _atom_site_occupancy
  Ni  Ni0  1  0.00607549  1.00047081  1.00245754  1
  Ni  Ni1  1  0.17119755  0.16929563  0.16883849  1
  Fe  Fe2  1  1.00284589  1.00274889  0.33676710  1
  Fe  Fe3  1  0.00606835  0.33659456  0.00440934  1
  Ni  Ni4  1  0.17007626  0.50290127  0.16912312  1
  Fe  Fe5  1  1.00300779  0.33736623  0.33651271  1
  Ni  Ni6  1  1.00280041  0.67050732  0.00390898  1
  Fe  Fe7  1  0.16874659  0.83587795  0.16846039  1
  Fe  Fe8  1  1.00188434  0.66897518  0.33529118  1
  Ni  Ni9  1  0.33352237  0.00427486  0.00415681  1
  Fe  Fe10  1  0.50063506  0.17152847  0.17098069  1
  Fe  Fe11  1  0.33709270  0.00461272  0.33544861  1
  Ni  Ni12  1  0.33522813  0.33685616  0.00359030  1
  Ni  Ni13  1  0.50317185  0.50336099  0.17007226  1
  Ni  Ni14  1  0.33649734  0.33612600  0.33635606  1
  Fe  Fe15  1  0.33560833  0.66999597  1.00278413  1
  Fe  Fe16  1  0.50283057  0.83516921  0.17092889  1
  Fe  Fe17  1  0.33701394  0.66815779  0.33540151  1
  Cr  Cr18  1  0.66956079  1.00015111  0.00330331  1
  Cr  Cr19  1  0.83726053  0.17065508  0.16997356  1
  Ni  Ni20  1  0.67008623  1.00236971  0.33686538  1
  Fe  Fe21  1  0.66809768  0.33945727  0.00497524  1
  Ni  Ni22  1  0.83583992  0.50485849  0.16962449  1
  Ni  Ni23  1  0.66756674  0.33752131  0.33723810  1
  Fe  Fe24  1  0.66899717  0.66891151  0.00411779  1
  Ni  Ni25  1  0.83701104  0.83414871  0.17025467  1
  Ni  Ni26  1  0.67169980  0.66920329  0.33432313  1
  Fe  Fe27  1  0.16982236  0.17051157  0.50216409  1
  Ni  Ni28  1  1.00146933  1.00172791  0.66970169  1
  Fe  Fe29  1  0.16945742  0.17036035  0.83780345  1
  Fe  Fe30  1  0.17078894  0.50225616  0.50267636  1
  Fe  Fe31  1  0.00407281  0.33571720  0.66816437  1
  Fe  Fe32  1  0.17187196  0.50289085  0.83684248  1
  Fe  Fe33  1  0.16773556  0.83632707  0.50317034  1
  Fe  Fe34  1  0.00374294  0.67128570  0.66960275  1
  Ni  Ni35  1  0.16923388  0.83603075  0.83692466  1
  Ni  Ni36  1  0.50438980  0.17153359  0.50191786  1
  Cr  Cr37  1  0.33519614  0.00515282  0.67069679  1
  Cr  Cr38  1  0.50223083  0.17103968  0.83632831  1
  Fe  Fe39  1  0.50313627  0.50092226  0.50299132  1
  Ni  Ni40  1  0.33549054  0.33880425  0.66913788  1
  Ni  Ni41  1  0.50150667  0.50471745  0.83498950  1
  Cr  Cr42  1  0.50341560  0.83644380  0.50299751  1
  Fe  Fe43  1  0.33606143  0.66806468  0.67090217  1
  Fe  Fe44  1  0.50321713  0.83321604  0.83582983  1
  Fe  Fe45  1  0.83531986  0.16894943  0.50327472  1
  Ni  Ni46  1  0.67303751  1.00100681  0.66894475  1
  Cr  Cr47  1  0.83831458  0.16888277  0.83552913  1
  Fe  Fe48  1  0.83516713  0.50300201  0.50259044  1
  Fe  Fe49  1  0.66844623  0.33642929  0.66720988  1
  Cr  Cr50  1  0.83569985  0.50343655  0.83777672  1
  Fe  Fe51  1  0.83666215  0.83713673  0.50289824  1
  Ni  Ni52  1  0.67062151  0.67007278  0.67067201  1
  Fe  Fe53  1  0.83710468  0.83562097  0.83573489  1
" 