3746,Ni38Fe39Cr22_12,-231.22566938204, 203.98864174855,Ni38Fe39Cr22,"# generated using pymatgen
 data_Cr13Fe21Ni20
_symmetry_space_group_name_H-M   'P 1'
_cell_length_a   7.44265255
_cell_length_b   7.44265255
_cell_length_c   10.52550018
_cell_angle_alpha   90.00000000
_cell_angle_beta   90.00000000
_cell_angle_gamma   90.00000000
_symmetry_Int_Tables_number   1
_chemical_formula_structural   Cr13Fe21Ni20
_chemical_formula_sum   'Cr13 Fe21 Ni20'
_cell_volume   583.03984231
_cell_formula_units_Z   1
loop_
 _symmetry_equiv_pos_site_id
 _symmetry_equiv_pos_as_xyz
  1  'x, y, z'
loop_
 _atom_site_type_symbol
 _atom_site_label
 _atom_site_symmetry_multiplicity
 _atom_site_fract_x
 _atom_site_fract_y
 _atom_site_fract_z
 _atom_site_occupancy
  Fe  Fe0  1  1.00100602  0.00364411  0.99956489  1
  Ni  Ni1  1  0.16884992  0.16994180  0.16936724  1
  Ni  Ni2  1  0.00290402  1.00119669  0.33810378  1
  Ni  Ni3  1  0.00363197  0.33564619  0.00258133  1
  Cr  Cr4  1  0.16834769  0.49996584  0.16805594  1
  Fe  Fe5  1  0.00446292  0.33238603  0.33564181  1
  Fe  Fe6  1  0.00305729  0.66831468  0.99972990  1
  Cr  Cr7  1  0.16718144  0.83597031  0.16739678  1
  Fe  Fe8  1  0.00216924  0.66915545  0.33701615  1
  Cr  Cr9  1  0.33716156  0.00317687  0.00286549  1
  Ni  Ni10  1  0.49975805  0.17010277  0.16590466  1
  Cr  Cr11  1  0.33489701  0.00336339  0.33491035  1
  Ni  Ni12  1  0.33276400  0.33439119  0.99984348  1
  Cr  Cr13  1  0.50097469  0.49980071  0.16829108  1
  Ni  Ni14  1  0.33263993  0.33546568  0.33715551  1
  Fe  Fe15  1  0.33448652  0.66655758  0.99891732  1
  Fe  Fe16  1  0.50139463  0.83634614  0.16852271  1
  Fe  Fe17  1  0.33573441  0.66778967  0.33818890  1
  Ni  Ni18  1  0.66740883  1.00144617  1.00055982  1
  Cr  Cr19  1  0.83615528  0.16841423  0.16497492  1
  Cr  Cr20  1  0.66719035  0.99965802  0.33685522  1
  Fe  Fe21  1  0.66622382  0.33172012  1.00010007  1
  Fe  Fe22  1  0.83716247  0.50047848  0.16793509  1
  Cr  Cr23  1  0.66763867  0.33550187  0.33476992  1
  Cr  Cr24  1  0.66810713  0.67006235  0.00178510  1
  Cr  Cr25  1  0.83623788  0.83451836  0.16964780  1
  Fe  Fe26  1  0.66692904  0.66945204  0.33636131  1
  Fe  Fe27  1  0.16786453  0.16797434  0.50243420  1
  Fe  Fe28  1  0.00298063  0.00254108  0.66739300  1
  Ni  Ni29  1  0.16846663  0.16825395  0.83468211  1
  Fe  Fe30  1  0.17030827  0.50185928  0.50135733  1
  Ni  Ni31  1  0.00287552  0.33512548  0.66708022  1
  Fe  Fe32  1  0.16988790  0.50006159  0.83560785  1
  Ni  Ni33  1  0.16674441  0.83485244  0.50257198  1
  Fe  Fe34  1  0.00259588  0.67033382  0.66811554  1
  Fe  Fe35  1  0.16841817  0.83489470  0.83342742  1
  Ni  Ni36  1  0.49988471  0.17116697  0.50309665  1
  Ni  Ni37  1  0.33404961  1.00045127  0.66748155  1
  Ni  Ni38  1  0.50028015  0.17142466  0.83594898  1
  Ni  Ni39  1  0.49935755  0.50156545  0.50289985  1
  Fe  Fe40  1  0.33609389  0.33370835  0.66876706  1
  Ni  Ni41  1  0.49922320  0.49949789  0.83379934  1
  Ni  Ni42  1  0.50013200  0.83207371  0.50155803  1
  Fe  Fe43  1  0.33570406  0.66793865  0.66764767  1
  Fe  Fe44  1  0.50115894  0.83519254  0.83376137  1
  Ni  Ni45  1  0.83744631  0.16700987  0.50347150  1
  Cr  Cr46  1  0.66699205  1.00153922  0.66730175  1
  Fe  Fe47  1  0.83523553  0.16820729  0.83533577  1
  Cr  Cr48  1  0.83382347  0.50203102  0.50094817  1
  Ni  Ni49  1  0.66785046  0.33557060  0.66926419  1
  Cr  Cr50  1  0.83391637  0.50122314  0.83532177  1
  Ni  Ni51  1  0.83805888  0.83531786  0.50108583  1
  Fe  Fe52  1  0.66654869  0.66793677  0.66824168  1
  Ni  Ni53  1  0.83812630  0.83628023  0.83485154  1
" 