7800,Ni38Fe39Cr22_19,-230.98752028524, 196.203545135929,Ni38Fe39Cr22,"# generated using pymatgen
 data_Cr13Fe21Ni20
_symmetry_space_group_name_H-M   'P 1'
_cell_length_a   7.45147600
_cell_length_b   7.45147600
_cell_length_c   10.53797842
_cell_angle_alpha   90.00000000
_cell_angle_beta   90.00000000
_cell_angle_gamma   90.00000000
_symmetry_Int_Tables_number   1
_chemical_formula_structural   Cr13Fe21Ni20
_chemical_formula_sum   'Cr13 Fe21 Ni20'
_cell_volume   585.11592585
_cell_formula_units_Z   1
loop_
 _symmetry_equiv_pos_site_id
 _symmetry_equiv_pos_as_xyz
  1  'x, y, z'
loop_
 _atom_site_type_symbol
 _atom_site_label
 _atom_site_symmetry_multiplicity
 _atom_site_fract_x
 _atom_site_fract_y
 _atom_site_fract_z
 _atom_site_occupancy
  Fe  Fe0  1  0.00273238  1.00065442  0.00281773  1
  Fe  Fe1  1  0.16665890  0.16667495  0.16657168  1
  Ni  Ni2  1  0.00153051  0.99822843  0.33506216  1
  Fe  Fe3  1  1.00010269  0.33768324  0.00124024  1
  Fe  Fe4  1  0.16655160  0.50311866  0.16659378  1
  Cr  Cr5  1  0.00137346  0.33585033  0.33580448  1
  Ni  Ni6  1  0.00114092  0.66766947  0.00218934  1
  Ni  Ni7  1  0.16864259  0.83276859  0.16844812  1
  Ni  Ni8  1  1.00001571  0.67023583  0.33286793  1
  Fe  Fe9  1  0.33308440  1.00001277  0.00250416  1
  Fe  Fe10  1  0.50015777  0.16908489  0.16702572  1
  Cr  Cr11  1  0.33410554  0.00211508  0.33560198  1
  Ni  Ni12  1  0.33219186  0.33330516  0.00176972  1
  Fe  Fe13  1  0.50061985  0.50023029  0.16672341  1
  Cr  Cr14  1  0.33513527  0.33360455  0.33544153  1
  Fe  Fe15  1  0.33498496  0.66568025  1.00082235  1
  Fe  Fe16  1  0.49986481  0.83313896  0.16722430  1
  Fe  Fe17  1  0.33366763  0.66834529  0.33462159  1
  Cr  Cr18  1  0.66748917  0.99713062  0.00157109  1
  Cr  Cr19  1  0.83220406  0.16924867  0.16907136  1
  Fe  Fe20  1  0.66956704  0.00174251  0.33592692  1
  Ni  Ni21  1  0.66538354  0.33635550  0.00226811  1
  Ni  Ni22  1  0.83407988  0.50030862  0.16770722  1
  Ni  Ni23  1  0.66655078  0.33535577  0.33475153  1
  Cr  Cr24  1  0.67189929  0.66679844  0.99855839  1
  Fe  Fe25  1  0.83842230  0.83331500  0.16831965  1
  Cr  Cr26  1  0.66998276  0.66739929  0.33407352  1
  Ni  Ni27  1  0.16485226  0.16467703  0.50202625  1
  Fe  Fe28  1  0.99918583  0.99950526  0.66521535  1
  Fe  Fe29  1  0.16742285  0.16981712  0.83574694  1
  Cr  Cr30  1  0.16773557  0.50694380  0.50130525  1
  Fe  Fe31  1  0.99948677  0.33600852  0.66656756  1
  Fe  Fe32  1  0.16762211  0.50134572  0.83482498  1
  Ni  Ni33  1  0.16550644  0.83392106  0.50038147  1
  Ni  Ni34  1  0.99849279  0.66791044  0.66773897  1
  Cr  Cr35  1  0.16750051  0.83328832  0.83369886  1
  Ni  Ni36  1  0.50591643  0.16848042  0.50006406  1
  Cr  Cr37  1  0.33450231  0.00257393  0.66659890  1
  Cr  Cr38  1  0.50356236  0.16843474  0.83556136  1
  Ni  Ni39  1  0.50412523  0.50171378  0.50178971  1
  Cr  Cr40  1  0.33385742  0.33431926  0.66662047  1
  Ni  Ni41  1  0.50176785  0.50195626  0.83434265  1
  Fe  Fe42  1  0.50037633  0.83276286  0.50306660  1
  Ni  Ni43  1  0.33509605  0.66765163  0.66743867  1
  Ni  Ni44  1  0.49944982  0.83196847  0.83276649  1
  Fe  Fe45  1  0.83382470  0.16726675  0.50120195  1
  Ni  Ni46  1  0.66848520  0.99897331  0.66567635  1
  Cr  Cr47  1  0.83481367  0.16908997  0.83311836  1
  Fe  Fe48  1  0.83361965  0.50132256  0.50218876  1
  Ni  Ni49  1  0.66808033  0.33620635  0.66597583  1
  Ni  Ni50  1  0.83490912  0.49975315  0.83348661  1
  Fe  Fe51  1  0.83542514  0.83431147  0.50184869  1
  Ni  Ni52  1  0.66902009  0.66745337  0.66951098  1
  Fe  Fe53  1  0.83364635  0.83271170  0.83208277  1
" 