3053,Ni38Fe24Cr37_0,-224.398520850369, 178.624852610111,Ni38Fe24Cr37,"# generated using pymatgen
 data_Cr11(Fe3Ni5)2
_symmetry_space_group_name_H-M   'P 1'
_cell_length_a   7.48247484
_cell_length_b   7.48247484
_cell_length_c   10.58181740
_cell_angle_alpha   90.00000000
_cell_angle_beta   90.00000000
_cell_angle_gamma   90.00000000
_symmetry_Int_Tables_number   1
_chemical_formula_structural   Cr11(Fe3Ni5)2
_chemical_formula_sum   'Cr22 Fe12 Ni20'
_cell_volume   592.44875780
_cell_formula_units_Z   2
loop_
 _symmetry_equiv_pos_site_id
 _symmetry_equiv_pos_as_xyz
  1  'x, y, z'
loop_
 _atom_site_type_symbol
 _atom_site_label
 _atom_site_symmetry_multiplicity
 _atom_site_fract_x
 _atom_site_fract_y
 _atom_site_fract_z
 _atom_site_occupancy
  Ni  Ni0  1  0.99810813  0.00018897  0.00114894  1
  Fe  Fe1  1  0.16544531  0.16521681  0.16731920  1
  Fe  Fe2  1  0.99882669  -0.00069145  0.32875045  1
  Cr  Cr3  1  0.99887759  0.32846804  0.00087233  1
  Ni  Ni4  1  0.16255911  0.49934031  0.16483946  1
  Fe  Fe5  1  -0.00077063  0.33405615  0.33125439  1
  Cr  Cr6  1  0.99727476  0.66719650  0.00137648  1
  Ni  Ni7  1  0.16379029  0.83394689  0.16622462  1
  Ni  Ni8  1  0.99811692  0.66517907  0.33199905  1
  Fe  Fe9  1  0.33043728  0.00035818  0.00261469  1
  Cr  Cr10  1  0.50067623  0.16578223  0.16695684  1
  Ni  Ni11  1  0.33111925  0.00088157  0.33114604  1
  Ni  Ni12  1  0.32922949  0.33120007  0.99873378  1
  Cr  Cr13  1  0.50003459  0.49592599  0.16121854  1
  Cr  Cr14  1  0.33090501  0.33200339  0.33592325  1
  Ni  Ni15  1  0.33049594  0.66596927  0.00305017  1
  Ni  Ni16  1  0.49917840  0.83691530  0.16246702  1
  Cr  Cr17  1  0.33138691  0.66512039  0.32947673  1
  Ni  Ni18  1  0.67007028  -0.00082574  -0.00057965  1
  Fe  Fe19  1  0.83224534  0.16420864  0.16752784  1
  Ni  Ni20  1  0.66650303  -0.00072583  0.33262117  1
  Ni  Ni21  1  0.66782051  0.32945637  0.00125585  1
  Ni  Ni22  1  0.83447927  0.49697079  0.16731956  1
  Ni  Ni23  1  0.66841105  0.33096369  0.33261338  1
  Ni  Ni24  1  0.66671187  0.66811974  0.00370660  1
  Ni  Ni25  1  0.83377133  0.83435640  0.16708213  1
  Cr  Cr26  1  0.66724986  0.66522160  0.32928672  1
  Ni  Ni27  1  0.16317928  0.16652023  0.49657668  1
  Cr  Cr28  1  0.99789077  0.00126384  0.66667252  1
  Fe  Fe29  1  0.16451420  0.16629018  0.83344796  1
  Ni  Ni30  1  0.16013242  0.49739951  0.50031269  1
  Ni  Ni31  1  -0.00034417  0.33096801  0.66569906  1
  Fe  Fe32  1  0.16623639  0.49752495  0.83363964  1
  Cr  Cr33  1  0.16193668  0.83252349  0.49642808  1
  Fe  Fe34  1  -0.00078179  0.66210616  0.66342116  1
  Cr  Cr35  1  0.16556879  0.83100989  0.83406843  1
  Ni  Ni36  1  0.50017594  0.16613149  0.49688346  1
  Cr  Cr37  1  0.33181522  0.00197008  0.66374153  1
  Cr  Cr38  1  0.50031895  0.16563791  0.83445988  1
  Ni  Ni39  1  0.49983450  0.49607881  0.49678126  1
  Cr  Cr40  1  0.33047751  0.33168158  0.66341282  1
  Cr  Cr41  1  0.50017044  0.49894433  0.83952473  1
  Cr  Cr42  1  0.49852108  0.83597813  0.49654986  1
  Cr  Cr43  1  0.33376170  0.66313356  0.66462302  1
  Cr  Cr44  1  0.49857959  0.83354639  0.83681367  1
  Cr  Cr45  1  0.83314544  0.16531188  0.49622379  1
  Fe  Fe46  1  0.66559004  0.00115471  0.66464798  1
  Fe  Fe47  1  0.83276927  0.16527897  0.83392635  1
  Fe  Fe48  1  0.83474114  0.49717977  0.49632596  1
  Cr  Cr49  1  0.66639132  0.33245493  0.66392311  1
  Cr  Cr50  1  0.83400395  0.49720039  0.83272487  1
  Fe  Fe51  1  0.83342063  0.83287731  0.49590889  1
  Cr  Cr52  1  0.66670594  0.66687441  0.66110045  1
  Cr  Cr53  1  0.83262288  0.83248768  0.83028846  1
" 