2176,Ni38Fe50Cr11_5,-234.48047739647, 207.870932601669,Ni38Fe50Cr11,"# generated using pymatgen
 data_Cr7Fe27Ni20
_symmetry_space_group_name_H-M   'P 1'
_cell_length_a   7.42116219
_cell_length_b   7.42116219
_cell_length_c   10.49510822
_cell_angle_alpha   90.00000000
_cell_angle_beta   90.00000000
_cell_angle_gamma   90.00000000
_symmetry_Int_Tables_number   1
_chemical_formula_structural   Cr7Fe27Ni20
_chemical_formula_sum   'Cr7 Fe27 Ni20'
_cell_volume   578.00389870
_cell_formula_units_Z   1
loop_
 _symmetry_equiv_pos_site_id
 _symmetry_equiv_pos_as_xyz
  1  'x, y, z'
loop_
 _atom_site_type_symbol
 _atom_site_label
 _atom_site_symmetry_multiplicity
 _atom_site_fract_x
 _atom_site_fract_y
 _atom_site_fract_z
 _atom_site_occupancy
  Fe  Fe0  1  0.00343662  1.00240685  0.00330861  1
  Ni  Ni1  1  0.16892221  0.16979469  0.16904914  1
  Cr  Cr2  1  0.00426090  1.00303467  0.33752969  1
  Fe  Fe3  1  0.00381071  0.33634970  1.00252119  1
  Fe  Fe4  1  0.17028030  0.50256875  0.16957347  1
  Fe  Fe5  1  0.00339325  0.33717884  0.33675259  1
  Fe  Fe6  1  0.00413172  0.67076270  1.00304300  1
  Ni  Ni7  1  0.17199272  0.83574228  0.16851003  1
  Fe  Fe8  1  0.00401987  0.67056063  0.33717963  1
  Ni  Ni9  1  0.33505500  0.00430707  0.00392570  1
  Fe  Fe10  1  0.50100416  0.17067507  0.16949872  1
  Ni  Ni11  1  0.33481072  0.00361016  0.33598830  1
  Fe  Fe12  1  0.33687652  0.33691474  0.00315837  1
  Ni  Ni13  1  0.50380967  0.50504892  0.16964065  1
  Fe  Fe14  1  0.33701059  0.33578903  0.33623699  1
  Ni  Ni15  1  0.33630718  0.66936328  1.00302980  1
  Fe  Fe16  1  0.50147939  0.83562404  0.16893591  1
  Ni  Ni17  1  0.33580153  0.66883006  0.33580324  1
  Fe  Fe18  1  0.66978595  1.00305253  0.00387992  1
  Ni  Ni19  1  0.83753031  0.17240534  0.16808357  1
  Cr  Cr20  1  0.67024552  0.00356752  0.33534377  1
  Fe  Fe21  1  0.66861730  0.33639499  0.00320800  1
  Fe  Fe22  1  0.83725216  0.50285327  0.17023706  1
  Fe  Fe23  1  0.66892460  0.33692113  0.33647653  1
  Ni  Ni24  1  0.67089517  0.66840650  0.00338556  1
  Fe  Fe25  1  0.83690614  0.83488942  0.16886654  1
  Ni  Ni26  1  0.67024509  0.66737337  0.33616991  1
  Ni  Ni27  1  0.16917288  0.16990357  0.50331140  1
  Ni  Ni28  1  0.00312842  0.00388171  0.66970821  1
  Ni  Ni29  1  0.16749315  0.16984342  0.83725167  1
  Fe  Fe30  1  0.16849052  0.50249015  0.50157789  1
  Ni  Ni31  1  0.00320934  0.33522713  0.66930248  1
  Fe  Fe32  1  0.16885164  0.50212717  0.83791477  1
  Ni  Ni33  1  0.17115518  0.83685377  0.50418723  1
  Cr  Cr34  1  0.00323511  0.67007302  0.66944892  1
  Fe  Fe35  1  0.16869202  0.83891869  0.83780851  1
  Ni  Ni36  1  0.50192373  0.16971358  0.50233065  1
  Fe  Fe37  1  0.33304406  0.00452544  0.66972110  1
  Fe  Fe38  1  0.50283087  0.16872987  0.83778508  1
  Fe  Fe39  1  0.50326196  0.50240322  0.50044518  1
  Cr  Cr40  1  0.33557524  0.33674784  0.66996790  1
  Fe  Fe41  1  0.50324713  0.50155524  0.83931011  1
  Cr  Cr42  1  0.50178299  0.83545488  0.50356128  1
  Fe  Fe43  1  0.33465492  0.66852685  0.67006186  1
  Cr  Cr44  1  0.50237036  0.83494724  0.83516179  1
  Ni  Ni45  1  0.83814986  0.17192023  0.50430558  1
  Fe  Fe46  1  0.67280892  0.00422705  0.66908843  1
  Ni  Ni47  1  0.83869126  0.17064582  0.83669989  1
  Ni  Ni48  1  0.83629538  0.50241639  0.50126047  1
  Cr  Cr49  1  0.67009331  0.33699867  0.66914856  1
  Fe  Fe50  1  0.83724328  0.50222357  0.83739810  1
  Ni  Ni51  1  0.83618084  0.83503351  0.50427777  1
  Fe  Fe52  1  0.67129126  0.66850887  0.66955726  1
  Fe  Fe53  1  0.83726343  0.83861989  0.83701441  1
" 