6530,Ni38Fe60Cr0_8,-237.165928345318, 214.1240895242,Ni38Fe60Cr0,"# generated using pymatgen
 data_Cr(Fe8Ni5)2
_symmetry_space_group_name_H-M   'P 1'
_cell_length_a   7.40255771
_cell_length_b   7.40255771
_cell_length_c   10.46879751
_cell_angle_alpha   90.00000000
_cell_angle_beta   90.00000000
_cell_angle_gamma   90.00000000
_symmetry_Int_Tables_number   1
_chemical_formula_structural   Cr(Fe8Ni5)2
_chemical_formula_sum   'Cr2 Fe32 Ni20'
_cell_volume   573.66770747
_cell_formula_units_Z   2
loop_
 _symmetry_equiv_pos_site_id
 _symmetry_equiv_pos_as_xyz
  1  'x, y, z'
loop_
 _atom_site_type_symbol
 _atom_site_label
 _atom_site_symmetry_multiplicity
 _atom_site_fract_x
 _atom_site_fract_y
 _atom_site_fract_z
 _atom_site_occupancy
  Fe  Fe0  1  0.00547451  0.00441182  1.00420938  1
  Ni  Ni1  1  0.17154575  0.17095864  0.17065142  1
  Ni  Ni2  1  0.00471563  1.00407643  0.33876171  1
  Ni  Ni3  1  1.00397363  0.33956755  1.00230711  1
  Fe  Fe4  1  0.17112729  0.50353494  0.17127418  1
  Ni  Ni5  1  0.00449987  0.33858100  0.33910998  1
  Fe  Fe6  1  0.00459521  0.67058935  1.00319558  1
  Fe  Fe7  1  0.17155747  0.83811740  0.17063195  1
  Fe  Fe8  1  1.00400651  0.67134842  0.33888507  1
  Ni  Ni9  1  0.33831278  1.00350914  0.00512657  1
  Fe  Fe10  1  0.50259321  0.17133387  0.17018343  1
  Fe  Fe11  1  0.33722861  0.00450180  0.33759050  1
  Fe  Fe12  1  0.33687297  0.33642221  0.00534951  1
  Ni  Ni13  1  0.50414737  0.50478709  0.17158505  1
  Fe  Fe14  1  0.33692491  0.33742914  0.33738074  1
  Fe  Fe15  1  0.33693944  0.67126386  0.00536357  1
  Fe  Fe16  1  0.50381606  0.83797008  0.17127474  1
  Ni  Ni17  1  0.33780364  0.67141111  0.33819799  1
  Fe  Fe18  1  0.66988728  1.00434014  1.00356166  1
  Cr  Cr19  1  0.83889844  0.17051406  0.17179531  1
  Ni  Ni20  1  0.67021488  1.00362308  0.33858489  1
  Ni  Ni21  1  0.67196146  0.33804978  0.00489790  1
  Fe  Fe22  1  0.83777747  0.50476447  0.17096686  1
  Fe  Fe23  1  0.67054536  0.33850658  0.33843588  1
  Fe  Fe24  1  0.67152793  0.67143228  0.00542083  1
  Fe  Fe25  1  0.83769489  0.83653961  0.17197391  1
  Fe  Fe26  1  0.67148896  0.67164997  0.33793150  1
  Fe  Fe27  1  0.17025448  0.17076175  0.50344294  1
  Fe  Fe28  1  1.00424184  1.00391402  0.67056107  1
  Fe  Fe29  1  0.17235709  0.17032939  0.83853123  1
  Ni  Ni30  1  0.17044589  0.50369100  0.50392184  1
  Fe  Fe31  1  0.00468645  0.33843625  0.67077428  1
  Ni  Ni32  1  0.16914001  0.50450073  0.83850179  1
  Fe  Fe33  1  0.17056455  0.83673411  0.50489014  1
  Ni  Ni34  1  0.00477663  0.67038313  0.67088641  1
  Ni  Ni35  1  0.17091747  0.83750944  0.83730501  1
  Fe  Fe36  1  0.50519416  0.17089481  0.50530907  1
  Ni  Ni37  1  0.33833224  1.00325874  0.67055869  1
  Ni  Ni38  1  0.50528394  0.16898249  0.83899361  1
  Fe  Fe39  1  0.50488418  0.50523988  0.50388061  1
  Fe  Fe40  1  0.33660993  0.33703999  0.67033621  1
  Cr  Cr41  1  0.50332854  0.50426499  0.83620012  1
  Ni  Ni42  1  0.50522929  0.83806437  0.50458578  1
  Fe  Fe43  1  0.33663094  0.67193549  0.66994450  1
  Ni  Ni44  1  0.50422682  0.84005375  0.83808262  1
  Fe  Fe45  1  0.83761980  0.17109282  0.50359432  1
  Fe  Fe46  1  0.67055356  1.00389493  0.67052316  1
  Fe  Fe47  1  0.83719021  0.17152111  0.83823518  1
  Ni  Ni48  1  0.83851560  0.50421805  0.50368564  1
  Ni  Ni49  1  0.67218333  0.33720145  0.66983407  1
  Fe  Fe50  1  0.83926423  0.50430673  0.83732012  1
  Ni  Ni51  1  0.83687213  0.83813625  0.50384212  1
  Fe  Fe52  1  0.67194345  0.67237839  0.66971193  1
  Fe  Fe53  1  0.83784137  0.83724180  0.83712002  1
" 