6312,Ni38Fe60Cr0_16,-236.961711770845, 216.471111100609,Ni38Fe60Cr0,"# generated using pymatgen
 data_Cr(Fe8Ni5)2
_symmetry_space_group_name_H-M   'P 1'
_cell_length_a   7.39925740
_cell_length_b   7.39925740
_cell_length_c   10.46413016
_cell_angle_alpha   90.00000000
_cell_angle_beta   90.00000000
_cell_angle_gamma   90.00000000
_symmetry_Int_Tables_number   1
_chemical_formula_structural   Cr(Fe8Ni5)2
_chemical_formula_sum   'Cr2 Fe32 Ni20'
_cell_volume   572.90076744
_cell_formula_units_Z   2
loop_
 _symmetry_equiv_pos_site_id
 _symmetry_equiv_pos_as_xyz
  1  'x, y, z'
loop_
 _atom_site_type_symbol
 _atom_site_label
 _atom_site_symmetry_multiplicity
 _atom_site_fract_x
 _atom_site_fract_y
 _atom_site_fract_z
 _atom_site_occupancy
  Ni  Ni0  1  0.00495541  0.00641039  0.00494990  1
  Fe  Fe1  1  0.17015463  0.16940704  0.17161797  1
  Fe  Fe2  1  1.00402197  1.00307146  0.33788737  1
  Ni  Ni3  1  1.00350590  0.33586928  0.00460714  1
  Fe  Fe4  1  0.17096708  0.50511780  0.17358838  1
  Fe  Fe5  1  1.00435828  0.33875514  0.33791013  1
  Cr  Cr6  1  1.00413170  0.67193483  1.00406089  1
  Ni  Ni7  1  0.17299561  0.83828865  0.17188678  1
  Ni  Ni8  1  1.00455058  0.67084655  0.33912285  1
  Ni  Ni9  1  0.33824293  1.00363117  0.00475288  1
  Fe  Fe10  1  0.50543965  0.16912862  0.17247754  1
  Fe  Fe11  1  0.33847104  1.00328655  0.33728229  1
  Cr  Cr12  1  0.33708194  0.33694760  0.00465101  1
  Fe  Fe13  1  0.50549254  0.50626394  0.17284650  1
  Fe  Fe14  1  0.33852126  0.33892544  0.33882564  1
  Fe  Fe15  1  0.33858871  0.67413721  0.00496913  1
  Ni  Ni16  1  0.50357433  0.83708407  0.17076726  1
  Ni  Ni17  1  0.33818421  0.67057279  0.33741359  1
  Fe  Fe18  1  0.67143222  0.00512300  0.00532101  1
  Ni  Ni19  1  0.83838060  0.17226534  0.17072706  1
  Ni  Ni20  1  0.67074430  1.00419894  0.33842874  1
  Fe  Fe21  1  0.67379935  0.33691926  0.00478332  1
  Fe  Fe22  1  0.83728031  0.50429224  0.17196650  1
  Fe  Fe23  1  0.67086354  0.33855956  0.33787007  1
  Fe  Fe24  1  0.66935291  0.67169852  1.00428915  1
  Fe  Fe25  1  0.83700466  0.83916367  0.17317584  1
  Ni  Ni26  1  0.67100762  0.67197944  0.33763249  1
  Ni  Ni27  1  0.17116643  0.17217911  0.50440561  1
  Ni  Ni28  1  0.00498288  0.00552174  0.67130391  1
  Fe  Fe29  1  0.17022732  0.16933370  0.83685221  1
  Ni  Ni30  1  0.17150903  0.50408192  0.50484362  1
  Ni  Ni31  1  0.00559517  0.33717975  0.67172594  1
  Fe  Fe32  1  0.17130094  0.50496757  0.83584918  1
  Fe  Fe33  1  0.17148592  0.83778524  0.50437719  1
  Fe  Fe34  1  1.00429637  0.67145556  0.67084885  1
  Ni  Ni35  1  0.17262793  0.83867598  0.83710996  1
  Ni  Ni36  1  0.50466729  0.17217844  0.50450191  1
  Fe  Fe37  1  0.33751017  0.00476425  0.67202403  1
  Fe  Fe38  1  0.50468293  0.16933341  0.83688957  1
  Ni  Ni39  1  0.50432654  0.50408787  0.50465124  1
  Fe  Fe40  1  0.33758131  0.33791194  0.67040875  1
  Fe  Fe41  1  0.50530660  0.50666985  0.83644392  1
  Fe  Fe42  1  0.50462108  0.83750210  0.50417115  1
  Fe  Fe43  1  0.33736891  0.67106795  0.67113512  1
  Ni  Ni44  1  0.50376409  0.83745013  0.83832416  1
  Fe  Fe45  1  0.83819574  0.17155523  0.50439439  1
  Fe  Fe46  1  0.67198773  1.00449804  0.67057432  1
  Fe  Fe47  1  0.83883609  0.17049938  0.83865740  1
  Fe  Fe48  1  0.83791116  0.50447795  0.50472940  1
  Fe  Fe49  1  0.67160524  0.33786110  0.67108818  1
  Fe  Fe50  1  0.83713170  0.50442971  0.83704649  1
  Ni  Ni51  1  0.83790615  0.83782321  0.50440846  1
  Ni  Ni52  1  0.67053708  0.67138285  0.67067565  1
  Fe  Fe53  1  0.83713242  0.83881503  0.83611546  1
" 