7107,Ni38Fe60Cr0_5,-237.055172141967, 213.04717805895,Ni38Fe60Cr0,"# generated using pymatgen
 data_Cr(Fe8Ni5)2
_symmetry_space_group_name_H-M   'P 1'
_cell_length_a   7.40276353
_cell_length_b   7.40276353
_cell_length_c   10.46908859
_cell_angle_alpha   90.00000000
_cell_angle_beta   90.00000000
_cell_angle_gamma   90.00000000
_symmetry_Int_Tables_number   1
_chemical_formula_structural   Cr(Fe8Ni5)2
_chemical_formula_sum   'Cr2 Fe32 Ni20'
_cell_volume   573.71555983
_cell_formula_units_Z   2
loop_
 _symmetry_equiv_pos_site_id
 _symmetry_equiv_pos_as_xyz
  1  'x, y, z'
loop_
 _atom_site_type_symbol
 _atom_site_label
 _atom_site_symmetry_multiplicity
 _atom_site_fract_x
 _atom_site_fract_y
 _atom_site_fract_z
 _atom_site_occupancy
  Fe  Fe0  1  1.00273663  0.00546972  1.00342814  1
  Ni  Ni1  1  0.17228126  0.17221968  0.17136910  1
  Ni  Ni2  1  0.00449251  0.00450128  0.33759311  1
  Fe  Fe3  1  1.00364908  0.33898600  0.00437482  1
  Ni  Ni4  1  0.16993046  0.50351234  0.17151058  1
  Fe  Fe5  1  0.00507876  0.33703915  0.33735681  1
  Ni  Ni6  1  0.00460314  0.67103587  1.00332401  1
  Cr  Cr7  1  0.17224372  0.83712857  0.17013744  1
  Fe  Fe8  1  0.00450912  0.67009524  0.33786535  1
  Fe  Fe9  1  0.33923761  0.00498585  1.00427563  1
  Ni  Ni10  1  0.50469675  0.17006110  0.17071716  1
  Ni  Ni11  1  0.33681744  0.00636301  0.33881177  1
  Fe  Fe12  1  0.33721805  0.33836932  0.00496125  1
  Fe  Fe13  1  0.50280865  0.50219157  0.17200239  1
  Ni  Ni14  1  0.33778872  0.33694591  0.33666869  1
  Fe  Fe15  1  0.33659457  0.66967178  1.00312639  1
  Fe  Fe16  1  0.50455399  0.83869344  0.17151971  1
  Fe  Fe17  1  0.33762576  0.67087251  0.33856467  1
  Fe  Fe18  1  0.67105410  0.00608936  1.00415242  1
  Fe  Fe19  1  0.83826593  0.17157916  0.17090249  1
  Fe  Fe20  1  0.67030224  0.00513109  0.33746454  1
  Ni  Ni21  1  0.67020400  0.33691127  0.00447124  1
  Ni  Ni22  1  0.83879997  0.50306697  0.17175463  1
  Fe  Fe23  1  0.67107987  0.33666833  0.33763926  1
  Cr  Cr24  1  0.67230896  0.66931776  0.00441147  1
  Fe  Fe25  1  0.83783840  0.83848695  0.17185546  1
  Fe  Fe26  1  0.67089649  0.67122333  0.33799359  1
  Fe  Fe27  1  0.17029379  0.17058255  0.50354022  1
  Ni  Ni28  1  0.00492727  1.00350691  0.67132744  1
  Fe  Fe29  1  0.17063593  0.17127575  0.83767666  1
  Fe  Fe30  1  0.17074494  0.50395798  0.50431071  1
  Fe  Fe31  1  1.00312332  0.33791649  0.67129683  1
  Ni  Ni32  1  0.17005764  0.50556049  0.83782095  1
  Ni  Ni33  1  0.17261668  0.83778286  0.50491854  1
  Fe  Fe34  1  1.00401469  0.66989708  0.67151562  1
  Fe  Fe35  1  0.16996305  0.83728596  0.83742910  1
  Fe  Fe36  1  0.50427035  0.17167886  0.50371686  1
  Fe  Fe37  1  0.33834413  1.00413605  0.67059168  1
  Fe  Fe38  1  0.50496021  0.17228203  0.83811438  1
  Fe  Fe39  1  0.50485564  0.50389621  0.50485618  1
  Ni  Ni40  1  0.33866501  0.33746111  0.67134578  1
  Fe  Fe41  1  0.50435445  0.50301727  0.83616951  1
  Fe  Fe42  1  0.50491841  0.83745711  0.50479616  1
  Fe  Fe43  1  0.33800291  0.67092789  0.67133352  1
  Ni  Ni44  1  0.50247809  0.83923134  0.83678902  1
  Ni  Ni45  1  0.83674207  0.17228449  0.50376752  1
  Fe  Fe46  1  0.67105345  0.00502814  0.67140668  1
  Ni  Ni47  1  0.83644393  0.17227968  0.83829835  1
  Ni  Ni48  1  0.83740108  0.50296859  0.50509383  1
  Ni  Ni49  1  0.66978210  0.33956715  0.67128244  1
  Ni  Ni50  1  0.83917994  0.50220172  0.83618108  1
  Fe  Fe51  1  0.83852873  0.83789522  0.50438889  1
  Ni  Ni52  1  0.67161042  0.66987997  0.67146083  1
  Fe  Fe53  1  0.83887806  0.83788693  0.83678152  1
" 