8118,Ni38Fe62_5,-242.637984816924, 224.7858206108,Ni38Fe62,"# generated using pymatgen
 data_Fe10Ni17
_symmetry_space_group_name_H-M   'P 1'
_cell_length_a   7.40347871
_cell_length_b   7.40347871
_cell_length_c   10.47010001
_cell_angle_alpha   90.00000000
_cell_angle_beta   90.00000000
_cell_angle_gamma   90.00000000
_symmetry_Int_Tables_number   1
_chemical_formula_structural   Fe10Ni17
_chemical_formula_sum   'Fe20 Ni34'
_cell_volume   573.88185587
_cell_formula_units_Z   2
loop_
 _symmetry_equiv_pos_site_id
 _symmetry_equiv_pos_as_xyz
  1  'x, y, z'
loop_
 _atom_site_type_symbol
 _atom_site_label
 _atom_site_symmetry_multiplicity
 _atom_site_fract_x
 _atom_site_fract_y
 _atom_site_fract_z
 _atom_site_occupancy
  Fe  Fe0  1  0.00563357  0.00562641  0.00429760  1
  Fe  Fe1  1  0.17165903  0.17056911  0.17049882  1
  Ni  Ni2  1  1.00395448  1.00377124  0.33656243  1
  Ni  Ni3  1  1.00366998  0.33876317  1.00401087  1
  Fe  Fe4  1  0.17075524  0.50571554  0.17033761  1
  Fe  Fe5  1  0.00433953  0.33735130  0.33670998  1
  Ni  Ni6  1  1.00321581  0.67058955  1.00396702  1
  Ni  Ni7  1  0.17117397  0.83829970  0.17075467  1
  Ni  Ni8  1  1.00425895  0.67100289  0.33744871  1
  Ni  Ni9  1  0.33920128  0.00435575  1.00358690  1
  Ni  Ni10  1  0.50408503  0.17145433  0.16986888  1
  Ni  Ni11  1  0.33802764  0.00539755  0.33895803  1
  Ni  Ni12  1  0.33820408  0.33722253  0.00479985  1
  Ni  Ni13  1  0.50422043  0.50434182  0.17036695  1
  Fe  Fe14  1  0.33861321  0.33767187  0.33856389  1
  Ni  Ni15  1  0.33659741  0.67115061  1.00399737  1
  Ni  Ni16  1  0.50286085  0.83701949  0.17271200  1
  Ni  Ni17  1  0.33735078  0.67071917  0.33884082  1
  Fe  Fe18  1  0.67064113  1.00419692  0.00443254  1
  Ni  Ni19  1  0.83814413  0.17130199  0.17112159  1
  Ni  Ni20  1  0.67088225  0.00484566  0.33731887  1
  Ni  Ni21  1  0.67122150  0.33657967  1.00340333  1
  Ni  Ni22  1  0.83675059  0.50422314  0.17096546  1
  Fe  Fe23  1  0.67006725  0.33763839  0.33648369  1
  Fe  Fe24  1  0.66926984  0.66965456  0.00438076  1
  Ni  Ni25  1  0.83870373  0.83731171  0.16941500  1
  Ni  Ni26  1  0.67160443  0.67134343  0.33685023  1
  Ni  Ni27  1  0.17037323  0.16976911  0.50407646  1
  Ni  Ni28  1  1.00330170  1.00354050  0.67144439  1
  Ni  Ni29  1  0.17055846  0.16987834  0.83823864  1
  Fe  Fe30  1  0.17189366  0.50422396  0.50491036  1
  Fe  Fe31  1  1.00421296  0.33680021  0.67190837  1
  Fe  Fe32  1  0.17086720  0.50331928  0.83828188  1
  Ni  Ni33  1  0.16931575  0.83865187  0.50513842  1
  Ni  Ni34  1  1.00383556  0.67068459  0.67106844  1
  Fe  Fe35  1  0.16996131  0.83668866  0.83806287  1
  Ni  Ni36  1  0.50326866  0.17313180  0.50624059  1
  Fe  Fe37  1  0.33680509  1.00395815  0.67111230  1
  Fe  Fe38  1  0.50514397  0.17140785  0.83765872  1
  Ni  Ni39  1  0.50576847  0.50432313  0.50477355  1
  Ni  Ni40  1  0.33766220  0.33737358  0.67230470  1
  Ni  Ni41  1  0.50477332  0.50538056  0.83807474  1
  Fe  Fe42  1  0.50472092  0.83880073  0.50392518  1
  Fe  Fe43  1  0.33822528  0.67123379  0.67071556  1
  Ni  Ni44  1  0.50327882  0.83608594  0.83648583  1
  Fe  Fe45  1  0.83725063  0.16927250  0.50415843  1
  Ni  Ni46  1  0.67123642  0.00439309  0.67084042  1
  Ni  Ni47  1  0.83983574  0.17151313  0.83693640  1
  Fe  Fe48  1  0.83831814  0.50457634  0.50411435  1
  Fe  Fe49  1  0.67160182  0.33833489  0.67208185  1
  Ni  Ni50  1  0.83666392  0.50414292  0.83710783  1
  Ni  Ni51  1  0.83921465  0.83704852  0.50415390  1
  Ni  Ni52  1  0.67204774  0.67166029  0.67068562  1
  Fe  Fe53  1  0.83658983  0.83752036  0.83667793  1
" 