5396,Ni38Fe61Cr0_8,-237.541291887647, 210.018235064405,Ni38Fe61Cr0,"# generated using pymatgen
 data_CrFe33Ni20
_symmetry_space_group_name_H-M   'P 1'
_cell_length_a   7.40200508
_cell_length_b   7.40200508
_cell_length_c   10.46801597
_cell_angle_alpha   90.00000000
_cell_angle_beta   90.00000000
_cell_angle_gamma   90.00000000
_symmetry_Int_Tables_number   1
_chemical_formula_structural   CrFe33Ni20
_chemical_formula_sum   'Cr1 Fe33 Ni20'
_cell_volume   573.53923602
_cell_formula_units_Z   1
loop_
 _symmetry_equiv_pos_site_id
 _symmetry_equiv_pos_as_xyz
  1  'x, y, z'
loop_
 _atom_site_type_symbol
 _atom_site_label
 _atom_site_symmetry_multiplicity
 _atom_site_fract_x
 _atom_site_fract_y
 _atom_site_fract_z
 _atom_site_occupancy
  Ni  Ni0  1  0.00455969  1.00405624  0.00527546  1
  Ni  Ni1  1  0.17102770  0.17071260  0.17040957  1
  Fe  Fe2  1  1.00390999  1.00387810  0.33741165  1
  Ni  Ni3  1  0.00454549  0.33738376  1.00358790  1
  Fe  Fe4  1  0.17099966  0.50494959  0.17063120  1
  Fe  Fe5  1  1.00393321  0.33728429  0.33731299  1
  Fe  Fe6  1  0.00475168  0.67145351  1.00393020  1
  Ni  Ni7  1  0.16916664  0.83934003  0.17117823  1
  Fe  Fe8  1  1.00324021  0.67201792  0.33782410  1
  Ni  Ni9  1  0.33622245  0.00450193  1.00389360  1
  Fe  Fe10  1  0.50432196  0.17152516  0.17047943  1
  Fe  Fe11  1  0.33712057  0.00507706  0.33811934  1
  Ni  Ni12  1  0.33785559  0.33856210  0.00461389  1
  Fe  Fe13  1  0.50375429  0.50321718  0.17134429  1
  Fe  Fe14  1  0.33851839  0.33750536  0.33772969  1
  Ni  Ni15  1  0.33622350  0.67011883  1.00379345  1
  Cr  Cr16  1  0.50486615  0.83740234  0.17016771  1
  Fe  Fe17  1  0.33800932  0.67059918  0.33826399  1
  Ni  Ni18  1  0.67240475  0.00568300  1.00322914  1
  Fe  Fe19  1  0.83815027  0.16962590  0.17055520  1
  Ni  Ni20  1  0.67201901  0.00471656  0.33941674  1
  Ni  Ni21  1  0.67077811  0.33739575  0.00598319  1
  Fe  Fe22  1  0.83842476  0.50482189  0.17050258  1
  Fe  Fe23  1  0.67073222  0.33817767  0.33821375  1
  Fe  Fe24  1  0.67185591  0.67002883  1.00408180  1
  Ni  Ni25  1  0.83887580  0.83708162  0.17026970  1
  Ni  Ni26  1  0.67165659  0.67064308  0.33921406  1
  Ni  Ni27  1  0.17070960  0.17054365  0.50480923  1
  Ni  Ni28  1  0.00495864  1.00339246  0.67041903  1
  Ni  Ni29  1  0.17120665  0.17000497  0.83796034  1
  Fe  Fe30  1  0.17143735  0.50416687  0.50446086  1
  Fe  Fe31  1  1.00409509  0.33750203  0.67154424  1
  Fe  Fe32  1  0.17060859  0.50462028  0.83808420  1
  Fe  Fe33  1  0.17122498  0.83752647  0.50502376  1
  Ni  Ni34  1  0.00530931  0.67188743  0.67053863  1
  Ni  Ni35  1  0.17148170  0.83954633  0.83837336  1
  Fe  Fe36  1  0.50445837  0.17154713  0.50436363  1
  Fe  Fe37  1  0.33648000  0.00461546  0.67161536  1
  Fe  Fe38  1  0.50440287  0.17125473  0.83834185  1
  Ni  Ni39  1  0.50602469  0.50509920  0.50433703  1
  Fe  Fe40  1  0.33704317  0.33743264  0.67087090  1
  Fe  Fe41  1  0.50385509  0.50398301  0.83755636  1
  Fe  Fe42  1  0.50433485  0.83777679  0.50359548  1
  Fe  Fe43  1  0.33736956  0.67113519  0.67139756  1
  Fe  Fe44  1  0.50366334  0.83794278  0.83852148  1
  Fe  Fe45  1  0.83731737  0.17133420  0.50462072  1
  Fe  Fe46  1  0.67199164  1.00426774  0.67083368  1
  Fe  Fe47  1  0.83843478  0.17109306  0.83800566  1
  Fe  Fe48  1  0.83756858  0.50404394  0.50518320  1
  Ni  Ni49  1  0.67037940  0.33790929  0.66986603  1
  Ni  Ni50  1  0.83620931  0.50432961  0.83748754  1
  Fe  Fe51  1  0.83762633  0.83780197  0.50372537  1
  Fe  Fe52  1  0.67206742  0.67052243  0.67034259  1
  Fe  Fe53  1  0.83907043  0.83821393  0.83794213  1
" 