4355,Ni38Cr62_13,-224.552874579796, 141.047036751435,Ni38Cr62,"# generated using pymatgen
 data_Cr10Ni17
_symmetry_space_group_name_H-M   'P 1'
_cell_length_a   7.50042796
_cell_length_b   7.50042796
_cell_length_c   10.60720695
_cell_angle_alpha   90.00000000
_cell_angle_beta   90.00000000
_cell_angle_gamma   90.00000000
_symmetry_Int_Tables_number   1
_chemical_formula_structural   Cr10Ni17
_chemical_formula_sum   'Cr20 Ni34'
_cell_volume   596.72348532
_cell_formula_units_Z   2
loop_
 _symmetry_equiv_pos_site_id
 _symmetry_equiv_pos_as_xyz
  1  'x, y, z'
loop_
 _atom_site_type_symbol
 _atom_site_label
 _atom_site_symmetry_multiplicity
 _atom_site_fract_x
 _atom_site_fract_y
 _atom_site_fract_z
 _atom_site_occupancy
  Cr  Cr0  1  -0.00209273  -0.00114446  0.99750645  1
  Ni  Ni1  1  0.16586717  0.16318639  0.16665534  1
  Ni  Ni2  1  -0.00172713  0.00059554  0.33064885  1
  Cr  Cr3  1  -0.00025134  0.32922506  -0.00210389  1
  Ni  Ni4  1  0.16460203  0.49754101  0.16619702  1
  Ni  Ni5  1  0.99704443  0.32849022  0.32985409  1
  Ni  Ni6  1  0.99758660  0.66609137  -0.00145689  1
  Ni  Ni7  1  0.16670032  0.83265430  0.16564232  1
  Cr  Cr8  1  -0.00197808  0.66612614  0.33101512  1
  Ni  Ni9  1  0.33262146  0.99723411  -0.00056987  1
  Ni  Ni10  1  0.49687127  0.16178859  0.16534720  1
  Ni  Ni11  1  0.33178683  0.99752724  0.32915195  1
  Cr  Cr12  1  0.32950098  0.32869962  0.99691707  1
  Cr  Cr13  1  0.49867141  0.49697286  0.16550340  1
  Ni  Ni14  1  0.33208165  0.33022271  0.33000350  1
  Cr  Cr15  1  0.33209129  0.66623441  -0.00127070  1
  Ni  Ni16  1  0.49496905  0.83416017  0.16308320  1
  Ni  Ni17  1  0.33225362  0.66549840  0.33037494  1
  Ni  Ni18  1  0.66294765  0.99577595  0.99774445  1
  Ni  Ni19  1  0.83069252  0.16417837  0.16616890  1
  Cr  Cr20  1  0.66416745  -0.00198810  0.33186057  1
  Cr  Cr21  1  0.66407387  0.32816187  0.99731527  1
  Cr  Cr22  1  0.83115147  0.49672262  0.16409529  1
  Ni  Ni23  1  0.66424271  0.32900042  0.33334471  1
  Ni  Ni24  1  0.66346800  0.66875798  0.99549634  1
  Cr  Cr25  1  0.83006276  0.83212841  0.16176698  1
  Cr  Cr26  1  0.66171786  0.66592802  0.33445016  1
  Cr  Cr27  1  0.16576866  0.16177806  0.49728629  1
  Ni  Ni28  1  0.99440607  0.99687955  0.66511261  1
  Ni  Ni29  1  0.16418842  0.16042560  0.83013951  1
  Cr  Cr30  1  0.16522081  0.49864685  0.49690181  1
  Cr  Cr31  1  0.99514288  0.32859851  0.66539652  1
  Cr  Cr32  1  0.16454534  0.50011138  0.83003082  1
  Cr  Cr33  1  0.16531102  0.83302477  0.49883630  1
  Ni  Ni34  1  0.99446024  0.66703426  0.66377078  1
  Cr  Cr35  1  0.16456478  0.83270017  0.82814994  1
  Ni  Ni36  1  0.49951487  0.16415283  0.49746478  1
  Ni  Ni37  1  0.33367289  0.99593009  0.66482048  1
  Cr  Cr38  1  0.49877684  0.16092985  0.83052265  1
  Ni  Ni39  1  0.49962740  0.49733193  0.49823508  1
  Cr  Cr40  1  0.33414558  0.33147711  0.66612656  1
  Ni  Ni41  1  0.50033527  0.50112675  0.82889339  1
  Ni  Ni42  1  0.49727767  0.83182767  0.49962984  1
  Ni  Ni43  1  0.33550339  0.66642064  0.66391816  1
  Ni  Ni44  1  0.50026275  0.83111569  0.83070058  1
  Ni  Ni45  1  0.82932120  0.16426568  0.49772511  1
  Ni  Ni46  1  0.66522680  0.99641260  0.66387957  1
  Ni  Ni47  1  0.82987844  0.16078723  0.82941869  1
  Ni  Ni48  1  0.82835297  0.49669068  0.49856673  1
  Ni  Ni49  1  0.66451956  0.33098996  0.66241264  1
  Cr  Cr50  1  0.82841952  0.50087092  0.83160789  1
  Ni  Ni51  1  0.83041050  0.83238801  0.50126545  1
  Ni  Ni52  1  0.66333030  0.66595569  0.66394825  1
  Ni  Ni53  1  0.82853030  0.83219588  0.83033537  1
" 