8641,Ni38Fe60Cr0_1,-237.250248686209, 213.493402995695,Ni38Fe60Cr0,"# generated using pymatgen
 data_Cr(Fe8Ni5)2
_symmetry_space_group_name_H-M   'P 1'
_cell_length_a   7.40307201
_cell_length_b   7.40307201
_cell_length_c   10.46952485
_cell_angle_alpha   90.00000000
_cell_angle_beta   90.00000000
_cell_angle_gamma   90.00000000
_symmetry_Int_Tables_number   1
_chemical_formula_structural   Cr(Fe8Ni5)2
_chemical_formula_sum   'Cr2 Fe32 Ni20'
_cell_volume   573.78728486
_cell_formula_units_Z   2
loop_
 _symmetry_equiv_pos_site_id
 _symmetry_equiv_pos_as_xyz
  1  'x, y, z'
loop_
 _atom_site_type_symbol
 _atom_site_label
 _atom_site_symmetry_multiplicity
 _atom_site_fract_x
 _atom_site_fract_y
 _atom_site_fract_z
 _atom_site_occupancy
  Fe  Fe0  1  0.00671237  0.00476104  1.00417936  1
  Ni  Ni1  1  0.17052425  0.17061319  0.17008337  1
  Fe  Fe2  1  0.00448615  0.00546382  0.33776420  1
  Fe  Fe3  1  0.00476460  0.33715174  0.00555975  1
  Ni  Ni4  1  0.17011853  0.50375407  0.17012752  1
  Ni  Ni5  1  1.00342800  0.33739825  0.33778600  1
  Ni  Ni6  1  0.00469889  0.67052717  0.00567647  1
  Fe  Fe7  1  0.17015480  0.83795899  0.16926607  1
  Fe  Fe8  1  1.00249005  0.66998447  0.33752468  1
  Ni  Ni9  1  0.33716855  0.00485800  0.00499247  1
  Fe  Fe10  1  0.50304856  0.17259091  0.17126935  1
  Fe  Fe11  1  0.33723837  0.00658709  0.33731417  1
  Ni  Ni12  1  0.33777967  0.33725897  0.00509200  1
  Ni  Ni13  1  0.50538180  0.50526496  0.16976150  1
  Fe  Fe14  1  0.33691095  0.33589056  0.33701084  1
  Fe  Fe15  1  0.33750820  0.67124461  0.00446365  1
  Ni  Ni16  1  0.50360712  0.83670805  0.17018353  1
  Cr  Cr17  1  0.33680257  0.67041543  0.33663637  1
  Cr  Cr18  1  0.67032652  0.00552258  0.00446051  1
  Ni  Ni19  1  0.83934858  0.17238851  0.17201174  1
  Fe  Fe20  1  0.67123955  0.00477051  0.33752876  1
  Fe  Fe21  1  0.67079524  0.33901545  1.00380408  1
  Ni  Ni22  1  0.83746071  0.50427375  0.17049087  1
  Fe  Fe23  1  0.67173141  0.33788562  0.33827156  1
  Fe  Fe24  1  0.67021276  0.66930066  0.00521255  1
  Fe  Fe25  1  0.83854447  0.83607185  0.17160011  1
  Fe  Fe26  1  0.67285804  0.67031169  0.33709194  1
  Ni  Ni27  1  0.17136119  0.17048615  0.50533646  1
  Fe  Fe28  1  1.00429043  1.00418447  0.67102191  1
  Fe  Fe29  1  0.17152330  0.17042210  0.83821792  1
  Fe  Fe30  1  0.16960837  0.50251939  0.50492697  1
  Fe  Fe31  1  1.00382722  0.33817079  0.66994012  1
  Fe  Fe32  1  0.17098053  0.50444013  0.83802863  1
  Fe  Fe33  1  0.16976712  0.83887721  0.50621385  1
  Ni  Ni34  1  0.00540074  0.67113632  0.66935896  1
  Ni  Ni35  1  0.17161886  0.83707579  0.83826275  1
  Ni  Ni36  1  0.50387020  0.17048575  0.50361237  1
  Fe  Fe37  1  0.33768705  1.00408638  0.67136507  1
  Ni  Ni38  1  0.50420877  0.17155722  0.83722310  1
  Fe  Fe39  1  0.50550002  0.50225426  0.50519970  1
  Fe  Fe40  1  0.33795007  0.33806575  0.67119839  1
  Fe  Fe41  1  0.50415304  0.50358601  0.83778711  1
  Fe  Fe42  1  0.50534275  0.83914026  0.50465743  1
  Ni  Ni43  1  0.33653413  0.67145676  0.67172169  1
  Fe  Fe44  1  0.50318413  0.83784809  0.83731452  1
  Ni  Ni45  1  0.83772976  0.17188479  0.50479488  1
  Fe  Fe46  1  0.67098686  0.00463515  0.67117566  1
  Ni  Ni47  1  0.83775550  0.17219169  0.83615719  1
  Ni  Ni48  1  0.83773139  0.50471551  0.50439337  1
  Ni  Ni49  1  0.67126866  0.33590607  0.67089742  1
  Fe  Fe50  1  0.83782916  0.50426407  0.83734461  1
  Fe  Fe51  1  0.83785335  0.83831384  0.50448961  1
  Fe  Fe52  1  0.67108898  0.67034293  0.67065135  1
  Fe  Fe53  1  0.83893531  0.83730879  0.83687314  1
" 