1269,Ni38Fe61Cr0_6,-237.785742890934, 210.577988124001,Ni38Fe61Cr0,"# generated using pymatgen
 data_CrFe33Ni20
_symmetry_space_group_name_H-M   'P 1'
_cell_length_a   7.39991428
_cell_length_b   7.39991428
_cell_length_c   10.46505914
_cell_angle_alpha   90.00000000
_cell_angle_beta   90.00000000
_cell_angle_gamma   90.00000000
_symmetry_Int_Tables_number   1
_chemical_formula_structural   CrFe33Ni20
_chemical_formula_sum   'Cr1 Fe33 Ni20'
_cell_volume   573.05336276
_cell_formula_units_Z   1
loop_
 _symmetry_equiv_pos_site_id
 _symmetry_equiv_pos_as_xyz
  1  'x, y, z'
loop_
 _atom_site_type_symbol
 _atom_site_label
 _atom_site_symmetry_multiplicity
 _atom_site_fract_x
 _atom_site_fract_y
 _atom_site_fract_z
 _atom_site_occupancy
  Fe  Fe0  1  0.00535552  0.00685243  1.00335589  1
  Fe  Fe1  1  0.17020788  0.17227865  0.17057994  1
  Fe  Fe2  1  1.00411076  0.00522618  0.33863059  1
  Ni  Ni3  1  0.00601121  0.33831145  0.00554317  1
  Ni  Ni4  1  0.17119786  0.50441274  0.17058953  1
  Fe  Fe5  1  1.00338587  0.33855553  0.33756147  1
  Fe  Fe6  1  0.00558482  0.66962780  0.00471605  1
  Fe  Fe7  1  0.17166720  0.83711342  0.17133389  1
  Ni  Ni8  1  0.00607564  0.67002718  0.33876634  1
  Fe  Fe9  1  0.33754103  0.00543364  1.00429418  1
  Fe  Fe10  1  0.50554469  0.17191899  0.17165864  1
  Fe  Fe11  1  0.33894025  1.00410399  0.33859437  1
  Ni  Ni12  1  0.33590356  0.33797730  1.00428352  1
  Fe  Fe13  1  0.50532282  0.50407339  0.17118366  1
  Fe  Fe14  1  0.33832502  0.33833082  0.33781804  1
  Fe  Fe15  1  0.33766794  0.67069585  0.00469984  1
  Fe  Fe16  1  0.50393964  0.83761538  0.17172039  1
  Fe  Fe17  1  0.33851433  0.67117212  0.33796917  1
  Ni  Ni18  1  0.67014293  0.00473197  1.00370371  1
  Ni  Ni19  1  0.83734432  0.17272851  0.17131230  1
  Ni  Ni20  1  0.66967589  0.00521381  0.33920782  1
  Fe  Fe21  1  0.67177586  0.33725275  0.00484111  1
  Ni  Ni22  1  0.83847686  0.50298519  0.17078230  1
  Ni  Ni23  1  0.67122719  0.33734007  0.33712335  1
  Fe  Fe24  1  0.67035508  0.66972331  1.00375875  1
  Cr  Cr25  1  0.83642692  0.83803174  0.17119596  1
  Ni  Ni26  1  0.67081157  0.67105232  0.33857554  1
  Ni  Ni27  1  0.17156271  0.17245974  0.50447194  1
  Fe  Fe28  1  1.00348128  0.00556275  0.67162350  1
  Ni  Ni29  1  0.17064710  0.17177386  0.83810746  1
  Ni  Ni30  1  0.17077753  0.50406667  0.50520212  1
  Ni  Ni31  1  0.00567983  0.33794142  0.67084552  1
  Fe  Fe32  1  0.17060885  0.50312503  0.83821464  1
  Fe  Fe33  1  0.17191261  0.83812773  0.50422989  1
  Fe  Fe34  1  1.00340850  0.67058864  0.67053780  1
  Fe  Fe35  1  0.17070876  0.83873695  0.83804572  1
  Ni  Ni36  1  0.50469217  0.16987558  0.50544251  1
  Fe  Fe37  1  0.33866330  0.00525929  0.67072148  1
  Fe  Fe38  1  0.50486890  0.17113213  0.83755293  1
  Fe  Fe39  1  0.50433694  0.50406984  0.50468624  1
  Fe  Fe40  1  0.33830816  0.33753244  0.67125638  1
  Fe  Fe41  1  0.50466543  0.50355436  0.83773715  1
  Ni  Ni42  1  0.50607648  0.83820421  0.50430950  1
  Fe  Fe43  1  0.33881074  0.67081602  0.67093921  1
  Fe  Fe44  1  0.50518013  0.83892108  0.83730793  1
  Fe  Fe45  1  0.83725712  0.17130407  0.50478554  1
  Ni  Ni46  1  0.67041659  1.00409577  0.67069790  1
  Ni  Ni47  1  0.83813716  0.17082673  0.83788879  1
  Fe  Fe48  1  0.83748040  0.50424866  0.50412163  1
  Ni  Ni49  1  0.67154603  0.33726553  0.67181709  1
  Fe  Fe50  1  0.83833499  0.50343266  0.83780877  1
  Fe  Fe51  1  0.83738394  0.83805537  0.50413358  1
  Ni  Ni52  1  0.67075482  0.67224504  0.67079786  1
  Fe  Fe53  1  0.83771562  0.83894064  0.83786617  1
" 