8355,Ni38Fe24Cr37_8,-223.974682026092, 172.082970074872,Ni38Fe24Cr37,"# generated using pymatgen
 data_Cr11(Fe3Ni5)2
_symmetry_space_group_name_H-M   'P 1'
_cell_length_a   7.48950827
_cell_length_b   7.48950827
_cell_length_c   10.59176417
_cell_angle_alpha   90.00000000
_cell_angle_beta   90.00000000
_cell_angle_gamma   90.00000000
_symmetry_Int_Tables_number   1
_chemical_formula_structural   Cr11(Fe3Ni5)2
_chemical_formula_sum   'Cr22 Fe12 Ni20'
_cell_volume   594.12101221
_cell_formula_units_Z   2
loop_
 _symmetry_equiv_pos_site_id
 _symmetry_equiv_pos_as_xyz
  1  'x, y, z'
loop_
 _atom_site_type_symbol
 _atom_site_label
 _atom_site_symmetry_multiplicity
 _atom_site_fract_x
 _atom_site_fract_y
 _atom_site_fract_z
 _atom_site_occupancy
  Ni  Ni0  1  0.00134080  0.99674592  -0.00046404  1
  Cr  Cr1  1  0.16433135  0.16383841  0.16472217  1
  Fe  Fe2  1  0.99438573  0.99739504  0.33125400  1
  Cr  Cr3  1  0.99581195  0.33229364  -0.00021611  1
  Cr  Cr4  1  0.16945967  0.50084005  0.16528776  1
  Cr  Cr5  1  0.99738333  0.33235272  0.33288020  1
  Fe  Fe6  1  0.00071268  0.66704075  0.99833291  1
  Ni  Ni7  1  0.16575517  0.83104943  0.16313538  1
  Ni  Ni8  1  0.99798944  0.66564890  0.33340946  1
  Ni  Ni9  1  0.33146999  0.99578504  0.99676104  1
  Cr  Cr10  1  0.50100539  0.16768606  0.16436467  1
  Cr  Cr11  1  0.33324574  0.99684008  0.33029034  1
  Ni  Ni12  1  0.33539942  0.33129653  0.99709587  1
  Ni  Ni13  1  0.49732287  0.49906900  0.16615803  1
  Ni  Ni14  1  0.33262179  0.33439601  0.33262682  1
  Fe  Fe15  1  0.33271563  0.66615156  -0.00096321  1
  Ni  Ni16  1  0.49714523  0.82994920  0.16512497  1
  Fe  Fe17  1  0.33276545  0.66334716  0.33004823  1
  Fe  Fe18  1  0.66355251  0.00091846  -0.00023569  1
  Ni  Ni19  1  0.82968791  0.16261821  0.16485782  1
  Ni  Ni20  1  0.66717925  0.99770271  0.33090061  1
  Ni  Ni21  1  0.66327046  0.33255948  0.99712218  1
  Cr  Cr22  1  0.82871447  0.49808729  0.16487241  1
  Ni  Ni23  1  0.66589952  0.33190966  0.33187331  1
  Cr  Cr24  1  0.66302882  0.66381940  0.99707173  1
  Cr  Cr25  1  0.83254415  0.83466425  0.16638733  1
  Ni  Ni26  1  0.66612922  0.66589902  0.33292125  1
  Cr  Cr27  1  0.16531323  0.16612904  0.50003738  1
  Fe  Fe28  1  0.99828722  0.99717676  0.66455483  1
  Cr  Cr29  1  0.16790649  0.16260033  0.83072261  1
  Ni  Ni30  1  0.16575536  0.49829028  0.49669195  1
  Cr  Cr31  1  0.99662666  0.33309140  0.66276699  1
  Cr  Cr32  1  0.16717398  0.49906219  0.83423907  1
  Cr  Cr33  1  0.16193715  0.83106791  0.49830554  1
  Cr  Cr34  1  0.99558267  0.66317547  0.66506762  1
  Fe  Fe35  1  0.16638207  0.83279341  0.83386234  1
  Cr  Cr36  1  0.49947726  0.16754134  0.49935074  1
  Ni  Ni37  1  0.33199126  -0.00075378  0.66848745  1
  Fe  Fe38  1  0.49782145  0.16716496  0.83312762  1
  Cr  Cr39  1  0.49824069  0.49780461  0.49665141  1
  Fe  Fe40  1  0.33409103  0.33234325  0.66583337  1
  Ni  Ni41  1  0.49996954  0.49715724  0.83181062  1
  Cr  Cr42  1  0.50229974  0.83016626  0.49711952  1
  Cr  Cr43  1  0.33371783  0.66718179  0.66636995  1
  Fe  Fe44  1  0.49699162  0.83157291  0.83241690  1
  Ni  Ni45  1  0.83132917  0.16275552  0.49723318  1
  Cr  Cr46  1  0.66288502  0.99728939  0.66513462  1
  Cr  Cr47  1  0.83037909  0.16474609  0.83413435  1
  Fe  Fe48  1  0.83102343  0.50001879  0.49753181  1
  Fe  Fe49  1  0.66449101  0.33431489  0.66628602  1
  Ni  Ni50  1  0.82722248  0.49945970  0.83078833  1
  Ni  Ni51  1  0.83209613  0.83244063  0.49695486  1
  Ni  Ni52  1  0.66611908  0.66341065  0.66545237  1
  Cr  Cr53  1  0.83304973  0.83112333  0.83247743  1
" 