6631,Ni38Cr62_6,-224.221934160224, 134.117848371777,Ni38Cr62,"# generated using pymatgen
 data_Cr10Ni17
_symmetry_space_group_name_H-M   'P 1'
_cell_length_a   7.50084675
_cell_length_b   7.50084675
_cell_length_c   10.60779921
_cell_angle_alpha   90.00000000
_cell_angle_beta   90.00000000
_cell_angle_gamma   90.00000000
_symmetry_Int_Tables_number   1
_chemical_formula_structural   Cr10Ni17
_chemical_formula_sum   'Cr20 Ni34'
_cell_volume   596.82344626
_cell_formula_units_Z   2
loop_
 _symmetry_equiv_pos_site_id
 _symmetry_equiv_pos_as_xyz
  1  'x, y, z'
loop_
 _atom_site_type_symbol
 _atom_site_label
 _atom_site_symmetry_multiplicity
 _atom_site_fract_x
 _atom_site_fract_y
 _atom_site_fract_z
 _atom_site_occupancy
  Ni  Ni0  1  -0.00133122  0.99645622  0.99709278  1
  Ni  Ni1  1  0.16690062  0.16187378  0.16549714  1
  Ni  Ni2  1  0.00073212  0.99478652  0.32951648  1
  Cr  Cr3  1  0.99709031  0.32989846  -0.00203072  1
  Ni  Ni4  1  0.16276546  0.49756855  0.16685150  1
  Cr  Cr5  1  0.00014754  0.33305743  0.33056897  1
  Cr  Cr6  1  0.99611475  0.66642131  -0.00116580  1
  Ni  Ni7  1  0.16172167  0.83378434  0.16479937  1
  Ni  Ni8  1  0.99535891  0.66518016  0.33014851  1
  Ni  Ni9  1  0.32946632  -0.00066164  -0.00177746  1
  Ni  Ni10  1  0.49377203  0.16289908  0.16460329  1
  Ni  Ni11  1  0.32940760  0.00126434  0.33074965  1
  Cr  Cr12  1  0.33149279  0.32859434  -0.00179008  1
  Cr  Cr13  1  0.49860366  0.49744291  0.16425094  1
  Ni  Ni14  1  0.32905492  0.32741308  0.33104533  1
  Cr  Cr15  1  0.33044722  0.66590861  0.99694580  1
  Cr  Cr16  1  0.49868531  0.83279215  0.16358257  1
  Cr  Cr17  1  0.32933753  0.66469749  0.33107431  1
  Ni  Ni18  1  0.66505388  0.99694673  0.99673870  1
  Cr  Cr19  1  0.83219676  0.16173100  0.16302803  1
  Cr  Cr20  1  0.66332371  0.99585352  0.33319279  1
  Cr  Cr21  1  0.66473530  0.33111283  0.99675176  1
  Ni  Ni22  1  0.83203634  0.50232958  0.16550605  1
  Cr  Cr23  1  0.66312505  0.33212142  0.33007187  1
  Ni  Ni24  1  0.66708881  0.66556214  0.99720632  1
  Ni  Ni25  1  0.83309710  0.82912485  0.16462938  1
  Ni  Ni26  1  0.66902682  0.66547155  0.33173622  1
  Ni  Ni27  1  0.16727267  0.16716650  0.49640194  1
  Cr  Cr28  1  0.99628909  0.99739149  0.66642758  1
  Ni  Ni29  1  0.16420397  0.16280130  0.83132674  1
  Ni  Ni30  1  0.16202637  0.49498376  0.49839617  1
  Ni  Ni31  1  0.99745907  0.33325333  0.66436861  1
  Cr  Cr32  1  0.16413211  0.49702662  0.82766295  1
  Cr  Cr33  1  0.16272526  0.83113261  0.49626394  1
  Ni  Ni34  1  0.99397686  0.66202851  0.66403948  1
  Ni  Ni35  1  0.16173899  0.83391021  0.83276613  1
  Ni  Ni36  1  0.49493078  0.16357007  0.49829543  1
  Cr  Cr37  1  0.33285045  0.00001147  0.66393143  1
  Ni  Ni38  1  0.49870913  0.16529654  0.83036765  1
  Cr  Cr39  1  0.49823473  0.49733294  0.49889364  1
  Ni  Ni40  1  0.33125964  0.32956362  0.66403224  1
  Ni  Ni41  1  0.50134737  0.49598453  0.82966994  1
  Ni  Ni42  1  0.50143677  0.83272051  0.49754712  1
  Cr  Cr43  1  0.33060274  0.66379844  0.66519341  1
  Cr  Cr44  1  0.49967099  0.83100643  0.83217659  1
  Cr  Cr45  1  0.83176538  0.16427596  0.49982856  1
  Ni  Ni46  1  0.66437545  -0.00195982  0.66427157  1
  Ni  Ni47  1  0.83032435  0.16350899  0.83041741  1
  Ni  Ni48  1  0.83268959  0.50147160  0.49927864  1
  Ni  Ni49  1  0.66450555  0.33132012  0.66660937  1
  Ni  Ni50  1  0.82830953  0.49841816  0.82844407  1
  Ni  Ni51  1  0.82908508  0.82749995  0.49734252  1
  Ni  Ni52  1  0.66808970  0.66388269  0.66427276  1
  Ni  Ni53  1  0.83087390  0.83130952  0.83128724  1
" 