6695,Ni38Fe61Cr0_12,-237.607453102734, 214.611583778867,Ni38Fe61Cr0,"# generated using pymatgen
 data_CrFe33Ni20
_symmetry_space_group_name_H-M   'P 1'
_cell_length_a   7.40197183
_cell_length_b   7.40197183
_cell_length_c   10.46796895
_cell_angle_alpha   90.00000000
_cell_angle_beta   90.00000000
_cell_angle_gamma   90.00000000
_symmetry_Int_Tables_number   1
_chemical_formula_structural   CrFe33Ni20
_chemical_formula_sum   'Cr1 Fe33 Ni20'
_cell_volume   573.53150729
_cell_formula_units_Z   1
loop_
 _symmetry_equiv_pos_site_id
 _symmetry_equiv_pos_as_xyz
  1  'x, y, z'
loop_
 _atom_site_type_symbol
 _atom_site_label
 _atom_site_symmetry_multiplicity
 _atom_site_fract_x
 _atom_site_fract_y
 _atom_site_fract_z
 _atom_site_occupancy
  Ni  Ni0  1  1.00355353  1.00412612  1.00437427  1
  Fe  Fe1  1  0.17099415  0.17211862  0.17064593  1
  Fe  Fe2  1  1.00322220  0.00453474  0.33804098  1
  Ni  Ni3  1  0.00609108  0.33788123  1.00366343  1
  Ni  Ni4  1  0.16984394  0.50475291  0.17165388  1
  Ni  Ni5  1  0.00499393  0.33845980  0.33813415  1
  Fe  Fe6  1  0.00488569  0.67098438  1.00393291  1
  Fe  Fe7  1  0.17131938  0.83791680  0.17092892  1
  Fe  Fe8  1  1.00325446  0.67036336  0.33847502  1
  Fe  Fe9  1  0.33778621  0.00521911  1.00348614  1
  Ni  Ni10  1  0.50536580  0.17085835  0.17117219  1
  Fe  Fe11  1  0.33879046  0.00472139  0.33837218  1
  Ni  Ni12  1  0.33700842  0.33866988  0.00498895  1
  Fe  Fe13  1  0.50396723  0.50391223  0.17134310  1
  Fe  Fe14  1  0.33873365  0.33772995  0.33709053  1
  Fe  Fe15  1  0.33690472  0.67131659  1.00433996  1
  Fe  Fe16  1  0.50469916  0.83774723  0.17094964  1
  Fe  Fe17  1  0.33818907  0.67073913  0.33758117  1
  Ni  Ni18  1  0.67122416  1.00333564  0.00450452  1
  Fe  Fe19  1  0.83792276  0.17138549  0.17106331  1
  Ni  Ni20  1  0.67070340  1.00353473  0.33787239  1
  Fe  Fe21  1  0.67118451  0.33631810  1.00421971  1
  Fe  Fe22  1  0.83775417  0.50358270  0.17209055  1
  Ni  Ni23  1  0.67116306  0.33784995  0.33689514  1
  Fe  Fe24  1  0.67139315  0.67132072  0.00462240  1
  Fe  Fe25  1  0.83716652  0.83821607  0.17099295  1
  Ni  Ni26  1  0.67070768  0.67180028  0.33820389  1
  Fe  Fe27  1  0.17052743  0.17100816  0.50484467  1
  Ni  Ni28  1  0.00647610  1.00254943  0.67095024  1
  Fe  Fe29  1  0.17194811  0.17015143  0.83769804  1
  Fe  Fe30  1  0.17043451  0.50460858  0.50399455  1
  Fe  Fe31  1  1.00430202  0.33741606  0.67071069  1
  Fe  Fe32  1  0.17213865  0.50439680  0.83847989  1
  Ni  Ni33  1  0.17100765  0.83805274  0.50442328  1
  Ni  Ni34  1  0.00502392  0.67171129  0.67105047  1
  Ni  Ni35  1  0.17119976  0.83784070  0.83788160  1
  Fe  Fe36  1  0.50370121  0.17217736  0.50377001  1
  Ni  Ni37  1  0.33591047  0.00448056  0.67192048  1
  Ni  Ni38  1  0.50417480  0.17140780  0.83836489  1
  Fe  Fe39  1  0.50487052  0.50451600  0.50442334  1
  Ni  Ni40  1  0.33814665  0.33811786  0.67061360  1
  Fe  Fe41  1  0.50374913  0.50430863  0.83742020  1
  Fe  Fe42  1  0.50381540  0.83649729  0.50353378  1
  Fe  Fe43  1  0.33715687  0.67203722  0.67126934  1
  Ni  Ni44  1  0.50270878  0.83844042  0.83837769  1
  Fe  Fe45  1  0.83895735  0.17205783  0.50320772  1
  Cr  Cr46  1  0.67099159  1.00404214  0.67070054  1
  Fe  Fe47  1  0.83835249  0.17060935  0.83891338  1
  Ni  Ni48  1  0.83739126  0.50377633  0.50417859  1
  Ni  Ni49  1  0.66968413  0.33956309  0.67134362  1
  Fe  Fe50  1  0.83729908  0.50479874  0.83687510  1
  Fe  Fe51  1  0.83905328  0.83640125  0.50341791  1
  Fe  Fe52  1  0.67109124  0.66923742  0.67059583  1
  Fe  Fe53  1  0.83844052  0.83777543  0.83877778  1
" 