7902,Ni38Fe24Cr37_17,-224.945016611797, 181.413137418444,Ni38Fe24Cr37,"# generated using pymatgen
 data_Cr11(Fe3Ni5)2
_symmetry_space_group_name_H-M   'P 1'
_cell_length_a   7.48356893
_cell_length_b   7.48356893
_cell_length_c   10.58336467
_cell_angle_alpha   90.00000000
_cell_angle_beta   90.00000000
_cell_angle_gamma   90.00000000
_symmetry_Int_Tables_number   1
_chemical_formula_structural   Cr11(Fe3Ni5)2
_chemical_formula_sum   'Cr22 Fe12 Ni20'
_cell_volume   592.70868003
_cell_formula_units_Z   2
loop_
 _symmetry_equiv_pos_site_id
 _symmetry_equiv_pos_as_xyz
  1  'x, y, z'
loop_
 _atom_site_type_symbol
 _atom_site_label
 _atom_site_symmetry_multiplicity
 _atom_site_fract_x
 _atom_site_fract_y
 _atom_site_fract_z
 _atom_site_occupancy
  Fe  Fe0  1  -0.00081009  0.00194429  0.99856573  1
  Ni  Ni1  1  0.16491229  0.16403833  0.16447412  1
  Fe  Fe2  1  0.99814872  -0.00031298  0.33152728  1
  Ni  Ni3  1  0.99786810  0.33171674  0.99786197  1
  Cr  Cr4  1  0.16376496  0.49718066  0.16719185  1
  Cr  Cr5  1  0.99816235  0.33029311  0.33161012  1
  Ni  Ni6  1  -0.00065297  0.66473935  0.00051804  1
  Fe  Fe7  1  0.16421078  0.83596427  0.16385078  1
  Fe  Fe8  1  0.99624491  0.66702099  0.33088563  1
  Ni  Ni9  1  0.33072919  0.00022149  0.99731800  1
  Ni  Ni10  1  0.49867591  0.16691262  0.16378468  1
  Cr  Cr11  1  0.33282914  0.00094821  0.33278471  1
  Cr  Cr12  1  0.33286949  0.33093065  0.00029168  1
  Ni  Ni13  1  0.50231328  0.49563816  0.16417637  1
  Fe  Fe14  1  0.33595372  0.32923445  0.33046542  1
  Cr  Cr15  1  0.33093211  0.66491054  0.99883499  1
  Cr  Cr16  1  0.49903650  0.83426030  0.16140879  1
  Cr  Cr17  1  0.33248424  0.66512593  0.32939441  1
  Ni  Ni18  1  0.66497086  0.00317192  -0.00060160  1
  Ni  Ni19  1  0.83334121  0.16748357  0.16225557  1
  Cr  Cr20  1  0.66581767  0.00197607  0.33412408  1
  Ni  Ni21  1  0.66817759  0.33014697  0.00101346  1
  Ni  Ni22  1  0.83157251  0.49728627  0.16286830  1
  Ni  Ni23  1  0.66542119  0.33055218  0.32838338  1
  Ni  Ni24  1  0.66674297  0.66335334  -0.00074087  1
  Cr  Cr25  1  0.83321082  0.83364483  0.16243830  1
  Cr  Cr26  1  0.66572349  0.66497729  0.33269436  1
  Ni  Ni27  1  0.16770185  0.16538095  0.49971934  1
  Cr  Cr28  1  0.99830857  0.00120562  0.66533157  1
  Fe  Fe29  1  0.16384528  0.16508595  0.83382572  1
  Cr  Cr30  1  0.16573813  0.49547094  0.49816051  1
  Ni  Ni31  1  -0.00065901  0.33057625  0.66785953  1
  Fe  Fe32  1  0.16420236  0.49858831  0.83280696  1
  Cr  Cr33  1  0.16608119  0.83320272  0.49747916  1
  Cr  Cr34  1  0.00025945  0.66516387  0.66499040  1
  Fe  Fe35  1  0.16415530  0.83337448  0.83340930  1
  Ni  Ni36  1  0.49667355  0.16564850  0.49954943  1
  Fe  Fe37  1  0.33150079  0.00036631  0.66595010  1
  Fe  Fe38  1  0.50286520  0.16630461  0.83400897  1
  Cr  Cr39  1  0.49908581  0.49702516  0.49941917  1
  Cr  Cr40  1  0.33125975  0.33173896  0.66744892  1
  Fe  Fe41  1  0.50148947  0.49725166  0.83294996  1
  Ni  Ni42  1  0.49808773  0.83237464  0.50328247  1
  Ni  Ni43  1  0.33275286  0.66628135  0.66772077  1
  Cr  Cr44  1  0.49763898  0.83328295  0.83206768  1
  Cr  Cr45  1  0.83320794  0.16792822  0.49939297  1
  Cr  Cr46  1  0.66522136  0.00014030  0.66255183  1
  Ni  Ni47  1  0.83329065  0.16766807  0.83434568  1
  Cr  Cr48  1  0.83179396  0.49802343  0.50056603  1
  Ni  Ni49  1  0.66525613  0.32958690  0.66699408  1
  Cr  Cr50  1  0.83200759  0.49587892  0.83294785  1
  Ni  Ni51  1  0.83107203  0.83155076  0.49870644  1
  Fe  Fe52  1  0.66444980  0.66392282  0.66598502  1
  Cr  Cr53  1  0.83045497  0.83401046  0.83554323  1
" 