7611,Ni38Cr62_4,-224.363411680517, 133.495312496391,Ni38Cr62,"# generated using pymatgen
 data_Cr10Ni17
_symmetry_space_group_name_H-M   'P 1'
_cell_length_a   7.49846783
_cell_length_b   7.49846783
_cell_length_c   10.60443491
_cell_angle_alpha   90.00000000
_cell_angle_beta   90.00000000
_cell_angle_gamma   90.00000000
_symmetry_Int_Tables_number   1
_chemical_formula_structural   Cr10Ni17
_chemical_formula_sum   'Cr20 Ni34'
_cell_volume   596.25577231
_cell_formula_units_Z   2
loop_
 _symmetry_equiv_pos_site_id
 _symmetry_equiv_pos_as_xyz
  1  'x, y, z'
loop_
 _atom_site_type_symbol
 _atom_site_label
 _atom_site_symmetry_multiplicity
 _atom_site_fract_x
 _atom_site_fract_y
 _atom_site_fract_z
 _atom_site_occupancy
  Cr  Cr0  1  0.99559244  -0.00121866  -0.00208844  1
  Cr  Cr1  1  0.16714183  0.16527443  0.16755449  1
  Cr  Cr2  1  0.99677276  -0.00088245  0.33061555  1
  Cr  Cr3  1  0.99447169  0.33123092  0.99688185  1
  Cr  Cr4  1  0.16320605  0.49905301  0.16490043  1
  Ni  Ni5  1  0.99480392  0.33340396  0.33236967  1
  Ni  Ni6  1  0.00056202  0.66357089  -0.00047839  1
  Ni  Ni7  1  0.16648956  0.82902736  0.16454781  1
  Ni  Ni8  1  -0.00183922  0.66044568  0.33091632  1
  Cr  Cr9  1  0.33383070  0.99478277  0.00009121  1
  Ni  Ni10  1  0.50188226  0.16477835  0.16680859  1
  Ni  Ni11  1  0.33496962  -0.00034476  0.32889749  1
  Cr  Cr12  1  0.33471331  0.33499854  0.99681709  1
  Ni  Ni13  1  0.49969408  0.49560657  0.16405372  1
  Ni  Ni14  1  0.33431323  0.33072350  0.33250294  1
  Ni  Ni15  1  0.33171122  0.66459021  0.99750915  1
  Ni  Ni16  1  0.49662929  0.83332306  0.16399555  1
  Cr  Cr17  1  0.33199032  0.66385555  0.33051873  1
  Ni  Ni18  1  0.66375239  0.00035815  -0.00120298  1
  Ni  Ni19  1  0.82605724  0.16723169  0.16478530  1
  Ni  Ni20  1  0.66194548  0.00263921  0.32993622  1
  Ni  Ni21  1  0.66468427  0.32963717  0.00016174  1
  Ni  Ni22  1  0.83017448  0.49508909  0.16574004  1
  Ni  Ni23  1  0.66470196  0.32956608  0.33074305  1
  Cr  Cr24  1  0.66051823  0.66306542  -0.00151445  1
  Cr  Cr25  1  0.83095130  0.82946801  0.16478887  1
  Cr  Cr26  1  0.66452640  0.66114221  0.33193670  1
  Cr  Cr27  1  0.16755059  0.16736910  0.49864557  1
  Ni  Ni28  1  0.99581560  0.00027253  0.66495213  1
  Cr  Cr29  1  0.16406898  0.16747698  0.82701737  1
  Ni  Ni30  1  0.16355462  0.49651239  0.49909653  1
  Ni  Ni31  1  0.99675954  0.33194845  0.66386971  1
  Ni  Ni32  1  0.16622482  0.50012269  0.82931445  1
  Cr  Cr33  1  0.16446288  0.82967656  0.49864006  1
  Ni  Ni34  1  -0.00100940  0.66149688  0.66332446  1
  Cr  Cr35  1  0.16527663  0.82836509  0.83008803  1
  Ni  Ni36  1  0.49977808  0.16684246  0.49718262  1
  Ni  Ni37  1  0.33311021  0.99767355  0.66432528  1
  Cr  Cr38  1  0.50101234  0.16537743  0.82975873  1
  Ni  Ni39  1  0.49820135  0.49367144  0.50019193  1
  Ni  Ni40  1  0.33214870  0.33452692  0.66347369  1
  Ni  Ni41  1  0.49630572  0.49940150  0.82964047  1
  Cr  Cr42  1  0.49869981  0.83405332  0.50020687  1
  Ni  Ni43  1  0.33247663  0.66168454  0.66634912  1
  Ni  Ni44  1  0.49787366  0.82976166  0.82967467  1
  Ni  Ni45  1  0.82836384  0.16761650  0.49923527  1
  Ni  Ni46  1  0.66463559  -0.00002762  0.66492267  1
  Ni  Ni47  1  0.82854986  0.16486117  0.82963337  1
  Ni  Ni48  1  0.83207755  0.49511099  0.49813607  1
  Ni  Ni49  1  0.66470726  0.33137908  0.66305377  1
  Cr  Cr50  1  0.83064529  0.49675422  0.83068103  1
  Cr  Cr51  1  0.83043227  0.83005065  0.50045693  1
  Ni  Ni52  1  0.66221745  0.66238578  0.66447568  1
  Cr  Cr53  1  0.82867736  0.83208384  0.82872939  1
" 