7415,Ni38Fe50Cr11_1,-234.618165613836, 206.703784621283,Ni38Fe50Cr11,"# generated using pymatgen
 data_Cr7Fe27Ni20
_symmetry_space_group_name_H-M   'P 1'
_cell_length_a   7.42105641
_cell_length_b   7.42105641
_cell_length_c   10.49495863
_cell_angle_alpha   90.00000000
_cell_angle_beta   90.00000000
_cell_angle_gamma   90.00000000
_symmetry_Int_Tables_number   1
_chemical_formula_structural   Cr7Fe27Ni20
_chemical_formula_sum   'Cr7 Fe27 Ni20'
_cell_volume   577.97918291
_cell_formula_units_Z   1
loop_
 _symmetry_equiv_pos_site_id
 _symmetry_equiv_pos_as_xyz
  1  'x, y, z'
loop_
 _atom_site_type_symbol
 _atom_site_label
 _atom_site_symmetry_multiplicity
 _atom_site_fract_x
 _atom_site_fract_y
 _atom_site_fract_z
 _atom_site_occupancy
  Ni  Ni0  1  0.99921544  1.00279481  1.00117080  1
  Cr  Cr1  1  0.17209106  0.17042582  0.17029022  1
  Cr  Cr2  1  0.99858182  0.00383009  0.33800947  1
  Fe  Fe3  1  1.00014240  0.33686550  0.00413342  1
  Ni  Ni4  1  0.16814838  0.50248358  0.17140952  1
  Fe  Fe5  1  1.00270681  0.33815671  0.33784693  1
  Fe  Fe6  1  0.99898155  0.67066177  1.00272263  1
  Cr  Cr7  1  0.16880741  0.83629424  0.16859735  1
  Fe  Fe8  1  1.00170158  0.66692604  0.33707286  1
  Fe  Fe9  1  0.34020428  1.00290232  1.00246650  1
  Ni  Ni10  1  0.50552270  0.16999001  0.16981298  1
  Ni  Ni11  1  0.33882901  0.00331603  0.33642297  1
  Fe  Fe12  1  0.33973201  0.33520642  0.00433125  1
  Ni  Ni13  1  0.50506165  0.50113916  0.17104623  1
  Ni  Ni14  1  0.33818903  0.33911276  0.33691037  1
  Cr  Cr15  1  0.33736052  0.66739098  1.00306147  1
  Fe  Fe16  1  0.50485101  0.83656641  0.17101980  1
  Ni  Ni17  1  0.33649540  0.66710683  0.33626964  1
  Ni  Ni18  1  0.67196939  0.00411646  0.00364856  1
  Fe  Fe19  1  0.83447298  0.17137102  0.16867732  1
  Ni  Ni20  1  0.66986940  0.00444315  0.33551076  1
  Fe  Fe21  1  0.66953192  0.33637366  0.00326394  1
  Fe  Fe22  1  0.83565389  0.50213462  0.17101237  1
  Ni  Ni23  1  0.66957590  0.33520930  0.33649640  1
  Fe  Fe24  1  0.67126172  0.67112956  1.00280703  1
  Fe  Fe25  1  0.83321433  0.83577247  0.16812200  1
  Fe  Fe26  1  0.66826707  0.66956996  0.33692249  1
  Fe  Fe27  1  0.17242290  0.17248302  0.50344502  1
  Fe  Fe28  1  1.00192562  0.00351927  0.67055009  1
  Cr  Cr29  1  0.17152893  0.16900336  0.83622413  1
  Fe  Fe30  1  0.17142326  0.50200326  0.50305542  1
  Fe  Fe31  1  1.00140096  0.33634113  0.66756329  1
  Cr  Cr32  1  0.16758161  0.50241693  0.83596858  1
  Cr  Cr33  1  0.17191512  0.83602468  0.50498623  1
  Fe  Fe34  1  1.00026026  0.66917855  0.66951322  1
  Ni  Ni35  1  0.16900289  0.83712463  0.83566148  1
  Ni  Ni36  1  0.50377369  0.17012374  0.50273901  1
  Fe  Fe37  1  0.34163621  0.00363747  0.66924955  1
  Fe  Fe38  1  0.50568090  0.16843636  0.83571312  1
  Fe  Fe39  1  0.50449724  0.50316150  0.50293584  1
  Ni  Ni40  1  0.33842389  0.33931423  0.66869195  1
  Fe  Fe41  1  0.50505298  0.50381624  0.83567181  1
  Ni  Ni42  1  0.50455230  0.83774629  0.50172054  1
  Ni  Ni43  1  0.33664233  0.66938333  0.67026809  1
  Ni  Ni44  1  0.50506852  0.83807424  0.83576846  1
  Fe  Fe45  1  0.83267840  0.17091065  0.50426097  1
  Ni  Ni46  1  0.67235030  0.00367004  0.66933844  1
  Fe  Fe47  1  0.83478070  0.16797300  0.83646840  1
  Ni  Ni48  1  0.83553082  0.50206305  0.50310559  1
  Ni  Ni49  1  0.66949202  0.33523270  0.67119020  1
  Fe  Fe50  1  0.83401649  0.50406848  0.83520214  1
  Fe  Fe51  1  0.83242196  0.83544696  0.50471214  1
  Fe  Fe52  1  0.66766535  0.66942857  0.66931287  1
  Ni  Ni53  1  0.83516527  0.83545824  0.83495772  1
" 