4265,Ni38Fe62_16,-242.881422328939, 224.050704917389,Ni38Fe62,"# generated using pymatgen
 data_Fe10Ni17
_symmetry_space_group_name_H-M   'P 1'
_cell_length_a   7.40683465
_cell_length_b   7.40683465
_cell_length_c   10.47484602
_cell_angle_alpha   90.00000000
_cell_angle_beta   90.00000000
_cell_angle_gamma   90.00000000
_symmetry_Int_Tables_number   1
_chemical_formula_structural   Fe10Ni17
_chemical_formula_sum   'Fe20 Ni34'
_cell_volume   574.66261821
_cell_formula_units_Z   2
loop_
 _symmetry_equiv_pos_site_id
 _symmetry_equiv_pos_as_xyz
  1  'x, y, z'
loop_
 _atom_site_type_symbol
 _atom_site_label
 _atom_site_symmetry_multiplicity
 _atom_site_fract_x
 _atom_site_fract_y
 _atom_site_fract_z
 _atom_site_occupancy
  Ni  Ni0  1  1.00345640  1.00343688  1.00381918  1
  Fe  Fe1  1  0.17102034  0.16907948  0.17125489  1
  Ni  Ni2  1  0.00464090  1.00377407  0.33729673  1
  Fe  Fe3  1  0.00467153  0.33709727  1.00305534  1
  Fe  Fe4  1  0.17162455  0.50462469  0.17057662  1
  Fe  Fe5  1  0.00475326  0.33735150  0.33872633  1
  Fe  Fe6  1  0.00430608  0.67138192  1.00405694  1
  Ni  Ni7  1  0.16964655  0.83728393  0.17050503  1
  Fe  Fe8  1  0.00500097  0.67109781  0.33693072  1
  Ni  Ni9  1  0.33616936  1.00312022  1.00358859  1
  Ni  Ni10  1  0.50415300  0.17138112  0.17168116  1
  Ni  Ni11  1  0.33495054  1.00340019  0.33761634  1
  Ni  Ni12  1  0.33817260  0.33884763  1.00406274  1
  Fe  Fe13  1  0.50397886  0.50431216  0.17120563  1
  Ni  Ni14  1  0.33787580  0.33824090  0.33749873  1
  Ni  Ni15  1  0.33724540  0.67022527  0.00443057  1
  Fe  Fe16  1  0.50357509  0.83780935  0.17080892  1
  Ni  Ni17  1  0.33786038  0.67055365  0.33731542  1
  Ni  Ni18  1  0.67256743  0.00436676  0.00476716  1
  Fe  Fe19  1  0.83727562  0.16948122  0.17109752  1
  Fe  Fe20  1  0.66967851  0.00406749  0.33724314  1
  Ni  Ni21  1  0.67055422  0.33759375  1.00322771  1
  Fe  Fe22  1  0.83659290  0.50430273  0.17052227  1
  Ni  Ni23  1  0.67057470  0.33875302  0.33813180  1
  Fe  Fe24  1  0.67027358  0.67157933  1.00341847  1
  Ni  Ni25  1  0.83840505  0.83764970  0.17132925  1
  Ni  Ni26  1  0.67020059  0.66965314  0.33706939  1
  Ni  Ni27  1  0.16958802  0.17110138  0.50330890  1
  Ni  Ni28  1  1.00320619  0.00446192  0.67107688  1
  Fe  Fe29  1  0.17106308  0.17129045  0.83695175  1
  Ni  Ni30  1  0.17141646  0.50377662  0.50336410  1
  Ni  Ni31  1  0.00410696  0.33614191  0.67071592  1
  Ni  Ni32  1  0.17052477  0.50346366  0.83763319  1
  Ni  Ni33  1  0.17102149  0.83731543  0.50426210  1
  Fe  Fe34  1  1.00370799  0.66980658  0.67120608  1
  Fe  Fe35  1  0.17142378  0.83654795  0.83794877  1
  Fe  Fe36  1  0.50301030  0.17129780  0.50382981  1
  Fe  Fe37  1  0.33824643  0.00434714  0.67040814  1
  Ni  Ni38  1  0.50414091  0.17079971  0.83646831  1
  Ni  Ni39  1  0.50353061  0.50431739  0.50418577  1
  Ni  Ni40  1  0.33715251  0.33943335  0.67063205  1
  Ni  Ni41  1  0.50373983  0.50309672  0.83800315  1
  Ni  Ni42  1  0.50389896  0.83674856  0.50298165  1
  Ni  Ni43  1  0.33807235  0.66958768  0.67045157  1
  Ni  Ni44  1  0.50502552  0.83830135  0.83884805  1
  Ni  Ni45  1  0.83781103  0.17073338  0.50369404  1
  Ni  Ni46  1  0.67293362  1.00354875  0.67014243  1
  Fe  Fe47  1  0.83622115  0.17101206  0.83655463  1
  Fe  Fe48  1  0.83711664  0.50371201  0.50460084  1
  Ni  Ni49  1  0.67093121  0.33815428  0.67083544  1
  Ni  Ni50  1  0.83792979  0.50434737  0.83729956  1
  Fe  Fe51  1  0.83776259  0.83775058  0.50422396  1
  Ni  Ni52  1  0.66964127  0.67049205  0.67144785  1
  Ni  Ni53  1  0.83704554  0.83744192  0.83718165  1
" 