2286,Ni38Fe50Cr11_11,-234.874779525356, 208.805958670554,Ni38Fe50Cr11,"# generated using pymatgen
 data_Cr7Fe27Ni20
_symmetry_space_group_name_H-M   'P 1'
_cell_length_a   7.42701183
_cell_length_b   7.42701183
_cell_length_c   10.50338086
_cell_angle_alpha   90.00000000
_cell_angle_beta   90.00000000
_cell_angle_gamma   90.00000000
_symmetry_Int_Tables_number   1
_chemical_formula_structural   Cr7Fe27Ni20
_chemical_formula_sum   'Cr7 Fe27 Ni20'
_cell_volume   579.37179002
_cell_formula_units_Z   1
loop_
 _symmetry_equiv_pos_site_id
 _symmetry_equiv_pos_as_xyz
  1  'x, y, z'
loop_
 _atom_site_type_symbol
 _atom_site_label
 _atom_site_symmetry_multiplicity
 _atom_site_fract_x
 _atom_site_fract_y
 _atom_site_fract_z
 _atom_site_occupancy
  Ni  Ni0  1  0.00361851  0.00484506  1.00186899  1
  Fe  Fe1  1  0.16918827  0.16792528  0.16949136  1
  Ni  Ni2  1  0.00357220  0.00332923  0.33607584  1
  Ni  Ni3  1  1.00167549  0.33290104  0.00472710  1
  Ni  Ni4  1  0.16848748  0.50148675  0.17185989  1
  Fe  Fe5  1  1.00189304  0.33427887  0.33611778  1
  Cr  Cr6  1  0.00343162  0.67210687  1.00258967  1
  Ni  Ni7  1  0.16976327  0.83725308  0.17070098  1
  Fe  Fe8  1  0.00360687  0.67091517  0.33595723  1
  Ni  Ni9  1  0.33525447  0.00408777  0.00279591  1
  Fe  Fe10  1  0.50103087  0.16855527  0.17069159  1
  Ni  Ni11  1  0.33471931  1.00185167  0.33622314  1
  Fe  Fe12  1  0.33387635  0.33328027  0.00413899  1
  Fe  Fe13  1  0.50134440  0.50049367  0.17067411  1
  Fe  Fe14  1  0.33636421  0.33508428  0.33620853  1
  Cr  Cr15  1  0.33647632  0.66953984  0.00423856  1
  Fe  Fe16  1  0.50126593  0.83909834  0.17042820  1
  Fe  Fe17  1  0.33471834  0.67017510  0.33666836  1
  Fe  Fe18  1  0.67096887  0.00399552  0.00421944  1
  Fe  Fe19  1  0.83764036  0.16866278  0.17030740  1
  Ni  Ni20  1  0.66998593  0.00389800  0.33534733  1
  Fe  Fe21  1  0.66879928  0.33361359  0.00447290  1
  Fe  Fe22  1  0.83760910  0.50095350  0.16919231  1
  Ni  Ni23  1  0.67004424  0.33627843  0.33609270  1
  Fe  Fe24  1  0.67008512  0.67026696  0.00513051  1
  Fe  Fe25  1  0.83813995  0.83863932  0.17020970  1
  Cr  Cr26  1  0.66883770  0.66849627  0.33640090  1
  Ni  Ni27  1  0.16676828  0.16907277  0.50162565  1
  Ni  Ni28  1  1.00251644  0.00453234  0.67051477  1
  Ni  Ni29  1  0.16782727  0.16834378  0.83734020  1
  Fe  Fe30  1  0.16984254  0.50181581  0.50290617  1
  Ni  Ni31  1  1.00178002  0.33306494  0.66750591  1
  Cr  Cr32  1  0.16857146  0.50146215  0.83454438  1
  Fe  Fe33  1  0.16982098  0.83803411  0.50291967  1
  Ni  Ni34  1  0.00400222  0.67121007  0.66732805  1
  Ni  Ni35  1  0.17015942  0.83858680  0.83431619  1
  Cr  Cr36  1  0.50332433  0.16723432  0.50283599  1
  Fe  Fe37  1  0.33166861  0.00270579  0.66851970  1
  Fe  Fe38  1  0.50174659  0.17076525  0.83604076  1
  Ni  Ni39  1  0.50220356  0.50367897  0.50369011  1
  Fe  Fe40  1  0.33312541  0.33507792  0.66823908  1
  Fe  Fe41  1  0.50226682  0.49960164  0.83382232  1
  Ni  Ni42  1  0.50199417  0.83553878  0.50150192  1
  Ni  Ni43  1  0.33733106  0.66950576  0.66702212  1
  Cr  Cr44  1  0.50300036  0.83612826  0.83508791  1
  Ni  Ni45  1  0.83757049  0.16931595  0.50133308  1
  Fe  Fe46  1  0.67274210  1.00218609  0.66803114  1
  Ni  Ni47  1  0.83572019  0.16946036  0.83631412  1
  Fe  Fe48  1  0.83625882  0.50080143  0.50381218  1
  Fe  Fe49  1  0.67086535  0.33570014  0.66783840  1
  Cr  Cr50  1  0.83579693  0.50151502  0.83559669  1
  Fe  Fe51  1  0.83639672  0.83923667  0.50283585  1
  Fe  Fe52  1  0.67106623  0.66989316  0.66658425  1
  Fe  Fe53  1  0.83878135  0.83906501  0.83460917  1
" 