6090,Ni38Fe39Cr22_13,-230.81709632127, 199.899087858739,Ni38Fe39Cr22,"# generated using pymatgen
 data_Cr13Fe21Ni20
_symmetry_space_group_name_H-M   'P 1'
_cell_length_a   7.44341050
_cell_length_b   7.44341050
_cell_length_c   10.52657207
_cell_angle_alpha   90.00000000
_cell_angle_beta   90.00000000
_cell_angle_gamma   90.00000000
_symmetry_Int_Tables_number   1
_chemical_formula_structural   Cr13Fe21Ni20
_chemical_formula_sum   'Cr13 Fe21 Ni20'
_cell_volume   583.21798677
_cell_formula_units_Z   1
loop_
 _symmetry_equiv_pos_site_id
 _symmetry_equiv_pos_as_xyz
  1  'x, y, z'
loop_
 _atom_site_type_symbol
 _atom_site_label
 _atom_site_symmetry_multiplicity
 _atom_site_fract_x
 _atom_site_fract_y
 _atom_site_fract_z
 _atom_site_occupancy
  Fe  Fe0  1  0.99797599  0.99990361  0.00307253  1
  Cr  Cr1  1  0.16965539  0.16200603  0.17252208  1
  Ni  Ni2  1  1.00021167  0.99911808  0.33379711  1
  Cr  Cr3  1  1.00006609  0.33437036  0.00220076  1
  Cr  Cr4  1  0.16876271  0.50083523  0.17010260  1
  Fe  Fe5  1  0.99937172  0.33401459  0.33552375  1
  Ni  Ni6  1  0.99974581  0.66845674  0.00166740  1
  Fe  Fe7  1  0.16692645  0.83115854  0.16905678  1
  Fe  Fe8  1  0.99841366  0.67133828  0.33320054  1
  Ni  Ni9  1  0.33694575  0.99710155  0.00538273  1
  Fe  Fe10  1  0.50419546  0.16539558  0.17058732  1
  Fe  Fe11  1  0.33860943  0.99796799  0.33671860  1
  Cr  Cr12  1  0.33604808  0.33308769  0.00231604  1
  Ni  Ni13  1  0.50309448  0.50435712  0.16977980  1
  Fe  Fe14  1  0.33894533  0.33428978  0.33649612  1
  Fe  Fe15  1  0.33713776  0.66957562  0.00448137  1
  Fe  Fe16  1  0.50345346  0.83458567  0.16994624  1
  Ni  Ni17  1  0.33511231  0.66919763  0.33402733  1
  Ni  Ni18  1  0.66712735  0.99974922  0.00255748  1
  Fe  Fe19  1  0.83477950  0.16671576  0.17023186  1
  Ni  Ni20  1  0.67047943  0.00239800  0.33566211  1
  Cr  Cr21  1  0.67073715  0.33394822  0.00501317  1
  Ni  Ni22  1  0.83309313  0.50761439  0.16937603  1
  Cr  Cr23  1  0.66990270  0.33640327  0.33418340  1
  Ni  Ni24  1  0.66937834  0.67126057  0.00458070  1
  Ni  Ni25  1  0.83424333  0.83687338  0.16732730  1
  Fe  Fe26  1  0.66746527  0.67255070  0.33452624  1
  Cr  Cr27  1  0.16716608  0.16598876  0.50126378  1
  Ni  Ni28  1  0.99808922  1.00029759  0.66759405  1
  Cr  Cr29  1  0.16774993  0.16542141  0.83098257  1
  Cr  Cr30  1  0.16807425  0.50399284  0.50058874  1
  Ni  Ni31  1  0.99722400  0.33389849  0.66771179  1
  Fe  Fe32  1  0.16605539  0.49963131  0.83317753  1
  Ni  Ni33  1  0.16464571  0.83529531  0.49849997  1
  Fe  Fe34  1  1.00035240  0.66925806  0.66862462  1
  Cr  Cr35  1  0.16616464  0.83451109  0.83854615  1
  Ni  Ni36  1  0.50387229  0.16944565  0.50256775  1
  Ni  Ni37  1  0.33393428  1.00063693  0.66362926  1
  Cr  Cr38  1  0.50323413  0.16799649  0.83085925  1
  Ni  Ni39  1  0.50350234  0.50363393  0.50021473  1
  Ni  Ni40  1  0.33450059  0.33645299  0.66504279  1
  Cr  Cr41  1  0.50493816  0.50588701  0.83547708  1
  Fe  Fe42  1  0.50121452  0.83670200  0.49955774  1
  Cr  Cr43  1  0.33649139  0.67188706  0.66873005  1
  Fe  Fe44  1  0.50391180  0.83841920  0.83540546  1
  Ni  Ni45  1  0.83437080  0.16568248  0.50162360  1
  Fe  Fe46  1  0.66848235  1.00122120  0.66574811  1
  Ni  Ni47  1  0.83410884  0.16510514  0.83439571  1
  Fe  Fe48  1  0.83467472  0.50156556  0.50140755  1
  Fe  Fe49  1  0.66935492  0.33564601  0.66498133  1
  Fe  Fe50  1  0.83622475  0.50285496  0.83425739  1
  Fe  Fe51  1  0.83443157  0.83571294  0.49979946  1
  Ni  Ni52  1  0.67060609  0.66973066  0.66489650  1
  Fe  Fe53  1  0.83048759  0.83459191  0.83582023  1
" 