8590,Ni38Fe62_12,-242.730554428277, 226.216427950639,Ni38Fe62,"# generated using pymatgen
 data_Fe10Ni17
_symmetry_space_group_name_H-M   'P 1'
_cell_length_a   7.40355119
_cell_length_b   7.40355119
_cell_length_c   10.47020250
_cell_angle_alpha   90.00000000
_cell_angle_beta   90.00000000
_cell_angle_gamma   90.00000000
_symmetry_Int_Tables_number   1
_chemical_formula_structural   Fe10Ni17
_chemical_formula_sum   'Fe20 Ni34'
_cell_volume   573.89870947
_cell_formula_units_Z   2
loop_
 _symmetry_equiv_pos_site_id
 _symmetry_equiv_pos_as_xyz
  1  'x, y, z'
loop_
 _atom_site_type_symbol
 _atom_site_label
 _atom_site_symmetry_multiplicity
 _atom_site_fract_x
 _atom_site_fract_y
 _atom_site_fract_z
 _atom_site_occupancy
  Fe  Fe0  1  0.00490455  0.00532994  0.00436210  1
  Ni  Ni1  1  0.17045237  0.17074572  0.17131554  1
  Ni  Ni2  1  0.00569059  0.00479107  0.33656993  1
  Ni  Ni3  1  1.00384026  0.33722788  1.00364787  1
  Fe  Fe4  1  0.17080681  0.50385451  0.17053258  1
  Ni  Ni5  1  1.00343291  0.33634963  0.33841586  1
  Fe  Fe6  1  0.00499484  0.67066698  1.00407369  1
  Ni  Ni7  1  0.17113673  0.83749568  0.17086917  1
  Fe  Fe8  1  1.00428388  0.67130612  0.33754766  1
  Ni  Ni9  1  0.33720230  1.00322723  1.00352666  1
  Ni  Ni10  1  0.50511985  0.17106809  0.17065911  1
  Ni  Ni11  1  0.33608979  1.00332045  0.33806840  1
  Ni  Ni12  1  0.33707725  0.33789598  0.00472658  1
  Fe  Fe13  1  0.50463901  0.50421481  0.17073888  1
  Fe  Fe14  1  0.33777020  0.33704518  0.33797857  1
  Ni  Ni15  1  0.33742115  0.67174290  0.00448733  1
  Ni  Ni16  1  0.50410782  0.83750329  0.17100275  1
  Fe  Fe17  1  0.33743701  0.67133095  0.33818372  1
  Ni  Ni18  1  0.67114777  0.00434850  0.00472944  1
  Ni  Ni19  1  0.83729538  0.17110463  0.17062764  1
  Fe  Fe20  1  0.67127808  0.00497568  0.33686444  1
  Ni  Ni21  1  0.67194428  0.33744486  1.00428151  1
  Fe  Fe22  1  0.83741649  0.50378764  0.17083684  1
  Ni  Ni23  1  0.67188685  0.33894063  0.33754381  1
  Fe  Fe24  1  0.67005603  0.67055129  0.00435953  1
  Ni  Ni25  1  0.83761950  0.83816047  0.17096652  1
  Ni  Ni26  1  0.67040994  0.67026453  0.33742688  1
  Fe  Fe27  1  0.17168193  0.17066508  0.50401058  1
  Ni  Ni28  1  0.00478806  1.00428408  0.67123659  1
  Ni  Ni29  1  0.17001965  0.17065715  0.83725924  1
  Ni  Ni30  1  0.17143971  0.50558731  0.50476232  1
  Fe  Fe31  1  1.00421378  0.33812896  0.67144861  1
  Ni  Ni32  1  0.17151323  0.50490985  0.83782276  1
  Ni  Ni33  1  0.17141973  0.83633477  0.50395962  1
  Fe  Fe34  1  0.00500086  0.67037461  0.67124347  1
  Ni  Ni35  1  0.17149611  0.83729945  0.83802956  1
  Ni  Ni36  1  0.50621683  0.17130955  0.50448453  1
  Fe  Fe37  1  0.33792107  1.00393133  0.67059798  1
  Fe  Fe38  1  0.50381490  0.17235946  0.83812362  1
  Ni  Ni39  1  0.50395792  0.50446545  0.50409925  1
  Ni  Ni40  1  0.33797624  0.33858843  0.67083478  1
  Ni  Ni41  1  0.50454991  0.50457147  0.83766091  1
  Ni  Ni42  1  0.50361384  0.83709195  0.50424276  1
  Ni  Ni43  1  0.33830302  0.67068580  0.67049727  1
  Fe  Fe44  1  0.50372084  0.83683969  0.83790539  1
  Ni  Ni45  1  0.83671022  0.17128607  0.50386198  1
  Fe  Fe46  1  0.67059090  0.00472004  0.67100611  1
  Ni  Ni47  1  0.83758823  0.17176844  0.83837352  1
  Fe  Fe48  1  0.83636631  0.50419306  0.50433646  1
  Ni  Ni49  1  0.67077707  0.33889832  0.67103639  1
  Ni  Ni50  1  0.83680101  0.50309967  0.83728246  1
  Fe  Fe51  1  0.83715341  0.83751583  0.50388714  1
  Ni  Ni52  1  0.67008856  0.67001033  0.67148036  1
  Fe  Fe53  1  0.83838006  0.83729424  0.83773832  1
" 