3817,Ni38Cr62_10,-224.611331580128, 143.882476834135,Ni38Cr62,"# generated using pymatgen
 data_Cr10Ni17
_symmetry_space_group_name_H-M   'P 1'
_cell_length_a   7.49870688
_cell_length_b   7.49870688
_cell_length_c   10.60477297
_cell_angle_alpha   90.00000000
_cell_angle_beta   90.00000000
_cell_angle_gamma   90.00000000
_symmetry_Int_Tables_number   1
_chemical_formula_structural   Cr10Ni17
_chemical_formula_sum   'Cr20 Ni34'
_cell_volume   596.31279937
_cell_formula_units_Z   2
loop_
 _symmetry_equiv_pos_site_id
 _symmetry_equiv_pos_as_xyz
  1  'x, y, z'
loop_
 _atom_site_type_symbol
 _atom_site_label
 _atom_site_symmetry_multiplicity
 _atom_site_fract_x
 _atom_site_fract_y
 _atom_site_fract_z
 _atom_site_occupancy
  Ni  Ni0  1  -0.00159358  -0.00194519  0.99788406  1
  Ni  Ni1  1  0.16336969  0.16411490  0.16114685  1
  Cr  Cr2  1  -0.00058010  -0.00147960  0.33192325  1
  Ni  Ni3  1  0.99625735  0.33010324  -0.00097018  1
  Cr  Cr4  1  0.16162043  0.49761063  0.16243894  1
  Cr  Cr5  1  0.99536120  0.33090152  0.33214438  1
  Ni  Ni6  1  0.99657789  0.66550575  -0.00201084  1
  Ni  Ni7  1  0.16101953  0.83209693  0.16393060  1
  Ni  Ni8  1  0.99737708  0.66471025  0.33042958  1
  Cr  Cr9  1  0.33036148  -0.00042893  -0.00154768  1
  Ni  Ni10  1  0.50094202  0.16547030  0.16377807  1
  Cr  Cr11  1  0.33007096  -0.00020706  0.33005792  1
  Ni  Ni12  1  0.33243060  0.32756960  0.99678564  1
  Cr  Cr13  1  0.49992670  0.49470485  0.16497297  1
  Cr  Cr14  1  0.33291109  0.32859645  0.33337165  1
  Cr  Cr15  1  0.33033293  0.66616633  0.99578242  1
  Cr  Cr16  1  0.49956831  0.83405694  0.16666336  1
  Cr  Cr17  1  0.32871153  0.66543498  0.33311210  1
  Ni  Ni18  1  0.66549317  0.00116356  0.99711472  1
  Ni  Ni19  1  0.82934472  0.16604629  0.16335949  1
  Ni  Ni20  1  0.66456386  0.00223844  0.33128633  1
  Ni  Ni21  1  0.66499635  0.32959439  -0.00108223  1
  Ni  Ni22  1  0.83171124  0.49586852  0.16453887  1
  Ni  Ni23  1  0.66475677  0.32969266  0.33061701  1
  Cr  Cr24  1  0.66726148  0.66254821  0.99359422  1
  Cr  Cr25  1  0.83186456  0.83166837  0.16534096  1
  Ni  Ni26  1  0.66661414  0.66187849  0.33154811  1
  Ni  Ni27  1  0.16367909  0.16620963  0.50138741  1
  Ni  Ni28  1  -0.00156816  -0.00043195  0.66428396  1
  Ni  Ni29  1  0.16469378  0.16468676  0.83128781  1
  Ni  Ni30  1  0.16685165  0.49740787  0.49963860  1
  Ni  Ni31  1  0.00055670  0.32830648  0.66313123  1
  Cr  Cr32  1  0.16496504  0.49419657  0.83124362  1
  Ni  Ni33  1  0.16369524  0.83001982  0.49808563  1
  Cr  Cr34  1  0.99768585  0.66537719  0.66561201  1
  Ni  Ni35  1  0.16258440  0.83248551  0.83164669  1
  Ni  Ni36  1  0.49961659  0.16644633  0.49701576  1
  Cr  Cr37  1  0.32993687  -0.00137163  0.66522730  1
  Ni  Ni38  1  0.49721996  0.16526836  0.83283401  1
  Ni  Ni39  1  0.49616534  0.49684583  0.49883655  1
  Ni  Ni40  1  0.33075780  0.33186821  0.66339139  1
  Ni  Ni41  1  0.49809458  0.49715520  0.82973600  1
  Cr  Cr42  1  0.50013542  0.83047260  0.49790561  1
  Ni  Ni43  1  0.33305493  0.66304077  0.66407929  1
  Ni  Ni44  1  0.50030926  0.83125184  0.82889458  1
  Ni  Ni45  1  0.83044704  0.16342667  0.49847695  1
  Ni  Ni46  1  0.66524373  0.99720047  0.66531365  1
  Cr  Cr47  1  0.83308856  0.16305271  0.83122630  1
  Cr  Cr48  1  0.83093791  0.49743030  0.49637475  1
  Cr  Cr49  1  0.66371854  0.33203016  0.66437434  1
  Ni  Ni50  1  0.83055568  0.49899038  0.83312507  1
  Cr  Cr51  1  0.83002210  0.83414632  0.49800377  1
  Ni  Ni52  1  0.66158099  0.66505998  0.66761731  1
  Ni  Ni53  1  0.83070664  0.83175371  0.83104677  1
" 