8082,Ni38Fe60Cr0_7,-237.004719216389, 213.071476784112,Ni38Fe60Cr0,"# generated using pymatgen
 data_Cr(Fe8Ni5)2
_symmetry_space_group_name_H-M   'P 1'
_cell_length_a   7.40386306
_cell_length_b   7.40386306
_cell_length_c   10.47064356
_cell_angle_alpha   90.00000000
_cell_angle_beta   90.00000000
_cell_angle_gamma   90.00000000
_symmetry_Int_Tables_number   1
_chemical_formula_structural   Cr(Fe8Ni5)2
_chemical_formula_sum   'Cr2 Fe32 Ni20'
_cell_volume   573.97123933
_cell_formula_units_Z   2
loop_
 _symmetry_equiv_pos_site_id
 _symmetry_equiv_pos_as_xyz
  1  'x, y, z'
loop_
 _atom_site_type_symbol
 _atom_site_label
 _atom_site_symmetry_multiplicity
 _atom_site_fract_x
 _atom_site_fract_y
 _atom_site_fract_z
 _atom_site_occupancy
  Ni  Ni0  1  0.00513256  0.00446527  0.00548522  1
  Ni  Ni1  1  0.17025241  0.17102132  0.17161739  1
  Fe  Fe2  1  0.00558351  0.00530248  0.33703997  1
  Fe  Fe3  1  0.00493573  0.33718753  0.00532261  1
  Ni  Ni4  1  0.17104577  0.50456573  0.17081260  1
  Ni  Ni5  1  0.00621945  0.33749250  0.33759888  1
  Fe  Fe6  1  0.00562114  0.67128354  1.00387056  1
  Ni  Ni7  1  0.17172329  0.83721530  0.17066741  1
  Fe  Fe8  1  0.00443016  0.66995804  0.33806387  1
  Ni  Ni9  1  0.33645693  0.00525164  0.00460722  1
  Fe  Fe10  1  0.50111063  0.17100512  0.16939380  1
  Fe  Fe11  1  0.33575482  0.00499548  0.33692648  1
  Ni  Ni12  1  0.33758529  0.33697168  0.00528422  1
  Fe  Fe13  1  0.50272492  0.50470474  0.16964388  1
  Fe  Fe14  1  0.33538288  0.33747368  0.33713694  1
  Fe  Fe15  1  0.33699541  0.67161081  1.00366058  1
  Fe  Fe16  1  0.50272505  0.83709153  0.16939208  1
  Fe  Fe17  1  0.33683900  0.67033132  0.33785879  1
  Fe  Fe18  1  0.67039270  0.00448362  0.00456916  1
  Ni  Ni19  1  0.83853987  0.17102219  0.16924955  1
  Cr  Cr20  1  0.67161580  1.00341666  0.33703045  1
  Fe  Fe21  1  0.67072261  0.33670525  0.00470625  1
  Fe  Fe22  1  0.83954079  0.50482721  0.17066990  1
  Cr  Cr23  1  0.67170771  0.33905843  0.33724179  1
  Ni  Ni24  1  0.67086762  0.67057859  0.00530881  1
  Fe  Fe25  1  0.83968442  0.83711062  0.16971352  1
  Fe  Fe26  1  0.67153564  0.67033329  0.33766392  1
  Fe  Fe27  1  0.17012323  0.17182071  0.50366703  1
  Ni  Ni28  1  1.00426647  0.00434304  0.66972805  1
  Fe  Fe29  1  0.17146605  0.16997591  0.83862812  1
  Ni  Ni30  1  0.17008210  0.50504367  0.50405979  1
  Fe  Fe31  1  1.00410112  0.33910061  0.66988149  1
  Ni  Ni32  1  0.17066257  0.50551639  0.83793147  1
  Fe  Fe33  1  0.17026285  0.83760982  0.50486489  1
  Ni  Ni34  1  1.00420085  0.67152687  0.67095045  1
  Ni  Ni35  1  0.17211536  0.83625526  0.83773172  1
  Ni  Ni36  1  0.50430502  0.16995357  0.50599561  1
  Fe  Fe37  1  0.33763057  1.00255649  0.67150940  1
  Fe  Fe38  1  0.50277252  0.17066029  0.83755357  1
  Fe  Fe39  1  0.50406778  0.50455865  0.50541223  1
  Fe  Fe40  1  0.33702069  0.33877111  0.67116138  1
  Fe  Fe41  1  0.50352726  0.50557269  0.83774601  1
  Fe  Fe42  1  0.50407009  0.83629724  0.50580471  1
  Ni  Ni43  1  0.33811510  0.67040192  0.67163062  1
  Ni  Ni44  1  0.50386971  0.83803705  0.83760200  1
  Ni  Ni45  1  0.83762494  0.17142463  0.50618885  1
  Fe  Fe46  1  0.67107269  1.00329240  0.67028423  1
  Fe  Fe47  1  0.83856102  0.16997574  0.83760032  1
  Ni  Ni48  1  0.83901319  0.50443978  0.50487898  1
  Fe  Fe49  1  0.67167866  0.33803142  0.66993789  1
  Fe  Fe50  1  0.83752071  0.50597146  0.83692494  1
  Fe  Fe51  1  0.83846886  0.83656089  0.50569169  1
  Ni  Ni52  1  0.67048570  0.67040278  0.66912580  1
  Fe  Fe53  1  0.83820670  0.83685395  0.83739084  1
" 