4951,Ni38Cr62_2,-223.938583881769, 130.973007354794,Ni38Cr62,"# generated using pymatgen
 data_Cr10Ni17
_symmetry_space_group_name_H-M   'P 1'
_cell_length_a   7.50698212
_cell_length_b   7.50698212
_cell_length_c   10.61647593
_cell_angle_alpha   90.00000000
_cell_angle_beta   90.00000000
_cell_angle_gamma   90.00000000
_symmetry_Int_Tables_number   1
_chemical_formula_structural   Cr10Ni17
_chemical_formula_sum   'Cr20 Ni34'
_cell_volume   598.28917101
_cell_formula_units_Z   2
loop_
 _symmetry_equiv_pos_site_id
 _symmetry_equiv_pos_as_xyz
  1  'x, y, z'
loop_
 _atom_site_type_symbol
 _atom_site_label
 _atom_site_symmetry_multiplicity
 _atom_site_fract_x
 _atom_site_fract_y
 _atom_site_fract_z
 _atom_site_occupancy
  Ni  Ni0  1  -0.00101165  0.99574170  0.99722718  1
  Cr  Cr1  1  0.16233445  0.16516099  0.16262098  1
  Ni  Ni2  1  0.99340079  -0.00254270  0.33074101  1
  Cr  Cr3  1  0.99687698  0.33141824  0.99444403  1
  Ni  Ni4  1  0.16302360  0.49755015  0.16360815  1
  Ni  Ni5  1  0.99518389  0.33045240  0.32983964  1
  Ni  Ni6  1  -0.00106664  0.66439014  0.99581815  1
  Cr  Cr7  1  0.16024313  0.83039638  0.16161159  1
  Ni  Ni8  1  0.99605311  0.66433938  0.32984578  1
  Ni  Ni9  1  0.32909062  0.99700733  0.99168603  1
  Cr  Cr10  1  0.49653640  0.16578514  0.16291851  1
  Cr  Cr11  1  0.33077409  0.99614627  0.33285825  1
  Ni  Ni12  1  0.32953523  0.33140305  0.99500979  1
  Cr  Cr13  1  0.49557572  0.49643344  0.16393087  1
  Ni  Ni14  1  0.32863037  0.33154126  0.32944254  1
  Ni  Ni15  1  0.32841762  0.66382728  0.99484245  1
  Cr  Cr16  1  0.49995185  0.82920444  0.16137413  1
  Cr  Cr17  1  0.32843799  0.66344833  0.33245673  1
  Cr  Cr18  1  0.66471132  -0.00135183  0.99696142  1
  Ni  Ni19  1  0.83106264  0.16265974  0.16589564  1
  Ni  Ni20  1  0.66921106  -0.00163015  0.32994889  1
  Ni  Ni21  1  0.66304811  0.33150409  0.99581617  1
  Cr  Cr22  1  0.83079577  0.49959385  0.16220886  1
  Ni  Ni23  1  0.66739877  0.32887362  0.33052166  1
  Ni  Ni24  1  0.66517992  0.66374303  0.99559464  1
  Ni  Ni25  1  0.83232199  0.83169871  0.16411896  1
  Ni  Ni26  1  0.66784467  0.66488933  0.32982595  1
  Cr  Cr27  1  0.16027696  0.16284452  0.49870896  1
  Ni  Ni28  1  -0.00100944  -0.00246043  0.66419693  1
  Ni  Ni29  1  0.16655637  0.16290896  0.82976940  1
  Cr  Cr30  1  0.16226132  0.49685649  0.49803498  1
  Ni  Ni31  1  -0.00241381  0.33064653  0.66643279  1
  Ni  Ni32  1  0.16377546  0.49816684  0.83000129  1
  Ni  Ni33  1  0.16132403  0.83056749  0.50057062  1
  Ni  Ni34  1  -0.00020720  0.66358143  0.66677054  1
  Ni  Ni35  1  0.16536832  0.83099185  0.83024203  1
  Cr  Cr36  1  0.49822725  0.16572974  0.49875348  1
  Ni  Ni37  1  0.32952148  0.99628639  0.66745500  1
  Ni  Ni38  1  0.49465434  0.16360425  0.82968058  1
  Cr  Cr39  1  0.49867750  0.49606453  0.49785239  1
  Ni  Ni40  1  0.32930691  0.33018056  0.66711789  1
  Cr  Cr41  1  0.49902673  0.49726966  0.83075740  1
  Cr  Cr42  1  0.49884976  0.82994985  0.50100385  1
  Ni  Ni43  1  0.32842087  0.66550414  0.66577516  1
  Ni  Ni44  1  0.49518396  0.83134176  0.82962334  1
  Ni  Ni45  1  0.83074784  0.16387616  0.49772388  1
  Ni  Ni46  1  0.66323620  -0.00143625  0.66482428  1
  Cr  Cr47  1  0.83211404  0.16442243  0.82809690  1
  Cr  Cr48  1  0.83053160  0.49642173  0.50117240  1
  Ni  Ni49  1  0.66543879  0.32921940  0.66581046  1
  Ni  Ni50  1  0.83214068  0.49817454  0.82908604  1
  Cr  Cr51  1  0.83339522  0.83165553  0.49834480  1
  Ni  Ni52  1  0.66421953  0.66426473  0.66696941  1
  Cr  Cr53  1  0.83318300  0.82805303  0.83042671  1
" 