741,Ni38Fe62_13,-242.584777065983, 224.159328448978,Ni38Fe62,"# generated using pymatgen
 data_Fe10Ni17
_symmetry_space_group_name_H-M   'P 1'
_cell_length_a   7.40587918
_cell_length_b   7.40587918
_cell_length_c   10.47349478
_cell_angle_alpha   90.00000000
_cell_angle_beta   90.00000000
_cell_angle_gamma   90.00000000
_symmetry_Int_Tables_number   1
_chemical_formula_structural   Fe10Ni17
_chemical_formula_sum   'Fe20 Ni34'
_cell_volume   574.44025401
_cell_formula_units_Z   2
loop_
 _symmetry_equiv_pos_site_id
 _symmetry_equiv_pos_as_xyz
  1  'x, y, z'
loop_
 _atom_site_type_symbol
 _atom_site_label
 _atom_site_symmetry_multiplicity
 _atom_site_fract_x
 _atom_site_fract_y
 _atom_site_fract_z
 _atom_site_occupancy
  Fe  Fe0  1  1.00401014  1.00308913  0.00458940  1
  Ni  Ni1  1  0.17083237  0.17198711  0.17042169  1
  Ni  Ni2  1  0.00494766  1.00409665  0.33668688  1
  Fe  Fe3  1  0.00470788  0.33850414  0.00474152  1
  Ni  Ni4  1  0.17080926  0.50399461  0.17078840  1
  Ni  Ni5  1  1.00342625  0.33778748  0.33713235  1
  Ni  Ni6  1  0.00485981  0.67079484  1.00396138  1
  Fe  Fe7  1  0.17040594  0.83854854  0.17014206  1
  Ni  Ni8  1  0.00495876  0.67050475  0.33736063  1
  Ni  Ni9  1  0.33726091  1.00370448  1.00372908  1
  Ni  Ni10  1  0.50467064  0.17078476  0.17088819  1
  Ni  Ni11  1  0.33758735  0.00413213  0.33793059  1
  Fe  Fe12  1  0.33792883  0.33854886  1.00369904  1
  Fe  Fe13  1  0.50485654  0.50316008  0.17026186  1
  Fe  Fe14  1  0.33665163  0.33626339  0.33826966  1
  Ni  Ni15  1  0.33688470  0.67200850  0.00440650  1
  Fe  Fe16  1  0.50370472  0.83873849  0.16998655  1
  Fe  Fe17  1  0.33677067  0.67041285  0.33769208  1
  Fe  Fe18  1  0.67010058  1.00327821  0.00443564  1
  Ni  Ni19  1  0.83688451  0.16888068  0.17171147  1
  Ni  Ni20  1  0.66985296  0.00565916  0.33642704  1
  Ni  Ni21  1  0.67064605  0.33750859  1.00405608  1
  Fe  Fe22  1  0.83792935  0.50296926  0.17064656  1
  Ni  Ni23  1  0.67102671  0.33657156  0.33771387  1
  Ni  Ni24  1  0.67064272  0.66959162  0.00442893  1
  Ni  Ni25  1  0.83726105  0.83796312  0.16996809  1
  Fe  Fe26  1  0.67207484  0.67176371  0.33769360  1
  Ni  Ni27  1  0.17106168  0.17188643  0.50442461  1
  Ni  Ni28  1  0.00428972  1.00402914  0.67056543  1
  Fe  Fe29  1  0.17219640  0.17057171  0.83700023  1
  Ni  Ni30  1  0.17106507  0.50357995  0.50467859  1
  Ni  Ni31  1  0.00445317  0.33743855  0.67082960  1
  Ni  Ni32  1  0.17092656  0.50514946  0.83692707  1
  Fe  Fe33  1  0.17095121  0.83746169  0.50456039  1
  Ni  Ni34  1  0.00515451  0.67092112  0.67106416  1
  Ni  Ni35  1  0.16985643  0.83591339  0.83720834  1
  Ni  Ni36  1  0.50413242  0.17152301  0.50430331  1
  Fe  Fe37  1  0.33769565  0.00451214  0.67118064  1
  Ni  Ni38  1  0.50510255  0.17098398  0.83719958  1
  Ni  Ni39  1  0.50340228  0.50321534  0.50446924  1
  Ni  Ni40  1  0.33792002  0.33794131  0.67115455  1
  Ni  Ni41  1  0.50352644  0.50393315  0.83750788  1
  Fe  Fe42  1  0.50374431  0.83762354  0.50471691  1
  Ni  Ni43  1  0.33719639  0.67040166  0.67122767  1
  Ni  Ni44  1  0.50494067  0.83747305  0.83694839  1
  Fe  Fe45  1  0.83746192  0.17140895  0.50369914  1
  Ni  Ni46  1  0.67054160  0.00475352  0.67128054  1
  Fe  Fe47  1  0.83677338  0.17117742  0.83727525  1
  Fe  Fe48  1  0.83762210  0.50335769  0.50428959  1
  Ni  Ni49  1  0.67001649  0.33707505  0.67061986  1
  Fe  Fe50  1  0.83665264  0.50471501  0.83745395  1
  Ni  Ni51  1  0.83755842  0.83765749  0.50478470  1
  Ni  Ni52  1  0.67003546  0.67056055  0.67094193  1
  Fe  Fe53  1  0.83703464  0.83649391  0.83692424  1
" 