8639,Ni38Fe60Cr0_9,-237.519210646282, 213.801747353876,Ni38Fe60Cr0,"# generated using pymatgen
 data_Cr(Fe8Ni5)2
_symmetry_space_group_name_H-M   'P 1'
_cell_length_a   7.40435712
_cell_length_b   7.40435712
_cell_length_c   10.47134226
_cell_angle_alpha   90.00000000
_cell_angle_beta   90.00000000
_cell_angle_gamma   90.00000000
_symmetry_Int_Tables_number   1
_chemical_formula_structural   Cr(Fe8Ni5)2
_chemical_formula_sum   'Cr2 Fe32 Ni20'
_cell_volume   574.08614919
_cell_formula_units_Z   2
loop_
 _symmetry_equiv_pos_site_id
 _symmetry_equiv_pos_as_xyz
  1  'x, y, z'
loop_
 _atom_site_type_symbol
 _atom_site_label
 _atom_site_symmetry_multiplicity
 _atom_site_fract_x
 _atom_site_fract_y
 _atom_site_fract_z
 _atom_site_occupancy
  Ni  Ni0  1  1.00365372  1.00308107  0.00571111  1
  Ni  Ni1  1  0.16902502  0.17135231  0.17045362  1
  Fe  Fe2  1  1.00264945  0.00656617  0.33815237  1
  Fe  Fe3  1  0.00467333  0.33626702  0.00519750  1
  Fe  Fe4  1  0.17105790  0.50357914  0.17072319  1
  Ni  Ni5  1  1.00400453  0.33832275  0.33781994  1
  Ni  Ni6  1  1.00306170  0.67074351  1.00378612  1
  Fe  Fe7  1  0.16882125  0.83754073  0.16983965  1
  Fe  Fe8  1  0.00475514  0.66971334  0.33670300  1
  Ni  Ni9  1  0.33692834  0.00622954  1.00241236  1
  Fe  Fe10  1  0.50381031  0.17278294  0.16898250  1
  Cr  Cr11  1  0.33651631  0.00596170  0.33873209  1
  Ni  Ni12  1  0.33838908  0.33758755  0.00552485  1
  Fe  Fe13  1  0.50347582  0.50143166  0.17111285  1
  Ni  Ni14  1  0.33780380  0.33775837  0.33773538  1
  Fe  Fe15  1  0.33557828  0.67104143  1.00199040  1
  Cr  Cr16  1  0.50351357  0.83587839  0.16891227  1
  Fe  Fe17  1  0.33662226  0.66769027  0.33943265  1
  Ni  Ni18  1  0.67212779  0.00479458  1.00328135  1
  Fe  Fe19  1  0.83729116  0.17065214  0.17185435  1
  Fe  Fe20  1  0.67281674  0.00705898  0.33735954  1
  Fe  Fe21  1  0.67170511  0.33644455  1.00369113  1
  Fe  Fe22  1  0.83829801  0.50410557  0.17086974  1
  Ni  Ni23  1  0.67079087  0.33817450  0.33689929  1
  Fe  Fe24  1  0.67192823  0.67051916  1.00247504  1
  Fe  Fe25  1  0.83925865  0.83797894  0.17041873  1
  Fe  Fe26  1  0.67138609  0.66879909  0.33876910  1
  Fe  Fe27  1  0.16943905  0.17288165  0.50469173  1
  Ni  Ni28  1  0.00490086  1.00328405  0.67057871  1
  Fe  Fe29  1  0.17205688  0.17130543  0.83827750  1
  Fe  Fe30  1  0.17100301  0.50354380  0.50424588  1
  Fe  Fe31  1  1.00369711  0.33781755  0.66986697  1
  Fe  Fe32  1  0.17295312  0.50354491  0.83782756  1
  Ni  Ni33  1  0.16981958  0.83640930  0.50370592  1
  Fe  Fe34  1  0.00522877  0.67079092  0.67205338  1
  Ni  Ni35  1  0.16973699  0.83806251  0.83900855  1
  Fe  Fe36  1  0.50556782  0.17287816  0.50564090  1
  Fe  Fe37  1  0.33748535  1.00348431  0.67157699  1
  Ni  Ni38  1  0.50499484  0.17260484  0.83764655  1
  Ni  Ni39  1  0.50483945  0.50395592  0.50337695  1
  Ni  Ni40  1  0.33868862  0.33825203  0.66962587  1
  Ni  Ni41  1  0.50478724  0.50350375  0.83896171  1
  Fe  Fe42  1  0.50549532  0.83641653  0.50506372  1
  Ni  Ni43  1  0.33832862  0.67035009  0.67103625  1
  Fe  Fe44  1  0.50373296  0.83763298  0.83792571  1
  Ni  Ni45  1  0.83745297  0.17166755  0.50414827  1
  Fe  Fe46  1  0.67042814  0.00509418  0.67150161  1
  Fe  Fe47  1  0.83796199  0.17011585  0.83645006  1
  Fe  Fe48  1  0.83725174  0.50380187  0.50414182  1
  Ni  Ni49  1  0.67008682  0.33928213  0.67088959  1
  Fe  Fe50  1  0.83745830  0.50436057  0.83754920  1
  Fe  Fe51  1  0.83741119  0.83740032  0.50484467  1
  Ni  Ni52  1  0.67078558  0.67005739  0.67125484  1
  Fe  Fe53  1  0.83706618  0.83804697  0.83786998  1
" 