4286,Ni38Fe60Cr0_0,-237.273666258904, 209.726723264712,Ni38Fe60Cr0,"# generated using pymatgen
 data_Cr(Fe8Ni5)2
_symmetry_space_group_name_H-M   'P 1'
_cell_length_a   7.40463902
_cell_length_b   7.40463902
_cell_length_c   10.47174092
_cell_angle_alpha   90.00000000
_cell_angle_beta   90.00000000
_cell_angle_gamma   90.00000000
_symmetry_Int_Tables_number   1
_chemical_formula_structural   Cr(Fe8Ni5)2
_chemical_formula_sum   'Cr2 Fe32 Ni20'
_cell_volume   574.15172107
_cell_formula_units_Z   2
loop_
 _symmetry_equiv_pos_site_id
 _symmetry_equiv_pos_as_xyz
  1  'x, y, z'
loop_
 _atom_site_type_symbol
 _atom_site_label
 _atom_site_symmetry_multiplicity
 _atom_site_fract_x
 _atom_site_fract_y
 _atom_site_fract_z
 _atom_site_occupancy
  Ni  Ni0  1  0.00425977  0.00424284  1.00409727  1
  Ni  Ni1  1  0.17245962  0.16988173  0.17027333  1
  Fe  Fe2  1  1.00374845  1.00212234  0.33740182  1
  Fe  Fe3  1  0.00524666  0.33608865  0.00468720  1
  Fe  Fe4  1  0.17130674  0.50502751  0.17010702  1
  Cr  Cr5  1  1.00404099  0.33758558  0.33688971  1
  Ni  Ni6  1  0.00478260  0.67192982  0.00533968  1
  Fe  Fe7  1  0.17017704  0.83816559  0.17023268  1
  Ni  Ni8  1  1.00318101  0.67191201  0.33746083  1
  Fe  Fe9  1  0.33665480  1.00417786  1.00345193  1
  Ni  Ni10  1  0.50295921  0.17141959  0.17176554  1
  Fe  Fe11  1  0.33726954  1.00411935  0.33780531  1
  Fe  Fe12  1  0.33686480  0.33707042  0.00434607  1
  Fe  Fe13  1  0.50439271  0.50383024  0.17069568  1
  Fe  Fe14  1  0.33902326  0.33791384  0.33705428  1
  Fe  Fe15  1  0.33693579  0.67139534  1.00346719  1
  Fe  Fe16  1  0.50446128  0.83830643  0.17090999  1
  Fe  Fe17  1  0.33755558  0.67060896  0.33754930  1
  Fe  Fe18  1  0.67165812  1.00395878  1.00418096  1
  Fe  Fe19  1  0.83680570  0.16937596  0.16975104  1
  Fe  Fe20  1  0.67162762  1.00358869  0.33718702  1
  Fe  Fe21  1  0.67053181  0.33637155  0.00462952  1
  Fe  Fe22  1  0.83694244  0.50529951  0.17068983  1
  Fe  Fe23  1  0.66979793  0.33837669  0.33775901  1
  Fe  Fe24  1  0.67067763  0.67231086  0.00542262  1
  Ni  Ni25  1  0.83809240  0.83566893  0.17130754  1
  Ni  Ni26  1  0.67082688  0.67094768  0.33704232  1
  Ni  Ni27  1  0.17126738  0.16948858  0.50499909  1
  Ni  Ni28  1  0.00478633  0.00494921  0.67084610  1
  Ni  Ni29  1  0.17072350  0.16944552  0.83736963  1
  Fe  Fe30  1  0.17004972  0.50433901  0.50505900  1
  Ni  Ni31  1  0.00482161  0.33674226  0.67110965  1
  Fe  Fe32  1  0.17289649  0.50409876  0.83747553  1
  Fe  Fe33  1  0.16956005  0.83791111  0.50508161  1
  Ni  Ni34  1  0.00450200  0.67095288  0.66984325  1
  Ni  Ni35  1  0.17150599  0.83835596  0.83770581  1
  Fe  Fe36  1  0.50446439  0.17116281  0.50411592  1
  Ni  Ni37  1  0.33814028  0.00499452  0.67178095  1
  Ni  Ni38  1  0.50341831  0.17059092  0.83684748  1
  Fe  Fe39  1  0.50495742  0.50346144  0.50425805  1
  Fe  Fe40  1  0.33614990  0.33678707  0.67124266  1
  Ni  Ni41  1  0.50345578  0.50515770  0.83738682  1
  Fe  Fe42  1  0.50468105  0.83801936  0.50454243  1
  Fe  Fe43  1  0.33653659  0.67157326  0.67162865  1
  Ni  Ni44  1  0.50295230  0.83689573  0.83812717  1
  Ni  Ni45  1  0.83792029  0.17122355  0.50429683  1
  Fe  Fe46  1  0.67177709  0.00463801  0.67127750  1
  Ni  Ni47  1  0.83850230  0.16995205  0.83791277  1
  Ni  Ni48  1  0.83645134  0.50547700  0.50410326  1
  Fe  Fe49  1  0.67127974  0.33612168  0.67025312  1
  Cr  Cr50  1  0.83767636  0.50422983  0.83743478  1
  Fe  Fe51  1  0.83840298  0.83741832  0.50338994  1
  Fe  Fe52  1  0.67053564  0.67188559  0.66967511  1
  Fe  Fe53  1  0.83786914  0.83999549  0.83829659  1
" 