7012,Ni38Fe62_2,-242.744796548939, 224.579519464483,Ni38Fe62,"# generated using pymatgen
 data_Fe10Ni17
_symmetry_space_group_name_H-M   'P 1'
_cell_length_a   7.40492511
_cell_length_b   7.40492511
_cell_length_c   10.47214552
_cell_angle_alpha   90.00000000
_cell_angle_beta   90.00000000
_cell_angle_gamma   90.00000000
_symmetry_Int_Tables_number   1
_chemical_formula_structural   Fe10Ni17
_chemical_formula_sum   'Fe20 Ni34'
_cell_volume   574.21827453
_cell_formula_units_Z   2
loop_
 _symmetry_equiv_pos_site_id
 _symmetry_equiv_pos_as_xyz
  1  'x, y, z'
loop_
 _atom_site_type_symbol
 _atom_site_label
 _atom_site_symmetry_multiplicity
 _atom_site_fract_x
 _atom_site_fract_y
 _atom_site_fract_z
 _atom_site_occupancy
  Ni  Ni0  1  1.00353693  0.00538013  1.00333208  1
  Ni  Ni1  1  0.16974927  0.17030726  0.17024443  1
  Ni  Ni2  1  1.00392276  0.00443323  0.33828608  1
  Ni  Ni3  1  0.00476836  0.33685143  1.00390099  1
  Fe  Fe4  1  0.17024059  0.50450434  0.17027803  1
  Ni  Ni5  1  0.00424162  0.33746947  0.33815930  1
  Ni  Ni6  1  0.00477853  0.67035823  1.00328642  1
  Ni  Ni7  1  0.17221220  0.83807281  0.17018175  1
  Ni  Ni8  1  0.00511023  0.67068383  0.33771411  1
  Fe  Fe9  1  0.33709847  1.00306365  0.00447013  1
  Fe  Fe10  1  0.50458212  0.17023403  0.17163282  1
  Ni  Ni11  1  0.33854020  1.00406613  0.33745433  1
  Fe  Fe12  1  0.33659758  0.33760513  1.00385675  1
  Fe  Fe13  1  0.50383798  0.50438399  0.17152827  1
  Ni  Ni14  1  0.33783819  0.33745251  0.33808549  1
  Ni  Ni15  1  0.33811579  0.67074345  1.00296051  1
  Ni  Ni16  1  0.50324165  0.83685525  0.17156888  1
  Ni  Ni17  1  0.33734418  0.67106589  0.33885060  1
  Ni  Ni18  1  0.67056050  1.00413175  1.00341747  1
  Ni  Ni19  1  0.83871750  0.17274649  0.17143497  1
  Ni  Ni20  1  0.67012061  0.00492784  0.33839050  1
  Fe  Fe21  1  0.67238098  0.33764817  0.00470236  1
  Ni  Ni22  1  0.83750220  0.50332850  0.17017335  1
  Ni  Ni23  1  0.67050315  0.33626669  0.33817487  1
  Ni  Ni24  1  0.66968866  0.67197406  1.00413049  1
  Fe  Fe25  1  0.83826963  0.83835297  0.17090606  1
  Fe  Fe26  1  0.67079010  0.67062798  0.33814244  1
  Ni  Ni27  1  0.17106555  0.17049196  0.50399553  1
  Fe  Fe28  1  1.00399354  1.00392004  0.67070478  1
  Ni  Ni29  1  0.17000310  0.17192700  0.83834117  1
  Fe  Fe30  1  0.17097984  0.50477895  0.50454622  1
  Ni  Ni31  1  0.00478447  0.33759636  0.67052130  1
  Ni  Ni32  1  0.16963978  0.50393425  0.83788945  1
  Ni  Ni33  1  0.17091822  0.83820635  0.50440854  1
  Ni  Ni34  1  1.00389935  0.66993379  0.67157926  1
  Fe  Fe35  1  0.17094320  0.83801027  0.83799178  1
  Ni  Ni36  1  0.50323203  0.17098749  0.50351182  1
  Fe  Fe37  1  0.33725376  1.00399673  0.67020064  1
  Ni  Ni38  1  0.50450215  0.16980795  0.83856222  1
  Ni  Ni39  1  0.50569869  0.50460646  0.50420008  1
  Fe  Fe40  1  0.33706231  0.33800129  0.67058521  1
  Fe  Fe41  1  0.50373236  0.50379508  0.83724999  1
  Ni  Ni42  1  0.50410195  0.83699098  0.50374567  1
  Fe  Fe43  1  0.33732639  0.67058645  0.67086036  1
  Ni  Ni44  1  0.50451568  0.83722205  0.83727058  1
  Fe  Fe45  1  0.83710006  0.17050893  0.50357718  1
  Fe  Fe46  1  0.67133580  1.00365428  0.67116234  1
  Ni  Ni47  1  0.83808011  0.17177659  0.83731770  1
  Ni  Ni48  1  0.83707004  0.50475039  0.50443452  1
  Fe  Fe49  1  0.67160454  0.33841747  0.67011946  1
  Fe  Fe50  1  0.83801996  0.50360860  0.83737880  1
  Ni  Ni51  1  0.83756315  0.83573917  0.50312994  1
  Ni  Ni52  1  0.67038174  0.67153627  0.67063164  1
  Fe  Fe53  1  0.83741466  0.83819205  0.83733275  1
" 