1892,Ni38Fe24Cr37_15,-224.138046807604, 177.177600446622,Ni38Fe24Cr37,"# generated using pymatgen
 data_Cr11(Fe3Ni5)2
_symmetry_space_group_name_H-M   'P 1'
_cell_length_a   7.48002305
_cell_length_b   7.48002305
_cell_length_c   10.57835005
_cell_angle_alpha   90.00000000
_cell_angle_beta   90.00000000
_cell_angle_gamma   90.00000000
_symmetry_Int_Tables_number   1
_chemical_formula_structural   Cr11(Fe3Ni5)2
_chemical_formula_sum   'Cr22 Fe12 Ni20'
_cell_volume   591.86656519
_cell_formula_units_Z   2
loop_
 _symmetry_equiv_pos_site_id
 _symmetry_equiv_pos_as_xyz
  1  'x, y, z'
loop_
 _atom_site_type_symbol
 _atom_site_label
 _atom_site_symmetry_multiplicity
 _atom_site_fract_x
 _atom_site_fract_y
 _atom_site_fract_z
 _atom_site_occupancy
  Cr  Cr0  1  0.99626483  0.00194674  0.00075792  1
  Fe  Fe1  1  0.16575854  0.16662646  0.16428893  1
  Ni  Ni2  1  0.99521667  0.00111257  0.33276736  1
  Ni  Ni3  1  -0.00073545  0.33212775  -0.00040076  1
  Cr  Cr4  1  0.16412148  0.49806642  0.16314045  1
  Cr  Cr5  1  0.99779733  0.32899717  0.33304288  1
  Ni  Ni6  1  0.99631796  0.66435340  -0.00083166  1
  Cr  Cr7  1  0.16384035  0.83270142  0.16543750  1
  Cr  Cr8  1  0.99662106  0.66613105  0.33338867  1
  Fe  Fe9  1  0.33373824  0.00218329  0.99882057  1
  Ni  Ni10  1  0.50053165  0.16917054  0.16517287  1
  Cr  Cr11  1  0.33118857  0.00238115  0.33099883  1
  Ni  Ni12  1  0.33331528  0.33123558  0.99902698  1
  Fe  Fe13  1  0.50281358  0.49602057  0.16376572  1
  Cr  Cr14  1  0.33368786  0.33246820  0.33498468  1
  Cr  Cr15  1  0.33616471  0.66451573  0.99725784  1
  Cr  Cr16  1  0.50064858  0.83533284  0.16577026  1
  Cr  Cr17  1  0.33484536  0.66249470  0.33383046  1
  Cr  Cr18  1  0.66605604  0.99900119  0.99837400  1
  Fe  Fe19  1  0.83065981  0.16691572  0.16661350  1
  Fe  Fe20  1  0.66893605  0.00292585  0.33259825  1
  Fe  Fe21  1  0.66545865  0.33276062  -0.00047878  1
  Ni  Ni22  1  0.83082869  0.49778816  0.16367231  1
  Ni  Ni23  1  0.66598601  0.33112656  0.33195524  1
  Ni  Ni24  1  0.66683855  0.66522620  0.00011194  1
  Ni  Ni25  1  0.83236936  0.83161410  0.16702781  1
  Cr  Cr26  1  0.66634825  0.66501081  0.33185012  1
  Fe  Fe27  1  0.16480252  0.16323963  0.50014315  1
  Fe  Fe28  1  0.99626005  0.00104777  0.66421009  1
  Cr  Cr29  1  0.16673518  0.16693094  0.83321897  1
  Ni  Ni30  1  0.16406035  0.49893149  0.50030392  1
  Cr  Cr31  1  0.99769164  0.33121100  0.66474273  1
  Ni  Ni32  1  0.16589947  0.49920360  0.83421378  1
  Cr  Cr33  1  0.16426181  0.83271624  0.50014445  1
  Fe  Fe34  1  0.99821694  0.66461487  0.66473821  1
  Cr  Cr35  1  0.16522359  0.83149624  0.83167282  1
  Ni  Ni36  1  0.50281568  0.16738296  0.50008485  1
  Ni  Ni37  1  0.33512154  0.00035088  0.66740367  1
  Ni  Ni38  1  0.50088468  0.16689747  0.83172299  1
  Fe  Fe39  1  0.50321056  0.49624370  0.50016039  1
  Cr  Cr40  1  0.33349449  0.33226784  0.66397640  1
  Ni  Ni41  1  0.49979612  0.49471812  0.83440452  1
  Cr  Cr42  1  0.50087066  0.83784890  0.49920534  1
  Cr  Cr43  1  0.33364331  0.66358432  0.66643601  1
  Fe  Fe44  1  0.50017562  0.83393748  0.83186267  1
  Ni  Ni45  1  0.82811627  0.16488986  0.49870593  1
  Ni  Ni46  1  0.66637472  0.00136576  0.66518571  1
  Ni  Ni47  1  0.82846290  0.16712136  0.83206684  1
  Fe  Fe48  1  0.83034848  0.49717732  0.49918342  1
  Ni  Ni49  1  0.66604561  0.32931555  0.66628033  1
  Cr  Cr50  1  0.83314811  0.49661079  0.83431002  1
  Ni  Ni51  1  0.83319143  0.83578378  0.49909752  1
  Cr  Cr52  1  0.66561635  0.66536803  0.66593083  1
  Cr  Cr53  1  0.83307754  0.83267298  0.83081421  1
" 