5747,Ni38Fe61Cr0_11,-237.892124147143, 215.863249985614,Ni38Fe61Cr0,"# generated using pymatgen
 data_CrFe33Ni20
_symmetry_space_group_name_H-M   'P 1'
_cell_length_a   7.39915259
_cell_length_b   7.39915259
_cell_length_c   10.46398194
_cell_angle_alpha   90.00000000
_cell_angle_beta   90.00000000
_cell_angle_gamma   90.00000000
_symmetry_Int_Tables_number   1
_chemical_formula_structural   CrFe33Ni20
_chemical_formula_sum   'Cr1 Fe33 Ni20'
_cell_volume   572.87642278
_cell_formula_units_Z   1
loop_
 _symmetry_equiv_pos_site_id
 _symmetry_equiv_pos_as_xyz
  1  'x, y, z'
loop_
 _atom_site_type_symbol
 _atom_site_label
 _atom_site_symmetry_multiplicity
 _atom_site_fract_x
 _atom_site_fract_y
 _atom_site_fract_z
 _atom_site_occupancy
  Ni  Ni0  1  0.00571221  0.00482511  0.00501023  1
  Ni  Ni1  1  0.17137404  0.17031646  0.17145912  1
  Ni  Ni2  1  0.00544463  1.00429402  0.33650211  1
  Fe  Fe3  1  1.00429484  0.33707044  1.00385792  1
  Fe  Fe4  1  0.17178688  0.50413095  0.17132598  1
  Fe  Fe5  1  0.00470743  0.33828831  0.33734465  1
  Fe  Fe6  1  0.00465740  0.67151678  0.00480505  1
  Ni  Ni7  1  0.17118987  0.83844915  0.17138374  1
  Fe  Fe8  1  1.00362054  0.67252306  0.33773456  1
  Ni  Ni9  1  0.33646291  1.00448617  0.00530001  1
  Ni  Ni10  1  0.50449830  0.17143902  0.17154858  1
  Fe  Fe11  1  0.33824522  1.00443659  0.33705527  1
  Fe  Fe12  1  0.33794241  0.33664885  0.00489838  1
  Fe  Fe13  1  0.50400263  0.50411446  0.17185473  1
  Fe  Fe14  1  0.33865206  0.33729932  0.33820930  1
  Fe  Fe15  1  0.33777629  0.67213816  1.00420365  1
  Fe  Fe16  1  0.50377705  0.83890994  0.17092060  1
  Fe  Fe17  1  0.33825415  0.67202673  0.33830673  1
  Fe  Fe18  1  0.67090519  0.00534489  0.00484215  1
  Fe  Fe19  1  0.83845371  0.17046779  0.17099180  1
  Ni  Ni20  1  0.67127841  1.00283747  0.33626108  1
  Ni  Ni21  1  0.67125917  0.33922074  0.00491106  1
  Fe  Fe22  1  0.83797358  0.50409878  0.17068360  1
  Fe  Fe23  1  0.67040471  0.33829687  0.33641723  1
  Fe  Fe24  1  0.67132910  0.67162225  1.00410861  1
  Fe  Fe25  1  0.83847498  0.83919854  0.17250515  1
  Ni  Ni26  1  0.67102425  0.67098072  0.33736978  1
  Fe  Fe27  1  0.17263547  0.17119585  0.50480745  1
  Ni  Ni28  1  0.00587744  0.00480207  0.67225787  1
  Fe  Fe29  1  0.17067891  0.17084430  0.83780046  1
  Fe  Fe30  1  0.17135022  0.50449794  0.50519797  1
  Ni  Ni31  1  0.00554287  0.33779024  0.67240094  1
  Fe  Fe32  1  0.17098699  0.50439106  0.83724291  1
  Fe  Fe33  1  0.17103810  0.83807013  0.50446373  1
  Fe  Fe34  1  0.00521510  0.67111226  0.67122393  1
  Fe  Fe35  1  0.17102462  0.83852773  0.83839307  1
  Fe  Fe36  1  0.50311430  0.17114645  0.50411540  1
  Ni  Ni37  1  0.33683190  0.00487984  0.67033195  1
  Fe  Fe38  1  0.50514731  0.17130171  0.83856601  1
  Ni  Ni39  1  0.50392397  0.50504953  0.50518605  1
  Ni  Ni40  1  0.33750551  0.33804716  0.67172355  1
  Fe  Fe41  1  0.50559538  0.50468228  0.83706112  1
  Fe  Fe42  1  0.50554430  0.83729271  0.50532116  1
  Ni  Ni43  1  0.33974529  0.67083675  0.67124713  1
  Ni  Ni44  1  0.50355357  0.83762967  0.83771737  1
  Cr  Cr45  1  0.83808186  0.17039313  0.50456879  1
  Fe  Fe46  1  0.67009743  1.00360743  0.67176232  1
  Ni  Ni47  1  0.83844838  0.17220533  0.83840700  1
  Fe  Fe48  1  0.83723460  0.50691946  0.50510555  1
  Fe  Fe49  1  0.67016795  0.33889707  0.67288654  1
  Ni  Ni50  1  0.83811289  0.50333461  0.83635030  1
  Ni  Ni51  1  0.83835599  0.83673276  0.50542619  1
  Ni  Ni52  1  0.67079801  0.67049881  0.67115012  1
  Fe  Fe53  1  0.83764312  0.83808559  0.83722744  1
" 