1399,Ni38Fe19Cr41_9,-222.436484611147, 159.502419521776,Ni38Fe19Cr41,"# generated using pymatgen
 data_Cr12(FeNi2)5
_symmetry_space_group_name_H-M   'P 1'
_cell_length_a   7.49714609
_cell_length_b   7.49714609
_cell_length_c   10.60256568
_cell_angle_alpha   90.00000000
_cell_angle_beta   90.00000000
_cell_angle_gamma   90.00000000
_symmetry_Int_Tables_number   1
_chemical_formula_structural   Cr12(FeNi2)5
_chemical_formula_sum   'Cr24 Fe10 Ni20'
_cell_volume   595.94052395
_cell_formula_units_Z   2
loop_
 _symmetry_equiv_pos_site_id
 _symmetry_equiv_pos_as_xyz
  1  'x, y, z'
loop_
 _atom_site_type_symbol
 _atom_site_label
 _atom_site_symmetry_multiplicity
 _atom_site_fract_x
 _atom_site_fract_y
 _atom_site_fract_z
 _atom_site_occupancy
  Fe  Fe0  1  -0.00197248  0.99726020  0.00004559  1
  Ni  Ni1  1  0.16368503  0.16659619  0.16386892  1
  Ni  Ni2  1  -0.00142952  0.00260161  0.32904234  1
  Ni  Ni3  1  -0.00072354  0.32686558  0.00351103  1
  Ni  Ni4  1  0.16719349  0.49507613  0.16257910  1
  Ni  Ni5  1  0.00040358  0.32759394  0.32507237  1
  Cr  Cr6  1  -0.00046748  0.66133997  -0.00131022  1
  Cr  Cr7  1  0.16838252  0.83262416  0.16608334  1
  Cr  Cr8  1  -0.00150949  0.66057143  0.32959863  1
  Fe  Fe9  1  0.33234013  0.99730440  0.99732514  1
  Cr  Cr10  1  0.49377092  0.16359015  0.16335070  1
  Fe  Fe11  1  0.33043812  -0.00082614  0.32819813  1
  Fe  Fe12  1  0.33284460  0.33481048  -0.00072674  1
  Ni  Ni13  1  0.49659955  0.50100342  0.16364388  1
  Ni  Ni14  1  0.33021453  0.33416748  0.32785187  1
  Ni  Ni15  1  0.33414189  0.66730127  0.99665255  1
  Ni  Ni16  1  0.49660762  0.82858982  0.16244761  1
  Ni  Ni17  1  0.33472747  0.66132478  0.32888848  1
  Fe  Fe18  1  0.66350099  0.99667167  0.99746306  1
  Ni  Ni19  1  0.83468250  0.16491960  0.16220137  1
  Cr  Cr20  1  0.66433307  -0.00108913  0.32716987  1
  Cr  Cr21  1  0.66557961  0.33034818  -0.00007416  1
  Ni  Ni22  1  0.83075006  0.49607981  0.16429957  1
  Cr  Cr23  1  0.66515066  0.33270415  0.32866563  1
  Ni  Ni24  1  0.65953916  0.66563952  -0.00059205  1
  Cr  Cr25  1  0.82787459  0.82945530  0.16430031  1
  Ni  Ni26  1  0.65814222  0.66284227  0.32697946  1
  Cr  Cr27  1  0.16570846  0.16530715  0.49447647  1
  Fe  Fe28  1  -0.00193291  -0.00172982  0.66713055  1
  Cr  Cr29  1  0.16702311  0.16467951  0.83499048  1
  Cr  Cr30  1  0.16814063  0.49539701  0.49748204  1
  Cr  Cr31  1  -0.00172477  0.33095580  0.66531037  1
  Cr  Cr32  1  0.16793446  0.49807534  0.83455516  1
  Cr  Cr33  1  0.16443178  0.83321796  0.49435302  1
  Cr  Cr34  1  -0.00008191  0.66765872  0.66698405  1
  Ni  Ni35  1  0.16307455  0.83499824  0.83363417  1
  Cr  Cr36  1  0.49660992  0.16839215  0.49912425  1
  Cr  Cr37  1  0.33381196  0.99715661  0.66520494  1
  Ni  Ni38  1  0.50014002  0.16409619  0.83177867  1
  Ni  Ni39  1  0.49632944  0.49689568  0.49802804  1
  Ni  Ni40  1  0.33510847  0.32969557  0.66781026  1
  Ni  Ni41  1  0.49871423  0.49640294  0.83229449  1
  Cr  Cr42  1  0.49891548  0.83089458  0.49162116  1
  Cr  Cr43  1  0.33145504  0.66386859  0.66656391  1
  Fe  Fe44  1  0.49702001  0.83152166  0.83533219  1
  Cr  Cr45  1  0.83037654  0.16374980  0.50044456  1
  Ni  Ni46  1  0.66558887  0.00055463  0.67058244  1
  Fe  Fe47  1  0.83161342  0.16338342  0.83435541  1
  Cr  Cr48  1  0.82725215  0.49795455  0.49603134  1
  Fe  Fe49  1  0.66066187  0.33100475  0.66732383  1
  Cr  Cr50  1  0.82877149  0.49844531  0.83317257  1
  Cr  Cr51  1  0.83078445  0.83257694  0.49682611  1
  Cr  Cr52  1  0.66219183  0.66725243  0.66509133  1
  Fe  Fe53  1  0.82888583  0.83383228  0.83456666  1
" 