546,Ni38Fe24Cr37_3,-224.300617261739, 176.848967431127,Ni38Fe24Cr37,"# generated using pymatgen
 data_Cr11(Fe3Ni5)2
_symmetry_space_group_name_H-M   'P 1'
_cell_length_a   7.48533907
_cell_length_b   7.48533907
_cell_length_c   10.58586803
_cell_angle_alpha   90.00000000
_cell_angle_beta   90.00000000
_cell_angle_gamma   90.00000000
_symmetry_Int_Tables_number   1
_chemical_formula_structural   Cr11(Fe3Ni5)2
_chemical_formula_sum   'Cr22 Fe12 Ni20'
_cell_volume   593.12937173
_cell_formula_units_Z   2
loop_
 _symmetry_equiv_pos_site_id
 _symmetry_equiv_pos_as_xyz
  1  'x, y, z'
loop_
 _atom_site_type_symbol
 _atom_site_label
 _atom_site_symmetry_multiplicity
 _atom_site_fract_x
 _atom_site_fract_y
 _atom_site_fract_z
 _atom_site_occupancy
  Cr  Cr0  1  0.99579440  -0.00120585  0.99822138  1
  Cr  Cr1  1  0.16298970  0.16699414  0.16390226  1
  Fe  Fe2  1  0.99787435  0.00115801  0.33051365  1
  Ni  Ni3  1  -0.00074111  0.33463342  0.99628935  1
  Fe  Fe4  1  0.16453673  0.49828577  0.16285442  1
  Ni  Ni5  1  0.99516261  0.33653478  0.33109178  1
  Cr  Cr6  1  -0.00092805  0.66299992  0.00086866  1
  Ni  Ni7  1  0.16741494  0.83302339  0.16356042  1
  Cr  Cr8  1  0.99807499  0.66718743  0.32864606  1
  Ni  Ni9  1  0.33516842  -0.00060691  0.99728443  1
  Fe  Fe10  1  0.50107545  0.16595054  0.16196997  1
  Cr  Cr11  1  0.33255090  0.99815635  0.33007793  1
  Ni  Ni12  1  0.33228381  0.33371067  -0.00115148  1
  Ni  Ni13  1  0.50022272  0.49817639  0.16389405  1
  Cr  Cr14  1  0.33631918  0.33367199  0.32902968  1
  Ni  Ni15  1  0.33138947  0.66320405  0.99854705  1
  Cr  Cr16  1  0.49757586  0.82838051  0.15959715  1
  Cr  Cr17  1  0.32997258  0.66398405  0.33090262  1
  Ni  Ni18  1  0.66367467  -0.00091783  0.99549054  1
  Ni  Ni19  1  0.83321904  0.16971694  0.16551427  1
  Cr  Cr20  1  0.66613324  0.00191568  0.32976229  1
  Cr  Cr21  1  0.66580618  0.32797937  -0.00114486  1
  Ni  Ni22  1  0.82928591  0.49507734  0.16618404  1
  Ni  Ni23  1  0.66788297  0.33507490  0.33054589  1
  Fe  Fe24  1  0.66380408  0.66322595  0.99664683  1
  Cr  Cr25  1  0.82943394  0.83241040  0.16361306  1
  Fe  Fe26  1  0.66487730  0.66170300  0.33164517  1
  Cr  Cr27  1  0.16295354  0.16537875  0.50132604  1
  Ni  Ni28  1  0.99726030  0.99572706  0.66647516  1
  Ni  Ni29  1  0.16471913  0.16830892  0.83128785  1
  Cr  Cr30  1  0.16627581  0.49592395  0.50089579  1
  Fe  Fe31  1  0.99851464  0.32896917  0.66964998  1
  Fe  Fe32  1  0.16664969  0.49689237  0.83392024  1
  Cr  Cr33  1  0.16493399  0.83451440  0.50027346  1
  Cr  Cr34  1  0.99656577  0.66407907  0.66729709  1
  Cr  Cr35  1  0.16807997  0.83406471  0.83268991  1
  Cr  Cr36  1  0.49857603  0.16788867  0.49706418  1
  Ni  Ni37  1  0.33180648  0.99863200  0.66892046  1
  Ni  Ni38  1  0.49650794  0.16407387  0.83608412  1
  Ni  Ni39  1  0.50272488  0.50133706  0.49899567  1
  Cr  Cr40  1  0.33549280  0.33197888  0.66837748  1
  Fe  Fe41  1  0.49839790  0.49927834  0.83475503  1
  Cr  Cr42  1  0.50102751  0.82854100  0.50218085  1
  Fe  Fe43  1  0.33474602  0.66592544  0.66817076  1
  Ni  Ni44  1  0.49998985  0.82926194  0.83403059  1
  Cr  Cr45  1  0.83591438  0.16680705  0.49737779  1
  Cr  Cr46  1  0.66521636  0.00012401  0.67001494  1
  Ni  Ni47  1  0.83482014  0.16589758  0.83282253  1
  Fe  Fe48  1  0.83013485  0.50052281  0.49689343  1
  Cr  Cr49  1  0.66593452  0.33372587  0.66672998  1
  Fe  Fe50  1  0.83128553  0.49793656  0.83402430  1
  Ni  Ni51  1  0.83124145  0.83041854  0.49838596  1
  Fe  Fe52  1  0.66506754  0.66624890  0.66785086  1
  Ni  Ni53  1  0.82833046  0.83114046  0.83317070  1
" 