5150,Ni38Fe60Cr0_17,-236.960170669687, 212.623328713332,Ni38Fe60Cr0,"# generated using pymatgen
 data_Cr(Fe8Ni5)2
_symmetry_space_group_name_H-M   'P 1'
_cell_length_a   7.40296939
_cell_length_b   7.40296939
_cell_length_c   10.46937972
_cell_angle_alpha   90.00000000
_cell_angle_beta   90.00000000
_cell_angle_gamma   90.00000000
_symmetry_Int_Tables_number   1
_chemical_formula_structural   Cr(Fe8Ni5)2
_chemical_formula_sum   'Cr2 Fe32 Ni20'
_cell_volume   573.76342380
_cell_formula_units_Z   2
loop_
 _symmetry_equiv_pos_site_id
 _symmetry_equiv_pos_as_xyz
  1  'x, y, z'
loop_
 _atom_site_type_symbol
 _atom_site_label
 _atom_site_symmetry_multiplicity
 _atom_site_fract_x
 _atom_site_fract_y
 _atom_site_fract_z
 _atom_site_occupancy
  Ni  Ni0  1  0.00516477  0.00560636  1.00305688  1
  Fe  Fe1  1  0.17080485  0.17080034  0.17051802  1
  Ni  Ni2  1  0.00477240  0.00550738  0.33890866  1
  Ni  Ni3  1  0.00463576  0.33672717  0.00453395  1
  Fe  Fe4  1  0.17147308  0.50426885  0.17092769  1
  Fe  Fe5  1  0.00500481  0.33719791  0.33736215  1
  Fe  Fe6  1  1.00310771  0.67112084  1.00353948  1
  Fe  Fe7  1  0.17132890  0.83791782  0.17102209  1
  Fe  Fe8  1  0.00507068  0.67242952  0.33721251  1
  Fe  Fe9  1  0.33789395  0.00505960  1.00383211  1
  Ni  Ni10  1  0.50419240  0.17158567  0.17124689  1
  Fe  Fe11  1  0.33782375  1.00372061  0.33784837  1
  Fe  Fe12  1  0.33839838  0.33728345  1.00423764  1
  Ni  Ni13  1  0.50472265  0.50362546  0.17166941  1
  Fe  Fe14  1  0.33809771  0.33810186  0.33734299  1
  Fe  Fe15  1  0.33797438  0.67063977  0.00440581  1
  Fe  Fe16  1  0.50507912  0.83721829  0.17118357  1
  Ni  Ni17  1  0.33912473  0.67081817  0.33886661  1
  Ni  Ni18  1  0.67064055  1.00399901  1.00422848  1
  Fe  Fe19  1  0.83712255  0.17080517  0.17100258  1
  Fe  Fe20  1  0.67114583  1.00378420  0.33730141  1
  Ni  Ni21  1  0.67115900  0.33834121  1.00415319  1
  Fe  Fe22  1  0.83642507  0.50429033  0.17044508  1
  Fe  Fe23  1  0.66988160  0.33704799  0.33644425  1
  Ni  Ni24  1  0.66985321  0.67064102  0.00445828  1
  Ni  Ni25  1  0.83824032  0.83756040  0.17178672  1
  Ni  Ni26  1  0.66884163  0.67136698  0.33672328  1
  Fe  Fe27  1  0.16926147  0.17191851  0.50394307  1
  Fe  Fe28  1  1.00265647  1.00403090  0.67090015  1
  Ni  Ni29  1  0.17014629  0.17082792  0.83828639  1
  Fe  Fe30  1  0.17189315  0.50396918  0.50483142  1
  Ni  Ni31  1  0.00540251  0.33711490  0.67170796  1
  Ni  Ni32  1  0.17097676  0.50454135  0.83689120  1
  Fe  Fe33  1  0.16959629  0.83709559  0.50369045  1
  Ni  Ni34  1  0.00439754  0.67052726  0.67158791  1
  Ni  Ni35  1  0.16984594  0.83761442  0.83850314  1
  Fe  Fe36  1  0.50562257  0.17178973  0.50317125  1
  Cr  Cr37  1  0.33692883  0.00460236  0.67125452  1
  Fe  Fe38  1  0.50445736  0.17239745  0.83913099  1
  Fe  Fe39  1  0.50343306  0.50453519  0.50397865  1
  Fe  Fe40  1  0.33716506  0.34011985  0.67140080  1
  Ni  Ni41  1  0.50498820  0.50425129  0.83671852  1
  Fe  Fe42  1  0.50585425  0.83665870  0.50346959  1
  Fe  Fe43  1  0.33699160  0.66895479  0.67098143  1
  Fe  Fe44  1  0.50470461  0.83594175  0.83833429  1
  Ni  Ni45  1  0.83774187  0.16912004  0.50429857  1
  Fe  Fe46  1  0.67339011  1.00420315  0.67088107  1
  Fe  Fe47  1  0.83876691  0.17204359  0.83768977  1
  Cr  Cr48  1  0.83746421  0.50464078  0.50371911  1
  Fe  Fe49  1  0.67099798  0.33765753  0.67208160  1
  Ni  Ni50  1  0.83701741  0.50454682  0.83817199  1
  Fe  Fe51  1  0.83753053  0.83928275  0.50380762  1
  Ni  Ni52  1  0.67029825  0.67123910  0.67180018  1
  Fe  Fe53  1  0.83819608  0.83661481  0.83821538  1
" 