727,Ni38Fe62_1,-242.923481399503, 222.799443811276,Ni38Fe62,"# generated using pymatgen
 data_Fe10Ni17
_symmetry_space_group_name_H-M   'P 1'
_cell_length_a   7.41255106
_cell_length_b   7.41255106
_cell_length_c   10.48293024
_cell_angle_alpha   90.00000000
_cell_angle_beta   90.00000000
_cell_angle_gamma   90.00000000
_symmetry_Int_Tables_number   1
_chemical_formula_structural   Fe10Ni17
_chemical_formula_sum   'Fe20 Ni34'
_cell_volume   575.99417577
_cell_formula_units_Z   2
loop_
 _symmetry_equiv_pos_site_id
 _symmetry_equiv_pos_as_xyz
  1  'x, y, z'
loop_
 _atom_site_type_symbol
 _atom_site_label
 _atom_site_symmetry_multiplicity
 _atom_site_fract_x
 _atom_site_fract_y
 _atom_site_fract_z
 _atom_site_occupancy
  Ni  Ni0  1  1.00338787  0.00446454  0.00396555  1
  Fe  Fe1  1  0.17071285  0.17078977  0.17041712  1
  Ni  Ni2  1  1.00359317  0.00450961  0.33734721  1
  Ni  Ni3  1  1.00340968  0.33627523  0.00398340  1
  Ni  Ni4  1  0.17127679  0.50406621  0.16969884  1
  Ni  Ni5  1  1.00359934  0.33637724  0.33721583  1
  Fe  Fe6  1  0.00377878  0.67073394  1.00354493  1
  Ni  Ni7  1  0.17004028  0.83703686  0.17027304  1
  Fe  Fe8  1  0.00570402  0.66984823  0.33738099  1
  Ni  Ni9  1  0.33669111  1.00293369  0.00431659  1
  Fe  Fe10  1  0.50229275  0.17083608  0.16933002  1
  Ni  Ni11  1  0.33631763  1.00288878  0.33683040  1
  Ni  Ni12  1  0.33674308  0.33787503  0.00439885  1
  Ni  Ni13  1  0.50316337  0.50356861  0.17072129  1
  Ni  Ni14  1  0.33628880  0.33797113  0.33689472  1
  Ni  Ni15  1  0.33829181  0.67021964  0.00402206  1
  Fe  Fe16  1  0.50217438  0.83585052  0.17066269  1
  Ni  Ni17  1  0.33789252  0.67016740  0.33714132  1
  Ni  Ni18  1  0.67094654  1.00291665  0.00408751  1
  Fe  Fe19  1  0.83801680  0.17086007  0.17051635  1
  Fe  Fe20  1  0.66982390  0.00419681  0.33750364  1
  Ni  Ni21  1  0.67087542  0.33787052  0.00410798  1
  Fe  Fe22  1  0.83745658  0.50370408  0.17044497  1
  Fe  Fe23  1  0.67014334  0.33665987  0.33711148  1
  Ni  Ni24  1  0.66934887  0.67023917  0.00392625  1
  Fe  Fe25  1  0.83750260  0.83646384  0.16918828  1
  Fe  Fe26  1  0.66961068  0.67017020  0.33718532  1
  Ni  Ni27  1  0.16949145  0.17081058  0.50305582  1
  Ni  Ni28  1  1.00322082  0.00403738  0.66971857  1
  Ni  Ni29  1  0.17080515  0.17015172  0.83769780  1
  Ni  Ni30  1  0.16985642  0.50284113  0.50387495  1
  Ni  Ni31  1  1.00323865  0.33674618  0.66982880  1
  Fe  Fe32  1  0.17108205  0.50293660  0.83676261  1
  Fe  Fe33  1  0.17012349  0.83725452  0.50318334  1
  Ni  Ni34  1  1.00319053  0.67024275  0.66969770  1
  Fe  Fe35  1  0.17105864  0.83781946  0.83742610  1
  Fe  Fe36  1  0.50332313  0.17073867  0.50453856  1
  Ni  Ni37  1  0.33692605  1.00334046  0.66988023  1
  Ni  Ni38  1  0.50299558  0.17103364  0.83686842  1
  Fe  Fe39  1  0.50332897  0.50327999  0.50401981  1
  Ni  Ni40  1  0.33689931  0.33743938  0.66973144  1
  Ni  Ni41  1  0.50387736  0.50321368  0.83655325  1
  Ni  Ni42  1  0.50394739  0.83700763  0.50410312  1
  Ni  Ni43  1  0.33764924  0.67024887  0.66986336  1
  Fe  Fe44  1  0.50372657  0.83752597  0.83641879  1
  Ni  Ni45  1  0.83794200  0.17046157  0.50479841  1
  Ni  Ni46  1  0.67088161  1.00329156  0.67000944  1
  Fe  Fe47  1  0.83649102  0.17029355  0.83671187  1
  Ni  Ni48  1  0.83757613  0.50319244  0.50377004  1
  Ni  Ni49  1  0.67088791  0.33746875  0.66992006  1
  Fe  Fe50  1  0.83619811  0.50296056  0.83624619  1
  Fe  Fe51  1  0.83765269  0.83725439  0.50492857  1
  Ni  Ni52  1  0.67019023  0.67026770  0.66992137  1
  Ni  Ni53  1  0.83685862  0.83714924  0.83675685  1
" 