2657,Ni38Fe39Cr22_4,-230.782535726504, 195.043724215711,Ni38Fe39Cr22,"# generated using pymatgen
 data_Cr13Fe21Ni20
_symmetry_space_group_name_H-M   'P 1'
_cell_length_a   7.44980968
_cell_length_b   7.44980968
_cell_length_c   10.53562188
_cell_angle_alpha   90.00000000
_cell_angle_beta   90.00000000
_cell_angle_gamma   90.00000000
_symmetry_Int_Tables_number   1
_chemical_formula_structural   Cr13Fe21Ni20
_chemical_formula_sum   'Cr13 Fe21 Ni20'
_cell_volume   584.72347696
_cell_formula_units_Z   1
loop_
 _symmetry_equiv_pos_site_id
 _symmetry_equiv_pos_as_xyz
  1  'x, y, z'
loop_
 _atom_site_type_symbol
 _atom_site_label
 _atom_site_symmetry_multiplicity
 _atom_site_fract_x
 _atom_site_fract_y
 _atom_site_fract_z
 _atom_site_occupancy
  Ni  Ni0  1  0.99978299  0.99993775  1.00086325  1
  Cr  Cr1  1  0.16723595  0.16763961  0.16742956  1
  Fe  Fe2  1  0.99965136  0.00288426  0.33240317  1
  Fe  Fe3  1  1.00036346  0.33397698  1.00071582  1
  Fe  Fe4  1  0.16885901  0.50185549  0.16627145  1
  Ni  Ni5  1  0.99770166  0.33412215  0.33389646  1
  Fe  Fe6  1  1.00014940  0.66750054  1.00072241  1
  Fe  Fe7  1  0.17056722  0.83403684  0.16700050  1
  Cr  Cr8  1  0.00205170  0.66611170  0.33369242  1
  Fe  Fe9  1  0.33716685  0.00132722  0.00157295  1
  Ni  Ni10  1  0.50153300  0.16685254  0.16688320  1
  Ni  Ni11  1  0.33732760  0.99940541  0.33302638  1
  Ni  Ni12  1  0.33567804  0.33519728  0.99945263  1
  Cr  Cr13  1  0.50260603  0.50093620  0.16506059  1
  Cr  Cr14  1  0.33708422  0.33548523  0.33506030  1
  Ni  Ni15  1  0.33385051  0.66892665  0.00140829  1
  Ni  Ni16  1  0.50063237  0.83538442  0.16747779  1
  Ni  Ni17  1  0.33496264  0.67014269  0.33507541  1
  Ni  Ni18  1  0.66873929  0.00137626  0.00134105  1
  Fe  Fe19  1  0.83122505  0.16782017  0.16761934  1
  Fe  Fe20  1  0.66605052  0.00342994  0.33235776  1
  Ni  Ni21  1  0.66779944  0.33249542  1.00077894  1
  Fe  Fe22  1  0.83435791  0.49804994  0.16670055  1
  Ni  Ni23  1  0.66979132  0.33184067  0.33507153  1
  Fe  Fe24  1  0.66673694  0.66933314  0.99945315  1
  Fe  Fe25  1  0.83314411  0.83641334  0.16557709  1
  Cr  Cr26  1  0.66589350  0.66710952  0.33393766  1
  Cr  Cr27  1  0.16797175  0.16717647  0.50047709  1
  Cr  Cr28  1  0.99910437  0.00164361  0.67071829  1
  Fe  Fe29  1  0.16958382  0.16808131  0.83657852  1
  Fe  Fe30  1  0.16752054  0.49953885  0.50044402  1
  Cr  Cr31  1  0.99966106  0.33496462  0.66878650  1
  Fe  Fe32  1  0.16946710  0.50141270  0.83686735  1
  Cr  Cr33  1  0.16947786  0.83704326  0.49981650  1
  Cr  Cr34  1  1.00084704  0.66692893  0.66920004  1
  Fe  Fe35  1  0.16899125  0.83373090  0.83731210  1
  Fe  Fe36  1  0.50420946  0.16741969  0.50092001  1
  Fe  Fe37  1  0.33798050  0.00340678  0.66903582  1
  Fe  Fe38  1  0.50314401  0.16867784  0.83611856  1
  Ni  Ni39  1  0.50222700  0.49983112  0.50115624  1
  Ni  Ni40  1  0.33766051  0.33365731  0.66884817  1
  Ni  Ni41  1  0.50190435  0.50041317  0.83610437  1
  Fe  Fe42  1  0.50186349  0.83672485  0.50015845  1
  Cr  Cr43  1  0.33549605  0.66643727  0.66628080  1
  Ni  Ni44  1  0.50116776  0.83508741  0.83560738  1
  Ni  Ni45  1  0.83304858  0.16937876  0.49937819  1
  Fe  Fe46  1  0.66552105  0.00357924  0.67006681  1
  Fe  Fe47  1  0.83081336  0.16817886  0.83605365  1
  Ni  Ni48  1  0.83116772  0.49790059  0.50052648  1
  Ni  Ni49  1  0.66620340  0.33281219  0.66753267  1
  Ni  Ni50  1  0.83244517  0.50043385  0.83664656  1
  Cr  Cr51  1  0.83284492  0.83694168  0.50111516  1
  Cr  Cr52  1  0.66748278  0.66673430  0.66913153  1
  Ni  Ni53  1  0.83372768  0.83474772  0.83674377  1
" 