8571,Ni38Fe50Cr11_18,-234.39841193338, 206.37662051595,Ni38Fe50Cr11,"# generated using pymatgen
 data_Cr7Fe27Ni20
_symmetry_space_group_name_H-M   'P 1'
_cell_length_a   7.42241962
_cell_length_b   7.42241962
_cell_length_c   10.49688649
_cell_angle_alpha   90.00000000
_cell_angle_beta   90.00000000
_cell_angle_gamma   90.00000000
_symmetry_Int_Tables_number   1
_chemical_formula_structural   Cr7Fe27Ni20
_chemical_formula_sum   'Cr7 Fe27 Ni20'
_cell_volume   578.29775621
_cell_formula_units_Z   1
loop_
 _symmetry_equiv_pos_site_id
 _symmetry_equiv_pos_as_xyz
  1  'x, y, z'
loop_
 _atom_site_type_symbol
 _atom_site_label
 _atom_site_symmetry_multiplicity
 _atom_site_fract_x
 _atom_site_fract_y
 _atom_site_fract_z
 _atom_site_occupancy
  Ni  Ni0  1  1.00131192  0.00363880  0.00302018  1
  Ni  Ni1  1  0.16998271  0.17180012  0.16874483  1
  Cr  Cr2  1  0.00380995  0.00305642  0.33571171  1
  Ni  Ni3  1  1.00227602  0.33329060  0.00315914  1
  Ni  Ni4  1  0.16886186  0.50180337  0.16873284  1
  Ni  Ni5  1  0.00405289  0.33517245  0.33793923  1
  Fe  Fe6  1  0.00352391  0.67126415  1.00217696  1
  Fe  Fe7  1  0.17026955  0.83685363  0.16627763  1
  Fe  Fe8  1  1.00253899  0.66730170  0.33834913  1
  Fe  Fe9  1  0.33606025  1.00129363  0.00406108  1
  Ni  Ni10  1  0.50209705  0.16849301  0.16935876  1
  Fe  Fe11  1  0.33607464  0.00670299  0.33538116  1
  Fe  Fe12  1  0.33775157  0.33736555  0.00434156  1
  Fe  Fe13  1  0.50231868  0.50059281  0.16783835  1
  Ni  Ni14  1  0.33637987  0.33708793  0.33525338  1
  Ni  Ni15  1  0.33809590  0.66965545  1.00191029  1
  Ni  Ni16  1  0.50337745  0.83582677  0.16881638  1
  Cr  Cr17  1  0.33603655  0.66853630  0.33632542  1
  Fe  Fe18  1  0.67047338  0.00348931  0.00376679  1
  Ni  Ni19  1  0.83671169  0.17145650  0.16925989  1
  Cr  Cr20  1  0.67098703  0.00371798  0.33444138  1
  Fe  Fe21  1  0.66953661  0.33542206  1.00259026  1
  Cr  Cr22  1  0.83763477  0.50242751  0.16964437  1
  Ni  Ni23  1  0.66817606  0.33610104  0.33739523  1
  Ni  Ni24  1  0.66741051  0.67101631  1.00299629  1
  Fe  Fe25  1  0.83652892  0.83682584  0.16776440  1
  Fe  Fe26  1  0.67089067  0.66735515  0.33645607  1
  Ni  Ni27  1  0.17048581  0.17168874  0.50370062  1
  Fe  Fe28  1  1.00187780  1.00238289  0.66924629  1
  Cr  Cr29  1  0.16833949  0.16889670  0.83746010  1
  Fe  Fe30  1  0.16851577  0.50213298  0.50388120  1
  Fe  Fe31  1  1.00147053  0.33749280  0.66851173  1
  Cr  Cr32  1  0.16962859  0.50325126  0.83674310  1
  Fe  Fe33  1  0.16763307  0.83723390  0.50578142  1
  Ni  Ni34  1  1.00162419  0.67144231  0.66956838  1
  Ni  Ni35  1  0.17040404  0.83666248  0.83540312  1
  Fe  Fe36  1  0.50216469  0.17149221  0.50268491  1
  Fe  Fe37  1  0.33560323  1.00280488  0.66977184  1
  Fe  Fe38  1  0.50324471  0.17061653  0.83620747  1
  Fe  Fe39  1  0.50418161  0.50016668  0.50490090  1
  Ni  Ni40  1  0.33783827  0.33613791  0.66901474  1
  Ni  Ni41  1  0.50501087  0.50420934  0.83631635  1
  Cr  Cr42  1  0.50395421  0.83599340  0.50430960  1
  Fe  Fe43  1  0.33656330  0.66837750  0.67094487  1
  Fe  Fe44  1  0.50300359  0.83646829  0.83664896  1
  Fe  Fe45  1  0.83640329  0.17034620  0.50422105  1
  Fe  Fe46  1  0.67145018  0.00374070  0.67028777  1
  Ni  Ni47  1  0.83474012  0.16952247  0.83555257  1
  Fe  Fe48  1  0.83652258  0.50312858  0.50290675  1
  Fe  Fe49  1  0.66987199  0.33791068  0.67006980  1
  Fe  Fe50  1  0.83554311  0.50329471  0.83695024  1
  Ni  Ni51  1  0.83565878  0.83395266  0.50334313  1
  Ni  Ni52  1  0.67048977  0.66954921  0.67045771  1
  Fe  Fe53  1  0.83694705  0.83589665  0.83574267  1
" 