7242,Ni38Fe60Cr0_18,-237.315998260726, 210.502713477054,Ni38Fe60Cr0,"# generated using pymatgen
 data_Cr(Fe8Ni5)2
_symmetry_space_group_name_H-M   'P 1'
_cell_length_a   7.40637577
_cell_length_b   7.40637577
_cell_length_c   10.47419707
_cell_angle_alpha   90.00000000
_cell_angle_beta   90.00000000
_cell_angle_gamma   90.00000000
_symmetry_Int_Tables_number   1
_chemical_formula_structural   Cr(Fe8Ni5)2
_chemical_formula_sum   'Cr2 Fe32 Ni20'
_cell_volume   574.55581772
_cell_formula_units_Z   2
loop_
 _symmetry_equiv_pos_site_id
 _symmetry_equiv_pos_as_xyz
  1  'x, y, z'
loop_
 _atom_site_type_symbol
 _atom_site_label
 _atom_site_symmetry_multiplicity
 _atom_site_fract_x
 _atom_site_fract_y
 _atom_site_fract_z
 _atom_site_occupancy
  Fe  Fe0  1  1.00387170  0.00485801  1.00281122  1
  Fe  Fe1  1  0.17094018  0.17209782  0.17076870  1
  Fe  Fe2  1  1.00290029  0.00536120  0.33834732  1
  Fe  Fe3  1  0.00528776  0.33620345  0.00506282  1
  Fe  Fe4  1  0.17115826  0.50243796  0.17155108  1
  Ni  Ni5  1  0.00523377  0.33715649  0.33734307  1
  Fe  Fe6  1  0.00512797  0.67122539  1.00349600  1
  Cr  Cr7  1  0.17352761  0.83657928  0.17212976  1
  Fe  Fe8  1  1.00336930  0.66897071  0.33904973  1
  Ni  Ni9  1  0.33888264  0.00437242  1.00337977  1
  Fe  Fe10  1  0.50404529  0.16991603  0.17123805  1
  Fe  Fe11  1  0.33937263  0.00454300  0.33777341  1
  Fe  Fe12  1  0.33746612  0.33752838  1.00395872  1
  Fe  Fe13  1  0.50396365  0.50475737  0.17081452  1
  Ni  Ni14  1  0.33582359  0.33826856  0.33605025  1
  Ni  Ni15  1  0.33856208  0.66994148  1.00280894  1
  Ni  Ni16  1  0.50397277  0.83717879  0.17026237  1
  Ni  Ni17  1  0.33923776  0.66905217  0.33826343  1
  Fe  Fe18  1  0.67005174  1.00388841  0.00431138  1
  Ni  Ni19  1  0.83715374  0.17222116  0.17030437  1
  Ni  Ni20  1  0.67119258  1.00270162  0.33627404  1
  Fe  Fe21  1  0.66953519  0.33627118  0.00475641  1
  Fe  Fe22  1  0.83716815  0.50439914  0.17125131  1
  Fe  Fe23  1  0.67086885  0.33745844  0.33758349  1
  Fe  Fe24  1  0.66872848  0.67212643  0.00559795  1
  Fe  Fe25  1  0.83499048  0.83783485  0.17102029  1
  Ni  Ni26  1  0.67007777  0.67278316  0.33688555  1
  Fe  Fe27  1  0.17068783  0.17194510  0.50427898  1
  Ni  Ni28  1  1.00194224  0.00440374  0.67123987  1
  Fe  Fe29  1  0.17020273  0.17093122  0.83723816  1
  Ni  Ni30  1  0.16945020  0.50505033  0.50434336  1
  Ni  Ni31  1  0.00567556  0.33674578  0.67032769  1
  Fe  Fe32  1  0.17196168  0.50366355  0.83663695  1
  Fe  Fe33  1  0.17044494  0.83718864  0.50424489  1
  Ni  Ni34  1  0.00457532  0.67114212  0.66980803  1
  Fe  Fe35  1  0.16996331  0.83769412  0.83790093  1
  Ni  Ni36  1  0.50492891  0.16920484  0.50393419  1
  Fe  Fe37  1  0.33693158  0.00445702  0.67100401  1
  Fe  Fe38  1  0.50444505  0.17088570  0.83681513  1
  Fe  Fe39  1  0.50402425  0.50362595  0.50370035  1
  Ni  Ni40  1  0.33670921  0.33824628  0.67173997  1
  Fe  Fe41  1  0.50254653  0.50356256  0.83776905  1
  Ni  Ni42  1  0.50261075  0.83825855  0.50394490  1
  Fe  Fe43  1  0.33640338  0.67083995  0.67056950  1
  Fe  Fe44  1  0.50458577  0.83783802  0.83794308  1
  Ni  Ni45  1  0.83688598  0.17231934  0.50501565  1
  Ni  Ni46  1  0.67184674  1.00374949  0.67182754  1
  Ni  Ni47  1  0.83755508  0.17001523  0.83697097  1
  Ni  Ni48  1  0.83912631  0.50273409  0.50398587  1
  Fe  Fe49  1  0.67138638  0.33570178  0.66994473  1
  Cr  Cr50  1  0.83838526  0.50217872  0.83636140  1
  Fe  Fe51  1  0.83673552  0.83755329  0.50444597  1
  Fe  Fe52  1  0.67092016  0.67152458  0.66927492  1
  Fe  Fe53  1  0.83773864  0.83958674  0.83681962  1
" 