7362,Ni38Fe24Cr37_12,-223.981323586944, 170.587851582505,Ni38Fe24Cr37,"# generated using pymatgen
 data_Cr11(Fe3Ni5)2
_symmetry_space_group_name_H-M   'P 1'
_cell_length_a   7.48479185
_cell_length_b   7.48479185
_cell_length_c   10.58509415
_cell_angle_alpha   90.00000000
_cell_angle_beta   90.00000000
_cell_angle_gamma   90.00000000
_symmetry_Int_Tables_number   1
_chemical_formula_structural   Cr11(Fe3Ni5)2
_chemical_formula_sum   'Cr22 Fe12 Ni20'
_cell_volume   592.99929835
_cell_formula_units_Z   2
loop_
 _symmetry_equiv_pos_site_id
 _symmetry_equiv_pos_as_xyz
  1  'x, y, z'
loop_
 _atom_site_type_symbol
 _atom_site_label
 _atom_site_symmetry_multiplicity
 _atom_site_fract_x
 _atom_site_fract_y
 _atom_site_fract_z
 _atom_site_occupancy
  Ni  Ni0  1  0.99835021  0.99702725  0.99740832  1
  Cr  Cr1  1  0.16702398  0.16371672  0.16640270  1
  Ni  Ni2  1  -0.00091091  0.99771870  0.33320273  1
  Cr  Cr3  1  0.00010837  0.33385707  0.99717926  1
  Ni  Ni4  1  0.16612915  0.50000728  0.16597386  1
  Fe  Fe5  1  -0.00002132  0.33140730  0.33179214  1
  Ni  Ni6  1  -0.00049697  0.66577155  0.99831965  1
  Ni  Ni7  1  0.16541022  0.83220502  0.16553101  1
  Cr  Cr8  1  0.00145207  0.66634422  0.33124181  1
  Ni  Ni9  1  0.33291042  0.00304451  -0.00103664  1
  Ni  Ni10  1  0.49831572  0.16547339  0.16510340  1
  Ni  Ni11  1  0.33197389  0.99811796  0.33098576  1
  Ni  Ni12  1  0.33271767  0.32962397  0.99873758  1
  Cr  Cr13  1  0.49818182  0.49682479  0.16735442  1
  Fe  Fe14  1  0.33297440  0.33272260  0.33157319  1
  Cr  Cr15  1  0.32785825  0.66445555  -0.00030507  1
  Cr  Cr16  1  0.49697924  0.83451553  0.16572248  1
  Ni  Ni17  1  0.33047497  0.66392142  0.33334823  1
  Ni  Ni18  1  0.66516563  0.00201031  0.99738571  1
  Cr  Cr19  1  0.83108316  0.16491547  0.16689816  1
  Ni  Ni20  1  0.66536749  0.00105596  0.33209912  1
  Fe  Fe21  1  0.66342402  0.32836589  0.99834932  1
  Cr  Cr22  1  0.83247445  0.49825837  0.16546224  1
  Ni  Ni23  1  0.66335164  0.33125659  0.33184081  1
  Cr  Cr24  1  0.66902333  0.66641285  0.99844987  1
  Cr  Cr25  1  0.83385357  0.83327606  0.16537098  1
  Fe  Fe26  1  0.66348315  0.66614250  0.33403292  1
  Cr  Cr27  1  0.16294558  0.16427546  0.49751960  1
  Ni  Ni28  1  0.99517669  -0.00048731  0.66586909  1
  Ni  Ni29  1  0.16444359  0.16593673  0.83253650  1
  Fe  Fe30  1  0.16766980  0.49890750  0.49692352  1
  Fe  Fe31  1  0.99794416  0.33069530  0.66753164  1
  Fe  Fe32  1  0.16403196  0.49663368  0.83380715  1
  Fe  Fe33  1  0.16478304  0.83246502  0.49668407  1
  Cr  Cr34  1  0.99762874  0.66587466  0.66626085  1
  Cr  Cr35  1  0.16306748  0.83482637  0.83452064  1
  Cr  Cr36  1  0.49943050  0.16627369  0.49743754  1
  Cr  Cr37  1  0.33239649  0.00044953  0.66655360  1
  Ni  Ni38  1  0.49945024  0.16622612  0.83403252  1
  Ni  Ni39  1  0.49945273  0.50077600  0.49734257  1
  Cr  Cr40  1  0.33194268  0.33264670  0.66590612  1
  Cr  Cr41  1  0.50062382  0.49729586  0.83160128  1
  Cr  Cr42  1  0.49976621  0.82963159  0.49859962  1
  Cr  Cr43  1  0.33219407  0.66334567  0.66353141  1
  Cr  Cr44  1  0.50109747  0.83399978  0.83213616  1
  Cr  Cr45  1  0.83407383  0.16435228  0.49878904  1
  Ni  Ni46  1  0.66931775  -0.00107580  0.66697108  1
  Fe  Fe47  1  0.83151855  0.16285043  0.83148093  1
  Cr  Cr48  1  0.82957544  0.49835664  0.49882805  1
  Fe  Fe49  1  0.66625427  0.33187487  0.66593870  1
  Fe  Fe50  1  0.83270478  0.49891378  0.83155089  1
  Fe  Fe51  1  0.83134589  0.83400606  0.49962522  1
  Ni  Ni52  1  0.66774459  0.66540426  0.66426639  1
  Ni  Ni53  1  0.83275299  0.83308720  0.83132280  1
" 