8635,Ni38Fe60Cr0_10,-237.537858836726, 213.507838909056,Ni38Fe60Cr0,"# generated using pymatgen
 data_Cr(Fe8Ni5)2
_symmetry_space_group_name_H-M   'P 1'
_cell_length_a   7.40483258
_cell_length_b   7.40483258
_cell_length_c   10.47201467
_cell_angle_alpha   90.00000000
_cell_angle_beta   90.00000000
_cell_angle_gamma   90.00000000
_symmetry_Int_Tables_number   1
_chemical_formula_structural   Cr(Fe8Ni5)2
_chemical_formula_sum   'Cr2 Fe32 Ni20'
_cell_volume   574.19674955
_cell_formula_units_Z   2
loop_
 _symmetry_equiv_pos_site_id
 _symmetry_equiv_pos_as_xyz
  1  'x, y, z'
loop_
 _atom_site_type_symbol
 _atom_site_label
 _atom_site_symmetry_multiplicity
 _atom_site_fract_x
 _atom_site_fract_y
 _atom_site_fract_z
 _atom_site_occupancy
  Fe  Fe0  1  0.00443242  0.00617352  1.00401753  1
  Fe  Fe1  1  0.17217702  0.17131389  0.17222546  1
  Fe  Fe2  1  0.00691891  0.00711462  0.33874924  1
  Fe  Fe3  1  1.00352773  0.33675977  0.00554348  1
  Fe  Fe4  1  0.17239201  0.50303020  0.17122439  1
  Ni  Ni5  1  1.00350579  0.33845964  0.33906740  1
  Fe  Fe6  1  0.00526676  0.66961037  0.00471841  1
  Fe  Fe7  1  0.17197931  0.83821264  0.17164781  1
  Fe  Fe8  1  0.00643797  0.66865438  0.33743593  1
  Ni  Ni9  1  0.33646305  0.00441704  1.00334279  1
  Ni  Ni10  1  0.50207218  0.17055835  0.17037805  1
  Ni  Ni11  1  0.33757281  1.00406135  0.33872438  1
  Ni  Ni12  1  0.33747312  0.33690086  0.00506048  1
  Fe  Fe13  1  0.50439158  0.50353316  0.17047512  1
  Ni  Ni14  1  0.33713966  0.33688268  0.33782516  1
  Fe  Fe15  1  0.33992186  0.67100086  1.00348857  1
  Ni  Ni16  1  0.50296098  0.83865189  0.16975510  1
  Fe  Fe17  1  0.33709472  0.67078062  0.33829447  1
  Ni  Ni18  1  0.67035225  0.00461844  0.00520637  1
  Fe  Fe19  1  0.83622412  0.17138125  0.17178062  1
  Fe  Fe20  1  0.66943031  0.00693448  0.33578293  1
  Ni  Ni21  1  0.67071609  0.33782522  0.00549370  1
  Ni  Ni22  1  0.83860081  0.50438266  0.17001720  1
  Fe  Fe23  1  0.67097025  0.33734477  0.33750577  1
  Ni  Ni24  1  0.67147683  0.67010264  0.00442611  1
  Fe  Fe25  1  0.83608268  0.83765722  0.17035715  1
  Fe  Fe26  1  0.66946000  0.66833279  0.33530609  1
  Ni  Ni27  1  0.17233326  0.17120468  0.50496383  1
  Ni  Ni28  1  0.00461529  0.00446527  0.66975702  1
  Fe  Fe29  1  0.17135216  0.17126698  0.83669384  1
  Fe  Fe30  1  0.16998743  0.50365554  0.50433616  1
  Fe  Fe31  1  0.00543083  0.33793845  0.66977340  1
  Fe  Fe32  1  0.17167758  0.50406516  0.83712659  1
  Ni  Ni33  1  0.17257321  0.83816312  0.50479628  1
  Ni  Ni34  1  0.00542412  0.67072464  0.67003046  1
  Fe  Fe35  1  0.17224238  0.83747442  0.83592253  1
  Fe  Fe36  1  0.50454155  0.17132229  0.50331771  1
  Fe  Fe37  1  0.33713553  0.00465325  0.67066097  1
  Fe  Fe38  1  0.50463007  0.17202144  0.83913475  1
  Fe  Fe39  1  0.50356516  0.50335379  0.50475367  1
  Ni  Ni40  1  0.33881471  0.33773496  0.66989655  1
  Fe  Fe41  1  0.50418178  0.50330845  0.83732051  1
  Fe  Fe42  1  0.50333143  0.83789605  0.50317855  1
  Ni  Ni43  1  0.33665407  0.67108585  0.67017794  1
  Fe  Fe44  1  0.50227087  0.83730307  0.83903673  1
  Ni  Ni45  1  0.83792596  0.17231134  0.50471063  1
  Fe  Fe46  1  0.66901125  0.00623818  0.67121081  1
  Fe  Fe47  1  0.83683522  0.17242168  0.83668767  1
  Ni  Ni48  1  0.83637590  0.50360090  0.50592718  1
  Ni  Ni49  1  0.67051758  0.33692925  0.67036356  1
  Fe  Fe50  1  0.83725679  0.50191610  0.83755369  1
  Cr  Cr51  1  0.83765468  0.83655830  0.50303506  1
  Fe  Fe52  1  0.66877816  0.66812435  0.67138733  1
  Cr  Cr53  1  0.83669440  0.83641979  0.83724950  1
" 