300,Ni38Fe19Cr41_5,-222.718508762504, 173.754081353781,Ni38Fe19Cr41,"# generated using pymatgen
 data_Cr12(FeNi2)5
_symmetry_space_group_name_H-M   'P 1'
_cell_length_a   7.48715751
_cell_length_b   7.48715751
_cell_length_c   10.58843969
_cell_angle_alpha   90.00000000
_cell_angle_beta   90.00000000
_cell_angle_gamma   90.00000000
_symmetry_Int_Tables_number   1
_chemical_formula_structural   Cr12(FeNi2)5
_chemical_formula_sum   'Cr24 Fe10 Ni20'
_cell_volume   593.56174917
_cell_formula_units_Z   2
loop_
 _symmetry_equiv_pos_site_id
 _symmetry_equiv_pos_as_xyz
  1  'x, y, z'
loop_
 _atom_site_type_symbol
 _atom_site_label
 _atom_site_symmetry_multiplicity
 _atom_site_fract_x
 _atom_site_fract_y
 _atom_site_fract_z
 _atom_site_occupancy
  Cr  Cr0  1  0.99837992  0.99849957  0.99844208  1
  Ni  Ni1  1  0.16800080  0.16542843  0.16487334  1
  Cr  Cr2  1  0.99601526  0.99792055  0.33128549  1
  Ni  Ni3  1  0.99591184  0.33261177  0.99864754  1
  Cr  Cr4  1  0.16330839  0.49922989  0.16788351  1
  Cr  Cr5  1  0.99823057  0.33122158  0.33043008  1
  Cr  Cr6  1  0.99392554  0.66627212  0.99833692  1
  Cr  Cr7  1  0.16819264  0.83129523  0.16544784  1
  Ni  Ni8  1  -0.00057492  0.66594940  0.33259569  1
  Ni  Ni9  1  0.33345246  0.99657603  0.00078178  1
  Cr  Cr10  1  0.50129645  0.16346059  0.16633904  1
  Fe  Fe11  1  0.33416248  0.99856125  0.33123031  1
  Cr  Cr12  1  0.33294394  0.33082479  -0.00002429  1
  Fe  Fe13  1  0.49968027  0.49718880  0.16635459  1
  Fe  Fe14  1  0.33539520  0.33259254  0.33263175  1
  Fe  Fe15  1  0.33300250  0.66524713  -0.00049556  1
  Fe  Fe16  1  0.49981242  0.83317783  0.16596993  1
  Ni  Ni17  1  0.33411687  0.66301294  0.33283036  1
  Ni  Ni18  1  0.66512678  0.99689029  0.99791665  1
  Cr  Cr19  1  0.82898956  0.16759749  0.16306754  1
  Ni  Ni20  1  0.66384162  -0.00011022  0.33440586  1
  Ni  Ni21  1  0.66608177  0.33429740  0.99669693  1
  Ni  Ni22  1  0.83065354  0.49815417  0.16465300  1
  Ni  Ni23  1  0.66230358  0.33204437  0.33306400  1
  Cr  Cr24  1  0.66504687  0.66547067  0.00158933  1
  Ni  Ni25  1  0.83016061  0.83153833  0.16857944  1
  Cr  Cr26  1  0.66646866  0.66548912  0.32856883  1
  Cr  Cr27  1  0.16514656  0.16420177  0.49567146  1
  Ni  Ni28  1  0.99597276  0.99737943  0.66645017  1
  Cr  Cr29  1  0.16323169  0.16377825  0.83572862  1
  Fe  Fe30  1  0.16778278  0.49836097  0.49624740  1
  Cr  Cr31  1  0.99715811  0.32837419  0.66672963  1
  Cr  Cr32  1  0.16629332  0.50192721  0.83088463  1
  Cr  Cr33  1  0.16450450  0.82828967  0.49901701  1
  Cr  Cr34  1  0.99613116  0.66811581  0.66453512  1
  Ni  Ni35  1  0.16514667  0.83027438  0.83219238  1
  Ni  Ni36  1  0.50434426  0.16757493  0.49688911  1
  Cr  Cr37  1  0.33078722  0.00071346  0.66635197  1
  Cr  Cr38  1  0.50501944  0.16615418  0.83172735  1
  Ni  Ni39  1  0.49888310  0.49758754  0.49678199  1
  Cr  Cr40  1  0.33697569  0.33301456  0.66098176  1
  Ni  Ni41  1  0.50027974  0.49940686  0.83222615  1
  Cr  Cr42  1  0.49889379  0.83309535  0.49823903  1
  Fe  Fe43  1  0.33314047  0.66388376  0.66449964  1
  Cr  Cr44  1  0.49683857  0.83174507  0.83388802  1
  Ni  Ni45  1  0.82722299  0.16491684  0.50035206  1
  Fe  Fe46  1  0.66901073  0.00133037  0.66452963  1
  Ni  Ni47  1  0.82941033  0.16554132  0.83230439  1
  Cr  Cr48  1  0.83184502  0.49712285  0.49667191  1
  Ni  Ni49  1  0.66431767  0.33283285  0.66531662  1
  Fe  Fe50  1  0.82934255  0.49643927  0.83309906  1
  Fe  Fe51  1  0.82985706  0.83517694  0.49808438  1
  Cr  Cr52  1  0.66403639  0.66375961  0.66626550  1
  Ni  Ni53  1  0.83198199  0.83604068  0.82971322  1
" 