8189,Ni38Fe19Cr41_11,-222.519595414845, 167.634267190551,Ni38Fe19Cr41,"# generated using pymatgen
 data_Cr12(FeNi2)5
_symmetry_space_group_name_H-M   'P 1'
_cell_length_a   7.49575342
_cell_length_b   7.49575342
_cell_length_c   10.60059614
_cell_angle_alpha   90.00000000
_cell_angle_beta   90.00000000
_cell_angle_gamma   90.00000000
_symmetry_Int_Tables_number   1
_chemical_formula_structural   Cr12(FeNi2)5
_chemical_formula_sum   'Cr24 Fe10 Ni20'
_cell_volume   595.60847927
_cell_formula_units_Z   2
loop_
 _symmetry_equiv_pos_site_id
 _symmetry_equiv_pos_as_xyz
  1  'x, y, z'
loop_
 _atom_site_type_symbol
 _atom_site_label
 _atom_site_symmetry_multiplicity
 _atom_site_fract_x
 _atom_site_fract_y
 _atom_site_fract_z
 _atom_site_occupancy
  Cr  Cr0  1  -0.00149124  0.99620012  0.99452303  1
  Cr  Cr1  1  0.16454806  0.16446491  0.16547622  1
  Ni  Ni2  1  0.99765989  0.99422107  0.33567192  1
  Ni  Ni3  1  0.00051520  0.33503129  0.99749605  1
  Ni  Ni4  1  0.16516727  0.49972115  0.16177591  1
  Cr  Cr5  1  0.99794208  0.33265014  0.33143359  1
  Ni  Ni6  1  -0.00112389  0.66285908  0.99593935  1
  Cr  Cr7  1  0.16290229  0.82875602  0.16601405  1
  Ni  Ni8  1  0.99798719  0.66617973  0.33201037  1
  Fe  Fe9  1  0.33090932  -0.00142612  0.99798426  1
  Ni  Ni10  1  0.49780065  0.16489636  0.16280061  1
  Ni  Ni11  1  0.33241925  0.99556783  0.33169138  1
  Ni  Ni12  1  0.33060627  0.33195241  0.00035618  1
  Ni  Ni13  1  0.49436690  0.49770151  0.16378652  1
  Cr  Cr14  1  0.33224928  0.33038149  0.32805004  1
  Fe  Fe15  1  0.32787702  0.66219692  0.99701888  1
  Cr  Cr16  1  0.49782188  0.83261683  0.16386600  1
  Fe  Fe17  1  0.32966927  0.66694121  0.33163968  1
  Fe  Fe18  1  0.66548529  -0.00061555  0.99729405  1
  Cr  Cr19  1  0.83119926  0.16211994  0.16557209  1
  Ni  Ni20  1  0.66363508  0.99710285  0.33196349  1
  Cr  Cr21  1  0.66449471  0.33230515  -0.00020162  1
  Fe  Fe22  1  0.83443540  0.49863639  0.16447868  1
  Cr  Cr23  1  0.66419777  0.33156931  0.33101115  1
  Cr  Cr24  1  0.66696094  0.66608330  -0.00111346  1
  Cr  Cr25  1  0.83313910  0.83134795  0.16597635  1
  Cr  Cr26  1  0.66576117  0.66540430  0.33221412  1
  Cr  Cr27  1  0.16262848  0.15969848  0.49719406  1
  Ni  Ni28  1  0.99668647  0.99631218  0.66441200  1
  Cr  Cr29  1  0.16424706  0.16430744  0.83140515  1
  Cr  Cr30  1  0.16474127  0.50308067  0.49768386  1
  Cr  Cr31  1  0.99607128  0.33041846  0.66520752  1
  Fe  Fe32  1  0.16451785  0.50095513  0.83387104  1
  Ni  Ni33  1  0.16393920  0.83203662  0.49788918  1
  Cr  Cr34  1  -0.00172035  0.66768962  0.66618956  1
  Ni  Ni35  1  0.16261819  0.82997207  0.83082343  1
  Cr  Cr36  1  0.49987744  0.16275931  0.50007246  1
  Ni  Ni37  1  0.33091052  0.99413044  0.66478599  1
  Cr  Cr38  1  0.49944078  0.16443454  0.83111280  1
  Cr  Cr39  1  0.49817594  0.50078435  0.50115793  1
  Cr  Cr40  1  0.32981879  0.33121361  0.66450783  1
  Cr  Cr41  1  0.49684084  0.49820924  0.82834214  1
  Fe  Fe42  1  0.49767169  0.83402971  0.49869548  1
  Ni  Ni43  1  0.33081713  0.66976343  0.66493679  1
  Cr  Cr44  1  0.49738441  0.83175938  0.83172754  1
  Ni  Ni45  1  0.82972987  0.16081472  0.50008341  1
  Ni  Ni46  1  0.66694521  0.99683748  0.66526013  1
  Fe  Fe47  1  0.83152376  0.16249882  0.83029557  1
  Ni  Ni48  1  0.83132043  0.49872051  0.49794860  1
  Fe  Fe49  1  0.66772271  0.32921956  0.66408561  1
  Fe  Fe50  1  0.83374460  0.49888876  0.83222749  1
  Ni  Ni51  1  0.83329457  0.83383727  0.49685669  1
  Cr  Cr52  1  0.66698253  0.66695687  0.66327105  1
  Ni  Ni53  1  0.83353445  0.83240630  0.83182839  1
" 