24,Ni38Fe62_15,-243.022764658583, 225.190343795733,Ni38Fe62,"# generated using pymatgen
 data_Fe10Ni17
_symmetry_space_group_name_H-M   'P 1'
_cell_length_a   7.41224542
_cell_length_b   7.41224542
_cell_length_c   10.48249801
_cell_angle_alpha   90.00000000
_cell_angle_beta   90.00000000
_cell_angle_gamma   90.00000000
_symmetry_Int_Tables_number   1
_chemical_formula_structural   Fe10Ni17
_chemical_formula_sum   'Fe20 Ni34'
_cell_volume   575.92292954
_cell_formula_units_Z   2
loop_
 _symmetry_equiv_pos_site_id
 _symmetry_equiv_pos_as_xyz
  1  'x, y, z'
loop_
 _atom_site_type_symbol
 _atom_site_label
 _atom_site_symmetry_multiplicity
 _atom_site_fract_x
 _atom_site_fract_y
 _atom_site_fract_z
 _atom_site_occupancy
  Fe  Fe0  1  1.00349614  0.00444921  0.00415013  1
  Ni  Ni1  1  0.17092848  0.16974004  0.17014431  1
  Ni  Ni2  1  0.00415216  1.00335514  0.33666265  1
  Ni  Ni3  1  0.00443275  0.33869240  0.00392737  1
  Fe  Fe4  1  0.17104232  0.50253395  0.16961694  1
  Fe  Fe5  1  0.00377231  0.33599637  0.33702569  1
  Ni  Ni6  1  1.00288079  0.66935885  0.00408286  1
  Fe  Fe7  1  0.17096921  0.83724033  0.17059989  1
  Fe  Fe8  1  1.00328362  0.67091400  0.33688864  1
  Ni  Ni9  1  0.33738503  0.00458634  0.00432171  1
  Ni  Ni10  1  0.50229999  0.17026493  0.17079382  1
  Ni  Ni11  1  0.33621380  0.00404853  0.33719406  1
  Ni  Ni12  1  0.33654243  0.33626534  0.00398458  1
  Ni  Ni13  1  0.50473018  0.50378238  0.16983199  1
  Ni  Ni14  1  0.33707466  0.33689267  0.33664282  1
  Fe  Fe15  1  0.33795137  0.66951886  1.00365353  1
  Fe  Fe16  1  0.50386611  0.83734031  0.17060775  1
  Ni  Ni17  1  0.33711679  0.67014576  0.33667949  1
  Ni  Ni18  1  0.66923204  1.00303248  0.00404803  1
  Fe  Fe19  1  0.83603784  0.17136007  0.17086815  1
  Ni  Ni20  1  0.67072119  1.00332223  0.33714302  1
  Ni  Ni21  1  0.67011471  0.33785505  1.00364139  1
  Ni  Ni22  1  0.83631018  0.50432214  0.17054828  1
  Ni  Ni23  1  0.66985489  0.33761775  0.33672572  1
  Ni  Ni24  1  0.67166843  0.67020679  0.00385825  1
  Fe  Fe25  1  0.83625537  0.83698658  0.17087124  1
  Ni  Ni26  1  0.67054658  0.67015074  0.33676547  1
  Ni  Ni27  1  0.16954756  0.17051376  0.50401191  1
  Ni  Ni28  1  0.00434083  1.00289466  0.67113213  1
  Fe  Fe29  1  0.17125254  0.17158875  0.83679141  1
  Fe  Fe30  1  0.17010160  0.50355408  0.50451344  1
  Ni  Ni31  1  0.00436541  0.33784809  0.67014294  1
  Ni  Ni32  1  0.16975602  0.50287074  0.83763444  1
  Fe  Fe33  1  0.16971161  0.83850298  0.50355142  1
  Ni  Ni34  1  1.00280963  0.67034671  0.66981796  1
  Fe  Fe35  1  0.17060869  0.83562874  0.83693801  1
  Fe  Fe36  1  0.50420435  0.16937536  0.50318633  1
  Ni  Ni37  1  0.33667824  0.00438934  0.66957666  1
  Fe  Fe38  1  0.50362439  0.17130419  0.83767901  1
  Fe  Fe39  1  0.50437344  0.50342811  0.50324146  1
  Ni  Ni40  1  0.33663260  0.33633322  0.67046420  1
  Ni  Ni41  1  0.50396788  0.50476374  0.83716117  1
  Ni  Ni42  1  0.50450691  0.83667855  0.50310390  1
  Fe  Fe43  1  0.33751700  0.67036454  0.67033610  1
  Ni  Ni44  1  0.50396404  0.83686498  0.83751367  1
  Ni  Ni45  1  0.83860209  0.16964492  0.50320018  1
  Ni  Ni46  1  0.67007142  1.00283181  0.66990003  1
  Fe  Fe47  1  0.83621117  0.17159426  0.83621099  1
  Fe  Fe48  1  0.83661705  0.50376684  0.50417445  1
  Ni  Ni49  1  0.67009413  0.33786582  0.67071851  1
  Ni  Ni50  1  0.83737014  0.50359193  0.83639227  1
  Ni  Ni51  1  0.83584767  0.83755684  0.50413174  1
  Ni  Ni52  1  0.67158966  0.67039186  0.67046475  1
  Fe  Fe53  1  0.83637817  0.83514951  0.83635671  1
" 