5892,Ni38Fe24Cr37_18,-224.137858354388, 167.360323666822,Ni38Fe24Cr37,"# generated using pymatgen
 data_Cr11(Fe3Ni5)2
_symmetry_space_group_name_H-M   'P 1'
_cell_length_a   7.49279616
_cell_length_b   7.49279616
_cell_length_c   10.59641395
_cell_angle_alpha   90.00000000
_cell_angle_beta   90.00000000
_cell_angle_gamma   90.00000000
_symmetry_Int_Tables_number   1
_chemical_formula_structural   Cr11(Fe3Ni5)2
_chemical_formula_sum   'Cr22 Fe12 Ni20'
_cell_volume   594.90381208
_cell_formula_units_Z   2
loop_
 _symmetry_equiv_pos_site_id
 _symmetry_equiv_pos_as_xyz
  1  'x, y, z'
loop_
 _atom_site_type_symbol
 _atom_site_label
 _atom_site_symmetry_multiplicity
 _atom_site_fract_x
 _atom_site_fract_y
 _atom_site_fract_z
 _atom_site_occupancy
  Ni  Ni0  1  0.99719843  0.99726030  -0.00123797  1
  Cr  Cr1  1  0.16290128  0.16511547  0.16541711  1
  Ni  Ni2  1  0.99400982  0.00165023  0.32994353  1
  Ni  Ni3  1  0.99777155  0.33164398  0.99718160  1
  Cr  Cr4  1  0.16608318  0.49533584  0.16344442  1
  Ni  Ni5  1  0.99683931  0.33031351  0.33336843  1
  Ni  Ni6  1  0.00034404  0.66596091  0.99650296  1
  Cr  Cr7  1  0.16283819  0.83442169  0.16541857  1
  Cr  Cr8  1  0.99791182  0.66255234  0.33314740  1
  Fe  Fe9  1  0.33027805  -0.00139103  0.99725424  1
  Cr  Cr10  1  0.49745400  0.16763934  0.16712053  1
  Ni  Ni11  1  0.33397454  -0.00013300  0.33330880  1
  Ni  Ni12  1  0.33147772  0.33224929  0.99559141  1
  Cr  Cr13  1  0.49790100  0.49515237  0.16514946  1
  Ni  Ni14  1  0.33059257  0.33184908  0.33463390  1
  Fe  Fe15  1  0.32789247  0.66470562  0.99601410  1
  Cr  Cr16  1  0.49685828  0.83198724  0.16671816  1
  Ni  Ni17  1  0.33111370  0.66316648  0.33199784  1
  Cr  Cr18  1  0.66581026  -0.00079668  0.99743443  1
  Fe  Fe19  1  0.83289754  0.16532876  0.16519998  1
  Ni  Ni20  1  0.66705390  0.00121385  0.33259525  1
  Ni  Ni21  1  0.66586563  0.32930257  -0.00121533  1
  Fe  Fe22  1  0.83425182  0.49558072  0.16351461  1
  Fe  Fe23  1  0.66763877  0.32865308  0.33299973  1
  Cr  Cr24  1  0.66581234  0.66609328  0.00148781  1
  Ni  Ni25  1  0.83341765  0.83465653  0.16523583  1
  Cr  Cr26  1  0.66658938  0.66577966  0.32864607  1
  Cr  Cr27  1  0.16459712  0.16442726  0.49243299  1
  Cr  Cr28  1  0.99758475  -0.00052728  0.66523295  1
  Cr  Cr29  1  0.16329709  0.16438667  0.83662418  1
  Ni  Ni30  1  0.16512765  0.49822483  0.49769474  1
  Cr  Cr31  1  0.99763702  0.33278778  0.66372550  1
  Ni  Ni32  1  0.16660233  0.50163062  0.83350895  1
  Cr  Cr33  1  0.16603099  0.83164746  0.49665843  1
  Fe  Fe34  1  0.00228388  0.66167362  0.66530487  1
  Ni  Ni35  1  0.16754003  0.83031610  0.83321627  1
  Fe  Fe36  1  0.50138593  0.16545884  0.49637775  1
  Fe  Fe37  1  0.33365414  0.99774394  0.66644678  1
  Fe  Fe38  1  0.49977969  0.16531132  0.83207597  1
  Cr  Cr39  1  0.49890877  0.49747646  0.49595534  1
  Cr  Cr40  1  0.33156639  0.33255523  0.66392841  1
  Cr  Cr41  1  0.49901923  0.49730390  0.83361153  1
  Cr  Cr42  1  0.49795137  0.83276025  0.49851709  1
  Ni  Ni43  1  0.33028968  0.66664509  0.66725434  1
  Fe  Fe44  1  0.49503733  0.83270148  0.82964317  1
  Ni  Ni45  1  0.82848817  0.16693382  0.49558203  1
  Fe  Fe46  1  0.66235110  0.00310932  0.66515176  1
  Ni  Ni47  1  0.82869237  0.16519984  0.83366325  1
  Ni  Ni48  1  0.83114736  0.49401195  0.49927512  1
  Ni  Ni49  1  0.66538635  0.32755380  0.66365581  1
  Cr  Cr50  1  0.83169633  0.49551473  0.83156131  1
  Cr  Cr51  1  0.83082668  0.83289097  0.50029029  1
  Fe  Fe52  1  0.66419624  0.66211766  0.66427162  1
  Cr  Cr53  1  0.83336087  0.83206903  0.82868280  1
" 