4633,Ni38Cr62_15,-224.617189189319, 141.416072844856,Ni38Cr62,"# generated using pymatgen
 data_Cr10Ni17
_symmetry_space_group_name_H-M   'P 1'
_cell_length_a   7.49694013
_cell_length_b   7.49694013
_cell_length_c   10.60227441
_cell_angle_alpha   90.00000000
_cell_angle_beta   90.00000000
_cell_angle_gamma   90.00000000
_symmetry_Int_Tables_number   1
_chemical_formula_structural   Cr10Ni17
_chemical_formula_sum   'Cr20 Ni34'
_cell_volume   595.89141072
_cell_formula_units_Z   2
loop_
 _symmetry_equiv_pos_site_id
 _symmetry_equiv_pos_as_xyz
  1  'x, y, z'
loop_
 _atom_site_type_symbol
 _atom_site_label
 _atom_site_symmetry_multiplicity
 _atom_site_fract_x
 _atom_site_fract_y
 _atom_site_fract_z
 _atom_site_occupancy
  Ni  Ni0  1  0.99583836  0.99743481  0.99732201  1
  Ni  Ni1  1  0.16496275  0.16650692  0.16595086  1
  Ni  Ni2  1  0.00175361  0.00093215  0.32915374  1
  Ni  Ni3  1  0.99663072  0.33180361  -0.00188833  1
  Cr  Cr4  1  0.16577404  0.49581129  0.16377804  1
  Ni  Ni5  1  -0.00017285  0.33090782  0.33261295  1
  Ni  Ni6  1  0.99524574  0.66455890  0.99657247  1
  Cr  Cr7  1  0.16273650  0.83152890  0.16390518  1
  Cr  Cr8  1  0.99756707  0.66155348  0.33088449  1
  Cr  Cr9  1  0.32881824  0.00082740  -0.00083238  1
  Ni  Ni10  1  0.49725507  0.16836280  0.16512601  1
  Ni  Ni11  1  0.32979995  0.00160770  0.33270893  1
  Ni  Ni12  1  0.33313602  0.33339967  0.00037551  1
  Ni  Ni13  1  0.49879107  0.49503680  0.16301848  1
  Ni  Ni14  1  0.33105159  0.32965230  0.33076023  1
  Ni  Ni15  1  0.33216497  0.66183084  0.99706486  1
  Cr  Cr16  1  0.49817091  0.82909485  0.16464549  1
  Ni  Ni17  1  0.33191872  0.66288633  0.33224945  1
  Ni  Ni18  1  0.66748271  -0.00184498  0.99754281  1
  Cr  Cr19  1  0.83234961  0.16552910  0.16379458  1
  Cr  Cr20  1  0.66210562  -0.00096723  0.33204128  1
  Ni  Ni21  1  0.66475243  0.33392179  -0.00170409  1
  Ni  Ni22  1  0.83006228  0.49676266  0.16334037  1
  Ni  Ni23  1  0.66342330  0.33236567  0.33046580  1
  Ni  Ni24  1  0.66679231  0.66186953  -0.00175737  1
  Ni  Ni25  1  0.83186676  0.83063370  0.16142553  1
  Cr  Cr26  1  0.66504205  0.66092618  0.33038088  1
  Ni  Ni27  1  0.16685867  0.16762124  0.49663596  1
  Cr  Cr28  1  -0.00061419  -0.00130828  0.66766810  1
  Cr  Cr29  1  0.16317449  0.16739211  0.83176181  1
  Ni  Ni30  1  0.16418358  0.49485735  0.49915402  1
  Ni  Ni31  1  -0.00029871  0.33448767  0.66351065  1
  Cr  Cr32  1  0.16652144  0.49918789  0.83102831  1
  Cr  Cr33  1  0.16643106  0.82942667  0.49810312  1
  Ni  Ni34  1  -0.00077193  0.66139742  0.66593055  1
  Ni  Ni35  1  0.16257431  0.82928007  0.83150205  1
  Ni  Ni36  1  0.49361320  0.16509509  0.49701321  1
  Ni  Ni37  1  0.32990570  -0.00125795  0.66209946  1
  Cr  Cr38  1  0.49923402  0.16842317  0.83231657  1
  Cr  Cr39  1  0.49516811  0.49759986  0.49765515  1
  Ni  Ni40  1  0.32960934  0.33135617  0.66302328  1
  Ni  Ni41  1  0.49848321  0.49828002  0.83375960  1
  Ni  Ni42  1  0.49341592  0.83278468  0.49809619  1
  Ni  Ni43  1  0.32939358  0.66383761  0.66474531  1
  Cr  Cr44  1  0.49595800  0.82853590  0.83099729  1
  Cr  Cr45  1  0.83323769  0.16808377  0.49659710  1
  Cr  Cr46  1  0.66264108  -0.00141887  0.66494370  1
  Ni  Ni47  1  0.83244356  0.16639832  0.83439468  1
  Ni  Ni48  1  0.83527278  0.49527982  0.49774338  1
  Cr  Cr49  1  0.66589852  0.33260271  0.66566272  1
  Ni  Ni50  1  0.83241668  0.49729534  0.83284221  1
  Cr  Cr51  1  0.83161719  0.83070962  0.49660503  1
  Cr  Cr52  1  0.66730545  0.66341542  0.66459005  1
  Ni  Ni53  1  0.83335072  0.83004721  0.83502572  1
" 