470,Ni38Cr62_5,-224.646857601274, 147.277055094678,Ni38Cr62,"# generated using pymatgen
 data_Cr10Ni17
_symmetry_space_group_name_H-M   'P 1'
_cell_length_a   7.49514014
_cell_length_b   7.49514014
_cell_length_c   10.59972884
_cell_angle_alpha   90.00000000
_cell_angle_beta   90.00000000
_cell_angle_gamma   90.00000000
_symmetry_Int_Tables_number   1
_chemical_formula_structural   Cr10Ni17
_chemical_formula_sum   'Cr20 Ni34'
_cell_volume   595.46230046
_cell_formula_units_Z   2
loop_
 _symmetry_equiv_pos_site_id
 _symmetry_equiv_pos_as_xyz
  1  'x, y, z'
loop_
 _atom_site_type_symbol
 _atom_site_label
 _atom_site_symmetry_multiplicity
 _atom_site_fract_x
 _atom_site_fract_y
 _atom_site_fract_z
 _atom_site_occupancy
  Ni  Ni0  1  0.99769049  0.99661930  0.99790565  1
  Cr  Cr1  1  0.16604524  0.16542930  0.16489740  1
  Cr  Cr2  1  -0.00105819  0.99802734  0.33213743  1
  Ni  Ni3  1  -0.00155699  0.33213215  0.99759103  1
  Ni  Ni4  1  0.16547685  0.49765413  0.16424995  1
  Ni  Ni5  1  -0.00029116  0.33275356  0.33356379  1
  Ni  Ni6  1  -0.00094720  0.66562567  -0.00110673  1
  Ni  Ni7  1  0.16472052  0.83117244  0.16304019  1
  Cr  Cr8  1  -0.00105420  0.66386566  0.33238580  1
  Ni  Ni9  1  0.33213856  0.99691448  0.99759558  1
  Cr  Cr10  1  0.49750459  0.16480362  0.16592450  1
  Ni  Ni11  1  0.33272418  0.99779120  0.33257958  1
  Ni  Ni12  1  0.33228916  0.33274119  0.99699164  1
  Ni  Ni13  1  0.49744096  0.49764943  0.16396301  1
  Ni  Ni14  1  0.33000426  0.33124722  0.33197125  1
  Cr  Cr15  1  0.33165148  0.66498503  -0.00168541  1
  Ni  Ni16  1  0.49910082  0.83208072  0.16455661  1
  Cr  Cr17  1  0.33111910  0.66600602  0.33025765  1
  Ni  Ni18  1  0.66454828  0.99752077  0.99707105  1
  Cr  Cr19  1  0.83082744  0.16416872  0.16379494  1
  Ni  Ni20  1  0.66269436  0.99704490  0.33197522  1
  Ni  Ni21  1  0.66364573  0.33138256  0.99623738  1
  Cr  Cr22  1  0.83146128  0.49859805  0.16364598  1
  Ni  Ni23  1  0.66466470  0.33124214  0.33160078  1
  Ni  Ni24  1  0.66393871  0.66547429  -0.00066790  1
  Ni  Ni25  1  0.83055547  0.83162522  0.16251213  1
  Cr  Cr26  1  0.66431299  0.66619018  0.33133232  1
  Ni  Ni27  1  0.16549403  0.16577099  0.49691944  1
  Ni  Ni28  1  0.99714841  0.99542293  0.66381833  1
  Cr  Cr29  1  0.16526565  0.16465335  0.83285327  1
  Ni  Ni30  1  0.16247028  0.49646177  0.49827802  1
  Cr  Cr31  1  -0.00022360  0.33170780  0.66342887  1
  Ni  Ni32  1  0.16613868  0.49845173  0.83184820  1
  Ni  Ni33  1  0.16323551  0.83214640  0.49926370  1
  Ni  Ni34  1  0.00001868  0.66659921  0.66260468  1
  Ni  Ni35  1  0.16402595  0.83076854  0.83207169  1
  Cr  Cr36  1  0.49604865  0.16334264  0.49604728  1
  Cr  Cr37  1  0.33146884  0.99764512  0.66468036  1
  Ni  Ni38  1  0.49969690  0.16530127  0.83274783  1
  Cr  Cr39  1  0.49755628  0.49705456  0.49730289  1
  Ni  Ni40  1  0.33039827  0.33265554  0.66541712  1
  Ni  Ni41  1  0.49637910  0.49559292  0.83312739  1
  Ni  Ni42  1  0.49932436  0.83411363  0.49699785  1
  Cr  Cr43  1  0.32957672  0.66415280  0.66580491  1
  Ni  Ni44  1  0.49834841  0.83348351  0.83282424  1
  Cr  Cr45  1  0.83188205  0.16398354  0.49729702  1
  Ni  Ni46  1  0.66591761  0.99707535  0.66533232  1
  Ni  Ni47  1  0.82914928  0.16318666  0.83305699  1
  Ni  Ni48  1  0.83454637  0.49948200  0.49699203  1
  Cr  Cr49  1  0.66376649  0.32981353  0.66706004  1
  Cr  Cr50  1  0.83223939  0.49826913  0.83348707  1
  Ni  Ni51  1  0.83181919  0.83108502  0.50001852  1
  Cr  Cr52  1  0.66479242  0.66668374  0.66341919  1
  Cr  Cr53  1  0.83266996  0.83315235  0.83178121  1
" 