6143,Ni38Fe62_14,-243.15900784888, 224.028220511568,Ni38Fe62,"# generated using pymatgen
 data_Fe10Ni17
_symmetry_space_group_name_H-M   'P 1'
_cell_length_a   7.41027050
_cell_length_b   7.41027050
_cell_length_c   10.47970504
_cell_angle_alpha   90.00000000
_cell_angle_beta   90.00000000
_cell_angle_gamma   90.00000000
_symmetry_Int_Tables_number   1
_chemical_formula_structural   Fe10Ni17
_chemical_formula_sum   'Fe20 Ni34'
_cell_volume   575.46270453
_cell_formula_units_Z   2
loop_
 _symmetry_equiv_pos_site_id
 _symmetry_equiv_pos_as_xyz
  1  'x, y, z'
loop_
 _atom_site_type_symbol
 _atom_site_label
 _atom_site_symmetry_multiplicity
 _atom_site_fract_x
 _atom_site_fract_y
 _atom_site_fract_z
 _atom_site_occupancy
  Ni  Ni0  1  0.00460930  1.00327484  1.00355795  1
  Fe  Fe1  1  0.16994044  0.17014652  0.17080609  1
  Ni  Ni2  1  0.00481826  0.00435609  0.33733261  1
  Fe  Fe3  1  0.00399867  0.33772261  1.00376076  1
  Fe  Fe4  1  0.17020898  0.50504371  0.17058193  1
  Ni  Ni5  1  1.00295476  0.33699875  0.33610818  1
  Ni  Ni6  1  0.00541437  0.67133864  1.00337399  1
  Ni  Ni7  1  0.16839896  0.83743111  0.17041058  1
  Ni  Ni8  1  0.00480965  0.67013625  0.33717498  1
  Fe  Fe9  1  0.33657398  1.00359101  1.00330738  1
  Ni  Ni10  1  0.50364538  0.17244007  0.17109328  1
  Ni  Ni11  1  0.33688775  1.00288398  0.33653381  1
  Fe  Fe12  1  0.33739421  0.33739234  1.00353190  1
  Ni  Ni13  1  0.50512377  0.50229370  0.17074184  1
  Fe  Fe14  1  0.33791206  0.33693850  0.33732016  1
  Ni  Ni15  1  0.33672038  0.67082696  1.00335150  1
  Fe  Fe16  1  0.50401522  0.83645047  0.17075556  1
  Ni  Ni17  1  0.33723461  0.67127250  0.33710788  1
  Fe  Fe18  1  0.67079912  1.00315621  1.00360598  1
  Fe  Fe19  1  0.83663321  0.17063562  0.17136157  1
  Ni  Ni20  1  0.66977998  0.00474213  0.33710724  1
  Ni  Ni21  1  0.67000390  0.33722642  1.00324820  1
  Ni  Ni22  1  0.83613390  0.50494543  0.17100105  1
  Ni  Ni23  1  0.67092302  0.33734492  0.33765528  1
  Fe  Fe24  1  0.67113456  0.67038732  1.00369153  1
  Ni  Ni25  1  0.83950437  0.83594928  0.17131081  1
  Ni  Ni26  1  0.66944693  0.66940767  0.33599287  1
  Ni  Ni27  1  0.17001496  0.16899539  0.50320513  1
  Ni  Ni28  1  0.00519614  0.00479755  0.67059857  1
  Ni  Ni29  1  0.17063076  0.16948984  0.83694681  1
  Fe  Fe30  1  0.17042969  0.50277984  0.50337950  1
  Ni  Ni31  1  1.00335954  0.33639546  0.67172224  1
  Fe  Fe32  1  0.17122085  0.50454709  0.83752793  1
  Ni  Ni33  1  0.16902598  0.83791722  0.50406356  1
  Fe  Fe34  1  1.00297079  0.67166420  0.67086232  1
  Ni  Ni35  1  0.16881166  0.83803430  0.83701679  1
  Ni  Ni36  1  0.50421148  0.17232316  0.50417616  1
  Ni  Ni37  1  0.33668071  1.00329658  0.67149973  1
  Ni  Ni38  1  0.50330956  0.17202227  0.83622603  1
  Ni  Ni39  1  0.50491020  0.50276820  0.50340175  1
  Fe  Fe40  1  0.33809967  0.33577153  0.67063819  1
  Ni  Ni41  1  0.50480860  0.50294650  0.83734620  1
  Fe  Fe42  1  0.50345666  0.83829633  0.50416124  1
  Fe  Fe43  1  0.33790848  0.67103239  0.67079690  1
  Ni  Ni44  1  0.50410811  0.83652045  0.83740886  1
  Ni  Ni45  1  0.83726881  0.17052178  0.50350629  1
  Ni  Ni46  1  0.66961001  0.00431162  0.67116362  1
  Fe  Fe47  1  0.83674364  0.16961928  0.83622915  1
  Fe  Fe48  1  0.83711527  0.50245812  0.50318868  1
  Ni  Ni49  1  0.67075446  0.33758796  0.67058728  1
  Fe  Fe50  1  0.83655760  0.50398552  0.83743091  1
  Fe  Fe51  1  0.83682058  0.83832793  0.50367315  1
  Ni  Ni52  1  0.66925284  0.66959330  0.67150852  1
  Ni  Ni53  1  0.83857580  0.83653574  0.83678214  1
" 