8447,Ni38Fe62_7,-242.703352302937, 224.447409796632,Ni38Fe62,"# generated using pymatgen
 data_Fe10Ni17
_symmetry_space_group_name_H-M   'P 1'
_cell_length_a   7.40655172
_cell_length_b   7.40655172
_cell_length_c   10.47444590
_cell_angle_alpha   90.00000000
_cell_angle_beta   90.00000000
_cell_angle_gamma   90.00000000
_symmetry_Int_Tables_number   1
_chemical_formula_structural   Fe10Ni17
_chemical_formula_sum   'Fe20 Ni34'
_cell_volume   574.59676671
_cell_formula_units_Z   2
loop_
 _symmetry_equiv_pos_site_id
 _symmetry_equiv_pos_as_xyz
  1  'x, y, z'
loop_
 _atom_site_type_symbol
 _atom_site_label
 _atom_site_symmetry_multiplicity
 _atom_site_fract_x
 _atom_site_fract_y
 _atom_site_fract_z
 _atom_site_occupancy
  Ni  Ni0  1  1.00301494  0.00561454  1.00329885  1
  Fe  Fe1  1  0.17047497  0.17109647  0.17032911  1
  Ni  Ni2  1  1.00207215  0.00412063  0.33798757  1
  Ni  Ni3  1  1.00406497  0.33578923  0.00412714  1
  Fe  Fe4  1  0.17141302  0.50397516  0.17078221  1
  Ni  Ni5  1  1.00396308  0.33688705  0.33740775  1
  Fe  Fe6  1  1.00401395  0.67089964  1.00404673  1
  Ni  Ni7  1  0.17120981  0.83787079  0.17083626  1
  Ni  Ni8  1  0.00521764  0.67124566  0.33671544  1
  Fe  Fe9  1  0.33655728  1.00330214  0.00439012  1
  Ni  Ni10  1  0.50456188  0.17120358  0.17064265  1
  Fe  Fe11  1  0.33722262  0.00420146  0.33734334  1
  Fe  Fe12  1  0.33733299  0.33797642  1.00369487  1
  Ni  Ni13  1  0.50489944  0.50355642  0.17164241  1
  Ni  Ni14  1  0.33785149  0.33915748  0.33710509  1
  Ni  Ni15  1  0.33903078  0.67049093  1.00353877  1
  Ni  Ni16  1  0.50210050  0.83749227  0.17141324  1
  Ni  Ni17  1  0.33767404  0.67004821  0.33751136  1
  Fe  Fe18  1  0.67138275  1.00385564  0.00424267  1
  Ni  Ni19  1  0.83736231  0.17205193  0.17151827  1
  Ni  Ni20  1  0.67163269  0.00429448  0.33648807  1
  Fe  Fe21  1  0.67145802  0.33827117  0.00497212  1
  Ni  Ni22  1  0.83698998  0.50266679  0.17057741  1
  Ni  Ni23  1  0.67043851  0.33601070  0.33776019  1
  Ni  Ni24  1  0.66876947  0.67153997  1.00398866  1
  Fe  Fe25  1  0.83648500  0.83787942  0.17090750  1
  Fe  Fe26  1  0.67124798  0.66978025  0.33714249  1
  Fe  Fe27  1  0.17098474  0.17113910  0.50450563  1
  Fe  Fe28  1  0.00478016  1.00400861  0.67144699  1
  Ni  Ni29  1  0.17029498  0.16993296  0.83768095  1
  Fe  Fe30  1  0.17157164  0.50483388  0.50443010  1
  Ni  Ni31  1  0.00472926  0.33696665  0.67071815  1
  Ni  Ni32  1  0.17118872  0.50424105  0.83750201  1
  Ni  Ni33  1  0.17053900  0.83815062  0.50433801  1
  Fe  Fe34  1  0.00424698  0.67058948  0.67033258  1
  Ni  Ni35  1  0.17033617  0.83807836  0.83707592  1
  Ni  Ni36  1  0.50360951  0.17149750  0.50386069  1
  Fe  Fe37  1  0.33714506  0.00451031  0.67051831  1
  Fe  Fe38  1  0.50408644  0.17114665  0.83672345  1
  Ni  Ni39  1  0.50478052  0.50292821  0.50328460  1
  Ni  Ni40  1  0.33638595  0.33925902  0.67153000  1
  Ni  Ni41  1  0.50414792  0.50356601  0.83732689  1
  Ni  Ni42  1  0.50289376  0.83782578  0.50377797  1
  Ni  Ni43  1  0.33795814  0.66993088  0.67120391  1
  Fe  Fe44  1  0.50423263  0.83640115  0.83749063  1
  Fe  Fe45  1  0.83635850  0.17001261  0.50361622  1
  Ni  Ni46  1  0.67151036  1.00340882  0.67176338  1
  Ni  Ni47  1  0.83814625  0.17097911  0.83684260  1
  Ni  Ni48  1  0.83692561  0.50378068  0.50424178  1
  Fe  Fe49  1  0.67009102  0.33792138  0.67024481  1
  Ni  Ni50  1  0.83691459  0.50352951  0.83743167  1
  Ni  Ni51  1  0.83882124  0.83697789  0.50296338  1
  Fe  Fe52  1  0.67059072  0.66989528  0.67117467  1
  Ni  Ni53  1  0.83882082  0.83774307  0.83809739  1
" 