2363,Ni38Fe60Cr0_3,-237.199454332521, 212.655184751773,Ni38Fe60Cr0,"# generated using pymatgen
 data_Cr(Fe8Ni5)2
_symmetry_space_group_name_H-M   'P 1'
_cell_length_a   7.40284490
_cell_length_b   7.40284490
_cell_length_c   10.46920365
_cell_angle_alpha   90.00000000
_cell_angle_beta   90.00000000
_cell_angle_gamma   90.00000000
_symmetry_Int_Tables_number   1
_chemical_formula_structural   Cr(Fe8Ni5)2
_chemical_formula_sum   'Cr2 Fe32 Ni20'
_cell_volume   573.73447684
_cell_formula_units_Z   2
loop_
 _symmetry_equiv_pos_site_id
 _symmetry_equiv_pos_as_xyz
  1  'x, y, z'
loop_
 _atom_site_type_symbol
 _atom_site_label
 _atom_site_symmetry_multiplicity
 _atom_site_fract_x
 _atom_site_fract_y
 _atom_site_fract_z
 _atom_site_occupancy
  Fe  Fe0  1  1.00395134  1.00167623  0.00442563  1
  Ni  Ni1  1  0.17315094  0.16963218  0.17019006  1
  Ni  Ni2  1  0.00596770  0.00445697  0.33725450  1
  Cr  Cr3  1  0.00440468  0.33621493  0.00449358  1
  Ni  Ni4  1  0.17032466  0.50542594  0.17195025  1
  Fe  Fe5  1  0.00521377  0.33623763  0.33745943  1
  Fe  Fe6  1  1.00375360  0.67257944  0.00482655  1
  Ni  Ni7  1  0.17013329  0.83760363  0.17080555  1
  Fe  Fe8  1  1.00424491  0.67139955  0.33744125  1
  Ni  Ni9  1  0.33642425  1.00199373  0.00436410  1
  Ni  Ni10  1  0.50470310  0.17075809  0.17139178  1
  Ni  Ni11  1  0.33632074  1.00294995  0.33891531  1
  Fe  Fe12  1  0.33973979  0.33812820  0.00605524  1
  Fe  Fe13  1  0.50267437  0.50382420  0.17138181  1
  Fe  Fe14  1  0.33754539  0.33597465  0.33777699  1
  Ni  Ni15  1  0.33761731  0.67221697  1.00430842  1
  Fe  Fe16  1  0.50184423  0.83851006  0.17051638  1
  Fe  Fe17  1  0.33808930  0.67149917  0.33731685  1
  Ni  Ni18  1  0.67071054  1.00386283  0.00560032  1
  Fe  Fe19  1  0.83747645  0.17001069  0.17221908  1
  Fe  Fe20  1  0.67030683  0.00489621  0.33701912  1
  Ni  Ni21  1  0.67202399  0.33907772  1.00409537  1
  Fe  Fe22  1  0.83700601  0.50469170  0.17240346  1
  Ni  Ni23  1  0.67147695  0.33936049  0.33782982  1
  Ni  Ni24  1  0.66963897  0.67035165  0.00445000  1
  Fe  Fe25  1  0.83834205  0.83841121  0.17095781  1
  Fe  Fe26  1  0.67077444  0.67244258  0.33804962  1
  Ni  Ni27  1  0.17007757  0.17042274  0.50410172  1
  Ni  Ni28  1  0.00545419  0.00480175  0.67145528  1
  Ni  Ni29  1  0.17075244  0.16990650  0.83881929  1
  Fe  Fe30  1  0.17206388  0.50467876  0.50362176  1
  Fe  Fe31  1  0.00494029  0.33706209  0.67112216  1
  Fe  Fe32  1  0.17326190  0.50567276  0.83784063  1
  Fe  Fe33  1  0.17084997  0.83715637  0.50429735  1
  Fe  Fe34  1  1.00424107  0.67151725  0.67088934  1
  Ni  Ni35  1  0.17065702  0.83809304  0.83790393  1
  Fe  Fe36  1  0.50453580  0.17198068  0.50321539  1
  Fe  Fe37  1  0.33602954  1.00270994  0.67029870  1
  Cr  Cr38  1  0.50340940  0.17009317  0.83760142  1
  Ni  Ni39  1  0.50608795  0.50562041  0.50441854  1
  Fe  Fe40  1  0.33528964  0.33762489  0.66946362  1
  Fe  Fe41  1  0.50309095  0.50601480  0.83710882  1
  Ni  Ni42  1  0.50501058  0.83770037  0.50417468  1
  Fe  Fe43  1  0.33786578  0.67250292  0.67140761  1
  Ni  Ni44  1  0.50483586  0.83687375  0.83838528  1
  Fe  Fe45  1  0.83737234  0.17095805  0.50405373  1
  Fe  Fe46  1  0.67179478  1.00222579  0.67075169  1
  Fe  Fe47  1  0.83781818  0.16819609  0.83700473  1
  Ni  Ni48  1  0.83821679  0.50490371  0.50366905  1
  Fe  Fe49  1  0.67275462  0.33839846  0.66958620  1
  Fe  Fe50  1  0.83666272  0.50567182  0.83639795  1
  Fe  Fe51  1  0.83843526  0.83809001  0.50426952  1
  Fe  Fe52  1  0.67131189  0.67217465  0.67083681  1
  Fe  Fe53  1  0.83748311  0.83892577  0.83796963  1
" 