1271,Ni38Fe19Cr41_8,-222.743624736248, 167.842275079427,Ni38Fe19Cr41,"# generated using pymatgen
 data_Cr12(FeNi2)5
_symmetry_space_group_name_H-M   'P 1'
_cell_length_a   7.49527345
_cell_length_b   7.49527345
_cell_length_c   10.59991737
_cell_angle_alpha   90.00000000
_cell_angle_beta   90.00000000
_cell_angle_gamma   90.00000000
_symmetry_Int_Tables_number   1
_chemical_formula_structural   Cr12(FeNi2)5
_chemical_formula_sum   'Cr24 Fe10 Ni20'
_cell_volume   595.49407428
_cell_formula_units_Z   2
loop_
 _symmetry_equiv_pos_site_id
 _symmetry_equiv_pos_as_xyz
  1  'x, y, z'
loop_
 _atom_site_type_symbol
 _atom_site_label
 _atom_site_symmetry_multiplicity
 _atom_site_fract_x
 _atom_site_fract_y
 _atom_site_fract_z
 _atom_site_occupancy
  Cr  Cr0  1  -0.00043214  0.99613543  0.99389822  1
  Cr  Cr1  1  0.16452929  0.16567855  0.16629826  1
  Ni  Ni2  1  0.00118974  -0.00006220  0.33417201  1
  Fe  Fe3  1  0.99642888  0.33581910  -0.00132118  1
  Ni  Ni4  1  0.16326701  0.49970009  0.16650930  1
  Ni  Ni5  1  0.00141154  0.33284503  0.33095882  1
  Ni  Ni6  1  0.00035136  0.66332745  -0.00121598  1
  Cr  Cr7  1  0.16483589  0.82857246  0.16362937  1
  Fe  Fe8  1  -0.00065042  0.66242401  0.33235601  1
  Fe  Fe9  1  0.33196278  0.99439641  0.99634331  1
  Cr  Cr10  1  0.49822304  0.16373184  0.16556545  1
  Fe  Fe11  1  0.33043250  0.99680525  0.33488595  1
  Cr  Cr12  1  0.33103089  0.33333459  0.00018804  1
  Cr  Cr13  1  0.49518435  0.50001994  0.16366133  1
  Fe  Fe14  1  0.32973283  0.33281201  0.33323538  1
  Ni  Ni15  1  0.32904355  0.66509672  0.99564559  1
  Cr  Cr16  1  0.49732023  0.83104852  0.16795383  1
  Ni  Ni17  1  0.32929387  0.66503098  0.33288137  1
  Cr  Cr18  1  0.66444930  0.99769903  0.99563854  1
  Cr  Cr19  1  0.83204198  0.16387606  0.16326244  1
  Ni  Ni20  1  0.66333651  0.99753693  0.33378253  1
  Ni  Ni21  1  0.66702018  0.33335222  0.99558308  1
  Fe  Fe22  1  0.83383425  0.49851102  0.16439081  1
  Cr  Cr23  1  0.66644786  0.33315963  0.33101471  1
  Cr  Cr24  1  0.66555329  0.66383934  0.99650091  1
  Cr  Cr25  1  0.83288253  0.83063360  0.17030429  1
  Ni  Ni26  1  0.66231129  0.66489295  0.33280003  1
  Fe  Fe27  1  0.16544260  0.16489551  0.49700174  1
  Ni  Ni28  1  -0.00037701  0.99691479  0.66581388  1
  Cr  Cr29  1  0.16360153  0.16586182  0.82990393  1
  Ni  Ni30  1  0.16677130  0.49944954  0.49593528  1
  Cr  Cr31  1  -0.00126820  0.33154641  0.66345292  1
  Cr  Cr32  1  0.16745016  0.49920404  0.83080842  1
  Ni  Ni33  1  0.16428280  0.82925554  0.49764807  1
  Cr  Cr34  1  -0.00040270  0.66589692  0.66368169  1
  Fe  Fe35  1  0.16508454  0.82931929  0.83078498  1
  Ni  Ni36  1  0.49588786  0.16498501  0.49599859  1
  Cr  Cr37  1  0.32952328  0.99576259  0.66304628  1
  Cr  Cr38  1  0.49689419  0.16810419  0.83222057  1
  Cr  Cr39  1  0.49532697  0.49886987  0.50087867  1
  Ni  Ni40  1  0.33062358  0.33261250  0.66094502  1
  Ni  Ni41  1  0.49699514  0.50052351  0.83075330  1
  Fe  Fe42  1  0.49507129  0.83101101  0.49641129  1
  Ni  Ni43  1  0.33044646  0.66432844  0.66541091  1
  Ni  Ni44  1  0.49614594  0.82787145  0.83119826  1
  Cr  Cr45  1  0.83159491  0.16249068  0.49928822  1
  Cr  Cr46  1  0.66501570  0.99694730  0.66620596  1
  Ni  Ni47  1  0.83286829  0.16498298  0.83201866  1
  Fe  Fe48  1  0.83373544  0.49842077  0.49623423  1
  Cr  Cr49  1  0.66446816  0.33287141  0.66767493  1
  Ni  Ni50  1  0.83227178  0.49888553  0.83421071  1
  Cr  Cr51  1  0.83241499  0.83130993  0.49486846  1
  Cr  Cr52  1  0.66397674  0.66483196  0.66641504  1
  Ni  Ni53  1  0.83344475  0.83095292  0.83059043  1
" 