6385,Ni38Fe39Cr22_9,-230.49731350282, 187.978178243038,Ni38Fe39Cr22,"# generated using pymatgen
 data_Cr13Fe21Ni20
_symmetry_space_group_name_H-M   'P 1'
_cell_length_a   7.44787140
_cell_length_b   7.44787140
_cell_length_c   10.53288075
_cell_angle_alpha   90.00000000
_cell_angle_beta   90.00000000
_cell_angle_gamma   90.00000000
_symmetry_Int_Tables_number   1
_chemical_formula_structural   Cr13Fe21Ni20
_chemical_formula_sum   'Cr13 Fe21 Ni20'
_cell_volume   584.26719974
_cell_formula_units_Z   1
loop_
 _symmetry_equiv_pos_site_id
 _symmetry_equiv_pos_as_xyz
  1  'x, y, z'
loop_
 _atom_site_type_symbol
 _atom_site_label
 _atom_site_symmetry_multiplicity
 _atom_site_fract_x
 _atom_site_fract_y
 _atom_site_fract_z
 _atom_site_occupancy
  Ni  Ni0  1  0.00400091  0.99971654  0.00304865  1
  Fe  Fe1  1  0.16922817  0.16820931  0.16659876  1
  Fe  Fe2  1  0.00247338  1.00047423  0.33464370  1
  Fe  Fe3  1  0.00482138  0.33485830  0.00225491  1
  Ni  Ni4  1  0.16780768  0.50166770  0.16720511  1
  Cr  Cr5  1  0.00347579  0.33572280  0.33263348  1
  Ni  Ni6  1  0.00434986  0.66829711  0.00237086  1
  Fe  Fe7  1  0.16945022  0.83360514  0.16824911  1
  Fe  Fe8  1  0.00155407  0.66749490  0.33465363  1
  Fe  Fe9  1  0.33036513  1.00086453  0.00155473  1
  Cr  Cr10  1  0.49859244  0.16881935  0.16951149  1
  Fe  Fe11  1  0.33317713  0.00199679  0.33561495  1
  Ni  Ni12  1  0.33144491  0.33689017  0.00130084  1
  Ni  Ni13  1  0.49893552  0.50323374  0.16981806  1
  Ni  Ni14  1  0.33405770  0.33640021  0.33581068  1
  Fe  Fe15  1  0.33212438  0.66710749  0.00266712  1
  Ni  Ni16  1  0.50021147  0.83247917  0.16783661  1
  Fe  Fe17  1  0.33461572  0.66479291  0.33446685  1
  Cr  Cr18  1  0.66841650  0.99968932  0.00226314  1
  Fe  Fe19  1  0.83691664  0.16865735  0.16801765  1
  Cr  Cr20  1  0.66918692  1.00087356  0.33467032  1
  Cr  Cr21  1  0.66662045  0.33626846  0.00318138  1
  Fe  Fe22  1  0.83385604  0.50371139  0.16822298  1
  Ni  Ni23  1  0.66674055  0.33679900  0.33586616  1
  Fe  Fe24  1  0.66859073  0.66738714  0.00415306  1
  Fe  Fe25  1  0.83660126  0.83135500  0.16773674  1
  Ni  Ni26  1  0.66802489  0.66682588  0.33270117  1
  Fe  Fe27  1  0.17022205  0.16893850  0.50263086  1
  Ni  Ni28  1  0.00477982  0.00169507  0.66595695  1
  Ni  Ni29  1  0.16705908  0.16829938  0.83508724  1
  Ni  Ni30  1  0.16716374  0.50175821  0.50187716  1
  Ni  Ni31  1  0.00432544  0.33518434  0.66832846  1
  Ni  Ni32  1  0.16695397  0.50089335  0.83475336  1
  Fe  Fe33  1  0.16813440  0.83393199  0.50205942  1
  Ni  Ni34  1  0.00411569  0.66694724  0.66603113  1
  Fe  Fe35  1  0.16690399  0.83433278  0.83370637  1
  Ni  Ni36  1  0.49998369  0.16995123  0.50159486  1
  Ni  Ni37  1  0.33119947  0.00162948  0.66829362  1
  Cr  Cr38  1  0.49706816  0.16853451  0.83260613  1
  Ni  Ni39  1  0.50013073  0.50036649  0.50064678  1
  Fe  Fe40  1  0.33100917  0.33566527  0.66615409  1
  Cr  Cr41  1  0.49871676  0.50230005  0.83310697  1
  Cr  Cr42  1  0.50000020  0.83267860  0.50122492  1
  Ni  Ni43  1  0.33208686  0.66671426  0.66796006  1
  Cr  Cr44  1  0.49908199  0.83308002  0.83544110  1
  Fe  Fe45  1  0.83577866  0.17095465  0.50201703  1
  Cr  Cr46  1  0.66793100  0.00185468  0.66679621  1
  Cr  Cr47  1  0.83913847  0.16837760  0.83419826  1
  Fe  Fe48  1  0.83333547  0.50180638  0.50198376  1
  Fe  Fe49  1  0.66865711  0.33647244  0.66458438  1
  Cr  Cr50  1  0.83837971  0.50276030  0.83383669  1
  Fe  Fe51  1  0.83678012  0.83122564  0.50169552  1
  Ni  Ni52  1  0.66754497  0.66613943  0.66663773  1
  Cr  Cr53  1  0.83739697  0.83282814  0.83325631  1
" 