6591,Ni38Fe60Cr0_2,-237.146418841211, 212.190122089608,Ni38Fe60Cr0,"# generated using pymatgen
 data_Cr(Fe8Ni5)2
_symmetry_space_group_name_H-M   'P 1'
_cell_length_a   7.40468710
_cell_length_b   7.40468710
_cell_length_c   10.47180892
_cell_angle_alpha   90.00000000
_cell_angle_beta   90.00000000
_cell_angle_gamma   90.00000000
_symmetry_Int_Tables_number   1
_chemical_formula_structural   Cr(Fe8Ni5)2
_chemical_formula_sum   'Cr2 Fe32 Ni20'
_cell_volume   574.16290529
_cell_formula_units_Z   2
loop_
 _symmetry_equiv_pos_site_id
 _symmetry_equiv_pos_as_xyz
  1  'x, y, z'
loop_
 _atom_site_type_symbol
 _atom_site_label
 _atom_site_symmetry_multiplicity
 _atom_site_fract_x
 _atom_site_fract_y
 _atom_site_fract_z
 _atom_site_occupancy
  Fe  Fe0  1  1.00365378  0.00466508  1.00408199  1
  Fe  Fe1  1  0.17151307  0.17010596  0.17055779  1
  Fe  Fe2  1  1.00349027  1.00289699  0.33668711  1
  Ni  Ni3  1  0.00436473  0.33704139  1.00363506  1
  Fe  Fe4  1  0.17124486  0.50508797  0.17086391  1
  Fe  Fe5  1  1.00305540  0.33879759  0.33725109  1
  Fe  Fe6  1  1.00363238  0.67010338  0.00472625  1
  Ni  Ni7  1  0.17160200  0.83774753  0.17093292  1
  Ni  Ni8  1  0.00452030  0.67124371  0.33793080  1
  Fe  Fe9  1  0.33772486  0.00454853  0.00482362  1
  Fe  Fe10  1  0.50388541  0.17011036  0.17200568  1
  Ni  Ni11  1  0.33862801  1.00363839  0.33766001  1
  Fe  Fe12  1  0.33779270  0.33811669  1.00366395  1
  Fe  Fe13  1  0.50418852  0.50511945  0.17063634  1
  Ni  Ni14  1  0.33831345  0.33766353  0.33654599  1
  Fe  Fe15  1  0.33800759  0.66997062  1.00398526  1
  Ni  Ni16  1  0.50393621  0.83717823  0.17109238  1
  Ni  Ni17  1  0.33674393  0.67132742  0.33797927  1
  Fe  Fe18  1  0.67125235  0.00445253  0.00472013  1
  Fe  Fe19  1  0.83724056  0.17034123  0.17107789  1
  Ni  Ni20  1  0.67062312  0.00454904  0.33738458  1
  Ni  Ni21  1  0.67147657  0.33779848  1.00294304  1
  Fe  Fe22  1  0.83720121  0.50515305  0.17118300  1
  Ni  Ni23  1  0.67070461  0.33653067  0.33854459  1
  Ni  Ni24  1  0.67065222  0.67110638  1.00399048  1
  Fe  Fe25  1  0.83720800  0.83713825  0.17107470  1
  Ni  Ni26  1  0.67136739  0.67155456  0.33784515  1
  Cr  Cr27  1  0.17051254  0.17007181  0.50221614  1
  Fe  Fe28  1  1.00406359  1.00390952  0.67185771  1
  Ni  Ni29  1  0.16959025  0.17047753  0.83877736  1
  Fe  Fe30  1  0.16976806  0.50584866  0.50380930  1
  Ni  Ni31  1  1.00203685  0.33772852  0.67178422  1
  Ni  Ni32  1  0.17034213  0.50421569  0.83827440  1
  Fe  Fe33  1  0.17079355  0.83603583  0.50346645  1
  Fe  Fe34  1  0.00489499  0.67002565  0.67033987  1
  Fe  Fe35  1  0.17160997  0.83699848  0.83760313  1
  Ni  Ni36  1  0.50665783  0.16975238  0.50319070  1
  Fe  Fe37  1  0.33780926  1.00227400  0.67134807  1
  Fe  Fe38  1  0.50425138  0.17106886  0.83805134  1
  Fe  Fe39  1  0.50549491  0.50409862  0.50340854  1
  Cr  Cr40  1  0.33732254  0.33865486  0.67188086  1
  Ni  Ni41  1  0.50513450  0.50553853  0.83852215  1
  Fe  Fe42  1  0.50474319  0.83805398  0.50340022  1
  Ni  Ni43  1  0.33721683  0.67267048  0.67080202  1
  Fe  Fe44  1  0.50330587  0.83668972  0.83789641  1
  Ni  Ni45  1  0.83576415  0.17194756  0.50424907  1
  Fe  Fe46  1  0.67075413  0.00475518  0.67001835  1
  Fe  Fe47  1  0.83829237  0.17231008  0.83731135  1
  Ni  Ni48  1  0.83711776  0.50402407  0.50464318  1
  Fe  Fe49  1  0.67236478  0.33789655  0.67039261  1
  Fe  Fe50  1  0.83798256  0.50335465  0.83761374  1
  Fe  Fe51  1  0.83709757  0.83804573  0.50381420  1
  Fe  Fe52  1  0.67072762  0.66998583  0.67114794  1
  Fe  Fe53  1  0.83771489  0.83696777  0.83774524  1
" 