6969,Ni38Fe62_10,-242.850186225462, 225.164572775439,Ni38Fe62,"# generated using pymatgen
 data_Fe10Ni17
_symmetry_space_group_name_H-M   'P 1'
_cell_length_a   7.40459900
_cell_length_b   7.40459900
_cell_length_c   10.47168433
_cell_angle_alpha   90.00000000
_cell_angle_beta   90.00000000
_cell_angle_gamma   90.00000000
_symmetry_Int_Tables_number   1
_chemical_formula_structural   Fe10Ni17
_chemical_formula_sum   'Fe20 Ni34'
_cell_volume   574.14241206
_cell_formula_units_Z   2
loop_
 _symmetry_equiv_pos_site_id
 _symmetry_equiv_pos_as_xyz
  1  'x, y, z'
loop_
 _atom_site_type_symbol
 _atom_site_label
 _atom_site_symmetry_multiplicity
 _atom_site_fract_x
 _atom_site_fract_y
 _atom_site_fract_z
 _atom_site_occupancy
  Ni  Ni0  1  0.00496179  0.00422340  0.00469195  1
  Ni  Ni1  1  0.17142561  0.17044737  0.17096282  1
  Fe  Fe2  1  0.00490665  1.00406145  0.33770572  1
  Ni  Ni3  1  1.00288184  0.33799905  1.00396208  1
  Ni  Ni4  1  0.17034191  0.50334694  0.17065557  1
  Ni  Ni5  1  1.00327969  0.33903592  0.33753900  1
  Ni  Ni6  1  0.00529532  0.67042887  1.00396882  1
  Ni  Ni7  1  0.17108951  0.83885484  0.17074636  1
  Ni  Ni8  1  0.00570540  0.66958070  0.33764345  1
  Ni  Ni9  1  0.33784238  1.00302150  1.00364099  1
  Fe  Fe10  1  0.50378420  0.17169122  0.17067971  1
  Ni  Ni11  1  0.33883985  1.00282478  0.33821629  1
  Fe  Fe12  1  0.33638703  0.33717050  1.00371785  1
  Ni  Ni13  1  0.50545012  0.50403264  0.17070824  1
  Fe  Fe14  1  0.33701320  0.33762825  0.33797296  1
  Ni  Ni15  1  0.33713606  0.67200295  1.00366437  1
  Fe  Fe16  1  0.50234246  0.83681595  0.17118559  1
  Ni  Ni17  1  0.33642300  0.67200228  0.33820736  1
  Fe  Fe18  1  0.67108442  1.00386839  1.00338490  1
  Fe  Fe19  1  0.83828597  0.17245868  0.17095821  1
  Ni  Ni20  1  0.66931081  0.00524000  0.33707359  1
  Ni  Ni21  1  0.67142173  0.33728864  1.00319085  1
  Ni  Ni22  1  0.83685895  0.50437041  0.17096802  1
  Ni  Ni23  1  0.67173349  0.33662597  0.33891547  1
  Fe  Fe24  1  0.67161874  0.67062031  1.00326287  1
  Fe  Fe25  1  0.83904611  0.83673546  0.17081027  1
  Fe  Fe26  1  0.67103871  0.67065289  0.33835543  1
  Ni  Ni27  1  0.17154737  0.17111121  0.50377079  1
  Ni  Ni28  1  1.00356727  1.00403503  0.67022147  1
  Ni  Ni29  1  0.17208023  0.17109334  0.83791700  1
  Ni  Ni30  1  0.16960480  0.50289682  0.50372398  1
  Ni  Ni31  1  0.00493067  0.33791192  0.67114658  1
  Fe  Fe32  1  0.17061820  0.50426173  0.83739806  1
  Ni  Ni33  1  0.17118020  0.83864389  0.50487655  1
  Ni  Ni34  1  1.00390319  0.67070136  0.67103935  1
  Fe  Fe35  1  0.17049450  0.83801307  0.83838111  1
  Fe  Fe36  1  0.50413997  0.17012254  0.50442262  1
  Fe  Fe37  1  0.33712252  0.00447265  0.67096103  1
  Ni  Ni38  1  0.50261564  0.16988955  0.83781915  1
  Fe  Fe39  1  0.50356005  0.50518172  0.50371634  1
  Ni  Ni40  1  0.33726687  0.33753069  0.67079610  1
  Fe  Fe41  1  0.50467567  0.50414454  0.83812452  1
  Ni  Ni42  1  0.50507340  0.83831463  0.50399749  1
  Fe  Fe43  1  0.33727511  0.67123892  0.67034982  1
  Ni  Ni44  1  0.50540092  0.83872470  0.83803067  1
  Fe  Fe45  1  0.83836592  0.17030235  0.50399370  1
  Ni  Ni46  1  0.67057916  1.00352190  0.67147244  1
  Fe  Fe47  1  0.83728635  0.17030230  0.83769898  1
  Ni  Ni48  1  0.83762842  0.50482575  0.50396302  1
  Fe  Fe49  1  0.67197077  0.33793245  0.67126532  1
  Ni  Ni50  1  0.83758146  0.50524801  0.83772052  1
  Ni  Ni51  1  0.83639671  0.83637457  0.50391949  1
  Ni  Ni52  1  0.67096189  0.67193343  0.67044037  1
  Ni  Ni53  1  0.83637934  0.83595309  0.83775632  1
" 