5153,Ni38Fe61Cr0_18,-238.174653506341, 218.221672193609,Ni38Fe61Cr0,"# generated using pymatgen
 data_CrFe33Ni20
_symmetry_space_group_name_H-M   'P 1'
_cell_length_a   7.40012804
_cell_length_b   7.40012804
_cell_length_c   10.46536143
_cell_angle_alpha   90.00000000
_cell_angle_beta   90.00000000
_cell_angle_gamma   90.00000000
_symmetry_Int_Tables_number   1
_chemical_formula_structural   CrFe33Ni20
_chemical_formula_sum   'Cr1 Fe33 Ni20'
_cell_volume   573.10302364
_cell_formula_units_Z   1
loop_
 _symmetry_equiv_pos_site_id
 _symmetry_equiv_pos_as_xyz
  1  'x, y, z'
loop_
 _atom_site_type_symbol
 _atom_site_label
 _atom_site_symmetry_multiplicity
 _atom_site_fract_x
 _atom_site_fract_y
 _atom_site_fract_z
 _atom_site_occupancy
  Ni  Ni0  1  1.00387614  0.00520954  1.00396490  1
  Ni  Ni1  1  0.17080116  0.17152866  0.17084957  1
  Fe  Fe2  1  1.00363205  1.00434026  0.33755984  1
  Fe  Fe3  1  0.00473658  0.33756648  0.00470405  1
  Fe  Fe4  1  0.17218943  0.50442831  0.17118515  1
  Ni  Ni5  1  0.00568295  0.33873994  0.33815334  1
  Fe  Fe6  1  0.00458774  0.67166351  1.00428602  1
  Fe  Fe7  1  0.17198675  0.83774434  0.17098256  1
  Ni  Ni8  1  1.00423187  0.66961013  0.33772714  1
  Fe  Fe9  1  0.33816886  1.00406543  0.00486893  1
  Fe  Fe10  1  0.50410537  0.17098562  0.17105485  1
  Fe  Fe11  1  0.33773105  1.00406610  0.33772271  1
  Ni  Ni12  1  0.33683589  0.33857529  1.00382059  1
  Ni  Ni13  1  0.50404796  0.50580890  0.17127685  1
  Fe  Fe14  1  0.33763666  0.33840581  0.33723062  1
  Ni  Ni15  1  0.33828606  0.66977625  1.00415421  1
  Ni  Ni16  1  0.50505806  0.83690152  0.17075421  1
  Fe  Fe17  1  0.33805904  0.67109234  0.33730417  1
  Ni  Ni18  1  0.67184483  1.00376010  1.00381796  1
  Fe  Fe19  1  0.83741713  0.17078366  0.17111836  1
  Ni  Ni20  1  0.67058846  1.00376121  0.33855785  1
  Fe  Fe21  1  0.67071282  0.33792799  1.00438032  1
  Fe  Fe22  1  0.83737665  0.50492645  0.17226041  1
  Fe  Fe23  1  0.67232747  0.33858515  0.33819962  1
  Ni  Ni24  1  0.67055843  0.67207167  1.00403637  1
  Fe  Fe25  1  0.83697342  0.83785581  0.17111491  1
  Ni  Ni26  1  0.67163773  0.67217019  0.33867990  1
  Fe  Fe27  1  0.16899213  0.17269093  0.50296545  1
  Fe  Fe28  1  1.00173316  1.00452139  0.67185709  1
  Fe  Fe29  1  0.16949905  0.17204088  0.83961551  1
  Ni  Ni30  1  0.17193334  0.50426989  0.50378367  1
  Fe  Fe31  1  1.00414116  0.33740429  0.67046035  1
  Ni  Ni32  1  0.17279171  0.50426955  0.83859136  1
  Fe  Fe33  1  0.16891795  0.83635074  0.50363644  1
  Fe  Fe34  1  1.00428136  0.67163820  0.67046072  1
  Fe  Fe35  1  0.16942648  0.83700133  0.83894663  1
  Fe  Fe36  1  0.50653539  0.17199715  0.50398027  1
  Cr  Cr37  1  0.33841637  0.00494534  0.67245102  1
  Fe  Fe38  1  0.50595650  0.17188939  0.83853130  1
  Fe  Fe39  1  0.50552909  0.50465211  0.50404073  1
  Fe  Fe40  1  0.33797675  0.33946072  0.67171406  1
  Fe  Fe41  1  0.50465536  0.50465083  0.83895378  1
  Fe  Fe42  1  0.50673374  0.83691785  0.50311277  1
  Fe  Fe43  1  0.33783620  0.66958434  0.67171399  1
  Fe  Fe44  1  0.50615600  0.83702492  0.83939916  1
  Ni  Ni45  1  0.83766760  0.16995414  0.50445109  1
  Ni  Ni46  1  0.67291094  1.00435115  0.67118737  1
  Ni  Ni47  1  0.83757864  0.16927234  0.83782837  1
  Ni  Ni48  1  0.83845638  0.50460513  0.50493112  1
  Fe  Fe49  1  0.67145312  0.33690688  0.67098653  1
  Fe  Fe50  1  0.83813405  0.50472516  0.83752944  1
  Ni  Ni51  1  0.83699792  0.83900497  0.50445229  1
  Fe  Fe52  1  0.67145181  0.67199410  0.67098677  1
  Ni  Ni53  1  0.83690899  0.83968738  0.83782908  1
" 