4183,Ni38Cr62_1,-224.557601996057, 142.691261460478,Ni38Cr62,"# generated using pymatgen
 data_Cr10Ni17
_symmetry_space_group_name_H-M   'P 1'
_cell_length_a   7.49981463
_cell_length_b   7.49981463
_cell_length_c   10.60633956
_cell_angle_alpha   90.00000000
_cell_angle_beta   90.00000000
_cell_angle_gamma   90.00000000
_symmetry_Int_Tables_number   1
_chemical_formula_structural   Cr10Ni17
_chemical_formula_sum   'Cr20 Ni34'
_cell_volume   596.57710872
_cell_formula_units_Z   2
loop_
 _symmetry_equiv_pos_site_id
 _symmetry_equiv_pos_as_xyz
  1  'x, y, z'
loop_
 _atom_site_type_symbol
 _atom_site_label
 _atom_site_symmetry_multiplicity
 _atom_site_fract_x
 _atom_site_fract_y
 _atom_site_fract_z
 _atom_site_occupancy
  Cr  Cr0  1  0.00048003  0.99525272  0.99662204  1
  Ni  Ni1  1  0.16538954  0.16549010  0.16126243  1
  Cr  Cr2  1  0.00162826  0.99606052  0.32985163  1
  Ni  Ni3  1  -0.00082222  0.33203677  0.99719746  1
  Ni  Ni4  1  0.16557089  0.49945554  0.16286730  1
  Cr  Cr5  1  0.00024351  0.33402524  0.33079752  1
  Cr  Cr6  1  -0.00083168  0.66356383  0.99743341  1
  Ni  Ni7  1  0.16509296  0.82831213  0.16452503  1
  Ni  Ni8  1  -0.00145808  0.66466402  0.32939297  1
  Ni  Ni9  1  0.32896253  0.99718522  0.99547275  1
  Cr  Cr10  1  0.49707692  0.16552248  0.16091510  1
  Cr  Cr11  1  0.33013057  0.99606543  0.33202823  1
  Ni  Ni12  1  0.32894701  0.33192688  -0.00217325  1
  Ni  Ni13  1  0.49631189  0.49940261  0.16355196  1
  Cr  Cr14  1  0.32978457  0.33387894  0.33237130  1
  Ni  Ni15  1  0.32937492  0.66477751  -0.00190583  1
  Cr  Cr16  1  0.49703435  0.82939627  0.16442414  1
  Ni  Ni17  1  0.33080622  0.66482260  0.33090270  1
  Cr  Cr18  1  0.66407675  0.99529758  0.99338358  1
  Cr  Cr19  1  0.83081117  0.16353408  0.16397334  1
  Ni  Ni20  1  0.66397003  0.99311342  0.33108677  1
  Ni  Ni21  1  0.66515577  0.33271414  0.99636084  1
  Ni  Ni22  1  0.83157980  0.49933975  0.16465808  1
  Cr  Cr23  1  0.66314082  0.33513607  0.33278347  1
  Cr  Cr24  1  0.66510477  0.66369137  0.99600135  1
  Ni  Ni25  1  0.83237456  0.82744249  0.16774165  1
  Ni  Ni26  1  0.66392357  0.66415740  0.33158243  1
  Ni  Ni27  1  0.16605482  0.16207563  0.50147735  1
  Ni  Ni28  1  0.00186300  0.99570987  0.66669235  1
  Ni  Ni29  1  0.16613078  0.16468071  0.83101992  1
  Cr  Cr30  1  0.16453384  0.50193156  0.50101264  1
  Cr  Cr31  1  -0.00147641  0.33140358  0.66558174  1
  Ni  Ni32  1  0.16403554  0.49832558  0.83121770  1
  Ni  Ni33  1  0.16637226  0.83014380  0.49962647  1
  Ni  Ni34  1  -0.00168849  0.66630979  0.66669019  1
  Ni  Ni35  1  0.16638433  0.83019682  0.82907911  1
  Cr  Cr36  1  0.49663510  0.16277508  0.49907124  1
  Ni  Ni37  1  0.32847229  0.99618597  0.66556644  1
  Ni  Ni38  1  0.49453047  0.16434163  0.83280754  1
  Ni  Ni39  1  0.49697316  0.50326335  0.49893814  1
  Ni  Ni40  1  0.33007453  0.33078683  0.66486286  1
  Cr  Cr41  1  0.49364018  0.49872419  0.83165683  1
  Ni  Ni42  1  0.49600243  0.82697947  0.49821744  1
  Ni  Ni43  1  0.33097315  0.66647641  0.66472754  1
  Ni  Ni44  1  0.49392906  0.83124965  0.82989315  1
  Cr  Cr45  1  0.83340279  0.16292750  0.49713125  1
  Cr  Cr46  1  0.66251764  0.99547541  0.66825112  1
  Ni  Ni47  1  0.83257298  0.16533099  0.83239234  1
  Ni  Ni48  1  0.83024153  0.50269123  0.49799250  1
  Cr  Cr49  1  0.66322538  0.33497980  0.66493325  1
  Ni  Ni50  1  0.83277605  0.49839719  0.83052510  1
  Cr  Cr51  1  0.83302041  0.82938246  0.49738439  1
  Ni  Ni52  1  0.66412554  0.66511320  0.66458074  1
  Ni  Ni53  1  0.83285400  0.82991301  0.82759807  1
" 