5583,Ni38Fe39Cr22_1,-230.7646072404, 198.730241262352,Ni38Fe39Cr22,"# generated using pymatgen
 data_Cr13Fe21Ni20
_symmetry_space_group_name_H-M   'P 1'
_cell_length_a   7.44597575
_cell_length_b   7.44597575
_cell_length_c   10.53019989
_cell_angle_alpha   90.00000000
_cell_angle_beta   90.00000000
_cell_angle_gamma   90.00000000
_symmetry_Int_Tables_number   1
_chemical_formula_structural   Cr13Fe21Ni20
_chemical_formula_sum   'Cr13 Fe21 Ni20'
_cell_volume   583.82118472
_cell_formula_units_Z   1
loop_
 _symmetry_equiv_pos_site_id
 _symmetry_equiv_pos_as_xyz
  1  'x, y, z'
loop_
 _atom_site_type_symbol
 _atom_site_label
 _atom_site_symmetry_multiplicity
 _atom_site_fract_x
 _atom_site_fract_y
 _atom_site_fract_z
 _atom_site_occupancy
  Cr  Cr0  1  0.00265461  0.00187118  0.00212308  1
  Ni  Ni1  1  0.17020100  0.16582629  0.16881013  1
  Fe  Fe2  1  0.00270187  1.00112373  0.33173978  1
  Fe  Fe3  1  0.00293405  0.33438234  0.00307395  1
  Fe  Fe4  1  0.16786612  0.49991883  0.16675648  1
  Cr  Cr5  1  0.00255672  0.33694279  0.33278508  1
  Ni  Ni6  1  0.00397379  0.66572905  0.00280343  1
  Ni  Ni7  1  0.16844192  0.83539546  0.16794642  1
  Fe  Fe8  1  1.00113061  0.66732708  0.33280403  1
  Ni  Ni9  1  0.33420424  1.00060740  0.99977397  1
  Cr  Cr10  1  0.49874150  0.16996663  0.17047537  1
  Ni  Ni11  1  0.33331864  0.99980864  0.33608136  1
  Ni  Ni12  1  0.33267560  0.33526237  1.00116255  1
  Fe  Fe13  1  0.50163129  0.50041653  0.16774297  1
  Ni  Ni14  1  0.33199933  0.33508192  0.33555346  1
  Fe  Fe15  1  0.33323391  0.66966347  0.00175911  1
  Fe  Fe16  1  0.50087787  0.83544313  0.16927181  1
  Cr  Cr17  1  0.33330739  0.66736135  0.33395860  1
  Cr  Cr18  1  0.66625475  0.00213760  1.00042056  1
  Ni  Ni19  1  0.83456750  0.16995872  0.16779975  1
  Ni  Ni20  1  0.66837523  0.99971107  0.33307582  1
  Ni  Ni21  1  0.66903832  0.33502440  0.00160454  1
  Ni  Ni22  1  0.83248492  0.50301482  0.16742117  1
  Ni  Ni23  1  0.67036284  0.33654551  0.33423933  1
  Fe  Fe24  1  0.66711369  0.66728917  0.00453354  1
  Fe  Fe25  1  0.83625954  0.83447089  0.16925433  1
  Ni  Ni26  1  0.66929666  0.66806072  0.33382218  1
  Fe  Fe27  1  0.16873337  0.16770934  0.50186144  1
  Fe  Fe28  1  0.00561704  0.00195296  0.66909315  1
  Ni  Ni29  1  0.17058597  0.16742012  0.83432072  1
  Ni  Ni30  1  0.16719018  0.50204385  0.50356643  1
  Fe  Fe31  1  0.00475683  0.33435790  0.66753539  1
  Fe  Fe32  1  0.16782113  0.50219771  0.83445675  1
  Fe  Fe33  1  0.16957250  0.83478357  0.50243467  1
  Fe  Fe34  1  0.00507694  0.66809891  0.66792491  1
  Ni  Ni35  1  0.16955356  0.83555716  0.83425641  1
  Cr  Cr36  1  0.49856087  0.16746294  0.49885389  1
  Ni  Ni37  1  0.33358317  0.99966431  0.66857128  1
  Fe  Fe38  1  0.49776069  0.16851391  0.83577428  1
  Cr  Cr39  1  0.50209950  0.50093040  0.50026433  1
  Fe  Fe40  1  0.33195409  0.33382402  0.66869907  1
  Cr  Cr41  1  0.50059618  0.50134427  0.83542979  1
  Ni  Ni42  1  0.50000428  0.83500639  0.50179710  1
  Ni  Ni43  1  0.33208362  0.66899039  0.66880572  1
  Fe  Fe44  1  0.49701042  0.83427224  0.83395863  1
  Cr  Cr45  1  0.83527355  0.16823374  0.50064399  1
  Cr  Cr46  1  0.66615012  0.00201689  0.67127207  1
  Fe  Fe47  1  0.83729999  0.17033918  0.83466045  1
  Ni  Ni48  1  0.83625038  0.50297038  0.50293291  1
  Fe  Fe49  1  0.66750299  0.33515715  0.66820270  1
  Cr  Cr50  1  0.83535959  0.50182982  0.83373657  1
  Cr  Cr51  1  0.83676379  0.83310487  0.49910671  1
  Fe  Fe52  1  0.66521222  0.66868437  0.66616684  1
  Cr  Cr53  1  0.83783222  0.83160122  0.83529009  1
" 