418,Ni38Fe19Cr41_17,-222.681188883615, 169.839339842338,Ni38Fe19Cr41,"# generated using pymatgen
 data_Cr12(FeNi2)5
_symmetry_space_group_name_H-M   'P 1'
_cell_length_a   7.49310859
_cell_length_b   7.49310859
_cell_length_c   10.59685580
_cell_angle_alpha   90.00000000
_cell_angle_beta   90.00000000
_cell_angle_gamma   90.00000000
_symmetry_Int_Tables_number   1
_chemical_formula_structural   Cr12(FeNi2)5
_chemical_formula_sum   'Cr24 Fe10 Ni20'
_cell_volume   594.97823337
_cell_formula_units_Z   2
loop_
 _symmetry_equiv_pos_site_id
 _symmetry_equiv_pos_as_xyz
  1  'x, y, z'
loop_
 _atom_site_type_symbol
 _atom_site_label
 _atom_site_symmetry_multiplicity
 _atom_site_fract_x
 _atom_site_fract_y
 _atom_site_fract_z
 _atom_site_occupancy
  Cr  Cr0  1  -0.00109414  0.00224423  0.99558039  1
  Ni  Ni1  1  0.16459811  0.16416499  0.16579669  1
  Ni  Ni2  1  0.99712886  0.00302802  0.33322311  1
  Ni  Ni3  1  0.99679693  0.32970779  -0.00088043  1
  Cr  Cr4  1  0.16022912  0.49593822  0.16347789  1
  Ni  Ni5  1  0.99561705  0.32665381  0.33013931  1
  Fe  Fe6  1  -0.00082662  0.66494130  0.99645417  1
  Cr  Cr7  1  0.16681250  0.83545183  0.16531763  1
  Cr  Cr8  1  0.99799996  0.66415938  0.33180338  1
  Ni  Ni9  1  0.33165618  -0.00137997  0.00010955  1
  Ni  Ni10  1  0.49834770  0.16210919  0.16643394  1
  Fe  Fe11  1  0.33133691  -0.00033546  0.33034855  1
  Cr  Cr12  1  0.32935398  0.32881554  0.99582898  1
  Cr  Cr13  1  0.50238665  0.49730793  0.16505217  1
  Cr  Cr14  1  0.33138990  0.32956002  0.33399584  1
  Cr  Cr15  1  0.33273159  0.66801459  0.99562575  1
  Ni  Ni16  1  0.49830463  0.83542626  0.16704644  1
  Cr  Cr17  1  0.33359785  0.66599752  0.33373561  1
  Cr  Cr18  1  0.66405997  -0.00120616  0.99736164  1
  Ni  Ni19  1  0.83186051  0.16908897  0.16740055  1
  Fe  Fe20  1  0.66543347  0.00153754  0.33049711  1
  Fe  Fe21  1  0.66667638  0.32882047  -0.00089015  1
  Ni  Ni22  1  0.83119144  0.49424898  0.16474570  1
  Fe  Fe23  1  0.66723714  0.32933688  0.33129421  1
  Cr  Cr24  1  0.66441938  0.66585263  0.99725960  1
  Cr  Cr25  1  0.83117784  0.82970358  0.16706112  1
  Ni  Ni26  1  0.66355716  0.66492312  0.33070027  1
  Cr  Cr27  1  0.16471550  0.16332897  0.49808433  1
  Fe  Fe28  1  0.99705254  -0.00173474  0.66622173  1
  Ni  Ni29  1  0.16382502  0.16482074  0.83196436  1
  Fe  Fe30  1  0.16502952  0.49728525  0.49834669  1
  Cr  Cr31  1  -0.00050032  0.32796264  0.66494041  1
  Ni  Ni32  1  0.16551827  0.49738178  0.83143100  1
  Ni  Ni33  1  0.16482773  0.83271454  0.49719410  1
  Cr  Cr34  1  0.00065342  0.66700260  0.66614581  1
  Ni  Ni35  1  0.16467210  0.83250449  0.83226150  1
  Ni  Ni36  1  0.49997601  0.16611830  0.49744551  1
  Cr  Cr37  1  0.33051954  0.99812020  0.66671369  1
  Cr  Cr38  1  0.49736107  0.16509210  0.83156269  1
  Fe  Fe39  1  0.49867795  0.49601818  0.49806744  1
  Fe  Fe40  1  0.33145962  0.33262865  0.66541751  1
  Ni  Ni41  1  0.49625319  0.49847567  0.83002114  1
  Cr  Cr42  1  0.49887294  0.83435053  0.49594700  1
  Cr  Cr43  1  0.33131108  0.66285378  0.66462131  1
  Ni  Ni44  1  0.49745826  0.83185701  0.83205146  1
  Ni  Ni45  1  0.82981386  0.16444619  0.49670429  1
  Fe  Fe46  1  0.66705943  -0.00068394  0.66597700  1
  Ni  Ni47  1  0.83368501  0.16339094  0.83019298  1
  Cr  Cr48  1  0.83113507  0.49697134  0.49411931  1
  Cr  Cr49  1  0.66411848  0.32912003  0.66448892  1
  Cr  Cr50  1  0.83221261  0.49732514  0.83671949  1
  Cr  Cr51  1  0.83277611  0.83451713  0.49884825  1
  Cr  Cr52  1  0.66297280  0.66653620  0.66696933  1
  Ni  Ni53  1  0.83265690  0.83357924  0.82911787  1
" 