3398,Ni38Fe62_6,-242.598622937885, 223.962650612873,Ni38Fe62,"# generated using pymatgen
 data_Fe10Ni17
_symmetry_space_group_name_H-M   'P 1'
_cell_length_a   7.41034373
_cell_length_b   7.41034373
_cell_length_c   10.47980861
_cell_angle_alpha   90.00000000
_cell_angle_beta   90.00000000
_cell_angle_gamma   90.00000000
_symmetry_Int_Tables_number   1
_chemical_formula_structural   Fe10Ni17
_chemical_formula_sum   'Fe20 Ni34'
_cell_volume   575.47976607
_cell_formula_units_Z   2
loop_
 _symmetry_equiv_pos_site_id
 _symmetry_equiv_pos_as_xyz
  1  'x, y, z'
loop_
 _atom_site_type_symbol
 _atom_site_label
 _atom_site_symmetry_multiplicity
 _atom_site_fract_x
 _atom_site_fract_y
 _atom_site_fract_z
 _atom_site_occupancy
  Ni  Ni0  1  0.00509073  1.00302186  0.00492623  1
  Ni  Ni1  1  0.17066941  0.17087295  0.17085924  1
  Fe  Fe2  1  1.00368364  0.00394808  0.33726525  1
  Fe  Fe3  1  1.00238462  0.33618520  0.00472695  1
  Ni  Ni4  1  0.16982202  0.50421779  0.17011238  1
  Ni  Ni5  1  0.00410407  0.33790987  0.33742938  1
  Ni  Ni6  1  1.00348061  0.67067179  0.00389545  1
  Fe  Fe7  1  0.17011508  0.83680507  0.17054959  1
  Ni  Ni8  1  1.00352644  0.67022227  0.33756478  1
  Ni  Ni9  1  0.33628100  0.00485954  0.00414190  1
  Ni  Ni10  1  0.50382049  0.16992649  0.17029916  1
  Fe  Fe11  1  0.33603150  0.00401245  0.33729497  1
  Fe  Fe12  1  0.33707365  0.33691399  1.00368030  1
  Ni  Ni13  1  0.50356553  0.50365688  0.17064245  1
  Fe  Fe14  1  0.33617518  0.33813340  0.33726903  1
  Fe  Fe15  1  0.33777967  0.67160143  1.00367940  1
  Fe  Fe16  1  0.50407847  0.83729245  0.16979374  1
  Fe  Fe17  1  0.33598663  0.66926668  0.33775777  1
  Ni  Ni18  1  0.67008188  0.00417241  1.00309134  1
  Ni  Ni19  1  0.83683203  0.17031198  0.17023292  1
  Fe  Fe20  1  0.67176119  0.00399149  0.33663405  1
  Ni  Ni21  1  0.66953281  0.33797424  0.00453903  1
  Ni  Ni22  1  0.83792311  0.50404423  0.17082749  1
  Fe  Fe23  1  0.67143041  0.33787328  0.33664928  1
  Ni  Ni24  1  0.67144712  0.66916532  0.00469177  1
  Fe  Fe25  1  0.83732449  0.83691729  0.16994851  1
  Fe  Fe26  1  0.67137247  0.66948088  0.33793667  1
  Fe  Fe27  1  0.17092517  0.17073726  0.50390165  1
  Ni  Ni28  1  0.00548741  1.00265268  0.66979978  1
  Ni  Ni29  1  0.17075049  0.17052347  0.83739278  1
  Ni  Ni30  1  0.16984608  0.50422986  0.50405019  1
  Fe  Fe31  1  1.00378614  0.33682656  0.67044398  1
  Ni  Ni32  1  0.16970183  0.50384393  0.83755708  1
  Ni  Ni33  1  0.17021236  0.83636563  0.50362294  1
  Fe  Fe34  1  0.00405055  0.67025839  0.67060087  1
  Ni  Ni35  1  0.17075540  0.83703518  0.83745007  1
  Ni  Ni36  1  0.50412325  0.16994604  0.50296823  1
  Ni  Ni37  1  0.33554643  0.00458303  0.66991647  1
  Ni  Ni38  1  0.50379109  0.16959121  0.83767787  1
  Ni  Ni39  1  0.50357525  0.50331148  0.50351732  1
  Ni  Ni40  1  0.33804211  0.33610845  0.67002760  1
  Fe  Fe41  1  0.50464276  0.50373770  0.83678485  1
  Ni  Ni42  1  0.50391372  0.83837452  0.50359498  1
  Fe  Fe43  1  0.33771380  0.67067281  0.66999603  1
  Ni  Ni44  1  0.50389899  0.83830717  0.83681467  1
  Fe  Fe45  1  0.83686395  0.17074498  0.50402500  1
  Fe  Fe46  1  0.66980195  0.00434116  0.67097869  1
  Ni  Ni47  1  0.83666499  0.17046888  0.83713360  1
  Ni  Ni48  1  0.83808133  0.50423691  0.50346294  1
  Ni  Ni49  1  0.66949530  0.33909671  0.66950488  1
  Ni  Ni50  1  0.83802845  0.50384654  0.83765680  1
  Ni  Ni51  1  0.83733888  0.83687867  0.50416850  1
  Ni  Ni52  1  0.67123924  0.66940644  0.66967143  1
  Ni  Ni53  1  0.83695256  0.83702877  0.83744549  1
" 