8415,Ni38Fe61Cr0_0,-237.753347131346, 213.958077327388,Ni38Fe61Cr0,"# generated using pymatgen
 data_CrFe33Ni20
_symmetry_space_group_name_H-M   'P 1'
_cell_length_a   7.40199938
_cell_length_b   7.40199938
_cell_length_c   10.46800791
_cell_angle_alpha   90.00000000
_cell_angle_beta   90.00000000
_cell_angle_gamma   90.00000000
_symmetry_Int_Tables_number   1
_chemical_formula_structural   CrFe33Ni20
_chemical_formula_sum   'Cr1 Fe33 Ni20'
_cell_volume   573.53791172
_cell_formula_units_Z   1
loop_
 _symmetry_equiv_pos_site_id
 _symmetry_equiv_pos_as_xyz
  1  'x, y, z'
loop_
 _atom_site_type_symbol
 _atom_site_label
 _atom_site_symmetry_multiplicity
 _atom_site_fract_x
 _atom_site_fract_y
 _atom_site_fract_z
 _atom_site_occupancy
  Ni  Ni0  1  1.00437163  0.00466320  0.00491926  1
  Fe  Fe1  1  0.17092226  0.17074566  0.17086715  1
  Fe  Fe2  1  0.00504941  0.00483367  0.33814229  1
  Ni  Ni3  1  0.00531438  0.33695871  0.00472083  1
  Fe  Fe4  1  0.17133483  0.50373515  0.17122969  1
  Fe  Fe5  1  0.00439833  0.33784495  0.33738104  1
  Fe  Fe6  1  1.00420029  0.67169816  0.00446524  1
  Ni  Ni7  1  0.17114493  0.83661979  0.17053414  1
  Fe  Fe8  1  0.00527534  0.67049949  0.33759085  1
  Ni  Ni9  1  0.33712567  1.00357466  0.00448894  1
  Ni  Ni10  1  0.50461321  0.17069864  0.17193122  1
  Fe  Fe11  1  0.33803684  0.00489810  0.33741287  1
  Fe  Fe12  1  0.33613648  0.33587619  1.00425549  1
  Fe  Fe13  1  0.50332799  0.50479862  0.17274186  1
  Ni  Ni14  1  0.33860149  0.33846019  0.33692281  1
  Fe  Fe15  1  0.33706474  0.67212276  0.00473505  1
  Fe  Fe16  1  0.50433330  0.83857020  0.17068877  1
  Ni  Ni17  1  0.33756574  0.67073037  0.33815482  1
  Ni  Ni18  1  0.67168289  1.00296107  0.00439577  1
  Ni  Ni19  1  0.83709702  0.17103203  0.17099822  1
  Fe  Fe20  1  0.67009458  0.00577848  0.33718193  1
  Cr  Cr21  1  0.67153387  0.33715855  1.00402980  1
  Fe  Fe22  1  0.83852361  0.50445862  0.17134343  1
  Ni  Ni23  1  0.67083651  0.33736415  0.33836100  1
  Fe  Fe24  1  0.67191914  0.67330230  1.00353381  1
  Fe  Fe25  1  0.83758517  0.83898461  0.17056006  1
  Fe  Fe26  1  0.67027790  0.66996609  0.33814885  1
  Ni  Ni27  1  0.17164138  0.17023955  0.50398361  1
  Ni  Ni28  1  1.00393074  0.00470497  0.67121852  1
  Fe  Fe29  1  0.17073920  0.17154225  0.83751037  1
  Fe  Fe30  1  0.17200877  0.50341963  0.50432372  1
  Fe  Fe31  1  0.00449910  0.33822494  0.67147567  1
  Fe  Fe32  1  0.17138566  0.50357393  0.83762830  1
  Ni  Ni33  1  0.17131045  0.83685504  0.50500763  1
  Fe  Fe34  1  0.00478207  0.67102217  0.67112566  1
  Fe  Fe35  1  0.17105947  0.83806345  0.83779537  1
  Ni  Ni36  1  0.50473605  0.17167906  0.50439020  1
  Fe  Fe37  1  0.33776356  1.00427432  0.67117003  1
  Ni  Ni38  1  0.50365051  0.17014722  0.83685633  1
  Fe  Fe39  1  0.50347000  0.50367737  0.50432237  1
  Ni  Ni40  1  0.33809879  0.33862092  0.67120802  1
  Fe  Fe41  1  0.50379587  0.50520094  0.83611557  1
  Fe  Fe42  1  0.50392376  0.83821993  0.50466455  1
  Ni  Ni43  1  0.33860830  0.67017887  0.67071974  1
  Fe  Fe44  1  0.50507956  0.83739784  0.83782840  1
  Ni  Ni45  1  0.83680313  0.17198841  0.50524006  1
  Fe  Fe46  1  0.67029371  0.00455815  0.67133787  1
  Fe  Fe47  1  0.83867076  0.17025686  0.83746927  1
  Fe  Fe48  1  0.83770550  0.50361089  0.50484423  1
  Fe  Fe49  1  0.67065747  0.33786654  0.67080726  1
  Ni  Ni50  1  0.83879422  0.50570955  0.83708651  1
  Fe  Fe51  1  0.83813306  0.83917671  0.50493768  1
  Ni  Ni52  1  0.67032346  0.67068423  0.67078650  1
  Fe  Fe53  1  0.83704196  0.83804589  0.83768540  1
" 