8250,Ni38Fe50Cr11_3,-234.789220681797, 208.730555719256,Ni38Fe50Cr11,"# generated using pymatgen
 data_Cr7Fe27Ni20
_symmetry_space_group_name_H-M   'P 1'
_cell_length_a   7.42544760
_cell_length_b   7.42544760
_cell_length_c   10.50116870
_cell_angle_alpha   90.00000000
_cell_angle_beta   90.00000000
_cell_angle_gamma   90.00000000
_symmetry_Int_Tables_number   1
_chemical_formula_structural   Cr7Fe27Ni20
_chemical_formula_sum   'Cr7 Fe27 Ni20'
_cell_volume   579.00579595
_cell_formula_units_Z   1
loop_
 _symmetry_equiv_pos_site_id
 _symmetry_equiv_pos_as_xyz
  1  'x, y, z'
loop_
 _atom_site_type_symbol
 _atom_site_label
 _atom_site_symmetry_multiplicity
 _atom_site_fract_x
 _atom_site_fract_y
 _atom_site_fract_z
 _atom_site_occupancy
  Fe  Fe0  1  1.00146397  1.00135478  0.00407669  1
  Fe  Fe1  1  0.16600916  0.16848520  0.16775749  1
  Ni  Ni2  1  0.99987765  1.00187762  0.33588516  1
  Ni  Ni3  1  0.00293197  0.33647636  0.00482713  1
  Fe  Fe4  1  0.16841736  0.50474928  0.16802209  1
  Fe  Fe5  1  1.00144253  0.33629571  0.33592944  1
  Ni  Ni6  1  0.00459486  0.66939209  0.00315122  1
  Fe  Fe7  1  0.16849814  0.83516585  0.16946375  1
  Ni  Ni8  1  1.00194097  0.66988661  0.33606323  1
  Fe  Fe9  1  0.33547451  0.99970339  0.00392987  1
  Cr  Cr10  1  0.50328519  0.16851564  0.16692406  1
  Cr  Cr11  1  0.33640334  1.00107511  0.33797761  1
  Fe  Fe12  1  0.33475994  0.33931655  0.00283046  1
  Fe  Fe13  1  0.50379149  0.50618815  0.16851184  1
  Cr  Cr14  1  0.33577541  0.33877425  0.33700494  1
  Ni  Ni15  1  0.33592106  0.66874608  0.00297160  1
  Ni  Ni16  1  0.50418166  0.83509471  0.16921393  1
  Fe  Fe17  1  0.33522314  0.67001276  0.33648490  1
  Ni  Ni18  1  0.67080707  1.00192522  0.00334708  1
  Fe  Fe19  1  0.83732589  0.16825575  0.16913660  1
  Fe  Fe20  1  0.67225471  1.00157318  0.33615745  1
  Fe  Fe21  1  0.67051060  0.33751398  0.00339814  1
  Fe  Fe22  1  0.83619665  0.50370115  0.16966972  1
  Fe  Fe23  1  0.67224767  0.33690785  0.33777207  1
  Fe  Fe24  1  0.66886584  0.67105322  0.00340100  1
  Ni  Ni25  1  0.83654054  0.83577015  0.17001723  1
  Fe  Fe26  1  0.67010362  0.66991788  0.33601363  1
  Fe  Fe27  1  0.16856950  0.17036017  0.50439371  1
  Fe  Fe28  1  0.00452146  1.00114670  0.66819346  1
  Cr  Cr29  1  0.16933273  0.16999464  0.83562210  1
  Ni  Ni30  1  0.16781808  0.50399452  0.50365614  1
  Fe  Fe31  1  0.00385204  0.33752676  0.66833698  1
  Ni  Ni32  1  0.17031044  0.50386521  0.83598155  1
  Ni  Ni33  1  0.16797893  0.83560878  0.50361092  1
  Ni  Ni34  1  0.00474534  0.66973128  0.66918674  1
  Fe  Fe35  1  0.16995629  0.83268498  0.83549685  1
  Ni  Ni36  1  0.50312704  0.17050630  0.50365187  1
  Fe  Fe37  1  0.33440252  1.00071016  0.66737680  1
  Cr  Cr38  1  0.50211386  0.17022939  0.83757444  1
  Ni  Ni39  1  0.50386310  0.50171828  0.50352831  1
  Ni  Ni40  1  0.33652527  0.33892853  0.66841686  1
  Ni  Ni41  1  0.50117489  0.50413076  0.83650731  1
  Fe  Fe42  1  0.50197210  0.83357397  0.50296289  1
  Ni  Ni43  1  0.33505139  0.66742538  0.66904010  1
  Ni  Ni44  1  0.50298607  0.83454393  0.83721334  1
  Fe  Fe45  1  0.83698156  0.17104352  0.50174185  1
  Cr  Cr46  1  0.67026687  1.00240611  0.66829118  1
  Fe  Fe47  1  0.83630629  0.16866408  0.83752663  1
  Ni  Ni48  1  0.83672466  0.50286281  0.50219058  1
  Fe  Fe49  1  0.66840749  0.33902042  0.66723394  1
  Cr  Cr50  1  0.83685488  0.50460437  0.83575310  1
  Fe  Fe51  1  0.83775770  0.83420314  0.50174183  1
  Fe  Fe52  1  0.66797020  0.66798500  0.66899207  1
  Ni  Ni53  1  0.83684803  0.83606594  0.83710375  1
" 