3630,Ni38Cr62_8,-224.485938925057, 137.151887535517,Ni38Cr62,"# generated using pymatgen
 data_Cr10Ni17
_symmetry_space_group_name_H-M   'P 1'
_cell_length_a   7.49865197
_cell_length_b   7.49865197
_cell_length_c   10.60469532
_cell_angle_alpha   90.00000000
_cell_angle_beta   90.00000000
_cell_angle_gamma   90.00000000
_symmetry_Int_Tables_number   1
_chemical_formula_structural   Cr10Ni17
_chemical_formula_sum   'Cr20 Ni34'
_cell_volume   596.29969933
_cell_formula_units_Z   2
loop_
 _symmetry_equiv_pos_site_id
 _symmetry_equiv_pos_as_xyz
  1  'x, y, z'
loop_
 _atom_site_type_symbol
 _atom_site_label
 _atom_site_symmetry_multiplicity
 _atom_site_fract_x
 _atom_site_fract_y
 _atom_site_fract_z
 _atom_site_occupancy
  Cr  Cr0  1  -0.00083123  0.99776587  0.99726656  1
  Cr  Cr1  1  0.16520812  0.16483355  0.16455400  1
  Ni  Ni2  1  0.99690797  0.99305612  0.33270487  1
  Ni  Ni3  1  -0.00108871  0.33373157  0.99470959  1
  Ni  Ni4  1  0.16644327  0.50198621  0.16455012  1
  Cr  Cr5  1  0.00242338  0.33156821  0.33056458  1
  Ni  Ni6  1  0.00149175  0.66299592  -0.00171859  1
  Ni  Ni7  1  0.16464721  0.82719708  0.16422116  1
  Ni  Ni8  1  -0.00041173  0.66843462  0.33085275  1
  Ni  Ni9  1  0.33182066  0.99310238  0.99658538  1
  Cr  Cr10  1  0.49762575  0.16242680  0.16461852  1
  Cr  Cr11  1  0.33042710  0.99704728  0.33306222  1
  Cr  Cr12  1  0.32886025  0.33373518  -0.00137962  1
  Ni  Ni13  1  0.49409478  0.50191977  0.16686811  1
  Ni  Ni14  1  0.33127273  0.33501974  0.33347783  1
  Ni  Ni15  1  0.32951935  0.66660529  0.99784559  1
  Ni  Ni16  1  0.49792891  0.82939483  0.16380889  1
  Ni  Ni17  1  0.33133174  0.66298449  0.33080876  1
  Ni  Ni18  1  0.66296372  0.99581872  -0.00154897  1
  Cr  Cr19  1  0.83082157  0.16126478  0.16407732  1
  Ni  Ni20  1  0.66540252  0.99300878  0.33155367  1
  Cr  Cr21  1  0.66691778  0.33170885  0.99638934  1
  Cr  Cr22  1  0.83378760  0.50141683  0.16440703  1
  Cr  Cr23  1  0.66026133  0.33225676  0.33134525  1
  Cr  Cr24  1  0.66280892  0.66520534  0.99733028  1
  Ni  Ni25  1  0.83108372  0.83092636  0.16729840  1
  Ni  Ni26  1  0.66276780  0.66836549  0.33147072  1
  Ni  Ni27  1  0.16575709  0.16543017  0.49919102  1
  Ni  Ni28  1  -0.00032355  0.00042130  0.66394443  1
  Ni  Ni29  1  0.16191271  0.16565520  0.82994581  1
  Ni  Ni30  1  0.16763908  0.49709392  0.49656219  1
  Ni  Ni31  1  -0.00040492  0.32921626  0.66741638  1
  Ni  Ni32  1  0.16353554  0.49700226  0.83259022  1
  Ni  Ni33  1  0.16279135  0.83126429  0.49617831  1
  Cr  Cr34  1  -0.00032941  0.66527590  0.66458333  1
  Ni  Ni35  1  0.16630357  0.83102852  0.83332629  1
  Ni  Ni36  1  0.49593547  0.16636571  0.49767699  1
  Cr  Cr37  1  0.32813115  0.99766935  0.66413909  1
  Cr  Cr38  1  0.49745291  0.16361251  0.83151888  1
  Ni  Ni39  1  0.49491344  0.49696600  0.49696367  1
  Ni  Ni40  1  0.33020503  0.33184602  0.66269491  1
  Ni  Ni41  1  0.49679820  0.49844523  0.82995769  1
  Ni  Ni42  1  0.49865532  0.83039512  0.49512323  1
  Cr  Cr43  1  0.33153007  0.66389902  0.66507224  1
  Ni  Ni44  1  0.49505463  0.83029541  0.83470528  1
  Cr  Cr45  1  0.83194679  0.16226752  0.49886523  1
  Cr  Cr46  1  0.66496173  0.99763698  0.66361972  1
  Ni  Ni47  1  0.83377837  0.16745003  0.83054170  1
  Cr  Cr48  1  0.83150252  0.50030703  0.49854415  1
  Ni  Ni49  1  0.66385107  0.33199776  0.66593142  1
  Ni  Ni50  1  0.83339601  0.49407452  0.83122097  1
  Ni  Ni51  1  0.83220646  0.83238535  0.49430243  1
  Cr  Cr52  1  0.66250064  0.66286671  0.66453191  1
  Cr  Cr53  1  0.83201632  0.83155893  0.83133259  1
" 