7049,Ni38Fe39Cr22_16,-230.67149848827, 200.145431171843,Ni38Fe39Cr22,"# generated using pymatgen
 data_Cr13Fe21Ni20
_symmetry_space_group_name_H-M   'P 1'
_cell_length_a   7.44473935
_cell_length_b   7.44473935
_cell_length_c   10.52845135
_cell_angle_alpha   90.00000000
_cell_angle_beta   90.00000000
_cell_angle_gamma   90.00000000
_symmetry_Int_Tables_number   1
_chemical_formula_structural   Cr13Fe21Ni20
_chemical_formula_sum   'Cr13 Fe21 Ni20'
_cell_volume   583.53040362
_cell_formula_units_Z   1
loop_
 _symmetry_equiv_pos_site_id
 _symmetry_equiv_pos_as_xyz
  1  'x, y, z'
loop_
 _atom_site_type_symbol
 _atom_site_label
 _atom_site_symmetry_multiplicity
 _atom_site_fract_x
 _atom_site_fract_y
 _atom_site_fract_z
 _atom_site_occupancy
  Fe  Fe0  1  0.99968937  1.00108392  0.99966537  1
  Fe  Fe1  1  0.16883065  0.16923942  0.17151184  1
  Fe  Fe2  1  0.00242373  0.00310914  0.33680620  1
  Cr  Cr3  1  1.00064984  0.33419007  0.99880232  1
  Fe  Fe4  1  0.16704257  0.50075769  0.16875281  1
  Ni  Ni5  1  1.00111028  0.33395222  0.33529754  1
  Fe  Fe6  1  1.00037738  0.66826217  1.00119214  1
  Cr  Cr7  1  0.16601014  0.83505011  0.16752643  1
  Fe  Fe8  1  1.00002369  0.66764209  0.33336100  1
  Cr  Cr9  1  0.33739392  0.00202650  0.00161330  1
  Ni  Ni10  1  0.50235285  0.16707408  0.16891673  1
  Ni  Ni11  1  0.33685004  0.00222138  0.33419267  1
  Cr  Cr12  1  0.33243221  0.33458821  0.00163880  1
  Cr  Cr13  1  0.50396990  0.49904295  0.16861769  1
  Ni  Ni14  1  0.33222723  0.33288928  0.33446610  1
  Ni  Ni15  1  0.33678962  0.66812406  1.00051476  1
  Ni  Ni16  1  0.50213377  0.83606759  0.16702581  1
  Cr  Cr17  1  0.33864593  0.66991882  0.33579200  1
  Ni  Ni18  1  0.66909341  0.99913968  1.00017810  1
  Cr  Cr19  1  0.83222484  0.16843171  0.16877744  1
  Fe  Fe20  1  0.66652743  0.99927139  0.33415051  1
  Fe  Fe21  1  0.66719340  0.33352722  0.99936406  1
  Ni  Ni22  1  0.83551691  0.50225451  0.16748601  1
  Fe  Fe23  1  0.66718490  0.33545394  0.33501294  1
  Fe  Fe24  1  0.66794850  0.66845364  0.99998416  1
  Fe  Fe25  1  0.83051309  0.83345250  0.16764912  1
  Fe  Fe26  1  0.66922743  0.66992051  0.33567624  1
  Ni  Ni27  1  0.16777044  0.16766356  0.50167272  1
  Ni  Ni28  1  0.99949328  0.00397090  0.66792805  1
  Fe  Fe29  1  0.16830314  0.16854845  0.83137562  1
  Cr  Cr30  1  0.16890808  0.50002728  0.50260142  1
  Ni  Ni31  1  0.00315789  0.33236663  0.66946084  1
  Ni  Ni32  1  0.16874402  0.50326724  0.83361860  1
  Cr  Cr33  1  0.16689911  0.83641694  0.50419971  1
  Fe  Fe34  1  0.99622999  0.66792521  0.66963201  1
  Cr  Cr35  1  0.16699780  0.83401638  0.83281724  1
  Cr  Cr36  1  0.50151198  0.16943003  0.50016501  1
  Fe  Fe37  1  0.33657455  0.00369242  0.66831944  1
  Ni  Ni38  1  0.50382339  0.16869014  0.83559490  1
  Ni  Ni39  1  0.50168559  0.50124262  0.50155820  1
  Fe  Fe40  1  0.33468932  0.33446057  0.66957543  1
  Ni  Ni41  1  0.50038069  0.50106011  0.83475222  1
  Ni  Ni42  1  0.50340721  0.83580333  0.50365275  1
  Fe  Fe43  1  0.33764771  0.66644825  0.66912122  1
  Fe  Fe44  1  0.50413442  0.83383591  0.83442789  1
  Fe  Fe45  1  0.83714865  0.16633354  0.50169179  1
  Fe  Fe46  1  0.67069852  0.99981403  0.66986283  1
  Ni  Ni47  1  0.83321660  0.16594985  0.83430168  1
  Cr  Cr48  1  0.83445101  0.50122079  0.50170657  1
  Cr  Cr49  1  0.67042196  0.33619419  0.66972284  1
  Fe  Fe50  1  0.83438085  0.50352902  0.83439096  1
  Ni  Ni51  1  0.83420647  0.83648795  0.50025138  1
  Ni  Ni52  1  0.66616675  0.67142768  0.66855818  1
  Ni  Ni53  1  0.83547344  0.83593805  0.83597429  1
" 