3290,Ni38Fe61Cr0_1,-237.354885764487, 213.991361592889,Ni38Fe61Cr0,"# generated using pymatgen
 data_CrFe33Ni20
_symmetry_space_group_name_H-M   'P 1'
_cell_length_a   7.39953537
_cell_length_b   7.39953537
_cell_length_c   10.46452327
_cell_angle_alpha   90.00000000
_cell_angle_beta   90.00000000
_cell_angle_gamma   90.00000000
_symmetry_Int_Tables_number   1
_chemical_formula_structural   CrFe33Ni20
_chemical_formula_sum   'Cr1 Fe33 Ni20'
_cell_volume   572.96533636
_cell_formula_units_Z   1
loop_
 _symmetry_equiv_pos_site_id
 _symmetry_equiv_pos_as_xyz
  1  'x, y, z'
loop_
 _atom_site_type_symbol
 _atom_site_label
 _atom_site_symmetry_multiplicity
 _atom_site_fract_x
 _atom_site_fract_y
 _atom_site_fract_z
 _atom_site_occupancy
  Ni  Ni0  1  1.00299106  0.00613452  1.00343589  1
  Fe  Fe1  1  0.17135929  0.17405948  0.17134121  1
  Fe  Fe2  1  0.00479338  0.00531545  0.33945746  1
  Ni  Ni3  1  0.00485935  0.33731810  0.00530672  1
  Fe  Fe4  1  0.17181896  0.50226361  0.17135867  1
  Fe  Fe5  1  0.00525138  0.33814801  0.33792324  1
  Fe  Fe6  1  1.00326201  0.67054751  1.00335461  1
  Cr  Cr7  1  0.17021763  0.83848029  0.17148675  1
  Fe  Fe8  1  1.00439840  0.67022241  0.33916366  1
  Fe  Fe9  1  0.33812021  0.00632329  1.00381094  1
  Ni  Ni10  1  0.50425373  0.17294448  0.17167785  1
  Fe  Fe11  1  0.33864544  0.00538569  0.33891246  1
  Fe  Fe12  1  0.33788457  0.33729467  0.00498051  1
  Ni  Ni13  1  0.50536986  0.50299802  0.17056733  1
  Ni  Ni14  1  0.33800892  0.33907095  0.33717622  1
  Fe  Fe15  1  0.33814168  0.67006913  1.00419845  1
  Fe  Fe16  1  0.50645885  0.83723421  0.17188693  1
  Ni  Ni17  1  0.33954309  0.66949343  0.33870601  1
  Fe  Fe18  1  0.67188120  0.00519270  1.00393232  1
  Fe  Fe19  1  0.83763642  0.17195984  0.17121345  1
  Fe  Fe20  1  0.67024636  1.00453113  0.33865824  1
  Fe  Fe21  1  0.67141008  0.33771013  0.00490787  1
  Ni  Ni22  1  0.83709723  0.50444557  0.17081232  1
  Fe  Fe23  1  0.67002264  0.33869745  0.33741053  1
  Fe  Fe24  1  0.67228363  0.67078365  0.00466432  1
  Fe  Fe25  1  0.83546436  0.83769467  0.17081142  1
  Fe  Fe26  1  0.67009565  0.67045493  0.33785086  1
  Ni  Ni27  1  0.17020690  0.17011245  0.50435065  1
  Ni  Ni28  1  1.00329166  1.00455819  0.67111074  1
  Fe  Fe29  1  0.17088933  0.17133912  0.83768178  1
  Fe  Fe30  1  0.17118198  0.50504891  0.50453028  1
  Ni  Ni31  1  0.00475745  0.33790143  0.67086827  1
  Fe  Fe32  1  0.17109844  0.50439029  0.83779655  1
  Ni  Ni33  1  0.17030593  0.83881616  0.50562899  1
  Ni  Ni34  1  0.00475164  0.67122696  0.67121400  1
  Fe  Fe35  1  0.17127260  0.83795751  0.83772079  1
  Fe  Fe36  1  0.50463632  0.17017407  0.50449279  1
  Fe  Fe37  1  0.33690581  0.00463491  0.67096444  1
  Ni  Ni38  1  0.50417546  0.17279949  0.83715245  1
  Ni  Ni39  1  0.50452491  0.50459210  0.50451882  1
  Fe  Fe40  1  0.33750991  0.33743950  0.67098062  1
  Ni  Ni41  1  0.50451268  0.50315369  0.83859777  1
  Ni  Ni42  1  0.50393178  0.83658732  0.50459380  1
  Fe  Fe43  1  0.33744275  0.67160868  0.67043929  1
  Fe  Fe44  1  0.50514553  0.83809672  0.83741040  1
  Ni  Ni45  1  0.83928683  0.17070282  0.50504624  1
  Ni  Ni46  1  0.67128714  1.00421439  0.67130346  1
  Fe  Fe47  1  0.83756651  0.17107771  0.83730016  1
  Fe  Fe48  1  0.83849054  0.50494545  0.50444023  1
  Fe  Fe49  1  0.67207140  0.33756150  0.67136696  1
  Fe  Fe50  1  0.83771181  0.50430621  0.83836280  1
  Ni  Ni51  1  0.83944585  0.83848683  0.50392015  1
  Fe  Fe52  1  0.67242164  0.67176783  0.67116959  1
  Ni  Ni53  1  0.84000574  0.83807035  0.83837568  1
" 