1014,Ni38Fe24Cr37_14,-224.623811603368, 175.595999789668,Ni38Fe24Cr37,"# generated using pymatgen
 data_Cr11(Fe3Ni5)2
_symmetry_space_group_name_H-M   'P 1'
_cell_length_a   7.48735727
_cell_length_b   7.48735727
_cell_length_c   10.58872220
_cell_angle_alpha   90.00000000
_cell_angle_beta   90.00000000
_cell_angle_gamma   90.00000000
_symmetry_Int_Tables_number   1
_chemical_formula_structural   Cr11(Fe3Ni5)2
_chemical_formula_sum   'Cr22 Fe12 Ni20'
_cell_volume   593.60926067
_cell_formula_units_Z   2
loop_
 _symmetry_equiv_pos_site_id
 _symmetry_equiv_pos_as_xyz
  1  'x, y, z'
loop_
 _atom_site_type_symbol
 _atom_site_label
 _atom_site_symmetry_multiplicity
 _atom_site_fract_x
 _atom_site_fract_y
 _atom_site_fract_z
 _atom_site_occupancy
  Fe  Fe0  1  0.99544658  0.99661976  0.99592394  1
  Cr  Cr1  1  0.16530366  0.16285941  0.16602072  1
  Fe  Fe2  1  0.99708384  0.99589010  0.33442502  1
  Cr  Cr3  1  0.99621781  0.33131177  0.99528812  1
  Cr  Cr4  1  0.16145738  0.49770911  0.16789416  1
  Ni  Ni5  1  0.99702421  0.33173962  0.33333561  1
  Ni  Ni6  1  0.99328301  0.66711360  0.99711898  1
  Cr  Cr7  1  0.15862473  0.83148569  0.16456154  1
  Ni  Ni8  1  0.99468315  0.66450441  0.33155411  1
  Fe  Fe9  1  0.33275683  0.99675464  0.99606602  1
  Ni  Ni10  1  0.50139307  0.16685710  0.16420648  1
  Cr  Cr11  1  0.33430055  0.99766654  0.33084869  1
  Cr  Cr12  1  0.33301838  0.32914570  0.00035874  1
  Ni  Ni13  1  0.50287576  0.49559526  0.16726722  1
  Ni  Ni14  1  0.33231701  0.33060757  0.33010958  1
  Cr  Cr15  1  0.33225757  0.66415275  0.00121723  1
  Cr  Cr16  1  0.50308058  0.83527030  0.16217342  1
  Cr  Cr17  1  0.33171122  0.66315429  0.33334386  1
  Ni  Ni18  1  0.66739497  0.00030041  0.99595437  1
  Cr  Cr19  1  0.83023439  0.16231778  0.16999965  1
  Ni  Ni20  1  0.66854597  0.00015641  0.33404890  1
  Fe  Fe21  1  0.66714479  0.33375964  0.99841316  1
  Ni  Ni22  1  0.82987567  0.49966907  0.16419661  1
  Fe  Fe23  1  0.66501740  0.33307343  0.33175198  1
  Ni  Ni24  1  0.66914694  0.66835462  0.99772814  1
  Ni  Ni25  1  0.83122291  0.83112145  0.16432463  1
  Cr  Cr26  1  0.66549812  0.66773901  0.33243590  1
  Cr  Cr27  1  0.16589996  0.16570569  0.49919741  1
  Cr  Cr28  1  0.99660024  0.99827664  0.66517668  1
  Fe  Fe29  1  0.16473812  0.16309343  0.83097083  1
  Cr  Cr30  1  0.16461664  0.49750823  0.50046414  1
  Fe  Fe31  1  -0.00079430  0.33102135  0.66755093  1
  Cr  Cr32  1  0.16387555  0.50070573  0.82780326  1
  Fe  Fe33  1  0.16172758  0.83190774  0.49914282  1
  Ni  Ni34  1  0.99798015  0.66769875  0.66708371  1
  Ni  Ni35  1  0.16471221  0.83433240  0.83174583  1
  Cr  Cr36  1  0.49915702  0.16534176  0.49833227  1
  Ni  Ni37  1  0.33105062  0.00046048  0.66859406  1
  Fe  Fe38  1  0.49966474  0.16324635  0.83317631  1
  Fe  Fe39  1  0.49895415  0.49636637  0.49861312  1
  Ni  Ni40  1  0.33219021  0.32950474  0.66658782  1
  Cr  Cr41  1  0.50123940  0.50022754  0.83125103  1
  Fe  Fe42  1  0.49938542  0.83403340  0.49906304  1
  Cr  Cr43  1  0.33317753  0.66870856  0.66125316  1
  Ni  Ni44  1  0.49843152  0.83613258  0.83220753  1
  Fe  Fe45  1  0.83311921  0.16468262  0.49637415  1
  Cr  Cr46  1  0.66558558  0.99732969  0.66426024  1
  Ni  Ni47  1  0.83121673  0.16447319  0.83064599  1
  Cr  Cr48  1  0.83380327  0.49886661  0.50133698  1
  Cr  Cr49  1  0.66749265  0.32968631  0.66726066  1
  Ni  Ni50  1  0.83346049  0.49949432  0.83160978  1
  Ni  Ni51  1  0.83254187  0.83213204  0.49657361  1
  Cr  Cr52  1  0.66802019  0.66812571  0.66567259  1
  Ni  Ni53  1  0.83199850  0.83277007  0.83424703  1
" 