3124,Ni38Fe61Cr0_5,-237.722574581689, 214.594849524555,Ni38Fe61Cr0,"# generated using pymatgen
 data_CrFe33Ni20
_symmetry_space_group_name_H-M   'P 1'
_cell_length_a   7.40121046
_cell_length_b   7.40121046
_cell_length_c   10.46689221
_cell_angle_alpha   90.00000000
_cell_angle_beta   90.00000000
_cell_angle_gamma   90.00000000
_symmetry_Int_Tables_number   1
_chemical_formula_structural   CrFe33Ni20
_chemical_formula_sum   'Cr1 Fe33 Ni20'
_cell_volume   573.35454493
_cell_formula_units_Z   1
loop_
 _symmetry_equiv_pos_site_id
 _symmetry_equiv_pos_as_xyz
  1  'x, y, z'
loop_
 _atom_site_type_symbol
 _atom_site_label
 _atom_site_symmetry_multiplicity
 _atom_site_fract_x
 _atom_site_fract_y
 _atom_site_fract_z
 _atom_site_occupancy
  Ni  Ni0  1  1.00430381  1.00259286  0.00472135  1
  Fe  Fe1  1  0.17127121  0.17141460  0.17180370  1
  Ni  Ni2  1  0.00446148  1.00335634  0.33788030  1
  Fe  Fe3  1  0.00447294  0.33792871  0.00480634  1
  Ni  Ni4  1  0.17198859  0.50381730  0.17099386  1
  Ni  Ni5  1  0.00453358  0.33822119  0.33775490  1
  Ni  Ni6  1  1.00430577  0.67253377  1.00440444  1
  Fe  Fe7  1  0.17064202  0.83723964  0.17082578  1
  Ni  Ni8  1  1.00388698  0.67176813  0.33794654  1
  Fe  Fe9  1  0.33752718  1.00439741  1.00438121  1
  Fe  Fe10  1  0.50414626  0.17182005  0.17101073  1
  Ni  Ni11  1  0.33764600  0.00492055  0.33805674  1
  Ni  Ni12  1  0.33950696  0.33821458  1.00428770  1
  Ni  Ni13  1  0.50350567  0.50405919  0.17074787  1
  Ni  Ni14  1  0.33857958  0.33765604  0.33799897  1
  Fe  Fe15  1  0.33752695  0.67081357  1.00429257  1
  Fe  Fe16  1  0.50431551  0.83729367  0.17098116  1
  Fe  Fe17  1  0.33690769  0.67081234  0.33747916  1
  Fe  Fe18  1  0.67141736  0.00452692  1.00403604  1
  Fe  Fe19  1  0.83792777  0.17148350  0.17129242  1
  Fe  Fe20  1  0.67185392  0.00454982  0.33834199  1
  Ni  Ni21  1  0.66947884  0.33821479  0.00462084  1
  Fe  Fe22  1  0.83797883  0.50485992  0.17100764  1
  Fe  Fe23  1  0.67144868  0.33749817  0.33753735  1
  Fe  Fe24  1  0.67121391  0.67088799  0.00457736  1
  Ni  Ni25  1  0.83785192  0.83836374  0.17060583  1
  Fe  Fe26  1  0.67146112  0.67129551  0.33770540  1
  Ni  Ni27  1  0.17069848  0.17183880  0.50478136  1
  Ni  Ni28  1  1.00392501  1.00304171  0.67074255  1
  Fe  Fe29  1  0.17155235  0.17044585  0.83737024  1
  Fe  Fe30  1  0.17044360  0.50377323  0.50388438  1
  Fe  Fe31  1  0.00556016  0.33683814  0.67042732  1
  Fe  Fe32  1  0.17165244  0.50501541  0.83819507  1
  Fe  Fe33  1  0.17012055  0.83872032  0.50453535  1
  Fe  Fe34  1  1.00430257  0.67146204  0.67121971  1
  Ni  Ni35  1  0.17141819  0.83790485  0.83777682  1
  Fe  Fe36  1  0.50387897  0.17022588  0.50389548  1
  Fe  Fe37  1  0.33787820  0.00464342  0.67103212  1
  Fe  Fe38  1  0.50350870  0.17022744  0.83843667  1
  Fe  Fe39  1  0.50393141  0.50436456  0.50360851  1
  Ni  Ni40  1  0.33756709  0.33823892  0.67105679  1
  Fe  Fe41  1  0.50335945  0.50518348  0.83881766  1
  Fe  Fe42  1  0.50487469  0.83875306  0.50491160  1
  Fe  Fe43  1  0.33808311  0.67164088  0.67157037  1
  Ni  Ni44  1  0.50454621  0.83765766  0.83780702  1
  Ni  Ni45  1  0.83906844  0.16988944  0.50366402  1
  Ni  Ni46  1  0.67187345  1.00306401  0.67123608  1
  Fe  Fe47  1  0.83828119  0.16953852  0.83804879  1
  Fe  Fe48  1  0.83896745  0.50476950  0.50364930  1
  Cr  Cr49  1  0.66976161  0.33718133  0.67048652  1
  Fe  Fe50  1  0.83832956  0.50577189  0.83868465  1
  Ni  Ni51  1  0.83736120  0.83850614  0.50542071  1
  Fe  Fe52  1  0.67095660  0.67291157  0.67106134  1
  Fe  Fe53  1  0.83811613  0.83802904  0.83775874  1
" 