772,Ni38Fe19Cr41_3,-222.584388265247, 171.364958371088,Ni38Fe19Cr41,"# generated using pymatgen
 data_Cr12(FeNi2)5
_symmetry_space_group_name_H-M   'P 1'
_cell_length_a   7.49462190
_cell_length_b   7.49462190
_cell_length_c   10.59899593
_cell_angle_alpha   90.00000000
_cell_angle_beta   90.00000000
_cell_angle_gamma   90.00000000
_symmetry_Int_Tables_number   1
_chemical_formula_structural   Cr12(FeNi2)5
_chemical_formula_sum   'Cr24 Fe10 Ni20'
_cell_volume   595.33879011
_cell_formula_units_Z   2
loop_
 _symmetry_equiv_pos_site_id
 _symmetry_equiv_pos_as_xyz
  1  'x, y, z'
loop_
 _atom_site_type_symbol
 _atom_site_label
 _atom_site_symmetry_multiplicity
 _atom_site_fract_x
 _atom_site_fract_y
 _atom_site_fract_z
 _atom_site_occupancy
  Cr  Cr0  1  0.99500795  0.99737079  0.00268796  1
  Cr  Cr1  1  0.16257324  0.16695161  0.16397091  1
  Fe  Fe2  1  0.99616214  0.99736971  0.33140125  1
  Ni  Ni3  1  0.99754238  0.33307150  0.99679879  1
  Cr  Cr4  1  0.16660745  0.49795199  0.16410964  1
  Ni  Ni5  1  0.99638400  0.33216233  0.33289070  1
  Cr  Cr6  1  0.99642357  0.66427855  0.99589530  1
  Cr  Cr7  1  0.16610531  0.82933301  0.16728128  1
  Ni  Ni8  1  -0.00123708  0.66477555  0.33247652  1
  Cr  Cr9  1  0.33375805  0.99758701  0.99781659  1
  Cr  Cr10  1  0.49961706  0.16844120  0.16181515  1
  Cr  Cr11  1  0.33204002  0.99703842  0.33363690  1
  Ni  Ni12  1  0.33284957  0.33464590  0.99587384  1
  Fe  Fe13  1  0.49887772  0.49953061  0.16549590  1
  Cr  Cr14  1  0.33221186  0.33327197  0.33419630  1
  Fe  Fe15  1  0.33397598  0.66273787  0.99786190  1
  Ni  Ni16  1  0.49937720  0.82750950  0.16603915  1
  Ni  Ni17  1  0.33184856  0.66451007  0.33308184  1
  Cr  Cr18  1  0.66567264  0.99683840  0.99773537  1
  Ni  Ni19  1  0.83123468  0.16711870  0.16673750  1
  Cr  Cr20  1  0.66530369  -0.00106152  0.33106220  1
  Ni  Ni21  1  0.66439603  0.33261301  0.99785324  1
  Cr  Cr22  1  0.82939129  0.49644212  0.16671530  1
  Ni  Ni23  1  0.66585717  0.33159591  0.33209875  1
  Cr  Cr24  1  0.66576815  0.66550354  0.99803732  1
  Ni  Ni25  1  0.82986632  0.83089543  0.16662926  1
  Ni  Ni26  1  0.66368066  0.66452256  0.33044302  1
  Cr  Cr27  1  0.16183638  0.16366416  0.49817601  1
  Ni  Ni28  1  0.99629586  0.99613992  0.66316154  1
  Cr  Cr29  1  0.16420537  0.16583076  0.83272849  1
  Ni  Ni30  1  0.16348703  0.50098355  0.49853027  1
  Fe  Fe31  1  0.99809241  0.33311156  0.66429095  1
  Fe  Fe32  1  0.16563657  0.49784856  0.83157317  1
  Ni  Ni33  1  0.16297156  0.82895430  0.49729859  1
  Ni  Ni34  1  -0.00116167  0.66441808  0.66618345  1
  Cr  Cr35  1  0.16509986  0.83133688  0.83050478  1
  Ni  Ni36  1  0.50160689  0.16545632  0.50016642  1
  Cr  Cr37  1  0.33412640  -0.00163499  0.66290375  1
  Fe  Fe38  1  0.49887769  0.16564237  0.83172524  1
  Ni  Ni39  1  0.49860076  0.49826907  0.49397256  1
  Cr  Cr40  1  0.33177276  0.33353611  0.66365366  1
  Ni  Ni41  1  0.49864503  0.49826402  0.83509639  1
  Fe  Fe42  1  0.49798973  0.82925151  0.49735352  1
  Cr  Cr43  1  0.33060746  0.66250697  0.66259384  1
  Ni  Ni44  1  0.49951222  0.82931319  0.83022557  1
  Fe  Fe45  1  0.83098191  0.16517678  0.49786798  1
  Ni  Ni46  1  0.66563758  -0.00161805  0.66545704  1
  Cr  Cr47  1  0.83133198  0.16582158  0.82987297  1
  Cr  Cr48  1  0.83120264  0.49835542  0.49699599  1
  Cr  Cr49  1  0.66281398  0.33161453  0.66364638  1
  Fe  Fe50  1  0.83146981  0.49778147  0.83130972  1
  Cr  Cr51  1  0.83206178  0.83104116  0.49947661  1
  Cr  Cr52  1  0.66498204  0.66467905  0.66617429  1
  Fe  Fe53  1  0.83068169  0.83191133  0.82908030  1
" 