3206,Ni38Fe24Cr37_19,-224.519011211603, 176.717566595785,Ni38Fe24Cr37,"# generated using pymatgen
 data_Cr11(Fe3Ni5)2
_symmetry_space_group_name_H-M   'P 1'
_cell_length_a   7.48338196
_cell_length_b   7.48338196
_cell_length_c   10.58310026
_cell_angle_alpha   90.00000000
_cell_angle_beta   90.00000000
_cell_angle_gamma   90.00000000
_symmetry_Int_Tables_number   1
_chemical_formula_structural   Cr11(Fe3Ni5)2
_chemical_formula_sum   'Cr22 Fe12 Ni20'
_cell_volume   592.66425672
_cell_formula_units_Z   2
loop_
 _symmetry_equiv_pos_site_id
 _symmetry_equiv_pos_as_xyz
  1  'x, y, z'
loop_
 _atom_site_type_symbol
 _atom_site_label
 _atom_site_symmetry_multiplicity
 _atom_site_fract_x
 _atom_site_fract_y
 _atom_site_fract_z
 _atom_site_occupancy
  Fe  Fe0  1  0.00013702  0.99768425  0.99821488  1
  Ni  Ni1  1  0.16347299  0.16605373  0.16440666  1
  Fe  Fe2  1  0.99850236  0.99772230  0.33431174  1
  Fe  Fe3  1  -0.00064783  0.33398623  0.99772693  1
  Ni  Ni4  1  0.16598290  0.49864567  0.16489923  1
  Cr  Cr5  1  0.00171272  0.33339438  0.33355021  1
  Ni  Ni6  1  -0.00047806  0.66456389  0.99880286  1
  Cr  Cr7  1  0.16259954  0.83139260  0.16476259  1
  Fe  Fe8  1  0.99869415  0.66642357  0.33426997  1
  Ni  Ni9  1  0.32936807  0.00005556  0.99674342  1
  Cr  Cr10  1  0.49882749  0.16722656  0.16534345  1
  Cr  Cr11  1  0.32776972  0.00120822  0.33202581  1
  Cr  Cr12  1  0.32946964  0.33051079  -0.00029233  1
  Ni  Ni13  1  0.49694188  0.49943545  0.16417421  1
  Fe  Fe14  1  0.33027491  0.33486298  0.33200355  1
  Fe  Fe15  1  0.33094056  0.66508300  0.99878930  1
  Cr  Cr16  1  0.49956893  0.83097428  0.15973453  1
  Cr  Cr17  1  0.33064308  0.66324222  0.33286034  1
  Ni  Ni18  1  0.66398340  0.99833087  0.99847360  1
  Cr  Cr19  1  0.83438651  0.16349965  0.16288231  1
  Cr  Cr20  1  0.66889979  0.99565676  0.33312192  1
  Ni  Ni21  1  0.66562569  0.33379805  0.99763240  1
  Cr  Cr22  1  0.83396994  0.49937313  0.16126040  1
  Cr  Cr23  1  0.66594331  0.33576634  0.33495749  1
  Ni  Ni24  1  0.66988720  0.66467919  0.00042594  1
  Fe  Fe25  1  0.83436316  0.83149699  0.16279045  1
  Cr  Cr26  1  0.66926420  0.66514523  0.33138445  1
  Ni  Ni27  1  0.16144251  0.16548225  0.49752738  1
  Fe  Fe28  1  0.99810544  0.99669515  0.66360012  1
  Fe  Fe29  1  0.16547676  0.16443117  0.83431876  1
  Ni  Ni30  1  0.16477898  0.50003571  0.49833302  1
  Cr  Cr31  1  -0.00028061  0.33526935  0.66801860  1
  Ni  Ni32  1  0.16189577  0.50365365  0.83405183  1
  Fe  Fe33  1  0.16083743  0.83081036  0.50075150  1
  Ni  Ni34  1  0.99836685  0.66627337  0.66344664  1
  Ni  Ni35  1  0.16462056  0.82962217  0.83206456  1
  Cr  Cr36  1  0.49929222  0.16717088  0.49834968  1
  Cr  Cr37  1  0.32883057  -0.00105517  0.66840826  1
  Ni  Ni38  1  0.50004727  0.16336151  0.83472009  1
  Ni  Ni39  1  0.49707311  0.50089772  0.49921171  1
  Cr  Cr40  1  0.32925285  0.33117615  0.66444528  1
  Cr  Cr41  1  0.50013484  0.50034644  0.83222345  1
  Cr  Cr42  1  0.49913441  0.82965574  0.50406166  1
  Fe  Fe43  1  0.32838391  0.66259938  0.66509501  1
  Cr  Cr44  1  0.49754240  0.83213026  0.83282657  1
  Ni  Ni45  1  0.83658515  0.16239100  0.50019727  1
  Fe  Fe46  1  0.66947171  0.99791332  0.66530667  1
  Cr  Cr47  1  0.83105330  0.16691542  0.83399088  1
  Ni  Ni48  1  0.83454397  0.50182495  0.50095163  1
  Cr  Cr49  1  0.66793745  0.33474462  0.66426779  1
  Ni  Ni50  1  0.83559039  0.50056978  0.83420546  1
  Ni  Ni51  1  0.83625060  0.83229161  0.49936425  1
  Ni  Ni52  1  0.67070702  0.66543040  0.66315232  1
  Cr  Cr53  1  0.83388764  0.83021667  0.83291902  1
" 