3576,Ni38Fe19Cr41_12,-222.804826920151, 174.677278467956,Ni38Fe19Cr41,"# generated using pymatgen
 data_Cr12(FeNi2)5
_symmetry_space_group_name_H-M   'P 1'
_cell_length_a   7.49129456
_cell_length_b   7.49129456
_cell_length_c   10.59429037
_cell_angle_alpha   90.00000000
_cell_angle_beta   90.00000000
_cell_angle_gamma   90.00000000
_symmetry_Int_Tables_number   1
_chemical_formula_structural   Cr12(FeNi2)5
_chemical_formula_sum   'Cr24 Fe10 Ni20'
_cell_volume   594.54621666
_cell_formula_units_Z   2
loop_
 _symmetry_equiv_pos_site_id
 _symmetry_equiv_pos_as_xyz
  1  'x, y, z'
loop_
 _atom_site_type_symbol
 _atom_site_label
 _atom_site_symmetry_multiplicity
 _atom_site_fract_x
 _atom_site_fract_y
 _atom_site_fract_z
 _atom_site_occupancy
  Fe  Fe0  1  -0.00137734  0.99689049  -0.00007766  1
  Cr  Cr1  1  0.16662684  0.17084973  0.16578550  1
  Cr  Cr2  1  0.00137043  0.99673695  0.32854306  1
  Fe  Fe3  1  0.99806777  0.33469835  -0.00015099  1
  Ni  Ni4  1  0.16620412  0.49981542  0.16524632  1
  Ni  Ni5  1  -0.00096621  0.33440536  0.33331902  1
  Ni  Ni6  1  0.00117123  0.66644109  0.00009847  1
  Fe  Fe7  1  0.16698779  0.82967912  0.16392669  1
  Cr  Cr8  1  0.00008974  0.66456354  0.33180446  1
  Cr  Cr9  1  0.33149644  0.99834909  0.00093994  1
  Ni  Ni10  1  0.49779555  0.16399206  0.16670474  1
  Ni  Ni11  1  0.33383843  0.99632764  0.33124795  1
  Ni  Ni12  1  0.33336690  0.33211809  -0.00022363  1
  Cr  Cr13  1  0.49474984  0.49827390  0.16487223  1
  Ni  Ni14  1  0.33179024  0.33193219  0.33016536  1
  Fe  Fe15  1  0.33132079  0.66557594  0.00067274  1
  Ni  Ni16  1  0.49938233  0.83273933  0.16834991  1
  Ni  Ni17  1  0.32980180  0.66686649  0.32994705  1
  Ni  Ni18  1  0.66400642  -0.00032589  0.00228224  1
  Cr  Cr19  1  0.83026412  0.16494827  0.16443581  1
  Fe  Fe20  1  0.66284770  -0.00158335  0.32889325  1
  Ni  Ni21  1  0.66335932  0.33042851  0.99703394  1
  Cr  Cr22  1  0.83368782  0.49923945  0.16679852  1
  Ni  Ni23  1  0.66443721  0.33144765  0.33114483  1
  Cr  Cr24  1  0.66698800  0.66349439  0.99670991  1
  Ni  Ni25  1  0.82959456  0.83202073  0.16293176  1
  Fe  Fe26  1  0.66309662  0.66501062  0.33070229  1
  Cr  Cr27  1  0.16587307  0.16666598  0.50035991  1
  Ni  Ni28  1  0.00231463  0.99569619  0.66624888  1
  Cr  Cr29  1  0.16482338  0.16471735  0.82914150  1
  Ni  Ni30  1  0.16602021  0.49746023  0.49609527  1
  Fe  Fe31  1  -0.00036269  0.33369434  0.66346308  1
  Cr  Cr32  1  0.16656545  0.49785646  0.83489225  1
  Fe  Fe33  1  0.16723924  0.83144296  0.49816551  1
  Cr  Cr34  1  -0.00123626  0.66415935  0.66282862  1
  Ni  Ni35  1  0.16474578  0.83117742  0.83303487  1
  Cr  Cr36  1  0.49561345  0.16346714  0.49573951  1
  Ni  Ni37  1  0.32737147  0.99746712  0.66336614  1
  Cr  Cr38  1  0.49589144  0.16502848  0.83226008  1
  Cr  Cr39  1  0.49560495  0.49999030  0.49541629  1
  Ni  Ni40  1  0.33144989  0.33169367  0.66488738  1
  Fe  Fe41  1  0.49738355  0.49680566  0.83405737  1
  Fe  Fe42  1  0.49452524  0.83062821  0.49596260  1
  Cr  Cr43  1  0.32958943  0.66489072  0.66595370  1
  Cr  Cr44  1  0.49640583  0.83077558  0.83058248  1
  Cr  Cr45  1  0.83417053  0.16550418  0.49765311  1
  Cr  Cr46  1  0.66328688  -0.00062193  0.66428726  1
  Cr  Cr47  1  0.83447473  0.16449750  0.83368142  1
  Ni  Ni48  1  0.83289189  0.49824071  0.49583038  1
  Cr  Cr49  1  0.66517112  0.33390632  0.66733331  1
  Ni  Ni50  1  0.83466301  0.49737436  0.83318604  1
  Cr  Cr51  1  0.82798855  0.83173962  0.49688567  1
  Cr  Cr52  1  0.66643139  0.66123603  0.66541046  1
  Cr  Cr53  1  0.83371492  0.83218042  0.83378276  1
" 