6705,Ni38Fe39Cr22_6,-231.013752304681, 194.936512830222,Ni38Fe39Cr22,"# generated using pymatgen
 data_Cr13Fe21Ni20
_symmetry_space_group_name_H-M   'P 1'
_cell_length_a   7.45257896
_cell_length_b   7.45257896
_cell_length_c   10.53953824
_cell_angle_alpha   90.00000000
_cell_angle_beta   90.00000000
_cell_angle_gamma   90.00000000
_symmetry_Int_Tables_number   1
_chemical_formula_structural   Cr13Fe21Ni20
_chemical_formula_sum   'Cr13 Fe21 Ni20'
_cell_volume   585.37578869
_cell_formula_units_Z   1
loop_
 _symmetry_equiv_pos_site_id
 _symmetry_equiv_pos_as_xyz
  1  'x, y, z'
loop_
 _atom_site_type_symbol
 _atom_site_label
 _atom_site_symmetry_multiplicity
 _atom_site_fract_x
 _atom_site_fract_y
 _atom_site_fract_z
 _atom_site_occupancy
  Cr  Cr0  1  0.99979672  0.00132853  0.00098390  1
  Cr  Cr1  1  0.16956648  0.16953055  0.16907270  1
  Cr  Cr2  1  1.00002149  0.00174852  0.33493269  1
  Ni  Ni3  1  1.00083466  0.33745673  0.00204867  1
  Fe  Fe4  1  0.16814872  0.50034160  0.16683477  1
  Ni  Ni5  1  0.99856552  0.33357627  0.33316485  1
  Fe  Fe6  1  0.99890299  0.66564726  1.00006048  1
  Cr  Cr7  1  0.17065230  0.83276860  0.16583015  1
  Cr  Cr8  1  0.99816684  0.66775090  0.33238522  1
  Ni  Ni9  1  0.33629263  0.99893922  0.99773975  1
  Cr  Cr10  1  0.50230215  0.16625769  0.16630041  1
  Ni  Ni11  1  0.33491630  1.00027575  0.33684262  1
  Fe  Fe12  1  0.33468781  0.33399375  0.99920851  1
  Fe  Fe13  1  0.50337553  0.50137635  0.16712036  1
  Ni  Ni14  1  0.33542596  0.33454113  0.33265021  1
  Fe  Fe15  1  0.33682097  0.66702528  0.99944244  1
  Ni  Ni16  1  0.50256885  0.83435594  0.16825448  1
  Cr  Cr17  1  0.33735154  0.66797177  0.33491868  1
  Ni  Ni18  1  0.66568953  0.99924062  0.00194758  1
  Fe  Fe19  1  0.83204680  0.17045578  0.16646508  1
  Fe  Fe20  1  0.66751800  0.99955558  0.33415676  1
  Ni  Ni21  1  0.66765604  0.33664449  0.99952775  1
  Ni  Ni22  1  0.83375084  0.49976843  0.16671434  1
  Ni  Ni23  1  0.66912311  0.33708123  0.33497313  1
  Fe  Fe24  1  0.66753066  0.66861261  0.00175155  1
  Fe  Fe25  1  0.82988028  0.83321200  0.16706900  1
  Ni  Ni26  1  0.66727767  0.66725130  0.33329765  1
  Fe  Fe27  1  0.16662411  0.16656379  0.50103564  1
  Ni  Ni28  1  0.00225834  1.00042466  0.66741888  1
  Fe  Fe29  1  0.16740429  0.16617112  0.83487318  1
  Cr  Cr30  1  0.16609143  0.50147380  0.49980378  1
  Ni  Ni31  1  1.00027101  0.33444822  0.66712126  1
  Fe  Fe32  1  0.16526479  0.50312807  0.83421189  1
  Ni  Ni33  1  0.16730488  0.83451212  0.50512229  1
  Ni  Ni34  1  1.00013609  0.66802921  0.66948998  1
  Fe  Fe35  1  0.16754847  0.83383455  0.83271287  1
  Cr  Cr36  1  0.50123870  0.16829556  0.50026046  1
  Ni  Ni37  1  0.33240245  0.99943728  0.66874136  1
  Fe  Fe38  1  0.50069291  0.16524043  0.83671573  1
  Fe  Fe39  1  0.50233848  0.50227596  0.50015443  1
  Cr  Cr40  1  0.33529980  0.33425008  0.67021184  1
  Fe  Fe41  1  0.50221439  0.50287488  0.83584958  1
  Fe  Fe42  1  0.50005054  0.83378315  0.50097536  1
  Ni  Ni43  1  0.33463249  0.66889952  0.66836224  1
  Ni  Ni44  1  0.49955379  0.83421305  0.83481853  1
  Fe  Fe45  1  0.83680791  0.16903111  0.50199481  1
  Cr  Cr46  1  0.66766213  0.99914310  0.66801523  1
  Cr  Cr47  1  0.83326348  0.16902209  0.83413056  1
  Fe  Fe48  1  0.83363589  0.50047093  0.50012339  1
  Fe  Fe49  1  0.66923550  0.33551499  0.66737311  1
  Fe  Fe50  1  0.83527721  0.50276031  0.83577946  1
  Ni  Ni51  1  0.83509463  0.83312052  0.50050286  1
  Cr  Cr52  1  0.66708984  0.66639102  0.66691261  1
  Ni  Ni53  1  0.83415461  0.83240119  0.83601351  1
" 