5365,Ni38Fe50Cr11_7,-234.343429502561, 205.854382411439,Ni38Fe50Cr11,"# generated using pymatgen
 data_Cr7Fe27Ni20
_symmetry_space_group_name_H-M   'P 1'
_cell_length_a   7.42083027
_cell_length_b   7.42083027
_cell_length_c   10.49463881
_cell_angle_alpha   90.00000000
_cell_angle_beta   90.00000000
_cell_angle_gamma   90.00000000
_symmetry_Int_Tables_number   1
_chemical_formula_structural   Cr7Fe27Ni20
_chemical_formula_sum   'Cr7 Fe27 Ni20'
_cell_volume   577.92634510
_cell_formula_units_Z   1
loop_
 _symmetry_equiv_pos_site_id
 _symmetry_equiv_pos_as_xyz
  1  'x, y, z'
loop_
 _atom_site_type_symbol
 _atom_site_label
 _atom_site_symmetry_multiplicity
 _atom_site_fract_x
 _atom_site_fract_y
 _atom_site_fract_z
 _atom_site_occupancy
  Fe  Fe0  1  1.00132919  0.00353066  1.00101981  1
  Cr  Cr1  1  0.16837652  0.17087228  0.16918285  1
  Fe  Fe2  1  1.00091758  0.00438599  0.33810955  1
  Ni  Ni3  1  1.00194336  0.33784269  1.00297536  1
  Ni  Ni4  1  0.17007028  0.50321201  0.16875062  1
  Fe  Fe5  1  1.00196944  0.33408713  0.33709899  1
  Ni  Ni6  1  0.00345375  0.66919417  1.00248330  1
  Cr  Cr7  1  0.16947421  0.83691560  0.16976563  1
  Cr  Cr8  1  1.00296465  0.66809822  0.33701722  1
  Fe  Fe9  1  0.33601775  1.00243128  1.00164268  1
  Cr  Cr10  1  0.50308698  0.17019371  0.16967621  1
  Ni  Ni11  1  0.33882056  1.00264224  0.33814526  1
  Ni  Ni12  1  0.33612761  0.33849805  1.00137367  1
  Cr  Cr13  1  0.50346378  0.50435477  0.16990186  1
  Fe  Fe14  1  0.33522431  0.33669414  0.33802894  1
  Ni  Ni15  1  0.33664110  0.67068488  1.00272384  1
  Fe  Fe16  1  0.50440020  0.83708603  0.17077522  1
  Fe  Fe17  1  0.33842930  0.67080726  0.33745468  1
  Fe  Fe18  1  0.67144990  1.00160269  0.00390531  1
  Ni  Ni19  1  0.83659981  0.16848326  0.16935401  1
  Ni  Ni20  1  0.66917121  0.00365973  0.33720838  1
  Ni  Ni21  1  0.67153158  0.33538563  1.00290657  1
  Fe  Fe22  1  0.83829377  0.50189809  0.16856710  1
  Fe  Fe23  1  0.67204851  0.33532196  0.33793242  1
  Fe  Fe24  1  0.67031556  0.66886521  1.00216812  1
  Ni  Ni25  1  0.83534123  0.83640061  0.16980681  1
  Fe  Fe26  1  0.66875364  0.67241448  0.33774621  1
  Ni  Ni27  1  0.17019867  0.16837024  0.50205389  1
  Ni  Ni28  1  0.00351178  1.00154841  0.66909376  1
  Ni  Ni29  1  0.16884938  0.16749545  0.83782865  1
  Fe  Fe30  1  0.17012400  0.50266205  0.50285665  1
  Cr  Cr31  1  1.00156240  0.33756827  0.67123042  1
  Fe  Fe32  1  0.17018816  0.50333002  0.83837498  1
  Fe  Fe33  1  0.16958633  0.83730976  0.50383573  1
  Ni  Ni34  1  0.00375588  0.67091915  0.66997076  1
  Fe  Fe35  1  0.16939135  0.83525642  0.83630357  1
  Fe  Fe36  1  0.50426059  0.16943454  0.50306281  1
  Fe  Fe37  1  0.33452744  1.00300498  0.66796836  1
  Cr  Cr38  1  0.50242380  0.17114766  0.83550355  1
  Fe  Fe39  1  0.50355946  0.50199731  0.50403908  1
  Fe  Fe40  1  0.33469172  0.33685294  0.66968291  1
  Ni  Ni41  1  0.50477461  0.50442442  0.83516838  1
  Ni  Ni42  1  0.50269119  0.83515136  0.50329452  1
  Fe  Fe43  1  0.33633379  0.66947247  0.67015301  1
  Fe  Fe44  1  0.50288846  0.83491556  0.83559882  1
  Ni  Ni45  1  0.83722084  0.16990864  0.50345629  1
  Fe  Fe46  1  0.67186753  1.00242101  0.66774962  1
  Fe  Fe47  1  0.83646431  0.17078655  0.83667582  1
  Ni  Ni48  1  0.83479614  0.50390726  0.50281801  1
  Ni  Ni49  1  0.66871637  0.33629438  0.66861935  1
  Ni  Ni50  1  0.83481084  0.50525798  0.83774477  1
  Fe  Fe51  1  0.83582735  0.83767744  0.50343478  1
  Fe  Fe52  1  0.67174356  0.66913289  0.66933301  1
  Fe  Fe53  1  0.83717577  0.83634758  0.83658537  1
" 