1491,Ni38Fe19Cr41_1,-222.621659215843, 173.229574738451,Ni38Fe19Cr41,"# generated using pymatgen
 data_Cr12(FeNi2)5
_symmetry_space_group_name_H-M   'P 1'
_cell_length_a   7.49507587
_cell_length_b   7.49507587
_cell_length_c   10.59963794
_cell_angle_alpha   90.00000000
_cell_angle_beta   90.00000000
_cell_angle_gamma   90.00000000
_symmetry_Int_Tables_number   1
_chemical_formula_structural   Cr12(FeNi2)5
_chemical_formula_sum   'Cr24 Fe10 Ni20'
_cell_volume   595.44698131
_cell_formula_units_Z   2
loop_
 _symmetry_equiv_pos_site_id
 _symmetry_equiv_pos_as_xyz
  1  'x, y, z'
loop_
 _atom_site_type_symbol
 _atom_site_label
 _atom_site_symmetry_multiplicity
 _atom_site_fract_x
 _atom_site_fract_y
 _atom_site_fract_z
 _atom_site_occupancy
  Ni  Ni0  1  0.99564473  -0.00093967  0.99749165  1
  Fe  Fe1  1  0.16489160  0.16223613  0.16578400  1
  Fe  Fe2  1  0.00114202  0.99737496  0.33255917  1
  Ni  Ni3  1  0.99576044  0.32840024  -0.00168527  1
  Cr  Cr4  1  0.16560509  0.49654128  0.16754074  1
  Cr  Cr5  1  -0.00186910  0.33011983  0.33312284  1
  Cr  Cr6  1  0.00116816  0.66756721  -0.00174728  1
  Ni  Ni7  1  0.16399064  0.83580210  0.16734692  1
  Fe  Fe8  1  0.00252799  0.66735961  0.33245811  1
  Cr  Cr9  1  0.33076883  0.99709476  -0.00046748  1
  Fe  Fe10  1  0.49684122  0.16293564  0.16637356  1
  Ni  Ni11  1  0.33114314  0.99713588  0.33113736  1
  Cr  Cr12  1  0.33245710  0.32953491  -0.00066171  1
  Cr  Cr13  1  0.49934924  0.49872055  0.16408693  1
  Ni  Ni14  1  0.33160646  0.32914580  0.33229855  1
  Cr  Cr15  1  0.33006083  0.66632774  0.99611050  1
  Cr  Cr16  1  0.49851972  0.83224961  0.16726189  1
  Ni  Ni17  1  0.33025761  0.66752637  0.33293024  1
  Ni  Ni18  1  0.66623330  0.00101077  0.99730627  1
  Cr  Cr19  1  0.83268910  0.16272123  0.16355488  1
  Fe  Fe20  1  0.66167319  -0.00108509  0.33327438  1
  Fe  Fe21  1  0.66506239  0.32738645  0.99647739  1
  Cr  Cr22  1  0.83008715  0.49908552  0.16408573  1
  Cr  Cr23  1  0.66389316  0.32761663  0.33294661  1
  Fe  Fe24  1  0.66539464  0.66775462  0.99673394  1
  Cr  Cr25  1  0.83089140  0.83287595  0.16649029  1
  Ni  Ni26  1  0.66274730  0.66668141  0.33252182  1
  Cr  Cr27  1  0.16584418  0.16388504  0.50118147  1
  Ni  Ni28  1  -0.00148928  -0.00115634  0.66540485  1
  Cr  Cr29  1  0.16345722  0.16282876  0.82924750  1
  Ni  Ni30  1  0.16647783  0.49778537  0.49754154  1
  Ni  Ni31  1  0.99636857  0.32957211  0.66302399  1
  Cr  Cr32  1  0.16567227  0.49386452  0.82808050  1
  Ni  Ni33  1  0.16693442  0.83349902  0.49685847  1
  Cr  Cr34  1  -0.00077179  0.66707188  0.66270781  1
  Ni  Ni35  1  0.16212102  0.83616790  0.83038655  1
  Ni  Ni36  1  0.49603192  0.16113653  0.49619982  1
  Ni  Ni37  1  0.33161853  0.99771915  0.66431756  1
  Ni  Ni38  1  0.49892090  0.16453257  0.83208199  1
  Cr  Cr39  1  0.49612381  0.50043966  0.49870057  1
  Fe  Fe40  1  0.33355123  0.32914408  0.66418705  1
  Ni  Ni41  1  0.50164983  0.49592219  0.83226995  1
  Ni  Ni42  1  0.49628985  0.83351396  0.49629462  1
  Cr  Cr43  1  0.33111536  0.66815598  0.66523838  1
  Cr  Cr44  1  0.49978707  0.83269776  0.83064857  1
  Ni  Ni45  1  0.83279488  0.16203910  0.49912948  1
  Cr  Cr46  1  0.66326162  -0.00069744  0.66185443  1
  Fe  Fe47  1  0.83146586  0.16288348  0.83144625  1
  Cr  Cr48  1  0.83230643  0.49912068  0.49670081  1
  Cr  Cr49  1  0.66483326  0.32893719  0.66376225  1
  Cr  Cr50  1  0.83091365  0.49785071  0.83322142  1
  Cr  Cr51  1  0.82966373  0.83289158  0.49577694  1
  Ni  Ni52  1  0.66382685  0.66517219  0.66626487  1
  Fe  Fe53  1  0.83172541  0.83487387  0.83117231  1
" 