4075,Ni38Cr62_18,-224.557500181691, 141.936681639533,Ni38Cr62,"# generated using pymatgen
 data_Cr10Ni17
_symmetry_space_group_name_H-M   'P 1'
_cell_length_a   7.49674192
_cell_length_b   7.49674192
_cell_length_c   10.60199410
_cell_angle_alpha   90.00000000
_cell_angle_beta   90.00000000
_cell_angle_gamma   90.00000000
_symmetry_Int_Tables_number   1
_chemical_formula_structural   Cr10Ni17
_chemical_formula_sum   'Cr20 Ni34'
_cell_volume   595.84414938
_cell_formula_units_Z   2
loop_
 _symmetry_equiv_pos_site_id
 _symmetry_equiv_pos_as_xyz
  1  'x, y, z'
loop_
 _atom_site_type_symbol
 _atom_site_label
 _atom_site_symmetry_multiplicity
 _atom_site_fract_x
 _atom_site_fract_y
 _atom_site_fract_z
 _atom_site_occupancy
  Ni  Ni0  1  -0.00142588  0.99781811  0.00007475  1
  Ni  Ni1  1  0.16288352  0.16557546  0.16498921  1
  Ni  Ni2  1  -0.00086685  0.00075560  0.32915488  1
  Cr  Cr3  1  0.99584962  0.32855681  -0.00068133  1
  Ni  Ni4  1  0.16378091  0.49611024  0.16407928  1
  Ni  Ni5  1  0.99698591  0.33089195  0.32882566  1
  Ni  Ni6  1  0.99707936  0.66738312  0.00187515  1
  Ni  Ni7  1  0.16252611  0.83432542  0.16140161  1
  Cr  Cr8  1  0.99634792  0.66969557  0.32834549  1
  Ni  Ni9  1  0.32988480  -0.00040636  -0.00155763  1
  Cr  Cr10  1  0.49799616  0.16476523  0.16386679  1
  Cr  Cr11  1  0.32706335  0.99650760  0.32916188  1
  Ni  Ni12  1  0.33285751  0.32896832  -0.00077151  1
  Ni  Ni13  1  0.50002292  0.49661542  0.16471488  1
  Ni  Ni14  1  0.33006280  0.33195601  0.32871319  1
  Cr  Cr15  1  0.33099842  0.66400617  0.00186494  1
  Ni  Ni16  1  0.50074237  0.82942012  0.16236222  1
  Cr  Cr17  1  0.33356150  0.66372813  0.32750853  1
  Ni  Ni18  1  0.66591521  -0.00064668  -0.00068557  1
  Ni  Ni19  1  0.83313072  0.16483322  0.16392985  1
  Cr  Cr20  1  0.67064838  0.99502245  0.32757278  1
  Ni  Ni21  1  0.66292938  0.33066106  -0.00138269  1
  Ni  Ni22  1  0.83047304  0.49832589  0.16466631  1
  Ni  Ni23  1  0.66629180  0.33546292  0.32875213  1
  Ni  Ni24  1  0.66543217  0.66295429  0.00242885  1
  Ni  Ni25  1  0.83169863  0.83158658  0.16208089  1
  Ni  Ni26  1  0.66638428  0.66157176  0.32970937  1
  Ni  Ni27  1  0.16321946  0.16335495  0.49641750  1
  Cr  Cr28  1  0.99762149  -0.00020909  0.66473953  1
  Ni  Ni29  1  0.16527187  0.16313820  0.83307982  1
  Cr  Cr30  1  0.16259743  0.49311300  0.49521447  1
  Ni  Ni31  1  -0.00179971  0.32902605  0.66494553  1
  Cr  Cr32  1  0.16413083  0.49903424  0.83533770  1
  Ni  Ni33  1  0.16270595  0.83453511  0.49778997  1
  Cr  Cr34  1  0.99755628  0.66500400  0.66402763  1
  Ni  Ni35  1  0.16484866  0.83641538  0.83457098  1
  Cr  Cr36  1  0.49542314  0.16583564  0.49537905  1
  Ni  Ni37  1  0.32951446  -0.00030144  0.66639288  1
  Ni  Ni38  1  0.49752997  0.16319377  0.83465771  1
  Ni  Ni39  1  0.50152418  0.49807801  0.49479718  1
  Cr  Cr40  1  0.33221167  0.32974384  0.66749866  1
  Ni  Ni41  1  0.50032962  0.49632786  0.83506102  1
  Cr  Cr42  1  0.50012330  0.83190679  0.49848849  1
  Cr  Cr43  1  0.33229612  0.66596168  0.66438075  1
  Cr  Cr44  1  0.49896420  0.83207713  0.83297652  1
  Cr  Cr45  1  0.83256117  0.16669435  0.49540075  1
  Ni  Ni46  1  0.66337179  0.99709808  0.66631362  1
  Ni  Ni47  1  0.83026332  0.16309631  0.83351766  1
  Ni  Ni48  1  0.82942473  0.49933470  0.49636399  1
  Cr  Cr49  1  0.66597635  0.33045360  0.66718602  1
  Cr  Cr50  1  0.83094616  0.49888203  0.83299802  1
  Ni  Ni51  1  0.83136911  0.83002354  0.49742619  1
  Ni  Ni52  1  0.66475232  0.66333064  0.66221162  1
  Cr  Cr53  1  0.83106607  0.83146126  0.83488083  1
" 