4624,Ni38Fe61Cr0_17,-237.653925569157, 208.033659022056,Ni38Fe61Cr0,"# generated using pymatgen
 data_CrFe33Ni20
_symmetry_space_group_name_H-M   'P 1'
_cell_length_a   7.39961991
_cell_length_b   7.39961991
_cell_length_c   10.46464284
_cell_angle_alpha   90.00000000
_cell_angle_beta   90.00000000
_cell_angle_gamma   90.00000000
_symmetry_Int_Tables_number   1
_chemical_formula_structural   CrFe33Ni20
_chemical_formula_sum   'Cr1 Fe33 Ni20'
_cell_volume   572.98497637
_cell_formula_units_Z   1
loop_
 _symmetry_equiv_pos_site_id
 _symmetry_equiv_pos_as_xyz
  1  'x, y, z'
loop_
 _atom_site_type_symbol
 _atom_site_label
 _atom_site_symmetry_multiplicity
 _atom_site_fract_x
 _atom_site_fract_y
 _atom_site_fract_z
 _atom_site_occupancy
  Ni  Ni0  1  0.00490743  0.00460924  1.00443570  1
  Ni  Ni1  1  0.17249179  0.17097824  0.17086682  1
  Fe  Fe2  1  0.00465388  1.00418900  0.33771609  1
  Ni  Ni3  1  0.00570196  0.33747602  0.00468423  1
  Fe  Fe4  1  0.17077777  0.50503116  0.17073637  1
  Fe  Fe5  1  1.00432605  0.33762817  0.33743376  1
  Ni  Ni6  1  1.00375429  0.67158169  1.00419150  1
  Ni  Ni7  1  0.17073315  0.83835965  0.17020783  1
  Ni  Ni8  1  1.00438351  0.67149494  0.33800049  1
  Fe  Fe9  1  0.33588584  1.00394162  0.00648562  1
  Ni  Ni10  1  0.50341450  0.17167294  0.17119549  1
  Ni  Ni11  1  0.33814272  0.00471565  0.33848855  1
  Ni  Ni12  1  0.33681416  0.33800243  0.00590639  1
  Fe  Fe13  1  0.50478726  0.50471155  0.17144868  1
  Fe  Fe14  1  0.33818932  0.33773708  0.33736485  1
  Fe  Fe15  1  0.33713381  0.67114992  0.00456921  1
  Ni  Ni16  1  0.50455142  0.83828599  0.17101223  1
  Fe  Fe17  1  0.33793699  0.67159031  0.33833349  1
  Fe  Fe18  1  0.67273994  1.00341479  0.00526285  1
  Fe  Fe19  1  0.83791806  0.17056853  0.17152253  1
  Fe  Fe20  1  0.67141341  1.00444103  0.33836743  1
  Fe  Fe21  1  0.67300185  0.33936828  0.00621150  1
  Ni  Ni22  1  0.83768892  0.50546735  0.17142856  1
  Ni  Ni23  1  0.67079750  0.33780229  0.33805325  1
  Ni  Ni24  1  0.67141623  0.67159012  1.00443478  1
  Ni  Ni25  1  0.83838249  0.83606917  0.17107781  1
  Fe  Fe26  1  0.67130555  0.67126221  0.33721905  1
  Fe  Fe27  1  0.17104840  0.17067390  0.50460308  1
  Fe  Fe28  1  1.00406905  0.00465931  0.67130517  1
  Ni  Ni29  1  0.17007386  0.17130627  0.83743799  1
  Fe  Fe30  1  0.17049515  0.50532651  0.50464284  1
  Fe  Fe31  1  1.00408746  0.33683221  0.67186689  1
  Fe  Fe32  1  0.17129186  0.50358678  0.83829048  1
  Ni  Ni33  1  0.17032128  0.83793412  0.50504704  1
  Fe  Fe34  1  1.00416160  0.67217638  0.67066278  1
  Fe  Fe35  1  0.17108595  0.83843338  0.83800976  1
  Fe  Fe36  1  0.50532128  0.17057151  0.50415895  1
  Fe  Fe37  1  0.33704273  1.00363787  0.66998209  1
  Cr  Cr38  1  0.50376677  0.17187258  0.83823026  1
  Ni  Ni39  1  0.50479407  0.50371115  0.50502383  1
  Fe  Fe40  1  0.33758394  0.33841501  0.67106130  1
  Fe  Fe41  1  0.50394406  0.50577655  0.83754462  1
  Fe  Fe42  1  0.50494841  0.83838289  0.50448727  1
  Fe  Fe43  1  0.33853456  0.67161693  0.67076569  1
  Fe  Fe44  1  0.50457551  0.83667391  0.83813772  1
  Ni  Ni45  1  0.83748935  0.17095786  0.50502329  1
  Ni  Ni46  1  0.67163732  1.00372720  0.66961200  1
  Fe  Fe47  1  0.84019033  0.17101610  0.83718893  1
  Fe  Fe48  1  0.83801531  0.50495288  0.50367164  1
  Fe  Fe49  1  0.67199465  0.33832164  0.66927662  1
  Fe  Fe50  1  0.83843037  0.50409244  0.83905303  1
  Ni  Ni51  1  0.83890238  0.83804418  0.50460866  1
  Fe  Fe52  1  0.67097298  0.67163404  0.67152837  1
  Fe  Fe53  1  0.83800418  0.83855966  0.83815723  1
" 