1446,Ni38Fe62_4,-242.796994439207, 224.367911076056,Ni38Fe62,"# generated using pymatgen
 data_Fe10Ni17
_symmetry_space_group_name_H-M   'P 1'
_cell_length_a   7.40542151
_cell_length_b   7.40542151
_cell_length_c   10.47284753
_cell_angle_alpha   90.00000000
_cell_angle_beta   90.00000000
_cell_angle_gamma   90.00000000
_symmetry_Int_Tables_number   1
_chemical_formula_structural   Fe10Ni17
_chemical_formula_sum   'Fe20 Ni34'
_cell_volume   574.33376233
_cell_formula_units_Z   2
loop_
 _symmetry_equiv_pos_site_id
 _symmetry_equiv_pos_as_xyz
  1  'x, y, z'
loop_
 _atom_site_type_symbol
 _atom_site_label
 _atom_site_symmetry_multiplicity
 _atom_site_fract_x
 _atom_site_fract_y
 _atom_site_fract_z
 _atom_site_occupancy
  Ni  Ni0  1  0.00524254  1.00400028  1.00328065  1
  Ni  Ni1  1  0.17136737  0.17146243  0.17143978  1
  Ni  Ni2  1  0.00473065  1.00378305  0.33797495  1
  Ni  Ni3  1  1.00341637  0.33759522  1.00394416  1
  Fe  Fe4  1  0.17004420  0.50338188  0.17141887  1
  Ni  Ni5  1  1.00371189  0.33711211  0.33832289  1
  Ni  Ni6  1  1.00374013  0.67088526  1.00396919  1
  Fe  Fe7  1  0.17008366  0.83890319  0.17145594  1
  Ni  Ni8  1  0.00486820  0.67158689  0.33787418  1
  Ni  Ni9  1  0.33741564  0.00434115  0.00471162  1
  Ni  Ni10  1  0.50353340  0.17112361  0.17031463  1
  Fe  Fe11  1  0.33620324  0.00508556  0.33756856  1
  Fe  Fe12  1  0.33712766  0.33690556  0.00449565  1
  Fe  Fe13  1  0.50486411  0.50294635  0.17078492  1
  Ni  Ni14  1  0.33824237  0.33725069  0.33809570  1
  Fe  Fe15  1  0.33785693  0.67097792  1.00405856  1
  Fe  Fe16  1  0.50445671  0.83897105  0.16983136  1
  Ni  Ni17  1  0.33673582  0.67110084  0.33845141  1
  Ni  Ni18  1  0.66982262  0.00466283  1.00314567  1
  Ni  Ni19  1  0.83758082  0.16994890  0.17090127  1
  Fe  Fe20  1  0.67192990  0.00474892  0.33671859  1
  Ni  Ni21  1  0.67097075  0.33760821  1.00372546  1
  Fe  Fe22  1  0.83757414  0.50297073  0.17061058  1
  Ni  Ni23  1  0.67053049  0.33710470  0.33766366  1
  Ni  Ni24  1  0.67131407  0.67020982  1.00391973  1
  Ni  Ni25  1  0.83689990  0.83753635  0.17089127  1
  Fe  Fe26  1  0.67175665  0.67019372  0.33771424  1
  Ni  Ni27  1  0.17114901  0.17133683  0.50310972  1
  Fe  Fe28  1  1.00341642  1.00401454  0.67038583  1
  Ni  Ni29  1  0.17066896  0.17167939  0.83793485  1
  Ni  Ni30  1  0.17148236  0.50400666  0.50366488  1
  Fe  Fe31  1  1.00385990  0.33786616  0.67089661  1
  Ni  Ni32  1  0.17178880  0.50326751  0.83770430  1
  Ni  Ni33  1  0.17113537  0.83714218  0.50389208  1
  Ni  Ni34  1  1.00363326  0.67098815  0.67063905  1
  Fe  Fe35  1  0.17034067  0.83723470  0.83715821  1
  Fe  Fe36  1  0.50416496  0.17126726  0.50367716  1
  Ni  Ni37  1  0.33694337  0.00435955  0.67010432  1
  Fe  Fe38  1  0.50471471  0.17108957  0.83805233  1
  Fe  Fe39  1  0.50445748  0.50386706  0.50427600  1
  Fe  Fe40  1  0.33727226  0.33823822  0.67056410  1
  Ni  Ni41  1  0.50373062  0.50558692  0.83782937  1
  Fe  Fe42  1  0.50372687  0.83734699  0.50500830  1
  Fe  Fe43  1  0.33797344  0.67056761  0.67049234  1
  Ni  Ni44  1  0.50519678  0.83637142  0.83817580  1
  Ni  Ni45  1  0.83769267  0.17066887  0.50329007  1
  Fe  Fe46  1  0.67138575  1.00331254  0.67138671  1
  Ni  Ni47  1  0.83812882  0.17021041  0.83828781  1
  Ni  Ni48  1  0.83735895  0.50467704  0.50359881  1
  Ni  Ni49  1  0.67074926  0.33829219  0.67109328  1
  Ni  Ni50  1  0.83696404  0.50477587  0.83813544  1
  Ni  Ni51  1  0.83703095  0.83713455  0.50398655  1
  Ni  Ni52  1  0.67189729  0.66949371  0.67046209  1
  Ni  Ni53  1  0.83580417  0.83749424  0.83759788  1
" 