6845,Ni38Fe50Cr11_12,-234.631057526359, 198.90247205709,Ni38Fe50Cr11,"# generated using pymatgen
 data_Cr7Fe27Ni20
_symmetry_space_group_name_H-M   'P 1'
_cell_length_a   7.43287749
_cell_length_b   7.43287749
_cell_length_c   10.51167616
_cell_angle_alpha   90.00000000
_cell_angle_beta   90.00000000
_cell_angle_gamma   90.00000000
_symmetry_Int_Tables_number   1
_chemical_formula_structural   Cr7Fe27Ni20
_chemical_formula_sum   'Cr7 Fe27 Ni20'
_cell_volume   580.74559236
_cell_formula_units_Z   1
loop_
 _symmetry_equiv_pos_site_id
 _symmetry_equiv_pos_as_xyz
  1  'x, y, z'
loop_
 _atom_site_type_symbol
 _atom_site_label
 _atom_site_symmetry_multiplicity
 _atom_site_fract_x
 _atom_site_fract_y
 _atom_site_fract_z
 _atom_site_occupancy
  Ni  Ni0  1  1.00224346  0.00275165  0.00323853  1
  Ni  Ni1  1  0.16592084  0.16827816  0.16844938  1
  Fe  Fe2  1  1.00199112  0.00269774  0.33368509  1
  Fe  Fe3  1  0.00233203  0.33549841  0.00259542  1
  Ni  Ni4  1  0.16816697  0.50202620  0.16872939  1
  Ni  Ni5  1  0.99875331  0.33571801  0.33465241  1
  Ni  Ni6  1  0.00445417  0.66891041  0.00277259  1
  Ni  Ni7  1  0.16790847  0.83658953  0.16843599  1
  Fe  Fe8  1  1.00137082  0.66853992  0.33466470  1
  Fe  Fe9  1  0.33352570  1.00099759  0.00347776  1
  Cr  Cr10  1  0.50225127  0.16837885  0.16910581  1
  Ni  Ni11  1  0.33540325  1.00003935  0.33488783  1
  Fe  Fe12  1  0.33426135  0.33722383  1.00178442  1
  Ni  Ni13  1  0.50293026  0.50463613  0.16727790  1
  Cr  Cr14  1  0.33606907  0.33594931  0.33510631  1
  Ni  Ni15  1  0.33435991  0.66783930  0.00274684  1
  Ni  Ni16  1  0.50340160  0.83419835  0.16914148  1
  Cr  Cr17  1  0.33523643  0.67099137  0.33490356  1
  Ni  Ni18  1  0.67058691  0.00402667  0.00242062  1
  Ni  Ni19  1  0.83819037  0.16780420  0.17009375  1
  Fe  Fe20  1  0.66958055  0.00242227  0.33526959  1
  Fe  Fe21  1  0.67030394  0.33643522  1.00145277  1
  Fe  Fe22  1  0.83622361  0.50236716  0.16904254  1
  Ni  Ni23  1  0.67219418  0.33580182  0.33654807  1
  Fe  Fe24  1  0.66904519  0.66839596  0.00336048  1
  Ni  Ni25  1  0.83558546  0.83644207  0.16930588  1
  Fe  Fe26  1  0.66959369  0.66821101  0.33595021  1
  Cr  Cr27  1  0.16820602  0.16939967  0.50150175  1
  Fe  Fe28  1  1.00139297  1.00223627  0.66959334  1
  Fe  Fe29  1  0.16830722  0.16986351  0.83582373  1
  Fe  Fe30  1  0.16770569  0.50341790  0.50357161  1
  Fe  Fe31  1  0.00232223  0.33692686  0.66986707  1
  Ni  Ni32  1  0.16950918  0.50115964  0.83394950  1
  Fe  Fe33  1  0.16906282  0.83482607  0.50247043  1
  Fe  Fe34  1  0.00235707  0.66773051  0.66910912  1
  Fe  Fe35  1  0.16824504  0.83443304  0.83659486  1
  Fe  Fe36  1  0.50355585  0.16793975  0.50174324  1
  Fe  Fe37  1  0.33623336  1.00198991  0.66818733  1
  Fe  Fe38  1  0.50251192  0.17066230  0.83650424  1
  Ni  Ni39  1  0.50329556  0.50366303  0.50347360  1
  Fe  Fe40  1  0.33568731  0.33755571  0.66971887  1
  Ni  Ni41  1  0.50071948  0.50192945  0.83614571  1
  Fe  Fe42  1  0.50277338  0.83615564  0.50287588  1
  Fe  Fe43  1  0.33589361  0.66734759  0.66873341  1
  Cr  Cr44  1  0.50244384  0.83444737  0.83628808  1
  Fe  Fe45  1  0.83444286  0.16929550  0.50115523  1
  Fe  Fe46  1  0.66927305  1.00202777  0.66828247  1
  Ni  Ni47  1  0.83722889  0.16921252  0.83551064  1
  Fe  Fe48  1  0.83577453  0.50263489  0.50187275  1
  Cr  Cr49  1  0.66910114  0.33596135  0.66983106  1
  Ni  Ni50  1  0.83666884  0.50106853  0.83597858  1
  Fe  Fe51  1  0.83505821  0.83496369  0.50250809  1
  Ni  Ni52  1  0.66856122  0.66822340  0.66785049  1
  Cr  Cr53  1  0.83590806  0.83588094  0.83588291  1
" 