7034,Ni38Fe24Cr37_4,-224.080711422312, 173.616759553034,Ni38Fe24Cr37,"# generated using pymatgen
 data_Cr11(Fe3Ni5)2
_symmetry_space_group_name_H-M   'P 1'
_cell_length_a   7.48698114
_cell_length_b   7.48698114
_cell_length_c   10.58819026
_cell_angle_alpha   90.00000000
_cell_angle_beta   90.00000000
_cell_angle_gamma   90.00000000
_symmetry_Int_Tables_number   1
_chemical_formula_structural   Cr11(Fe3Ni5)2
_chemical_formula_sum   'Cr22 Fe12 Ni20'
_cell_volume   593.51980385
_cell_formula_units_Z   2
loop_
 _symmetry_equiv_pos_site_id
 _symmetry_equiv_pos_as_xyz
  1  'x, y, z'
loop_
 _atom_site_type_symbol
 _atom_site_label
 _atom_site_symmetry_multiplicity
 _atom_site_fract_x
 _atom_site_fract_y
 _atom_site_fract_z
 _atom_site_occupancy
  Fe  Fe0  1  0.00091628  0.00188008  -0.00063229  1
  Ni  Ni1  1  0.16381584  0.16703117  0.16272122  1
  Cr  Cr2  1  0.99744806  0.99663743  0.33078362  1
  Ni  Ni3  1  -0.00024198  0.32935371  -0.00029103  1
  Ni  Ni4  1  0.16661608  0.49385842  0.16492440  1
  Fe  Fe5  1  0.99814375  0.32939825  0.33008090  1
  Cr  Cr6  1  -0.00122022  0.66742028  0.00096339  1
  Fe  Fe7  1  0.16502219  0.83512549  0.16473246  1
  Cr  Cr8  1  -0.00030583  0.66697802  0.33144864  1
  Fe  Fe9  1  0.32807981  0.00141427  0.99774538  1
  Cr  Cr10  1  0.49696715  0.16397078  0.16735861  1
  Ni  Ni11  1  0.33218794  0.99801761  0.33188099  1
  Ni  Ni12  1  0.33057018  0.33102208  0.99855517  1
  Ni  Ni13  1  0.49525977  0.49897086  0.16345380  1
  Cr  Cr14  1  0.33311471  0.33156892  0.33110821  1
  Cr  Cr15  1  0.33166893  0.66563883  -0.00070109  1
  Cr  Cr16  1  0.50116654  0.83247387  0.16512481  1
  Cr  Cr17  1  0.33004041  0.66760728  0.33216218  1
  Cr  Cr18  1  0.66685674  -0.00043376  -0.00098367  1
  Ni  Ni19  1  0.83609069  0.16277821  0.16600827  1
  Ni  Ni20  1  0.66623499  -0.00063172  0.33430055  1
  Cr  Cr21  1  0.66484276  0.33143530  0.99668441  1
  Cr  Cr22  1  0.83260615  0.49773491  0.16389658  1
  Cr  Cr23  1  0.66661442  0.32874668  0.33435736  1
  Fe  Fe24  1  0.66467761  0.66289431  0.99731719  1
  Ni  Ni25  1  0.83113093  0.83565160  0.16451106  1
  Cr  Cr26  1  0.66646231  0.66709768  0.33146262  1
  Cr  Cr27  1  0.16394635  0.16450582  0.49841577  1
  Fe  Fe28  1  0.99622279  0.99769774  0.66454089  1
  Fe  Fe29  1  0.16338745  0.16446317  0.83536384  1
  Cr  Cr30  1  0.16623323  0.49854838  0.49891279  1
  Cr  Cr31  1  0.99507201  0.32984818  0.66608226  1
  Cr  Cr32  1  0.16611407  0.49773115  0.83166757  1
  Ni  Ni33  1  0.16763854  0.83294966  0.49926514  1
  Cr  Cr34  1  -0.00057499  0.66887303  0.66330558  1
  Ni  Ni35  1  0.16751413  0.83583158  0.83144399  1
  Fe  Fe36  1  0.50031964  0.15914766  0.49772481  1
  Cr  Cr37  1  0.33252383  0.99670900  0.66676759  1
  Fe  Fe38  1  0.49910460  0.16466886  0.83297124  1
  Fe  Fe39  1  0.50075970  0.50275859  0.50080631  1
  Cr  Cr40  1  0.33584310  0.33191715  0.66703277  1
  Ni  Ni41  1  0.49903490  0.50083954  0.83166949  1
  Ni  Ni42  1  0.50067315  0.83249183  0.50025790  1
  Ni  Ni43  1  0.33450790  0.66819704  0.66475180  1
  Fe  Fe44  1  0.49933720  0.82996411  0.82994118  1
  Ni  Ni45  1  0.82989321  0.16217771  0.49845110  1
  Ni  Ni46  1  0.66603450  0.99865899  0.66324755  1
  Ni  Ni47  1  0.83365919  0.16407133  0.83165624  1
  Fe  Fe48  1  0.83051383  0.50092849  0.49972755  1
  Cr  Cr49  1  0.66533716  0.32961644  0.66526484  1
  Ni  Ni50  1  0.82873479  0.49707455  0.83219042  1
  Ni  Ni51  1  0.82776544  0.83535914  0.50057083  1
  Ni  Ni52  1  0.66342005  0.66651346  0.66617343  1
  Cr  Cr53  1  0.83033256  0.83293136  0.83093791  1
" 