848,Ni38Fe61Cr0_2,-237.511843016038, 214.364378549223,Ni38Fe61Cr0,"# generated using pymatgen
 data_CrFe33Ni20
_symmetry_space_group_name_H-M   'P 1'
_cell_length_a   7.39771651
_cell_length_b   7.39771651
_cell_length_c   10.46195101
_cell_angle_alpha   90.00000000
_cell_angle_beta   90.00000000
_cell_angle_gamma   90.00000000
_symmetry_Int_Tables_number   1
_chemical_formula_structural   CrFe33Ni20
_chemical_formula_sum   'Cr1 Fe33 Ni20'
_cell_volume   572.54292301
_cell_formula_units_Z   1
loop_
 _symmetry_equiv_pos_site_id
 _symmetry_equiv_pos_as_xyz
  1  'x, y, z'
loop_
 _atom_site_type_symbol
 _atom_site_label
 _atom_site_symmetry_multiplicity
 _atom_site_fract_x
 _atom_site_fract_y
 _atom_site_fract_z
 _atom_site_occupancy
  Fe  Fe0  1  0.00511965  0.00505594  1.00451323  1
  Fe  Fe1  1  0.17201856  0.16920827  0.17174051  1
  Fe  Fe2  1  0.00509873  1.00422827  0.33837783  1
  Fe  Fe3  1  1.00438072  0.33672293  1.00438030  1
  Cr  Cr4  1  0.17298590  0.50476037  0.17126008  1
  Ni  Ni5  1  1.00307752  0.33798220  0.33918352  1
  Fe  Fe6  1  1.00423287  0.67228003  1.00371682  1
  Ni  Ni7  1  0.16971262  0.83965917  0.17204810  1
  Fe  Fe8  1  1.00397605  0.67290620  0.33944496  1
  Ni  Ni9  1  0.33771115  1.00458178  0.00514638  1
  Ni  Ni10  1  0.50472507  0.17217975  0.17112793  1
  Ni  Ni11  1  0.33832223  1.00331295  0.33772724  1
  Ni  Ni12  1  0.34005307  0.33675798  1.00436376  1
  Ni  Ni13  1  0.50572360  0.50286035  0.17146980  1
  Fe  Fe14  1  0.33883834  0.33671924  0.33847494  1
  Fe  Fe15  1  0.33944668  0.67138441  1.00443523  1
  Fe  Fe16  1  0.50400946  0.83822416  0.17197232  1
  Ni  Ni17  1  0.33840594  0.67310658  0.33850679  1
  Fe  Fe18  1  0.67042997  0.00575666  0.00534550  1
  Fe  Fe19  1  0.83761267  0.17142511  0.17148164  1
  Ni  Ni20  1  0.67076753  0.00477161  0.33792348  1
  Ni  Ni21  1  0.67093543  0.33875591  0.00577151  1
  Fe  Fe22  1  0.83602514  0.50462060  0.17166589  1
  Fe  Fe23  1  0.67056043  0.33784935  0.33771678  1
  Fe  Fe24  1  0.67037957  0.67064201  0.00484708  1
  Ni  Ni25  1  0.83892184  0.83866720  0.17117535  1
  Fe  Fe26  1  0.67135927  0.67187263  0.33798606  1
  Ni  Ni27  1  0.17207113  0.17198889  0.50437481  1
  Ni  Ni28  1  0.00496616  1.00349360  0.67065411  1
  Fe  Fe29  1  0.17241714  0.17149397  0.83779255  1
  Ni  Ni30  1  0.17094691  0.50391037  0.50542307  1
  Fe  Fe31  1  1.00455257  0.33822022  0.67006958  1
  Fe  Fe32  1  0.17221236  0.50437560  0.83776144  1
  Fe  Fe33  1  0.17063346  0.83745519  0.50441676  1
  Ni  Ni34  1  0.00496609  0.67194997  0.67065740  1
  Fe  Fe35  1  0.17213928  0.83818518  0.83838015  1
  Fe  Fe36  1  0.50501960  0.17146186  0.50456036  1
  Fe  Fe37  1  0.33754515  0.00516434  0.67149810  1
  Ni  Ni38  1  0.50456870  0.17225345  0.83770542  1
  Fe  Fe39  1  0.50465388  0.50482940  0.50480068  1
  Fe  Fe40  1  0.33750991  0.33801693  0.67195751  1
  Ni  Ni41  1  0.50430350  0.50322738  0.83797038  1
  Fe  Fe42  1  0.50436150  0.83776666  0.50401400  1
  Fe  Fe43  1  0.33761676  0.67087524  0.67096773  1
  Fe  Fe44  1  0.50433951  0.83822444  0.83807242  1
  Fe  Fe45  1  0.83895001  0.17195282  0.50476334  1
  Fe  Fe46  1  0.67235918  1.00449109  0.67089379  1
  Fe  Fe47  1  0.83687528  0.17208596  0.83781289  1
  Ni  Ni48  1  0.83881297  0.50616160  0.50447263  1
  Ni  Ni49  1  0.67123327  0.33827258  0.67089212  1
  Fe  Fe50  1  0.83691406  0.50395166  0.83738935  1
  Ni  Ni51  1  0.83810266  0.83764733  0.50517392  1
  Fe  Fe52  1  0.67256294  0.67127454  0.67122536  1
  Fe  Fe53  1  0.83757895  0.83802099  0.83754002  1
" 