2617,Ni38Fe39Cr22_8,-230.622475959629, 194.007072121445,Ni38Fe39Cr22,"# generated using pymatgen
 data_Cr13Fe21Ni20
_symmetry_space_group_name_H-M   'P 1'
_cell_length_a   7.44492921
_cell_length_b   7.44492921
_cell_length_c   10.52871986
_cell_angle_alpha   90.00000000
_cell_angle_beta   90.00000000
_cell_angle_gamma   90.00000000
_symmetry_Int_Tables_number   1
_chemical_formula_structural   Cr13Fe21Ni20
_chemical_formula_sum   'Cr13 Fe21 Ni20'
_cell_volume   583.57504910
_cell_formula_units_Z   1
loop_
 _symmetry_equiv_pos_site_id
 _symmetry_equiv_pos_as_xyz
  1  'x, y, z'
loop_
 _atom_site_type_symbol
 _atom_site_label
 _atom_site_symmetry_multiplicity
 _atom_site_fract_x
 _atom_site_fract_y
 _atom_site_fract_z
 _atom_site_occupancy
  Fe  Fe0  1  0.00260325  0.99875359  1.00146959  1
  Ni  Ni1  1  0.16855504  0.17146760  0.16614104  1
  Cr  Cr2  1  0.00445177  0.99924789  0.33135349  1
  Ni  Ni3  1  1.00090784  0.33669778  1.00078609  1
  Ni  Ni4  1  0.16707215  0.49945544  0.16766143  1
  Ni  Ni5  1  0.99989034  0.33605213  0.33504306  1
  Ni  Ni6  1  1.00131394  0.66495164  0.00361149  1
  Fe  Fe7  1  0.16976059  0.83459128  0.16563011  1
  Ni  Ni8  1  1.00041708  0.66393910  0.33414100  1
  Ni  Ni9  1  0.33410383  0.00238262  1.00056071  1
  Cr  Cr10  1  0.49870185  0.17047543  0.17098994  1
  Ni  Ni11  1  0.33657174  0.00472881  0.33442797  1
  Fe  Fe12  1  0.33475573  0.33700461  0.00157555  1
  Ni  Ni13  1  0.50067511  0.49999869  0.16673978  1
  Fe  Fe14  1  0.33205153  0.33712621  0.33443989  1
  Fe  Fe15  1  0.33345718  0.66659554  1.00064737  1
  Cr  Cr16  1  0.50523037  0.83359260  0.16562869  1
  Cr  Cr17  1  0.33240414  0.67000185  0.33433660  1
  Cr  Cr18  1  0.66731219  0.00248143  0.99850658  1
  Cr  Cr19  1  0.83655789  0.16755274  0.16729575  1
  Fe  Fe20  1  0.67048133  1.00087030  0.33656204  1
  Fe  Fe21  1  0.66683691  0.33750156  1.00014519  1
  Fe  Fe22  1  0.83588475  0.49964218  0.16682881  1
  Fe  Fe23  1  0.66781292  0.33457073  0.33603886  1
  Fe  Fe24  1  0.66988618  0.66549362  0.99981270  1
  Ni  Ni25  1  0.83854372  0.83034950  0.16723306  1
  Cr  Cr26  1  0.66982798  0.66554228  0.33337710  1
  Cr  Cr27  1  0.17029877  0.16957939  0.50259710  1
  Cr  Cr28  1  0.99977723  1.00050267  0.67091865  1
  Cr  Cr29  1  0.16845990  0.16984628  0.83617769  1
  Fe  Fe30  1  0.16715627  0.50172694  0.49940794  1
  Fe  Fe31  1  0.99927990  0.33485147  0.66864568  1
  Fe  Fe32  1  0.16795418  0.50300446  0.83774870  1
  Ni  Ni33  1  0.16591073  0.83509709  0.49976512  1
  Cr  Cr34  1  0.00156925  0.66582006  0.66575789  1
  Ni  Ni35  1  0.16569836  0.83463089  0.83832594  1
  Ni  Ni36  1  0.50218312  0.17217700  0.50064296  1
  Ni  Ni37  1  0.33705179  0.00367260  0.66975117  1
  Ni  Ni38  1  0.50069830  0.17154703  0.83336500  1
  Fe  Fe39  1  0.50227646  0.50174907  0.50305686  1
  Fe  Fe40  1  0.33851739  0.33591074  0.66892621  1
  Ni  Ni41  1  0.50346164  0.50134844  0.83581233  1
  Cr  Cr42  1  0.50315579  0.83851497  0.50493220  1
  Cr  Cr43  1  0.33387213  0.66893593  0.66989683  1
  Fe  Fe44  1  0.49999599  0.83652261  0.83428953  1
  Fe  Fe45  1  0.83315433  0.16570024  0.50086287  1
  Ni  Ni46  1  0.66686849  0.00401759  0.66878906  1
  Fe  Fe47  1  0.83246949  0.16963698  0.83559487  1
  Fe  Fe48  1  0.83386413  0.49888957  0.50173677  1
  Fe  Fe49  1  0.66715177  0.33442800  0.66867102  1
  Fe  Fe50  1  0.83548726  0.50065771  0.83572036  1
  Ni  Ni51  1  0.83506593  0.83148957  0.50131255  1
  Ni  Ni52  1  0.66883554  0.66712434  0.67120399  1
  Ni  Ni53  1  0.83393377  0.83176644  0.83532205  1
" 