7013,Ni38Fe24Cr37_9,-224.720194113501, 179.677021438044,Ni38Fe24Cr37,"# generated using pymatgen
 data_Cr11(Fe3Ni5)2
_symmetry_space_group_name_H-M   'P 1'
_cell_length_a   7.48941881
_cell_length_b   7.48941881
_cell_length_c   10.59163765
_cell_angle_alpha   90.00000000
_cell_angle_beta   90.00000000
_cell_angle_gamma   90.00000000
_symmetry_Int_Tables_number   1
_chemical_formula_structural   Cr11(Fe3Ni5)2
_chemical_formula_sum   'Cr22 Fe12 Ni20'
_cell_volume   594.09972172
_cell_formula_units_Z   2
loop_
 _symmetry_equiv_pos_site_id
 _symmetry_equiv_pos_as_xyz
  1  'x, y, z'
loop_
 _atom_site_type_symbol
 _atom_site_label
 _atom_site_symmetry_multiplicity
 _atom_site_fract_x
 _atom_site_fract_y
 _atom_site_fract_z
 _atom_site_occupancy
  Ni  Ni0  1  0.00050505  0.99782453  0.99717476  1
  Fe  Fe1  1  0.16573682  0.16218595  0.16522920  1
  Ni  Ni2  1  0.00006728  0.99565528  0.33115862  1
  Cr  Cr3  1  0.00087391  0.33084584  0.99729341  1
  Ni  Ni4  1  0.16684399  0.50093280  0.16676584  1
  Cr  Cr5  1  0.00144756  0.33150852  0.33204934  1
  Cr  Cr6  1  -0.00138664  0.66711941  0.99750917  1
  Ni  Ni7  1  0.16774301  0.83279304  0.16664467  1
  Fe  Fe8  1  0.00138447  0.66494057  0.33169497  1
  Fe  Fe9  1  0.32917669  0.00001648  0.99809200  1
  Cr  Cr10  1  0.49721918  0.16392111  0.16519180  1
  Fe  Fe11  1  0.33072846  0.99832487  0.33200539  1
  Ni  Ni12  1  0.33125957  0.33100848  0.00006389  1
  Fe  Fe13  1  0.49696163  0.50124313  0.16690748  1
  Cr  Cr14  1  0.33235381  0.33490554  0.33275852  1
  Cr  Cr15  1  0.33184377  0.66409858  0.00001813  1
  Ni  Ni16  1  0.49506504  0.83083350  0.16661130  1
  Ni  Ni17  1  0.33256968  0.66559590  0.33175958  1
  Cr  Cr18  1  0.66645567  0.99666526  0.99581237  1
  Cr  Cr19  1  0.83285870  0.16518096  0.16718998  1
  Cr  Cr20  1  0.66392028  0.99739961  0.33563997  1
  Cr  Cr21  1  0.66310260  0.33212221  -0.00139169  1
  Cr  Cr22  1  0.83038509  0.49832024  0.16694361  1
  Ni  Ni23  1  0.66191182  0.33334322  0.33260402  1
  Fe  Fe24  1  0.66567437  0.66525701  0.99805268  1
  Cr  Cr25  1  0.83254842  0.83171658  0.16668088  1
  Fe  Fe26  1  0.66208961  0.66441383  0.33307558  1
  Ni  Ni27  1  0.16446988  0.16435001  0.49750046  1
  Cr  Cr28  1  0.99639667  -0.00081040  0.66732448  1
  Fe  Fe29  1  0.16624165  0.16503623  0.83215503  1
  Ni  Ni30  1  0.16718741  0.49936199  0.49920847  1
  Ni  Ni31  1  0.99752018  0.33102141  0.66552177  1
  Cr  Cr32  1  0.16565561  0.49999797  0.82804368  1
  Cr  Cr33  1  0.16698580  0.83101004  0.49666642  1
  Cr  Cr34  1  -0.00089769  0.66518809  0.66580196  1
  Ni  Ni35  1  0.16531849  0.83451104  0.83285296  1
  Fe  Fe36  1  0.49814410  0.16787098  0.49938811  1
  Cr  Cr37  1  0.33330927  -0.00137444  0.66414621  1
  Ni  Ni38  1  0.50021709  0.16465533  0.83052376  1
  Ni  Ni39  1  0.49933812  0.50096856  0.49834141  1
  Cr  Cr40  1  0.33140263  0.33291282  0.66262672  1
  Cr  Cr41  1  0.49975223  0.49782034  0.83147342  1
  Fe  Fe42  1  0.49913610  0.82876411  0.49898212  1
  Ni  Ni43  1  0.33382537  0.66516611  0.66306372  1
  Cr  Cr44  1  0.49535710  0.83200553  0.83056815  1
  Cr  Cr45  1  0.83146719  0.16577375  0.49851643  1
  Ni  Ni46  1  0.66522776  0.99819455  0.66446491  1
  Ni  Ni47  1  0.83100046  0.16602469  0.83012898  1
  Cr  Cr48  1  0.83099575  0.49767296  0.49902314  1
  Ni  Ni49  1  0.66489412  0.33096254  0.66553353  1
  Ni  Ni50  1  0.83036114  0.49599230  0.82945715  1
  Fe  Fe51  1  0.83160472  0.83041278  0.49850960  1
  Ni  Ni52  1  0.66432417  0.66623524  0.66492094  1
  Fe  Fe53  1  0.83077474  0.83145289  0.83107088  1
" 