8317,Ni38Fe50Cr11_14,-234.449154881525, 202.499168881345,Ni38Fe50Cr11,"# generated using pymatgen
 data_Cr7Fe27Ni20
_symmetry_space_group_name_H-M   'P 1'
_cell_length_a   7.43004898
_cell_length_b   7.43004898
_cell_length_c   10.50767603
_cell_angle_alpha   90.00000000
_cell_angle_beta   90.00000000
_cell_angle_gamma   90.00000000
_symmetry_Int_Tables_number   1
_chemical_formula_structural   Cr7Fe27Ni20
_chemical_formula_sum   'Cr7 Fe27 Ni20'
_cell_volume   580.08285178
_cell_formula_units_Z   1
loop_
 _symmetry_equiv_pos_site_id
 _symmetry_equiv_pos_as_xyz
  1  'x, y, z'
loop_
 _atom_site_type_symbol
 _atom_site_label
 _atom_site_symmetry_multiplicity
 _atom_site_fract_x
 _atom_site_fract_y
 _atom_site_fract_z
 _atom_site_occupancy
  Fe  Fe0  1  1.00218167  0.00496515  0.00269311  1
  Ni  Ni1  1  0.16783400  0.16739965  0.16911571  1
  Fe  Fe2  1  0.00310513  0.00254619  0.33548442  1
  Fe  Fe3  1  1.00079479  0.33418763  0.00296543  1
  Fe  Fe4  1  0.16812456  0.50079053  0.16932651  1
  Fe  Fe5  1  1.00077168  0.33693511  0.33500039  1
  Cr  Cr6  1  0.99977466  0.66869190  0.00310753  1
  Cr  Cr7  1  0.17103038  0.83557370  0.16709658  1
  Fe  Fe8  1  1.00159075  0.66813773  0.33658782  1
  Ni  Ni9  1  0.33673575  0.00308460  1.00168166  1
  Ni  Ni10  1  0.50389777  0.16925779  0.16934589  1
  Fe  Fe11  1  0.33663983  1.00181788  0.33614551  1
  Cr  Cr12  1  0.33750439  0.33392610  0.00372209  1
  Ni  Ni13  1  0.50402002  0.50324737  0.16809757  1
  Cr  Cr14  1  0.33611077  0.33502020  0.33553929  1
  Ni  Ni15  1  0.33914750  0.67089394  0.00270939  1
  Fe  Fe16  1  0.50539951  0.83685376  0.16792621  1
  Fe  Fe17  1  0.33717974  0.66953570  0.33659340  1
  Fe  Fe18  1  0.66702992  0.00279821  0.00330728  1
  Ni  Ni19  1  0.83525665  0.16933157  0.16822197  1
  Fe  Fe20  1  0.66761045  0.00292301  0.33483553  1
  Ni  Ni21  1  0.67006179  0.33590792  1.00192194  1
  Ni  Ni22  1  0.83361124  0.50152076  0.16913316  1
  Fe  Fe23  1  0.66913945  0.33733096  0.33449682  1
  Ni  Ni24  1  0.66845968  0.66906959  0.00317223  1
  Ni  Ni25  1  0.83563917  0.83653761  0.17122541  1
  Fe  Fe26  1  0.66895430  0.66741880  0.33532616  1
  Fe  Fe27  1  0.16996127  0.16936391  0.50305371  1
  Fe  Fe28  1  0.00524560  0.00350348  0.66863741  1
  Fe  Fe29  1  0.17054712  0.16743429  0.83519797  1
  Fe  Fe30  1  0.16905671  0.50222182  0.50415978  1
  Ni  Ni31  1  0.00300275  0.33565017  0.66942311  1
  Cr  Cr32  1  0.17079223  0.50415691  0.83624818  1
  Ni  Ni33  1  0.16893357  0.83563364  0.50364645  1
  Fe  Fe34  1  0.00337984  0.66853794  0.66748861  1
  Ni  Ni35  1  0.17041545  0.83754116  0.83572372  1
  Ni  Ni36  1  0.50241927  0.16965108  0.50305519  1
  Fe  Fe37  1  0.33570575  0.00333746  0.66982140  1
  Ni  Ni38  1  0.50382884  0.16966214  0.83479517  1
  Ni  Ni39  1  0.50329009  0.50163413  0.50402238  1
  Ni  Ni40  1  0.33595670  0.33414863  0.66808456  1
  Ni  Ni41  1  0.50349101  0.50203597  0.83529511  1
  Fe  Fe42  1  0.50286823  0.83552650  0.50329909  1
  Fe  Fe43  1  0.33659886  0.66913111  0.66919748  1
  Ni  Ni44  1  0.50089978  0.83568201  0.83657317  1
  Cr  Cr45  1  0.83399388  0.17054986  0.50192666  1
  Fe  Fe46  1  0.66659121  0.00381920  0.66937653  1
  Fe  Fe47  1  0.83524304  0.17098830  0.83573977  1
  Ni  Ni48  1  0.83507037  0.50288340  0.50349829  1
  Fe  Fe49  1  0.66798124  0.33664635  0.67000484  1
  Fe  Fe50  1  0.83282305  0.50085965  0.83501693  1
  Fe  Fe51  1  0.83452584  0.83416848  0.50204176  1
  Fe  Fe52  1  0.66789190  0.66716578  0.66946814  1
  Cr  Cr53  1  0.83632991  0.83681238  0.83487465  1
" 