5863,Ni38Fe61Cr0_10,-237.727982022802, 211.8750983335,Ni38Fe61Cr0,"# generated using pymatgen
 data_CrFe33Ni20
_symmetry_space_group_name_H-M   'P 1'
_cell_length_a   7.40325474
_cell_length_b   7.40325474
_cell_length_c   10.46978326
_cell_angle_alpha   90.00000000
_cell_angle_beta   90.00000000
_cell_angle_gamma   90.00000000
_symmetry_Int_Tables_number   1
_chemical_formula_structural   CrFe33Ni20
_chemical_formula_sum   'Cr1 Fe33 Ni20'
_cell_volume   573.82977292
_cell_formula_units_Z   1
loop_
 _symmetry_equiv_pos_site_id
 _symmetry_equiv_pos_as_xyz
  1  'x, y, z'
loop_
 _atom_site_type_symbol
 _atom_site_label
 _atom_site_symmetry_multiplicity
 _atom_site_fract_x
 _atom_site_fract_y
 _atom_site_fract_z
 _atom_site_occupancy
  Ni  Ni0  1  0.00578834  0.00455786  0.00453292  1
  Fe  Fe1  1  0.17012404  0.17182359  0.17054054  1
  Fe  Fe2  1  1.00412442  1.00394366  0.33697197  1
  Ni  Ni3  1  1.00351407  0.33735247  0.00563134  1
  Ni  Ni4  1  0.17063392  0.50477801  0.17033745  1
  Fe  Fe5  1  1.00411565  0.33930279  0.33742027  1
  Fe  Fe6  1  0.00466885  0.67090028  0.00516236  1
  Fe  Fe7  1  0.16978777  0.83756825  0.17012656  1
  Ni  Ni8  1  1.00308530  0.67101184  0.33715241  1
  Ni  Ni9  1  0.33667208  1.00372324  0.00497808  1
  Fe  Fe10  1  0.50445287  0.17208656  0.17090444  1
  Fe  Fe11  1  0.33778994  1.00369513  0.33729378  1
  Fe  Fe12  1  0.33723420  0.33704918  0.00442382  1
  Fe  Fe13  1  0.50508572  0.50360937  0.17063328  1
  Ni  Ni14  1  0.33718607  0.33684653  0.33722103  1
  Fe  Fe15  1  0.33686892  0.67095993  1.00342286  1
  Fe  Fe16  1  0.50486872  0.83722848  0.17112335  1
  Fe  Fe17  1  0.33712705  0.67027692  0.33808373  1
  Fe  Fe18  1  0.67164599  0.00560026  1.00415972  1
  Ni  Ni19  1  0.83700898  0.17112919  0.17122521  1
  Fe  Fe20  1  0.67100990  1.00401872  0.33801835  1
  Ni  Ni21  1  0.67191155  0.33853417  0.00501586  1
  Ni  Ni22  1  0.83818325  0.50325212  0.17077823  1
  Fe  Fe23  1  0.67160572  0.33863852  0.33719820  1
  Fe  Fe24  1  0.67138790  0.67058503  0.00438604  1
  Fe  Fe25  1  0.83826953  0.83693991  0.17141316  1
  Ni  Ni26  1  0.67230048  0.67102946  0.33729625  1
  Fe  Fe27  1  0.16992220  0.17340864  0.50359169  1
  Fe  Fe28  1  1.00230348  0.00453050  0.67175238  1
  Fe  Fe29  1  0.17037658  0.17188360  0.83879836  1
  Ni  Ni30  1  0.17102202  0.50465689  0.50569307  1
  Ni  Ni31  1  1.00427044  0.33802993  0.67050154  1
  Fe  Fe32  1  0.17158213  0.50438057  0.83710270  1
  Fe  Fe33  1  0.16955159  0.83557929  0.50385596  1
  Fe  Fe34  1  0.00432294  0.67012329  0.67012551  1
  Ni  Ni35  1  0.17045150  0.83743541  0.83805974  1
  Fe  Fe36  1  0.50502048  0.17309313  0.50373720  1
  Cr  Cr37  1  0.33769226  1.00406862  0.67087090  1
  Fe  Fe38  1  0.50483213  0.17193178  0.83828666  1
  Fe  Fe39  1  0.50420589  0.50430595  0.50533169  1
  Ni  Ni40  1  0.33689562  0.33952116  0.67196925  1
  Ni  Ni41  1  0.50421125  0.50383801  0.83669153  1
  Fe  Fe42  1  0.50575694  0.83552562  0.50373231  1
  Ni  Ni43  1  0.33806663  0.66956349  0.67001644  1
  Fe  Fe44  1  0.50465772  0.83626799  0.83806926  1
  Fe  Fe45  1  0.83798428  0.17185430  0.50465945  1
  Ni  Ni46  1  0.67242974  1.00349441  0.67150543  1
  Fe  Fe47  1  0.83771890  0.17123989  0.83817040  1
  Ni  Ni48  1  0.83790907  0.50397543  0.50469103  1
  Ni  Ni49  1  0.67175912  0.33838690  0.67006184  1
  Fe  Fe50  1  0.83732528  0.50420804  0.83749870  1
  Fe  Fe51  1  0.83761743  0.83639048  0.50419224  1
  Ni  Ni52  1  0.67094071  0.67104148  0.67091797  1
  Fe  Fe53  1  0.83737785  0.83747915  0.83732097  1
" 