5654,Ni38Fe61Cr0_7,-237.941555339499, 209.155363712888,Ni38Fe61Cr0,"# generated using pymatgen
 data_CrFe33Ni20
_symmetry_space_group_name_H-M   'P 1'
_cell_length_a   7.40122424
_cell_length_b   7.40122424
_cell_length_c   10.46691171
_cell_angle_alpha   90.00000000
_cell_angle_beta   90.00000000
_cell_angle_gamma   90.00000000
_symmetry_Int_Tables_number   1
_chemical_formula_structural   CrFe33Ni20
_chemical_formula_sum   'Cr1 Fe33 Ni20'
_cell_volume   573.35774883
_cell_formula_units_Z   1
loop_
 _symmetry_equiv_pos_site_id
 _symmetry_equiv_pos_as_xyz
  1  'x, y, z'
loop_
 _atom_site_type_symbol
 _atom_site_label
 _atom_site_symmetry_multiplicity
 _atom_site_fract_x
 _atom_site_fract_y
 _atom_site_fract_z
 _atom_site_occupancy
  Fe  Fe0  1  0.00551088  0.00509091  0.00500207  1
  Ni  Ni1  1  0.16937420  0.17140837  0.17140170  1
  Fe  Fe2  1  0.00556590  0.00498396  0.33754838  1
  Ni  Ni3  1  0.00467238  0.33694008  0.00519133  1
  Fe  Fe4  1  0.17213139  0.50383148  0.17060083  1
  Fe  Fe5  1  0.00559007  0.33760239  0.33762871  1
  Fe  Fe6  1  0.00552901  0.67049219  1.00409654  1
  Fe  Fe7  1  0.17212862  0.83800693  0.17120660  1
  Fe  Fe8  1  0.00532094  0.67075282  0.33822143  1
  Ni  Ni9  1  0.33801229  0.00459012  0.00557249  1
  Fe  Fe10  1  0.50398314  0.17127221  0.17120667  1
  Fe  Fe11  1  0.33769321  0.00483875  0.33809356  1
  Ni  Ni12  1  0.33635731  0.33695692  1.00399040  1
  Ni  Ni13  1  0.50451343  0.50667441  0.17113512  1
  Ni  Ni14  1  0.33715140  0.33762965  0.33803196  1
  Ni  Ni15  1  0.33996625  0.67179567  1.00359067  1
  Ni  Ni16  1  0.50491019  0.83563489  0.17162175  1
  Ni  Ni17  1  0.33896444  0.67101371  0.33843591  1
  Fe  Fe18  1  0.66990705  1.00430599  0.00450305  1
  Ni  Ni19  1  0.83981638  0.17101870  0.17167819  1
  Fe  Fe20  1  0.67008198  0.00456302  0.33774004  1
  Fe  Fe21  1  0.66976647  0.33836738  0.00450229  1
  Fe  Fe22  1  0.83731669  0.50397820  0.17080865  1
  Fe  Fe23  1  0.66989211  0.33818355  0.33781874  1
  Ni  Ni24  1  0.67065486  0.67180436  0.00536160  1
  Fe  Fe25  1  0.83708605  0.83809486  0.17112558  1
  Fe  Fe26  1  0.66975318  0.67059314  0.33711190  1
  Ni  Ni27  1  0.17093296  0.17130307  0.50454285  1
  Fe  Fe28  1  0.00499306  0.00499223  0.67079242  1
  Ni  Ni29  1  0.17049823  0.17196611  0.83739730  1
  Fe  Fe30  1  0.17162773  0.50342145  0.50469048  1
  Ni  Ni31  1  0.00449940  0.33689277  0.67022638  1
  Ni  Ni32  1  0.17086175  0.50409193  0.83745346  1
  Fe  Fe33  1  0.17194042  0.83865165  0.50440049  1
  Fe  Fe34  1  0.00680266  0.67101365  0.67102066  1
  Fe  Fe35  1  0.17332632  0.83791177  0.83773539  1
  Ni  Ni36  1  0.50401159  0.17092630  0.50399358  1
  Ni  Ni37  1  0.33774498  0.00488263  0.67033349  1
  Ni  Ni38  1  0.50420782  0.17069159  0.83842632  1
  Fe  Fe39  1  0.50269567  0.50253384  0.50273581  1
  Fe  Fe40  1  0.33753661  0.33698611  0.67133553  1
  Ni  Ni41  1  0.50326775  0.50478310  0.83821088  1
  Fe  Fe42  1  0.50261509  0.83977279  0.50352074  1
  Fe  Fe43  1  0.33555725  0.67091170  0.67164442  1
  Ni  Ni44  1  0.50452761  0.83786578  0.83820131  1
  Fe  Fe45  1  0.83789704  0.17134559  0.50410723  1
  Fe  Fe46  1  0.67062870  0.00697116  0.67110366  1
  Fe  Fe47  1  0.83769616  0.17218281  0.83818766  1
  Fe  Fe48  1  0.83901829  0.50232587  0.50391163  1
  Fe  Fe49  1  0.67052047  0.33517729  0.67102183  1
  Fe  Fe50  1  0.83849750  0.50284401  0.83861992  1
  Fe  Fe51  1  0.83878594  0.83966847  0.50351494  1
  Cr  Cr52  1  0.66985071  0.67127323  0.67106926  1
  Fe  Fe53  1  0.83793509  0.83831506  0.83870283  1
" 