1189,Ni38Fe24Cr37_10,-224.094680002889, 171.989699526363,Ni38Fe24Cr37,"# generated using pymatgen
 data_Cr11(Fe3Ni5)2
_symmetry_space_group_name_H-M   'P 1'
_cell_length_a   7.48400941
_cell_length_b   7.48400941
_cell_length_c   10.58398761
_cell_angle_alpha   90.00000000
_cell_angle_beta   90.00000000
_cell_angle_gamma   90.00000000
_symmetry_Int_Tables_number   1
_chemical_formula_structural   Cr11(Fe3Ni5)2
_chemical_formula_sum   'Cr22 Fe12 Ni20'
_cell_volume   592.81334708
_cell_formula_units_Z   2
loop_
 _symmetry_equiv_pos_site_id
 _symmetry_equiv_pos_as_xyz
  1  'x, y, z'
loop_
 _atom_site_type_symbol
 _atom_site_label
 _atom_site_symmetry_multiplicity
 _atom_site_fract_x
 _atom_site_fract_y
 _atom_site_fract_z
 _atom_site_occupancy
  Cr  Cr0  1  -0.00027116  -0.00090008  0.00116167  1
  Ni  Ni1  1  0.16581537  0.16429251  0.16606686  1
  Ni  Ni2  1  -0.00098129  0.99732260  0.33208622  1
  Fe  Fe3  1  0.00098741  0.33175280  -0.00032261  1
  Ni  Ni4  1  0.16611412  0.49984634  0.16629612  1
  Cr  Cr5  1  0.00139610  0.33183392  0.33107870  1
  Cr  Cr6  1  0.00423260  0.66516374  0.99680105  1
  Ni  Ni7  1  0.16695878  0.83263441  0.16663624  1
  Ni  Ni8  1  0.00036840  0.66620575  0.33366239  1
  Ni  Ni9  1  0.33332276  0.99806998  -0.00098167  1
  Ni  Ni10  1  0.49847633  0.16655891  0.16564404  1
  Cr  Cr11  1  0.33100277  -0.00026112  0.33022799  1
  Cr  Cr12  1  0.33110887  0.33424858  0.00201194  1
  Ni  Ni13  1  0.49848033  0.49852034  0.16878440  1
  Fe  Fe14  1  0.33184287  0.33318676  0.32927434  1
  Ni  Ni15  1  0.33124718  0.66635903  0.00045422  1
  Ni  Ni16  1  0.49615575  0.83167767  0.16486935  1
  Fe  Fe17  1  0.32906539  0.66590018  0.33003159  1
  Cr  Cr18  1  0.66382029  -0.00042927  0.99751903  1
  Fe  Fe19  1  0.83238842  0.16637330  0.16575366  1
  Cr  Cr20  1  0.66655217  -0.00065584  0.33180764  1
  Fe  Fe21  1  0.66348263  0.33062191  -0.00085661  1
  Cr  Cr22  1  0.83174843  0.49912084  0.16425785  1
  Fe  Fe23  1  0.66611860  0.33188827  0.33147243  1
  Cr  Cr24  1  0.66152842  0.66769869  0.99854315  1
  Cr  Cr25  1  0.83406928  0.83107329  0.16760445  1
  Fe  Fe26  1  0.66618688  0.66538918  0.33146115  1
  Cr  Cr27  1  0.16526372  0.16246111  0.49940833  1
  Cr  Cr28  1  0.99726306  0.99654882  0.66381753  1
  Cr  Cr29  1  0.16637819  0.16495048  0.83131288  1
  Cr  Cr30  1  0.16470594  0.50083506  0.50025915  1
  Ni  Ni31  1  0.99636585  0.33362827  0.66625261  1
  Ni  Ni32  1  0.16382911  0.50058509  0.83101686  1
  Ni  Ni33  1  0.16239000  0.83120738  0.49878481  1
  Ni  Ni34  1  0.00111649  0.66544773  0.66535228  1
  Ni  Ni35  1  0.16732572  0.83106934  0.83089763  1
  Cr  Cr36  1  0.49839080  0.16634377  0.50041223  1
  Fe  Fe37  1  0.33130153  0.99555831  0.66742908  1
  Ni  Ni38  1  0.49976562  0.16398889  0.83114622  1
  Cr  Cr39  1  0.50108248  0.49883274  0.49610497  1
  Cr  Cr40  1  0.33171877  0.33406495  0.66570224  1
  Cr  Cr41  1  0.49825934  0.49883467  0.83187230  1
  Cr  Cr42  1  0.49559704  0.83150653  0.49951990  1
  Ni  Ni43  1  0.32909107  0.66718653  0.66744185  1
  Ni  Ni44  1  0.49537703  0.83430287  0.83226744  1
  Fe  Fe45  1  0.83310014  0.16714361  0.49882106  1
  Cr  Cr46  1  0.66546197  -0.00099297  0.66765046  1
  Fe  Fe47  1  0.83225500  0.16598159  0.83192444  1
  Fe  Fe48  1  0.83367426  0.49914083  0.49953241  1
  Ni  Ni49  1  0.66825463  0.33025170  0.66502457  1
  Cr  Cr50  1  0.83414347  0.49757364  0.83193561  1
  Fe  Fe51  1  0.83487921  0.83009112  0.49750386  1
  Cr  Cr52  1  0.66679629  0.66694274  0.66548005  1
  Ni  Ni53  1  0.83380258  0.83182957  0.83059067  1
" 