1216,Ni38Cr62_19,-224.465909913748, 141.9759872396,Ni38Cr62,"# generated using pymatgen
 data_Cr10Ni17
_symmetry_space_group_name_H-M   'P 1'
_cell_length_a   7.49778114
_cell_length_b   7.49778114
_cell_length_c   10.60346378
_cell_angle_alpha   90.00000000
_cell_angle_beta   90.00000000
_cell_angle_gamma   90.00000000
_symmetry_Int_Tables_number   1
_chemical_formula_structural   Cr10Ni17
_chemical_formula_sum   'Cr20 Ni34'
_cell_volume   596.09197543
_cell_formula_units_Z   2
loop_
 _symmetry_equiv_pos_site_id
 _symmetry_equiv_pos_as_xyz
  1  'x, y, z'
loop_
 _atom_site_type_symbol
 _atom_site_label
 _atom_site_symmetry_multiplicity
 _atom_site_fract_x
 _atom_site_fract_y
 _atom_site_fract_z
 _atom_site_occupancy
  Ni  Ni0  1  -0.00034561  0.99772409  0.99585560  1
  Ni  Ni1  1  0.16534409  0.16348688  0.16348519  1
  Ni  Ni2  1  0.00049272  0.99717461  0.33251679  1
  Ni  Ni3  1  0.00017583  0.33219350  -0.00109659  1
  Ni  Ni4  1  0.16300270  0.49836893  0.16404937  1
  Cr  Cr5  1  0.99688440  0.33221133  0.32933846  1
  Ni  Ni6  1  0.99703540  0.66382652  0.99721253  1
  Cr  Cr7  1  0.16536082  0.83166828  0.16632471  1
  Ni  Ni8  1  0.99749795  0.66452610  0.33105905  1
  Ni  Ni9  1  0.33021797  0.00064660  0.99717935  1
  Ni  Ni10  1  0.49713499  0.16317007  0.16549054  1
  Ni  Ni11  1  0.33155507  -0.00140731  0.33323612  1
  Cr  Cr12  1  0.33100443  0.33061167  -0.00096020  1
  Ni  Ni13  1  0.49953810  0.49894251  0.16666305  1
  Cr  Cr14  1  0.33346671  0.33079014  0.32871661  1
  Cr  Cr15  1  0.33072764  0.66193668  0.99727647  1
  Cr  Cr16  1  0.49780913  0.83212561  0.16544826  1
  Ni  Ni17  1  0.33240041  0.66495164  0.33243615  1
  Ni  Ni18  1  0.66390058  0.99770560  0.99689473  1
  Cr  Cr19  1  0.83139634  0.16350228  0.16456376  1
  Ni  Ni20  1  0.66192426  -0.00108408  0.33201495  1
  Cr  Cr21  1  0.66255766  0.33246908  0.00096192  1
  Ni  Ni22  1  0.83138927  0.49955876  0.16519994  1
  Ni  Ni23  1  0.66280607  0.33309497  0.33137903  1
  Ni  Ni24  1  0.66679732  0.66406989  0.99755476  1
  Cr  Cr25  1  0.83086929  0.83070602  0.16359718  1
  Ni  Ni26  1  0.66397872  0.66196104  0.33212524  1
  Ni  Ni27  1  0.16675661  0.16361597  0.49804753  1
  Cr  Cr28  1  0.00018196  0.99713873  0.66471444  1
  Ni  Ni29  1  0.16547965  0.16603660  0.83191194  1
  Cr  Cr30  1  0.16518175  0.49727894  0.49855332  1
  Ni  Ni31  1  -0.00019838  0.33150179  0.66470124  1
  Ni  Ni32  1  0.16464864  0.49588527  0.83143414  1
  Ni  Ni33  1  0.16697024  0.83247202  0.49368717  1
  Cr  Cr34  1  0.99699886  0.66646286  0.66525664  1
  Ni  Ni35  1  0.16284063  0.83210463  0.83417667  1
  Ni  Ni36  1  0.49697711  0.16581191  0.49714059  1
  Cr  Cr37  1  0.33054729  -0.00094349  0.66358764  1
  Ni  Ni38  1  0.49597384  0.16637977  0.83143235  1
  Ni  Ni39  1  0.50051507  0.49795155  0.49834582  1
  Ni  Ni40  1  0.33264255  0.33040990  0.66603724  1
  Ni  Ni41  1  0.49778170  0.49615807  0.82915343  1
  Ni  Ni42  1  0.49702091  0.83008839  0.49501151  1
  Cr  Cr43  1  0.33236640  0.66465102  0.66464937  1
  Cr  Cr44  1  0.49939825  0.83058911  0.83397449  1
  Cr  Cr45  1  0.83107986  0.16844257  0.49752157  1
  Cr  Cr46  1  0.66341689  0.99666863  0.66511615  1
  Cr  Cr47  1  0.83158312  0.16512355  0.83171276  1
  Ni  Ni48  1  0.82805796  0.49796236  0.49785926  1
  Ni  Ni49  1  0.66144263  0.33349758  0.66289409  1
  Cr  Cr50  1  0.83097597  0.49766440  0.83014005  1
  Cr  Cr51  1  0.83001904  0.82945750  0.49525291  1
  Ni  Ni52  1  0.66383997  0.66188861  0.66389110  1
  Ni  Ni53  1  0.83190577  0.83009685  0.83460017  1
" 