4674,Ni38Fe62_0,-243.047976262048, 226.635188969216,Ni38Fe62,"# generated using pymatgen
 data_Fe10Ni17
_symmetry_space_group_name_H-M   'P 1'
_cell_length_a   7.40831949
_cell_length_b   7.40831949
_cell_length_c   10.47694589
_cell_angle_alpha   90.00000000
_cell_angle_beta   90.00000000
_cell_angle_gamma   90.00000000
_symmetry_Int_Tables_number   1
_chemical_formula_structural   Fe10Ni17
_chemical_formula_sum   'Fe20 Ni34'
_cell_volume   575.00829195
_cell_formula_units_Z   2
loop_
 _symmetry_equiv_pos_site_id
 _symmetry_equiv_pos_as_xyz
  1  'x, y, z'
loop_
 _atom_site_type_symbol
 _atom_site_label
 _atom_site_symmetry_multiplicity
 _atom_site_fract_x
 _atom_site_fract_y
 _atom_site_fract_z
 _atom_site_occupancy
  Ni  Ni0  1  1.00394266  1.00338936  0.00557620  1
  Ni  Ni1  1  0.16945685  0.17117920  0.17081807  1
  Fe  Fe2  1  1.00245247  0.00485100  0.33719193  1
  Fe  Fe3  1  0.00484266  0.33459606  0.00493675  1
  Ni  Ni4  1  0.17278467  0.50344657  0.16999830  1
  Ni  Ni5  1  0.00406131  0.33875939  0.33780491  1
  Fe  Fe6  1  0.00425768  0.67136065  0.00463052  1
  Ni  Ni7  1  0.16987005  0.83726755  0.17149757  1
  Ni  Ni8  1  0.00655239  0.67037290  0.33724709  1
  Ni  Ni9  1  0.33632259  1.00334428  0.00431578  1
  Fe  Fe10  1  0.50351296  0.16884516  0.17018268  1
  Fe  Fe11  1  0.33630175  0.00486087  0.33669225  1
  Ni  Ni12  1  0.33854636  0.33790346  0.00449348  1
  Ni  Ni13  1  0.50438609  0.50349612  0.17126737  1
  Fe  Fe14  1  0.33650307  0.33733028  0.33700532  1
  Ni  Ni15  1  0.33566697  0.67061905  0.00405100  1
  Ni  Ni16  1  0.50534239  0.83533944  0.17037913  1
  Fe  Fe17  1  0.33758895  0.66960398  0.33700051  1
  Ni  Ni18  1  0.67138665  0.00597179  1.00298296  1
  Ni  Ni19  1  0.83728076  0.16944530  0.17117850  1
  Ni  Ni20  1  0.66948137  0.00511327  0.33808542  1
  Ni  Ni21  1  0.67111465  0.33683722  0.00551453  1
  Fe  Fe22  1  0.83852786  0.50415667  0.17155710  1
  Ni  Ni23  1  0.67058725  0.33598440  0.33651180  1
  Fe  Fe24  1  0.66874949  0.67138448  1.00323173  1
  Ni  Ni25  1  0.83655331  0.83850504  0.17042899  1
  Fe  Fe26  1  0.67262621  0.67035857  0.33789327  1
  Ni  Ni27  1  0.17116611  0.17104306  0.50416646  1
  Ni  Ni28  1  0.00472184  1.00376755  0.66879997  1
  Ni  Ni29  1  0.17015242  0.16982105  0.83725800  1
  Ni  Ni30  1  0.17263162  0.50405129  0.50492230  1
  Fe  Fe31  1  1.00396110  0.33806397  0.66986087  1
  Fe  Fe32  1  0.17087671  0.50374480  0.83751701  1
  Ni  Ni33  1  0.16799522  0.83717974  0.50276509  1
  Ni  Ni34  1  0.00504166  0.67222008  0.67095350  1
  Ni  Ni35  1  0.16823431  0.83775706  0.83764237  1
  Ni  Ni36  1  0.50394129  0.17314775  0.50405652  1
  Fe  Fe37  1  0.33714120  1.00359197  0.67106398  1
  Ni  Ni38  1  0.50423091  0.17381029  0.83816496  1
  Ni  Ni39  1  0.50421412  0.50291275  0.50330530  1
  Fe  Fe40  1  0.33736986  0.33815663  0.67121210  1
  Ni  Ni41  1  0.50397983  0.50373558  0.83708104  1
  Fe  Fe42  1  0.50202627  0.83754198  0.50305224  1
  Ni  Ni43  1  0.33663516  0.67137188  0.67017618  1
  Fe  Fe44  1  0.50312804  0.83842571  0.83817793  1
  Fe  Fe45  1  0.83772338  0.17127977  0.50355492  1
  Fe  Fe46  1  0.67120226  1.00226341  0.67053793  1
  Ni  Ni47  1  0.83780092  0.16910256  0.83592735  1
  Fe  Fe48  1  0.83859937  0.50406889  0.50397587  1
  Ni  Ni49  1  0.67008906  0.33632401  0.66966317  1
  Fe  Fe50  1  0.83678788  0.50262542  0.83640888  1
  Ni  Ni51  1  0.83737143  0.83710654  0.50367708  1
  Ni  Ni52  1  0.66992846  0.66915681  0.66987137  1
  Ni  Ni53  1  0.83838779  0.83744504  0.83777211  1
" 