7465,Ni38Fe19Cr41_16,-222.663001686381, 166.050632379713,Ni38Fe19Cr41,"# generated using pymatgen
 data_Cr12(FeNi2)5
_symmetry_space_group_name_H-M   'P 1'
_cell_length_a   7.49712238
_cell_length_b   7.49712238
_cell_length_c   10.60253215
_cell_angle_alpha   90.00000000
_cell_angle_beta   90.00000000
_cell_angle_gamma   90.00000000
_symmetry_Int_Tables_number   1
_chemical_formula_structural   Cr12(FeNi2)5
_chemical_formula_sum   'Cr24 Fe10 Ni20'
_cell_volume   595.93487103
_cell_formula_units_Z   2
loop_
 _symmetry_equiv_pos_site_id
 _symmetry_equiv_pos_as_xyz
  1  'x, y, z'
loop_
 _atom_site_type_symbol
 _atom_site_label
 _atom_site_symmetry_multiplicity
 _atom_site_fract_x
 _atom_site_fract_y
 _atom_site_fract_z
 _atom_site_occupancy
  Ni  Ni0  1  -0.00107671  -0.00187741  0.99736956  1
  Cr  Cr1  1  0.16463424  0.16215776  0.16125398  1
  Ni  Ni2  1  -0.00199833  0.99566538  0.33008090  1
  Cr  Cr3  1  -0.00048825  0.32693570  0.99661460  1
  Fe  Fe4  1  0.16731106  0.50051531  0.16325159  1
  Cr  Cr5  1  -0.00078582  0.33007926  0.33146886  1
  Cr  Cr6  1  0.99743346  0.66811176  -0.00095418  1
  Ni  Ni7  1  0.16262623  0.83133599  0.16447547  1
  Ni  Ni8  1  0.99767171  0.66871100  0.33057488  1
  Ni  Ni9  1  0.32977203  -0.00196684  0.99557739  1
  Cr  Cr10  1  0.50019516  0.16539850  0.16645663  1
  Cr  Cr11  1  0.32839670  -0.00099471  0.33601989  1
  Ni  Ni12  1  0.33270674  0.33138172  0.99769910  1
  Fe  Fe13  1  0.49511507  0.49728325  0.16346688  1
  Cr  Cr14  1  0.33301604  0.33036322  0.33262669  1
  Ni  Ni15  1  0.33289188  0.66439133  -0.00052827  1
  Cr  Cr16  1  0.49532007  0.83260448  0.16318815  1
  Cr  Cr17  1  0.32916969  0.66534915  0.33100927  1
  Cr  Cr18  1  0.66646443  0.99680393  0.99664050  1
  Fe  Fe19  1  0.83191080  0.16042834  0.16603138  1
  Fe  Fe20  1  0.66681713  -0.00033100  0.33097091  1
  Cr  Cr21  1  0.66316309  0.33049028  0.99587300  1
  Cr  Cr22  1  0.83122311  0.49593391  0.16741520  1
  Ni  Ni23  1  0.66411849  0.33114467  0.33371817  1
  Cr  Cr24  1  0.66268614  0.66641270  0.99458141  1
  Fe  Fe25  1  0.83485695  0.83487730  0.16576914  1
  Cr  Cr26  1  0.66442850  0.66375930  0.33091613  1
  Ni  Ni27  1  0.16427014  0.16146645  0.50107607  1
  Ni  Ni28  1  -0.00187483  0.00009308  0.66578191  1
  Fe  Fe29  1  0.16729563  0.16225791  0.83066409  1
  Cr  Cr30  1  0.16576001  0.49985594  0.49885880  1
  Cr  Cr31  1  -0.00063029  0.32733829  0.66513747  1
  Cr  Cr32  1  0.16952291  0.49680340  0.83331874  1
  Ni  Ni33  1  0.16382640  0.83486689  0.49866213  1
  Cr  Cr34  1  0.99782599  0.66788320  0.66249482  1
  Cr  Cr35  1  0.16759918  0.83338191  0.82968576  1
  Fe  Fe36  1  0.49664400  0.16575829  0.50047926  1
  Ni  Ni37  1  0.33182268  0.00045032  0.66396744  1
  Fe  Fe38  1  0.49620964  0.16338150  0.83008841  1
  Ni  Ni39  1  0.49958079  0.49415117  0.49899608  1
  Ni  Ni40  1  0.33475890  0.32897092  0.66448974  1
  Ni  Ni41  1  0.49429795  0.49689226  0.83192883  1
  Cr  Cr42  1  0.49625406  0.83262354  0.50063747  1
  Ni  Ni43  1  0.33490826  0.66410709  0.66423786  1
  Ni  Ni44  1  0.49621502  0.83222024  0.83078648  1
  Cr  Cr45  1  0.82921088  0.16458015  0.49609121  1
  Ni  Ni46  1  0.66356973  -0.00002185  0.66745095  1
  Ni  Ni47  1  0.83107906  0.16036175  0.83123285  1
  Fe  Fe48  1  0.82997632  0.49794961  0.49673706  1
  Fe  Fe49  1  0.66012778  0.32804403  0.66474986  1
  Cr  Cr50  1  0.82968787  0.49580649  0.82686544  1
  Cr  Cr51  1  0.83317134  0.83350125  0.49682133  1
  Cr  Cr52  1  0.66276685  0.66537630  0.66772734  1
  Ni  Ni53  1  0.83023340  0.83862481  0.83115463  1
" 