5760,Ni38Fe50Cr11_17,-234.100121917925, 206.762258349738,Ni38Fe50Cr11,"# generated using pymatgen
 data_Cr7Fe27Ni20
_symmetry_space_group_name_H-M   'P 1'
_cell_length_a   7.42467931
_cell_length_b   7.42467931
_cell_length_c   10.50008217
_cell_angle_alpha   90.00000000
_cell_angle_beta   90.00000000
_cell_angle_gamma   90.00000000
_symmetry_Int_Tables_number   1
_chemical_formula_structural   Cr7Fe27Ni20
_chemical_formula_sum   'Cr7 Fe27 Ni20'
_cell_volume   578.82608907
_cell_formula_units_Z   1
loop_
 _symmetry_equiv_pos_site_id
 _symmetry_equiv_pos_as_xyz
  1  'x, y, z'
loop_
 _atom_site_type_symbol
 _atom_site_label
 _atom_site_symmetry_multiplicity
 _atom_site_fract_x
 _atom_site_fract_y
 _atom_site_fract_z
 _atom_site_occupancy
  Ni  Ni0  1  0.00332986  0.00329549  1.00272301  1
  Fe  Fe1  1  0.17037620  0.17056067  0.16885071  1
  Ni  Ni2  1  0.00331287  1.00268756  0.33585782  1
  Fe  Fe3  1  0.00363150  0.33458667  0.00516918  1
  Ni  Ni4  1  0.16773068  0.50274592  0.16889856  1
  Fe  Fe5  1  0.00426101  0.33697697  0.33569125  1
  Ni  Ni6  1  1.00115285  0.67408081  0.00552443  1
  Fe  Fe7  1  0.16896024  0.83653687  0.17080489  1
  Fe  Fe8  1  0.00467553  0.66937859  0.33676545  1
  Fe  Fe9  1  0.33582456  1.00151413  1.00272917  1
  Ni  Ni10  1  0.50359308  0.16661143  0.16943276  1
  Fe  Fe11  1  0.33438875  1.00227197  0.33477550  1
  Ni  Ni12  1  0.33747063  0.33362552  1.00276516  1
  Cr  Cr13  1  0.50230548  0.50391666  0.16852829  1
  Ni  Ni14  1  0.33619098  0.33512280  0.33688831  1
  Fe  Fe15  1  0.33484532  0.67216506  0.00394930  1
  Ni  Ni16  1  0.50266096  0.83811755  0.17061891  1
  Ni  Ni17  1  0.33553903  0.66763046  0.33551231  1
  Fe  Fe18  1  0.66992256  1.00208399  0.00322989  1
  Ni  Ni19  1  0.83665868  0.16926266  0.16942684  1
  Fe  Fe20  1  0.67035533  0.00323220  0.33453863  1
  Fe  Fe21  1  0.67112333  0.33419853  0.00399440  1
  Ni  Ni22  1  0.83885021  0.50204617  0.17006990  1
  Fe  Fe23  1  0.67019759  0.33544214  0.33600180  1
  Ni  Ni24  1  0.66972566  0.67040042  1.00266343  1
  Fe  Fe25  1  0.83498069  0.83590484  0.17046513  1
  Ni  Ni26  1  0.67117383  0.66867934  0.33590691  1
  Fe  Fe27  1  0.16993158  0.16789733  0.50220658  1
  Cr  Cr28  1  0.00382212  1.00176762  0.67033212  1
  Ni  Ni29  1  0.16895870  0.17024303  0.83671809  1
  Ni  Ni30  1  0.16855456  0.50201789  0.50352499  1
  Fe  Fe31  1  0.00296866  0.33636266  0.66797630  1
  Cr  Cr32  1  0.16827936  0.50360917  0.83680152  1
  Ni  Ni33  1  0.16982183  0.83444309  0.50220568  1
  Ni  Ni34  1  0.00343055  0.67211134  0.66709161  1
  Fe  Fe35  1  0.16924400  0.83715237  0.83699556  1
  Fe  Fe36  1  0.50069464  0.16981871  0.50084035  1
  Fe  Fe37  1  0.33721052  1.00275709  0.67081710  1
  Fe  Fe38  1  0.50151646  0.16888429  0.83795032  1
  Fe  Fe39  1  0.50042811  0.50331959  0.50015901  1
  Fe  Fe40  1  0.33337445  0.33548526  0.66847115  1
  Fe  Fe41  1  0.50175664  0.50252977  0.83903490  1
  Cr  Cr42  1  0.50235440  0.83870867  0.50044053  1
  Fe  Fe43  1  0.33458189  0.67029737  0.66860625  1
  Ni  Ni44  1  0.50213553  0.83752060  0.83647418  1
  Fe  Fe45  1  0.83773912  0.16801694  0.50095921  1
  Fe  Fe46  1  0.66954479  0.00295783  0.67058752  1
  Ni  Ni47  1  0.83628976  0.16842809  0.83698660  1
  Fe  Fe48  1  0.83851868  0.50495430  0.50088966  1
  Cr  Cr49  1  0.66611315  0.33595075  0.66848387  1
  Cr  Cr50  1  0.83999379  0.50147350  0.83864604  1
  Ni  Ni51  1  0.83619017  0.83766761  0.50133182  1
  Cr  Cr52  1  0.67036839  0.66928248  0.66998659  1
  Fe  Fe53  1  0.83701393  0.83734047  0.83777372  1
" 