1566,Ni38Cr62_9,-224.651757005532, 139.72367938161,Ni38Cr62,"# generated using pymatgen
 data_Cr10Ni17
_symmetry_space_group_name_H-M   'P 1'
_cell_length_a   7.49512771
_cell_length_b   7.49512771
_cell_length_c   10.59971126
_cell_angle_alpha   90.00000000
_cell_angle_beta   90.00000000
_cell_angle_gamma   90.00000000
_symmetry_Int_Tables_number   1
_chemical_formula_structural   Cr10Ni17
_chemical_formula_sum   'Cr20 Ni34'
_cell_volume   595.45933686
_cell_formula_units_Z   2
loop_
 _symmetry_equiv_pos_site_id
 _symmetry_equiv_pos_as_xyz
  1  'x, y, z'
loop_
 _atom_site_type_symbol
 _atom_site_label
 _atom_site_symmetry_multiplicity
 _atom_site_fract_x
 _atom_site_fract_y
 _atom_site_fract_z
 _atom_site_occupancy
  Cr  Cr0  1  0.99797091  -0.00046024  0.99804850  1
  Ni  Ni1  1  0.16223717  0.16733373  0.16381360  1
  Ni  Ni2  1  -0.00155821  0.00150683  0.32952992  1
  Ni  Ni3  1  0.00079302  0.33219850  0.99750357  1
  Ni  Ni4  1  0.16482767  0.49578983  0.16378655  1
  Ni  Ni5  1  -0.00019103  0.32965468  0.33076724  1
  Ni  Ni6  1  0.99712968  0.66289743  0.99577508  1
  Cr  Cr7  1  0.16470598  0.83124595  0.16345411  1
  Cr  Cr8  1  0.00143353  0.66287830  0.33106567  1
  Ni  Ni9  1  0.32984967  0.00049357  0.99454126  1
  Cr  Cr10  1  0.49655966  0.16705634  0.16211644  1
  Cr  Cr11  1  0.32867049  -0.00132358  0.33240829  1
  Ni  Ni12  1  0.32855466  0.33163307  0.99740418  1
  Ni  Ni13  1  0.49765240  0.49880114  0.16581853  1
  Cr  Cr14  1  0.32896144  0.33545655  0.33056567  1
  Cr  Cr15  1  0.33106354  0.66044281  0.99714175  1
  Cr  Cr16  1  0.49814520  0.82919761  0.16441844  1
  Ni  Ni17  1  0.33365541  0.66169677  0.33283358  1
  Cr  Cr18  1  0.66594317  0.99704909  0.99516528  1
  Ni  Ni19  1  0.83463528  0.16615095  0.16700421  1
  Cr  Cr20  1  0.66689328  0.99755969  0.33094486  1
  Cr  Cr21  1  0.66412116  0.33307845  0.99583789  1
  Cr  Cr22  1  0.83136237  0.49804722  0.16374473  1
  Ni  Ni23  1  0.66501474  0.33452798  0.33101345  1
  Ni  Ni24  1  0.66575606  0.66446284  0.99686741  1
  Ni  Ni25  1  0.83180081  0.83051792  0.16481613  1
  Ni  Ni26  1  0.66186590  0.66264193  0.33098398  1
  Ni  Ni27  1  0.16426305  0.16748993  0.49880083  1
  Cr  Cr28  1  -0.00070837  -0.00120805  0.66645121  1
  Ni  Ni29  1  0.16673966  0.16667335  0.83144993  1
  Ni  Ni30  1  0.16623018  0.49639818  0.49994924  1
  Ni  Ni31  1  0.00081115  0.33287320  0.66638171  1
  Ni  Ni32  1  0.16409236  0.49720433  0.83073246  1
  Cr  Cr33  1  0.16667711  0.83076553  0.50029573  1
  Ni  Ni34  1  0.00120791  0.66171453  0.66818075  1
  Ni  Ni35  1  0.16606630  0.83040042  0.83061434  1
  Cr  Cr36  1  0.49711430  0.16683824  0.50130300  1
  Ni  Ni37  1  0.33090242  -0.00178147  0.66689668  1
  Ni  Ni38  1  0.49485924  0.16635460  0.83049694  1
  Ni  Ni39  1  0.49683097  0.49921805  0.49769589  1
  Ni  Ni40  1  0.33021443  0.33322262  0.66580492  1
  Ni  Ni41  1  0.49696525  0.49711143  0.83082694  1
  Ni  Ni42  1  0.49576312  0.82808266  0.49828110  1
  Ni  Ni43  1  0.33095980  0.66277858  0.66465663  1
  Ni  Ni44  1  0.49524032  0.83103424  0.83137602  1
  Cr  Cr45  1  0.83316907  0.16850564  0.49746648  1
  Cr  Cr46  1  0.66381203  0.99790360  0.66835089  1
  Ni  Ni47  1  0.83278904  0.16865300  0.83039610  1
  Cr  Cr48  1  0.83184453  0.49614245  0.49986178  1
  Ni  Ni49  1  0.66351368  0.33306546  0.66740034  1
  Ni  Ni50  1  0.83334610  0.49765492  0.83130525  1
  Cr  Cr51  1  0.83185725  0.82950565  0.49692891  1
  Cr  Cr52  1  0.66343774  0.66376590  0.66652926  1
  Ni  Ni53  1  0.83299334  0.82794356  0.83304226  1
" 