7490,Ni38Fe24Cr37_13,-224.144359665427, 171.630876503327,Ni38Fe24Cr37,"# generated using pymatgen
 data_Cr11(Fe3Ni5)2
_symmetry_space_group_name_H-M   'P 1'
_cell_length_a   7.48840572
_cell_length_b   7.48840572
_cell_length_c   10.59020494
_cell_angle_alpha   90.00000000
_cell_angle_beta   90.00000000
_cell_angle_gamma   90.00000000
_symmetry_Int_Tables_number   1
_chemical_formula_structural   Cr11(Fe3Ni5)2
_chemical_formula_sum   'Cr22 Fe12 Ni20'
_cell_volume   593.85866502
_cell_formula_units_Z   2
loop_
 _symmetry_equiv_pos_site_id
 _symmetry_equiv_pos_as_xyz
  1  'x, y, z'
loop_
 _atom_site_type_symbol
 _atom_site_label
 _atom_site_symmetry_multiplicity
 _atom_site_fract_x
 _atom_site_fract_y
 _atom_site_fract_z
 _atom_site_occupancy
  Cr  Cr0  1  -0.00139885  -0.00007379  0.99722141  1
  Ni  Ni1  1  0.16435555  0.16291820  0.16484160  1
  Fe  Fe2  1  0.99763718  0.00043681  0.33093079  1
  Ni  Ni3  1  0.99775743  0.32998606  0.99713492  1
  Cr  Cr4  1  0.16523505  0.49611467  0.16754319  1
  Fe  Fe5  1  0.99668664  0.32932108  0.33182136  1
  Cr  Cr6  1  0.99822270  0.66315666  0.99650773  1
  Cr  Cr7  1  0.16551677  0.83291077  0.16884852  1
  Ni  Ni8  1  0.99799899  0.66492636  0.33131098  1
  Ni  Ni9  1  0.33231473  0.00096065  -0.00010954  1
  Fe  Fe10  1  0.49764289  0.16442830  0.16368992  1
  Ni  Ni11  1  0.33261378  0.99835711  0.33139022  1
  Fe  Fe12  1  0.32952610  0.32810566  -0.00111269  1
  Cr  Cr13  1  0.49775747  0.49725613  0.16270646  1
  Cr  Cr14  1  0.33375220  0.32924022  0.33262319  1
  Cr  Cr15  1  0.32928480  0.66684301  0.99614716  1
  Fe  Fe16  1  0.49715389  0.83555371  0.16500389  1
  Ni  Ni17  1  0.33239994  0.66764416  0.33423776  1
  Ni  Ni18  1  0.66423063  0.00249218  0.00183417  1
  Ni  Ni19  1  0.83279114  0.16392630  0.16391614  1
  Cr  Cr20  1  0.66448786  0.00081396  0.33097237  1
  Ni  Ni21  1  0.66868160  0.32852344  -0.00128756  1
  Cr  Cr22  1  0.83274364  0.49551641  0.16535024  1
  Cr  Cr23  1  0.66667749  0.33067458  0.33587595  1
  Cr  Cr24  1  0.66775553  0.66699782  0.00095736  1
  Fe  Fe25  1  0.83310316  0.83461219  0.16605530  1
  Cr  Cr26  1  0.66560346  0.66536855  0.33202764  1
  Cr  Cr27  1  0.16110443  0.16315320  0.49664645  1
  Ni  Ni28  1  0.99669580  -0.00035686  0.66670333  1
  Fe  Fe29  1  0.16291783  0.16650692  0.83208912  1
  Cr  Cr30  1  0.16321390  0.49994448  0.49578848  1
  Ni  Ni31  1  0.99434577  0.33292930  0.66535227  1
  Fe  Fe32  1  0.16203736  0.49569486  0.83045902  1
  Cr  Cr33  1  0.16469242  0.83205770  0.49776617  1
  Ni  Ni34  1  -0.00139078  0.66342002  0.66769526  1
  Fe  Fe35  1  0.16415964  0.83325642  0.82952846  1
  Ni  Ni36  1  0.50039764  0.16483133  0.49918608  1
  Cr  Cr37  1  0.33191550  -0.00081584  0.66436684  1
  Cr  Cr38  1  0.50273927  0.16512435  0.83525737  1
  Ni  Ni39  1  0.49998459  0.50009012  0.50083858  1
  Cr  Cr40  1  0.33196423  0.33163580  0.66446187  1
  Cr  Cr41  1  0.50143019  0.49623484  0.83239388  1
  Fe  Fe42  1  0.49957911  0.83245081  0.49920057  1
  Fe  Fe43  1  0.33123793  0.66442113  0.66460082  1
  Cr  Cr44  1  0.49924117  0.83362542  0.83046662  1
  Ni  Ni45  1  0.83077878  0.16606955  0.50143264  1
  Ni  Ni46  1  0.66643023  0.00198420  0.66335668  1
  Ni  Ni47  1  0.83298584  0.16749170  0.83029926  1
  Ni  Ni48  1  0.83147123  0.49802255  0.50039588  1
  Ni  Ni49  1  0.66784990  0.33139828  0.66287765  1
  Ni  Ni50  1  0.83320647  0.49495065  0.83067417  1
  Cr  Cr51  1  0.83458975  0.83328970  0.50008206  1
  Fe  Fe52  1  0.66809733  0.66331748  0.66427089  1
  Cr  Cr53  1  0.83078443  0.83525245  0.83036281  1
" 