6720,Ni38Fe39Cr22_5,-230.761756652192, 200.0077089778,Ni38Fe39Cr22,"# generated using pymatgen
 data_Cr13Fe21Ni20
_symmetry_space_group_name_H-M   'P 1'
_cell_length_a   7.44774502
_cell_length_b   7.44774502
_cell_length_c   10.53270201
_cell_angle_alpha   90.00000000
_cell_angle_beta   90.00000000
_cell_angle_gamma   90.00000000
_symmetry_Int_Tables_number   1
_chemical_formula_structural   Cr13Fe21Ni20
_chemical_formula_sum   'Cr13 Fe21 Ni20'
_cell_volume   584.23745640
_cell_formula_units_Z   1
loop_
 _symmetry_equiv_pos_site_id
 _symmetry_equiv_pos_as_xyz
  1  'x, y, z'
loop_
 _atom_site_type_symbol
 _atom_site_label
 _atom_site_symmetry_multiplicity
 _atom_site_fract_x
 _atom_site_fract_y
 _atom_site_fract_z
 _atom_site_occupancy
  Ni  Ni0  1  0.00198511  0.00154145  0.00351182  1
  Ni  Ni1  1  0.16641603  0.16724849  0.17047341  1
  Ni  Ni2  1  0.00353986  0.00253838  0.33450788  1
  Ni  Ni3  1  0.00268154  0.33366502  1.00122551  1
  Ni  Ni4  1  0.16690611  0.49942769  0.16712081  1
  Ni  Ni5  1  0.00313639  0.33511312  0.33454769  1
  Fe  Fe6  1  0.00178617  0.66719422  0.00273775  1
  Fe  Fe7  1  0.16801395  0.83407826  0.16781902  1
  Cr  Cr8  1  0.00177349  0.66809079  0.33413317  1
  Fe  Fe9  1  0.33322443  0.00288908  0.00226945  1
  Fe  Fe10  1  0.49934253  0.16977252  0.16988610  1
  Ni  Ni11  1  0.33298202  0.00251736  0.33525412  1
  Cr  Cr12  1  0.33404670  0.33549522  0.00274232  1
  Ni  Ni13  1  0.50103104  0.50278397  0.17007383  1
  Fe  Fe14  1  0.33369184  0.33514914  0.33474603  1
  Fe  Fe15  1  0.33305681  0.66750383  0.00276050  1
  Cr  Cr16  1  0.49960994  0.83514400  0.16655374  1
  Ni  Ni17  1  0.33371037  0.66607502  0.33590469  1
  Ni  Ni18  1  0.66919967  0.00205138  0.00158235  1
  Fe  Fe19  1  0.83770377  0.16941524  0.16791124  1
  Cr  Cr20  1  0.66886771  0.00147153  0.33391648  1
  Cr  Cr21  1  0.66612989  0.33384281  0.00249030  1
  Ni  Ni22  1  0.83566058  0.49959033  0.16784036  1
  Fe  Fe23  1  0.66766893  0.33455895  0.33408060  1
  Ni  Ni24  1  0.66767377  0.66733112  0.00323041  1
  Fe  Fe25  1  0.83688028  0.83419452  0.16574961  1
  Cr  Cr26  1  0.66804747  0.66617726  0.33600283  1
  Fe  Fe27  1  0.17035918  0.17056208  0.49994225  1
  Cr  Cr28  1  0.00237041  1.00003919  0.66582241  1
  Cr  Cr29  1  0.16737631  0.16821767  0.83248934  1
  Ni  Ni30  1  0.16819324  0.49991267  0.50191619  1
  Fe  Fe31  1  0.00282506  0.33534405  0.66661714  1
  Fe  Fe32  1  0.16990835  0.50353033  0.83428269  1
  Fe  Fe33  1  0.17124126  0.83565059  0.50023837  1
  Cr  Cr34  1  0.00231268  0.66824467  0.66648473  1
  Ni  Ni35  1  0.17071329  0.83516206  0.83695212  1
  Ni  Ni36  1  0.49932340  0.16632964  0.50146802  1
  Ni  Ni37  1  0.33564652  0.00343829  0.66656926  1
  Fe  Fe38  1  0.50240583  0.16766528  0.83229653  1
  Fe  Fe39  1  0.50008509  0.49863881  0.50158133  1
  Ni  Ni40  1  0.33563808  0.33570370  0.66687755  1
  Fe  Fe41  1  0.49974827  0.50295217  0.83372760  1
  Fe  Fe42  1  0.49929922  0.83451048  0.50230508  1
  Fe  Fe43  1  0.33516058  0.66879659  0.66641194  1
  Cr  Cr44  1  0.49988521  0.83469284  0.83453393  1
  Cr  Cr45  1  0.83514633  0.17062726  0.50189110  1
  Ni  Ni46  1  0.66596246  1.00115540  0.66783080  1
  Fe  Fe47  1  0.83401349  0.16601728  0.83513738  1
  Ni  Ni48  1  0.83500345  0.49987338  0.50139584  1
  Fe  Fe49  1  0.66501827  0.33395274  0.66739146  1
  Cr  Cr50  1  0.83473836  0.49881466  0.83394099  1
  Fe  Fe51  1  0.83304923  0.83456026  0.50179602  1
  Ni  Ni52  1  0.66651900  0.66666539  0.66489435  1
  Cr  Cr53  1  0.83326791  0.83405863  0.83611046  1
" 