2622,Ni38Cr62_7,-224.552304643798, 141.344805871305,Ni38Cr62,"# generated using pymatgen
 data_Cr10Ni17
_symmetry_space_group_name_H-M   'P 1'
_cell_length_a   7.49446299
_cell_length_b   7.49446299
_cell_length_c   10.59877121
_cell_angle_alpha   90.00000000
_cell_angle_beta   90.00000000
_cell_angle_gamma   90.00000000
_symmetry_Int_Tables_number   1
_chemical_formula_structural   Cr10Ni17
_chemical_formula_sum   'Cr20 Ni34'
_cell_volume   595.30092300
_cell_formula_units_Z   2
loop_
 _symmetry_equiv_pos_site_id
 _symmetry_equiv_pos_as_xyz
  1  'x, y, z'
loop_
 _atom_site_type_symbol
 _atom_site_label
 _atom_site_symmetry_multiplicity
 _atom_site_fract_x
 _atom_site_fract_y
 _atom_site_fract_z
 _atom_site_occupancy
  Ni  Ni0  1  -0.00076079  0.99729742  0.99736704  1
  Cr  Cr1  1  0.16593178  0.16154446  0.16429291  1
  Ni  Ni2  1  0.99792299  0.99611946  0.33159012  1
  Cr  Cr3  1  0.99721148  0.32990026  0.99720368  1
  Cr  Cr4  1  0.16843011  0.49852512  0.16487494  1
  Cr  Cr5  1  -0.00182427  0.33069910  0.33122803  1
  Cr  Cr6  1  0.99711238  0.66774825  -0.00181467  1
  Ni  Ni7  1  0.16656733  0.83378678  0.16509573  1
  Cr  Cr8  1  -0.00072169  0.66810541  0.33176007  1
  Ni  Ni9  1  0.33084784  0.99730037  0.99678824  1
  Ni  Ni10  1  0.49627122  0.16520002  0.16508277  1
  Ni  Ni11  1  0.33086415  0.99730835  0.33056431  1
  Ni  Ni12  1  0.33360701  0.32958794  -0.00164888  1
  Ni  Ni13  1  0.49884571  0.50037543  0.16532133  1
  Ni  Ni14  1  0.33471790  0.33267835  0.33271834  1
  Ni  Ni15  1  0.33410184  0.66762610  -0.00087907  1
  Ni  Ni16  1  0.49696190  0.82892101  0.16447399  1
  Ni  Ni17  1  0.33297590  0.66455765  0.33197335  1
  Cr  Cr18  1  0.66408391  0.99673247  0.99790456  1
  Ni  Ni19  1  0.83184080  0.16293569  0.16524125  1
  Cr  Cr20  1  0.66550733  0.99789962  0.33110942  1
  Cr  Cr21  1  0.66442089  0.33159205  -0.00142750  1
  Ni  Ni22  1  0.82689703  0.50025536  0.16429878  1
  Cr  Cr23  1  0.66233991  0.33113197  0.33137637  1
  Ni  Ni24  1  0.66391489  0.66542411  -0.00053800  1
  Ni  Ni25  1  0.83099699  0.83128770  0.16524736  1
  Ni  Ni26  1  0.66296271  0.66463711  0.32901710  1
  Cr  Cr27  1  0.16522923  0.16214588  0.49670658  1
  Ni  Ni28  1  -0.00116342  0.99492541  0.66552886  1
  Ni  Ni29  1  0.16539268  0.15999117  0.83280902  1
  Ni  Ni30  1  0.16884565  0.50147014  0.49840767  1
  Cr  Cr31  1  0.99732205  0.33179820  0.66605139  1
  Cr  Cr32  1  0.16495612  0.49910756  0.83122507  1
  Ni  Ni33  1  0.16384058  0.83064080  0.49938581  1
  Ni  Ni34  1  0.00040794  0.66855374  0.66463068  1
  Ni  Ni35  1  0.16556693  0.83502521  0.83005267  1
  Ni  Ni36  1  0.49694974  0.16637421  0.49743814  1
  Ni  Ni37  1  0.32961295  0.99609490  0.66716168  1
  Ni  Ni38  1  0.49520452  0.16205737  0.83199463  1
  Ni  Ni39  1  0.49438107  0.49806135  0.49577915  1
  Cr  Cr40  1  0.33269705  0.33075315  0.66336780  1
  Cr  Cr41  1  0.49866438  0.50062805  0.83336463  1
  Cr  Cr42  1  0.49637688  0.83033361  0.49774892  1
  Ni  Ni43  1  0.32779748  0.66768398  0.66343195  1
  Ni  Ni44  1  0.49560895  0.83250361  0.83262901  1
  Ni  Ni45  1  0.83191296  0.16137657  0.49825321  1
  Cr  Cr46  1  0.66468906  -0.00013183  0.66553325  1
  Ni  Ni47  1  0.83389753  0.16292265  0.83102630  1
  Cr  Cr48  1  0.83090849  0.50018455  0.49895148  1
  Cr  Cr49  1  0.66446875  0.32857708  0.66458564  1
  Ni  Ni50  1  0.83129298  0.49988396  0.83161866  1
  Ni  Ni51  1  0.83532953  0.83329472  0.49815280  1
  Cr  Cr52  1  0.66568851  0.66610831  0.66606017  1
  Ni  Ni53  1  0.83332585  0.83168976  0.83111496  1
" 