2065,Ni38Fe19Cr41_7,-222.863763690062, 168.770525430594,Ni38Fe19Cr41,"# generated using pymatgen
 data_Cr12(FeNi2)5
_symmetry_space_group_name_H-M   'P 1'
_cell_length_a   7.49826481
_cell_length_b   7.49826481
_cell_length_c   10.60414778
_cell_angle_alpha   90.00000000
_cell_angle_beta   90.00000000
_cell_angle_gamma   90.00000000
_symmetry_Int_Tables_number   1
_chemical_formula_structural   Cr12(FeNi2)5
_chemical_formula_sum   'Cr24 Fe10 Ni20'
_cell_volume   596.20734126
_cell_formula_units_Z   2
loop_
 _symmetry_equiv_pos_site_id
 _symmetry_equiv_pos_as_xyz
  1  'x, y, z'
loop_
 _atom_site_type_symbol
 _atom_site_label
 _atom_site_symmetry_multiplicity
 _atom_site_fract_x
 _atom_site_fract_y
 _atom_site_fract_z
 _atom_site_occupancy
  Ni  Ni0  1  0.99607886  -0.00022957  0.99720711  1
  Cr  Cr1  1  0.16359131  0.16688449  0.16209359  1
  Cr  Cr2  1  0.99527307  -0.00137811  0.33120515  1
  Ni  Ni3  1  0.99785878  0.32991203  0.99617266  1
  Cr  Cr4  1  0.16315444  0.49636144  0.16532463  1
  Ni  Ni5  1  -0.00071510  0.33214532  0.33274057  1
  Ni  Ni6  1  0.99536538  0.66424563  0.99583162  1
  Cr  Cr7  1  0.16069309  0.83053145  0.16591063  1
  Ni  Ni8  1  -0.00072624  0.66284316  0.33353344  1
  Cr  Cr9  1  0.33109039  -0.00161025  -0.00158205  1
  Fe  Fe10  1  0.49971477  0.16775066  0.16368381  1
  Cr  Cr11  1  0.33266700  0.99725942  0.32869239  1
  Fe  Fe12  1  0.33020931  0.33292860  0.99759217  1
  Ni  Ni13  1  0.49888318  0.49606217  0.16280425  1
  Ni  Ni14  1  0.33140632  0.33425251  0.33135794  1
  Cr  Cr15  1  0.33346957  0.66370859  0.99678606  1
  Ni  Ni16  1  0.50141713  0.82936809  0.16374370  1
  Cr  Cr17  1  0.33144965  0.66237562  0.33422362  1
  Cr  Cr18  1  0.66589745  0.99620640  -0.00052859  1
  Ni  Ni19  1  0.83221990  0.16526288  0.16426168  1
  Cr  Cr20  1  0.66601585  -0.00107920  0.32854759  1
  Ni  Ni21  1  0.66517358  0.33244243  0.00070469  1
  Cr  Cr22  1  0.83239179  0.49869830  0.16169768  1
  Cr  Cr23  1  0.66551734  0.33100765  0.33071893  1
  Ni  Ni24  1  0.66437850  0.66481901  -0.00093802  1
  Ni  Ni25  1  0.83104810  0.83143481  0.16118381  1
  Cr  Cr26  1  0.66413010  0.66405626  0.32671697  1
  Cr  Cr27  1  0.16352483  0.16479782  0.49697586  1
  Ni  Ni28  1  0.99779576  0.00015381  0.66483632  1
  Ni  Ni29  1  0.16202056  0.16763765  0.83211082  1
  Fe  Fe30  1  0.16534867  0.49849674  0.49877006  1
  Ni  Ni31  1  -0.00013328  0.33054194  0.66417067  1
  Ni  Ni32  1  0.16242567  0.49451031  0.82935128  1
  Ni  Ni33  1  0.16184088  0.82911891  0.49908233  1
  Fe  Fe34  1  -0.00065057  0.66413855  0.66488458  1
  Cr  Cr35  1  0.16147654  0.83197957  0.83173382  1
  Cr  Cr36  1  0.49874961  0.16746701  0.49904868  1
  Cr  Cr37  1  0.32899440  0.99619225  0.66662369  1
  Cr  Cr38  1  0.49640944  0.16543483  0.83101180  1
  Ni  Ni39  1  0.49669603  0.49630550  0.50121305  1
  Fe  Fe40  1  0.32759498  0.33440032  0.66446194  1
  Cr  Cr41  1  0.49945845  0.49831049  0.83091579  1
  Cr  Cr42  1  0.49699932  0.82949462  0.50051242  1
  Fe  Fe43  1  0.32873365  0.66180992  0.66435223  1
  Ni  Ni44  1  0.50154532  0.82948689  0.82862825  1
  Fe  Fe45  1  0.83276935  0.16541361  0.50034242  1
  Fe  Fe46  1  0.66798319  0.99650151  0.66585142  1
  Cr  Cr47  1  0.83365260  0.16497995  0.82908225  1
  Cr  Cr48  1  0.83161960  0.49702890  0.49793780  1
  Fe  Fe49  1  0.66656867  0.33229255  0.66368845  1
  Cr  Cr50  1  0.83198589  0.49978319  0.83420036  1
  Cr  Cr51  1  0.83370959  0.83044966  0.50022775  1
  Ni  Ni52  1  0.66202546  0.66440404  0.66648992  1
  Fe  Fe53  1  0.83079397  0.83020173  0.83140210  1
" 