6826,Ni38Fe39Cr22_10,-230.798108586583, 196.479284046306,Ni38Fe39Cr22,"# generated using pymatgen
 data_Cr13Fe21Ni20
_symmetry_space_group_name_H-M   'P 1'
_cell_length_a   7.44482946
_cell_length_b   7.44482946
_cell_length_c   10.52857879
_cell_angle_alpha   90.00000000
_cell_angle_beta   90.00000000
_cell_angle_gamma   90.00000000
_symmetry_Int_Tables_number   1
_chemical_formula_structural   Cr13Fe21Ni20
_chemical_formula_sum   'Cr13 Fe21 Ni20'
_cell_volume   583.55159259
_cell_formula_units_Z   1
loop_
 _symmetry_equiv_pos_site_id
 _symmetry_equiv_pos_as_xyz
  1  'x, y, z'
loop_
 _atom_site_type_symbol
 _atom_site_label
 _atom_site_symmetry_multiplicity
 _atom_site_fract_x
 _atom_site_fract_y
 _atom_site_fract_z
 _atom_site_occupancy
  Ni  Ni0  1  1.00052560  0.99956163  1.00114830  1
  Ni  Ni1  1  0.16514426  0.16795053  0.16975770  1
  Ni  Ni2  1  1.00031965  0.00331595  0.33538300  1
  Cr  Cr3  1  1.00103653  0.33759341  1.00043027  1
  Fe  Fe4  1  0.16256674  0.50131851  0.17085753  1
  Ni  Ni5  1  1.00074563  0.33528108  0.33514350  1
  Ni  Ni6  1  0.99699383  0.66768148  1.00094020  1
  Cr  Cr7  1  0.16547904  0.83350942  0.16967960  1
  Ni  Ni8  1  1.00039465  0.66560798  0.33548134  1
  Cr  Cr9  1  0.33472684  0.00293500  0.99788159  1
  Fe  Fe10  1  0.50450607  0.16853752  0.16947615  1
  Cr  Cr11  1  0.33708810  0.00382342  0.33517054  1
  Cr  Cr12  1  0.33402452  0.33306577  0.00222763  1
  Cr  Cr13  1  0.49902575  0.50238008  0.16778608  1
  Fe  Fe14  1  0.33075651  0.33616595  0.33592894  1
  Fe  Fe15  1  0.33111658  0.66968162  0.99990562  1
  Fe  Fe16  1  0.50291978  0.83473669  0.16846356  1
  Ni  Ni17  1  0.33501758  0.66688799  0.33638967  1
  Cr  Cr18  1  0.66820920  1.00027860  0.00345107  1
  Ni  Ni19  1  0.83665375  0.16767596  0.17162172  1
  Fe  Fe20  1  0.67167643  0.00197221  0.33482717  1
  Fe  Fe21  1  0.67083988  0.33475085  0.00242200  1
  Ni  Ni22  1  0.83326697  0.50081865  0.16849921  1
  Fe  Fe23  1  0.67014305  0.33337808  0.33515947  1
  Fe  Fe24  1  0.67187979  0.66812206  0.00165894  1
  Ni  Ni25  1  0.83670461  0.83558602  0.16898925  1
  Cr  Cr26  1  0.67035976  0.66836247  0.33598583  1
  Ni  Ni27  1  0.16700007  0.17055062  0.50162997  1
  Cr  Cr28  1  0.00176601  1.00059775  0.66960402  1
  Fe  Fe29  1  0.16834454  0.17000457  0.83382353  1
  Ni  Ni30  1  0.17068733  0.50096096  0.49833792  1
  Fe  Fe31  1  0.00625484  0.33710522  0.66638848  1
  Ni  Ni32  1  0.16886645  0.50420849  0.83398258  1
  Fe  Fe33  1  0.16817949  0.83321735  0.49969550  1
  Cr  Cr34  1  1.00044112  0.66547141  0.66711464  1
  Ni  Ni35  1  0.16735170  0.83147937  0.83572419  1
  Fe  Fe36  1  0.50164553  0.17152587  0.50319140  1
  Cr  Cr37  1  0.33518958  0.00179212  0.67174745  1
  Ni  Ni38  1  0.50378681  0.16930415  0.83260984  1
  Fe  Fe39  1  0.49883663  0.49995790  0.50215801  1
  Ni  Ni40  1  0.33534147  0.33535280  0.66723922  1
  Cr  Cr41  1  0.50222414  0.50157272  0.83390742  1
  Fe  Fe42  1  0.49945469  0.83309818  0.50323803  1
  Ni  Ni43  1  0.33575466  0.66618760  0.66750301  1
  Ni  Ni44  1  0.50211112  0.83302882  0.83436045  1
  Fe  Fe45  1  0.83631296  0.16974551  0.50001749  1
  Fe  Fe46  1  0.66632537  0.99876295  0.66797365  1
  Cr  Cr47  1  0.83438897  0.16892997  0.83286193  1
  Fe  Fe48  1  0.83718433  0.49777042  0.50080435  1
  Fe  Fe49  1  0.66816713  0.33592598  0.66603056  1
  Ni  Ni50  1  0.83414647  0.50296966  0.83331556  1
  Fe  Fe51  1  0.83729080  0.83676770  0.50002828  1
  Fe  Fe52  1  0.66699173  0.66992304  0.66692587  1
  Ni  Ni53  1  0.83441304  0.83338801  0.83569885  1
" 