3783,Ni38Fe39Cr22_7,-230.61461186952, 197.48717400925,Ni38Fe39Cr22,"# generated using pymatgen
 data_Cr13Fe21Ni20
_symmetry_space_group_name_H-M   'P 1'
_cell_length_a   7.44494896
_cell_length_b   7.44494896
_cell_length_c   10.52874779
_cell_angle_alpha   90.00000000
_cell_angle_beta   90.00000000
_cell_angle_gamma   90.00000000
_symmetry_Int_Tables_number   1
_chemical_formula_structural   Cr13Fe21Ni20
_chemical_formula_sum   'Cr13 Fe21 Ni20'
_cell_volume   583.57969350
_cell_formula_units_Z   1
loop_
 _symmetry_equiv_pos_site_id
 _symmetry_equiv_pos_as_xyz
  1  'x, y, z'
loop_
 _atom_site_type_symbol
 _atom_site_label
 _atom_site_symmetry_multiplicity
 _atom_site_fract_x
 _atom_site_fract_y
 _atom_site_fract_z
 _atom_site_occupancy
  Fe  Fe0  1  1.00140827  1.00108399  0.99985756  1
  Cr  Cr1  1  0.16907809  0.16923835  0.16693755  1
  Cr  Cr2  1  0.00507602  0.00266580  0.33459406  1
  Cr  Cr3  1  1.00121033  0.33523854  0.99983746  1
  Ni  Ni4  1  0.17151762  0.50190233  0.16815082  1
  Ni  Ni5  1  0.00204261  0.33378056  0.33640631  1
  Cr  Cr6  1  0.00325805  0.66984832  0.00206991  1
  Ni  Ni7  1  0.16916361  0.83457591  0.16704020  1
  Cr  Cr8  1  0.00195716  0.66743241  0.33288751  1
  Ni  Ni9  1  0.33356869  0.99992575  1.00105969  1
  Fe  Fe10  1  0.50082979  0.16786653  0.16646571  1
  Fe  Fe11  1  0.33581651  0.99917007  0.33443420  1
  Fe  Fe12  1  0.33591716  0.33713076  1.00075240  1
  Ni  Ni13  1  0.50100921  0.50109511  0.16818140  1
  Fe  Fe14  1  0.33346667  0.33668722  0.33510999  1
  Fe  Fe15  1  0.33506302  0.66796257  0.00160153  1
  Fe  Fe16  1  0.49887142  0.83464184  0.16924303  1
  Fe  Fe17  1  0.33611936  0.66866927  0.33405897  1
  Fe  Fe18  1  0.66933806  0.00235016  0.00160953  1
  Fe  Fe19  1  0.83315261  0.16870879  0.16687740  1
  Fe  Fe20  1  0.66786558  0.99982464  0.33404786  1
  Ni  Ni21  1  0.66709298  0.33501252  0.00228792  1
  Fe  Fe22  1  0.83517334  0.50044664  0.16937673  1
  Cr  Cr23  1  0.66818899  0.33623421  0.33566302  1
  Cr  Cr24  1  0.66766762  0.66668032  1.00008968  1
  Fe  Fe25  1  0.83283565  0.83516176  0.16872765  1
  Ni  Ni26  1  0.66447620  0.66802178  0.33467789  1
  Ni  Ni27  1  0.16773062  0.16727065  0.50318144  1
  Ni  Ni28  1  0.00440478  0.00155329  0.66953743  1
  Ni  Ni29  1  0.16706199  0.16595187  0.83422916  1
  Cr  Cr30  1  0.16802402  0.50146294  0.50243380  1
  Fe  Fe31  1  1.00141065  0.33297928  0.66862281  1
  Fe  Fe32  1  0.16991434  0.50057013  0.83315781  1
  Ni  Ni33  1  0.17026115  0.83642032  0.50251266  1
  Ni  Ni34  1  0.00353935  0.66955790  0.66950549  1
  Ni  Ni35  1  0.16735450  0.83500511  0.83492387  1
  Cr  Cr36  1  0.49945545  0.16687143  0.50160561  1
  Fe  Fe37  1  0.33345650  1.00002083  0.66897947  1
  Cr  Cr38  1  0.50143565  0.16935701  0.83688058  1
  Ni  Ni39  1  0.50083518  0.50352579  0.50078212  1
  Ni  Ni40  1  0.33328954  0.33425568  0.66931541  1
  Ni  Ni41  1  0.49990606  0.50241067  0.83549851  1
  Ni  Ni42  1  0.50027441  0.83411357  0.50071157  1
  Fe  Fe43  1  0.33451474  0.66953322  0.66873141  1
  Fe  Fe44  1  0.49889720  0.83657082  0.83424336  1
  Fe  Fe45  1  0.83753265  0.16817672  0.50369432  1
  Ni  Ni46  1  0.66828815  1.00098466  0.66865673  1
  Ni  Ni47  1  0.83546570  0.16595159  0.83445688  1
  Ni  Ni48  1  0.83518994  0.50165375  0.50139191  1
  Cr  Cr49  1  0.66699275  0.33532376  0.66739854  1
  Fe  Fe50  1  0.83641399  0.49964621  0.83341752  1
  Cr  Cr51  1  0.83496747  0.83426165  0.50257219  1
  Cr  Cr52  1  0.66658125  0.66768910  0.66864588  1
  Fe  Fe53  1  0.83578075  0.83766929  0.83301095  1
" 