2228,Ni38Fe60Cr0_19,-237.2257395866, 208.685579584111,Ni38Fe60Cr0,"# generated using pymatgen
 data_Cr(Fe8Ni5)2
_symmetry_space_group_name_H-M   'P 1'
_cell_length_a   7.40737642
_cell_length_b   7.40737642
_cell_length_c   10.47561219
_cell_angle_alpha   90.00000000
_cell_angle_beta   90.00000000
_cell_angle_gamma   90.00000000
_symmetry_Int_Tables_number   1
_chemical_formula_structural   Cr(Fe8Ni5)2
_chemical_formula_sum   'Cr2 Fe32 Ni20'
_cell_volume   574.78872704
_cell_formula_units_Z   2
loop_
 _symmetry_equiv_pos_site_id
 _symmetry_equiv_pos_as_xyz
  1  'x, y, z'
loop_
 _atom_site_type_symbol
 _atom_site_label
 _atom_site_symmetry_multiplicity
 _atom_site_fract_x
 _atom_site_fract_y
 _atom_site_fract_z
 _atom_site_occupancy
  Fe  Fe0  1  0.00407966  0.00556629  1.00390172  1
  Fe  Fe1  1  0.17146676  0.17049553  0.17003179  1
  Fe  Fe2  1  0.00419727  1.00176828  0.33757040  1
  Fe  Fe3  1  1.00300755  0.33558713  1.00388771  1
  Fe  Fe4  1  0.17247833  0.50399270  0.17171060  1
  Cr  Cr5  1  0.00467425  0.33863797  0.33763912  1
  Cr  Cr6  1  0.00456004  0.66967653  0.00415342  1
  Fe  Fe7  1  0.17135418  0.83759571  0.17138096  1
  Ni  Ni8  1  0.00564443  0.67129808  0.33736185  1
  Fe  Fe9  1  0.33769891  1.00359086  1.00380162  1
  Ni  Ni10  1  0.50392193  0.17000285  0.17110335  1
  Fe  Fe11  1  0.33751184  1.00360465  0.33760376  1
  Fe  Fe12  1  0.33783919  0.33663620  1.00401266  1
  Fe  Fe13  1  0.50410842  0.50365054  0.17078045  1
  Fe  Fe14  1  0.33896524  0.33735906  0.33809748  1
  Fe  Fe15  1  0.33952064  0.67185725  0.00413457  1
  Fe  Fe16  1  0.50482325  0.83752932  0.17082082  1
  Ni  Ni17  1  0.33595405  0.67065300  0.33686944  1
  Ni  Ni18  1  0.66959726  0.00458410  1.00383374  1
  Fe  Fe19  1  0.83556209  0.16978228  0.17017800  1
  Ni  Ni20  1  0.66951391  0.00460013  0.33713377  1
  Fe  Fe21  1  0.67123492  0.33740906  0.00408437  1
  Ni  Ni22  1  0.83641595  0.50433096  0.17123547  1
  Fe  Fe23  1  0.66909191  0.33749243  0.33742504  1
  Fe  Fe24  1  0.66925890  0.67078552  1.00330261  1
  Fe  Fe25  1  0.83590635  0.83853627  0.17178805  1
  Fe  Fe26  1  0.67093281  0.67094909  0.33754023  1
  Ni  Ni27  1  0.17133357  0.17079564  0.50479307  1
  Fe  Fe28  1  1.00344304  0.00489201  0.67060984  1
  Fe  Fe29  1  0.17066252  0.17070043  0.83673010  1
  Ni  Ni30  1  0.17029678  0.50480975  0.50520728  1
  Ni  Ni31  1  0.00530344  0.33871640  0.67167531  1
  Fe  Fe32  1  0.17140787  0.50398608  0.83549284  1
  Fe  Fe33  1  0.17082388  0.83758297  0.50397386  1
  Ni  Ni34  1  0.00448633  0.66961636  0.67004441  1
  Ni  Ni35  1  0.17269933  0.83814393  0.83595197  1
  Ni  Ni36  1  0.50442234  0.16964185  0.50419565  1
  Fe  Fe37  1  0.33798938  0.00425465  0.67067904  1
  Fe  Fe38  1  0.50441562  0.17023628  0.83726027  1
  Fe  Fe39  1  0.50328287  0.50294442  0.50438400  1
  Ni  Ni40  1  0.33644606  0.33692333  0.67006973  1
  Fe  Fe41  1  0.50407972  0.50485120  0.83691688  1
  Ni  Ni42  1  0.50408059  0.83803952  0.50370504  1
  Fe  Fe43  1  0.33790313  0.67027819  0.67037633  1
  Ni  Ni44  1  0.50313790  0.83761794  0.83841937  1
  Ni  Ni45  1  0.83632693  0.17061436  0.50462818  1
  Ni  Ni46  1  0.66967977  0.00407267  0.67111748  1
  Fe  Fe47  1  0.83700345  0.17002161  0.83665598  1
  Fe  Fe48  1  0.83686327  0.50414414  0.50555435  1
  Ni  Ni49  1  0.67033189  0.33589885  0.67034883  1
  Ni  Ni50  1  0.83695722  0.50260208  0.83595017  1
  Fe  Fe51  1  0.83719077  0.83829861  0.50401035  1
  Ni  Ni52  1  0.67147583  0.67211069  0.67108437  1
  Fe  Fe53  1  0.83613888  0.83773665  0.83628471  1
" 