2587,Ni38Fe19Cr41_18,-222.504944666367, 166.60041533339,Ni38Fe19Cr41,"# generated using pymatgen
 data_Cr12(FeNi2)5
_symmetry_space_group_name_H-M   'P 1'
_cell_length_a   7.49507036
_cell_length_b   7.49507036
_cell_length_c   10.59963015
_cell_angle_alpha   90.00000000
_cell_angle_beta   90.00000000
_cell_angle_gamma   90.00000000
_symmetry_Int_Tables_number   1
_chemical_formula_structural   Cr12(FeNi2)5
_chemical_formula_sum   'Cr24 Fe10 Ni20'
_cell_volume   595.44566797
_cell_formula_units_Z   2
loop_
 _symmetry_equiv_pos_site_id
 _symmetry_equiv_pos_as_xyz
  1  'x, y, z'
loop_
 _atom_site_type_symbol
 _atom_site_label
 _atom_site_symmetry_multiplicity
 _atom_site_fract_x
 _atom_site_fract_y
 _atom_site_fract_z
 _atom_site_occupancy
  Cr  Cr0  1  0.99796133  -0.00052020  0.99736790  1
  Cr  Cr1  1  0.16436135  0.16607222  0.16708097  1
  Ni  Ni2  1  -0.00127518  0.99796159  0.33232537  1
  Ni  Ni3  1  0.99791667  0.33346673  0.99768845  1
  Fe  Fe4  1  0.16406018  0.49795373  0.16485536  1
  Ni  Ni5  1  0.00016948  0.33303694  0.33220979  1
  Cr  Cr6  1  0.00004901  0.66251658  -0.00047027  1
  Cr  Cr7  1  0.16443550  0.83079613  0.16543244  1
  Ni  Ni8  1  -0.00102667  0.66338090  0.33176904  1
  Cr  Cr9  1  0.33263718  0.99741101  0.99748235  1
  Ni  Ni10  1  0.49839479  0.16550428  0.16582289  1
  Fe  Fe11  1  0.33185235  -0.00136909  0.33234515  1
  Cr  Cr12  1  0.33136933  0.33287648  0.99708778  1
  Ni  Ni13  1  0.49828958  0.49797297  0.16329312  1
  Fe  Fe14  1  0.32940125  0.33042128  0.33065950  1
  Ni  Ni15  1  0.33167086  0.66291923  -0.00040032  1
  Ni  Ni16  1  0.49892524  0.83091105  0.16560351  1
  Cr  Cr17  1  0.33063979  0.66521700  0.33016945  1
  Cr  Cr18  1  0.66380079  -0.00016354  -0.00024109  1
  Cr  Cr19  1  0.83189075  0.16540613  0.16524500  1
  Ni  Ni20  1  0.66328880  0.99704066  0.32979226  1
  Ni  Ni21  1  0.66478902  0.33186334  -0.00016459  1
  Ni  Ni22  1  0.83177154  0.49822759  0.16504119  1
  Cr  Cr23  1  0.66523335  0.33092059  0.32930297  1
  Cr  Cr24  1  0.66337748  0.66381170  0.00126253  1
  Ni  Ni25  1  0.83063506  0.83012183  0.16694566  1
  Cr  Cr26  1  0.66539708  0.66606539  0.33048793  1
  Ni  Ni27  1  0.16399345  0.16518117  0.49860885  1
  Ni  Ni28  1  0.00032476  -0.00029081  0.66449178  1
  Ni  Ni29  1  0.16455345  0.16716516  0.82869136  1
  Fe  Fe30  1  0.16229907  0.49657372  0.49826329  1
  Ni  Ni31  1  0.00086278  0.33180911  0.66446036  1
  Ni  Ni32  1  0.16467819  0.49501653  0.83131371  1
  Fe  Fe33  1  0.16503495  0.83394696  0.49805151  1
  Fe  Fe34  1  -0.00167417  0.66427415  0.66378076  1
  Cr  Cr35  1  0.16491441  0.83197626  0.83108811  1
  Cr  Cr36  1  0.49532852  0.16281449  0.49782420  1
  Ni  Ni37  1  0.33097380  -0.00125123  0.66379085  1
  Fe  Fe38  1  0.49660228  0.16481145  0.83045062  1
  Cr  Cr39  1  0.49775697  0.49908979  0.49921935  1
  Fe  Fe40  1  0.32750604  0.32804942  0.66565569  1
  Cr  Cr41  1  0.49685417  0.49776072  0.83213823  1
  Ni  Ni42  1  0.49781427  0.83243663  0.49894479  1
  Cr  Cr43  1  0.33022083  0.66540751  0.66440027  1
  Cr  Cr44  1  0.49802327  0.83126746  0.83026118  1
  Cr  Cr45  1  0.83485687  0.16417570  0.49721645  1
  Ni  Ni46  1  0.66304361  0.99700638  0.66494960  1
  Cr  Cr47  1  0.83315960  0.16517891  0.83190415  1
  Fe  Fe48  1  0.83476304  0.49803364  0.49793855  1
  Cr  Cr49  1  0.66567920  0.33099437  0.66523375  1
  Cr  Cr50  1  0.83244100  0.49721460  0.83058386  1
  Cr  Cr51  1  0.83167373  0.83136595  0.49920117  1
  Fe  Fe52  1  0.66588535  0.66712081  0.66338830  1
  Cr  Cr53  1  0.83146639  0.83210040  0.82920667  1
" 