8084,Ni38Fe50Cr11_2,-234.41096900918, 203.171822161912,Ni38Fe50Cr11,"# generated using pymatgen
 data_Cr7Fe27Ni20
_symmetry_space_group_name_H-M   'P 1'
_cell_length_a   7.42125381
_cell_length_b   7.42125381
_cell_length_c   10.49523779
_cell_angle_alpha   90.00000000
_cell_angle_beta   90.00000000
_cell_angle_gamma   90.00000000
_symmetry_Int_Tables_number   1
_chemical_formula_structural   Cr7Fe27Ni20
_chemical_formula_sum   'Cr7 Fe27 Ni20'
_cell_volume   578.02530728
_cell_formula_units_Z   1
loop_
 _symmetry_equiv_pos_site_id
 _symmetry_equiv_pos_as_xyz
  1  'x, y, z'
loop_
 _atom_site_type_symbol
 _atom_site_label
 _atom_site_symmetry_multiplicity
 _atom_site_fract_x
 _atom_site_fract_y
 _atom_site_fract_z
 _atom_site_occupancy
  Fe  Fe0  1  0.00548994  1.00019903  0.00398765  1
  Fe  Fe1  1  0.17290507  0.16911706  0.17004675  1
  Ni  Ni2  1  0.00503909  1.00134087  0.33737219  1
  Ni  Ni3  1  0.00576875  0.33839295  0.00407531  1
  Fe  Fe4  1  0.17100201  0.50245272  0.16928970  1
  Fe  Fe5  1  0.00486778  0.33442959  0.33895903  1
  Ni  Ni6  1  0.00393269  0.67039032  1.00223427  1
  Ni  Ni7  1  0.17048769  0.83615523  0.17034624  1
  Cr  Cr8  1  0.00425977  0.66918391  0.33696635  1
  Fe  Fe9  1  0.33502189  1.00175695  1.00294340  1
  Ni  Ni10  1  0.50250802  0.17010456  0.16892079  1
  Fe  Fe11  1  0.33596611  1.00289927  0.33581251  1
  Fe  Fe12  1  0.33421092  0.33787327  0.00428973  1
  Ni  Ni13  1  0.50164230  0.50550341  0.17144858  1
  Fe  Fe14  1  0.33458769  0.33540289  0.33608174  1
  Fe  Fe15  1  0.33492904  0.67066085  0.00445310  1
  Fe  Fe16  1  0.50273366  0.83774114  0.17011378  1
  Fe  Fe17  1  0.33789075  0.67144615  0.33657074  1
  Fe  Fe18  1  0.66983025  1.00023559  0.00412430  1
  Cr  Cr19  1  0.83935825  0.16766326  0.17164218  1
  Ni  Ni20  1  0.66748820  0.00349286  0.33730328  1
  Cr  Cr21  1  0.66851642  0.33708581  1.00198450  1
  Fe  Fe22  1  0.83665989  0.50514511  0.16819136  1
  Cr  Cr23  1  0.66889358  0.33791112  0.33880151  1
  Ni  Ni24  1  0.67057411  0.67179270  0.00503736  1
  Fe  Fe25  1  0.83538920  0.83541775  0.17080543  1
  Fe  Fe26  1  0.66912921  0.67316288  0.33713325  1
  Ni  Ni27  1  0.16906314  0.16963209  0.50148236  1
  Fe  Fe28  1  0.00465871  1.00243189  0.66741567  1
  Ni  Ni29  1  0.16918062  0.16923128  0.83802920  1
  Ni  Ni30  1  0.17200094  0.50250206  0.50371406  1
  Ni  Ni31  1  0.00521350  0.33804100  0.66790783  1
  Ni  Ni32  1  0.16874813  0.50347639  0.83697976  1
  Fe  Fe33  1  0.16813353  0.83692658  0.50404297  1
  Ni  Ni34  1  0.00358576  0.66933899  0.67043062  1
  Ni  Ni35  1  0.17065050  0.83609759  0.83479073  1
  Fe  Fe36  1  0.50118726  0.16767537  0.50223671  1
  Fe  Fe37  1  0.33460281  0.00348974  0.67013864  1
  Fe  Fe38  1  0.49848843  0.16754553  0.83689348  1
  Fe  Fe39  1  0.50198202  0.50551828  0.50297888  1
  Fe  Fe40  1  0.33259452  0.33598786  0.66897443  1
  Cr  Cr41  1  0.50088941  0.50657893  0.83471873  1
  Fe  Fe42  1  0.50267013  0.83663785  0.50349076  1
  Fe  Fe43  1  0.33441510  0.67045794  0.66831691  1
  Fe  Fe44  1  0.50346469  0.83764071  0.83577146  1
  Ni  Ni45  1  0.83807160  0.16709192  0.50224646  1
  Fe  Fe46  1  0.67021912  1.00029470  0.66748550  1
  Cr  Cr47  1  0.83864051  0.16707688  0.83525044  1
  Ni  Ni48  1  0.83728848  0.50419921  0.50374522  1
  Cr  Cr49  1  0.66984822  0.33548547  0.66770894  1
  Ni  Ni50  1  0.83786834  0.50466460  0.83664492  1
  Ni  Ni51  1  0.83459210  0.83789389  0.50312759  1
  Ni  Ni52  1  0.67141802  0.67096457  0.66769163  1
  Fe  Fe53  1  0.83804908  0.83276836  0.83545801  1
" 