5412,Ni38Fe50Cr11_8,-234.359651088284, 207.206251960423,Ni38Fe50Cr11,"# generated using pymatgen
 data_Cr7Fe27Ni20
_symmetry_space_group_name_H-M   'P 1'
_cell_length_a   7.42462948
_cell_length_b   7.42462948
_cell_length_c   10.50001171
_cell_angle_alpha   90.00000000
_cell_angle_beta   90.00000000
_cell_angle_gamma   90.00000000
_symmetry_Int_Tables_number   1
_chemical_formula_structural   Cr7Fe27Ni20
_chemical_formula_sum   'Cr7 Fe27 Ni20'
_cell_volume   578.81443657
_cell_formula_units_Z   1
loop_
 _symmetry_equiv_pos_site_id
 _symmetry_equiv_pos_as_xyz
  1  'x, y, z'
loop_
 _atom_site_type_symbol
 _atom_site_label
 _atom_site_symmetry_multiplicity
 _atom_site_fract_x
 _atom_site_fract_y
 _atom_site_fract_z
 _atom_site_occupancy
  Ni  Ni0  1  0.00720231  1.00186799  0.00455571  1
  Fe  Fe1  1  0.16756590  0.16918021  0.16866855  1
  Ni  Ni2  1  0.00572134  0.00445631  0.33567366  1
  Fe  Fe3  1  0.00419797  0.33719062  0.00432154  1
  Fe  Fe4  1  0.16528252  0.50299877  0.16934964  1
  Ni  Ni5  1  0.00346624  0.33402858  0.33541050  1
  Ni  Ni6  1  1.00024736  0.66868634  0.00414403  1
  Ni  Ni7  1  0.16992211  0.83708732  0.16963982  1
  Fe  Fe8  1  1.00170028  0.67180028  0.33335888  1
  Ni  Ni9  1  0.33530942  0.00536125  0.00338111  1
  Fe  Fe10  1  0.50355725  0.16720095  0.16773896  1
  Fe  Fe11  1  0.33533237  1.00175956  0.33563358  1
  Fe  Fe12  1  0.33227463  0.33423789  1.00168773  1
  Cr  Cr13  1  0.50180557  0.50428570  0.16901103  1
  Fe  Fe14  1  0.33439730  0.33238860  0.33451915  1
  Fe  Fe15  1  0.33193004  0.67491840  0.00364999  1
  Fe  Fe16  1  0.50534034  0.83816767  0.17005849  1
  Fe  Fe17  1  0.33318790  0.67476853  0.33496506  1
  Fe  Fe18  1  0.66942590  0.99934372  0.00347093  1
  Ni  Ni19  1  0.83680911  0.16748535  0.16795103  1
  Fe  Fe20  1  0.67248046  0.00324247  0.33730231  1
  Fe  Fe21  1  0.67194212  0.33447672  0.00338628  1
  Ni  Ni22  1  0.83522259  0.50030882  0.17063290  1
  Fe  Fe23  1  0.67439622  0.33277467  0.33607790  1
  Ni  Ni24  1  0.67158713  0.66845723  1.00196268  1
  Fe  Fe25  1  0.83735946  0.83540238  0.16905848  1
  Ni  Ni26  1  0.67005064  0.66981044  0.33679244  1
  Fe  Fe27  1  0.16888426  0.16692167  0.50286938  1
  Ni  Ni28  1  0.00569661  1.00229327  0.66862263  1
  Ni  Ni29  1  0.16939940  0.16856550  0.83587029  1
  Cr  Cr30  1  0.16899297  0.50560828  0.50282308  1
  Fe  Fe31  1  0.00415922  0.33411008  0.66945424  1
  Ni  Ni32  1  0.16791197  0.50488788  0.83719214  1
  Ni  Ni33  1  0.16933774  0.83771973  0.50325842  1
  Fe  Fe34  1  0.00473529  0.67296551  0.67245186  1
  Fe  Fe35  1  0.16868922  0.83829932  0.83749895  1
  Fe  Fe36  1  0.50097368  0.16492130  0.50297841  1
  Ni  Ni37  1  0.33451311  0.00370444  0.66909340  1
  Ni  Ni38  1  0.50174671  0.16637063  0.83682056  1
  Cr  Cr39  1  0.50072601  0.50382042  0.50101142  1
  Fe  Fe40  1  0.33320785  0.33176228  0.67186851  1
  Cr  Cr41  1  0.50034625  0.50396361  0.83797876  1
  Ni  Ni42  1  0.50076286  0.83747474  0.50137865  1
  Fe  Fe43  1  0.33374790  0.67601730  0.67039851  1
  Fe  Fe44  1  0.50153670  0.84010742  0.83679012  1
  Ni  Ni45  1  0.83750733  0.16683096  0.50273841  1
  Ni  Ni46  1  0.66784316  1.00133009  0.66868367  1
  Cr  Cr47  1  0.83768837  0.16537932  0.83849841  1
  Fe  Fe48  1  0.83876754  0.50421268  0.49930504  1
  Cr  Cr49  1  0.67052339  0.33589606  0.66750043  1
  Ni  Ni50  1  0.83949633  0.50287388  0.83729519  1
  Fe  Fe51  1  0.83796960  0.83851317  0.50166136  1
  Cr  Cr52  1  0.67237158  0.67182267  0.66988993  1
  Fe  Fe53  1  0.83900590  0.83619646  0.83792131  1
" 