5970,Ni38Fe19Cr41_13,-222.733018760413, 173.368027332817,Ni38Fe19Cr41,"# generated using pymatgen
 data_Cr12(FeNi2)5
_symmetry_space_group_name_H-M   'P 1'
_cell_length_a   7.48623998
_cell_length_b   7.48623998
_cell_length_c   10.58714211
_cell_angle_alpha   90.00000000
_cell_angle_beta   90.00000000
_cell_angle_gamma   90.00000000
_symmetry_Int_Tables_number   1
_chemical_formula_structural   Cr12(FeNi2)5
_chemical_formula_sum   'Cr24 Fe10 Ni20'
_cell_volume   593.34355846
_cell_formula_units_Z   2
loop_
 _symmetry_equiv_pos_site_id
 _symmetry_equiv_pos_as_xyz
  1  'x, y, z'
loop_
 _atom_site_type_symbol
 _atom_site_label
 _atom_site_symmetry_multiplicity
 _atom_site_fract_x
 _atom_site_fract_y
 _atom_site_fract_z
 _atom_site_occupancy
  Fe  Fe0  1  0.99870198  -0.00109483  -0.00096793  1
  Cr  Cr1  1  0.16517264  0.16510589  0.16429760  1
  Cr  Cr2  1  0.99821547  -0.00045177  0.33200695  1
  Ni  Ni3  1  0.00053020  0.33274150  -0.00032660  1
  Ni  Ni4  1  0.16243120  0.49951461  0.16405862  1
  Ni  Ni5  1  -0.00032243  0.33254896  0.33109752  1
  Ni  Ni6  1  -0.00004224  0.66511133  -0.00052407  1
  Ni  Ni7  1  0.16643249  0.83119526  0.16466085  1
  Fe  Fe8  1  0.00106432  0.66376412  0.33214461  1
  Fe  Fe9  1  0.33162083  -0.00085694  -0.00090167  1
  Cr  Cr10  1  0.49793638  0.16291870  0.16599237  1
  Ni  Ni11  1  0.33414943  0.99689510  0.33192159  1
  Ni  Ni12  1  0.32906328  0.33251296  0.99809186  1
  Cr  Cr13  1  0.49835024  0.49919306  0.16387045  1
  Cr  Cr14  1  0.32928641  0.33245105  0.33380287  1
  Cr  Cr15  1  0.33096434  0.66518138  0.00033102  1
  Ni  Ni16  1  0.49668505  0.83407131  0.16524841  1
  Cr  Cr17  1  0.33137326  0.66664754  0.33150593  1
  Cr  Cr18  1  0.66604053  0.99753469  0.99743975  1
  Ni  Ni19  1  0.83352386  0.16608510  0.16492716  1
  Fe  Fe20  1  0.66297489  0.99832299  0.33289690  1
  Cr  Cr21  1  0.66628221  0.33028336  0.99786594  1
  Cr  Cr22  1  0.83524344  0.49790652  0.16497553  1
  Cr  Cr23  1  0.66661512  0.33000323  0.33256140  1
  Fe  Fe24  1  0.66654025  0.66682282  0.99819984  1
  Cr  Cr25  1  0.83305496  0.83143069  0.16601357  1
  Cr  Cr26  1  0.66411957  0.66868922  0.33221314  1
  Fe  Fe27  1  0.16884958  0.16619878  0.49867491  1
  Cr  Cr28  1  0.99771645  0.99703376  0.66640642  1
  Cr  Cr29  1  0.16852809  0.16605521  0.83304569  1
  Ni  Ni30  1  0.16537101  0.49832500  0.49985829  1
  Cr  Cr31  1  0.00071747  0.33323161  0.66548657  1
  Ni  Ni32  1  0.16473184  0.49853736  0.83224007  1
  Cr  Cr33  1  0.16568352  0.83142995  0.49989928  1
  Ni  Ni34  1  0.00010178  0.66554313  0.66468318  1
  Cr  Cr35  1  0.16418570  0.83135187  0.83154045  1
  Ni  Ni36  1  0.49650095  0.16421170  0.49982913  1
  Ni  Ni37  1  0.33502305  -0.00013303  0.66471971  1
  Ni  Ni38  1  0.49759988  0.16540971  0.83071174  1
  Fe  Fe39  1  0.49707463  0.49799100  0.50107254  1
  Ni  Ni40  1  0.33379652  0.33214464  0.66377648  1
  Cr  Cr41  1  0.49783094  0.49603774  0.83063972  1
  Ni  Ni42  1  0.49831447  0.83534407  0.49871656  1
  Fe  Fe43  1  0.33080513  0.66404293  0.66444901  1
  Fe  Fe44  1  0.49858367  0.83370701  0.83182356  1
  Cr  Cr45  1  0.83011976  0.16548240  0.49774349  1
  Cr  Cr46  1  0.66439279  -0.00103387  0.66550372  1
  Fe  Fe47  1  0.83129138  0.16533895  0.83309097  1
  Cr  Cr48  1  0.83388345  0.50037618  0.49836800  1
  Ni  Ni49  1  0.66117655  0.33059556  0.66554072  1
  Cr  Cr50  1  0.83358726  0.50038102  0.83281163  1
  Ni  Ni51  1  0.83123560  0.83057584  0.49818721  1
  Cr  Cr52  1  0.66492831  0.66695533  0.66565817  1
  Ni  Ni53  1  0.83274303  0.83111882  0.83289967  1
" 