3381,Ni38Fe39Cr22_17,-230.500054416682, 194.893598987428,Ni38Fe39Cr22,"# generated using pymatgen
 data_Cr13Fe21Ni20
_symmetry_space_group_name_H-M   'P 1'
_cell_length_a   7.44760460
_cell_length_b   7.44760460
_cell_length_c   10.53250343
_cell_angle_alpha   90.00000000
_cell_angle_beta   90.00000000
_cell_angle_gamma   90.00000000
_symmetry_Int_Tables_number   1
_chemical_formula_structural   Cr13Fe21Ni20
_chemical_formula_sum   'Cr13 Fe21 Ni20'
_cell_volume   584.20441104
_cell_formula_units_Z   1
loop_
 _symmetry_equiv_pos_site_id
 _symmetry_equiv_pos_as_xyz
  1  'x, y, z'
loop_
 _atom_site_type_symbol
 _atom_site_label
 _atom_site_symmetry_multiplicity
 _atom_site_fract_x
 _atom_site_fract_y
 _atom_site_fract_z
 _atom_site_occupancy
  Cr  Cr0  1  1.00091110  1.00087696  0.99974747  1
  Ni  Ni1  1  0.16891214  0.16953975  0.16764940  1
  Fe  Fe2  1  1.00022871  0.00238160  0.33419330  1
  Cr  Cr3  1  0.00241457  0.33343565  1.00112076  1
  Ni  Ni4  1  0.16711459  0.50304403  0.16844404  1
  Ni  Ni5  1  0.99884093  0.33363560  0.33405537  1
  Fe  Fe6  1  0.00389418  0.66710708  1.00064371  1
  Fe  Fe7  1  0.16984887  0.83510732  0.16745839  1
  Fe  Fe8  1  0.99902486  0.66651079  0.33428253  1
  Ni  Ni9  1  0.33361707  0.99948676  0.99935605  1
  Cr  Cr10  1  0.50265093  0.16626495  0.16658795  1
  Fe  Fe11  1  0.33593004  0.00199186  0.33307509  1
  Ni  Ni12  1  0.33495690  0.33614167  0.00158185  1
  Fe  Fe13  1  0.50119873  0.50423889  0.16816279  1
  Cr  Cr14  1  0.33386091  0.33839491  0.33184293  1
  Ni  Ni15  1  0.33569902  0.66854313  0.00213390  1
  Fe  Fe16  1  0.49799116  0.83358350  0.16700420  1
  Ni  Ni17  1  0.33424766  0.67210673  0.33257694  1
  Fe  Fe18  1  0.66444457  0.99993832  0.99843053  1
  Fe  Fe19  1  0.83664589  0.16856675  0.16993851  1
  Ni  Ni20  1  0.67000279  1.00005765  0.33572315  1
  Cr  Cr21  1  0.66797213  0.33528418  1.00043181  1
  Fe  Fe22  1  0.83509178  0.49960877  0.16965579  1
  Ni  Ni23  1  0.67225381  0.33249215  0.33552839  1
  Fe  Fe24  1  0.66584572  0.66866725  0.99887000  1
  Cr  Cr25  1  0.83128167  0.83366359  0.16545882  1
  Fe  Fe26  1  0.66785077  0.66711769  0.33566826  1
  Cr  Cr27  1  0.16863778  0.16726738  0.50414549  1
  Ni  Ni28  1  1.00097494  1.00065915  0.66982561  1
  Ni  Ni29  1  0.16840513  0.16609783  0.83384802  1
  Cr  Cr30  1  0.16580461  0.50238426  0.50445842  1
  Fe  Fe31  1  0.99686793  0.33432414  0.66975931  1
  Cr  Cr32  1  0.16771998  0.50278001  0.83196382  1
  Cr  Cr33  1  0.16607423  0.83461770  0.50125973  1
  Ni  Ni34  1  0.99922245  0.67217111  0.66911295  1
  Ni  Ni35  1  0.16893002  0.83407632  0.83423128  1
  Fe  Fe36  1  0.50440311  0.16556824  0.50007393  1
  Fe  Fe37  1  0.33505762  0.99785389  0.67190984  1
  Ni  Ni38  1  0.50157786  0.16683223  0.83574093  1
  Cr  Cr39  1  0.50325770  0.50153507  0.50216342  1
  Cr  Cr40  1  0.33843894  0.33281322  0.67172231  1
  Fe  Fe41  1  0.50219259  0.50263236  0.83414553  1
  Fe  Fe42  1  0.50130206  0.83482792  0.50110636  1
  Ni  Ni43  1  0.33564692  0.67081883  0.66912218  1
  Ni  Ni44  1  0.50215699  0.83347288  0.83562901  1
  Fe  Fe45  1  0.83479080  0.16782583  0.50141244  1
  Cr  Cr46  1  0.66877595  0.00140468  0.66914954  1
  Ni  Ni47  1  0.83301782  0.16770652  0.83375117  1
  Fe  Fe48  1  0.83525785  0.50204716  0.50238462  1
  Ni  Ni49  1  0.67003048  0.33472010  0.66774887  1
  Fe  Fe50  1  0.83269226  0.50243807  0.83218248  1
  Ni  Ni51  1  0.83243546  0.83413207  0.50174431  1
  Ni  Ni52  1  0.66857385  0.66746410  0.66823485  1
  Fe  Fe53  1  0.83551049  0.83422868  0.83403892  1
" 