5419,Ni38Fe19Cr41_14,-222.180908965109, 161.11299684794,Ni38Fe19Cr41,"# generated using pymatgen
 data_Cr12(FeNi2)5
_symmetry_space_group_name_H-M   'P 1'
_cell_length_a   7.49722491
_cell_length_b   7.49722491
_cell_length_c   10.60267715
_cell_angle_alpha   90.00000000
_cell_angle_beta   90.00000000
_cell_angle_gamma   90.00000000
_symmetry_Int_Tables_number   1
_chemical_formula_structural   Cr12(FeNi2)5
_chemical_formula_sum   'Cr24 Fe10 Ni20'
_cell_volume   595.95932052
_cell_formula_units_Z   2
loop_
 _symmetry_equiv_pos_site_id
 _symmetry_equiv_pos_as_xyz
  1  'x, y, z'
loop_
 _atom_site_type_symbol
 _atom_site_label
 _atom_site_symmetry_multiplicity
 _atom_site_fract_x
 _atom_site_fract_y
 _atom_site_fract_z
 _atom_site_occupancy
  Cr  Cr0  1  0.99655056  0.99504990  0.99587940  1
  Cr  Cr1  1  0.16378643  0.16358076  0.16582281  1
  Ni  Ni2  1  0.99556330  0.99276778  0.33004112  1
  Cr  Cr3  1  0.00257493  0.33282464  0.99664213  1
  Ni  Ni4  1  0.16665670  0.50333179  0.16507104  1
  Cr  Cr5  1  -0.00092507  0.33613533  0.32913542  1
  Cr  Cr6  1  0.99652718  0.66556395  0.99763078  1
  Ni  Ni7  1  0.16141042  0.82871697  0.16692380  1
  Ni  Ni8  1  0.99688646  0.66711585  0.33359323  1
  Cr  Cr9  1  0.33134983  -0.00101185  -0.00014296  1
  Ni  Ni10  1  0.50157416  0.16538187  0.16498937  1
  Cr  Cr11  1  0.33189482  0.99758407  0.33066237  1
  Cr  Cr12  1  0.33001866  0.33312477  0.99485837  1
  Ni  Ni13  1  0.49708537  0.49734518  0.16147178  1
  Cr  Cr14  1  0.33466553  0.33209531  0.33283596  1
  Fe  Fe15  1  0.32964850  0.66597988  -0.00034224  1
  Fe  Fe16  1  0.49717818  0.82827105  0.16257773  1
  Cr  Cr17  1  0.33109845  0.66222200  0.33217349  1
  Ni  Ni18  1  0.66273689  0.99467534  0.00023292  1
  Fe  Fe19  1  0.83100489  0.16216997  0.16426461  1
  Cr  Cr20  1  0.66558391  0.99534554  0.32908120  1
  Cr  Cr21  1  0.66232886  0.33089904  -0.00163971  1
  Cr  Cr22  1  0.83065503  0.49906961  0.16463527  1
  Fe  Fe23  1  0.66400824  0.33227170  0.33127596  1
  Ni  Ni24  1  0.66146516  0.66738291  -0.00062215  1
  Ni  Ni25  1  0.83168307  0.83132448  0.16248616  1
  Cr  Cr26  1  0.66742868  0.66431761  0.33189406  1
  Cr  Cr27  1  0.16348874  0.15826429  0.49766209  1
  Ni  Ni28  1  0.99639734  0.99271315  0.66682494  1
  Fe  Fe29  1  0.16632170  0.16264701  0.82968511  1
  Fe  Fe30  1  0.16401027  0.49969386  0.49895662  1
  Cr  Cr31  1  0.00096877  0.33435771  0.66767657  1
  Ni  Ni32  1  0.16622373  0.50623741  0.83011389  1
  Ni  Ni33  1  0.15838376  0.82686908  0.49805642  1
  Ni  Ni34  1  0.99785207  0.66627992  0.66264662  1
  Ni  Ni35  1  0.16444745  0.82852514  0.82842757  1
  Ni  Ni36  1  0.50236229  0.16829501  0.49944942  1
  Cr  Cr37  1  0.33144281  -0.00019494  0.66362084  1
  Ni  Ni38  1  0.50097862  0.16351880  0.82935445  1
  Ni  Ni39  1  0.50156281  0.49618312  0.50126652  1
  Cr  Cr40  1  0.33382259  0.33347213  0.66623551  1
  Fe  Fe41  1  0.49625902  0.49994606  0.83164940  1
  Cr  Cr42  1  0.49473199  0.83264670  0.49908391  1
  Fe  Fe43  1  0.32805323  0.66614626  0.66336686  1
  Cr  Cr44  1  0.49674213  0.83131173  0.83405253  1
  Cr  Cr45  1  0.83149290  0.16494417  0.49688636  1
  Ni  Ni46  1  0.66609386  0.99721085  0.66485889  1
  Cr  Cr47  1  0.82976025  0.16241053  0.83149981  1
  Ni  Ni48  1  0.83140900  0.49933916  0.49789719  1
  Fe  Fe49  1  0.66637913  0.32973283  0.66410693  1
  Cr  Cr50  1  0.82974438  0.50024453  0.83171563  1
  Ni  Ni51  1  0.83475438  0.83041771  0.50084477  1
  Cr  Cr52  1  0.66668184  0.66543422  0.66345065  1
  Fe  Fe53  1  0.83051730  0.83113963  0.83050011  1
" 