8233,Ni38Fe62_9,-242.652476123457, 224.286760259967,Ni38Fe62,"# generated using pymatgen
 data_Fe10Ni17
_symmetry_space_group_name_H-M   'P 1'
_cell_length_a   7.40366891
_cell_length_b   7.40366891
_cell_length_c   10.47036899
_cell_angle_alpha   90.00000000
_cell_angle_beta   90.00000000
_cell_angle_gamma   90.00000000
_symmetry_Int_Tables_number   1
_chemical_formula_structural   Fe10Ni17
_chemical_formula_sum   'Fe20 Ni34'
_cell_volume   573.92608679
_cell_formula_units_Z   2
loop_
 _symmetry_equiv_pos_site_id
 _symmetry_equiv_pos_as_xyz
  1  'x, y, z'
loop_
 _atom_site_type_symbol
 _atom_site_label
 _atom_site_symmetry_multiplicity
 _atom_site_fract_x
 _atom_site_fract_y
 _atom_site_fract_z
 _atom_site_occupancy
  Fe  Fe0  1  0.00462479  0.00440398  0.00502454  1
  Ni  Ni1  1  0.17041650  0.17104125  0.17181239  1
  Ni  Ni2  1  1.00385763  0.00528605  0.33626101  1
  Fe  Fe3  1  0.00476020  0.33771574  0.00470093  1
  Ni  Ni4  1  0.17124897  0.50492621  0.17085239  1
  Ni  Ni5  1  0.00491090  0.33615565  0.33698637  1
  Ni  Ni6  1  0.00524350  0.67112145  0.00472436  1
  Ni  Ni7  1  0.16957531  0.83687306  0.17090625  1
  Fe  Fe8  1  1.00396238  0.67109344  0.33667478  1
  Fe  Fe9  1  0.33757196  0.00476805  1.00421009  1
  Ni  Ni10  1  0.50537759  0.17151149  0.17129357  1
  Fe  Fe11  1  0.33788202  0.00439429  0.33783572  1
  Ni  Ni12  1  0.33717609  0.33832100  0.00482674  1
  Ni  Ni13  1  0.50417838  0.50409513  0.17097784  1
  Fe  Fe14  1  0.33788498  0.33742148  0.33716821  1
  Fe  Fe15  1  0.33751662  0.67061302  0.00435115  1
  Fe  Fe16  1  0.50430675  0.83804220  0.17139103  1
  Ni  Ni17  1  0.33759695  0.67033277  0.33651966  1
  Ni  Ni18  1  0.67147740  0.00445322  0.00437641  1
  Ni  Ni19  1  0.83705214  0.16983965  0.17056557  1
  Ni  Ni20  1  0.67221171  0.00447083  0.33777811  1
  Fe  Fe21  1  0.67053442  0.33765850  1.00427512  1
  Fe  Fe22  1  0.83810840  0.50385844  0.17082603  1
  Ni  Ni23  1  0.67114986  0.33697933  0.33686244  1
  Fe  Fe24  1  0.67090301  0.67075306  1.00391582  1
  Ni  Ni25  1  0.83788111  0.83806577  0.17164727  1
  Ni  Ni26  1  0.66946487  0.67139151  0.33686251  1
  Ni  Ni27  1  0.17027007  0.17122847  0.50384702  1
  Ni  Ni28  1  1.00366949  0.00446150  0.67184797  1
  Ni  Ni29  1  0.17103076  0.17147189  0.83717736  1
  Ni  Ni30  1  0.17030828  0.50493647  0.50453844  1
  Fe  Fe31  1  1.00415609  0.33773245  0.67045522  1
  Ni  Ni32  1  0.17019539  0.50408552  0.83744914  1
  Ni  Ni33  1  0.17113728  0.83667368  0.50475704  1
  Fe  Fe34  1  1.00415361  0.67038454  0.67173970  1
  Fe  Fe35  1  0.17152056  0.83682402  0.83746520  1
  Ni  Ni36  1  0.50568498  0.17006128  0.50455340  1
  Fe  Fe37  1  0.33882797  0.00442617  0.67079583  1
  Ni  Ni38  1  0.50443611  0.17028421  0.83699341  1
  Fe  Fe39  1  0.50348578  0.50416149  0.50442652  1
  Ni  Ni40  1  0.33757816  0.33905528  0.67049199  1
  Ni  Ni41  1  0.50490663  0.50490791  0.83661246  1
  Ni  Ni42  1  0.50483033  0.83782406  0.50373212  1
  Ni  Ni43  1  0.33759588  0.66933255  0.67240023  1
  Ni  Ni44  1  0.50529494  0.83764898  0.83798984  1
  Ni  Ni45  1  0.83689150  0.17088796  0.50474600  1
  Ni  Ni46  1  0.67241354  0.00444336  0.67068911  1
  Fe  Fe47  1  0.83667345  0.17137037  0.83709614  1
  Fe  Fe48  1  0.83737790  0.50353530  0.50461995  1
  Ni  Ni49  1  0.66970322  0.33717872  0.67170906  1
  Ni  Ni50  1  0.83773362  0.50494227  0.83778857  1
  Fe  Fe51  1  0.83773875  0.83914769  0.50386000  1
  Ni  Ni52  1  0.66969617  0.67121987  0.67161351  1
  Fe  Fe53  1  0.83694707  0.83731943  0.83811049  1
" 