5551,Ni38Fe24Cr37_1,-224.405589467216, 172.45948322769,Ni38Fe24Cr37,"# generated using pymatgen
 data_Cr11(Fe3Ni5)2
_symmetry_space_group_name_H-M   'P 1'
_cell_length_a   7.49007699
_cell_length_b   7.49007699
_cell_length_c   10.59256846
_cell_angle_alpha   90.00000000
_cell_angle_beta   90.00000000
_cell_angle_gamma   90.00000000
_symmetry_Int_Tables_number   1
_chemical_formula_structural   Cr11(Fe3Ni5)2
_chemical_formula_sum   'Cr22 Fe12 Ni20'
_cell_volume   594.25636659
_cell_formula_units_Z   2
loop_
 _symmetry_equiv_pos_site_id
 _symmetry_equiv_pos_as_xyz
  1  'x, y, z'
loop_
 _atom_site_type_symbol
 _atom_site_label
 _atom_site_symmetry_multiplicity
 _atom_site_fract_x
 _atom_site_fract_y
 _atom_site_fract_z
 _atom_site_occupancy
  Ni  Ni0  1  0.99534681  0.99766614  0.00399326  1
  Ni  Ni1  1  0.16227598  0.16138892  0.16814417  1
  Fe  Fe2  1  0.99838170  -0.00046092  0.33116695  1
  Cr  Cr3  1  -0.00016911  0.33154346  0.00542767  1
  Ni  Ni4  1  0.16168814  0.49927855  0.16759251  1
  Fe  Fe5  1  0.99644795  0.33120106  0.32966910  1
  Cr  Cr6  1  0.99780094  0.66495372  0.00110577  1
  Ni  Ni7  1  0.16076879  0.83457467  0.16757327  1
  Ni  Ni8  1  0.99762766  0.66640836  0.33018244  1
  Cr  Cr9  1  0.33137805  0.00083245  0.00316939  1
  Ni  Ni10  1  0.49924150  0.16594503  0.16624256  1
  Fe  Fe11  1  0.33007397  -0.00049213  0.33251219  1
  Cr  Cr12  1  0.33065265  0.33190239  -0.00117544  1
  Cr  Cr13  1  0.50400425  0.49826288  0.16647423  1
  Cr  Cr14  1  0.32914310  0.32900744  0.33082898  1
  Cr  Cr15  1  0.32910180  0.66172789  0.99762449  1
  Cr  Cr16  1  0.49750523  0.83165345  0.16666486  1
  Cr  Cr17  1  0.32520758  0.66595094  0.33143058  1
  Cr  Cr18  1  0.66804423  0.00045540  0.99660464  1
  Ni  Ni19  1  0.83311825  0.16553689  0.16600498  1
  Cr  Cr20  1  0.66701040  0.00056907  0.33459431  1
  Fe  Fe21  1  0.66605833  0.33229847  0.00031065  1
  Ni  Ni22  1  0.83231547  0.49884691  0.16841120  1
  Ni  Ni23  1  0.66776066  0.32588117  0.32916774  1
  Ni  Ni24  1  0.66750630  0.66623965  -0.00028842  1
  Ni  Ni25  1  0.83521275  0.83118361  0.16599922  1
  Fe  Fe26  1  0.66874335  0.66606171  0.33108541  1
  Fe  Fe27  1  0.16436576  0.16514148  0.49856468  1
  Ni  Ni28  1  0.99648109  0.99658522  0.66049054  1
  Cr  Cr29  1  0.16268599  0.16155058  0.82898711  1
  Fe  Fe30  1  0.16383147  0.49695792  0.49770590  1
  Ni  Ni31  1  0.00259480  0.33243994  0.66072500  1
  Fe  Fe32  1  0.16387327  0.49463697  0.82970824  1
  Fe  Fe33  1  0.16112538  0.83350509  0.49742412  1
  Ni  Ni34  1  -0.00006215  0.66564435  0.66376404  1
  Cr  Cr35  1  0.16142791  0.83524443  0.83268952  1
  Ni  Ni36  1  0.49772241  0.16452167  0.49752782  1
  Cr  Cr37  1  0.33616654  -0.00001478  0.66153951  1
  Ni  Ni38  1  0.49718679  0.16950959  0.83138134  1
  Cr  Cr39  1  0.50086968  0.49801098  0.49540360  1
  Ni  Ni40  1  0.32920584  0.33211598  0.66486341  1
  Ni  Ni41  1  0.50039055  0.49846220  0.83234518  1
  Ni  Ni42  1  0.49471324  0.83291141  0.49667919  1
  Cr  Cr43  1  0.32999698  0.66137638  0.66638258  1
  Fe  Fe44  1  0.49948357  0.83207641  0.83314275  1
  Ni  Ni45  1  0.83647695  0.16532063  0.49843164  1
  Cr  Cr46  1  0.66754579  -0.00146999  0.66431284  1
  Cr  Cr47  1  0.83712831  0.16553986  0.83112572  1
  Cr  Cr48  1  0.83345783  0.49684916  0.49509767  1
  Cr  Cr49  1  0.66321437  0.32752876  0.66435167  1
  Cr  Cr50  1  0.83128657  0.49851354  0.83128874  1
  Fe  Fe51  1  0.83378497  0.83265833  0.49600947  1
  Cr  Cr52  1  0.66680342  0.67073635  0.66380467  1
  Fe  Fe53  1  0.83298037  0.83221473  0.83272075  1
" 