7933,Ni38Fe19Cr41_0,-222.88847056305, 170.024771835207,Ni38Fe19Cr41,"# generated using pymatgen
 data_Cr12(FeNi2)5
_symmetry_space_group_name_H-M   'P 1'
_cell_length_a   7.49634377
_cell_length_b   7.49634377
_cell_length_c   10.60143103
_cell_angle_alpha   90.00000000
_cell_angle_beta   90.00000000
_cell_angle_gamma   90.00000000
_symmetry_Int_Tables_number   1
_chemical_formula_structural   Cr12(FeNi2)5
_chemical_formula_sum   'Cr24 Fe10 Ni20'
_cell_volume   595.74921884
_cell_formula_units_Z   2
loop_
 _symmetry_equiv_pos_site_id
 _symmetry_equiv_pos_as_xyz
  1  'x, y, z'
loop_
 _atom_site_type_symbol
 _atom_site_label
 _atom_site_symmetry_multiplicity
 _atom_site_fract_x
 _atom_site_fract_y
 _atom_site_fract_z
 _atom_site_occupancy
  Ni  Ni0  1  0.00028619  0.00332995  0.99688721  1
  Ni  Ni1  1  0.16479978  0.16627174  0.16190269  1
  Cr  Cr2  1  0.99620986  0.00003732  0.33085683  1
  Ni  Ni3  1  0.99776526  0.32764953  -0.00043602  1
  Cr  Cr4  1  0.16227017  0.49434855  0.16842518  1
  Fe  Fe5  1  0.99523728  0.32859926  0.32933454  1
  Cr  Cr6  1  -0.00171950  0.66355847  -0.00068042  1
  Cr  Cr7  1  0.16589104  0.83452766  0.16679306  1
  Ni  Ni8  1  0.99530041  0.66409229  0.33245369  1
  Ni  Ni9  1  0.32903279  0.00038378  0.99683624  1
  Cr  Cr10  1  0.49622305  0.16288259  0.16491752  1
  Ni  Ni11  1  0.33088670  0.00377062  0.33226363  1
  Fe  Fe12  1  0.32977638  0.32968796  0.99653120  1
  Cr  Cr13  1  0.49918601  0.49495324  0.16303225  1
  Fe  Fe14  1  0.33310387  0.32852278  0.33206077  1
  Cr  Cr15  1  0.33231392  0.66495626  0.99308036  1
  Cr  Cr16  1  0.49886783  0.83551775  0.16250018  1
  Cr  Cr17  1  0.33156341  0.66589240  0.33519680  1
  Ni  Ni18  1  0.66452601  0.00061998  0.99788841  1
  Fe  Fe19  1  0.83163095  0.16503929  0.16227310  1
  Ni  Ni20  1  0.66537101  0.00348150  0.33346867  1
  Ni  Ni21  1  0.66703750  0.33111671  -0.00038448  1
  Ni  Ni22  1  0.83210015  0.49346649  0.16423729  1
  Fe  Fe23  1  0.66641308  0.32902600  0.33160921  1
  Ni  Ni24  1  0.66329918  0.66222773  0.99679523  1
  Cr  Cr25  1  0.82953690  0.83074693  0.16092605  1
  Cr  Cr26  1  0.66692987  0.66351878  0.33024768  1
  Cr  Cr27  1  0.16614601  0.16594939  0.49921324  1
  Fe  Fe28  1  0.99725563  -0.00116920  0.66452501  1
  Fe  Fe29  1  0.16319363  0.16440402  0.83341247  1
  Cr  Cr30  1  0.16396601  0.49686074  0.49564635  1
  Ni  Ni31  1  0.99692729  0.32777268  0.66525759  1
  Ni  Ni32  1  0.16358847  0.49434568  0.83187875  1
  Ni  Ni33  1  0.16083773  0.83375827  0.49635576  1
  Cr  Cr34  1  0.00017533  0.66658190  0.66410974  1
  Ni  Ni35  1  0.16506954  0.83304020  0.83203333  1
  Ni  Ni36  1  0.50073863  0.16644948  0.49631730  1
  Cr  Cr37  1  0.32978100  0.99746302  0.66542178  1
  Cr  Cr38  1  0.49967045  0.16420263  0.83311260  1
  Ni  Ni39  1  0.49996464  0.49188389  0.49835123  1
  Cr  Cr40  1  0.33318378  0.33163615  0.66746681  1
  Fe  Fe41  1  0.50011734  0.49699527  0.83251952  1
  Cr  Cr42  1  0.49913803  0.83573503  0.49618815  1
  Cr  Cr43  1  0.33194784  0.66517245  0.66641097  1
  Ni  Ni44  1  0.49758703  0.83469823  0.83481042  1
  Fe  Fe45  1  0.83005169  0.16331297  0.50007001  1
  Fe  Fe46  1  0.66466758  -0.00022868  0.66302085  1
  Cr  Cr47  1  0.83105141  0.16552554  0.82963050  1
  Cr  Cr48  1  0.83294635  0.49674458  0.49822989  1
  Ni  Ni49  1  0.66581766  0.32826124  0.66140528  1
  Cr  Cr50  1  0.83292074  0.49492826  0.83221954  1
  Ni  Ni51  1  0.83219719  0.83411266  0.49889817  1
  Cr  Cr52  1  0.66205265  0.66351451  0.66621498  1
  Cr  Cr53  1  0.82964962  0.83430589  0.83274526  1
" 