1079,Ni38Fe62_19,-243.218839606053, 225.068533498889,Ni38Fe62,"# generated using pymatgen
 data_Fe10Ni17
_symmetry_space_group_name_H-M   'P 1'
_cell_length_a   7.41112616
_cell_length_b   7.41112616
_cell_length_c   10.48091513
_cell_angle_alpha   90.00000000
_cell_angle_beta   90.00000000
_cell_angle_gamma   90.00000000
_symmetry_Int_Tables_number   1
_chemical_formula_structural   Fe10Ni17
_chemical_formula_sum   'Fe20 Ni34'
_cell_volume   575.66207209
_cell_formula_units_Z   2
loop_
 _symmetry_equiv_pos_site_id
 _symmetry_equiv_pos_as_xyz
  1  'x, y, z'
loop_
 _atom_site_type_symbol
 _atom_site_label
 _atom_site_symmetry_multiplicity
 _atom_site_fract_x
 _atom_site_fract_y
 _atom_site_fract_z
 _atom_site_occupancy
  Fe  Fe0  1  1.00375872  1.00319323  1.00326100  1
  Fe  Fe1  1  0.17158383  0.17065799  0.17112127  1
  Ni  Ni2  1  1.00226310  1.00352225  0.33788573  1
  Fe  Fe3  1  1.00334622  0.33753804  1.00334733  1
  Fe  Fe4  1  0.17168063  0.50451674  0.17118357  1
  Ni  Ni5  1  1.00370708  0.33717703  0.33748978  1
  Ni  Ni6  1  0.00425825  0.67059981  1.00303380  1
  Fe  Fe7  1  0.17126296  0.83614474  0.16984062  1
  Ni  Ni8  1  0.00511895  0.67062021  0.33823816  1
  Ni  Ni9  1  0.33830321  1.00371878  1.00336331  1
  Fe  Fe10  1  0.50398926  0.17079147  0.17008859  1
  Fe  Fe11  1  0.33700316  0.00429738  0.33693688  1
  Ni  Ni12  1  0.33798470  0.33730887  1.00318585  1
  Ni  Ni13  1  0.50334966  0.50441446  0.17041167  1
  Ni  Ni14  1  0.33768547  0.33829168  0.33779054  1
  Ni  Ni15  1  0.33656697  0.67029219  1.00338535  1
  Ni  Ni16  1  0.50335730  0.83652213  0.16976447  1
  Ni  Ni17  1  0.33629985  0.66953373  0.33693636  1
  Ni  Ni18  1  0.67004005  0.00436972  1.00326759  1
  Fe  Fe19  1  0.83574550  0.17037416  0.17093673  1
  Ni  Ni20  1  0.67101093  0.00490357  0.33728532  1
  Ni  Ni21  1  0.66972674  0.33603418  1.00316470  1
  Fe  Fe22  1  0.83621090  0.50423359  0.17030588  1
  Ni  Ni23  1  0.66992678  0.33543924  0.33787281  1
  Ni  Ni24  1  0.67049504  0.67091587  1.00329278  1
  Fe  Fe25  1  0.83634377  0.83670904  0.17050513  1
  Fe  Fe26  1  0.67068555  0.67019458  0.33672378  1
  Ni  Ni27  1  0.17035995  0.17172968  0.50358222  1
  Ni  Ni28  1  1.00208788  0.00389396  0.67056655  1
  Fe  Fe29  1  0.16997537  0.16954155  0.83677958  1
  Ni  Ni30  1  0.16930201  0.50294837  0.50295138  1
  Ni  Ni31  1  1.00352292  0.33703794  0.67021816  1
  Fe  Fe32  1  0.17001108  0.50469759  0.83657715  1
  Fe  Fe33  1  0.16954963  0.83700638  0.50423739  1
  Ni  Ni34  1  0.00494679  0.67038602  0.67004613  1
  Ni  Ni35  1  0.17095674  0.83656863  0.83744647  1
  Ni  Ni36  1  0.50319324  0.16949854  0.50242477  1
  Fe  Fe37  1  0.33661706  1.00333942  0.67103675  1
  Ni  Ni38  1  0.50376095  0.16981036  0.83839584  1
  Fe  Fe39  1  0.50360577  0.50324911  0.50274655  1
  Fe  Fe40  1  0.33608573  0.33657118  0.66993978  1
  Fe  Fe41  1  0.50439200  0.50432021  0.83841908  1
  Ni  Ni42  1  0.50394468  0.83776576  0.50328010  1
  Ni  Ni43  1  0.33639924  0.67009028  0.67099718  1
  Ni  Ni44  1  0.50296964  0.83769769  0.83827068  1
  Ni  Ni45  1  0.83775887  0.17091388  0.50338645  1
  Ni  Ni46  1  0.67104671  0.00454278  0.67076845  1
  Ni  Ni47  1  0.83691223  0.17123189  0.83739801  1
  Ni  Ni48  1  0.83889369  0.50370323  0.50274748  1
  Fe  Fe49  1  0.67183078  0.33677145  0.67057000  1
  Ni  Ni50  1  0.83805071  0.50349745  0.83797597  1
  Ni  Ni51  1  0.83665696  0.83670134  0.50348044  1
  Fe  Fe52  1  0.67180233  0.67130973  0.67090593  1
  Ni  Ni53  1  0.83739384  0.83659232  0.83796388  1
" 