8468,Ni39Fe24Cr35_7,-226.166101658608, 180.143257257638,Ni39Fe24Cr35,"# generated using pymatgen
 data_Cr20Fe13Ni21
_symmetry_space_group_name_H-M   'P 1'
_cell_length_a   7.47896707
_cell_length_b   7.47896707
_cell_length_c   10.57685666
_cell_angle_alpha   90.00000000
_cell_angle_beta   90.00000000
_cell_angle_gamma   90.00000000
_symmetry_Int_Tables_number   1
_chemical_formula_structural   Cr20Fe13Ni21
_chemical_formula_sum   'Cr20 Fe13 Ni21'
_cell_volume   591.61593223
_cell_formula_units_Z   1
loop_
 _symmetry_equiv_pos_site_id
 _symmetry_equiv_pos_as_xyz
  1  'x, y, z'
loop_
 _atom_site_type_symbol
 _atom_site_label
 _atom_site_symmetry_multiplicity
 _atom_site_fract_x
 _atom_site_fract_y
 _atom_site_fract_z
 _atom_site_occupancy
  Ni  Ni0  1  -0.00025927  -0.00009408  -0.00072676  1
  Fe  Fe1  1  0.16392102  0.16681497  0.16475199  1
  Fe  Fe2  1  0.99860393  0.00026097  0.33086189  1
  Ni  Ni3  1  0.00010531  0.33076850  0.00130777  1
  Ni  Ni4  1  0.16653401  0.49867794  0.16518515  1
  Ni  Ni5  1  0.99738620  0.33278145  0.33281170  1
  Cr  Cr6  1  0.00140000  0.66662822  0.99859114  1
  Ni  Ni7  1  0.16758302  0.83324482  0.16532952  1
  Ni  Ni8  1  0.99856985  0.66420697  0.33220883  1
  Fe  Fe9  1  0.33189334  -0.00075122  -0.00022198  1
  Fe  Fe10  1  0.49891652  0.16514885  0.16435442  1
  Fe  Fe11  1  0.33248631  0.99794139  0.33092164  1
  Ni  Ni12  1  0.33250510  0.33177363  0.00043790  1
  Ni  Ni13  1  0.49751819  0.49957779  0.16526604  1
  Cr  Cr14  1  0.33132824  0.33327320  0.33195567  1
  Ni  Ni15  1  0.33115781  0.66648993  0.00145678  1
  Fe  Fe16  1  0.49834222  0.83216074  0.16560649  1
  Cr  Cr17  1  0.33218942  0.66657504  0.33178419  1
  Ni  Ni18  1  0.66544444  0.00125473  0.99917194  1
  Ni  Ni19  1  0.83348778  0.16576737  0.16631553  1
  Fe  Fe20  1  0.66651907  0.99871554  0.33180859  1
  Cr  Cr21  1  0.66577545  0.33090032  0.00081370  1
  Ni  Ni22  1  0.83355753  0.49716464  0.16729758  1
  Cr  Cr23  1  0.66872284  0.33326767  0.33127286  1
  Cr  Cr24  1  0.66554254  0.66575048  0.99910706  1
  Cr  Cr25  1  0.83256762  0.83381867  0.16748499  1
  Ni  Ni26  1  0.66624870  0.66619138  0.33381822  1
  Cr  Cr27  1  0.16394158  0.16873849  0.49880306  1
  Cr  Cr28  1  0.99877698  0.99758651  0.66722435  1
  Cr  Cr29  1  0.16734367  0.16655444  0.83375357  1
  Ni  Ni30  1  0.16466336  0.49925849  0.50101432  1
  Fe  Fe31  1  -0.00068145  0.33589608  0.66366997  1
  Cr  Cr32  1  0.16626079  0.49971499  0.83169493  1
  Cr  Cr33  1  0.16603231  0.82994959  0.49880563  1
  Ni  Ni34  1  0.00010100  0.66390345  0.66685393  1
  Ni  Ni35  1  0.16439264  0.83143953  0.83309730  1
  Cr  Cr36  1  0.49973367  0.16530196  0.49952584  1
  Cr  Cr37  1  0.33266563  0.99796671  0.66703231  1
  Ni  Ni38  1  0.49846275  0.16578191  0.83446040  1
  Fe  Fe39  1  0.49951967  0.50170025  0.50007391  1
  Fe  Fe40  1  0.33164828  0.33494924  0.66564731  1
  Cr  Cr41  1  0.49747549  0.49820816  0.83165531  1
  Fe  Fe42  1  0.50013964  0.83000210  0.49874398  1
  Ni  Ni43  1  0.33099679  0.66445295  0.66394879  1
  Cr  Cr44  1  0.49953915  0.83293099  0.83339121  1
  Ni  Ni45  1  0.83295662  0.16748905  0.49753040  1
  Cr  Cr46  1  0.66616594  -0.00014678  0.66635401  1
  Cr  Cr47  1  0.83228405  0.16449217  0.83393581  1
  Ni  Ni48  1  0.83399126  0.49945415  0.49938740  1
  Cr  Cr49  1  0.66648799  0.33304027  0.66552157  1
  Fe  Fe50  1  0.83421860  0.50097076  0.83126926  1
  Cr  Cr51  1  0.83093891  0.83124174  0.49737284  1
  Fe  Fe52  1  0.66704372  0.66555575  0.66494816  1
  Ni  Ni53  1  0.83382302  0.83222640  0.83228081  1
" 