8942,Ni39Fe24Cr35_12,-226.020764444188, 181.481718213611,Ni39Fe24Cr35,"# generated using pymatgen
 data_Cr20Fe13Ni21
_symmetry_space_group_name_H-M   'P 1'
_cell_length_a   7.47412193
_cell_length_b   7.47412193
_cell_length_c   10.57000461
_cell_angle_alpha   90.00000000
_cell_angle_beta   90.00000000
_cell_angle_gamma   90.00000000
_symmetry_Int_Tables_number   1
_chemical_formula_structural   Cr20Fe13Ni21
_chemical_formula_sum   'Cr20 Fe13 Ni21'
_cell_volume   590.46686861
_cell_formula_units_Z   1
loop_
 _symmetry_equiv_pos_site_id
 _symmetry_equiv_pos_as_xyz
  1  'x, y, z'
loop_
 _atom_site_type_symbol
 _atom_site_label
 _atom_site_symmetry_multiplicity
 _atom_site_fract_x
 _atom_site_fract_y
 _atom_site_fract_z
 _atom_site_occupancy
  Ni  Ni0  1  0.00107851  0.00100342  0.99875414  1
  Ni  Ni1  1  0.16572834  0.16320054  0.16642403  1
  Ni  Ni2  1  0.99784211  -0.00019928  0.33470175  1
  Cr  Cr3  1  0.99685358  0.33223008  0.99882751  1
  Cr  Cr4  1  0.16492106  0.49927222  0.16973686  1
  Cr  Cr5  1  0.99808222  0.32996627  0.33055494  1
  Cr  Cr6  1  0.99869314  0.66510798  0.99812749  1
  Cr  Cr7  1  0.16436186  0.83505062  0.16675142  1
  Fe  Fe8  1  0.99549853  0.66986648  0.33334281  1
  Ni  Ni9  1  0.33140385  -0.00021678  0.00026546  1
  Ni  Ni10  1  0.50050877  0.16473811  0.16668867  1
  Cr  Cr11  1  0.33393282  0.00093308  0.33278963  1
  Cr  Cr12  1  0.33228037  0.33014410  0.00049674  1
  Cr  Cr13  1  0.50050849  0.49956327  0.16693633  1
  Fe  Fe14  1  0.33460839  0.32981329  0.33273297  1
  Cr  Cr15  1  0.33234372  0.66909589  0.99737427  1
  Fe  Fe16  1  0.50131316  0.83426403  0.16725976  1
  Fe  Fe17  1  0.33440748  0.66788342  0.33448633  1
  Cr  Cr18  1  0.66579302  0.00154193  0.00340253  1
  Ni  Ni19  1  0.83280551  0.16456813  0.16545457  1
  Ni  Ni20  1  0.66788081  0.99857097  0.33251857  1
  Ni  Ni21  1  0.66865227  0.33342469  0.00005604  1
  Ni  Ni22  1  0.83035220  0.50071665  0.16584115  1
  Cr  Cr23  1  0.66679808  0.32994284  0.33283653  1
  Fe  Fe24  1  0.66827234  0.66524679  0.00088851  1
  Fe  Fe25  1  0.83266172  0.83458126  0.16848282  1
  Ni  Ni26  1  0.66634233  0.66775244  0.33167814  1
  Fe  Fe27  1  0.16222277  0.16433858  0.50043648  1
  Ni  Ni28  1  0.99831403  0.00204839  0.66492663  1
  Ni  Ni29  1  0.16422052  0.16457412  0.83263097  1
  Cr  Cr30  1  0.16813307  0.49874708  0.49683666  1
  Ni  Ni31  1  0.99845610  0.33143970  0.66869146  1
  Ni  Ni32  1  0.16542791  0.49797185  0.83052173  1
  Ni  Ni33  1  0.16452466  0.83350665  0.49956050  1
  Cr  Cr34  1  0.00188541  0.66695700  0.66676678  1
  Ni  Ni35  1  0.16541412  0.83562612  0.83221058  1
  Fe  Fe36  1  0.50112866  0.16648396  0.49998562  1
  Cr  Cr37  1  0.33121319  0.99737391  0.66705098  1
  Cr  Cr38  1  0.50103020  0.16590434  0.83280313  1
  Fe  Fe39  1  0.50027209  0.49982152  0.50007760  1
  Fe  Fe40  1  0.32980518  0.33183565  0.66601691  1
  Cr  Cr41  1  0.50183576  0.49892745  0.83035750  1
  Cr  Cr42  1  0.50184350  0.83243283  0.50014920  1
  Ni  Ni43  1  0.33298174  0.66439687  0.66602944  1
  Cr  Cr44  1  0.50023055  0.83359467  0.83375798  1
  Ni  Ni45  1  0.83221419  0.16344687  0.50186218  1
  Ni  Ni46  1  0.66809162  0.00182252  0.66315431  1
  Fe  Fe47  1  0.83443920  0.16653730  0.83142033  1
  Cr  Cr48  1  0.83254203  0.49976220  0.49989152  1
  Fe  Fe49  1  0.66836946  0.33132865  0.66580011  1
  Ni  Ni50  1  0.83173070  0.49744808  0.83257180  1
  Ni  Ni51  1  0.83344300  0.83683372  0.49743940  1
  Fe  Fe52  1  0.66779450  0.66758332  0.66483641  1
  Cr  Cr53  1  0.83295540  0.83563847  0.83124808  1
" 