7104,Ni39Fe24Cr35_5,-226.344435248802, 184.434022118322,Ni39Fe24Cr35,"# generated using pymatgen
 data_Cr20Fe13Ni21
_symmetry_space_group_name_H-M   'P 1'
_cell_length_a   7.47862408
_cell_length_b   7.47862408
_cell_length_c   10.57637160
_cell_angle_alpha   90.00000000
_cell_angle_beta   90.00000000
_cell_angle_gamma   90.00000000
_symmetry_Int_Tables_number   1
_chemical_formula_structural   Cr20Fe13Ni21
_chemical_formula_sum   'Cr20 Fe13 Ni21'
_cell_volume   591.53453988
_cell_formula_units_Z   1
loop_
 _symmetry_equiv_pos_site_id
 _symmetry_equiv_pos_as_xyz
  1  'x, y, z'
loop_
 _atom_site_type_symbol
 _atom_site_label
 _atom_site_symmetry_multiplicity
 _atom_site_fract_x
 _atom_site_fract_y
 _atom_site_fract_z
 _atom_site_occupancy
  Ni  Ni0  1  0.00006215  0.00284703  0.00083409  1
  Ni  Ni1  1  0.16448189  0.16516796  0.16496966  1
  Ni  Ni2  1  0.00108629  0.00062500  0.33128676  1
  Ni  Ni3  1  0.99860334  0.33079973  0.00033037  1
  Ni  Ni4  1  0.16538331  0.49865991  0.16835824  1
  Cr  Cr5  1  0.99831451  0.33281672  0.33111881  1
  Fe  Fe6  1  -0.00063956  0.66334274  0.00238252  1
  Ni  Ni7  1  0.16528651  0.83424476  0.16719634  1
  Ni  Ni8  1  0.00087894  0.66415848  0.33122214  1
  Fe  Fe9  1  0.33057337  0.00048752  0.00057220  1
  Fe  Fe10  1  0.49927959  0.16654580  0.16445890  1
  Fe  Fe11  1  0.33033759  -0.00020493  0.33050567  1
  Cr  Cr12  1  0.32965455  0.33358028  0.00142052  1
  Ni  Ni13  1  0.49985235  0.49890662  0.16662676  1
  Fe  Fe14  1  0.33128748  0.33364117  0.32988934  1
  Cr  Cr15  1  0.33259797  0.66453506  0.99847279  1
  Cr  Cr16  1  0.49959268  0.83135816  0.16659957  1
  Ni  Ni17  1  0.33014783  0.66393087  0.33130149  1
  Ni  Ni18  1  0.66838507  -0.00011456  -0.00014550  1
  Ni  Ni19  1  0.83407652  0.16610488  0.16388258  1
  Cr  Cr20  1  0.66760030  0.00305629  0.33552471  1
  Fe  Fe21  1  0.66749434  0.33393057  0.00095052  1
  Ni  Ni22  1  0.83236419  0.49790624  0.16298058  1
  Cr  Cr23  1  0.66731864  0.33354693  0.32991902  1
  Ni  Ni24  1  0.66644532  0.66281505  -0.00077015  1
  Cr  Cr25  1  0.83408338  0.83215706  0.16632582  1
  Ni  Ni26  1  0.66649607  0.66360423  0.33169037  1
  Cr  Cr27  1  0.16664014  0.16943190  0.49937325  1
  Fe  Fe28  1  0.99858323  0.00137900  0.66539829  1
  Ni  Ni29  1  0.16390373  0.16724813  0.83302070  1
  Ni  Ni30  1  0.16495008  0.49813662  0.49929440  1
  Fe  Fe31  1  0.99900703  0.33425024  0.66495064  1
  Cr  Cr32  1  0.16521142  0.49543424  0.82889319  1
  Cr  Cr33  1  0.16536799  0.82983546  0.49686636  1
  Fe  Fe34  1  -0.00009153  0.66217851  0.66383504  1
  Cr  Cr35  1  0.16243147  0.83333578  0.83385301  1
  Fe  Fe36  1  0.49970252  0.16864251  0.50140329  1
  Cr  Cr37  1  0.33140810  0.99882521  0.66886030  1
  Cr  Cr38  1  0.49900131  0.16998398  0.83447469  1
  Cr  Cr39  1  0.49617858  0.49786853  0.49771822  1
  Ni  Ni40  1  0.33290107  0.33348631  0.66556567  1
  Ni  Ni41  1  0.50109888  0.49771891  0.83124393  1
  Cr  Cr42  1  0.49830297  0.83177001  0.49789228  1
  Ni  Ni43  1  0.33071673  0.66267527  0.66617942  1
  Cr  Cr44  1  0.50088487  0.83125257  0.83389185  1
  Fe  Fe45  1  0.83347260  0.16898605  0.50096791  1
  Fe  Fe46  1  0.66572737  0.00222346  0.66493335  1
  Cr  Cr47  1  0.83463230  0.16741667  0.83244214  1
  Ni  Ni48  1  0.83341516  0.49831260  0.49983842  1
  Ni  Ni49  1  0.66782170  0.33292598  0.66595284  1
  Fe  Fe50  1  0.83187598  0.49750590  0.83450843  1
  Cr  Cr51  1  0.83416257  0.83241912  0.49752425  1
  Cr  Cr52  1  0.66615430  0.66418508  0.66664392  1
  Cr  Cr53  1  0.83370039  0.83232796  0.83477568  1
" 