2835,Ni39Fe44Cr16_2,-232.831174739963, 201.736950075989,Ni39Fe44Cr16,"# generated using pymatgen
 data_Cr10Fe23Ni21
_symmetry_space_group_name_H-M   'P 1'
_cell_length_a   7.43438586
_cell_length_b   7.43438586
_cell_length_c   10.51380932
_cell_angle_alpha   90.00000000
_cell_angle_beta   90.00000000
_cell_angle_gamma   90.00000000
_symmetry_Int_Tables_number   1
_chemical_formula_structural   Cr10Fe23Ni21
_chemical_formula_sum   'Cr10 Fe23 Ni21'
_cell_volume   581.09922071
_cell_formula_units_Z   1
loop_
 _symmetry_equiv_pos_site_id
 _symmetry_equiv_pos_as_xyz
  1  'x, y, z'
loop_
 _atom_site_type_symbol
 _atom_site_label
 _atom_site_symmetry_multiplicity
 _atom_site_fract_x
 _atom_site_fract_y
 _atom_site_fract_z
 _atom_site_occupancy
  Fe  Fe0  1  1.00162240  0.00287226  1.00212479  1
  Ni  Ni1  1  0.16982315  0.16734060  0.16880640  1
  Fe  Fe2  1  0.99932340  0.00262503  0.33416542  1
  Fe  Fe3  1  0.00284724  0.33181409  1.00141416  1
  Cr  Cr4  1  0.16916541  0.50062538  0.16933043  1
  Fe  Fe5  1  0.00241395  0.33490606  0.33525875  1
  Cr  Cr6  1  0.00363493  0.67207611  0.99973814  1
  Fe  Fe7  1  0.16795325  0.83784811  0.16920566  1
  Ni  Ni8  1  1.00216424  0.67202275  0.33608394  1
  Fe  Fe9  1  0.33614958  1.00083076  1.00128907  1
  Fe  Fe10  1  0.50176625  0.16759887  0.16868834  1
  Fe  Fe11  1  0.33732386  0.00338527  0.33383036  1
  Fe  Fe12  1  0.33746101  0.33502232  1.00212821  1
  Fe  Fe13  1  0.50192904  0.50245598  0.16756464  1
  Ni  Ni14  1  0.33626640  0.33478525  0.33640714  1
  Ni  Ni15  1  0.33684668  0.66868771  0.00271728  1
  Fe  Fe16  1  0.50278586  0.83640251  0.16760568  1
  Fe  Fe17  1  0.33769282  0.66691727  0.33385464  1
  Ni  Ni18  1  0.66908547  0.00340590  1.00189513  1
  Ni  Ni19  1  0.83692517  0.16720527  0.16815268  1
  Fe  Fe20  1  0.67012534  1.00168087  0.33529314  1
  Fe  Fe21  1  0.66633950  0.33419399  1.00163355  1
  Cr  Cr22  1  0.83380791  0.50228636  0.16713106  1
  Cr  Cr23  1  0.66602790  0.33330337  0.33531996  1
  Ni  Ni24  1  0.66596055  0.67137157  0.00241713  1
  Ni  Ni25  1  0.83315951  0.83656109  0.16931114  1
  Ni  Ni26  1  0.66907082  0.67045474  0.33417818  1
  Cr  Cr27  1  0.16978057  0.16917745  0.50150712  1
  Cr  Cr28  1  1.00049283  1.00176038  0.67076654  1
  Ni  Ni29  1  0.16941905  0.16865192  0.83691706  1
  Fe  Fe30  1  0.17001282  0.50218827  0.50146977  1
  Ni  Ni31  1  0.00293851  0.33627642  0.66892412  1
  Fe  Fe32  1  0.17142885  0.50108220  0.83507211  1
  Cr  Cr33  1  0.17036232  0.83537161  0.50072555  1
  Fe  Fe34  1  0.00280626  0.66920409  0.66968929  1
  Ni  Ni35  1  0.17299553  0.83667079  0.83629612  1
  Ni  Ni36  1  0.50199974  0.16832151  0.50377600  1
  Ni  Ni37  1  0.33719390  0.00243995  0.67137446  1
  Fe  Fe38  1  0.50299958  0.16805792  0.83468401  1
  Fe  Fe39  1  0.50108291  0.50129964  0.50328280  1
  Fe  Fe40  1  0.33675716  0.33457679  0.66967026  1
  Ni  Ni41  1  0.50209618  0.50361268  0.83618061  1
  Cr  Cr42  1  0.50271719  0.83642558  0.50256642  1
  Fe  Fe43  1  0.33583784  0.66801564  0.67171681  1
  Ni  Ni44  1  0.50161555  0.83500898  0.83585705  1
  Ni  Ni45  1  0.83422274  0.16863386  0.50163670  1
  Ni  Ni46  1  0.66813354  0.00398771  0.66852834  1
  Ni  Ni47  1  0.83568207  0.16983429  0.83618838  1
  Cr  Cr48  1  0.83567781  0.50233093  0.50233141  1
  Ni  Ni49  1  0.66757664  0.33350277  0.66904969  1
  Cr  Cr50  1  0.83300815  0.50053596  0.83641377  1
  Ni  Ni51  1  0.83383461  0.83521448  0.50213128  1
  Fe  Fe52  1  0.66814703  0.66994689  0.67013548  1
  Fe  Fe53  1  0.83212898  0.83781186  0.83618384  1
" 