7518,Ni39Fe24Cr35_16,-225.980821539078, 176.866895167661,Ni39Fe24Cr35,"# generated using pymatgen
 data_Cr20Fe13Ni21
_symmetry_space_group_name_H-M   'P 1'
_cell_length_a   7.48359546
_cell_length_b   7.48359546
_cell_length_c   10.58340219
_cell_angle_alpha   90.00000000
_cell_angle_beta   90.00000000
_cell_angle_gamma   90.00000000
_symmetry_Int_Tables_number   1
_chemical_formula_structural   Cr20Fe13Ni21
_chemical_formula_sum   'Cr20 Fe13 Ni21'
_cell_volume   592.71498326
_cell_formula_units_Z   1
loop_
 _symmetry_equiv_pos_site_id
 _symmetry_equiv_pos_as_xyz
  1  'x, y, z'
loop_
 _atom_site_type_symbol
 _atom_site_label
 _atom_site_symmetry_multiplicity
 _atom_site_fract_x
 _atom_site_fract_y
 _atom_site_fract_z
 _atom_site_occupancy
  Fe  Fe0  1  0.99767018  -0.00039280  0.99588959  1
  Cr  Cr1  1  0.16533778  0.16261631  0.16524075  1
  Fe  Fe2  1  -0.00010305  0.00116442  0.33407281  1
  Cr  Cr3  1  0.99492338  0.33206791  0.00027891  1
  Cr  Cr4  1  0.17045212  0.50007606  0.16321270  1
  Cr  Cr5  1  0.99781783  0.33150103  0.33264528  1
  Ni  Ni6  1  0.99791535  0.66733868  0.99382108  1
  Cr  Cr7  1  0.16457091  0.83304794  0.16433133  1
  Cr  Cr8  1  0.00053329  0.66284017  0.33572046  1
  Ni  Ni9  1  0.33583901  0.99494820  0.99624724  1
  Cr  Cr10  1  0.49956443  0.16641008  0.16490646  1
  Ni  Ni11  1  0.33332703  0.99647170  0.33489291  1
  Fe  Fe12  1  0.33455115  0.33114914  -0.00042184  1
  Ni  Ni13  1  0.49860810  0.49940073  0.16482015  1
  Ni  Ni14  1  0.33318286  0.32957958  0.33170363  1
  Fe  Fe15  1  0.33486078  0.66766978  0.99792860  1
  Ni  Ni16  1  0.49780242  0.83207925  0.16622006  1
  Fe  Fe17  1  0.33285577  0.66395307  0.33296337  1
  Fe  Fe18  1  0.66580244  -0.00032492  0.99682983  1
  Ni  Ni19  1  0.82918578  0.16333557  0.16713142  1
  Fe  Fe20  1  0.66417241  0.00179697  0.33240893  1
  Ni  Ni21  1  0.66561378  0.33128271  0.99795264  1
  Cr  Cr22  1  0.82891724  0.49988336  0.16393158  1
  Ni  Ni23  1  0.66569563  0.33144515  0.33252087  1
  Fe  Fe24  1  0.66375363  0.66614728  0.99750601  1
  Cr  Cr25  1  0.83193660  0.83658346  0.16317726  1
  Cr  Cr26  1  0.66322928  0.66529766  0.33163320  1
  Ni  Ni27  1  0.16676080  0.16570082  0.49858527  1
  Cr  Cr28  1  0.00064022  0.00044240  0.66668722  1
  Cr  Cr29  1  0.16850923  0.16593850  0.83250604  1
  Ni  Ni30  1  0.16624506  0.49701163  0.50029773  1
  Ni  Ni31  1  0.99660543  0.33311794  0.66330742  1
  Cr  Cr32  1  0.16491783  0.49960352  0.83168693  1
  Fe  Fe33  1  0.16590433  0.83411857  0.49961306  1
  Ni  Ni34  1  -0.00089112  0.66260123  0.66661854  1
  Ni  Ni35  1  0.16563121  0.83305349  0.83268317  1
  Cr  Cr36  1  0.49899384  0.16581470  0.50133566  1
  Ni  Ni37  1  0.33279610  0.00008650  0.66660597  1
  Fe  Fe38  1  0.50030742  0.16365933  0.83388826  1
  Cr  Cr39  1  0.49922701  0.49677823  0.49849327  1
  Fe  Fe40  1  0.32841142  0.33136997  0.66386125  1
  Cr  Cr41  1  0.49901679  0.49525692  0.83204524  1
  Fe  Fe42  1  0.49688716  0.83401061  0.49788188  1
  Cr  Cr43  1  0.33127600  0.67164097  0.66369278  1
  Ni  Ni44  1  0.49840793  0.83314148  0.83376327  1
  Ni  Ni45  1  0.83298678  0.16675827  0.49734834  1
  Cr  Cr46  1  0.66205327  -0.00108708  0.66875373  1
  Ni  Ni47  1  0.83084721  0.16611938  0.83242851  1
  Ni  Ni48  1  0.83327056  0.49706508  0.50251634  1
  Fe  Fe49  1  0.66993518  0.33062899  0.66637327  1
  Ni  Ni50  1  0.83150613  0.49855878  0.83078641  1
  Cr  Cr51  1  0.83190760  0.83374066  0.49861418  1
  Cr  Cr52  1  0.66737666  0.66603625  0.66757121  1
  Ni  Ni53  1  0.83275099  0.83176153  0.83478699  1
" 