4288,Ni39Fe44Cr16_4,-232.764786184734, 203.123107600805,Ni39Fe44Cr16,"# generated using pymatgen
 data_Cr10Fe23Ni21
_symmetry_space_group_name_H-M   'P 1'
_cell_length_a   7.43559986
_cell_length_b   7.43559986
_cell_length_c   10.51552617
_cell_angle_alpha   90.00000000
_cell_angle_beta   90.00000000
_cell_angle_gamma   90.00000000
_symmetry_Int_Tables_number   1
_chemical_formula_structural   Cr10Fe23Ni21
_chemical_formula_sum   'Cr10 Fe23 Ni21'
_cell_volume   581.38393943
_cell_formula_units_Z   1
loop_
 _symmetry_equiv_pos_site_id
 _symmetry_equiv_pos_as_xyz
  1  'x, y, z'
loop_
 _atom_site_type_symbol
 _atom_site_label
 _atom_site_symmetry_multiplicity
 _atom_site_fract_x
 _atom_site_fract_y
 _atom_site_fract_z
 _atom_site_occupancy
  Fe  Fe0  1  0.00476122  0.00428689  0.00297475  1
  Ni  Ni1  1  0.16850511  0.16792519  0.16741356  1
  Cr  Cr2  1  0.00338281  0.00374539  0.33573922  1
  Fe  Fe3  1  1.00150029  0.33408743  0.00218262  1
  Cr  Cr4  1  0.16901404  0.50131626  0.17168133  1
  Ni  Ni5  1  1.00092738  0.33483087  0.33519968  1
  Cr  Cr6  1  0.00215447  0.66903573  1.00198026  1
  Ni  Ni7  1  0.16981971  0.83769440  0.16963139  1
  Fe  Fe8  1  0.00289569  0.66661448  0.33681719  1
  Fe  Fe9  1  0.33370545  1.00182962  1.00164637  1
  Cr  Cr10  1  0.50154965  0.17007968  0.16936275  1
  Fe  Fe11  1  0.33587400  1.00098818  0.33673849  1
  Fe  Fe12  1  0.33553309  0.33511566  1.00174345  1
  Ni  Ni13  1  0.50438182  0.50168830  0.16980250  1
  Ni  Ni14  1  0.33570746  0.33647290  0.33658065  1
  Cr  Cr15  1  0.33828382  0.67057471  1.00111632  1
  Fe  Fe16  1  0.50033258  0.83402846  0.16998417  1
  Ni  Ni17  1  0.33801299  0.66966204  0.33556864  1
  Fe  Fe18  1  0.66787384  1.00142470  0.00262959  1
  Fe  Fe19  1  0.83698079  0.17142965  0.16814240  1
  Fe  Fe20  1  0.66660467  0.00237126  0.33768255  1
  Ni  Ni21  1  0.67010819  0.33764052  0.00383101  1
  Fe  Fe22  1  0.83340704  0.49960041  0.16961199  1
  Fe  Fe23  1  0.66926299  0.33706371  0.33622400  1
  Fe  Fe24  1  0.66686280  0.66614726  1.00200679  1
  Cr  Cr25  1  0.83526722  0.83443386  0.16914819  1
  Ni  Ni26  1  0.66631639  0.66764127  0.33445420  1
  Fe  Fe27  1  0.16945884  0.16964343  0.50293751  1
  Ni  Ni28  1  0.00430382  1.00181959  0.66854455  1
  Fe  Fe29  1  0.16911753  0.16865909  0.83501274  1
  Fe  Fe30  1  0.16893464  0.50122242  0.50159601  1
  Ni  Ni31  1  0.00358240  0.33513135  0.66930420  1
  Fe  Fe32  1  0.16909497  0.50096875  0.83366104  1
  Ni  Ni33  1  0.16976534  0.83413565  0.50219004  1
  Fe  Fe34  1  0.00368656  0.66789235  0.66844216  1
  Ni  Ni35  1  0.17018363  0.83649680  0.83452618  1
  Ni  Ni36  1  0.50203382  0.16761586  0.50133178  1
  Ni  Ni37  1  0.33363418  1.00032712  0.66850444  1
  Cr  Cr38  1  0.49996199  0.16866833  0.83547459  1
  Fe  Fe39  1  0.50138440  0.50284684  0.50067868  1
  Ni  Ni40  1  0.33359485  0.33586433  0.66925460  1
  Ni  Ni41  1  0.50203967  0.50307881  0.83553450  1
  Ni  Ni42  1  0.50119927  0.83694554  0.50159846  1
  Fe  Fe43  1  0.33480119  0.66958097  0.66897138  1
  Ni  Ni44  1  0.50038210  0.83433629  0.83568488  1
  Ni  Ni45  1  0.83447913  0.16996975  0.50156745  1
  Fe  Fe46  1  0.66749480  1.00110309  0.66602969  1
  Cr  Cr47  1  0.83703057  0.16985019  0.83653947  1
  Ni  Ni48  1  0.83728596  0.50184594  0.50043870  1
  Cr  Cr49  1  0.66878256  0.33737343  0.66641983  1
  Ni  Ni50  1  0.83562982  0.50208497  0.83683770  1
  Fe  Fe51  1  0.83404784  0.83530828  0.50274859  1
  Fe  Fe52  1  0.66785790  0.66916227  0.66802573  1
  Cr  Cr53  1  0.83539914  0.83453208  0.83244341  1
" 