3070,Ni39Fe50Cr10_12,-234.937713064704, 210.799491795042,Ni39Fe50Cr10,"# generated using pymatgen
 data_Cr2Fe9Ni7
_symmetry_space_group_name_H-M   'P 1'
_cell_length_a   7.41874926
_cell_length_b   7.41874926
_cell_length_c   10.49169582
_cell_angle_alpha   90.00000000
_cell_angle_beta   90.00000000
_cell_angle_gamma   90.00000000
_symmetry_Int_Tables_number   1
_chemical_formula_structural   Cr2Fe9Ni7
_chemical_formula_sum   'Cr6 Fe27 Ni21'
_cell_volume   577.44028254
_cell_formula_units_Z   3
loop_
 _symmetry_equiv_pos_site_id
 _symmetry_equiv_pos_as_xyz
  1  'x, y, z'
loop_
 _atom_site_type_symbol
 _atom_site_label
 _atom_site_symmetry_multiplicity
 _atom_site_fract_x
 _atom_site_fract_y
 _atom_site_fract_z
 _atom_site_occupancy
  Ni  Ni0  1  1.00117014  1.00282945  1.00304923  1
  Fe  Fe1  1  0.16763209  0.17094585  0.17092920  1
  Fe  Fe2  1  1.00324684  1.00272934  0.33672008  1
  Ni  Ni3  1  1.00221876  0.33737811  0.00347847  1
  Fe  Fe4  1  0.16926792  0.50443024  0.17064037  1
  Fe  Fe5  1  0.00436595  0.33773700  0.33542191  1
  Ni  Ni6  1  1.00203983  0.66955989  0.00332342  1
  Fe  Fe7  1  0.16831595  0.83438770  0.16969755  1
  Fe  Fe8  1  0.00501360  0.66928958  0.33685431  1
  Cr  Cr9  1  0.33737133  1.00266808  1.00232281  1
  Fe  Fe10  1  0.50612292  0.17084056  0.17106585  1
  Cr  Cr11  1  0.33660634  0.00388659  0.33713815  1
  Cr  Cr12  1  0.33605637  0.33724897  0.00371693  1
  Fe  Fe13  1  0.50337708  0.50342138  0.17037372  1
  Ni  Ni14  1  0.33643219  0.33732368  0.33676063  1
  Fe  Fe15  1  0.33615587  0.67100779  0.00336601  1
  Ni  Ni16  1  0.50299691  0.83557923  0.16911937  1
  Ni  Ni17  1  0.33537202  0.66824111  0.33616226  1
  Ni  Ni18  1  0.67124937  1.00207134  0.00430003  1
  Fe  Fe19  1  0.83600697  0.16988616  0.16910104  1
  Fe  Fe20  1  0.66952261  0.00399276  0.33574424  1
  Fe  Fe21  1  0.67294213  0.33620864  0.00359378  1
  Ni  Ni22  1  0.83731614  0.50092394  0.16905184  1
  Ni  Ni23  1  0.66888347  0.33650623  0.33606205  1
  Fe  Fe24  1  0.67039270  0.67030044  1.00310896  1
  Fe  Fe25  1  0.83701218  0.83712316  0.16909882  1
  Cr  Cr26  1  0.67072213  0.67049223  0.33711982  1
  Ni  Ni27  1  0.17102186  0.16974378  0.50344448  1
  Ni  Ni28  1  0.00380468  1.00044416  0.67105106  1
  Fe  Fe29  1  0.16932611  0.16895292  0.83548657  1
  Fe  Fe30  1  0.17051934  0.50418512  0.50239094  1
  Cr  Cr31  1  0.00553693  0.33746039  0.67107082  1
  Fe  Fe32  1  0.17012344  0.50504817  0.83673381  1
  Ni  Ni33  1  0.16916498  0.83575768  0.50353912  1
  Ni  Ni34  1  1.00181199  0.67194072  0.66898678  1
  Ni  Ni35  1  0.16986423  0.83600660  0.83612596  1
  Fe  Fe36  1  0.50208631  0.17030827  0.50377953  1
  Fe  Fe37  1  0.33590578  1.00258964  0.66986503  1
  Fe  Fe38  1  0.50490418  0.16939002  0.83491964  1
  Fe  Fe39  1  0.50193819  0.50241059  0.50411958  1
  Ni  Ni40  1  0.33769002  0.33567111  0.66905911  1
  Ni  Ni41  1  0.50388706  0.50435868  0.83671793  1
  Fe  Fe42  1  0.50332554  0.83704464  0.50468803  1
  Fe  Fe43  1  0.33654714  0.67064559  0.67003178  1
  Ni  Ni44  1  0.50264864  0.83471813  0.83567637  1
  Cr  Cr45  1  0.83612321  0.16927380  0.50152950  1
  Ni  Ni46  1  0.66889798  1.00078713  0.66981321  1
  Ni  Ni47  1  0.83647253  0.16986033  0.83841643  1
  Fe  Fe48  1  0.83731458  0.50542592  0.50285362  1
  Fe  Fe49  1  0.66827237  0.33743018  0.67061811  1
  Fe  Fe50  1  0.83588976  0.50480308  0.83784883  1
  Ni  Ni51  1  0.83794978  0.83629018  0.50403347  1
  Ni  Ni52  1  0.67061900  0.67130854  0.66987110  1
  Fe  Fe53  1  0.83632290  0.83691354  0.83578663  1
" 