689,Ni39Fe50Cr10_17,-234.783925263978, 206.372171748234,Ni39Fe50Cr10,"# generated using pymatgen
 data_Cr2Fe9Ni7
_symmetry_space_group_name_H-M   'P 1'
_cell_length_a   7.41547882
_cell_length_b   7.41547882
_cell_length_c   10.48707072
_cell_angle_alpha   90.00000000
_cell_angle_beta   90.00000000
_cell_angle_gamma   90.00000000
_symmetry_Int_Tables_number   1
_chemical_formula_structural   Cr2Fe9Ni7
_chemical_formula_sum   'Cr6 Fe27 Ni21'
_cell_volume   576.67695226
_cell_formula_units_Z   3
loop_
 _symmetry_equiv_pos_site_id
 _symmetry_equiv_pos_as_xyz
  1  'x, y, z'
loop_
 _atom_site_type_symbol
 _atom_site_label
 _atom_site_symmetry_multiplicity
 _atom_site_fract_x
 _atom_site_fract_y
 _atom_site_fract_z
 _atom_site_occupancy
  Cr  Cr0  1  0.00596404  1.00282043  1.00346744  1
  Cr  Cr1  1  0.16924581  0.17309696  0.17213062  1
  Fe  Fe2  1  1.00079765  0.00533112  0.33802526  1
  Fe  Fe3  1  0.00434296  0.33820941  1.00271501  1
  Ni  Ni4  1  0.17163188  0.50522154  0.16841720  1
  Ni  Ni5  1  1.00247995  0.33652575  0.33696052  1
  Ni  Ni6  1  1.00231165  0.66994134  1.00256299  1
  Fe  Fe7  1  0.17236609  0.83594479  0.16975814  1
  Cr  Cr8  1  1.00215346  0.66859535  0.33773921  1
  Ni  Ni9  1  0.33777554  0.00427778  1.00156606  1
  Fe  Fe10  1  0.50347757  0.17080579  0.16944508  1
  Ni  Ni11  1  0.33812517  0.00452317  0.33721588  1
  Ni  Ni12  1  0.33865201  0.33598576  1.00260679  1
  Fe  Fe13  1  0.50268721  0.50096924  0.16885484  1
  Fe  Fe14  1  0.33653022  0.33911107  0.33786321  1
  Fe  Fe15  1  0.33595861  0.66970984  1.00189043  1
  Fe  Fe16  1  0.50138002  0.83876510  0.16877087  1
  Fe  Fe17  1  0.33663673  0.66831395  0.33669121  1
  Fe  Fe18  1  0.66857196  0.00455285  1.00344796  1
  Ni  Ni19  1  0.83307203  0.17053508  0.17044340  1
  Fe  Fe20  1  0.67070184  0.00526523  0.33694234  1
  Ni  Ni21  1  0.66900059  0.33773779  0.00350627  1
  Fe  Fe22  1  0.83837332  0.50016408  0.16709187  1
  Fe  Fe23  1  0.67057724  0.33410715  0.33682161  1
  Fe  Fe24  1  0.66928136  0.67045449  1.00254781  1
  Fe  Fe25  1  0.83686429  0.83727225  0.16988239  1
  Cr  Cr26  1  0.66979513  0.66818979  0.33752721  1
  Fe  Fe27  1  0.16806612  0.17146574  0.50379537  1
  Ni  Ni28  1  0.00377259  0.00408765  0.66986950  1
  Ni  Ni29  1  0.17108641  0.17149630  0.83501461  1
  Ni  Ni30  1  0.17210235  0.50096052  0.50495156  1
  Ni  Ni31  1  0.00366877  0.33450066  0.67112688  1
  Ni  Ni32  1  0.16971044  0.50288453  0.83705327  1
  Cr  Cr33  1  0.17096478  0.83558853  0.50515915  1
  Fe  Fe34  1  0.00531058  0.66711092  0.67189284  1
  Ni  Ni35  1  0.17316308  0.83574346  0.83592681  1
  Fe  Fe36  1  0.50268206  0.17019317  0.50346492  1
  Fe  Fe37  1  0.33759093  0.00540886  0.67211265  1
  Fe  Fe38  1  0.50268179  0.17223721  0.83698648  1
  Fe  Fe39  1  0.50232841  0.50138360  0.50426523  1
  Ni  Ni40  1  0.33673857  0.33678601  0.66955180  1
  Fe  Fe41  1  0.50159092  0.50239920  0.83683163  1
  Fe  Fe42  1  0.50332923  0.83912613  0.50417593  1
  Ni  Ni43  1  0.33807864  0.66933554  0.67076779  1
  Ni  Ni44  1  0.50357207  0.83861752  0.83673962  1
  Ni  Ni45  1  0.83486094  0.17058181  0.50331270  1
  Fe  Fe46  1  0.66982296  0.00665204  0.67025387  1
  Fe  Fe47  1  0.83685789  0.17121052  0.83576727  1
  Fe  Fe48  1  0.83975950  0.50018993  0.50568884  1
  Ni  Ni49  1  0.66964059  0.33645233  0.66925079  1
  Ni  Ni50  1  0.83690960  0.50095975  0.83773102  1
  Ni  Ni51  1  0.83487030  0.84088158  0.50525750  1
  Cr  Cr52  1  0.67048417  0.66913342  0.67018780  1
  Fe  Fe53  1  0.83936560  0.83594963  0.83573619  1
" 