8625,Ni39Fe44Cr16_8,-232.798595221747, 199.880042563867,Ni39Fe44Cr16,"# generated using pymatgen
 data_Cr10Fe23Ni21
_symmetry_space_group_name_H-M   'P 1'
_cell_length_a   7.43446393
_cell_length_b   7.43446393
_cell_length_c   10.51391971
_cell_angle_alpha   90.00000000
_cell_angle_beta   90.00000000
_cell_angle_gamma   90.00000000
_symmetry_Int_Tables_number   1
_chemical_formula_structural   Cr10Fe23Ni21
_chemical_formula_sum   'Cr10 Fe23 Ni21'
_cell_volume   581.11752554
_cell_formula_units_Z   1
loop_
 _symmetry_equiv_pos_site_id
 _symmetry_equiv_pos_as_xyz
  1  'x, y, z'
loop_
 _atom_site_type_symbol
 _atom_site_label
 _atom_site_symmetry_multiplicity
 _atom_site_fract_x
 _atom_site_fract_y
 _atom_site_fract_z
 _atom_site_occupancy
  Fe  Fe0  1  0.00438454  1.00124480  0.00267008  1
  Ni  Ni1  1  0.16758480  0.16930524  0.16761052  1
  Fe  Fe2  1  0.00588306  0.00307425  0.33496415  1
  Fe  Fe3  1  0.00354445  0.33694831  0.00321705  1
  Ni  Ni4  1  0.16735599  0.50279814  0.16841548  1
  Fe  Fe5  1  0.00447136  0.33598513  0.33447719  1
  Ni  Ni6  1  0.00488326  0.66852675  1.00115545  1
  Ni  Ni7  1  0.17139000  0.83468088  0.16921301  1
  Ni  Ni8  1  0.00296508  0.66900792  0.33706411  1
  Ni  Ni9  1  0.33408801  1.00103024  0.00296384  1
  Fe  Fe10  1  0.49914042  0.16646027  0.16903516  1
  Ni  Ni11  1  0.33428967  0.00273683  0.33561082  1
  Ni  Ni12  1  0.33433371  0.33647223  0.00341647  1
  Fe  Fe13  1  0.49987294  0.50430768  0.16816757  1
  Cr  Cr14  1  0.33474868  0.33376607  0.33566911  1
  Ni  Ni15  1  0.33233739  0.66903732  0.00301081  1
  Ni  Ni16  1  0.49937411  0.83472367  0.17009497  1
  Fe  Fe17  1  0.33355938  0.66933193  0.33450828  1
  Cr  Cr18  1  0.66879981  0.00278927  0.00328116  1
  Ni  Ni19  1  0.83863701  0.17057442  0.16954398  1
  Fe  Fe20  1  0.66743440  1.00192842  0.33516422  1
  Cr  Cr21  1  0.66901100  0.33532144  0.00318194  1
  Ni  Ni22  1  0.83866280  0.50146401  0.16968466  1
  Cr  Cr23  1  0.66814097  0.33482869  0.33355786  1
  Cr  Cr24  1  0.66982406  0.66842130  1.00014092  1
  Cr  Cr25  1  0.83622027  0.83473996  0.17067121  1
  Fe  Fe26  1  0.66822589  0.66829210  0.33483196  1
  Ni  Ni27  1  0.16909231  0.16961169  0.50385380  1
  Fe  Fe28  1  0.00291089  0.99948961  0.66929182  1
  Cr  Cr29  1  0.16752945  0.17012597  0.83597573  1
  Fe  Fe30  1  0.16832949  0.50269714  0.50322096  1
  Fe  Fe31  1  0.00252262  0.33769836  0.66903252  1
  Ni  Ni32  1  0.16830556  0.50375487  0.83589395  1
  Fe  Fe33  1  0.16763948  0.83658385  0.50214453  1
  Ni  Ni34  1  0.00291281  0.66895148  0.66860704  1
  Ni  Ni35  1  0.17077028  0.83287092  0.83574167  1
  Ni  Ni36  1  0.50127341  0.16780312  0.50418370  1
  Fe  Fe37  1  0.33396363  0.99926760  0.66811582  1
  Cr  Cr38  1  0.50135655  0.16733569  0.83332860  1
  Fe  Fe39  1  0.50166081  0.50060082  0.50413573  1
  Fe  Fe40  1  0.33452131  0.33745503  0.66755918  1
  Fe  Fe41  1  0.49825440  0.50293361  0.83456066  1
  Cr  Cr42  1  0.50242009  0.83439909  0.50147935  1
  Ni  Ni43  1  0.33282687  0.66770892  0.66905926  1
  Ni  Ni44  1  0.50066747  0.83330595  0.83442477  1
  Cr  Cr45  1  0.83703442  0.16897886  0.50184471  1
  Ni  Ni46  1  0.67009240  0.00318384  0.66908034  1
  Ni  Ni47  1  0.83657805  0.17020530  0.83428722  1
  Fe  Fe48  1  0.83630608  0.50420895  0.50192648  1
  Fe  Fe49  1  0.66931270  0.33790347  0.66864470  1
  Fe  Fe50  1  0.83836354  0.50250184  0.83446001  1
  Fe  Fe51  1  0.83723559  0.83503375  0.50244012  1
  Fe  Fe52  1  0.66917745  0.66944033  0.67005030  1
  Fe  Fe53  1  0.83811453  0.83648794  0.83367034  1
" 