2417,Ni39Fe50Cr10_2,-235.182527935533, 205.364003997061,Ni39Fe50Cr10,"# generated using pymatgen
 data_Cr2Fe9Ni7
_symmetry_space_group_name_H-M   'P 1'
_cell_length_a   7.41896464
_cell_length_b   7.41896464
_cell_length_c   10.49200041
_cell_angle_alpha   90.00000000
_cell_angle_beta   90.00000000
_cell_angle_gamma   90.00000000
_symmetry_Int_Tables_number   1
_chemical_formula_structural   Cr2Fe9Ni7
_chemical_formula_sum   'Cr6 Fe27 Ni21'
_cell_volume   577.49057554
_cell_formula_units_Z   3
loop_
 _symmetry_equiv_pos_site_id
 _symmetry_equiv_pos_as_xyz
  1  'x, y, z'
loop_
 _atom_site_type_symbol
 _atom_site_label
 _atom_site_symmetry_multiplicity
 _atom_site_fract_x
 _atom_site_fract_y
 _atom_site_fract_z
 _atom_site_occupancy
  Fe  Fe0  1  1.00252123  1.00242729  0.00431589  1
  Fe  Fe1  1  0.17041450  0.16943026  0.16934512  1
  Ni  Ni2  1  1.00236475  0.00399291  0.33612902  1
  Ni  Ni3  1  1.00323642  0.33691268  1.00299191  1
  Ni  Ni4  1  0.17269834  0.50486590  0.16867308  1
  Cr  Cr5  1  0.00492687  0.33385378  0.33712673  1
  Fe  Fe6  1  0.00447086  0.67107085  1.00291731  1
  Fe  Fe7  1  0.17044042  0.83650265  0.17008343  1
  Fe  Fe8  1  0.00684281  0.67402087  0.33629118  1
  Ni  Ni9  1  0.33846375  1.00151834  0.00397076  1
  Ni  Ni10  1  0.50323647  0.16955309  0.16939256  1
  Ni  Ni11  1  0.33606099  1.00186042  0.33595794  1
  Fe  Fe12  1  0.33754890  0.33713206  0.00408701  1
  Ni  Ni13  1  0.50016324  0.50195328  0.16985689  1
  Fe  Fe14  1  0.33737281  0.33695357  0.33620957  1
  Ni  Ni15  1  0.33711891  0.66959828  0.00340426  1
  Fe  Fe16  1  0.50269795  0.83751679  0.16913997  1
  Ni  Ni17  1  0.33651586  0.66914346  0.33702187  1
  Ni  Ni18  1  0.66973292  1.00284037  0.00391764  1
  Ni  Ni19  1  0.83468787  0.16637048  0.16920420  1
  Ni  Ni20  1  0.67129549  1.00321082  0.33571728  1
  Fe  Fe21  1  0.66846921  0.33518515  0.00326326  1
  Cr  Cr22  1  0.83685993  0.50440676  0.16867818  1
  Fe  Fe23  1  0.66718007  0.33307993  0.33529075  1
  Fe  Fe24  1  0.66879994  0.67101249  1.00244934  1
  Ni  Ni25  1  0.83760133  0.83911743  0.16942992  1
  Cr  Cr26  1  0.66695794  0.67187721  0.33567797  1
  Ni  Ni27  1  0.16962132  0.16891167  0.50393950  1
  Ni  Ni28  1  1.00133841  0.00465845  0.66862518  1
  Cr  Cr29  1  0.17080789  0.16943417  0.83635754  1
  Ni  Ni30  1  0.17165653  0.50453935  0.50480354  1
  Ni  Ni31  1  0.00453800  0.33573731  0.66957823  1
  Fe  Fe32  1  0.16979367  0.50423142  0.83664021  1
  Fe  Fe33  1  0.16949500  0.83747363  0.50272058  1
  Fe  Fe34  1  0.00361638  0.67039598  0.67051310  1
  Fe  Fe35  1  0.17024843  0.83537117  0.83691557  1
  Cr  Cr36  1  0.50322939  0.16914619  0.50354753  1
  Fe  Fe37  1  0.33635162  1.00252834  0.66987655  1
  Fe  Fe38  1  0.50460902  0.16933911  0.83689612  1
  Fe  Fe39  1  0.50045185  0.50336920  0.50381039  1
  Ni  Ni40  1  0.33454112  0.33925755  0.66950348  1
  Fe  Fe41  1  0.50294365  0.50342918  0.83665943  1
  Fe  Fe42  1  0.50247114  0.83623095  0.50387126  1
  Fe  Fe43  1  0.33643039  0.66956892  0.66970408  1
  Fe  Fe44  1  0.50327036  0.83695264  0.83671205  1
  Ni  Ni45  1  0.83710994  0.16715774  0.50458841  1
  Ni  Ni46  1  0.67166973  1.00119200  0.67008855  1
  Fe  Fe47  1  0.83540287  0.16979453  0.83633172  1
  Cr  Cr48  1  0.83710064  0.50349769  0.50408739  1
  Fe  Fe49  1  0.67053239  0.33601709  0.67117051  1
  Fe  Fe50  1  0.83698019  0.50289641  0.83629222  1
  Fe  Fe51  1  0.83774842  0.83991880  0.50380347  1
  Ni  Ni52  1  0.66814914  0.67150084  0.67094252  1
  Fe  Fe53  1  0.83620214  0.83703196  0.83646722  1
" 