4961,Ni39Fe24Cr35_17,-225.935172841222, 177.672922801684,Ni39Fe24Cr35,"# generated using pymatgen
 data_Cr20Fe13Ni21
_symmetry_space_group_name_H-M   'P 1'
_cell_length_a   7.47787743
_cell_length_b   7.47787743
_cell_length_c   10.57531568
_cell_angle_alpha   90.00000000
_cell_angle_beta   90.00000000
_cell_angle_gamma   90.00000000
_symmetry_Int_Tables_number   1
_chemical_formula_structural   Cr20Fe13Ni21
_chemical_formula_sum   'Cr20 Fe13 Ni21'
_cell_volume   591.35738487
_cell_formula_units_Z   1
loop_
 _symmetry_equiv_pos_site_id
 _symmetry_equiv_pos_as_xyz
  1  'x, y, z'
loop_
 _atom_site_type_symbol
 _atom_site_label
 _atom_site_symmetry_multiplicity
 _atom_site_fract_x
 _atom_site_fract_y
 _atom_site_fract_z
 _atom_site_occupancy
  Ni  Ni0  1  0.00047220  -0.00016803  0.99802987  1
  Fe  Fe1  1  0.16434994  0.16582612  0.16515060  1
  Cr  Cr2  1  0.99842718  0.00129952  0.33049166  1
  Cr  Cr3  1  0.99388828  0.33135350  0.00284144  1
  Ni  Ni4  1  0.16421487  0.49904069  0.16862998  1
  Ni  Ni5  1  0.99844874  0.33363473  0.33276823  1
  Cr  Cr6  1  0.99729970  0.66921002  -0.00042366  1
  Fe  Fe7  1  0.16360134  0.83141362  0.16606202  1
  Ni  Ni8  1  0.00023523  0.66548260  0.33180944  1
  Ni  Ni9  1  0.32899713  -0.00042103  0.00273088  1
  Fe  Fe10  1  0.50075234  0.16733674  0.16482647  1
  Fe  Fe11  1  0.33151197  0.99734024  0.33304938  1
  Fe  Fe12  1  0.33291391  0.33093763  0.00104436  1
  Cr  Cr13  1  0.49961051  0.50008208  0.16388421  1
  Cr  Cr14  1  0.33061826  0.33349846  0.33219725  1
  Cr  Cr15  1  0.33155105  0.66776052  0.99751126  1
  Cr  Cr16  1  0.50074519  0.83375764  0.17040382  1
  Ni  Ni17  1  0.33127324  0.66826097  0.33555142  1
  Cr  Cr18  1  0.67088173  0.00064046  0.00146533  1
  Ni  Ni19  1  0.83340792  0.16509909  0.16700314  1
  Fe  Fe20  1  0.66819815  0.99808101  0.33264020  1
  Ni  Ni21  1  0.66814410  0.33192203  0.99787708  1
  Ni  Ni22  1  0.83523542  0.49981224  0.16988409  1
  Cr  Cr23  1  0.67039257  0.33107229  0.33350171  1
  Cr  Cr24  1  0.66921517  0.66337235  0.99716082  1
  Ni  Ni25  1  0.83403757  0.83286486  0.16663856  1
  Ni  Ni26  1  0.66636691  0.66652980  0.33334638  1
  Cr  Cr27  1  0.16359631  0.16669154  0.50083102  1
  Fe  Fe28  1  0.99623876  0.99697393  0.66693899  1
  Cr  Cr29  1  0.16475653  0.16321737  0.83262754  1
  Ni  Ni30  1  0.16373682  0.50321660  0.49629732  1
  Cr  Cr31  1  0.99592382  0.33244263  0.66265352  1
  Cr  Cr32  1  0.16431866  0.49935809  0.83397007  1
  Fe  Fe33  1  0.16445680  0.83272237  0.49898380  1
  Fe  Fe34  1  0.99739154  0.66676981  0.66581296  1
  Ni  Ni35  1  0.16314190  0.83531555  0.83047258  1
  Cr  Cr36  1  0.50171663  0.16180369  0.50024698  1
  Ni  Ni37  1  0.33164297  0.99554714  0.66397737  1
  Cr  Cr38  1  0.49996749  0.16650808  0.83423028  1
  Fe  Fe39  1  0.50288685  0.50118702  0.49936092  1
  Cr  Cr40  1  0.33556936  0.33440424  0.66622410  1
  Ni  Ni41  1  0.50416277  0.49818718  0.83204546  1
  Fe  Fe42  1  0.49948133  0.83114767  0.49875803  1
  Cr  Cr43  1  0.33252074  0.66639598  0.66420798  1
  Cr  Cr44  1  0.49979243  0.83422278  0.83089298  1
  Ni  Ni45  1  0.83147175  0.16479152  0.50014270  1
  Ni  Ni46  1  0.66745226  -0.00060606  0.66534195  1
  Ni  Ni47  1  0.83184675  0.16515437  0.83001603  1
  Fe  Fe48  1  0.83317490  0.49945546  0.49828567  1
  Ni  Ni49  1  0.66926200  0.33323551  0.66626359  1
  Ni  Ni50  1  0.82999981  0.49852655  0.82990020  1
  Cr  Cr51  1  0.83039446  0.83102729  0.49986152  1
  Ni  Ni52  1  0.66682885  0.66474542  0.66642809  1
  Fe  Fe53  1  0.83437420  0.83341543  0.83004971  1
" 