1171,Ni39Fe50Cr10_15,-234.840806287684, 205.690049969929,Ni39Fe50Cr10,"# generated using pymatgen
 data_Cr2Fe9Ni7
_symmetry_space_group_name_H-M   'P 1'
_cell_length_a   7.41633119
_cell_length_b   7.41633119
_cell_length_c   10.48827615
_cell_angle_alpha   90.00000000
_cell_angle_beta   90.00000000
_cell_angle_gamma   90.00000000
_symmetry_Int_Tables_number   1
_chemical_formula_structural   Cr2Fe9Ni7
_chemical_formula_sum   'Cr6 Fe27 Ni21'
_cell_volume   576.87583162
_cell_formula_units_Z   3
loop_
 _symmetry_equiv_pos_site_id
 _symmetry_equiv_pos_as_xyz
  1  'x, y, z'
loop_
 _atom_site_type_symbol
 _atom_site_label
 _atom_site_symmetry_multiplicity
 _atom_site_fract_x
 _atom_site_fract_y
 _atom_site_fract_z
 _atom_site_occupancy
  Fe  Fe0  1  1.00179659  0.00538184  0.00487306  1
  Ni  Ni1  1  0.16922920  0.17219646  0.17006719  1
  Ni  Ni2  1  0.00450214  1.00322558  0.33567868  1
  Fe  Fe3  1  1.00218993  0.33567868  0.00398424  1
  Ni  Ni4  1  0.17049195  0.50313932  0.16938068  1
  Ni  Ni5  1  0.00346511  0.33422249  0.33670111  1
  Fe  Fe6  1  1.00200829  0.66925595  0.00469750  1
  Ni  Ni7  1  0.16808691  0.83474161  0.17233602  1
  Fe  Fe8  1  0.00364625  0.66868765  0.33637498  1
  Cr  Cr9  1  0.33279696  0.00608687  0.00507734  1
  Ni  Ni10  1  0.50456805  0.17329427  0.17118723  1
  Fe  Fe11  1  0.33541894  0.00599186  0.33669407  1
  Fe  Fe12  1  0.33777319  0.33837703  0.00351486  1
  Fe  Fe13  1  0.50262780  0.50109917  0.16945074  1
  Ni  Ni14  1  0.33646172  0.33657864  0.33485902  1
  Fe  Fe15  1  0.33781806  0.66717655  0.00446404  1
  Cr  Cr16  1  0.50403627  0.83678182  0.17073406  1
  Ni  Ni17  1  0.33569922  0.67003909  0.33709106  1
  Cr  Cr18  1  0.67186727  0.00470231  1.00271580  1
  Ni  Ni19  1  0.83613829  0.17102647  0.17177528  1
  Fe  Fe20  1  0.67191202  0.00585037  0.33709185  1
  Ni  Ni21  1  0.67095738  0.33874645  0.00373733  1
  Fe  Fe22  1  0.83828577  0.50144206  0.16992698  1
  Ni  Ni23  1  0.67054837  0.33679135  0.33700028  1
  Ni  Ni24  1  0.67189969  0.66741740  1.00177593  1
  Ni  Ni25  1  0.83857556  0.83654496  0.16890066  1
  Cr  Cr26  1  0.67131089  0.66786266  0.33634138  1
  Ni  Ni27  1  0.17165094  0.16991962  0.50394025  1
  Fe  Fe28  1  1.00206187  0.00582204  0.66864848  1
  Ni  Ni29  1  0.16829863  0.17180940  0.83637667  1
  Cr  Cr30  1  0.16980398  0.50120382  0.50398884  1
  Fe  Fe31  1  1.00190995  0.33605225  0.67004685  1
  Fe  Fe32  1  0.16953965  0.50058686  0.83697670  1
  Fe  Fe33  1  0.16831348  0.83816439  0.50275697  1
  Fe  Fe34  1  1.00063996  0.66857681  0.66963482  1
  Cr  Cr35  1  0.16995915  0.83575250  0.83580105  1
  Fe  Fe36  1  0.50396993  0.17211837  0.50291372  1
  Fe  Fe37  1  0.33854625  0.00548814  0.66979253  1
  Fe  Fe38  1  0.50380664  0.17236017  0.83617025  1
  Fe  Fe39  1  0.50404105  0.50150530  0.50435874  1
  Ni  Ni40  1  0.33653575  0.33500546  0.67199964  1
  Fe  Fe41  1  0.50397440  0.50210203  0.83628965  1
  Fe  Fe42  1  0.50271752  0.83655847  0.50421343  1
  Fe  Fe43  1  0.33998273  0.66838801  0.66937843  1
  Fe  Fe44  1  0.50518577  0.83619623  0.83581519  1
  Fe  Fe45  1  0.83797634  0.17100175  0.50285957  1
  Fe  Fe46  1  0.66973514  0.00449655  0.67033718  1
  Ni  Ni47  1  0.83654114  0.17175415  0.83494303  1
  Ni  Ni48  1  0.83555664  0.50318954  0.50410728  1
  Ni  Ni49  1  0.66977535  0.33803616  0.66952257  1
  Fe  Fe50  1  0.83688350  0.50217274  0.83584677  1
  Ni  Ni51  1  0.83553100  0.83697841  0.50459432  1
  Ni  Ni52  1  0.67077610  0.67016935  0.67134167  1
  Fe  Fe53  1  0.83681425  0.83689152  0.83555294  1
" 