6848,Ni39Fe24Cr35_6,-225.780901967618, 172.605976316567,Ni39Fe24Cr35,"# generated using pymatgen
 data_Cr20Fe13Ni21
_symmetry_space_group_name_H-M   'P 1'
_cell_length_a   7.48320651
_cell_length_b   7.48320651
_cell_length_c   10.58285214
_cell_angle_alpha   90.00000000
_cell_angle_beta   90.00000000
_cell_angle_gamma   90.00000000
_symmetry_Int_Tables_number   1
_chemical_formula_structural   Cr20Fe13Ni21
_chemical_formula_sum   'Cr20 Fe13 Ni21'
_cell_volume   592.62257205
_cell_formula_units_Z   1
loop_
 _symmetry_equiv_pos_site_id
 _symmetry_equiv_pos_as_xyz
  1  'x, y, z'
loop_
 _atom_site_type_symbol
 _atom_site_label
 _atom_site_symmetry_multiplicity
 _atom_site_fract_x
 _atom_site_fract_y
 _atom_site_fract_z
 _atom_site_occupancy
  Cr  Cr0  1  0.00153952  0.99701553  0.99748225  1
  Ni  Ni1  1  0.16418866  0.16652847  0.16486096  1
  Ni  Ni2  1  0.99870174  0.00089488  0.33151587  1
  Ni  Ni3  1  -0.00015563  0.33352948  -0.00088220  1
  Ni  Ni4  1  0.16506990  0.49804863  0.16511507  1
  Fe  Fe5  1  -0.00024482  0.33215590  0.33096939  1
  Ni  Ni6  1  0.99590251  0.66407687  0.99870093  1
  Cr  Cr7  1  0.16640648  0.83208544  0.16900472  1
  Fe  Fe8  1  0.99866643  0.66302598  0.33058651  1
  Ni  Ni9  1  0.33099635  0.00129116  -0.00056332  1
  Fe  Fe10  1  0.49586504  0.16442618  0.16446910  1
  Ni  Ni11  1  0.33205229  0.00022562  0.33107800  1
  Ni  Ni12  1  0.33102663  0.32988579  0.00269040  1
  Ni  Ni13  1  0.49970667  0.50159761  0.16374024  1
  Cr  Cr14  1  0.33149238  0.33250563  0.32972646  1
  Cr  Cr15  1  0.33272166  0.66663480  0.99884113  1
  Ni  Ni16  1  0.50038237  0.83101902  0.16819257  1
  Ni  Ni17  1  0.33314496  0.66385937  0.33154943  1
  Cr  Cr18  1  0.66466466  0.99554301  0.00080554  1
  Cr  Cr19  1  0.83304970  0.16566043  0.16475446  1
  Ni  Ni20  1  0.66566110  0.99849412  0.33194066  1
  Ni  Ni21  1  0.66556863  0.33549248  0.00147207  1
  Fe  Fe22  1  0.83350119  0.50070746  0.16311365  1
  Cr  Cr23  1  0.66497338  0.33346265  0.33105496  1
  Ni  Ni24  1  0.66875589  0.66393586  -0.00024761  1
  Fe  Fe25  1  0.83231850  0.82943910  0.16784721  1
  Ni  Ni26  1  0.66678158  0.66550089  0.32901481  1
  Fe  Fe27  1  0.16502817  0.16424070  0.49715804  1
  Cr  Cr28  1  0.00009596  -0.00063472  0.66793112  1
  Ni  Ni29  1  0.16584649  0.16390682  0.83366155  1
  Ni  Ni30  1  0.16181134  0.49609597  0.49643232  1
  Fe  Fe31  1  0.99876793  0.33273522  0.66517084  1
  Cr  Cr32  1  0.16344100  0.49668524  0.83511788  1
  Cr  Cr33  1  0.16693062  0.83062304  0.49450247  1
  Cr  Cr34  1  0.99868008  0.66552477  0.66736505  1
  Ni  Ni35  1  0.16681493  0.83435469  0.83313882  1
  Fe  Fe36  1  0.49895350  0.16371961  0.49893773  1
  Ni  Ni37  1  0.33110423  0.00121241  0.66692436  1
  Cr  Cr38  1  0.49895480  0.16662193  0.83390977  1
  Cr  Cr39  1  0.49826541  0.50068004  0.49930857  1
  Cr  Cr40  1  0.33131078  0.33050061  0.66367206  1
  Cr  Cr41  1  0.50187867  0.49689365  0.83465221  1
  Cr  Cr42  1  0.49813304  0.83368777  0.49789136  1
  Cr  Cr43  1  0.33034474  0.66734373  0.66710921  1
  Fe  Fe44  1  0.49770538  0.83415510  0.83363232  1
  Fe  Fe45  1  0.83321627  0.16745598  0.49789205  1
  Fe  Fe46  1  0.66366425  0.00058422  0.66486958  1
  Cr  Cr47  1  0.83175674  0.16998742  0.83198614  1
  Fe  Fe48  1  0.83366430  0.49879142  0.49858728  1
  Ni  Ni49  1  0.66863824  0.33128800  0.66290451  1
  Ni  Ni50  1  0.83172013  0.49786235  0.83407767  1
  Cr  Cr51  1  0.83142520  0.83489854  0.49449601  1
  Cr  Cr52  1  0.66783745  0.66512448  0.66911746  1
  Fe  Fe53  1  0.83296998  0.83031604  0.83441778  1
" 