7951,Ni39Fe24Cr35_9,-225.966144733852, 177.831502119167,Ni39Fe24Cr35,"# generated using pymatgen
 data_Cr20Fe13Ni21
_symmetry_space_group_name_H-M   'P 1'
_cell_length_a   7.47785703
_cell_length_b   7.47785703
_cell_length_c   10.57528683
_cell_angle_alpha   90.00000000
_cell_angle_beta   90.00000000
_cell_angle_gamma   90.00000000
_symmetry_Int_Tables_number   1
_chemical_formula_structural   Cr20Fe13Ni21
_chemical_formula_sum   'Cr20 Fe13 Ni21'
_cell_volume   591.35254547
_cell_formula_units_Z   1
loop_
 _symmetry_equiv_pos_site_id
 _symmetry_equiv_pos_as_xyz
  1  'x, y, z'
loop_
 _atom_site_type_symbol
 _atom_site_label
 _atom_site_symmetry_multiplicity
 _atom_site_fract_x
 _atom_site_fract_y
 _atom_site_fract_z
 _atom_site_occupancy
  Ni  Ni0  1  0.99723344  0.00410309  0.99874498  1
  Ni  Ni1  1  0.16425360  0.16339352  0.16420611  1
  Ni  Ni2  1  -0.00024125  0.00304969  0.33156179  1
  Ni  Ni3  1  0.99855604  0.32827736  -0.00003565  1
  Cr  Cr4  1  0.16364577  0.49766063  0.16467353  1
  Ni  Ni5  1  0.99870475  0.33019755  0.33264208  1
  Fe  Fe6  1  0.99420419  0.66765747  0.99807945  1
  Cr  Cr7  1  0.16516151  0.83415776  0.16665280  1
  Fe  Fe8  1  0.00100757  0.66590787  0.33440652  1
  Fe  Fe9  1  0.33152209  0.00251248  0.00071730  1
  Ni  Ni10  1  0.49982287  0.16356392  0.16570485  1
  Ni  Ni11  1  0.33187729  0.00058152  0.33132560  1
  Fe  Fe12  1  0.33369918  0.32729818  -0.00066480  1
  Cr  Cr13  1  0.50113036  0.49816454  0.16585525  1
  Cr  Cr14  1  0.32789996  0.33084310  0.33258511  1
  Cr  Cr15  1  0.33631638  0.66521720  0.00026151  1
  Fe  Fe16  1  0.50062457  0.83427524  0.16840613  1
  Ni  Ni17  1  0.33410323  0.66748325  0.33387696  1
  Cr  Cr18  1  0.66883633  0.99738511  0.00118107  1
  Ni  Ni19  1  0.83368472  0.16509982  0.16772057  1
  Fe  Fe20  1  0.66533922  0.00090357  0.32994692  1
  Fe  Fe21  1  0.66886106  0.33090512  0.99868867  1
  Cr  Cr22  1  0.83318378  0.49721333  0.16695418  1
  Fe  Fe23  1  0.66587829  0.33026741  0.33200005  1
  Ni  Ni24  1  0.66783927  0.66590660  0.99851968  1
  Fe  Fe25  1  0.83302847  0.83439944  0.16734700  1
  Ni  Ni26  1  0.66701762  0.66783424  0.33065661  1
  Ni  Ni27  1  0.16500036  0.16312700  0.49731142  1
  Ni  Ni28  1  0.99888356  0.00101418  0.66729891  1
  Ni  Ni29  1  0.16352064  0.16427669  0.83614398  1
  Ni  Ni30  1  0.16247626  0.50106977  0.49657765  1
  Cr  Cr31  1  0.00014280  0.33216236  0.66421344  1
  Cr  Cr32  1  0.16441856  0.49856380  0.83629736  1
  Fe  Fe33  1  0.16343420  0.83449286  0.49721004  1
  Ni  Ni34  1  0.99688932  0.66491181  0.66539576  1
  Cr  Cr35  1  0.16361077  0.83552965  0.83114506  1
  Ni  Ni36  1  0.49886022  0.16552073  0.49859164  1
  Cr  Cr37  1  0.33064807  0.00281219  0.66468573  1
  Fe  Fe38  1  0.49981797  0.16953869  0.83465562  1
  Cr  Cr39  1  0.50324910  0.49717549  0.49835642  1
  Cr  Cr40  1  0.33148072  0.33220920  0.66628307  1
  Ni  Ni41  1  0.50340165  0.49642431  0.83473581  1
  Cr  Cr42  1  0.49848635  0.83541867  0.49563263  1
  Cr  Cr43  1  0.33093787  0.66350236  0.66243075  1
  Cr  Cr44  1  0.49775961  0.83326841  0.83347460  1
  Cr  Cr45  1  0.83138890  0.16710136  0.49734574  1
  Cr  Cr46  1  0.66817074  0.00116806  0.66794027  1
  Ni  Ni47  1  0.83390945  0.16758745  0.83287428  1
  Ni  Ni48  1  0.83430575  0.49988607  0.49702517  1
  Fe  Fe49  1  0.66767898  0.33242467  0.66725893  1
  Ni  Ni50  1  0.83091458  0.49698047  0.83426668  1
  Cr  Cr51  1  0.83441604  0.83365693  0.49904513  1
  Cr  Cr52  1  0.66855785  0.66455530  0.66895529  1
  Fe  Fe53  1  0.83542020  0.83233340  0.83380520  1
" 