6824,Ni39Fe24Cr35_11,-225.944273068458, 181.524147025144,Ni39Fe24Cr35,"# generated using pymatgen
 data_Cr20Fe13Ni21
_symmetry_space_group_name_H-M   'P 1'
_cell_length_a   7.47746048
_cell_length_b   7.47746048
_cell_length_c   10.57472602
_cell_angle_alpha   90.00000000
_cell_angle_beta   90.00000000
_cell_angle_gamma   90.00000000
_symmetry_Int_Tables_number   1
_chemical_formula_structural   Cr20Fe13Ni21
_chemical_formula_sum   'Cr20 Fe13 Ni21'
_cell_volume   591.25847132
_cell_formula_units_Z   1
loop_
 _symmetry_equiv_pos_site_id
 _symmetry_equiv_pos_as_xyz
  1  'x, y, z'
loop_
 _atom_site_type_symbol
 _atom_site_label
 _atom_site_symmetry_multiplicity
 _atom_site_fract_x
 _atom_site_fract_y
 _atom_site_fract_z
 _atom_site_occupancy
  Ni  Ni0  1  0.99666187  0.00056136  0.00306807  1
  Fe  Fe1  1  0.16169709  0.16827914  0.16709304  1
  Fe  Fe2  1  0.99804500  0.99791759  0.33182791  1
  Ni  Ni3  1  -0.00034489  0.33087438  0.00052193  1
  Cr  Cr4  1  0.16661741  0.49917020  0.16543163  1
  Ni  Ni5  1  -0.00019116  0.33182580  0.33299074  1
  Fe  Fe6  1  -0.00062994  0.66448437  0.00051065  1
  Cr  Cr7  1  0.16406608  0.83314113  0.16841604  1
  Ni  Ni8  1  -0.00032462  0.66157867  0.33365206  1
  Cr  Cr9  1  0.33225335  -0.00045574  -0.00056361  1
  Cr  Cr10  1  0.49923858  0.16854308  0.16614201  1
  Cr  Cr11  1  0.33115521  0.00070281  0.33645769  1
  Ni  Ni12  1  0.32782376  0.33121486  -0.00068573  1
  Cr  Cr13  1  0.49968971  0.50057296  0.17276703  1
  Fe  Fe14  1  0.32927963  0.33315401  0.33524245  1
  Cr  Cr15  1  0.33425514  0.66583633  -0.00044159  1
  Fe  Fe16  1  0.50184086  0.83297526  0.16968888  1
  Ni  Ni17  1  0.33173463  0.66902349  0.33556929  1
  Fe  Fe18  1  0.66720257  0.00037555  0.00054783  1
  Ni  Ni19  1  0.83321930  0.16411254  0.16730711  1
  Ni  Ni20  1  0.66439771  0.99913356  0.33093250  1
  Cr  Cr21  1  0.66729618  0.33415700  0.99856020  1
  Ni  Ni22  1  0.83424847  0.49710532  0.16887360  1
  Fe  Fe23  1  0.66998797  0.33219835  0.33290838  1
  Cr  Cr24  1  0.66821079  0.66883025  0.00073581  1
  Fe  Fe25  1  0.83211560  0.83184698  0.16839363  1
  Ni  Ni26  1  0.66892189  0.66850461  0.33295705  1
  Ni  Ni27  1  0.16538689  0.16549857  0.49832406  1
  Fe  Fe28  1  0.00170940  0.99807488  0.66485978  1
  Cr  Cr29  1  0.16510113  0.16718769  0.83279875  1
  Ni  Ni30  1  0.16643551  0.49998341  0.49871991  1
  Fe  Fe31  1  0.00298024  0.33508148  0.66243100  1
  Ni  Ni32  1  0.16639290  0.49815676  0.83240010  1
  Ni  Ni33  1  0.16687869  0.83182063  0.50050746  1
  Fe  Fe34  1  0.00157834  0.66386469  0.66313865  1
  Cr  Cr35  1  0.16365177  0.82991839  0.82989943  1
  Ni  Ni36  1  0.49750642  0.16573990  0.49961444  1
  Fe  Fe37  1  0.33281143  0.99888479  0.66270672  1
  Fe  Fe38  1  0.49632794  0.16573610  0.83128182  1
  Cr  Cr39  1  0.50021297  0.50011809  0.49361696  1
  Ni  Ni40  1  0.32751360  0.33214276  0.66336347  1
  Cr  Cr41  1  0.49434272  0.49781881  0.83149350  1
  Ni  Ni42  1  0.49763346  0.83378834  0.49721377  1
  Ni  Ni43  1  0.33011936  0.66631466  0.66350797  1
  Ni  Ni44  1  0.49958000  0.83434139  0.83295604  1
  Cr  Cr45  1  0.83288321  0.16530793  0.49722571  1
  Cr  Cr46  1  0.66405455  0.99719055  0.66814964  1
  Cr  Cr47  1  0.83389997  0.16382072  0.83232512  1
  Ni  Ni48  1  0.83671876  0.49866684  0.49561770  1
  Cr  Cr49  1  0.66651636  0.33254496  0.66251370  1
  Cr  Cr50  1  0.83847854  0.50066236  0.83067616  1
  Cr  Cr51  1  0.83520580  0.83200071  0.49678913  1
  Cr  Cr52  1  0.66645300  0.66737858  0.66468895  1
  Ni  Ni53  1  0.83355955  0.83469285  0.83667613  1
" 