3217,Ni39Fe24Cr35_3,-226.37142085907, 183.138805444427,Ni39Fe24Cr35,"# generated using pymatgen
 data_Cr20Fe13Ni21
_symmetry_space_group_name_H-M   'P 1'
_cell_length_a   7.47913138
_cell_length_b   7.47913138
_cell_length_c   10.57708904
_cell_angle_alpha   90.00000000
_cell_angle_beta   90.00000000
_cell_angle_gamma   90.00000000
_symmetry_Int_Tables_number   1
_chemical_formula_structural   Cr20Fe13Ni21
_chemical_formula_sum   'Cr20 Fe13 Ni21'
_cell_volume   591.65492673
_cell_formula_units_Z   1
loop_
 _symmetry_equiv_pos_site_id
 _symmetry_equiv_pos_as_xyz
  1  'x, y, z'
loop_
 _atom_site_type_symbol
 _atom_site_label
 _atom_site_symmetry_multiplicity
 _atom_site_fract_x
 _atom_site_fract_y
 _atom_site_fract_z
 _atom_site_occupancy
  Cr  Cr0  1  0.99852853  -0.00069668  0.99673658  1
  Ni  Ni1  1  0.16885433  0.16913996  0.16708362  1
  Cr  Cr2  1  -0.00047109  0.99702072  0.33483293  1
  Fe  Fe3  1  -0.00003929  0.33485864  0.99673911  1
  Fe  Fe4  1  0.16688504  0.50115939  0.16622854  1
  Cr  Cr5  1  0.00046562  0.33564459  0.33230850  1
  Ni  Ni6  1  0.99823540  0.66327672  0.99705782  1
  Cr  Cr7  1  0.16664714  0.83146790  0.16989733  1
  Ni  Ni8  1  -0.00064987  0.66507230  0.33584182  1
  Cr  Cr9  1  0.33392649  0.99898079  -0.00063143  1
  Fe  Fe10  1  0.49817278  0.16733658  0.16617327  1
  Ni  Ni11  1  0.33310775  0.00119118  0.33143656  1
  Cr  Cr12  1  0.33225055  0.33362172  0.00079220  1
  Fe  Fe13  1  0.49715281  0.49911113  0.16684357  1
  Ni  Ni14  1  0.33410327  0.33358977  0.33103281  1
  Ni  Ni15  1  0.33203871  0.66415429  0.99819325  1
  Cr  Cr16  1  0.49879198  0.82872774  0.16507995  1
  Ni  Ni17  1  0.33212174  0.66318169  0.33357386  1
  Fe  Fe18  1  0.66571612  0.99831852  0.99651263  1
  Cr  Cr19  1  0.83400023  0.16817147  0.16293961  1
  Cr  Cr20  1  0.66435465  0.99900396  0.33320650  1
  Ni  Ni21  1  0.66727203  0.33272138  0.99836836  1
  Cr  Cr22  1  0.83115947  0.50075473  0.16449222  1
  Cr  Cr23  1  0.66261542  0.33409607  0.33548592  1
  Fe  Fe24  1  0.66561039  0.66531725  0.99650828  1
  Cr  Cr25  1  0.83201572  0.82886307  0.16549712  1
  Ni  Ni26  1  0.66603477  0.66419007  0.33337262  1
  Cr  Cr27  1  0.16705185  0.16536352  0.49938279  1
  Ni  Ni28  1  0.99478376  -0.00072315  0.66594141  1
  Ni  Ni29  1  0.16297136  0.16865263  0.83203205  1
  Fe  Fe30  1  0.17016983  0.50262933  0.49871055  1
  Cr  Cr31  1  0.99854005  0.33297649  0.66893730  1
  Fe  Fe32  1  0.16501674  0.49929186  0.83297401  1
  Ni  Ni33  1  0.16513817  0.83139288  0.49716390  1
  Cr  Cr34  1  0.99791862  0.66778643  0.66448521  1
  Cr  Cr35  1  0.16733800  0.83167318  0.83075347  1
  Fe  Fe36  1  0.49810371  0.16685446  0.50031397  1
  Cr  Cr37  1  0.33169102  0.99806517  0.66737796  1
  Cr  Cr38  1  0.50028395  0.16645395  0.82977495  1
  Ni  Ni39  1  0.49932890  0.49818689  0.49943285  1
  Ni  Ni40  1  0.33389571  0.33490689  0.66477250  1
  Cr  Cr41  1  0.49986590  0.50190080  0.83102884  1
  Cr  Cr42  1  0.49773719  0.82824513  0.50000434  1
  Ni  Ni43  1  0.33490770  0.66312103  0.66565260  1
  Ni  Ni44  1  0.50248504  0.82934060  0.83257614  1
  Fe  Fe45  1  0.83053510  0.16403602  0.50252689  1
  Fe  Fe46  1  0.66917171  0.99648705  0.66642189  1
  Ni  Ni47  1  0.83348330  0.16699685  0.83234507  1
  Fe  Fe48  1  0.83061001  0.50323245  0.49970435  1
  Fe  Fe49  1  0.66599747  0.33442939  0.66506824  1
  Ni  Ni50  1  0.83140029  0.49870372  0.83458345  1
  Ni  Ni51  1  0.83304452  0.83055168  0.49900187  1
  Ni  Ni52  1  0.66643135  0.66578467  0.66687531  1
  Ni  Ni53  1  0.82957509  0.83176217  0.83293162  1
" 