3609,Ni39Fe24Cr35_1,-225.801059018872, 177.881641190827,Ni39Fe24Cr35,"# generated using pymatgen
 data_Cr20Fe13Ni21
_symmetry_space_group_name_H-M   'P 1'
_cell_length_a   7.47838910
_cell_length_b   7.47838910
_cell_length_c   10.57603929
_cell_angle_alpha   90.00000000
_cell_angle_beta   90.00000000
_cell_angle_gamma   90.00000000
_symmetry_Int_Tables_number   1
_chemical_formula_structural   Cr20Fe13Ni21
_chemical_formula_sum   'Cr20 Fe13 Ni21'
_cell_volume   591.47878377
_cell_formula_units_Z   1
loop_
 _symmetry_equiv_pos_site_id
 _symmetry_equiv_pos_as_xyz
  1  'x, y, z'
loop_
 _atom_site_type_symbol
 _atom_site_label
 _atom_site_symmetry_multiplicity
 _atom_site_fract_x
 _atom_site_fract_y
 _atom_site_fract_z
 _atom_site_occupancy
  Fe  Fe0  1  0.00343256  0.99907814  0.99799976  1
  Cr  Cr1  1  0.16891188  0.16668159  0.17034659  1
  Fe  Fe2  1  0.99731849  0.00074350  0.33514036  1
  Cr  Cr3  1  0.00059292  0.33270173  0.99688893  1
  Cr  Cr4  1  0.16469909  0.49993998  0.16770537  1
  Ni  Ni5  1  -0.00039167  0.33336598  0.33758058  1
  Fe  Fe6  1  0.00315611  0.66521717  0.99815717  1
  Cr  Cr7  1  0.16834093  0.83084257  0.16704841  1
  Fe  Fe8  1  0.99802277  0.66247515  0.33478966  1
  Ni  Ni9  1  0.33274917  0.99913407  -0.00038787  1
  Ni  Ni10  1  0.49797083  0.16349149  0.16515271  1
  Fe  Fe11  1  0.33661466  0.99874637  0.33175828  1
  Ni  Ni12  1  0.33255126  0.33147617  0.99752537  1
  Cr  Cr13  1  0.49658398  0.49811383  0.16316820  1
  Ni  Ni14  1  0.32944391  0.33402806  0.33338586  1
  Ni  Ni15  1  0.33464949  0.66663934  0.99595151  1
  Ni  Ni16  1  0.49878394  0.83421948  0.16536274  1
  Ni  Ni17  1  0.33279875  0.66588625  0.33475687  1
  Fe  Fe18  1  0.66092974  -0.00022694  0.00070092  1
  Cr  Cr19  1  0.83128573  0.16684696  0.16502109  1
  Ni  Ni20  1  0.66663327  0.99738977  0.33239880  1
  Fe  Fe21  1  0.66165407  0.33338280  -0.00073596  1
  Ni  Ni22  1  0.83389433  0.50004908  0.16408361  1
  Cr  Cr23  1  0.66717511  0.33326498  0.33012672  1
  Ni  Ni24  1  0.66462351  0.66607124  -0.00005727  1
  Cr  Cr25  1  0.83389992  0.83072408  0.16389644  1
  Cr  Cr26  1  0.66533194  0.66746554  0.33427234  1
  Ni  Ni27  1  0.16387195  0.16885512  0.49706255  1
  Cr  Cr28  1  0.00038143  0.00183430  0.66729556  1
  Fe  Fe29  1  0.16881544  0.16579367  0.83439497  1
  Ni  Ni30  1  0.16567391  0.49770030  0.49788347  1
  Fe  Fe31  1  -0.00006016  0.33277173  0.66440649  1
  Ni  Ni32  1  0.16789603  0.49986160  0.83267714  1
  Cr  Cr33  1  0.16823811  0.83298837  0.49597917  1
  Cr  Cr34  1  0.00107196  0.66553647  0.66534651  1
  Ni  Ni35  1  0.16666306  0.83138513  0.83569527  1
  Cr  Cr36  1  0.49761556  0.16489992  0.49442602  1
  Cr  Cr37  1  0.33127320  -0.00047407  0.66696790  1
  Ni  Ni38  1  0.49915435  0.16752351  0.83724289  1
  Fe  Fe39  1  0.49712450  0.50043509  0.49910906  1
  Cr  Cr40  1  0.32996670  0.33383021  0.66697543  1
  Ni  Ni41  1  0.49669248  0.49756555  0.83292464  1
  Ni  Ni42  1  0.50023951  0.83076136  0.49938850  1
  Fe  Fe43  1  0.33301758  0.66497307  0.66568999  1
  Cr  Cr44  1  0.49848677  0.83180802  0.83119522  1
  Ni  Ni45  1  0.83449528  0.16638321  0.49870719  1
  Cr  Cr46  1  0.66664609  0.99915505  0.66380044  1
  Fe  Fe47  1  0.83092758  0.16612431  0.83373361  1
  Ni  Ni48  1  0.83481500  0.49869058  0.49982229  1
  Cr  Cr49  1  0.66568069  0.33310941  0.66531322  1
  Cr  Cr50  1  0.83035607  0.49949714  0.83366067  1
  Ni  Ni51  1  0.83141016  0.83236569  0.49848297  1
  Fe  Fe52  1  0.66419607  0.66481664  0.66341994  1
  Cr  Cr53  1  0.83274664  0.83311289  0.83541437  1
" 