8113,Ni39Fe44Cr16_13,-233.16554618683, 202.901716148704,Ni39Fe44Cr16,"# generated using pymatgen
 data_Cr10Fe23Ni21
_symmetry_space_group_name_H-M   'P 1'
_cell_length_a   7.43626084
_cell_length_b   7.43626084
_cell_length_c   10.51646093
_cell_angle_alpha   90.00000000
_cell_angle_beta   90.00000000
_cell_angle_gamma   90.00000000
_symmetry_Int_Tables_number   1
_chemical_formula_structural   Cr10Fe23Ni21
_chemical_formula_sum   'Cr10 Fe23 Ni21'
_cell_volume   581.53899558
_cell_formula_units_Z   1
loop_
 _symmetry_equiv_pos_site_id
 _symmetry_equiv_pos_as_xyz
  1  'x, y, z'
loop_
 _atom_site_type_symbol
 _atom_site_label
 _atom_site_symmetry_multiplicity
 _atom_site_fract_x
 _atom_site_fract_y
 _atom_site_fract_z
 _atom_site_occupancy
  Fe  Fe0  1  1.00183231  0.00425614  0.00265219  1
  Ni  Ni1  1  0.16826280  0.16941667  0.16839517  1
  Fe  Fe2  1  0.00403298  1.00097462  0.33391639  1
  Fe  Fe3  1  0.00253071  0.33378230  0.00374033  1
  Ni  Ni4  1  0.17071538  0.50136540  0.16969466  1
  Fe  Fe5  1  0.00420768  0.33706961  0.33385160  1
  Cr  Cr6  1  0.00242680  0.67210433  0.00506862  1
  Ni  Ni7  1  0.17000519  0.83553707  0.16895312  1
  Ni  Ni8  1  1.00098174  0.67036680  0.33478249  1
  Fe  Fe9  1  0.33649464  1.00203187  0.00304544  1
  Fe  Fe10  1  0.50045762  0.16652618  0.16909203  1
  Fe  Fe11  1  0.33478795  1.00170627  0.33466713  1
  Ni  Ni12  1  0.33746753  0.33226040  1.00169622  1
  Cr  Cr13  1  0.49804105  0.50187634  0.16729414  1
  Ni  Ni14  1  0.33685240  0.33376159  0.33646948  1
  Ni  Ni15  1  0.33528819  0.67061960  0.00248781  1
  Ni  Ni16  1  0.50094031  0.83620773  0.16995576  1
  Ni  Ni17  1  0.33399048  0.66867678  0.33519151  1
  Fe  Fe18  1  0.66758304  0.00264314  0.00292934  1
  Ni  Ni19  1  0.83550323  0.16746254  0.16818506  1
  Fe  Fe20  1  0.66708184  1.00062249  0.33440171  1
  Ni  Ni21  1  0.66814763  0.33063329  0.00342175  1
  Fe  Fe22  1  0.83729713  0.50087246  0.17039564  1
  Fe  Fe23  1  0.66730805  0.33705732  0.33543321  1
  Cr  Cr24  1  0.66883768  0.66949974  0.00350969  1
  Ni  Ni25  1  0.83525982  0.83930832  0.17064813  1
  Fe  Fe26  1  0.66741254  0.66890246  0.33578499  1
  Fe  Fe27  1  0.17124216  0.16945833  0.49907998  1
  Cr  Cr28  1  0.00254406  1.00139486  0.66979653  1
  Fe  Fe29  1  0.16925077  0.16806321  0.83824955  1
  Fe  Fe30  1  0.17124604  0.50252184  0.49992888  1
  Cr  Cr31  1  0.00309084  0.33366230  0.66750209  1
  Cr  Cr32  1  0.17479051  0.50209995  0.83631730  1
  Fe  Fe33  1  0.17067886  0.83452823  0.49891216  1
  Cr  Cr34  1  0.00235334  0.67092287  0.66682081  1
  Fe  Fe35  1  0.17055876  0.83778661  0.83760478  1
  Ni  Ni36  1  0.50196477  0.17066666  0.50003221  1
  Cr  Cr37  1  0.33639423  0.00362523  0.66712385  1
  Ni  Ni38  1  0.50331672  0.16945323  0.83600722  1
  Ni  Ni39  1  0.49894300  0.50214408  0.50480918  1
  Ni  Ni40  1  0.33953163  0.33465146  0.66798892  1
  Fe  Fe41  1  0.50324750  0.50012301  0.83533494  1
  Fe  Fe42  1  0.50353042  0.83465443  0.49986233  1
  Ni  Ni43  1  0.33778781  0.66939032  0.66862763  1
  Fe  Fe44  1  0.50234435  0.83566701  0.83642602  1
  Cr  Cr45  1  0.83348066  0.16592428  0.50200474  1
  Fe  Fe46  1  0.66606203  0.00214596  0.66925434  1
  Ni  Ni47  1  0.83205628  0.16567475  0.83645275  1
  Fe  Fe48  1  0.83108554  0.50304525  0.50044723  1
  Ni  Ni49  1  0.66526105  0.33396315  0.66871621  1
  Cr  Cr50  1  0.83357288  0.50028835  0.83501141  1
  Ni  Ni51  1  0.83476655  0.83509462  0.50121616  1
  Fe  Fe52  1  0.66569438  0.66966392  0.66779724  1
  Ni  Ni53  1  0.83324050  0.83962703  0.83479431  1
" 