2020,Ni39Fe44Cr16_15,-233.174519858732, 200.760680523711,Ni39Fe44Cr16,"# generated using pymatgen
 data_Cr10Fe23Ni21
_symmetry_space_group_name_H-M   'P 1'
_cell_length_a   7.43736899
_cell_length_b   7.43736899
_cell_length_c   10.51802809
_cell_angle_alpha   90.00000000
_cell_angle_beta   90.00000000
_cell_angle_gamma   90.00000000
_symmetry_Int_Tables_number   1
_chemical_formula_structural   Cr10Fe23Ni21
_chemical_formula_sum   'Cr10 Fe23 Ni21'
_cell_volume   581.79901796
_cell_formula_units_Z   1
loop_
 _symmetry_equiv_pos_site_id
 _symmetry_equiv_pos_as_xyz
  1  'x, y, z'
loop_
 _atom_site_type_symbol
 _atom_site_label
 _atom_site_symmetry_multiplicity
 _atom_site_fract_x
 _atom_site_fract_y
 _atom_site_fract_z
 _atom_site_occupancy
  Ni  Ni0  1  0.00357239  0.00253812  0.00217064  1
  Ni  Ni1  1  0.16772038  0.16974684  0.16845697  1
  Ni  Ni2  1  1.00079348  1.00101233  0.33539432  1
  Ni  Ni3  1  0.00220893  0.33448896  1.00197214  1
  Ni  Ni4  1  0.16480638  0.50104095  0.16816014  1
  Fe  Fe5  1  1.00183213  0.33543133  0.33436434  1
  Fe  Fe6  1  0.00381110  0.66665292  0.00243830  1
  Fe  Fe7  1  0.16655843  0.83671864  0.16789342  1
  Ni  Ni8  1  0.00287962  0.67073765  0.33516750  1
  Fe  Fe9  1  0.33197343  0.00540155  1.00136281  1
  Ni  Ni10  1  0.50139671  0.16834692  0.16859136  1
  Fe  Fe11  1  0.33377191  0.00351343  0.33605352  1
  Ni  Ni12  1  0.33605576  0.33775827  1.00158206  1
  Fe  Fe13  1  0.50031142  0.49952227  0.16435156  1
  Cr  Cr14  1  0.33554679  0.33577584  0.33511805  1
  Ni  Ni15  1  0.33328844  0.66534056  1.00172658  1
  Cr  Cr16  1  0.50197603  0.83763550  0.16794085  1
  Cr  Cr17  1  0.33195774  0.66653269  0.33563416  1
  Cr  Cr18  1  0.67105824  0.00568983  0.00215483  1
  Fe  Fe19  1  0.83779131  0.16878971  0.16829329  1
  Ni  Ni20  1  0.67229060  0.00437464  0.33594945  1
  Ni  Ni21  1  0.66760517  0.33625039  1.00195039  1
  Fe  Fe22  1  0.83738758  0.50072699  0.16704801  1
  Cr  Cr23  1  0.66738912  0.33300836  0.33370983  1
  Fe  Fe24  1  0.66907949  0.66385468  0.00271860  1
  Fe  Fe25  1  0.83940894  0.83661263  0.16909388  1
  Cr  Cr26  1  0.67018901  0.66843596  0.33505631  1
  Fe  Fe27  1  0.16942263  0.16720926  0.50127249  1
  Cr  Cr28  1  0.00245351  1.00136882  0.66965026  1
  Fe  Fe29  1  0.17045767  0.16946372  0.83735696  1
  Fe  Fe30  1  0.16732904  0.50260873  0.50368102  1
  Fe  Fe31  1  0.00276901  0.33694089  0.66941789  1
  Ni  Ni32  1  0.16757806  0.50187123  0.83464963  1
  Ni  Ni33  1  0.16675239  0.83431073  0.50111086  1
  Ni  Ni34  1  0.00442905  0.66703812  0.66796528  1
  Ni  Ni35  1  0.16872607  0.83337790  0.83712613  1
  Ni  Ni36  1  0.50299447  0.16779585  0.50289324  1
  Ni  Ni37  1  0.33560770  0.00279185  0.66912584  1
  Ni  Ni38  1  0.50197205  0.17102341  0.83437267  1
  Fe  Fe39  1  0.50131371  0.50078707  0.50579500  1
  Fe  Fe40  1  0.33566603  0.33479242  0.66939365  1
  Ni  Ni41  1  0.50162742  0.49960410  0.83565166  1
  Cr  Cr42  1  0.50181436  0.83861759  0.50434098  1
  Ni  Ni43  1  0.33301394  0.66630359  0.66856766  1
  Cr  Cr44  1  0.49973959  0.83585957  0.83362526  1
  Fe  Fe45  1  0.83509517  0.16733212  0.50174944  1
  Ni  Ni46  1  0.66828341  0.00585836  0.66724675  1
  Fe  Fe47  1  0.83529180  0.17213289  0.83582622  1
  Fe  Fe48  1  0.83729359  0.50252735  0.50333050  1
  Fe  Fe49  1  0.66754403  0.33495386  0.66919313  1
  Fe  Fe50  1  0.83537658  0.50020500  0.83544179  1
  Fe  Fe51  1  0.83705219  0.83614570  0.50187882  1
  Fe  Fe52  1  0.66898387  0.66741508  0.66796645  1
  Cr  Cr53  1  0.83649484  0.83346959  0.83475986  1
" 