1456,Ni39Fe44Cr16_14,-232.500133649947, 201.649918027232,Ni39Fe44Cr16,"# generated using pymatgen
 data_Cr10Fe23Ni21
_symmetry_space_group_name_H-M   'P 1'
_cell_length_a   7.43424970
_cell_length_b   7.43424970
_cell_length_c   10.51361676
_cell_angle_alpha   90.00000000
_cell_angle_beta   90.00000000
_cell_angle_gamma   90.00000000
_symmetry_Int_Tables_number   1
_chemical_formula_structural   Cr10Fe23Ni21
_chemical_formula_sum   'Cr10 Fe23 Ni21'
_cell_volume   581.06729260
_cell_formula_units_Z   1
loop_
 _symmetry_equiv_pos_site_id
 _symmetry_equiv_pos_as_xyz
  1  'x, y, z'
loop_
 _atom_site_type_symbol
 _atom_site_label
 _atom_site_symmetry_multiplicity
 _atom_site_fract_x
 _atom_site_fract_y
 _atom_site_fract_z
 _atom_site_occupancy
  Ni  Ni0  1  1.00114375  0.99854632  1.00107078  1
  Cr  Cr1  1  0.16363893  0.16892253  0.16597254  1
  Fe  Fe2  1  0.99868897  1.00123701  0.33538499  1
  Fe  Fe3  1  0.99829226  0.33600439  1.00016992  1
  Fe  Fe4  1  0.16725734  0.50631149  0.16704535  1
  Cr  Cr5  1  1.00016478  0.34146222  0.33678902  1
  Ni  Ni6  1  0.00231841  0.66806989  1.00103364  1
  Fe  Fe7  1  0.16613932  0.83223967  0.16789819  1
  Ni  Ni8  1  0.00259765  0.67148735  0.33678247  1
  Cr  Cr9  1  0.33686079  1.00006561  1.00035796  1
  Fe  Fe10  1  0.50655411  0.16969955  0.16959355  1
  Cr  Cr11  1  0.33776269  1.00051892  0.33337769  1
  Cr  Cr12  1  0.33708148  0.33716420  1.00078921  1
  Fe  Fe13  1  0.50605541  0.50188440  0.16781433  1
  Cr  Cr14  1  0.33805243  0.33764444  0.33751288  1
  Fe  Fe15  1  0.33724262  0.66930995  0.99971157  1
  Ni  Ni16  1  0.50252178  0.82994839  0.16869215  1
  Fe  Fe17  1  0.33562318  0.66823415  0.33594723  1
  Cr  Cr18  1  0.66904539  1.00082697  1.00203237  1
  Ni  Ni19  1  0.83444775  0.17064572  0.16937848  1
  Ni  Ni20  1  0.66996324  1.00141936  0.33363884  1
  Ni  Ni21  1  0.67003408  0.33706300  1.00180549  1
  Ni  Ni22  1  0.83455090  0.50134635  0.16717614  1
  Ni  Ni23  1  0.66934673  0.33440756  0.33689737  1
  Ni  Ni24  1  0.67129357  0.66768926  1.00179798  1
  Fe  Fe25  1  0.83651890  0.83396371  0.16948216  1
  Fe  Fe26  1  0.67051390  0.66770610  0.33386478  1
  Cr  Cr27  1  0.16759732  0.16779153  0.50565887  1
  Fe  Fe28  1  1.00157666  1.00121455  0.67085157  1
  Fe  Fe29  1  0.16941963  0.16834331  0.83427434  1
  Fe  Fe30  1  0.16943844  0.50841611  0.50433735  1
  Cr  Cr31  1  1.00026308  0.34169827  0.67001330  1
  Ni  Ni32  1  0.16924169  0.50297229  0.83603497  1
  Ni  Ni33  1  0.16696103  0.83570874  0.50233917  1
  Fe  Fe34  1  0.00222002  0.67267068  0.66879034  1
  Ni  Ni35  1  0.16914755  0.83525667  0.83483713  1
  Fe  Fe36  1  0.50524404  0.16678948  0.50496754  1
  Ni  Ni37  1  0.33679092  1.00095428  0.67145739  1
  Fe  Fe38  1  0.50281823  0.17020661  0.83181585  1
  Fe  Fe39  1  0.50348079  0.50165779  0.50535527  1
  Ni  Ni40  1  0.33688863  0.33716605  0.66879607  1
  Ni  Ni41  1  0.50354226  0.50322558  0.83454749  1
  Cr  Cr42  1  0.50329628  0.83250257  0.50481165  1
  Ni  Ni43  1  0.33245417  0.66899962  0.67043900  1
  Ni  Ni44  1  0.50262299  0.83257586  0.83338194  1
  Fe  Fe45  1  0.83219943  0.16557308  0.50216057  1
  Ni  Ni46  1  0.66965995  1.00173220  0.67093529  1
  Fe  Fe47  1  0.83493659  0.16896317  0.83623495  1
  Fe  Fe48  1  0.83264698  0.50659599  0.50171567  1
  Ni  Ni49  1  0.66834709  0.33452248  0.66811962  1
  Fe  Fe50  1  0.83382524  0.50448063  0.83750895  1
  Ni  Ni51  1  0.83580669  0.83532352  0.50211643  1
  Fe  Fe52  1  0.66865647  0.66726295  0.67104506  1
  Fe  Fe53  1  0.83632422  0.83269418  0.83455390  1
" 