5341,Ni39Fe50Cr10_16,-235.467732202709, 210.210486188422,Ni39Fe50Cr10,"# generated using pymatgen
 data_Cr2Fe9Ni7
_symmetry_space_group_name_H-M   'P 1'
_cell_length_a   7.41713891
_cell_length_b   7.41713891
_cell_length_c   10.48941845
_cell_angle_alpha   90.00000000
_cell_angle_beta   90.00000000
_cell_angle_gamma   90.00000000
_symmetry_Int_Tables_number   1
_chemical_formula_structural   Cr2Fe9Ni7
_chemical_formula_sum   'Cr6 Fe27 Ni21'
_cell_volume   577.06433841
_cell_formula_units_Z   3
loop_
 _symmetry_equiv_pos_site_id
 _symmetry_equiv_pos_as_xyz
  1  'x, y, z'
loop_
 _atom_site_type_symbol
 _atom_site_label
 _atom_site_symmetry_multiplicity
 _atom_site_fract_x
 _atom_site_fract_y
 _atom_site_fract_z
 _atom_site_occupancy
  Fe  Fe0  1  0.00518528  1.00317262  0.00391793  1
  Ni  Ni1  1  0.17185538  0.17007345  0.16910974  1
  Fe  Fe2  1  0.00544228  1.00211128  0.33746840  1
  Fe  Fe3  1  0.00533004  0.33610133  1.00308374  1
  Fe  Fe4  1  0.17040820  0.50241027  0.17069286  1
  Ni  Ni5  1  0.00581454  0.33656690  0.33673567  1
  Cr  Cr6  1  1.00179990  0.66944767  0.00404165  1
  Ni  Ni7  1  0.17123715  0.83720436  0.17080337  1
  Fe  Fe8  1  0.00489719  0.67126745  0.33579398  1
  Ni  Ni9  1  0.33750873  0.00556212  1.00270451  1
  Fe  Fe10  1  0.50091652  0.16883474  0.16942498  1
  Ni  Ni11  1  0.33517029  0.00388250  0.33548039  1
  Ni  Ni12  1  0.33557514  0.33470469  0.00337524  1
  Fe  Fe13  1  0.50302585  0.50398842  0.17041471  1
  Ni  Ni14  1  0.33437042  0.33683804  0.33669522  1
  Fe  Fe15  1  0.33857826  0.67047415  0.00368818  1
  Fe  Fe16  1  0.50321486  0.83727127  0.17014994  1
  Ni  Ni17  1  0.33654319  0.66937271  0.33592871  1
  Ni  Ni18  1  0.66795229  1.00066987  0.00375098  1
  Cr  Cr19  1  0.83687528  0.17006793  0.17034559  1
  Fe  Fe20  1  0.67038707  1.00228575  0.33612770  1
  Fe  Fe21  1  0.66760380  0.33772372  1.00314754  1
  Fe  Fe22  1  0.83665857  0.50470863  0.17112375  1
  Fe  Fe23  1  0.66832340  0.33804211  0.33600162  1
  Ni  Ni24  1  0.67061004  0.67148639  1.00272639  1
  Ni  Ni25  1  0.83542754  0.83522518  0.17105868  1
  Ni  Ni26  1  0.67079184  0.67132824  0.33529600  1
  Ni  Ni27  1  0.16909603  0.17024724  0.50357921  1
  Fe  Fe28  1  0.00439567  0.00338300  0.66870839  1
  Ni  Ni29  1  0.17207716  0.17104102  0.83740308  1
  Fe  Fe30  1  0.17154755  0.50316520  0.50377658  1
  Ni  Ni31  1  0.00628938  0.33698206  0.67048052  1
  Ni  Ni32  1  0.17097796  0.50249512  0.83585489  1
  Ni  Ni33  1  0.16853327  0.83677852  0.50339477  1
  Fe  Fe34  1  0.00421657  0.67062069  0.67084522  1
  Fe  Fe35  1  0.17131773  0.83808350  0.83617707  1
  Cr  Cr36  1  0.50258521  0.17178816  0.50277898  1
  Fe  Fe37  1  0.33480902  0.00471045  0.67149667  1
  Ni  Ni38  1  0.50203761  0.16998744  0.83751087  1
  Fe  Fe39  1  0.50109999  0.50400253  0.50280746  1
  Ni  Ni40  1  0.33443903  0.33722532  0.67002309  1
  Fe  Fe41  1  0.50240687  0.50216331  0.83686779  1
  Cr  Cr42  1  0.50284730  0.83531058  0.50255574  1
  Fe  Fe43  1  0.33548175  0.66879197  0.67027890  1
  Fe  Fe44  1  0.50320116  0.83775160  0.83694892  1
  Fe  Fe45  1  0.83905900  0.16774721  0.50370187  1
  Ni  Ni46  1  0.67125447  1.00143209  0.67022644  1
  Cr  Cr47  1  0.83643675  0.17044037  0.83669389  1
  Cr  Cr48  1  0.83636374  0.50342424  0.50317679  1
  Fe  Fe49  1  0.66906247  0.33676899  0.67094361  1
  Fe  Fe50  1  0.83654027  0.50316687  0.83582213  1
  Ni  Ni51  1  0.83812937  0.83705287  0.50314364  1
  Fe  Fe52  1  0.67039495  0.66971856  0.67122102  1
  Fe  Fe53  1  0.83557517  0.83657783  0.83617352  1
" 