3195,Ni39Fe24Cr35_15,-225.962139932192, 180.583410278273,Ni39Fe24Cr35,"# generated using pymatgen
 data_Cr20Fe13Ni21
_symmetry_space_group_name_H-M   'P 1'
_cell_length_a   7.47467562
_cell_length_b   7.47467562
_cell_length_c   10.57078764
_cell_angle_alpha   90.00000000
_cell_angle_beta   90.00000000
_cell_angle_gamma   90.00000000
_symmetry_Int_Tables_number   1
_chemical_formula_structural   Cr20Fe13Ni21
_chemical_formula_sum   'Cr20 Fe13 Ni21'
_cell_volume   590.59810446
_cell_formula_units_Z   1
loop_
 _symmetry_equiv_pos_site_id
 _symmetry_equiv_pos_as_xyz
  1  'x, y, z'
loop_
 _atom_site_type_symbol
 _atom_site_label
 _atom_site_symmetry_multiplicity
 _atom_site_fract_x
 _atom_site_fract_y
 _atom_site_fract_z
 _atom_site_occupancy
  Fe  Fe0  1  0.00143143  0.99742139  0.99871013  1
  Ni  Ni1  1  0.16761951  0.16486877  0.16676049  1
  Fe  Fe2  1  0.99913959  0.99914925  0.33424413  1
  Cr  Cr3  1  0.00571849  0.33072882  0.00083812  1
  Fe  Fe4  1  0.16732316  0.49955386  0.16671703  1
  Fe  Fe5  1  0.00156566  0.33122986  0.33312452  1
  Ni  Ni6  1  0.99803618  0.66941166  0.99776566  1
  Cr  Cr7  1  0.16355123  0.83335811  0.16934254  1
  Ni  Ni8  1  0.00211546  0.66811689  0.33319715  1
  Fe  Fe9  1  0.32954900  0.00109618  0.00009794  1
  Ni  Ni10  1  0.49813839  0.16634756  0.16343061  1
  Ni  Ni11  1  0.33128861  0.00088752  0.33279029  1
  Ni  Ni12  1  0.33210722  0.32979686  0.00130678  1
  Ni  Ni13  1  0.49982215  0.49723474  0.16520692  1
  Cr  Cr14  1  0.33058026  0.33388755  0.33068720  1
  Cr  Cr15  1  0.33076835  0.66318070  -0.00005512  1
  Cr  Cr16  1  0.49852317  0.83466257  0.16781518  1
  Ni  Ni17  1  0.32835224  0.66515706  0.33351075  1
  Fe  Fe18  1  0.66736635  0.99861578  0.00161973  1
  Fe  Fe19  1  0.83285933  0.16220332  0.16655261  1
  Ni  Ni20  1  0.66960992  0.00053364  0.33118247  1
  Fe  Fe21  1  0.66394485  0.33426485  0.00254124  1
  Cr  Cr22  1  0.83473098  0.50202922  0.16467115  1
  Cr  Cr23  1  0.66593495  0.32844551  0.33131492  1
  Ni  Ni24  1  0.66771548  0.67067863  0.99882629  1
  Ni  Ni25  1  0.83449684  0.83369563  0.16508143  1
  Cr  Cr26  1  0.66620634  0.66893120  0.33517437  1
  Fe  Fe27  1  0.16306860  0.16451342  0.50008184  1
  Ni  Ni28  1  0.00131609  0.00129193  0.66513359  1
  Ni  Ni29  1  0.16764837  0.16386710  0.83008345  1
  Ni  Ni30  1  0.16519296  0.49992871  0.49813059  1
  Ni  Ni31  1  0.00600837  0.32845302  0.66466393  1
  Ni  Ni32  1  0.16557903  0.49862156  0.83389736  1
  Ni  Ni33  1  0.16432561  0.83329557  0.49722131  1
  Cr  Cr34  1  0.00162577  0.66957137  0.66860557  1
  Ni  Ni35  1  0.16560705  0.83595948  0.83344257  1
  Cr  Cr36  1  0.49711298  0.16484529  0.50075804  1
  Fe  Fe37  1  0.32691749  -0.00005602  0.66611135  1
  Cr  Cr38  1  0.49543100  0.16460786  0.83439901  1
  Fe  Fe39  1  0.49552794  0.49978821  0.49863820  1
  Ni  Ni40  1  0.32628737  0.33220528  0.66597739  1
  Cr  Cr41  1  0.50003011  0.49764020  0.83279331  1
  Cr  Cr42  1  0.49494793  0.83512400  0.49672635  1
  Cr  Cr43  1  0.33070511  0.66506234  0.66553388  1
  Fe  Fe44  1  0.49738560  0.83393203  0.83491144  1
  Ni  Ni45  1  0.83619846  0.16402189  0.49759072  1
  Cr  Cr46  1  0.67035129  0.99695268  0.66567961  1
  Cr  Cr47  1  0.83500229  0.16734167  0.83329617  1
  Cr  Cr48  1  0.83713899  0.49779513  0.50085683  1
  Cr  Cr49  1  0.66598524  0.33165830  0.66320406  1
  Cr  Cr50  1  0.83523228  0.50005646  0.83331763  1
  Ni  Ni51  1  0.83733631  0.83598814  0.49790703  1
  Cr  Cr52  1  0.66593589  0.66997179  0.66530172  1
  Fe  Fe53  1  0.83605282  0.83452157  0.83572863  1
" 