2637,Ni39Fe50Cr10_7,-235.163011618702, 207.817735541128,Ni39Fe50Cr10,"# generated using pymatgen
 data_Cr2Fe9Ni7
_symmetry_space_group_name_H-M   'P 1'
_cell_length_a   7.41811682
_cell_length_b   7.41811682
_cell_length_c   10.49080141
_cell_angle_alpha   90.00000000
_cell_angle_beta   90.00000000
_cell_angle_gamma   90.00000000
_symmetry_Int_Tables_number   1
_chemical_formula_structural   Cr2Fe9Ni7
_chemical_formula_sum   'Cr6 Fe27 Ni21'
_cell_volume   577.29261512
_cell_formula_units_Z   3
loop_
 _symmetry_equiv_pos_site_id
 _symmetry_equiv_pos_as_xyz
  1  'x, y, z'
loop_
 _atom_site_type_symbol
 _atom_site_label
 _atom_site_symmetry_multiplicity
 _atom_site_fract_x
 _atom_site_fract_y
 _atom_site_fract_z
 _atom_site_occupancy
  Ni  Ni0  1  0.00347515  1.00319491  1.00305157  1
  Ni  Ni1  1  0.17078530  0.16974250  0.17010755  1
  Fe  Fe2  1  0.00485473  0.00337172  0.33693554  1
  Fe  Fe3  1  0.00422625  0.33563674  1.00296838  1
  Fe  Fe4  1  0.17088028  0.50099566  0.17214075  1
  Ni  Ni5  1  0.00363926  0.33912963  0.33716101  1
  Cr  Cr6  1  1.00117968  0.66968466  1.00249436  1
  Fe  Fe7  1  0.17106762  0.83906495  0.17145755  1
  Ni  Ni8  1  1.00229910  0.66847788  0.33714624  1
  Ni  Ni9  1  0.33789134  0.00422401  0.00422326  1
  Ni  Ni10  1  0.49960197  0.16917547  0.17041289  1
  Ni  Ni11  1  0.33790680  0.00403969  0.33631021  1
  Fe  Fe12  1  0.33660712  0.33536020  0.00498164  1
  Ni  Ni13  1  0.50275990  0.50500602  0.17139716  1
  Ni  Ni14  1  0.33606594  0.33473212  0.33567832  1
  Cr  Cr15  1  0.33827422  0.67095188  0.00334677  1
  Ni  Ni16  1  0.50352583  0.83571158  0.17074096  1
  Fe  Fe17  1  0.33541026  0.67017435  0.33543927  1
  Ni  Ni18  1  0.66852942  1.00177186  1.00172949  1
  Cr  Cr19  1  0.83950915  0.16881225  0.16967762  1
  Fe  Fe20  1  0.66910875  1.00327549  0.33686519  1
  Cr  Cr21  1  0.66930623  0.33713985  1.00209646  1
  Fe  Fe22  1  0.83601885  0.50460282  0.17174836  1
  Fe  Fe23  1  0.66996917  0.33668331  0.33663942  1
  Ni  Ni24  1  0.67039571  0.67106632  1.00328793  1
  Fe  Fe25  1  0.83505782  0.83622697  0.16976776  1
  Fe  Fe26  1  0.67046582  0.66993355  0.33526303  1
  Fe  Fe27  1  0.16953533  0.17078584  0.50286606  1
  Fe  Fe28  1  1.00246151  1.00327635  0.66993504  1
  Cr  Cr29  1  0.16835363  0.16929231  0.83838979  1
  Fe  Fe30  1  0.16713559  0.50247908  0.50290077  1
  Ni  Ni31  1  1.00134038  0.33872535  0.66940307  1
  Fe  Fe32  1  0.16929111  0.50348400  0.83484678  1
  Fe  Fe33  1  0.16949404  0.83663066  0.50316649  1
  Fe  Fe34  1  0.00332042  0.66974572  0.66976422  1
  Fe  Fe35  1  0.16974975  0.83678412  0.83526708  1
  Fe  Fe36  1  0.50352953  0.16868923  0.50265277  1
  Ni  Ni37  1  0.33843993  1.00210602  0.66936635  1
  Fe  Fe38  1  0.50499172  0.16865986  0.83641951  1
  Cr  Cr39  1  0.50315528  0.50419411  0.50270046  1
  Fe  Fe40  1  0.33644080  0.33655249  0.66979137  1
  Ni  Ni41  1  0.50350486  0.50539037  0.83556370  1
  Fe  Fe42  1  0.50374478  0.83855104  0.50341151  1
  Fe  Fe43  1  0.33587334  0.67064915  0.67129888  1
  Ni  Ni44  1  0.50424631  0.83540813  0.83619813  1
  Ni  Ni45  1  0.83858451  0.17016279  0.50360738  1
  Fe  Fe46  1  0.67037567  0.00384299  0.67066089  1
  Ni  Ni47  1  0.83805890  0.16892130  0.83604736  1
  Ni  Ni48  1  0.83808910  0.50240652  0.50280741  1
  Fe  Fe49  1  0.67127768  0.33568909  0.67094063  1
  Ni  Ni50  1  0.83574899  0.50356975  0.83536150  1
  Fe  Fe51  1  0.83665987  0.83614685  0.50337553  1
  Fe  Fe52  1  0.67069675  0.67036205  0.67178301  1
  Ni  Ni53  1  0.83518384  0.83740371  0.83650087  1
" 