4082,Ni39Fe24Cr35_4,-226.143502804172, 187.05065064306,Ni39Fe24Cr35,"# generated using pymatgen
 data_Cr20Fe13Ni21
_symmetry_space_group_name_H-M   'P 1'
_cell_length_a   7.47120613
_cell_length_b   7.47120613
_cell_length_c   10.56588104
_cell_angle_alpha   90.00000000
_cell_angle_beta   90.00000000
_cell_angle_gamma   90.00000000
_symmetry_Int_Tables_number   1
_chemical_formula_structural   Cr20Fe13Ni21
_chemical_formula_sum   'Cr20 Fe13 Ni21'
_cell_volume   589.77607979
_cell_formula_units_Z   1
loop_
 _symmetry_equiv_pos_site_id
 _symmetry_equiv_pos_as_xyz
  1  'x, y, z'
loop_
 _atom_site_type_symbol
 _atom_site_label
 _atom_site_symmetry_multiplicity
 _atom_site_fract_x
 _atom_site_fract_y
 _atom_site_fract_z
 _atom_site_occupancy
  Cr  Cr0  1  0.99886237  0.99924687  0.99822695  1
  Cr  Cr1  1  0.16592348  0.16756037  0.17000868  1
  Ni  Ni2  1  0.99825799  0.00053598  0.33679110  1
  Fe  Fe3  1  0.99772252  0.33484833  0.00015035  1
  Cr  Cr4  1  0.16566702  0.50150854  0.16435838  1
  Ni  Ni5  1  0.99636845  0.33527334  0.33464703  1
  Ni  Ni6  1  0.99952952  0.66426590  0.99794507  1
  Cr  Cr7  1  0.16501590  0.83069768  0.16785542  1
  Ni  Ni8  1  0.99835336  0.66377816  0.33544366  1
  Cr  Cr9  1  0.33429731  0.99755079  0.00008222  1
  Ni  Ni10  1  0.50191508  0.16869023  0.16754428  1
  Ni  Ni11  1  0.33313244  0.99848332  0.33285791  1
  Cr  Cr12  1  0.33600496  0.33501213  0.99828698  1
  Ni  Ni13  1  0.50132353  0.50023906  0.16851347  1
  Cr  Cr14  1  0.33202052  0.33543724  0.33599807  1
  Ni  Ni15  1  0.33291115  0.66604755  0.99903273  1
  Fe  Fe16  1  0.49764061  0.83051180  0.16827236  1
  Ni  Ni17  1  0.33379787  0.66557987  0.33340187  1
  Cr  Cr18  1  0.66574782  0.00124847  0.99830134  1
  Fe  Fe19  1  0.83343116  0.16918961  0.16886848  1
  Cr  Cr20  1  0.66636165  0.99951566  0.33273133  1
  Cr  Cr21  1  0.66780168  0.33345200  0.00007073  1
  Fe  Fe22  1  0.83347392  0.49849942  0.16769572  1
  Fe  Fe23  1  0.66824302  0.33527311  0.33260244  1
  Cr  Cr24  1  0.66574049  0.66446501  0.00012242  1
  Cr  Cr25  1  0.83351191  0.83070976  0.16840005  1
  Fe  Fe26  1  0.66677265  0.66382055  0.33523748  1
  Ni  Ni27  1  0.16317300  0.16994232  0.49899929  1
  Fe  Fe28  1  0.99959733  0.00037326  0.66433787  1
  Cr  Cr29  1  0.16530661  0.16864349  0.83017445  1
  Ni  Ni30  1  0.16598706  0.49939954  0.50037439  1
  Fe  Fe31  1  0.99931453  0.33482193  0.66366586  1
  Cr  Cr32  1  0.16579453  0.50128493  0.83361019  1
  Cr  Cr33  1  0.16627660  0.83136499  0.49813732  1
  Fe  Fe34  1  0.00018029  0.66427918  0.66520364  1
  Ni  Ni35  1  0.16819551  0.82994691  0.83286272  1
  Cr  Cr36  1  0.49922127  0.16696337  0.50008234  1
  Cr  Cr37  1  0.33165039  0.99780415  0.66590619  1
  Fe  Fe38  1  0.50003891  0.16717380  0.83105130  1
  Fe  Fe39  1  0.49871192  0.50291230  0.50025292  1
  Ni  Ni40  1  0.33122641  0.33727558  0.66471736  1
  Fe  Fe41  1  0.50074695  0.50254986  0.83097809  1
  Ni  Ni42  1  0.50172125  0.82872529  0.49742963  1
  Ni  Ni43  1  0.33406148  0.66445527  0.66663203  1
  Ni  Ni44  1  0.49851282  0.82887779  0.83325544  1
  Ni  Ni45  1  0.83553998  0.16693531  0.49827518  1
  Cr  Cr46  1  0.66864298  0.99806677  0.66809083  1
  Ni  Ni47  1  0.83377521  0.17003758  0.83290844  1
  Fe  Fe48  1  0.83452862  0.50074864  0.49993023  1
  Cr  Cr49  1  0.66764865  0.33577377  0.66632404  1
  Ni  Ni50  1  0.83350892  0.49873908  0.83285300  1
  Ni  Ni51  1  0.83170336  0.83134665  0.50096554  1
  Ni  Ni52  1  0.66633989  0.66503210  0.66459495  1
  Cr  Cr53  1  0.83373877  0.83005701  0.82991186  1
" 