5174,Ni39Fe44Cr16_0,-232.558596667942, 201.058282282411,Ni39Fe44Cr16,"# generated using pymatgen
 data_Cr10Fe23Ni21
_symmetry_space_group_name_H-M   'P 1'
_cell_length_a   7.43223909
_cell_length_b   7.43223909
_cell_length_c   10.51077332
_cell_angle_alpha   90.00000000
_cell_angle_beta   90.00000000
_cell_angle_gamma   90.00000000
_symmetry_Int_Tables_number   1
_chemical_formula_structural   Cr10Fe23Ni21
_chemical_formula_sum   'Cr10 Fe23 Ni21'
_cell_volume   580.59596711
_cell_formula_units_Z   1
loop_
 _symmetry_equiv_pos_site_id
 _symmetry_equiv_pos_as_xyz
  1  'x, y, z'
loop_
 _atom_site_type_symbol
 _atom_site_label
 _atom_site_symmetry_multiplicity
 _atom_site_fract_x
 _atom_site_fract_y
 _atom_site_fract_z
 _atom_site_occupancy
  Ni  Ni0  1  1.00041686  0.99913702  0.00302080  1
  Ni  Ni1  1  0.16672563  0.16961089  0.17041546  1
  Cr  Cr2  1  0.00288127  1.00003441  0.33463932  1
  Fe  Fe3  1  1.00048686  0.33471728  0.00355246  1
  Fe  Fe4  1  0.16633082  0.50312098  0.16968630  1
  Fe  Fe5  1  1.00104851  0.33577945  0.33502230  1
  Ni  Ni6  1  1.00194860  0.66858866  0.00259088  1
  Fe  Fe7  1  0.16675063  0.83487792  0.16881574  1
  Ni  Ni8  1  0.00357721  0.66643217  0.33500625  1
  Cr  Cr9  1  0.33551446  0.00445071  1.00188965  1
  Fe  Fe10  1  0.50467444  0.16997116  0.17158954  1
  Ni  Ni11  1  0.33600336  0.00411556  0.33716739  1
  Cr  Cr12  1  0.33651724  0.33623873  0.00516959  1
  Fe  Fe13  1  0.50458667  0.50011886  0.17071986  1
  Fe  Fe14  1  0.33463568  0.33519100  0.33593804  1
  Fe  Fe15  1  0.33314478  0.67166108  1.00232118  1
  Cr  Cr16  1  0.50282926  0.83451683  0.17145989  1
  Fe  Fe17  1  0.33466757  0.66925703  0.33744312  1
  Ni  Ni18  1  0.67099850  0.00309736  1.00177895  1
  Ni  Ni19  1  0.83629811  0.17002012  0.16915061  1
  Ni  Ni20  1  0.66765854  0.00532113  0.33545431  1
  Fe  Fe21  1  0.67317987  0.33427210  0.00323279  1
  Ni  Ni22  1  0.83535341  0.50151984  0.16933956  1
  Ni  Ni23  1  0.66767061  0.33615184  0.33635588  1
  Fe  Fe24  1  0.67138121  0.67099980  0.00272975  1
  Fe  Fe25  1  0.83646465  0.83514560  0.16867417  1
  Fe  Fe26  1  0.66976923  0.66803888  0.33586204  1
  Fe  Fe27  1  0.17049718  0.16822861  0.50141020  1
  Fe  Fe28  1  1.00202420  1.00122384  0.66875109  1
  Cr  Cr29  1  0.16361105  0.16929849  0.83390223  1
  Ni  Ni30  1  0.16765750  0.50252607  0.50142320  1
  Fe  Fe31  1  0.99889149  0.33831918  0.66804647  1
  Ni  Ni32  1  0.16720044  0.50418616  0.83690926  1
  Ni  Ni33  1  0.17034950  0.83440459  0.50318594  1
  Ni  Ni34  1  0.00523471  0.66857528  0.66952138  1
  Ni  Ni35  1  0.16958948  0.83401776  0.83480039  1
  Ni  Ni36  1  0.50351324  0.16907965  0.50081336  1
  Fe  Fe37  1  0.33516226  0.99917073  0.66744461  1
  Fe  Fe38  1  0.50332504  0.16863891  0.83548036  1
  Ni  Ni39  1  0.50208164  0.50215120  0.49963779  1
  Cr  Cr40  1  0.33749355  0.33568421  0.66723242  1
  Cr  Cr41  1  0.50302264  0.50447170  0.83766034  1
  Ni  Ni42  1  0.50013710  0.83558305  0.50105597  1
  Fe  Fe43  1  0.33523068  0.66952774  0.66781608  1
  Ni  Ni44  1  0.50201864  0.83513615  0.83506295  1
  Fe  Fe45  1  0.83474214  0.17212254  0.50162418  1
  Cr  Cr46  1  0.66754532  0.00344381  0.66901833  1
  Ni  Ni47  1  0.83537626  0.17032931  0.83665002  1
  Fe  Fe48  1  0.83628410  0.50095977  0.50047934  1
  Ni  Ni49  1  0.66950335  0.33557525  0.66912225  1
  Fe  Fe50  1  0.83887434  0.50199739  0.83678062  1
  Cr  Cr51  1  0.83557963  0.83649229  0.49953246  1
  Cr  Cr52  1  0.67192746  0.66721317  0.66733430  1
  Fe  Fe53  1  0.83806617  0.83570987  0.83673173  1
" 