4007,Ni39Fe44Cr16_12,-232.974380789321, 199.530136137479,Ni39Fe44Cr16,"# generated using pymatgen
 data_Cr10Fe23Ni21
_symmetry_space_group_name_H-M   'P 1'
_cell_length_a   7.43615280
_cell_length_b   7.43615280
_cell_length_c   10.51630814
_cell_angle_alpha   90.00000000
_cell_angle_beta   90.00000000
_cell_angle_gamma   90.00000000
_symmetry_Int_Tables_number   1
_chemical_formula_structural   Cr10Fe23Ni21
_chemical_formula_sum   'Cr10 Fe23 Ni21'
_cell_volume   581.51365035
_cell_formula_units_Z   1
loop_
 _symmetry_equiv_pos_site_id
 _symmetry_equiv_pos_as_xyz
  1  'x, y, z'
loop_
 _atom_site_type_symbol
 _atom_site_label
 _atom_site_symmetry_multiplicity
 _atom_site_fract_x
 _atom_site_fract_y
 _atom_site_fract_z
 _atom_site_occupancy
  Cr  Cr0  1  1.00109003  1.00095603  0.00231190  1
  Fe  Fe1  1  0.16838258  0.17037058  0.17014258  1
  Ni  Ni2  1  1.00047024  0.00394323  0.33677589  1
  Fe  Fe3  1  0.00214171  0.33865704  0.00352425  1
  Fe  Fe4  1  0.16869778  0.50114254  0.16813688  1
  Ni  Ni5  1  1.00128894  0.33437978  0.33478643  1
  Ni  Ni6  1  0.00217780  0.66652484  1.00080122  1
  Cr  Cr7  1  0.16930835  0.83544762  0.16904465  1
  Cr  Cr8  1  0.00270043  0.66800034  0.33582128  1
  Fe  Fe9  1  0.33813356  1.00117649  1.00083350  1
  Fe  Fe10  1  0.50355105  0.16775810  0.16863268  1
  Fe  Fe11  1  0.33584062  1.00179942  0.33493364  1
  Fe  Fe12  1  0.33592983  0.33587164  1.00161568  1
  Fe  Fe13  1  0.50298975  0.50351523  0.16894572  1
  Fe  Fe14  1  0.33522752  0.33633063  0.33465758  1
  Ni  Ni15  1  0.33566056  0.66756217  1.00127481  1
  Ni  Ni16  1  0.50359471  0.83624036  0.16845594  1
  Fe  Fe17  1  0.33738627  0.66810647  0.33633031  1
  Ni  Ni18  1  0.66624754  1.00170576  0.00267181  1
  Fe  Fe19  1  0.83429450  0.16857656  0.17012894  1
  Ni  Ni20  1  0.66919811  0.00282978  0.33490321  1
  Fe  Fe21  1  0.66815544  0.33680554  0.00290038  1
  Ni  Ni22  1  0.83460256  0.50094660  0.16694730  1
  Ni  Ni23  1  0.66920958  0.33466312  0.33481699  1
  Ni  Ni24  1  0.66839565  0.66917006  1.00177358  1
  Ni  Ni25  1  0.83244862  0.83495778  0.16787010  1
  Fe  Fe26  1  0.66875554  0.66870651  0.33546494  1
  Cr  Cr27  1  0.16720925  0.16884830  0.50247022  1
  Fe  Fe28  1  1.00172310  0.99876507  0.66847531  1
  Fe  Fe29  1  0.17017045  0.16916213  0.83518538  1
  Ni  Ni30  1  0.16882322  0.50224777  0.50216087  1
  Fe  Fe31  1  0.00317471  0.33798497  0.66783092  1
  Fe  Fe32  1  0.16771455  0.50228295  0.83594394  1
  Ni  Ni33  1  0.16674248  0.83482838  0.50150632  1
  Ni  Ni34  1  1.00157642  0.66839821  0.66916343  1
  Ni  Ni35  1  0.16743200  0.83442901  0.83595691  1
  Cr  Cr36  1  0.50266472  0.17054795  0.50015454  1
  Cr  Cr37  1  0.33444570  1.00163625  0.67097966  1
  Ni  Ni38  1  0.49948625  0.17013376  0.83826850  1
  Ni  Ni39  1  0.50266898  0.50251654  0.50060830  1
  Fe  Fe40  1  0.33460870  0.33761696  0.66996060  1
  Fe  Fe41  1  0.50238965  0.50290302  0.83640806  1
  Fe  Fe42  1  0.50294071  0.83210711  0.49954042  1
  Cr  Cr43  1  0.33458797  0.66777260  0.66749248  1
  Fe  Fe44  1  0.50334948  0.83509864  0.83846739  1
  Fe  Fe45  1  0.83727063  0.16924806  0.49983837  1
  Cr  Cr46  1  0.66972911  1.00009838  0.66838566  1
  Cr  Cr47  1  0.83463143  0.16871296  0.83502600  1
  Ni  Ni48  1  0.83474542  0.50306284  0.50326124  1
  Cr  Cr49  1  0.66859399  0.33747266  0.66801396  1
  Fe  Fe50  1  0.83612664  0.50539150  0.83606013  1
  Ni  Ni51  1  0.83626830  0.83456924  0.50261471  1
  Ni  Ni52  1  0.67084189  0.66809593  0.66815306  1
  Ni  Ni53  1  0.83638125  0.83210084  0.83574771  1
" 