2772,Ni39Fe44Cr16_1,-233.536791091818, 197.854397296478,Ni39Fe44Cr16,"# generated using pymatgen
 data_Cr10Fe23Ni21
_symmetry_space_group_name_H-M   'P 1'
_cell_length_a   7.44557027
_cell_length_b   7.44557027
_cell_length_c   10.52962645
_cell_angle_alpha   90.00000000
_cell_angle_beta   90.00000000
_cell_angle_gamma   90.00000000
_symmetry_Int_Tables_number   1
_chemical_formula_structural   Cr10Fe23Ni21
_chemical_formula_sum   'Cr10 Fe23 Ni21'
_cell_volume   583.72581200
_cell_formula_units_Z   1
loop_
 _symmetry_equiv_pos_site_id
 _symmetry_equiv_pos_as_xyz
  1  'x, y, z'
loop_
 _atom_site_type_symbol
 _atom_site_label
 _atom_site_symmetry_multiplicity
 _atom_site_fract_x
 _atom_site_fract_y
 _atom_site_fract_z
 _atom_site_occupancy
  Ni  Ni0  1  1.00043311  0.99981658  0.00313424  1
  Ni  Ni1  1  0.16924762  0.16733513  0.16871951  1
  Cr  Cr2  1  1.00117614  1.00137649  0.33356246  1
  Cr  Cr3  1  1.00021218  0.33458562  0.00236998  1
  Ni  Ni4  1  0.17095513  0.50234690  0.16931729  1
  Fe  Fe5  1  0.00415841  0.33562603  0.33528522  1
  Ni  Ni6  1  0.00265639  0.67066894  0.00184376  1
  Ni  Ni7  1  0.16957920  0.83464742  0.16628952  1
  Ni  Ni8  1  0.00271189  0.66720438  0.33388860  1
  Fe  Fe9  1  0.33553932  1.00043470  0.00374551  1
  Fe  Fe10  1  0.50048457  0.16722042  0.16750118  1
  Ni  Ni11  1  0.33600886  1.00127037  0.33381221  1
  Fe  Fe12  1  0.33618061  0.33697215  0.00247900  1
  Ni  Ni13  1  0.49920113  0.50284771  0.16687980  1
  Fe  Fe14  1  0.33244757  0.33529615  0.33402328  1
  Ni  Ni15  1  0.33506749  0.66775431  0.00231093  1
  Ni  Ni16  1  0.50080178  0.83436938  0.16856601  1
  Ni  Ni17  1  0.33444300  0.66802473  0.33383818  1
  Fe  Fe18  1  0.66921411  1.00035626  0.00159518  1
  Ni  Ni19  1  0.83444617  0.16573162  0.16671752  1
  Fe  Fe20  1  0.66679415  0.99914182  0.33496008  1
  Ni  Ni21  1  0.66591086  0.33384368  1.00044465  1
  Cr  Cr22  1  0.83438033  0.50275726  0.16802050  1
  Cr  Cr23  1  0.66794980  0.33405217  0.33347265  1
  Ni  Ni24  1  0.66660143  0.66765419  1.00069304  1
  Ni  Ni25  1  0.83394357  0.83607633  0.16764905  1
  Fe  Fe26  1  0.66712521  0.67074456  0.33453894  1
  Fe  Fe27  1  0.16799241  0.17149241  0.50028626  1
  Cr  Cr28  1  0.99839676  0.00297226  0.66740577  1
  Cr  Cr29  1  0.16828582  0.16946291  0.83428417  1
  Fe  Fe30  1  0.16787053  0.49986329  0.50070070  1
  Fe  Fe31  1  1.00022295  0.33545836  0.66722603  1
  Ni  Ni32  1  0.16979389  0.50198379  0.83353955  1
  Cr  Cr33  1  0.17067708  0.83383190  0.50042869  1
  Cr  Cr34  1  0.00185770  0.66604155  0.66908209  1
  Cr  Cr35  1  0.16902549  0.83268001  0.83809860  1
  Fe  Fe36  1  0.50264003  0.16812036  0.50192602  1
  Cr  Cr37  1  0.33727611  1.00083199  0.66715348  1
  Fe  Fe38  1  0.50354216  0.16937430  0.83489390  1
  Fe  Fe39  1  0.50148231  0.50195723  0.50198848  1
  Fe  Fe40  1  0.33574488  0.33698351  0.66782096  1
  Fe  Fe41  1  0.50078713  0.50160141  0.83546975  1
  Fe  Fe42  1  0.50375100  0.83424828  0.50048591  1
  Ni  Ni43  1  0.33681022  0.66501089  0.66817795  1
  Fe  Fe44  1  0.50261181  0.83334863  0.83558787  1
  Ni  Ni45  1  0.83352101  0.16994525  0.50374915  1
  Ni  Ni46  1  0.66822308  0.00393227  0.66758813  1
  Fe  Fe47  1  0.83226097  0.16842481  0.83460782  1
  Ni  Ni48  1  0.83421098  0.50006114  0.50228380  1
  Ni  Ni49  1  0.66829539  0.33376241  0.66886259  1
  Fe  Fe50  1  0.83384680  0.50138198  0.83483929  1
  Fe  Fe51  1  0.83160445  0.83412663  0.50046461  1
  Fe  Fe52  1  0.66650825  0.66830953  0.66824850  1
  Fe  Fe53  1  0.83297440  0.83452126  0.83702525  1
" 