4000,Ni39Fe24Cr35_19,-226.015249348049, 181.442886241766,Ni39Fe24Cr35,"# generated using pymatgen
 data_Cr20Fe13Ni21
_symmetry_space_group_name_H-M   'P 1'
_cell_length_a   7.47949616
_cell_length_b   7.47949616
_cell_length_c   10.57760491
_cell_angle_alpha   90.00000000
_cell_angle_beta   90.00000000
_cell_angle_gamma   90.00000000
_symmetry_Int_Tables_number   1
_chemical_formula_structural   Cr20Fe13Ni21
_chemical_formula_sum   'Cr20 Fe13 Ni21'
_cell_volume   591.74150009
_cell_formula_units_Z   1
loop_
 _symmetry_equiv_pos_site_id
 _symmetry_equiv_pos_as_xyz
  1  'x, y, z'
loop_
 _atom_site_type_symbol
 _atom_site_label
 _atom_site_symmetry_multiplicity
 _atom_site_fract_x
 _atom_site_fract_y
 _atom_site_fract_z
 _atom_site_occupancy
  Ni  Ni0  1  0.99916658  -0.00081570  0.99816537  1
  Ni  Ni1  1  0.16601943  0.16535568  0.16516394  1
  Ni  Ni2  1  -0.00032397  0.00051426  0.33215772  1
  Cr  Cr3  1  0.99787546  0.33229134  0.00266294  1
  Ni  Ni4  1  0.16563990  0.49568025  0.16538602  1
  Fe  Fe5  1  0.00026973  0.33298134  0.33088626  1
  Ni  Ni6  1  0.00029624  0.66880776  0.00170175  1
  Fe  Fe7  1  0.16188357  0.83314838  0.16526767  1
  Fe  Fe8  1  -0.00005299  0.66429827  0.33229204  1
  Fe  Fe9  1  0.33160383  0.00041793  -0.00011737  1
  Fe  Fe10  1  0.49746189  0.16821309  0.16622435  1
  Cr  Cr11  1  0.32986360  0.00069507  0.33049681  1
  Ni  Ni12  1  0.33382549  0.32960768  0.99852492  1
  Cr  Cr13  1  0.49861607  0.49998954  0.16694171  1
  Ni  Ni14  1  0.33132447  0.33306711  0.33407240  1
  Cr  Cr15  1  0.33004549  0.66714129  0.99874885  1
  Fe  Fe16  1  0.49895084  0.83355464  0.16519216  1
  Cr  Cr17  1  0.33002352  0.66556528  0.33415546  1
  Fe  Fe18  1  0.66650968  -0.00014893  0.99842849  1
  Ni  Ni19  1  0.83561502  0.16406840  0.16628016  1
  Cr  Cr20  1  0.66576115  0.00294285  0.33053827  1
  Cr  Cr21  1  0.66622066  0.32920600  0.00057698  1
  Ni  Ni22  1  0.83421431  0.49873503  0.16946781  1
  Fe  Fe23  1  0.66580832  0.33314875  0.33239934  1
  Cr  Cr24  1  0.66651007  0.66518888  0.99709919  1
  Cr  Cr25  1  0.83096571  0.83134423  0.16621359  1
  Ni  Ni26  1  0.66727958  0.66214816  0.33385992  1
  Cr  Cr27  1  0.16550592  0.16654313  0.50091824  1
  Fe  Fe28  1  0.99707028  0.99761168  0.66748488  1
  Cr  Cr29  1  0.16464354  0.16670399  0.82994146  1
  Ni  Ni30  1  0.16527513  0.49676965  0.49884301  1
  Ni  Ni31  1  0.99769350  0.33246979  0.66414224  1
  Cr  Cr32  1  0.16819803  0.49685059  0.83428043  1
  Ni  Ni33  1  0.16217706  0.83266540  0.49696645  1
  Cr  Cr34  1  0.00117758  0.66438986  0.66537102  1
  Ni  Ni35  1  0.16563262  0.83614416  0.83516521  1
  Ni  Ni36  1  0.49894855  0.16908428  0.49893327  1
  Cr  Cr37  1  0.33311118  0.99684263  0.66287113  1
  Fe  Fe38  1  0.49769925  0.16560278  0.83207009  1
  Ni  Ni39  1  0.50026070  0.49720584  0.49933353  1
  Fe  Fe40  1  0.33440828  0.33415490  0.66432904  1
  Ni  Ni41  1  0.49961964  0.49977863  0.83085065  1
  Cr  Cr42  1  0.50287548  0.83210324  0.49755828  1
  Cr  Cr43  1  0.33279219  0.66642263  0.66421172  1
  Ni  Ni44  1  0.50123308  0.83440783  0.83350585  1
  Cr  Cr45  1  0.83355807  0.16481138  0.49934250  1
  Ni  Ni46  1  0.66522407  0.00011450  0.66972346  1
  Fe  Fe47  1  0.83231271  0.16290707  0.83238089  1
  Ni  Ni48  1  0.83222740  0.49940074  0.49563438  1
  Cr  Cr49  1  0.66743279  0.33261627  0.66510987  1
  Cr  Cr50  1  0.83324773  0.50039651  0.83349699  1
  Cr  Cr51  1  0.83223487  0.83177108  0.50073240  1
  Ni  Ni52  1  0.66548960  0.66606378  0.66656351  1
  Fe  Fe53  1  0.83363950  0.83408343  0.83251507  1
" 