469,Ni39Fe50Cr10_6,-235.535226975389, 206.677307879217,Ni39Fe50Cr10,"# generated using pymatgen
 data_Cr2Fe9Ni7
_symmetry_space_group_name_H-M   'P 1'
_cell_length_a   7.42688750
_cell_length_b   7.42688750
_cell_length_c   10.50320502
_cell_angle_alpha   90.00000000
_cell_angle_beta   90.00000000
_cell_angle_gamma   90.00000000
_symmetry_Int_Tables_number   1
_chemical_formula_structural   Cr2Fe9Ni7
_chemical_formula_sum   'Cr6 Fe27 Ni21'
_cell_volume   579.34269258
_cell_formula_units_Z   3
loop_
 _symmetry_equiv_pos_site_id
 _symmetry_equiv_pos_as_xyz
  1  'x, y, z'
loop_
 _atom_site_type_symbol
 _atom_site_label
 _atom_site_symmetry_multiplicity
 _atom_site_fract_x
 _atom_site_fract_y
 _atom_site_fract_z
 _atom_site_occupancy
  Ni  Ni0  1  0.00279265  0.00308053  0.00308317  1
  Fe  Fe1  1  0.16826823  0.16821188  0.16921053  1
  Fe  Fe2  1  0.00297965  0.00406491  0.33602286  1
  Ni  Ni3  1  0.00473630  0.33541570  0.00299338  1
  Fe  Fe4  1  0.16750487  0.50223858  0.16805205  1
  Ni  Ni5  1  1.00047889  0.33537981  0.33607612  1
  Fe  Fe6  1  1.00215188  0.66969723  1.00238758  1
  Fe  Fe7  1  0.16878001  0.83765994  0.16826809  1
  Fe  Fe8  1  1.00181596  0.66840590  0.33620174  1
  Fe  Fe9  1  0.33628928  1.00245380  0.00286945  1
  Fe  Fe10  1  0.50337608  0.16728276  0.16983919  1
  Ni  Ni11  1  0.33520318  1.00095638  0.33554227  1
  Fe  Fe12  1  0.33468971  0.33617818  1.00227712  1
  Fe  Fe13  1  0.50439113  0.50342716  0.16821132  1
  Cr  Cr14  1  0.33516588  0.33557817  0.33541824  1
  Fe  Fe15  1  0.33616157  0.66947997  1.00204387  1
  Ni  Ni16  1  0.50375250  0.83695158  0.16813168  1
  Cr  Cr17  1  0.33658645  0.67129875  0.33724464  1
  Ni  Ni18  1  0.66978367  1.00020869  0.00324673  1
  Ni  Ni19  1  0.83672642  0.16919091  0.17088426  1
  Fe  Fe20  1  0.66941517  1.00270345  0.33466393  1
  Cr  Cr21  1  0.66989203  0.33638137  1.00208751  1
  Fe  Fe22  1  0.83621571  0.50291781  0.17024798  1
  Ni  Ni23  1  0.67253365  0.33675154  0.33556307  1
  Ni  Ni24  1  0.66818841  0.67139499  0.00323962  1
  Fe  Fe25  1  0.83528571  0.83663972  0.16857779  1
  Fe  Fe26  1  0.67006989  0.66925811  0.33599823  1
  Ni  Ni27  1  0.16618674  0.16866530  0.50288457  1
  Ni  Ni28  1  0.00481661  0.00338296  0.66876502  1
  Fe  Fe29  1  0.16847447  0.16885617  0.83608091  1
  Ni  Ni30  1  0.16626457  0.50285978  0.50373909  1
  Ni  Ni31  1  1.00141833  0.33536086  0.66904999  1
  Ni  Ni32  1  0.16872658  0.50360080  0.83719536  1
  Fe  Fe33  1  0.16986565  0.83746790  0.50423970  1
  Fe  Fe34  1  0.00340013  0.66920631  0.66952366  1
  Ni  Ni35  1  0.16929616  0.83587077  0.83515912  1
  Cr  Cr36  1  0.50309414  0.16795632  0.50174541  1
  Ni  Ni37  1  0.33288105  0.99915462  0.66979710  1
  Fe  Fe38  1  0.50131034  0.16903132  0.83637373  1
  Fe  Fe39  1  0.50447592  0.50480255  0.50429297  1
  Cr  Cr40  1  0.33481081  0.33763222  0.66925972  1
  Ni  Ni41  1  0.50293523  0.50403670  0.83520067  1
  Ni  Ni42  1  0.50280814  0.83493003  0.50344924  1
  Ni  Ni43  1  0.33679457  0.67100274  0.66892240  1
  Fe  Fe44  1  0.50130153  0.83414706  0.83652490  1
  Fe  Fe45  1  0.83879889  0.17087031  0.50175670  1
  Cr  Cr46  1  0.67012680  1.00172079  0.67088575  1
  Fe  Fe47  1  0.83832841  0.16988953  0.83656339  1
  Fe  Fe48  1  0.83600573  0.50183427  0.50275891  1
  Ni  Ni49  1  0.67205762  0.33927803  0.66993399  1
  Fe  Fe50  1  0.83680329  0.50358106  0.83510353  1
  Fe  Fe51  1  0.83697656  0.83540361  0.50245697  1
  Ni  Ni52  1  0.66782649  0.66760835  0.66887551  1
  Fe  Fe53  1  0.83698005  0.83464149  0.83707894  1
" 