4060,Ni39Fe44Cr16_16,-232.911062894887, 205.42891847515,Ni39Fe44Cr16,"# generated using pymatgen
 data_Cr10Fe23Ni21
_symmetry_space_group_name_H-M   'P 1'
_cell_length_a   7.43417451
_cell_length_b   7.43417451
_cell_length_c   10.51351042
_cell_angle_alpha   90.00000000
_cell_angle_beta   90.00000000
_cell_angle_gamma   90.00000000
_symmetry_Int_Tables_number   1
_chemical_formula_structural   Cr10Fe23Ni21
_chemical_formula_sum   'Cr10 Fe23 Ni21'
_cell_volume   581.04966146
_cell_formula_units_Z   1
loop_
 _symmetry_equiv_pos_site_id
 _symmetry_equiv_pos_as_xyz
  1  'x, y, z'
loop_
 _atom_site_type_symbol
 _atom_site_label
 _atom_site_symmetry_multiplicity
 _atom_site_fract_x
 _atom_site_fract_y
 _atom_site_fract_z
 _atom_site_occupancy
  Ni  Ni0  1  0.00361620  0.00417152  0.00256102  1
  Ni  Ni1  1  0.16760140  0.16928616  0.16860918  1
  Fe  Fe2  1  1.00217681  0.00312685  0.33580730  1
  Ni  Ni3  1  1.00162437  0.33408248  0.00251683  1
  Ni  Ni4  1  0.16708274  0.50249509  0.16936100  1
  Ni  Ni5  1  0.00448892  0.33559153  0.33477171  1
  Fe  Fe6  1  1.00138465  0.66773413  0.00339599  1
  Cr  Cr7  1  0.16939806  0.83530081  0.16766650  1
  Fe  Fe8  1  0.00231158  0.66672215  0.33622112  1
  Ni  Ni9  1  0.33283834  1.00171507  1.00125310  1
  Cr  Cr10  1  0.50278678  0.16895415  0.17086386  1
  Fe  Fe11  1  0.33613999  0.00379094  0.33713636  1
  Cr  Cr12  1  0.33374197  0.33501323  0.00265698  1
  Fe  Fe13  1  0.50083736  0.50228936  0.16989251  1
  Ni  Ni14  1  0.33325871  0.33652942  0.33636036  1
  Fe  Fe15  1  0.33580619  0.66954241  0.00361643  1
  Fe  Fe16  1  0.50067761  0.83453438  0.16964812  1
  Ni  Ni17  1  0.33530955  0.66734413  0.33611963  1
  Cr  Cr18  1  0.67022550  1.00136892  1.00103523  1
  Fe  Fe19  1  0.83859398  0.17082075  0.16955259  1
  Ni  Ni20  1  0.66954270  1.00098835  0.33594636  1
  Ni  Ni21  1  0.67136815  0.33802454  1.00161585  1
  Ni  Ni22  1  0.83681451  0.50075794  0.16793062  1
  Ni  Ni23  1  0.66888684  0.33584548  0.33502903  1
  Cr  Cr24  1  0.66866457  0.66752492  0.00346262  1
  Fe  Fe25  1  0.83699383  0.83647046  0.16996705  1
  Cr  Cr26  1  0.66895723  0.66951657  0.33498890  1
  Ni  Ni27  1  0.17131182  0.16770745  0.50155799  1
  Ni  Ni28  1  0.00335521  1.00161547  0.66913970  1
  Ni  Ni29  1  0.16803903  0.16643365  0.83646339  1
  Fe  Fe30  1  0.16783194  0.50220337  0.50040396  1
  Fe  Fe31  1  1.00077500  0.33490847  0.66877049  1
  Cr  Cr32  1  0.16688356  0.50278284  0.83640608  1
  Fe  Fe33  1  0.16847312  0.83634832  0.50263782  1
  Fe  Fe34  1  0.99984544  0.66924305  0.66702044  1
  Cr  Cr35  1  0.16943589  0.83719686  0.83635228  1
  Ni  Ni36  1  0.50117684  0.16796608  0.50191169  1
  Ni  Ni37  1  0.33434911  1.00210961  0.66810085  1
  Fe  Fe38  1  0.50214541  0.16826168  0.83457496  1
  Fe  Fe39  1  0.50310657  0.50133826  0.50213419  1
  Cr  Cr40  1  0.33534246  0.33345573  0.66751449  1
  Fe  Fe41  1  0.50439641  0.50245684  0.83460693  1
  Fe  Fe42  1  0.50209097  0.83683863  0.50288606  1
  Fe  Fe43  1  0.33748400  0.67068102  0.66724428  1
  Fe  Fe44  1  0.50110490  0.83591198  0.83409548  1
  Cr  Cr45  1  0.83360649  0.16987677  0.50145804  1
  Fe  Fe46  1  0.66797537  1.00143628  0.66874543  1
  Fe  Fe47  1  0.83726024  0.16989407  0.83512680  1
  Ni  Ni48  1  0.83582540  0.50387120  0.50402031  1
  Ni  Ni49  1  0.66926548  0.33846835  0.66998962  1
  Fe  Fe50  1  0.83482978  0.50066427  0.83486429  1
  Ni  Ni51  1  0.83607826  0.83349155  0.50317033  1
  Ni  Ni52  1  0.66976802  0.66861132  0.66877866  1
  Fe  Fe53  1  0.83650576  0.83607620  0.83343020  1
" 