6764,Ni39Fe50Cr10_0,-235.508848496734, 206.146708183378,Ni39Fe50Cr10,"# generated using pymatgen
 data_Cr2Fe9Ni7
_symmetry_space_group_name_H-M   'P 1'
_cell_length_a   7.42419053
_cell_length_b   7.42419053
_cell_length_c   10.49939093
_cell_angle_alpha   90.00000000
_cell_angle_beta   90.00000000
_cell_angle_gamma   90.00000000
_symmetry_Int_Tables_number   1
_chemical_formula_structural   Cr2Fe9Ni7
_chemical_formula_sum   'Cr6 Fe27 Ni21'
_cell_volume   578.71178119
_cell_formula_units_Z   3
loop_
 _symmetry_equiv_pos_site_id
 _symmetry_equiv_pos_as_xyz
  1  'x, y, z'
loop_
 _atom_site_type_symbol
 _atom_site_label
 _atom_site_symmetry_multiplicity
 _atom_site_fract_x
 _atom_site_fract_y
 _atom_site_fract_z
 _atom_site_occupancy
  Fe  Fe0  1  1.00276021  1.00282653  1.00282898  1
  Fe  Fe1  1  0.17061218  0.16878615  0.16953825  1
  Fe  Fe2  1  1.00174638  1.00226414  0.33498108  1
  Cr  Cr3  1  0.00335362  0.33596038  0.00313627  1
  Fe  Fe4  1  0.17008635  0.50382771  0.17168633  1
  Fe  Fe5  1  0.00407648  0.33737616  0.33638415  1
  Cr  Cr6  1  0.00340532  0.67066932  1.00282711  1
  Ni  Ni7  1  0.16985739  0.83751778  0.16963951  1
  Ni  Ni8  1  0.00335812  0.66826949  0.33502106  1
  Fe  Fe9  1  0.33692276  1.00284718  1.00224050  1
  Fe  Fe10  1  0.50223375  0.16707162  0.16840220  1
  Fe  Fe11  1  0.33756275  1.00199916  0.33597492  1
  Ni  Ni12  1  0.33670740  0.33509368  1.00281863  1
  Cr  Cr13  1  0.50330607  0.50409493  0.16787906  1
  Fe  Fe14  1  0.33419279  0.33660733  0.33689381  1
  Ni  Ni15  1  0.33622029  0.66985415  1.00137695  1
  Fe  Fe16  1  0.50282467  0.83722712  0.16969819  1
  Ni  Ni17  1  0.33433416  0.66938967  0.33678969  1
  Ni  Ni18  1  0.66917266  0.00367156  0.00344494  1
  Fe  Fe19  1  0.83581374  0.16753682  0.16947227  1
  Ni  Ni20  1  0.66935834  1.00172867  0.33643450  1
  Ni  Ni21  1  0.66839517  0.33377854  1.00120283  1
  Fe  Fe22  1  0.83699156  0.50441951  0.16986377  1
  Cr  Cr23  1  0.66979346  0.33449761  0.33740197  1
  Ni  Ni24  1  0.66891628  0.67120451  1.00266855  1
  Fe  Fe25  1  0.83527990  0.83670162  0.17018194  1
  Ni  Ni26  1  0.67096934  0.67295750  0.33707295  1
  Fe  Fe27  1  0.16953403  0.17022948  0.50290563  1
  Fe  Fe28  1  1.00247122  1.00255992  0.67085148  1
  Ni  Ni29  1  0.16947459  0.16812857  0.83626443  1
  Ni  Ni30  1  0.16867156  0.50173026  0.50110842  1
  Fe  Fe31  1  1.00174578  0.33688789  0.66982962  1
  Fe  Fe32  1  0.17023532  0.50444048  0.83497141  1
  Cr  Cr33  1  0.17079326  0.83566678  0.50470255  1
  Ni  Ni34  1  1.00218163  0.66835165  0.67038999  1
  Fe  Fe35  1  0.17015100  0.83653245  0.83536459  1
  Fe  Fe36  1  0.50252420  0.16729833  0.50298101  1
  Ni  Ni37  1  0.33751056  1.00281228  0.67026745  1
  Fe  Fe38  1  0.50430795  0.16822830  0.83727423  1
  Fe  Fe39  1  0.50210706  0.50574985  0.50252358  1
  Cr  Cr40  1  0.33563591  0.33616056  0.66917614  1
  Fe  Fe41  1  0.50407176  0.50442920  0.83787680  1
  Ni  Ni42  1  0.50455934  0.83613393  0.50173801  1
  Ni  Ni43  1  0.33561288  0.67031927  0.67049082  1
  Ni  Ni44  1  0.50314793  0.83565470  0.83691409  1
  Fe  Fe45  1  0.83660072  0.16825143  0.50339523  1
  Ni  Ni46  1  0.66952415  1.00275567  0.66877904  1
  Fe  Fe47  1  0.83487823  0.16814337  0.83579238  1
  Fe  Fe48  1  0.83722389  0.50500094  0.50401330  1
  Fe  Fe49  1  0.67089047  0.33691998  0.66996608  1
  Ni  Ni50  1  0.83393793  0.50277836  0.83488795  1
  Fe  Fe51  1  0.83430117  0.83540482  0.50321298  1
  Ni  Ni52  1  0.67086481  0.67093301  0.66891546  1
  Ni  Ni53  1  0.83465241  0.83618062  0.83540789  1
" 