1455,Ni39Fe50Cr10_5,-235.501207342371, 210.890244598434,Ni39Fe50Cr10,"# generated using pymatgen
 data_Cr2Fe9Ni7
_symmetry_space_group_name_H-M   'P 1'
_cell_length_a   7.41836190
_cell_length_b   7.41836190
_cell_length_c   10.49114801
_cell_angle_alpha   90.00000000
_cell_angle_beta   90.00000000
_cell_angle_gamma   90.00000000
_symmetry_Int_Tables_number   1
_chemical_formula_structural   Cr2Fe9Ni7
_chemical_formula_sum   'Cr6 Fe27 Ni21'
_cell_volume   577.34983613
_cell_formula_units_Z   3
loop_
 _symmetry_equiv_pos_site_id
 _symmetry_equiv_pos_as_xyz
  1  'x, y, z'
loop_
 _atom_site_type_symbol
 _atom_site_label
 _atom_site_symmetry_multiplicity
 _atom_site_fract_x
 _atom_site_fract_y
 _atom_site_fract_z
 _atom_site_occupancy
  Ni  Ni0  1  1.00162473  0.00446313  1.00256561  1
  Ni  Ni1  1  0.16977457  0.17003055  0.17031774  1
  Ni  Ni2  1  1.00305487  1.00225901  0.33673722  1
  Fe  Fe3  1  0.00410564  0.33540255  0.00396625  1
  Fe  Fe4  1  0.17189468  0.50425843  0.16923928  1
  Cr  Cr5  1  0.00495896  0.33490131  0.33555132  1
  Fe  Fe6  1  1.00291514  0.67097372  0.00396840  1
  Fe  Fe7  1  0.17005340  0.83726021  0.17062211  1
  Fe  Fe8  1  1.00314435  0.67172559  0.33736522  1
  Fe  Fe9  1  0.33680508  1.00274077  1.00245028  1
  Cr  Cr10  1  0.50169910  0.16982937  0.16963588  1
  Fe  Fe11  1  0.33546637  1.00226669  0.33737064  1
  Ni  Ni12  1  0.33540033  0.33885953  1.00171895  1
  Fe  Fe13  1  0.50295300  0.50535993  0.16931912  1
  Ni  Ni14  1  0.33640373  0.33804344  0.33858876  1
  Ni  Ni15  1  0.33800012  0.66848113  1.00273897  1
  Ni  Ni16  1  0.50407895  0.83481440  0.17023541  1
  Ni  Ni17  1  0.33855898  0.66921019  0.33700926  1
  Ni  Ni18  1  0.67311179  1.00185989  1.00218715  1
  Fe  Fe19  1  0.83740144  0.16778290  0.16891218  1
  Fe  Fe20  1  0.66976244  1.00083730  0.33604063  1
  Ni  Ni21  1  0.66972055  0.33639895  1.00274472  1
  Fe  Fe22  1  0.83499479  0.50437124  0.16940470  1
  Fe  Fe23  1  0.66822988  0.33885337  0.33673139  1
  Ni  Ni24  1  0.66776820  0.67157835  0.00358705  1
  Ni  Ni25  1  0.83627710  0.83550928  0.17067828  1
  Ni  Ni26  1  0.66879074  0.67113559  0.33708542  1
  Fe  Fe27  1  0.17116585  0.16724540  0.50205433  1
  Fe  Fe28  1  0.00478162  1.00039125  0.67062980  1
  Ni  Ni29  1  0.17067808  0.16867978  0.83796525  1
  Fe  Fe30  1  0.17024252  0.50655004  0.50239261  1
  Cr  Cr31  1  0.00386279  0.33549711  0.67023580  1
  Fe  Fe32  1  0.17268876  0.50548912  0.83821202  1
  Ni  Ni33  1  0.16987497  0.83670596  0.50316904  1
  Fe  Fe34  1  0.00413462  0.67230320  0.66851365  1
  Fe  Fe35  1  0.17044817  0.83611995  0.83601937  1
  Fe  Fe36  1  0.50295524  0.16913422  0.50217952  1
  Fe  Fe37  1  0.33620208  1.00145562  0.67002546  1
  Fe  Fe38  1  0.50460169  0.16930051  0.83792951  1
  Fe  Fe39  1  0.50423816  0.50502451  0.50254798  1
  Cr  Cr40  1  0.33699257  0.33834919  0.66969490  1
  Ni  Ni41  1  0.50273996  0.50389701  0.83790260  1
  Fe  Fe42  1  0.50362105  0.83568818  0.50311486  1
  Ni  Ni43  1  0.33752345  0.67107345  0.67009544  1
  Ni  Ni44  1  0.50334205  0.83612367  0.83667184  1
  Cr  Cr45  1  0.83547071  0.16942402  0.50282759  1
  Fe  Fe46  1  0.66886299  1.00182465  0.67134920  1
  Fe  Fe47  1  0.83514076  0.16705541  0.83772671  1
  Ni  Ni48  1  0.83472907  0.50634413  0.50309511  1
  Fe  Fe49  1  0.66806442  0.33753310  0.67020328  1
  Cr  Cr50  1  0.83488014  0.50480172  0.83735563  1
  Ni  Ni51  1  0.83777870  0.83390498  0.50341128  1
  Fe  Fe52  1  0.66911693  0.67048859  0.66934809  1
  Ni  Ni53  1  0.83611107  0.83758576  0.83575454  1
" 