2990,Ni39Fe44Cr16_9,-233.131785756026, 204.193663821796,Ni39Fe44Cr16,"# generated using pymatgen
 data_Cr10Fe23Ni21
_symmetry_space_group_name_H-M   'P 1'
_cell_length_a   7.43517172
_cell_length_b   7.43517172
_cell_length_c   10.51492068
_cell_angle_alpha   90.00000000
_cell_angle_beta   90.00000000
_cell_angle_gamma   90.00000000
_symmetry_Int_Tables_number   1
_chemical_formula_structural   Cr10Fe23Ni21
_chemical_formula_sum   'Cr10 Fe23 Ni21'
_cell_volume   581.28351555
_cell_formula_units_Z   1
loop_
 _symmetry_equiv_pos_site_id
 _symmetry_equiv_pos_as_xyz
  1  'x, y, z'
loop_
 _atom_site_type_symbol
 _atom_site_label
 _atom_site_symmetry_multiplicity
 _atom_site_fract_x
 _atom_site_fract_y
 _atom_site_fract_z
 _atom_site_occupancy
  Cr  Cr0  1  1.00071451  1.00125029  1.00121539  1
  Cr  Cr1  1  0.16986103  0.16892554  0.16981082  1
  Ni  Ni2  1  1.00041540  0.00279927  0.33723221  1
  Cr  Cr3  1  1.00158090  0.33714689  1.00162981  1
  Fe  Fe4  1  0.16832580  0.50401932  0.17090881  1
  Ni  Ni5  1  1.00208294  0.33489974  0.33468044  1
  Ni  Ni6  1  0.00217399  0.66844322  1.00187753  1
  Fe  Fe7  1  0.16832090  0.83359881  0.17035436  1
  Fe  Fe8  1  0.00359887  0.66970017  0.33396506  1
  Fe  Fe9  1  0.33668647  1.00160837  0.00215544  1
  Fe  Fe10  1  0.50397901  0.16794583  0.16968232  1
  Ni  Ni11  1  0.33658154  1.00061711  0.33561436  1
  Fe  Fe12  1  0.33461965  0.33562158  0.00337970  1
  Ni  Ni13  1  0.50133360  0.50248767  0.17165152  1
  Ni  Ni14  1  0.33534447  0.33751091  0.33592572  1
  Cr  Cr15  1  0.33455119  0.67000247  0.00276993  1
  Ni  Ni16  1  0.50249246  0.83589217  0.16826971  1
  Ni  Ni17  1  0.33648797  0.66830241  0.33607560  1
  Fe  Fe18  1  0.66937488  1.00074675  0.00288299  1
  Ni  Ni19  1  0.83423873  0.16804578  0.17077278  1
  Ni  Ni20  1  0.66943625  1.00165370  0.33469330  1
  Cr  Cr21  1  0.67035729  0.33436943  0.00398415  1
  Ni  Ni22  1  0.83586831  0.50345533  0.16947087  1
  Fe  Fe23  1  0.66818905  0.33390999  0.33394037  1
  Cr  Cr24  1  0.67045240  0.67086395  0.00302376  1
  Ni  Ni25  1  0.83471909  0.83493016  0.17028838  1
  Fe  Fe26  1  0.66720347  0.67021270  0.33398786  1
  Ni  Ni27  1  0.16860677  0.16928854  0.50328097  1
  Fe  Fe28  1  1.00140884  0.00305180  0.66874744  1
  Fe  Fe29  1  0.16822672  0.16853793  0.83343853  1
  Ni  Ni30  1  0.17077419  0.50127091  0.50218470  1
  Ni  Ni31  1  0.00291560  0.33444862  0.67079053  1
  Fe  Fe32  1  0.16610919  0.50202377  0.83368881  1
  Fe  Fe33  1  0.16926429  0.83614843  0.50175155  1
  Fe  Fe34  1  0.00416933  0.66983427  0.67031639  1
  Fe  Fe35  1  0.16820364  0.83587231  0.83432621  1
  Fe  Fe36  1  0.50155593  0.16817447  0.50231050  1
  Ni  Ni37  1  0.33547268  1.00109026  0.66853776  1
  Cr  Cr38  1  0.50161875  0.16681722  0.83607156  1
  Fe  Fe39  1  0.49909734  0.50107337  0.50082363  1
  Fe  Fe40  1  0.33376928  0.33483257  0.66674388  1
  Cr  Cr41  1  0.50063124  0.50220989  0.83303397  1
  Ni  Ni42  1  0.50074245  0.83620448  0.50262996  1
  Fe  Fe43  1  0.33358784  0.66991708  0.66741017  1
  Fe  Fe44  1  0.50238418  0.83860204  0.83418733  1
  Ni  Ni45  1  0.83652637  0.16733961  0.50255112  1
  Ni  Ni46  1  0.66895838  1.00213643  0.66938615  1
  Ni  Ni47  1  0.83666049  0.16713391  0.83310978  1
  Cr  Cr48  1  0.83651941  0.50087170  0.50141777  1
  Fe  Fe49  1  0.67004586  0.33207551  0.66860406  1
  Fe  Fe50  1  0.83857683  0.50204925  0.83443303  1
  Fe  Fe51  1  0.83627464  0.83860865  0.50138672  1
  Cr  Cr52  1  0.66777571  0.67081245  0.66943725  1
  Ni  Ni53  1  0.83688762  0.83636879  0.83491083  1
" 