8750,Ni39Fe50Cr10_1,-235.494842610652, 209.821979324856,Ni39Fe50Cr10,"# generated using pymatgen
 data_Cr2Fe9Ni7
_symmetry_space_group_name_H-M   'P 1'
_cell_length_a   7.41997797
_cell_length_b   7.41997797
_cell_length_c   10.49343348
_cell_angle_alpha   90.00000000
_cell_angle_beta   90.00000000
_cell_angle_gamma   90.00000000
_symmetry_Int_Tables_number   1
_chemical_formula_structural   Cr2Fe9Ni7
_chemical_formula_sum   'Cr6 Fe27 Ni21'
_cell_volume   577.72724046
_cell_formula_units_Z   3
loop_
 _symmetry_equiv_pos_site_id
 _symmetry_equiv_pos_as_xyz
  1  'x, y, z'
loop_
 _atom_site_type_symbol
 _atom_site_label
 _atom_site_symmetry_multiplicity
 _atom_site_fract_x
 _atom_site_fract_y
 _atom_site_fract_z
 _atom_site_occupancy
  Fe  Fe0  1  0.00554929  0.00476546  0.00496242  1
  Fe  Fe1  1  0.16797887  0.17202030  0.16873389  1
  Fe  Fe2  1  0.00526240  0.00431845  0.33611733  1
  Ni  Ni3  1  0.00411595  0.33586791  1.00221115  1
  Ni  Ni4  1  0.16979143  0.50600031  0.16930433  1
  Ni  Ni5  1  0.00414236  0.33531440  0.33702516  1
  Fe  Fe6  1  0.00324447  0.66786816  0.00337034  1
  Ni  Ni7  1  0.17198750  0.83717440  0.16937256  1
  Fe  Fe8  1  0.00547912  0.66986222  0.33700345  1
  Ni  Ni9  1  0.33812709  1.00305095  0.00469222  1
  Fe  Fe10  1  0.50078382  0.17294956  0.16881749  1
  Fe  Fe11  1  0.33439894  0.00400734  0.33569037  1
  Ni  Ni12  1  0.33377646  0.33763521  0.00412337  1
  Fe  Fe13  1  0.50082686  0.50306565  0.16951427  1
  Fe  Fe14  1  0.33633610  0.33749772  0.33644589  1
  Ni  Ni15  1  0.33690983  0.66852453  0.00346060  1
  Fe  Fe16  1  0.50157277  0.83354280  0.16984521  1
  Ni  Ni17  1  0.33672420  0.66910077  0.33657801  1
  Cr  Cr18  1  0.67155764  1.00308248  1.00298923  1
  Ni  Ni19  1  0.83634226  0.17099268  0.16879070  1
  Cr  Cr20  1  0.67101268  1.00310660  0.33435696  1
  Ni  Ni21  1  0.67024085  0.33642773  1.00189787  1
  Cr  Cr22  1  0.83481217  0.50118945  0.17073975  1
  Fe  Fe23  1  0.66933452  0.33605955  0.33743331  1
  Ni  Ni24  1  0.66830251  0.67065435  0.00336540  1
  Fe  Fe25  1  0.84067700  0.83544762  0.16945631  1
  Fe  Fe26  1  0.66922564  0.66769250  0.33791443  1
  Fe  Fe27  1  0.16901586  0.17190763  0.50413865  1
  Fe  Fe28  1  0.00494808  0.00417747  0.66860141  1
  Ni  Ni29  1  0.17255919  0.16784184  0.83722911  1
  Fe  Fe30  1  0.16943365  0.50032232  0.50099573  1
  Ni  Ni31  1  0.00400513  0.33627737  0.67032161  1
  Fe  Fe32  1  0.16837603  0.49861979  0.83824592  1
  Fe  Fe33  1  0.17016051  0.83680553  0.50170403  1
  Fe  Fe34  1  1.00135624  0.66684674  0.66902029  1
  Cr  Cr35  1  0.17045128  0.83664396  0.83772438  1
  Ni  Ni36  1  0.50143822  0.17096918  0.50340692  1
  Fe  Fe37  1  0.33627972  0.00567526  0.66964728  1
  Ni  Ni38  1  0.50076150  0.17223383  0.83664271  1
  Ni  Ni39  1  0.50502090  0.50153898  0.50246072  1
  Ni  Ni40  1  0.33287375  0.33647276  0.66925807  1
  Fe  Fe41  1  0.50321205  0.50121078  0.83747671  1
  Fe  Fe42  1  0.50365351  0.83578274  0.50181769  1
  Cr  Cr43  1  0.33768547  0.66607430  0.66986106  1
  Fe  Fe44  1  0.50349088  0.83557687  0.83800684  1
  Ni  Ni45  1  0.83605088  0.17239780  0.50439420  1
  Cr  Cr46  1  0.67004385  0.00379700  0.67201782  1
  Fe  Fe47  1  0.83974540  0.17327572  0.83656398  1
  Ni  Ni48  1  0.83609454  0.50295677  0.50288257  1
  Fe  Fe49  1  0.66820204  0.33987366  0.67002951  1
  Ni  Ni50  1  0.83416614  0.50441698  0.83605623  1
  Fe  Fe51  1  0.83676175  0.83588140  0.50322558  1
  Ni  Ni52  1  0.66982452  0.67175194  0.66883162  1
  Fe  Fe53  1  0.83715437  0.83473044  0.83650549  1
" 