3885,Ni39Fe44Cr16_7,-233.028916543848, 203.07569557955,Ni39Fe44Cr16,"# generated using pymatgen
 data_Cr10Fe23Ni21
_symmetry_space_group_name_H-M   'P 1'
_cell_length_a   7.43308992
_cell_length_b   7.43308992
_cell_length_c   10.51197658
_cell_angle_alpha   90.00000000
_cell_angle_beta   90.00000000
_cell_angle_gamma   90.00000000
_symmetry_Int_Tables_number   1
_chemical_formula_structural   Cr10Fe23Ni21
_chemical_formula_sum   'Cr10 Fe23 Ni21'
_cell_volume   580.79538651
_cell_formula_units_Z   1
loop_
 _symmetry_equiv_pos_site_id
 _symmetry_equiv_pos_as_xyz
  1  'x, y, z'
loop_
 _atom_site_type_symbol
 _atom_site_label
 _atom_site_symmetry_multiplicity
 _atom_site_fract_x
 _atom_site_fract_y
 _atom_site_fract_z
 _atom_site_occupancy
  Ni  Ni0  1  0.99902651  1.00107343  1.00159623  1
  Cr  Cr1  1  0.16954617  0.17085111  0.17014925  1
  Cr  Cr2  1  1.00182569  1.00173818  0.33616834  1
  Fe  Fe3  1  1.00210565  0.33675942  1.00209515  1
  Fe  Fe4  1  0.16904160  0.50241477  0.16944291  1
  Ni  Ni5  1  1.00017123  0.33735353  0.33647153  1
  Fe  Fe6  1  1.00055180  0.66923727  0.00238707  1
  Fe  Fe7  1  0.16727718  0.83381068  0.16927089  1
  Cr  Cr8  1  0.00350902  0.66793469  0.33510452  1
  Cr  Cr9  1  0.33564261  0.00354728  1.00059608  1
  Fe  Fe10  1  0.50400424  0.17255340  0.16915976  1
  Ni  Ni11  1  0.33615094  1.00048905  0.33600882  1
  Ni  Ni12  1  0.33743513  0.33683355  1.00126765  1
  Ni  Ni13  1  0.50347984  0.50043472  0.17046146  1
  Ni  Ni14  1  0.33771675  0.33874797  0.33460130  1
  Cr  Cr15  1  0.33541795  0.66602335  1.00131920  1
  Cr  Cr16  1  0.50407862  0.83456217  0.17027007  1
  Ni  Ni17  1  0.33605042  0.66761217  0.33676370  1
  Fe  Fe18  1  0.67086324  1.00224399  1.00124096  1
  Fe  Fe19  1  0.83402944  0.17079088  0.16799487  1
  Cr  Cr20  1  0.66910769  0.00382462  0.33475019  1
  Fe  Fe21  1  0.66801749  0.33602390  0.00279450  1
  Ni  Ni22  1  0.83489855  0.50251786  0.16843951  1
  Ni  Ni23  1  0.66895881  0.33725758  0.33441403  1
  Ni  Ni24  1  0.67161719  0.66771250  1.00118418  1
  Ni  Ni25  1  0.83600941  0.83446058  0.16647123  1
  Fe  Fe26  1  0.66734688  0.66600919  0.33551171  1
  Cr  Cr27  1  0.16791122  0.17067593  0.50294726  1
  Ni  Ni28  1  1.00078436  0.00294099  0.66928351  1
  Fe  Fe29  1  0.16893894  0.16934809  0.83527079  1
  Ni  Ni30  1  0.16978729  0.50110617  0.50072868  1
  Fe  Fe31  1  0.00254637  0.33541103  0.66899345  1
  Ni  Ni32  1  0.16921780  0.49941247  0.83643041  1
  Fe  Fe33  1  0.17260239  0.83428100  0.50290676  1
  Cr  Cr34  1  0.00365863  0.66959503  0.66927701  1
  Fe  Fe35  1  0.16891450  0.83617574  0.83467030  1
  Cr  Cr36  1  0.50118555  0.16893183  0.50112884  1
  Fe  Fe37  1  0.33573393  1.00004160  0.67016865  1
  Ni  Ni38  1  0.50180101  0.16920212  0.83585434  1
  Ni  Ni39  1  0.50202601  0.50513770  0.50168040  1
  Fe  Fe40  1  0.33512584  0.33786792  0.67078007  1
  Ni  Ni41  1  0.50170079  0.50169730  0.83470922  1
  Ni  Ni42  1  0.50253855  0.83292379  0.50292373  1
  Ni  Ni43  1  0.33731588  0.66851812  0.66889475  1
  Ni  Ni44  1  0.50513740  0.83595450  0.83353500  1
  Fe  Fe45  1  0.83550362  0.17104112  0.50347852  1
  Fe  Fe46  1  0.66944336  1.00053918  0.66989686  1
  Fe  Fe47  1  0.83525437  0.16837875  0.83537684  1
  Fe  Fe48  1  0.83383372  0.50043124  0.50127005  1
  Fe  Fe49  1  0.66917475  0.33649729  0.66930286  1
  Fe  Fe50  1  0.83375530  0.50231708  0.83698730  1
  Fe  Fe51  1  0.83408595  0.83538595  0.50400696  1
  Fe  Fe52  1  0.66699206  0.66981862  0.66966369  1
  Ni  Ni53  1  0.83449850  0.83689971  0.83724678  1
" 