6875,Ni39Fe44Cr16_6,-233.182049578809, 205.067984847401,Ni39Fe44Cr16,"# generated using pymatgen
 data_Cr10Fe23Ni21
_symmetry_space_group_name_H-M   'P 1'
_cell_length_a   7.43293516
_cell_length_b   7.43293516
_cell_length_c   10.51175771
_cell_angle_alpha   90.00000000
_cell_angle_beta   90.00000000
_cell_angle_gamma   90.00000000
_symmetry_Int_Tables_number   1
_chemical_formula_structural   Cr10Fe23Ni21
_chemical_formula_sum   'Cr10 Fe23 Ni21'
_cell_volume   580.75910931
_cell_formula_units_Z   1
loop_
 _symmetry_equiv_pos_site_id
 _symmetry_equiv_pos_as_xyz
  1  'x, y, z'
loop_
 _atom_site_type_symbol
 _atom_site_label
 _atom_site_symmetry_multiplicity
 _atom_site_fract_x
 _atom_site_fract_y
 _atom_site_fract_z
 _atom_site_occupancy
  Fe  Fe0  1  1.00224507  1.00029503  0.00367000  1
  Ni  Ni1  1  0.16800713  0.16877690  0.16854087  1
  Ni  Ni2  1  0.00258210  1.00124761  0.33325978  1
  Fe  Fe3  1  0.00284619  0.33593071  0.00398750  1
  Ni  Ni4  1  0.16817480  0.50315365  0.16914352  1
  Fe  Fe5  1  1.00160188  0.33583134  0.33320751  1
  Ni  Ni6  1  0.00293713  0.66828016  1.00194764  1
  Ni  Ni7  1  0.16925596  0.83462653  0.16910053  1
  Ni  Ni8  1  0.00540067  0.66993553  0.33594485  1
  Fe  Fe9  1  0.33444349  1.00132476  1.00222818  1
  Ni  Ni10  1  0.50162429  0.16816017  0.16760200  1
  Fe  Fe11  1  0.33463151  1.00173500  0.33160623  1
  Fe  Fe12  1  0.33525903  0.33599904  0.00428857  1
  Ni  Ni13  1  0.50086507  0.50375227  0.16775457  1
  Fe  Fe14  1  0.33374918  0.33637587  0.33148420  1
  Fe  Fe15  1  0.33579658  0.66976160  0.00307179  1
  Fe  Fe16  1  0.50172932  0.83690966  0.16726845  1
  Fe  Fe17  1  0.33330276  0.66881772  0.33329696  1
  Ni  Ni18  1  0.66797932  1.00168551  0.00431370  1
  Ni  Ni19  1  0.83638715  0.16831137  0.16859303  1
  Ni  Ni20  1  0.67115342  0.00309021  0.33349341  1
  Fe  Fe21  1  0.66939112  0.33664171  0.00521616  1
  Ni  Ni22  1  0.83733928  0.50297469  0.16670670  1
  Cr  Cr23  1  0.66894002  0.33357793  0.33395264  1
  Ni  Ni24  1  0.66987974  0.66929088  0.00315186  1
  Fe  Fe25  1  0.83826825  0.83586846  0.16749083  1
  Cr  Cr26  1  0.67122595  0.66925107  0.33323449  1
  Cr  Cr27  1  0.16722418  0.17011720  0.50113252  1
  Ni  Ni28  1  0.00573169  0.00260454  0.66968750  1
  Ni  Ni29  1  0.17036171  0.17104036  0.83604398  1
  Fe  Fe30  1  0.16733752  0.50349713  0.50054858  1
  Ni  Ni31  1  0.00417715  0.33686586  0.66849289  1
  Fe  Fe32  1  0.16692456  0.50234812  0.83780827  1
  Fe  Fe33  1  0.16599477  0.83721005  0.50055061  1
  Fe  Fe34  1  1.00194279  0.67060964  0.66947459  1
  Fe  Fe35  1  0.16687957  0.83830965  0.83822750  1
  Cr  Cr36  1  0.50015782  0.16818946  0.50349913  1
  Ni  Ni37  1  0.33162040  0.00239538  0.67254233  1
  Fe  Fe38  1  0.50065515  0.16611134  0.83862665  1
  Fe  Fe39  1  0.50004638  0.50117320  0.50012405  1
  Fe  Fe40  1  0.33324946  0.33499429  0.67195687  1
  Fe  Fe41  1  0.50194309  0.50177617  0.83998137  1
  Cr  Cr42  1  0.50115778  0.83557673  0.49848284  1
  Cr  Cr43  1  0.33303825  0.66978775  0.67017596  1
  Ni  Ni44  1  0.50207764  0.83410485  0.83834963  1
  Ni  Ni45  1  0.83820299  0.16756084  0.50169387  1
  Cr  Cr46  1  0.66969458  1.00138496  0.66884849  1
  Cr  Cr47  1  0.83905555  0.16785115  0.83713642  1
  Fe  Fe48  1  0.84016891  0.50158961  0.50093333  1
  Cr  Cr49  1  0.66958105  0.33688679  0.66955582  1
  Fe  Fe50  1  0.83819009  0.50382301  0.83890734  1
  Ni  Ni51  1  0.83842103  0.83571771  0.50167057  1
  Cr  Cr52  1  0.66996378  0.66749048  0.66881680  1
  Ni  Ni53  1  0.83509857  0.83329119  0.83708895  1
" 