6550,Ni39Fe50Cr10_4,-234.85192574936, 208.7305933891,Ni39Fe50Cr10,"# generated using pymatgen
 data_Cr2Fe9Ni7
_symmetry_space_group_name_H-M   'P 1'
_cell_length_a   7.41456036
_cell_length_b   7.41456036
_cell_length_c   10.48577182
_cell_angle_alpha   90.00000000
_cell_angle_beta   90.00000000
_cell_angle_gamma   90.00000000
_symmetry_Int_Tables_number   1
_chemical_formula_structural   Cr2Fe9Ni7
_chemical_formula_sum   'Cr6 Fe27 Ni21'
_cell_volume   576.46270230
_cell_formula_units_Z   3
loop_
 _symmetry_equiv_pos_site_id
 _symmetry_equiv_pos_as_xyz
  1  'x, y, z'
loop_
 _atom_site_type_symbol
 _atom_site_label
 _atom_site_symmetry_multiplicity
 _atom_site_fract_x
 _atom_site_fract_y
 _atom_site_fract_z
 _atom_site_occupancy
  Ni  Ni0  1  1.00268880  1.00290792  1.00232460  1
  Cr  Cr1  1  0.16944274  0.16990940  0.16945238  1
  Fe  Fe2  1  1.00240300  1.00282745  0.33724389  1
  Fe  Fe3  1  0.00417979  0.33699410  1.00344842  1
  Ni  Ni4  1  0.16860586  0.50526363  0.16951614  1
  Fe  Fe5  1  1.00108113  0.33780271  0.33771700  1
  Fe  Fe6  1  0.00476619  0.66988115  0.00440021  1
  Fe  Fe7  1  0.16973080  0.83526274  0.17024206  1
  Fe  Fe8  1  1.00326169  0.66998898  0.33700160  1
  Fe  Fe9  1  0.33707154  1.00245567  1.00294510  1
  Fe  Fe10  1  0.50606354  0.17022659  0.16980553  1
  Fe  Fe11  1  0.33842558  1.00122810  0.33847736  1
  Ni  Ni12  1  0.33717941  0.33927906  1.00235793  1
  Fe  Fe13  1  0.50446266  0.50397999  0.16889372  1
  Cr  Cr14  1  0.33615764  0.33675664  0.33710186  1
  Ni  Ni15  1  0.33704025  0.66922809  1.00337690  1
  Ni  Ni16  1  0.50399630  0.83691786  0.17098344  1
  Fe  Fe17  1  0.33663022  0.67252147  0.33580991  1
  Fe  Fe18  1  0.67031928  1.00304229  0.00481421  1
  Ni  Ni19  1  0.83551479  0.17093546  0.16994521  1
  Ni  Ni20  1  0.67056736  1.00252329  0.33733895  1
  Ni  Ni21  1  0.66960295  0.33719804  0.00575687  1
  Ni  Ni22  1  0.83690015  0.50317864  0.17104624  1
  Fe  Fe23  1  0.67232191  0.33600835  0.33606123  1
  Fe  Fe24  1  0.66877304  0.67057583  0.00431843  1
  Fe  Fe25  1  0.83691526  0.83686548  0.17047183  1
  Ni  Ni26  1  0.67126743  0.67169206  0.33561391  1
  Ni  Ni27  1  0.16963366  0.16904046  0.50450252  1
  Fe  Fe28  1  0.00384201  0.00433387  0.67050284  1
  Ni  Ni29  1  0.16887062  0.17028259  0.83654142  1
  Ni  Ni30  1  0.16755307  0.50438824  0.50469714  1
  Ni  Ni31  1  0.00458193  0.33586918  0.66957448  1
  Ni  Ni32  1  0.17099012  0.50311735  0.83640254  1
  Ni  Ni33  1  0.16999122  0.83719027  0.50319048  1
  Fe  Fe34  1  0.00585734  0.67020721  0.66921885  1
  Fe  Fe35  1  0.17108912  0.83672772  0.83667618  1
  Ni  Ni36  1  0.50453109  0.16774657  0.50388236  1
  Ni  Ni37  1  0.33552727  1.00299365  0.66907588  1
  Cr  Cr38  1  0.50306895  0.16994363  0.83716619  1
  Cr  Cr39  1  0.50412616  0.50334625  0.50431236  1
  Fe  Fe40  1  0.33535551  0.33662118  0.67035168  1
  Ni  Ni41  1  0.50199664  0.50491785  0.83810387  1
  Fe  Fe42  1  0.50188705  0.83937166  0.50262143  1
  Fe  Fe43  1  0.33482508  0.67026418  0.67147173  1
  Ni  Ni44  1  0.50336576  0.83634321  0.83651490  1
  Fe  Fe45  1  0.83728193  0.17058714  0.50335543  1
  Fe  Fe46  1  0.67047789  0.00486019  0.66914808  1
  Fe  Fe47  1  0.83810119  0.16965528  0.83731215  1
  Fe  Fe48  1  0.83931797  0.50238448  0.50289711  1
  Ni  Ni49  1  0.67121488  0.33561034  0.66852328  1
  Cr  Cr50  1  0.83747950  0.50270031  0.83759873  1
  Fe  Fe51  1  0.83782907  0.83764583  0.50251383  1
  Cr  Cr52  1  0.66937368  0.67082612  0.67087920  1
  Fe  Fe53  1  0.83759343  0.83870570  0.83763186  1
" 