8697,Ni39Fe44Cr16_10,-233.146049278762, 200.285146907445,Ni39Fe44Cr16,"# generated using pymatgen
 data_Cr10Fe23Ni21
_symmetry_space_group_name_H-M   'P 1'
_cell_length_a   7.43922837
_cell_length_b   7.43922837
_cell_length_c   10.52065765
_cell_angle_alpha   90.00000000
_cell_angle_beta   90.00000000
_cell_angle_gamma   90.00000000
_symmetry_Int_Tables_number   1
_chemical_formula_structural   Cr10Fe23Ni21
_chemical_formula_sum   'Cr10 Fe23 Ni21'
_cell_volume   582.23548478
_cell_formula_units_Z   1
loop_
 _symmetry_equiv_pos_site_id
 _symmetry_equiv_pos_as_xyz
  1  'x, y, z'
loop_
 _atom_site_type_symbol
 _atom_site_label
 _atom_site_symmetry_multiplicity
 _atom_site_fract_x
 _atom_site_fract_y
 _atom_site_fract_z
 _atom_site_occupancy
  Ni  Ni0  1  0.00368734  0.00231121  0.00225700  1
  Fe  Fe1  1  0.16763813  0.16674173  0.16807449  1
  Ni  Ni2  1  0.00208170  0.00209104  0.33517046  1
  Ni  Ni3  1  0.00380177  0.33424578  1.00133954  1
  Cr  Cr4  1  0.16790996  0.50115431  0.16825288  1
  Fe  Fe5  1  1.00112760  0.33494055  0.33691557  1
  Fe  Fe6  1  0.00233056  0.66811276  1.00182174  1
  Fe  Fe7  1  0.16752615  0.83689611  0.16871482  1
  Fe  Fe8  1  0.99947779  0.66899369  0.33556563  1
  Fe  Fe9  1  0.33388497  0.00266398  1.00177689  1
  Cr  Cr10  1  0.50048263  0.16714638  0.16801512  1
  Fe  Fe11  1  0.33513628  1.00141265  0.33568005  1
  Ni  Ni12  1  0.33349684  0.33535837  1.00028675  1
  Fe  Fe13  1  0.50260768  0.50382452  0.16939989  1
  Fe  Fe14  1  0.33404405  0.33395888  0.33523684  1
  Fe  Fe15  1  0.33404918  0.66834143  1.00150972  1
  Ni  Ni16  1  0.50076609  0.83507491  0.16930246  1
  Fe  Fe17  1  0.33595642  0.67023814  0.33485069  1
  Ni  Ni18  1  0.66909439  1.00136872  0.00273063  1
  Cr  Cr19  1  0.83731522  0.16788253  0.16764529  1
  Fe  Fe20  1  0.66919557  0.99976638  0.33680671  1
  Cr  Cr21  1  0.66886876  0.33624015  1.00001032  1
  Ni  Ni22  1  0.83663549  0.50335468  0.16966112  1
  Fe  Fe23  1  0.67044054  0.33576101  0.33611680  1
  Cr  Cr24  1  0.66849866  0.66786602  0.00386863  1
  Ni  Ni25  1  0.83551530  0.83485111  0.16908563  1
  Fe  Fe26  1  0.67017440  0.67008353  0.33461654  1
  Fe  Fe27  1  0.16750529  0.16943712  0.50186684  1
  Fe  Fe28  1  1.00108150  0.00270384  0.66821992  1
  Fe  Fe29  1  0.16781030  0.16954502  0.83566489  1
  Fe  Fe30  1  0.16595410  0.50117779  0.50237616  1
  Ni  Ni31  1  0.00275969  0.33617309  0.66770167  1
  Fe  Fe32  1  0.16791477  0.50144296  0.83515597  1
  Cr  Cr33  1  0.16899395  0.83465956  0.50323614  1
  Ni  Ni34  1  0.00196555  0.66615751  0.66813067  1
  Fe  Fe35  1  0.16810680  0.83462021  0.83453406  1
  Fe  Fe36  1  0.50246553  0.16523986  0.50135299  1
  Ni  Ni37  1  0.33599683  0.00205934  0.66792371  1
  Fe  Fe38  1  0.50167043  0.16890290  0.83550785  1
  Cr  Cr39  1  0.50054746  0.50367434  0.50152617  1
  Fe  Fe40  1  0.33339205  0.33525822  0.66998255  1
  Ni  Ni41  1  0.49820685  0.50092925  0.83568549  1
  Ni  Ni42  1  0.50272949  0.83686373  0.50255004  1
  Ni  Ni43  1  0.33463165  0.66895322  0.66925923  1
  Cr  Cr44  1  0.50020121  0.83554366  0.83323544  1
  Ni  Ni45  1  0.83666639  0.16782811  0.50141433  1
  Ni  Ni46  1  0.66742971  1.00127132  0.66592517  1
  Ni  Ni47  1  0.83753098  0.16915694  0.83588242  1
  Ni  Ni48  1  0.83794991  0.50149430  0.50139495  1
  Cr  Cr49  1  0.67044758  0.33497718  0.67075823  1
  Ni  Ni50  1  0.83804463  0.49948721  0.83455702  1
  Ni  Ni51  1  0.83359120  0.83628617  0.50249790  1
  Ni  Ni52  1  0.66900721  0.66952601  0.66665319  1
  Cr  Cr53  1  0.83662283  0.83691795  0.83326218  1
" 