6172,Ni39Fe24Cr35_2,-225.816153930975, 176.285743974483,Ni39Fe24Cr35,"# generated using pymatgen
 data_Cr20Fe13Ni21
_symmetry_space_group_name_H-M   'P 1'
_cell_length_a   7.47572817
_cell_length_b   7.47572817
_cell_length_c   10.57227617
_cell_angle_alpha   90.00000000
_cell_angle_beta   90.00000000
_cell_angle_gamma   90.00000000
_symmetry_Int_Tables_number   1
_chemical_formula_structural   Cr20Fe13Ni21
_chemical_formula_sum   'Cr20 Fe13 Ni21'
_cell_volume   590.84763552
_cell_formula_units_Z   1
loop_
 _symmetry_equiv_pos_site_id
 _symmetry_equiv_pos_as_xyz
  1  'x, y, z'
loop_
 _atom_site_type_symbol
 _atom_site_label
 _atom_site_symmetry_multiplicity
 _atom_site_fract_x
 _atom_site_fract_y
 _atom_site_fract_z
 _atom_site_occupancy
  Cr  Cr0  1  0.99759883  -0.00001424  0.00075609  1
  Ni  Ni1  1  0.16623755  0.16978665  0.16623997  1
  Ni  Ni2  1  0.99771652  0.00014324  0.33067124  1
  Ni  Ni3  1  0.99850586  0.33422688  0.99868092  1
  Cr  Cr4  1  0.16539276  0.49808354  0.16543999  1
  Fe  Fe5  1  0.99800532  0.33283395  0.33030811  1
  Ni  Ni6  1  0.99543600  0.66208813  0.99882973  1
  Cr  Cr7  1  0.16345315  0.83229898  0.16560983  1
  Ni  Ni8  1  0.99772574  0.66573810  0.33244329  1
  Cr  Cr9  1  0.33388881  0.00103275  0.99925027  1
  Fe  Fe10  1  0.50023678  0.16711978  0.16689348  1
  Cr  Cr11  1  0.33253286  0.99826086  0.33219538  1
  Fe  Fe12  1  0.33254380  0.33321527  0.99824623  1
  Fe  Fe13  1  0.50199250  0.49983006  0.16678898  1
  Fe  Fe14  1  0.33321770  0.33335129  0.33235519  1
  Cr  Cr15  1  0.33451695  0.66515417  0.99854792  1
  Ni  Ni16  1  0.50466823  0.83163128  0.16796180  1
  Cr  Cr17  1  0.33279174  0.66472724  0.33634561  1
  Cr  Cr18  1  0.66649578  0.99842452  -0.00053782  1
  Fe  Fe19  1  0.83326790  0.16669526  0.16697672  1
  Ni  Ni20  1  0.66808092  -0.00019707  0.33044340  1
  Ni  Ni21  1  0.66629857  0.33526805  0.00073859  1
  Fe  Fe22  1  0.83183252  0.50101587  0.16486859  1
  Fe  Fe23  1  0.66658180  0.33426573  0.33025706  1
  Ni  Ni24  1  0.66751492  0.66359026  0.99920795  1
  Ni  Ni25  1  0.82950669  0.83022773  0.16715488  1
  Ni  Ni26  1  0.66662290  0.66512438  0.33158197  1
  Cr  Cr27  1  0.16376873  0.16613456  0.49966182  1
  Ni  Ni28  1  0.00062219  0.99820285  0.66707276  1
  Ni  Ni29  1  0.16652698  0.17003731  0.83341509  1
  Fe  Fe30  1  0.16374541  0.50016217  0.49916417  1
  Fe  Fe31  1  0.00005107  0.33535934  0.66832769  1
  Ni  Ni32  1  0.16369608  0.49679064  0.83295983  1
  Ni  Ni33  1  0.16322699  0.83198595  0.49886176  1
  Ni  Ni34  1  0.99908809  0.66504317  0.66731128  1
  Cr  Cr35  1  0.16341698  0.83143514  0.83377529  1
  Cr  Cr36  1  0.50105516  0.16748063  0.49775459  1
  Cr  Cr37  1  0.33226548  0.99843025  0.66719830  1
  Fe  Fe38  1  0.49920217  0.16798064  0.83449426  1
  Ni  Ni39  1  0.50060066  0.50025000  0.49764032  1
  Cr  Cr40  1  0.33239185  0.33503571  0.66740487  1
  Fe  Fe41  1  0.50119426  0.50062323  0.83382498  1
  Fe  Fe42  1  0.50219135  0.83101393  0.49852476  1
  Cr  Cr43  1  0.33313108  0.66488047  0.66280152  1
  Ni  Ni44  1  0.50290781  0.82996645  0.83179319  1
  Cr  Cr45  1  0.83361734  0.16607794  0.49860857  1
  Cr  Cr46  1  0.66663649  0.99758068  0.66763901  1
  Cr  Cr47  1  0.83445689  0.16759551  0.83093307  1
  Cr  Cr48  1  0.83196783  0.50042199  0.49932237  1
  Cr  Cr49  1  0.66655025  0.33630828  0.66758167  1
  Ni  Ni50  1  0.83281827  0.50159451  0.83451832  1
  Cr  Cr51  1  0.83345169  0.83218231  0.49994872  1
  Ni  Ni52  1  0.66681646  0.66434628  0.66765689  1
  Ni  Ni53  1  0.83058786  0.82780590  0.83219805  1
" 