5594,Ni39Fe24Cr35_8,-225.93825258825, 180.87768656804,Ni39Fe24Cr35,"# generated using pymatgen
 data_Cr20Fe13Ni21
_symmetry_space_group_name_H-M   'P 1'
_cell_length_a   7.47730807
_cell_length_b   7.47730807
_cell_length_c   10.57451048
_cell_angle_alpha   90.00000000
_cell_angle_beta   90.00000000
_cell_angle_gamma   90.00000000
_symmetry_Int_Tables_number   1
_chemical_formula_structural   Cr20Fe13Ni21
_chemical_formula_sum   'Cr20 Fe13 Ni21'
_cell_volume   591.22231859
_cell_formula_units_Z   1
loop_
 _symmetry_equiv_pos_site_id
 _symmetry_equiv_pos_as_xyz
  1  'x, y, z'
loop_
 _atom_site_type_symbol
 _atom_site_label
 _atom_site_symmetry_multiplicity
 _atom_site_fract_x
 _atom_site_fract_y
 _atom_site_fract_z
 _atom_site_occupancy
  Fe  Fe0  1  0.00102655  0.99816515  0.99642870  1
  Cr  Cr1  1  0.16771368  0.16539538  0.16594505  1
  Cr  Cr2  1  -0.00019877  0.99800631  0.33558755  1
  Ni  Ni3  1  0.00122802  0.33349215  0.99762674  1
  Cr  Cr4  1  0.16543641  0.50268536  0.16851480  1
  Cr  Cr5  1  0.00344893  0.33264900  0.33686673  1
  Ni  Ni6  1  0.00070582  0.66951288  0.99839438  1
  Fe  Fe7  1  0.16395898  0.83369287  0.16623962  1
  Ni  Ni8  1  0.99915572  0.67010812  0.33398575  1
  Ni  Ni9  1  0.33071137  0.99882253  0.99756556  1
  Cr  Cr10  1  0.49827005  0.16231403  0.16516159  1
  Fe  Fe11  1  0.33101599  0.99747211  0.33550449  1
  Cr  Cr12  1  0.33390971  0.33355989  0.99701681  1
  Fe  Fe13  1  0.49874576  0.49935465  0.16789891  1
  Ni  Ni14  1  0.33356070  0.33259293  0.33535182  1
  Cr  Cr15  1  0.33065460  0.66684853  0.99676063  1
  Cr  Cr16  1  0.49588632  0.83266229  0.17016612  1
  Fe  Fe17  1  0.33137042  0.66437720  0.33620434  1
  Ni  Ni18  1  0.66500679  0.99826438  -0.00025598  1
  Cr  Cr19  1  0.83273983  0.16538966  0.16220211  1
  Fe  Fe20  1  0.66708712  0.99700098  0.33399462  1
  Ni  Ni21  1  0.66473982  0.33122778  0.99748868  1
  Cr  Cr22  1  0.83547182  0.50087753  0.16505042  1
  Cr  Cr23  1  0.66364038  0.33459397  0.33216017  1
  Cr  Cr24  1  0.66488058  0.66536358  0.99779198  1
  Fe  Fe25  1  0.83376275  0.83237735  0.16579058  1
  Ni  Ni26  1  0.66491094  0.66885890  0.33489680  1
  Fe  Fe27  1  0.16777749  0.16573278  0.50235760  1
  Ni  Ni28  1  0.00245803  -0.00008353  0.66618071  1
  Ni  Ni29  1  0.16788006  0.16649033  0.83076134  1
  Ni  Ni30  1  0.16871294  0.50166358  0.49925645  1
  Ni  Ni31  1  0.00553631  0.33131721  0.66440778  1
  Ni  Ni32  1  0.16574803  0.49955145  0.83124066  1
  Ni  Ni33  1  0.16822295  0.83147490  0.49984309  1
  Cr  Cr34  1  0.00029595  0.66982244  0.66564698  1
  Fe  Fe35  1  0.16482241  0.83510740  0.83056319  1
  Cr  Cr36  1  0.49663538  0.16255362  0.49971503  1
  Ni  Ni37  1  0.32968600  -0.00028576  0.66498239  1
  Ni  Ni38  1  0.49686118  0.16376455  0.83365832  1
  Ni  Ni39  1  0.49599894  0.50028561  0.49998530  1
  Fe  Fe40  1  0.33167055  0.33378478  0.66623886  1
  Fe  Fe41  1  0.49910786  0.49739182  0.82827845  1
  Fe  Fe42  1  0.49764397  0.82824447  0.49997183  1
  Ni  Ni43  1  0.33288333  0.66481633  0.66474205  1
  Cr  Cr44  1  0.49677045  0.83495431  0.82833654  1
  Cr  Cr45  1  0.83298539  0.16577320  0.50274110  1
  Cr  Cr46  1  0.66797942  0.99517705  0.66424692  1
  Cr  Cr47  1  0.83303196  0.16608799  0.83299147  1
  Cr  Cr48  1  0.83394966  0.50125837  0.50210415  1
  Fe  Fe49  1  0.66235935  0.33312580  0.66719178  1
  Cr  Cr50  1  0.83602083  0.49979897  0.83050428  1
  Ni  Ni51  1  0.83295572  0.83125945  0.49822268  1
  Ni  Ni52  1  0.66332757  0.66527473  0.66437194  1
  Ni  Ni53  1  0.83278822  0.83294289  0.83407042  1
" 