1323,Ni39Fe24Cr35_14,-225.617041915506, 171.737423211328,Ni39Fe24Cr35,"# generated using pymatgen
 data_Cr20Fe13Ni21
_symmetry_space_group_name_H-M   'P 1'
_cell_length_a   7.47957504
_cell_length_b   7.47957504
_cell_length_c   10.57771646
_cell_angle_alpha   90.00000000
_cell_angle_beta   90.00000000
_cell_angle_gamma   90.00000000
_symmetry_Int_Tables_number   1
_chemical_formula_structural   Cr20Fe13Ni21
_chemical_formula_sum   'Cr20 Fe13 Ni21'
_cell_volume   591.76022230
_cell_formula_units_Z   1
loop_
 _symmetry_equiv_pos_site_id
 _symmetry_equiv_pos_as_xyz
  1  'x, y, z'
loop_
 _atom_site_type_symbol
 _atom_site_label
 _atom_site_symmetry_multiplicity
 _atom_site_fract_x
 _atom_site_fract_y
 _atom_site_fract_z
 _atom_site_occupancy
  Fe  Fe0  1  0.99666376  0.99889802  0.00057820  1
  Ni  Ni1  1  0.16510088  0.16775882  0.16727796  1
  Fe  Fe2  1  0.99654099  0.00049749  0.33258244  1
  Cr  Cr3  1  0.00132204  0.33224743  0.00301386  1
  Ni  Ni4  1  0.16929109  0.49593613  0.16635832  1
  Fe  Fe5  1  -0.00061324  0.33243040  0.33162287  1
  Cr  Cr6  1  0.99866255  0.66574279  0.99879825  1
  Cr  Cr7  1  0.16641793  0.83302593  0.16600415  1
  Cr  Cr8  1  -0.00032047  0.66403539  0.33429807  1
  Cr  Cr9  1  0.33438981  -0.00034999  0.99884321  1
  Fe  Fe10  1  0.49855382  0.16595798  0.16589978  1
  Fe  Fe11  1  0.33342068  0.99835333  0.33164261  1
  Ni  Ni12  1  0.33304574  0.33413391  -0.00077106  1
  Ni  Ni13  1  0.49670093  0.50062743  0.16419221  1
  Fe  Fe14  1  0.33020360  0.33408115  0.32964235  1
  Ni  Ni15  1  0.33592615  0.66362531  0.00019306  1
  Ni  Ni16  1  0.50117828  0.83125978  0.16630038  1
  Fe  Fe17  1  0.33265242  0.66501027  0.33146938  1
  Fe  Fe18  1  0.66555817  0.99620777  -0.00038811  1
  Ni  Ni19  1  0.83416274  0.16311829  0.16722874  1
  Fe  Fe20  1  0.66757389  0.99803360  0.33180956  1
  Cr  Cr21  1  0.66372628  0.33271194  -0.00011782  1
  Ni  Ni22  1  0.83157007  0.49894123  0.16633260  1
  Cr  Cr23  1  0.66888389  0.33145692  0.33170364  1
  Ni  Ni24  1  0.66363474  0.66826793  0.00020768  1
  Ni  Ni25  1  0.82939642  0.83536512  0.16383951  1
  Cr  Cr26  1  0.66585517  0.66698602  0.33194737  1
  Cr  Cr27  1  0.16546518  0.16507382  0.49938209  1
  Ni  Ni28  1  0.00003462  0.99703635  0.66417012  1
  Cr  Cr29  1  0.16788811  0.16635476  0.83145704  1
  Ni  Ni30  1  0.16517665  0.50010814  0.49872939  1
  Cr  Cr31  1  -0.00083268  0.33426221  0.66366784  1
  Ni  Ni32  1  0.17059960  0.49904211  0.83247261  1
  Fe  Fe33  1  0.16445485  0.83255094  0.49978106  1
  Fe  Fe34  1  0.99913907  0.66797123  0.66416546  1
  Cr  Cr35  1  0.16402287  0.83225508  0.83147507  1
  Cr  Cr36  1  0.49853434  0.16460661  0.49959145  1
  Ni  Ni37  1  0.33173481  0.99851783  0.66518509  1
  Ni  Ni38  1  0.49684316  0.16618974  0.83199280  1
  Cr  Cr39  1  0.49760740  0.49949936  0.49909185  1
  Fe  Fe40  1  0.33230270  0.33200507  0.66812452  1
  Ni  Ni41  1  0.49548127  0.49932349  0.83431133  1
  Fe  Fe42  1  0.49858982  0.83358787  0.49809591  1
  Cr  Cr43  1  0.33104246  0.66731700  0.66588966  1
  Ni  Ni44  1  0.50079890  0.83197800  0.83354607  1
  Ni  Ni45  1  0.83434246  0.16314637  0.49780405  1
  Cr  Cr46  1  0.66467581  0.99855313  0.66596052  1
  Cr  Cr47  1  0.83224736  0.16149574  0.83273263  1
  Ni  Ni48  1  0.83546539  0.50029099  0.49952298  1
  Cr  Cr49  1  0.66564092  0.33239794  0.66591431  1
  Cr  Cr50  1  0.83158918  0.50285271  0.83187703  1
  Ni  Ni51  1  0.83429476  0.83405403  0.50011296  1
  Cr  Cr52  1  0.66706251  0.66649625  0.66567056  1
  Ni  Ni53  1  0.83107825  0.83345096  0.83354446  1
" 