6194,Ni39Fe44Cr16_11,-233.135213025473, 204.417629962317,Ni39Fe44Cr16,"# generated using pymatgen
 data_Cr10Fe23Ni21
_symmetry_space_group_name_H-M   'P 1'
_cell_length_a   7.43615256
_cell_length_b   7.43615256
_cell_length_c   10.51630780
_cell_angle_alpha   90.00000000
_cell_angle_beta   90.00000000
_cell_angle_gamma   90.00000000
_symmetry_Int_Tables_number   1
_chemical_formula_structural   Cr10Fe23Ni21
_chemical_formula_sum   'Cr10 Fe23 Ni21'
_cell_volume   581.51359326
_cell_formula_units_Z   1
loop_
 _symmetry_equiv_pos_site_id
 _symmetry_equiv_pos_as_xyz
  1  'x, y, z'
loop_
 _atom_site_type_symbol
 _atom_site_label
 _atom_site_symmetry_multiplicity
 _atom_site_fract_x
 _atom_site_fract_y
 _atom_site_fract_z
 _atom_site_occupancy
  Cr  Cr0  1  0.00429384  1.00185914  1.00031245  1
  Ni  Ni1  1  0.16838052  0.17201341  0.16974706  1
  Ni  Ni2  1  0.00342523  1.00193159  0.33638724  1
  Ni  Ni3  1  0.00421118  0.33622170  0.00262372  1
  Ni  Ni4  1  0.16917381  0.50149171  0.16776933  1
  Fe  Fe5  1  0.00472516  0.33625106  0.33554137  1
  Fe  Fe6  1  0.00610835  0.66682820  0.00229716  1
  Ni  Ni7  1  0.16749746  0.83272343  0.16922583  1
  Ni  Ni8  1  1.00067755  0.66845762  0.33422421  1
  Cr  Cr9  1  0.33458361  0.00377061  1.00203524  1
  Fe  Fe10  1  0.49996931  0.17135830  0.16768361  1
  Cr  Cr11  1  0.33373273  0.00443916  0.33470204  1
  Ni  Ni12  1  0.33547120  0.33546106  0.00279328  1
  Ni  Ni13  1  0.50000606  0.50075957  0.16786829  1
  Fe  Fe14  1  0.33342399  0.33742781  0.33522283  1
  Fe  Fe15  1  0.33257545  0.66623726  1.00172443  1
  Cr  Cr16  1  0.50180961  0.83445433  0.17063425  1
  Fe  Fe17  1  0.33518318  0.66590684  0.33521834  1
  Fe  Fe18  1  0.66756826  0.00513016  0.99947865  1
  Cr  Cr19  1  0.83581856  0.16947706  0.16784963  1
  Fe  Fe20  1  0.67022841  1.00017543  0.33813794  1
  Fe  Fe21  1  0.66696613  0.33368710  0.00228002  1
  Fe  Fe22  1  0.83771308  0.50249734  0.16863686  1
  Cr  Cr23  1  0.66702404  0.33831655  0.33568344  1
  Cr  Cr24  1  0.66853203  0.66746571  1.00173885  1
  Cr  Cr25  1  0.83672176  0.83488047  0.16998557  1
  Ni  Ni26  1  0.66961825  0.66774121  0.33803792  1
  Ni  Ni27  1  0.16750111  0.17200016  0.50229883  1
  Fe  Fe28  1  1.00142728  1.00176193  0.66918104  1
  Ni  Ni29  1  0.16876072  0.16973235  0.83418780  1
  Ni  Ni30  1  0.16848044  0.49969622  0.50220458  1
  Fe  Fe31  1  0.00296720  0.33550861  0.66839021  1
  Fe  Fe32  1  0.17063857  0.50186031  0.83570028  1
  Cr  Cr33  1  0.16752781  0.83431520  0.50172560  1
  Ni  Ni34  1  1.00086810  0.66922896  0.66955733  1
  Ni  Ni35  1  0.16891575  0.83431409  0.83487944  1
  Ni  Ni36  1  0.50263107  0.16919066  0.50268730  1
  Fe  Fe37  1  0.33634896  1.00205587  0.66982859  1
  Ni  Ni38  1  0.50296583  0.16864844  0.83637320  1
  Ni  Ni39  1  0.50196155  0.50281651  0.50334425  1
  Fe  Fe40  1  0.33541521  0.33581766  0.66857812  1
  Fe  Fe41  1  0.49925573  0.50143223  0.83488992  1
  Ni  Ni42  1  0.50645622  0.83422419  0.50251617  1
  Fe  Fe43  1  0.33634065  0.66835824  0.66928920  1
  Ni  Ni44  1  0.50209493  0.83611802  0.83380847  1
  Fe  Fe45  1  0.83598178  0.16759751  0.50223741  1
  Fe  Fe46  1  0.66845605  1.00083336  0.66861913  1
  Fe  Fe47  1  0.83492719  0.16737787  0.83539316  1
  Fe  Fe48  1  0.83573577  0.50396461  0.50304502  1
  Fe  Fe49  1  0.66785087  0.33550140  0.66773291  1
  Cr  Cr50  1  0.83651769  0.50110866  0.83600690  1
  Ni  Ni51  1  0.83298257  0.83520752  0.50192013  1
  Ni  Ni52  1  0.66837655  0.66935623  0.66667545  1
  Fe  Fe53  1  0.83535278  0.83718655  0.83326713  1
" 