4167,Ni39Fe44Cr16_18,-232.728928950519, 202.195882592212,Ni39Fe44Cr16,"# generated using pymatgen
 data_Cr10Fe23Ni21
_symmetry_space_group_name_H-M   'P 1'
_cell_length_a   7.43244836
_cell_length_b   7.43244836
_cell_length_c   10.51106928
_cell_angle_alpha   90.00000000
_cell_angle_beta   90.00000000
_cell_angle_gamma   90.00000000
_symmetry_Int_Tables_number   1
_chemical_formula_structural   Cr10Fe23Ni21
_chemical_formula_sum   'Cr10 Fe23 Ni21'
_cell_volume   580.64501188
_cell_formula_units_Z   1
loop_
 _symmetry_equiv_pos_site_id
 _symmetry_equiv_pos_as_xyz
  1  'x, y, z'
loop_
 _atom_site_type_symbol
 _atom_site_label
 _atom_site_symmetry_multiplicity
 _atom_site_fract_x
 _atom_site_fract_y
 _atom_site_fract_z
 _atom_site_occupancy
  Ni  Ni0  1  1.00074220  0.00364336  1.00121441  1
  Ni  Ni1  1  0.16870679  0.17076708  0.16853383  1
  Ni  Ni2  1  1.00054501  1.00160680  0.33423523  1
  Ni  Ni3  1  1.00046487  0.33478588  0.00362333  1
  Ni  Ni4  1  0.16914181  0.49875167  0.17042601  1
  Fe  Fe5  1  1.00172000  0.33473935  0.33317485  1
  Cr  Cr6  1  0.00344233  0.66917748  0.00392055  1
  Ni  Ni7  1  0.16762438  0.83732309  0.16938293  1
  Fe  Fe8  1  0.00279373  0.66910525  0.33304530  1
  Fe  Fe9  1  0.33404681  0.00433526  0.00377469  1
  Fe  Fe10  1  0.50312429  0.16997513  0.16929971  1
  Cr  Cr11  1  0.33615779  1.00012016  0.33404713  1
  Fe  Fe12  1  0.33413447  0.33351345  0.00324460  1
  Fe  Fe13  1  0.50247771  0.50271129  0.17122058  1
  Ni  Ni14  1  0.33987957  0.33699592  0.33479389  1
  Cr  Cr15  1  0.33533145  0.66979206  0.00506025  1
  Ni  Ni16  1  0.50555195  0.83558551  0.16910086  1
  Ni  Ni17  1  0.33573535  0.66885069  0.33482235  1
  Ni  Ni18  1  0.66937898  0.00474412  0.00449573  1
  Fe  Fe19  1  0.83724400  0.16811581  0.16970606  1
  Fe  Fe20  1  0.66856571  0.00398660  0.33489647  1
  Fe  Fe21  1  0.67057790  0.33619473  0.00342058  1
  Ni  Ni22  1  0.83505013  0.50230623  0.17025464  1
  Ni  Ni23  1  0.67014425  0.33518674  0.33597343  1
  Fe  Fe24  1  0.67149411  0.66929971  0.00401530  1
  Ni  Ni25  1  0.83365116  0.83636039  0.16846836  1
  Fe  Fe26  1  0.66728695  0.66800332  0.33431898  1
  Cr  Cr27  1  0.16823289  0.17047775  0.50084794  1
  Fe  Fe28  1  1.00088991  1.00125944  0.67075973  1
  Ni  Ni29  1  0.16903565  0.17173169  0.83646556  1
  Cr  Cr30  1  0.17014290  0.50186237  0.50036445  1
  Cr  Cr31  1  0.99842365  0.33611718  0.66899491  1
  Fe  Fe32  1  0.16953169  0.50233262  0.83549531  1
  Fe  Fe33  1  0.16845413  0.83444084  0.50112580  1
  Ni  Ni34  1  0.00369229  0.66914498  0.67028424  1
  Fe  Fe35  1  0.16728744  0.83748717  0.83532022  1
  Ni  Ni36  1  0.50349996  0.17078463  0.50195487  1
  Cr  Cr37  1  0.33672596  1.00126075  0.66785391  1
  Fe  Fe38  1  0.50310816  0.16870239  0.83693034  1
  Ni  Ni39  1  0.50227358  0.50357625  0.50244970  1
  Fe  Fe40  1  0.33676217  0.33697732  0.66999386  1
  Fe  Fe41  1  0.50146789  0.50131468  0.83505103  1
  Fe  Fe42  1  0.50240201  0.83413131  0.50191289  1
  Ni  Ni43  1  0.33436540  0.66910524  0.66802845  1
  Cr  Cr44  1  0.50707024  0.83505768  0.83593608  1
  Ni  Ni45  1  0.83456484  0.16670845  0.50039211  1
  Ni  Ni46  1  0.66938349  0.00406842  0.66733376  1
  Fe  Fe47  1  0.83535414  0.16563032  0.83699062  1
  Fe  Fe48  1  0.83401173  0.50125696  0.49988894  1
  Cr  Cr49  1  0.66955003  0.33355348  0.66881606  1
  Fe  Fe50  1  0.83541493  0.50333866  0.83755196  1
  Cr  Cr51  1  0.83480920  0.83493097  0.50240918  1
  Fe  Fe52  1  0.66961318  0.66843889  0.66878292  1
  Ni  Ni53  1  0.83460821  0.83602186  0.83528447  1
" 