5574,Ni39Fe44Cr16_17,-233.523874282041, 205.131984278405,Ni39Fe44Cr16,"# generated using pymatgen
 data_Cr10Fe23Ni21
_symmetry_space_group_name_H-M   'P 1'
_cell_length_a   7.44014179
_cell_length_b   7.44014179
_cell_length_c   10.52194943
_cell_angle_alpha   90.00000000
_cell_angle_beta   90.00000000
_cell_angle_gamma   90.00000000
_symmetry_Int_Tables_number   1
_chemical_formula_structural   Cr10Fe23Ni21
_chemical_formula_sum   'Cr10 Fe23 Ni21'
_cell_volume   582.44998015
_cell_formula_units_Z   1
loop_
 _symmetry_equiv_pos_site_id
 _symmetry_equiv_pos_as_xyz
  1  'x, y, z'
loop_
 _atom_site_type_symbol
 _atom_site_label
 _atom_site_symmetry_multiplicity
 _atom_site_fract_x
 _atom_site_fract_y
 _atom_site_fract_z
 _atom_site_occupancy
  Fe  Fe0  1  1.00005012  1.00178391  1.00174605  1
  Cr  Cr1  1  0.17083289  0.17143522  0.16749094  1
  Fe  Fe2  1  1.00043668  0.00254806  0.33714429  1
  Fe  Fe3  1  0.99925888  0.33689121  0.00215563  1
  Ni  Ni4  1  0.16802343  0.50107633  0.16885049  1
  Fe  Fe5  1  0.00284488  0.33600032  0.33640060  1
  Ni  Ni6  1  0.00248675  0.66773845  0.00231693  1
  Cr  Cr7  1  0.16786936  0.83334767  0.16685922  1
  Fe  Fe8  1  1.00067365  0.66687790  0.33485180  1
  Fe  Fe9  1  0.33750004  1.00038620  1.00155228  1
  Ni  Ni10  1  0.50134312  0.16777698  0.16741247  1
  Fe  Fe11  1  0.33613842  0.00214590  0.33629001  1
  Ni  Ni12  1  0.33656891  0.33702131  0.00342028  1
  Fe  Fe13  1  0.50056804  0.50170729  0.16786072  1
  Ni  Ni14  1  0.33303398  0.33640374  0.33589071  1
  Ni  Ni15  1  0.33463742  0.66848090  1.00122009  1
  Fe  Fe16  1  0.50351215  0.83503668  0.16796009  1
  Fe  Fe17  1  0.33624449  0.66693350  0.33565774  1
  Ni  Ni18  1  0.66875547  0.00305071  0.00395053  1
  Fe  Fe19  1  0.83397446  0.16792557  0.16720122  1
  Fe  Fe20  1  0.66884903  0.99997603  0.33460751  1
  Ni  Ni21  1  0.66949919  0.33426348  1.00125647  1
  Ni  Ni22  1  0.83645745  0.50415131  0.16688507  1
  Cr  Cr23  1  0.66939760  0.33532727  0.33517200  1
  Fe  Fe24  1  0.66783765  0.66731753  0.00200120  1
  Ni  Ni25  1  0.83302307  0.83353931  0.16852814  1
  Fe  Fe26  1  0.66850385  0.66934361  0.33635096  1
  Ni  Ni27  1  0.16771969  0.16904114  0.50004331  1
  Fe  Fe28  1  0.99913689  1.00069603  0.66653298  1
  Cr  Cr29  1  0.16824044  0.16773881  0.83800529  1
  Fe  Fe30  1  0.16922587  0.50191086  0.50051148  1
  Cr  Cr31  1  0.99935833  0.33478753  0.66657434  1
  Cr  Cr32  1  0.16867619  0.50331839  0.83656221  1
  Fe  Fe33  1  0.16740938  0.83476200  0.50101324  1
  Fe  Fe34  1  1.00023208  0.67015900  0.66743458  1
  Fe  Fe35  1  0.16884286  0.83408606  0.83656590  1
  Cr  Cr36  1  0.50084393  0.16867068  0.50298891  1
  Cr  Cr37  1  0.33499308  0.99931369  0.66845346  1
  Cr  Cr38  1  0.50338030  0.16876587  0.83471641  1
  Ni  Ni39  1  0.50064472  0.50417464  0.50376153  1
  Fe  Fe40  1  0.33728317  0.33777015  0.66649257  1
  Fe  Fe41  1  0.50395960  0.50309105  0.83501133  1
  Ni  Ni42  1  0.50331386  0.83279308  0.50050278  1
  Fe  Fe43  1  0.33752509  0.66853893  0.66812079  1
  Ni  Ni44  1  0.50159369  0.83356945  0.83651313  1
  Ni  Ni45  1  0.83758710  0.16637025  0.50227336  1
  Ni  Ni46  1  0.67038587  1.00042187  0.66668851  1
  Ni  Ni47  1  0.83403177  0.16896233  0.83621547  1
  Ni  Ni48  1  0.83537694  0.50457798  0.50246517  1
  Fe  Fe49  1  0.66925185  0.33667274  0.66861712  1
  Ni  Ni50  1  0.83358349  0.50202160  0.83606981  1
  Ni  Ni51  1  0.83479521  0.83447482  0.50205890  1
  Ni  Ni52  1  0.66766637  0.66823176  0.66770550  1
  Cr  Cr53  1  0.83426147  0.83423310  0.83470869  1
" 