6231,Ni39Fe50Cr10_13,-235.398644292509, 209.771362373494,Ni39Fe50Cr10,"# generated using pymatgen
 data_Cr2Fe9Ni7
_symmetry_space_group_name_H-M   'P 1'
_cell_length_a   7.41936731
_cell_length_b   7.41936731
_cell_length_c   10.49256987
_cell_angle_alpha   90.00000000
_cell_angle_beta   90.00000000
_cell_angle_gamma   90.00000000
_symmetry_Int_Tables_number   1
_chemical_formula_structural   Cr2Fe9Ni7
_chemical_formula_sum   'Cr6 Fe27 Ni21'
_cell_volume   577.58461219
_cell_formula_units_Z   3
loop_
 _symmetry_equiv_pos_site_id
 _symmetry_equiv_pos_as_xyz
  1  'x, y, z'
loop_
 _atom_site_type_symbol
 _atom_site_label
 _atom_site_symmetry_multiplicity
 _atom_site_fract_x
 _atom_site_fract_y
 _atom_site_fract_z
 _atom_site_occupancy
  Ni  Ni0  1  1.00087602  1.00260289  0.00333808  1
  Ni  Ni1  1  0.16990418  0.16858959  0.16864509  1
  Ni  Ni2  1  1.00187190  1.00229221  0.33396736  1
  Fe  Fe3  1  0.00530613  0.33395699  0.00530897  1
  Fe  Fe4  1  0.17222070  0.50110621  0.17066424  1
  Ni  Ni5  1  1.00196932  0.33619141  0.33586686  1
  Cr  Cr6  1  0.00517224  0.67259553  0.00686740  1
  Fe  Fe7  1  0.17255446  0.83858228  0.17074520  1
  Fe  Fe8  1  1.00149309  0.66786851  0.33572058  1
  Fe  Fe9  1  0.33623840  1.00302316  1.00320682  1
  Ni  Ni10  1  0.50125611  0.17108746  0.17028089  1
  Fe  Fe11  1  0.33789031  0.00530041  0.33515762  1
  Ni  Ni12  1  0.33837149  0.33805135  0.00373560  1
  Ni  Ni13  1  0.50428650  0.50361846  0.16906734  1
  Fe  Fe14  1  0.33581190  0.33626294  0.33435991  1
  Ni  Ni15  1  0.33785723  0.66840859  0.00322533  1
  Fe  Fe16  1  0.50331807  0.83794414  0.17027332  1
  Fe  Fe17  1  0.33761215  0.66845226  0.33405719  1
  Ni  Ni18  1  0.67148960  0.00373116  0.00397328  1
  Fe  Fe19  1  0.83547330  0.16908828  0.17034097  1
  Fe  Fe20  1  0.67039433  0.00440475  0.33626177  1
  Fe  Fe21  1  0.66840642  0.33504013  0.00572020  1
  Fe  Fe22  1  0.83512125  0.50080767  0.17155493  1
  Ni  Ni23  1  0.66825528  0.33638787  0.33584975  1
  Fe  Fe24  1  0.66780948  0.67301170  0.00532504  1
  Ni  Ni25  1  0.83618015  0.83594592  0.17182751  1
  Fe  Fe26  1  0.67060317  0.66917839  0.33618062  1
  Cr  Cr27  1  0.17036500  0.17068227  0.50400715  1
  Cr  Cr28  1  0.99962859  1.00084427  0.67200505  1
  Fe  Fe29  1  0.16994527  0.17052396  0.83795162  1
  Fe  Fe30  1  0.16907061  0.50331041  0.50285873  1
  Fe  Fe31  1  0.00325652  0.33673101  0.66937747  1
  Fe  Fe32  1  0.17024093  0.50356605  0.83586255  1
  Cr  Cr33  1  0.17226284  0.83689246  0.50137870  1
  Ni  Ni34  1  0.00407373  0.66888430  0.66805787  1
  Ni  Ni35  1  0.17209137  0.83708841  0.83729284  1
  Fe  Fe36  1  0.50409276  0.16799104  0.50137841  1
  Ni  Ni37  1  0.33997789  0.00456997  0.67244813  1
  Fe  Fe38  1  0.50360759  0.16804920  0.83845318  1
  Fe  Fe39  1  0.50223057  0.50347231  0.50054101  1
  Ni  Ni40  1  0.33794884  0.33910261  0.66937334  1
  Fe  Fe41  1  0.50109620  0.50413191  0.83870819  1
  Ni  Ni42  1  0.50366621  0.83571824  0.50280192  1
  Fe  Fe43  1  0.33811449  0.67142441  0.67143457  1
  Fe  Fe44  1  0.50565971  0.83756583  0.83627924  1
  Ni  Ni45  1  0.83601630  0.17196553  0.50038312  1
  Ni  Ni46  1  0.66872918  1.00290920  0.66756809  1
  Ni  Ni47  1  0.83628139  0.16897132  0.83954986  1
  Ni  Ni48  1  0.83559011  0.50288742  0.50211427  1
  Cr  Cr49  1  0.66763924  0.33392224  0.66867001  1
  Cr  Cr50  1  0.83454432  0.50333629  0.83938150  1
  Fe  Fe51  1  0.83466911  0.83673173  0.50149633  1
  Fe  Fe52  1  0.66930591  0.67193099  0.66793452  1
  Ni  Ni53  1  0.83566668  0.83678090  0.83468497  1
" 