7076,Ni39Fe44Cr16_19,-233.161577849028, 205.010000977969,Ni39Fe44Cr16,"# generated using pymatgen
 data_Cr10Fe23Ni21
_symmetry_space_group_name_H-M   'P 1'
_cell_length_a   7.43192130
_cell_length_b   7.43192130
_cell_length_c   10.51032390
_cell_angle_alpha   90.00000000
_cell_angle_beta   90.00000000
_cell_angle_gamma   90.00000000
_symmetry_Int_Tables_number   1
_chemical_formula_structural   Cr10Fe23Ni21
_chemical_formula_sum   'Cr10 Fe23 Ni21'
_cell_volume   580.52149348
_cell_formula_units_Z   1
loop_
 _symmetry_equiv_pos_site_id
 _symmetry_equiv_pos_as_xyz
  1  'x, y, z'
loop_
 _atom_site_type_symbol
 _atom_site_label
 _atom_site_symmetry_multiplicity
 _atom_site_fract_x
 _atom_site_fract_y
 _atom_site_fract_z
 _atom_site_occupancy
  Ni  Ni0  1  1.00126342  1.00123823  0.00265928  1
  Ni  Ni1  1  0.16865837  0.17018380  0.16868248  1
  Ni  Ni2  1  1.00210547  1.00139382  0.33521310  1
  Ni  Ni3  1  0.00475490  0.33535100  0.00329109  1
  Ni  Ni4  1  0.17054191  0.50120916  0.16878986  1
  Ni  Ni5  1  0.00274043  0.33651878  0.33480465  1
  Ni  Ni6  1  1.00197796  0.67049640  1.00210559  1
  Fe  Fe7  1  0.16764453  0.83485259  0.16973403  1
  Ni  Ni8  1  0.00395652  0.66917468  0.33713452  1
  Cr  Cr9  1  0.33556168  0.00257092  0.00256754  1
  Ni  Ni10  1  0.50116245  0.16996364  0.17015274  1
  Fe  Fe11  1  0.33375048  1.00167926  0.33497372  1
  Ni  Ni12  1  0.33472161  0.33700104  0.00387458  1
  Ni  Ni13  1  0.50011323  0.50226224  0.16982578  1
  Fe  Fe14  1  0.33495501  0.33637911  0.33414588  1
  Fe  Fe15  1  0.33533424  0.66719752  0.00252865  1
  Fe  Fe16  1  0.50229252  0.83423217  0.16956410  1
  Fe  Fe17  1  0.33431514  0.66902797  0.33654299  1
  Fe  Fe18  1  0.67139173  1.00002630  0.00424340  1
  Fe  Fe19  1  0.83785358  0.16803490  0.16895408  1
  Cr  Cr20  1  0.66868961  0.00270610  0.33365291  1
  Cr  Cr21  1  0.66778670  0.33577259  0.00285341  1
  Cr  Cr22  1  0.83721842  0.50395488  0.16906257  1
  Fe  Fe23  1  0.66935815  0.33627283  0.33589233  1
  Fe  Fe24  1  0.66886984  0.67057894  1.00186675  1
  Ni  Ni25  1  0.83621080  0.83674763  0.16782741  1
  Fe  Fe26  1  0.66952454  0.66865921  0.33607595  1
  Cr  Cr27  1  0.16939822  0.16787758  0.50328605  1
  Fe  Fe28  1  0.00533249  0.99898453  0.66940842  1
  Ni  Ni29  1  0.16856290  0.16710974  0.83554428  1
  Ni  Ni30  1  0.16898805  0.50481895  0.50137914  1
  Cr  Cr31  1  0.00297975  0.33749592  0.66966421  1
  Cr  Cr32  1  0.17025038  0.50245355  0.83753008  1
  Ni  Ni33  1  0.16863362  0.83417114  0.50250338  1
  Ni  Ni34  1  0.00264465  0.67091411  0.66784528  1
  Ni  Ni35  1  0.16715305  0.83658669  0.83392664  1
  Fe  Fe36  1  0.50139056  0.17004657  0.50240694  1
  Fe  Fe37  1  0.33332002  1.00018384  0.66915864  1
  Cr  Cr38  1  0.49950267  0.17093664  0.83402670  1
  Fe  Fe39  1  0.50085375  0.50308718  0.50304965  1
  Ni  Ni40  1  0.33823758  0.33685013  0.66898767  1
  Ni  Ni41  1  0.50340683  0.50441092  0.83442314  1
  Ni  Ni42  1  0.50161383  0.83418567  0.50276064  1
  Ni  Ni43  1  0.33611411  0.66949790  0.66860390  1
  Fe  Fe44  1  0.50130492  0.83276297  0.83485130  1
  Fe  Fe45  1  0.83576545  0.16926123  0.50142271  1
  Cr  Cr46  1  0.66819316  1.00132064  0.66840631  1
  Cr  Cr47  1  0.83867019  0.16818683  0.83803448  1
  Fe  Fe48  1  0.83638092  0.50395666  0.50135201  1
  Fe  Fe49  1  0.66696084  0.33956952  0.66804816  1
  Fe  Fe50  1  0.83520000  0.50517565  0.83598410  1
  Fe  Fe51  1  0.83832217  0.83387694  0.50161317  1
  Fe  Fe52  1  0.66816163  0.66695614  0.66914511  1
  Fe  Fe53  1  0.83751813  0.83344971  0.83723157  1
" 