1607,Ni39Fe50Cr10_9,-235.620230193472, 205.003280608104,Ni39Fe50Cr10,"# generated using pymatgen
 data_Cr2Fe9Ni7
_symmetry_space_group_name_H-M   'P 1'
_cell_length_a   7.42272864
_cell_length_b   7.42272864
_cell_length_c   10.49732351
_cell_angle_alpha   90.00000000
_cell_angle_beta   90.00000000
_cell_angle_gamma   90.00000000
_symmetry_Int_Tables_number   1
_chemical_formula_structural   Cr2Fe9Ni7
_chemical_formula_sum   'Cr6 Fe27 Ni21'
_cell_volume   578.36998788
_cell_formula_units_Z   3
loop_
 _symmetry_equiv_pos_site_id
 _symmetry_equiv_pos_as_xyz
  1  'x, y, z'
loop_
 _atom_site_type_symbol
 _atom_site_label
 _atom_site_symmetry_multiplicity
 _atom_site_fract_x
 _atom_site_fract_y
 _atom_site_fract_z
 _atom_site_occupancy
  Fe  Fe0  1  0.00493711  1.00281785  1.00268449  1
  Ni  Ni1  1  0.17051855  0.16724972  0.16919130  1
  Fe  Fe2  1  0.00417176  0.00442641  0.33678162  1
  Fe  Fe3  1  1.00262562  0.33627947  1.00237107  1
  Cr  Cr4  1  0.17001817  0.50442210  0.16912169  1
  Fe  Fe5  1  1.00063403  0.33510859  0.33652773  1
  Fe  Fe6  1  0.00386035  0.66985761  1.00052482  1
  Ni  Ni7  1  0.17118654  0.83797784  0.17005697  1
  Fe  Fe8  1  0.00321723  0.66942497  0.33843662  1
  Ni  Ni9  1  0.33511363  0.00302536  0.00469240  1
  Ni  Ni10  1  0.50236736  0.17096164  0.16902464  1
  Fe  Fe11  1  0.33564815  0.00372857  0.33574689  1
  Fe  Fe12  1  0.33750290  0.33606316  1.00250652  1
  Ni  Ni13  1  0.50379337  0.50118287  0.16836417  1
  Fe  Fe14  1  0.33882744  0.33519676  0.33677772  1
  Ni  Ni15  1  0.33764537  0.67172902  1.00230397  1
  Fe  Fe16  1  0.49985483  0.83621703  0.16785987  1
  Fe  Fe17  1  0.33681273  0.67004576  0.33716709  1
  Fe  Fe18  1  0.66759293  0.00319357  1.00260008  1
  Ni  Ni19  1  0.83601754  0.17165202  0.16858856  1
  Cr  Cr20  1  0.66841306  0.00543808  0.33703806  1
  Fe  Fe21  1  0.66885490  0.33700379  0.00416097  1
  Ni  Ni22  1  0.83486702  0.50072740  0.16889193  1
  Ni  Ni23  1  0.67068036  0.33661521  0.33585002  1
  Ni  Ni24  1  0.66908222  0.66775571  0.00316929  1
  Cr  Cr25  1  0.83847303  0.83581537  0.16740789  1
  Cr  Cr26  1  0.66920572  0.66622604  0.33693364  1
  Fe  Fe27  1  0.16886913  0.17055703  0.50157313  1
  Fe  Fe28  1  1.00174142  1.00147034  0.66962153  1
  Fe  Fe29  1  0.16862013  0.17075603  0.83794856  1
  Fe  Fe30  1  0.16970455  0.50337246  0.50395820  1
  Fe  Fe31  1  0.00312190  0.33782584  0.66994986  1
  Ni  Ni32  1  0.16984400  0.50463345  0.83550391  1
  Fe  Fe33  1  0.16887854  0.83494621  0.50258739  1
  Ni  Ni34  1  0.00387446  0.66860544  0.66961881  1
  Ni  Ni35  1  0.16931403  0.83477244  0.83687697  1
  Ni  Ni36  1  0.50355659  0.17132063  0.50350417  1
  Cr  Cr37  1  0.33608491  1.00285803  0.66888254  1
  Fe  Fe38  1  0.50291211  0.17060547  0.83724450  1
  Ni  Ni39  1  0.50108283  0.50109427  0.50391333  1
  Fe  Fe40  1  0.33608233  0.33917002  0.66955221  1
  Fe  Fe41  1  0.50142939  0.50353223  0.83733578  1
  Ni  Ni42  1  0.50127420  0.83662662  0.50303500  1
  Ni  Ni43  1  0.33448479  0.66880460  0.66930736  1
  Fe  Fe44  1  0.50199979  0.83483441  0.83782776  1
  Ni  Ni45  1  0.83605939  0.16992891  0.50447871  1
  Fe  Fe46  1  0.67104883  0.00344425  0.66847670  1
  Fe  Fe47  1  0.83741147  0.17009654  0.83623350  1
  Ni  Ni48  1  0.83770621  0.50156559  0.50249334  1
  Fe  Fe49  1  0.66978430  0.33585416  0.66848707  1
  Ni  Ni50  1  0.83754857  0.50247250  0.83752422  1
  Ni  Ni51  1  0.83890031  0.83742362  0.50545862  1
  Cr  Cr52  1  0.66993279  0.66899323  0.66830856  1
  Fe  Fe53  1  0.83802034  0.83550298  0.83672747  1
" 