7272,Ni39Fe50Cr10_8,-235.065339816292, 206.476662824071,Ni39Fe50Cr10,"# generated using pymatgen
 data_Cr2Fe9Ni7
_symmetry_space_group_name_H-M   'P 1'
_cell_length_a   7.41908757
_cell_length_b   7.41908757
_cell_length_c   10.49217427
_cell_angle_alpha   90.00000000
_cell_angle_beta   90.00000000
_cell_angle_gamma   90.00000000
_symmetry_Int_Tables_number   1
_chemical_formula_structural   Cr2Fe9Ni7
_chemical_formula_sum   'Cr6 Fe27 Ni21'
_cell_volume   577.51928390
_cell_formula_units_Z   3
loop_
 _symmetry_equiv_pos_site_id
 _symmetry_equiv_pos_as_xyz
  1  'x, y, z'
loop_
 _atom_site_type_symbol
 _atom_site_label
 _atom_site_symmetry_multiplicity
 _atom_site_fract_x
 _atom_site_fract_y
 _atom_site_fract_z
 _atom_site_occupancy
  Fe  Fe0  1  0.00355567  1.00290836  0.00360412  1
  Fe  Fe1  1  0.17095038  0.16871267  0.17060898  1
  Ni  Ni2  1  0.00383493  0.00324732  0.33553318  1
  Ni  Ni3  1  0.00336789  0.33717456  1.00161900  1
  Fe  Fe4  1  0.16958962  0.50368941  0.16987541  1
  Ni  Ni5  1  0.00461797  0.33777959  0.33739624  1
  Fe  Fe6  1  0.00432005  0.66925572  0.00394947  1
  Ni  Ni7  1  0.16988208  0.83549472  0.16955289  1
  Fe  Fe8  1  1.00278138  0.67054760  0.33570927  1
  Ni  Ni9  1  0.33653010  0.00361257  0.00529336  1
  Ni  Ni10  1  0.50295806  0.17070196  0.16968553  1
  Ni  Ni11  1  0.33779385  1.00300300  0.33625724  1
  Fe  Fe12  1  0.33732296  0.33672532  1.00262867  1
  Fe  Fe13  1  0.50253122  0.50309263  0.16979462  1
  Fe  Fe14  1  0.33609222  0.33514776  0.33717035  1
  Ni  Ni15  1  0.33564894  0.66970298  0.00461200  1
  Fe  Fe16  1  0.50190112  0.83815482  0.17118033  1
  Ni  Ni17  1  0.33802083  0.67004647  0.33544444  1
  Fe  Fe18  1  0.66945389  0.00511083  0.00366617  1
  Cr  Cr19  1  0.83557872  0.17011917  0.17001306  1
  Ni  Ni20  1  0.66806518  1.00086371  0.33581149  1
  Ni  Ni21  1  0.67003539  0.33629713  1.00234254  1
  Fe  Fe22  1  0.83757796  0.50355827  0.17036385  1
  Fe  Fe23  1  0.66816477  0.33701624  0.33613386  1
  Cr  Cr24  1  0.66966518  0.66938532  0.00418091  1
  Ni  Ni25  1  0.83873205  0.83626285  0.17082538  1
  Fe  Fe26  1  0.67001571  0.67127510  0.33646513  1
  Ni  Ni27  1  0.16996360  0.17120410  0.50298953  1
  Ni  Ni28  1  1.00193239  0.00337884  0.67078550  1
  Fe  Fe29  1  0.17021000  0.17181503  0.83579540  1
  Fe  Fe30  1  0.16995003  0.50142300  0.50348275  1
  Ni  Ni31  1  0.00459579  0.33770988  0.67067665  1
  Fe  Fe32  1  0.17031840  0.50192049  0.83633910  1
  Cr  Cr33  1  0.17057347  0.83746031  0.50387443  1
  Ni  Ni34  1  1.00166444  0.66860940  0.67010730  1
  Cr  Cr35  1  0.16910515  0.83606090  0.83600246  1
  Fe  Fe36  1  0.50147875  0.16894535  0.50300225  1
  Fe  Fe37  1  0.33676545  0.00646805  0.66875234  1
  Fe  Fe38  1  0.50346472  0.17183510  0.83694632  1
  Fe  Fe39  1  0.50248747  0.50314157  0.50400233  1
  Ni  Ni40  1  0.33647310  0.33694514  0.67017414  1
  Ni  Ni41  1  0.50307523  0.50049731  0.83570812  1
  Ni  Ni42  1  0.50373100  0.83561805  0.50309248  1
  Fe  Fe43  1  0.33736965  0.66714987  0.66925136  1
  Cr  Cr44  1  0.50241380  0.83609973  0.83608426  1
  Cr  Cr45  1  0.83756667  0.17061730  0.50273221  1
  Ni  Ni46  1  0.66989684  1.00248479  0.67056964  1
  Fe  Fe47  1  0.83602142  0.17050331  0.83613897  1
  Fe  Fe48  1  0.83726179  0.50431211  0.50365862  1
  Ni  Ni49  1  0.66862732  0.33721177  0.67101751  1
  Fe  Fe50  1  0.83706131  0.50208831  0.83567744  1
  Fe  Fe51  1  0.83523778  0.83629481  0.50314445  1
  Fe  Fe52  1  0.67122619  0.66875553  0.66933054  1
  Fe  Fe53  1  0.83707923  0.83710303  0.83548554  1
" 