8429,Ni39Fe24Cr35_13,-226.073756843047, 177.280059340634,Ni39Fe24Cr35,"# generated using pymatgen
 data_Cr20Fe13Ni21
_symmetry_space_group_name_H-M   'P 1'
_cell_length_a   7.48057322
_cell_length_b   7.48057322
_cell_length_c   10.57912810
_cell_angle_alpha   90.00000000
_cell_angle_beta   90.00000000
_cell_angle_gamma   90.00000000
_symmetry_Int_Tables_number   1
_chemical_formula_structural   Cr20Fe13Ni21
_chemical_formula_sum   'Cr20 Fe13 Ni21'
_cell_volume   591.99717240
_cell_formula_units_Z   1
loop_
 _symmetry_equiv_pos_site_id
 _symmetry_equiv_pos_as_xyz
  1  'x, y, z'
loop_
 _atom_site_type_symbol
 _atom_site_label
 _atom_site_symmetry_multiplicity
 _atom_site_fract_x
 _atom_site_fract_y
 _atom_site_fract_z
 _atom_site_occupancy
  Fe  Fe0  1  0.99650941  0.00170145  0.99708274  1
  Ni  Ni1  1  0.16514929  0.16989238  0.16733421  1
  Cr  Cr2  1  -0.00014133  0.00291060  0.33103922  1
  Fe  Fe3  1  0.99815519  0.33063687  -0.00032995  1
  Ni  Ni4  1  0.16502428  0.49562931  0.16263183  1
  Ni  Ni5  1  0.00110135  0.33141864  0.33111274  1
  Fe  Fe6  1  0.99628498  0.66582685  0.99769165  1
  Cr  Cr7  1  0.16411731  0.83157353  0.16495637  1
  Cr  Cr8  1  0.99557808  0.66246059  0.33124771  1
  Cr  Cr9  1  0.32890100  -0.00068564  -0.00059487  1
  Cr  Cr10  1  0.50167502  0.16572832  0.16536650  1
  Fe  Fe11  1  0.33280710  0.00022294  0.33179682  1
  Fe  Fe12  1  0.33415387  0.33158921  -0.00021321  1
  Ni  Ni13  1  0.49893420  0.49750120  0.16412604  1
  Ni  Ni14  1  0.32912603  0.33261806  0.33030538  1
  Fe  Fe15  1  0.33543198  0.66509815  0.00069463  1
  Ni  Ni16  1  0.49993313  0.83207622  0.16284930  1
  Cr  Cr17  1  0.33655736  0.66551498  0.32943115  1
  Ni  Ni18  1  0.66555708  0.99847872  0.99546884  1
  Ni  Ni19  1  0.83364271  0.16838377  0.16309808  1
  Cr  Cr20  1  0.66661168  0.99565532  0.33203189  1
  Ni  Ni21  1  0.66824906  0.33369476  0.99866454  1
  Ni  Ni22  1  0.83376506  0.49650164  0.16308335  1
  Cr  Cr23  1  0.66860394  0.33674541  0.33241800  1
  Ni  Ni24  1  0.66616159  0.66436829  0.00101338  1
  Cr  Cr25  1  0.83073702  0.83346473  0.16221755  1
  Cr  Cr26  1  0.66474131  0.66538105  0.33181227  1
  Fe  Fe27  1  0.16563318  0.16513217  0.49819333  1
  Cr  Cr28  1  -0.00045005  -0.00007904  0.66853952  1
  Ni  Ni29  1  0.16845393  0.16451700  0.83360993  1
  Cr  Cr30  1  0.16472662  0.49850447  0.50094001  1
  Cr  Cr31  1  0.99685197  0.33159733  0.66695095  1
  Cr  Cr32  1  0.16351939  0.50177598  0.83391459  1
  Cr  Cr33  1  0.16488686  0.83193101  0.50012163  1
  Ni  Ni34  1  0.99599566  0.66747143  0.66784935  1
  Ni  Ni35  1  0.16376132  0.83307911  0.83192820  1
  Cr  Cr36  1  0.49801555  0.16602139  0.49857880  1
  Ni  Ni37  1  0.33294003  0.99726030  0.66761581  1
  Ni  Ni38  1  0.50077517  0.16262819  0.83308529  1
  Fe  Fe39  1  0.49833681  0.50133017  0.49867024  1
  Cr  Cr40  1  0.33201876  0.32885006  0.66789121  1
  Cr  Cr41  1  0.50045443  0.49637544  0.83372974  1
  Ni  Ni42  1  0.49951318  0.83687616  0.50214773  1
  Fe  Fe43  1  0.33158272  0.66872484  0.66706508  1
  Fe  Fe44  1  0.49948286  0.83232926  0.83337050  1
  Fe  Fe45  1  0.83356191  0.16491066  0.49767380  1
  Fe  Fe46  1  0.66583955  0.99849205  0.66832497  1
  Fe  Fe47  1  0.83272687  0.16631987  0.83658287  1
  Ni  Ni48  1  0.83495723  0.49923126  0.49932208  1
  Cr  Cr49  1  0.66818423  0.33227848  0.66599882  1
  Ni  Ni50  1  0.83241675  0.50184445  0.83468026  1
  Ni  Ni51  1  0.83107496  0.83194330  0.50114107  1
  Cr  Cr52  1  0.66625446  0.66572852  0.66343953  1
  Ni  Ni53  1  0.83229931  0.83172018  0.83347986  1
" 