7767,Ni39Fe50Cr10_3,-235.149201671996, 208.252413068362,Ni39Fe50Cr10,"# generated using pymatgen
 data_Cr2Fe9Ni7
_symmetry_space_group_name_H-M   'P 1'
_cell_length_a   7.41702572
_cell_length_b   7.41702572
_cell_length_c   10.48925837
_cell_angle_alpha   90.00000000
_cell_angle_beta   90.00000000
_cell_angle_gamma   90.00000000
_symmetry_Int_Tables_number   1
_chemical_formula_structural   Cr2Fe9Ni7
_chemical_formula_sum   'Cr6 Fe27 Ni21'
_cell_volume   577.03791927
_cell_formula_units_Z   3
loop_
 _symmetry_equiv_pos_site_id
 _symmetry_equiv_pos_as_xyz
  1  'x, y, z'
loop_
 _atom_site_type_symbol
 _atom_site_label
 _atom_site_symmetry_multiplicity
 _atom_site_fract_x
 _atom_site_fract_y
 _atom_site_fract_z
 _atom_site_occupancy
  Cr  Cr0  1  1.00284601  1.00267156  1.00312941  1
  Ni  Ni1  1  0.16945089  0.17038668  0.16943931  1
  Fe  Fe2  1  0.00472162  0.00380327  0.33540139  1
  Fe  Fe3  1  1.00191862  0.33711705  0.00468658  1
  Ni  Ni4  1  0.16911844  0.50480178  0.16930097  1
  Ni  Ni5  1  1.00166451  0.33538899  0.33574606  1
  Ni  Ni6  1  1.00255870  0.66940124  0.00398263  1
  Ni  Ni7  1  0.17133960  0.83492406  0.17177756  1
  Ni  Ni8  1  1.00278872  0.66987329  0.33515662  1
  Fe  Fe9  1  0.33771869  1.00254227  1.00284037  1
  Fe  Fe10  1  0.50341515  0.16902009  0.16934437  1
  Fe  Fe11  1  0.33572092  1.00150066  0.33725839  1
  Fe  Fe12  1  0.33692803  0.33580956  0.00463900  1
  Fe  Fe13  1  0.50297859  0.50401172  0.17019545  1
  Cr  Cr14  1  0.33635951  0.33615661  0.33673298  1
  Fe  Fe15  1  0.33682460  0.67176754  0.00408697  1
  Fe  Fe16  1  0.50278024  0.83708692  0.16977044  1
  Ni  Ni17  1  0.33769053  0.67181618  0.33671427  1
  Ni  Ni18  1  0.66896936  0.00377436  1.00276387  1
  Ni  Ni19  1  0.83565622  0.17075346  0.17226689  1
  Fe  Fe20  1  0.66967171  0.00381930  0.33533898  1
  Fe  Fe21  1  0.67126398  0.33622103  1.00301205  1
  Fe  Fe22  1  0.83864931  0.50337074  0.17049312  1
  Fe  Fe23  1  0.67188906  0.33811236  0.33727030  1
  Fe  Fe24  1  0.67059124  0.67057667  1.00279220  1
  Fe  Fe25  1  0.83724714  0.83612369  0.17099092  1
  Ni  Ni26  1  0.66964131  0.66959734  0.33562012  1
  Ni  Ni27  1  0.16963845  0.16738301  0.50354197  1
  Fe  Fe28  1  0.00513657  0.00365227  0.67115467  1
  Fe  Fe29  1  0.16981239  0.16804784  0.83629446  1
  Cr  Cr30  1  0.16877395  0.50536697  0.50312110  1
  Fe  Fe31  1  1.00045318  0.33556954  0.66963293  1
  Cr  Cr32  1  0.16874617  0.50521590  0.83734323  1
  Fe  Fe33  1  0.17238286  0.83779252  0.50351424  1
  Fe  Fe34  1  1.00305240  0.67089393  0.67117902  1
  Ni  Ni35  1  0.17232963  0.83673732  0.83498839  1
  Ni  Ni36  1  0.50444803  0.16847212  0.50320790  1
  Ni  Ni37  1  0.33588656  1.00250357  0.67016939  1
  Fe  Fe38  1  0.50439822  0.16855159  0.83713134  1
  Ni  Ni39  1  0.50633699  0.50474914  0.50392324  1
  Cr  Cr40  1  0.33806054  0.33531726  0.66963333  1
  Fe  Fe41  1  0.50592316  0.50495588  0.83653124  1
  Fe  Fe42  1  0.50163058  0.83594242  0.50408905  1
  Ni  Ni43  1  0.33904272  0.67305370  0.66951688  1
  Ni  Ni44  1  0.50280402  0.83747808  0.83617112  1
  Fe  Fe45  1  0.83665605  0.17277657  0.50315621  1
  Fe  Fe46  1  0.66801668  0.00366313  0.67156174  1
  Ni  Ni47  1  0.83498799  0.17120377  0.83474314  1
  Ni  Ni48  1  0.83489107  0.50215407  0.50304510  1
  Fe  Fe49  1  0.67080368  0.33746134  0.66983393  1
  Ni  Ni50  1  0.83572831  0.50252473  0.83653695  1
  Cr  Cr51  1  0.83638399  0.83565688  0.50372588  1
  Ni  Ni52  1  0.66947203  0.66894321  0.67150823  1
  Fe  Fe53  1  0.83589439  0.83559816  0.83608746  1
" 