6809,Ni39Fe50Cr10_10,-235.717793675225, 209.18310555355,Ni39Fe50Cr10,"# generated using pymatgen
 data_Cr2Fe9Ni7
_symmetry_space_group_name_H-M   'P 1'
_cell_length_a   7.41998305
_cell_length_b   7.41998305
_cell_length_c   10.49344067
_cell_angle_alpha   90.00000000
_cell_angle_beta   90.00000000
_cell_angle_gamma   90.00000000
_symmetry_Int_Tables_number   1
_chemical_formula_structural   Cr2Fe9Ni7
_chemical_formula_sum   'Cr6 Fe27 Ni21'
_cell_volume   577.72842774
_cell_formula_units_Z   3
loop_
 _symmetry_equiv_pos_site_id
 _symmetry_equiv_pos_as_xyz
  1  'x, y, z'
loop_
 _atom_site_type_symbol
 _atom_site_label
 _atom_site_symmetry_multiplicity
 _atom_site_fract_x
 _atom_site_fract_y
 _atom_site_fract_z
 _atom_site_occupancy
  Fe  Fe0  1  0.00385322  0.00388966  1.00291969  1
  Fe  Fe1  1  0.17081817  0.16978967  0.16912766  1
  Fe  Fe2  1  1.00316270  1.00248279  0.33811535  1
  Ni  Ni3  1  0.00541945  0.33673592  1.00301203  1
  Ni  Ni4  1  0.17190250  0.50445221  0.17030225  1
  Cr  Cr5  1  0.00421789  0.33521374  0.33675881  1
  Fe  Fe6  1  0.00467070  0.66930590  1.00217025  1
  Fe  Fe7  1  0.17202083  0.83574819  0.17044363  1
  Ni  Ni8  1  0.00702603  0.67152960  0.33735597  1
  Fe  Fe9  1  0.33748541  0.00365683  1.00296305  1
  Ni  Ni10  1  0.50371925  0.16927140  0.17008249  1
  Fe  Fe11  1  0.33717634  0.00323722  0.33656215  1
  Fe  Fe12  1  0.33659290  0.33627145  1.00311114  1
  Ni  Ni13  1  0.50056167  0.50331751  0.16984330  1
  Fe  Fe14  1  0.33894716  0.33713457  0.33675503  1
  Fe  Fe15  1  0.33661535  0.66958855  0.00388496  1
  Ni  Ni16  1  0.50145804  0.83692294  0.17032043  1
  Ni  Ni17  1  0.33631909  0.66955474  0.33645061  1
  Ni  Ni18  1  0.66770103  1.00266424  1.00291446  1
  Ni  Ni19  1  0.83557860  0.16871372  0.16986659  1
  Ni  Ni20  1  0.66875432  0.00449689  0.33762028  1
  Fe  Fe21  1  0.66845704  0.33544852  0.00417615  1
  Cr  Cr22  1  0.83642780  0.50212115  0.16915865  1
  Ni  Ni23  1  0.66678081  0.33349638  0.33620683  1
  Fe  Fe24  1  0.66822436  0.67019586  1.00113750  1
  Cr  Cr25  1  0.83620515  0.83830358  0.17053444  1
  Fe  Fe26  1  0.66713042  0.67016281  0.33758991  1
  Ni  Ni27  1  0.16919749  0.16765080  0.50400097  1
  Ni  Ni28  1  0.00341973  0.00349294  0.66882718  1
  Fe  Fe29  1  0.17080359  0.16933433  0.83641504  1
  Fe  Fe30  1  0.17152136  0.50347542  0.50292545  1
  Ni  Ni31  1  0.00426115  0.33556651  0.66992776  1
  Ni  Ni32  1  0.16792318  0.50483580  0.83621414  1
  Fe  Fe33  1  0.16980923  0.83713020  0.50286039  1
  Fe  Fe34  1  0.00377633  0.67019261  0.67045931  1
  Fe  Fe35  1  0.17041035  0.83693469  0.83621179  1
  Ni  Ni36  1  0.50403223  0.16896474  0.50262480  1
  Fe  Fe37  1  0.33638724  1.00219272  0.66998983  1
  Ni  Ni38  1  0.50309296  0.16759053  0.83680649  1
  Ni  Ni39  1  0.50252000  0.50415978  0.50225869  1
  Cr  Cr40  1  0.33556081  0.33650536  0.66914493  1
  Fe  Fe41  1  0.50390382  0.50412343  0.83681572  1
  Fe  Fe42  1  0.50352403  0.83695464  0.50306448  1
  Fe  Fe43  1  0.33626373  0.67104367  0.66970427  1
  Ni  Ni44  1  0.50284109  0.83699719  0.83600061  1
  Ni  Ni45  1  0.83628647  0.16756627  0.50373401  1
  Fe  Fe46  1  0.66946609  1.00296841  0.66927157  1
  Cr  Cr47  1  0.83599666  0.17034269  0.83562532  1
  Cr  Cr48  1  0.83604297  0.50324591  0.50379400  1
  Fe  Fe49  1  0.67031431  0.33616011  0.66877082  1
  Fe  Fe50  1  0.83632207  0.50451963  0.83621218  1
  Fe  Fe51  1  0.83618084  0.83889044  0.50308421  1
  Ni  Ni52  1  0.66842766  0.67160471  0.67072980  1
  Fe  Fe53  1  0.83574795  0.83511000  0.83640219  1
" 