1337,Ni39Fe24Cr35_10,-225.879110533274, 178.449158598199,Ni39Fe24Cr35,"# generated using pymatgen
 data_Cr20Fe13Ni21
_symmetry_space_group_name_H-M   'P 1'
_cell_length_a   7.47701600
_cell_length_b   7.47701600
_cell_length_c   10.57409743
_cell_angle_alpha   90.00000000
_cell_angle_beta   90.00000000
_cell_angle_gamma   90.00000000
_symmetry_Int_Tables_number   1
_chemical_formula_structural   Cr20Fe13Ni21
_chemical_formula_sum   'Cr20 Fe13 Ni21'
_cell_volume   591.15304008
_cell_formula_units_Z   1
loop_
 _symmetry_equiv_pos_site_id
 _symmetry_equiv_pos_as_xyz
  1  'x, y, z'
loop_
 _atom_site_type_symbol
 _atom_site_label
 _atom_site_symmetry_multiplicity
 _atom_site_fract_x
 _atom_site_fract_y
 _atom_site_fract_z
 _atom_site_occupancy
  Cr  Cr0  1  0.99807655  -0.00065308  0.00067039  1
  Ni  Ni1  1  0.16634626  0.16785756  0.16566752  1
  Cr  Cr2  1  0.99754521  0.99900361  0.33195811  1
  Ni  Ni3  1  0.00107829  0.33384419  0.00077164  1
  Fe  Fe4  1  0.16280728  0.49861355  0.16800858  1
  Ni  Ni5  1  0.00089280  0.33357444  0.33091118  1
  Fe  Fe6  1  0.99575855  0.66494985  0.00041542  1
  Ni  Ni7  1  0.16410364  0.83438519  0.16788253  1
  Ni  Ni8  1  -0.00006994  0.66447630  0.33195241  1
  Fe  Fe9  1  0.33358853  -0.00018721  0.00328328  1
  Ni  Ni10  1  0.49656005  0.16293665  0.16829296  1
  Fe  Fe11  1  0.33346072  0.00098893  0.32959036  1
  Cr  Cr12  1  0.32951285  0.33310679  0.99822127  1
  Cr  Cr13  1  0.50136140  0.49985626  0.16701586  1
  Ni  Ni14  1  0.33053069  0.33150270  0.33290725  1
  Cr  Cr15  1  0.33066542  0.66849980  0.00177851  1
  Ni  Ni16  1  0.50217291  0.83581861  0.16538644  1
  Cr  Cr17  1  0.33016029  0.66809976  0.33149700  1
  Ni  Ni18  1  0.66664023  0.99642192  0.00206373  1
  Fe  Fe19  1  0.83282196  0.16376785  0.16666530  1
  Ni  Ni20  1  0.66533012  0.99926942  0.33053339  1
  Cr  Cr21  1  0.66945816  0.33101168  0.00111096  1
  Fe  Fe22  1  0.83621877  0.50185574  0.16575906  1
  Cr  Cr23  1  0.66863008  0.32915226  0.33353813  1
  Ni  Ni24  1  0.66819873  0.66965507  0.99923273  1
  Ni  Ni25  1  0.83154760  0.82978733  0.16527220  1
  Ni  Ni26  1  0.66804138  0.66858113  0.33079006  1
  Cr  Cr27  1  0.16559928  0.16596956  0.49959375  1
  Ni  Ni28  1  0.99851101  0.99822171  0.66604583  1
  Fe  Fe29  1  0.16449703  0.16666177  0.83246528  1
  Ni  Ni30  1  0.16357732  0.49801669  0.49792061  1
  Cr  Cr31  1  0.99842314  0.33299243  0.66655932  1
  Fe  Fe32  1  0.16150149  0.49920630  0.83237551  1
  Fe  Fe33  1  0.16363638  0.83124777  0.49974887  1
  Ni  Ni34  1  -0.00053603  0.66672194  0.66626738  1
  Cr  Cr35  1  0.16210505  0.83523792  0.83100036  1
  Fe  Fe36  1  0.49972908  0.16401673  0.49806464  1
  Fe  Fe37  1  0.33210633  -0.00047156  0.66500629  1
  Cr  Cr38  1  0.49646555  0.16387377  0.83108757  1
  Cr  Cr39  1  0.49945090  0.49912615  0.49893306  1
  Fe  Fe40  1  0.33076000  0.33170450  0.66496641  1
  Cr  Cr41  1  0.50146707  0.50022265  0.83157847  1
  Cr  Cr42  1  0.50152763  0.83420755  0.49831819  1
  Cr  Cr43  1  0.33016134  0.66480004  0.66501637  1
  Cr  Cr44  1  0.50378134  0.83391754  0.83444921  1
  Ni  Ni45  1  0.83349602  0.16457624  0.49835576  1
  Ni  Ni46  1  0.66786981  -0.00064846  0.66556107  1
  Cr  Cr47  1  0.83435888  0.16285861  0.83349780  1
  Fe  Fe48  1  0.83636926  0.50075506  0.49844132  1
  Cr  Cr49  1  0.66707392  0.33193215  0.66324481  1
  Ni  Ni50  1  0.83574527  0.50366894  0.83328292  1
  Cr  Cr51  1  0.83329214  0.83174456  0.50181115  1
  Ni  Ni52  1  0.66849681  0.66764318  0.66794403  1
  Ni  Ni53  1  0.83309897  0.82962345  0.83129127  1
" 