2651,Ni39Fe50Cr10_11,-235.397750947105, 207.267615151534,Ni39Fe50Cr10,"# generated using pymatgen
 data_Cr2Fe9Ni7
_symmetry_space_group_name_H-M   'P 1'
_cell_length_a   7.42154686
_cell_length_b   7.42154686
_cell_length_c   10.49565222
_cell_angle_alpha   90.00000000
_cell_angle_beta   90.00000000
_cell_angle_gamma   90.00000000
_symmetry_Int_Tables_number   1
_chemical_formula_structural   Cr2Fe9Ni7
_chemical_formula_sum   'Cr6 Fe27 Ni21'
_cell_volume   578.09378346
_cell_formula_units_Z   3
loop_
 _symmetry_equiv_pos_site_id
 _symmetry_equiv_pos_as_xyz
  1  'x, y, z'
loop_
 _atom_site_type_symbol
 _atom_site_label
 _atom_site_symmetry_multiplicity
 _atom_site_fract_x
 _atom_site_fract_y
 _atom_site_fract_z
 _atom_site_occupancy
  Fe  Fe0  1  1.00287878  0.00340487  0.00334977  1
  Ni  Ni1  1  0.16971315  0.16994207  0.16826459  1
  Fe  Fe2  1  1.00142463  1.00184765  0.33631820  1
  Fe  Fe3  1  0.00311782  0.33620039  1.00263763  1
  Ni  Ni4  1  0.17213088  0.50472363  0.16998911  1
  Cr  Cr5  1  1.00287515  0.33674987  0.33525816  1
  Fe  Fe6  1  0.00338484  0.66958992  1.00287889  1
  Ni  Ni7  1  0.16854442  0.83452924  0.17015142  1
  Ni  Ni8  1  0.00354272  0.67162648  0.33476207  1
  Fe  Fe9  1  0.33521740  1.00222049  0.00412054  1
  Fe  Fe10  1  0.50311752  0.17116171  0.17001181  1
  Cr  Cr11  1  0.33613227  0.00398867  0.33556037  1
  Fe  Fe12  1  0.33518908  0.33759321  0.00478601  1
  Ni  Ni13  1  0.50126149  0.50167148  0.16963526  1
  Ni  Ni14  1  0.33819269  0.33527646  0.33545744  1
  Fe  Fe15  1  0.33610990  0.66938268  0.00358171  1
  Fe  Fe16  1  0.50231448  0.83665461  0.16818776  1
  Fe  Fe17  1  0.33557821  0.66834343  0.33499089  1
  Fe  Fe18  1  0.67109713  1.00248303  0.00398022  1
  Ni  Ni19  1  0.83440109  0.16800528  0.16990310  1
  Ni  Ni20  1  0.66953755  0.00437168  0.33640975  1
  Fe  Fe21  1  0.67089282  0.33709290  0.00383364  1
  Fe  Fe22  1  0.83734605  0.50260491  0.16830124  1
  Ni  Ni23  1  0.66804949  0.33494330  0.33589427  1
  Fe  Fe24  1  0.66970369  0.66961775  1.00241158  1
  Fe  Fe25  1  0.83806204  0.83714191  0.16951471  1
  Cr  Cr26  1  0.67115941  0.66942610  0.33628354  1
  Ni  Ni27  1  0.17037920  0.16919612  0.50424485  1
  Fe  Fe28  1  1.00056744  1.00287890  0.66952575  1
  Fe  Fe29  1  0.16602086  0.17117429  0.83692919  1
  Cr  Cr30  1  0.17114973  0.50447678  0.50256174  1
  Ni  Ni31  1  1.00170977  0.33631587  0.67188987  1
  Ni  Ni32  1  0.16985506  0.50385590  0.83618476  1
  Ni  Ni33  1  0.16684284  0.83547146  0.50265097  1
  Ni  Ni34  1  1.00115363  0.66952727  0.67126417  1
  Fe  Fe35  1  0.16769524  0.83514553  0.83698792  1
  Ni  Ni36  1  0.50537015  0.17195805  0.50144031  1
  Cr  Cr37  1  0.33508389  1.00256011  0.66929553  1
  Cr  Cr38  1  0.50512992  0.17088172  0.83751777  1
  Fe  Fe39  1  0.50375018  0.50178883  0.50326640  1
  Fe  Fe40  1  0.33615628  0.33851214  0.66900815  1
  Fe  Fe41  1  0.50446530  0.50456474  0.83647330  1
  Fe  Fe42  1  0.50354090  0.83661126  0.50393256  1
  Fe  Fe43  1  0.33677580  0.66811138  0.67062389  1
  Fe  Fe44  1  0.50494590  0.83360933  0.83707402  1
  Fe  Fe45  1  0.83569873  0.16863225  0.50372857  1
  Fe  Fe46  1  0.67318830  1.00225837  0.66862547  1
  Ni  Ni47  1  0.83650695  0.16889385  0.83494027  1
  Fe  Fe48  1  0.83542058  0.50319088  0.50555160  1
  Ni  Ni49  1  0.67168964  0.33839917  0.66881975  1
  Ni  Ni50  1  0.83723391  0.50385629  0.83607121  1
  Ni  Ni51  1  0.83728913  0.83766240  0.50340193  1
  Ni  Ni52  1  0.67072693  0.66896312  0.67082421  1
  Ni  Ni53  1  0.83621330  0.83644456  0.83622645  1
" 