4956,Ni39Fe50Cr10_14,-235.196870840022, 211.184706325616,Ni39Fe50Cr10,"# generated using pymatgen
 data_Cr2Fe9Ni7
_symmetry_space_group_name_H-M   'P 1'
_cell_length_a   7.41546303
_cell_length_b   7.41546303
_cell_length_c   10.48704839
_cell_angle_alpha   90.00000000
_cell_angle_beta   90.00000000
_cell_angle_gamma   90.00000000
_symmetry_Int_Tables_number   1
_chemical_formula_structural   Cr2Fe9Ni7
_chemical_formula_sum   'Cr6 Fe27 Ni21'
_cell_volume   576.67326915
_cell_formula_units_Z   3
loop_
 _symmetry_equiv_pos_site_id
 _symmetry_equiv_pos_as_xyz
  1  'x, y, z'
loop_
 _atom_site_type_symbol
 _atom_site_label
 _atom_site_symmetry_multiplicity
 _atom_site_fract_x
 _atom_site_fract_y
 _atom_site_fract_z
 _atom_site_occupancy
  Fe  Fe0  1  0.00494804  1.00273041  0.00355375  1
  Fe  Fe1  1  0.17364447  0.16894392  0.17011350  1
  Ni  Ni2  1  0.00386555  1.00162846  0.33535375  1
  Ni  Ni3  1  0.00491684  0.33603686  0.00479936  1
  Cr  Cr4  1  0.17046584  0.50522214  0.17171774  1
  Fe  Fe5  1  1.00316805  0.33282949  0.33673249  1
  Fe  Fe6  1  1.00124096  0.67042926  1.00188768  1
  Ni  Ni7  1  0.16758395  0.83700947  0.16945419  1
  Fe  Fe8  1  0.99993261  0.67134847  0.33747839  1
  Fe  Fe9  1  0.33580699  0.00364860  1.00160946  1
  Ni  Ni10  1  0.50547839  0.16988769  0.16996802  1
  Fe  Fe11  1  0.33780352  0.00569558  0.33682753  1
  Fe  Fe12  1  0.33882588  0.33568636  1.00309997  1
  Ni  Ni13  1  0.50372396  0.50359858  0.16719453  1
  Ni  Ni14  1  0.33806237  0.33671980  0.33680138  1
  Fe  Fe15  1  0.33569773  0.67099387  1.00125112  1
  Fe  Fe16  1  0.50033660  0.83613635  0.16915989  1
  Fe  Fe17  1  0.33882257  0.67394581  0.33678043  1
  Cr  Cr18  1  0.66960243  1.00333235  1.00245325  1
  Fe  Fe19  1  0.83970505  0.16852329  0.17021011  1
  Ni  Ni20  1  0.67030133  1.00200587  0.33755148  1
  Fe  Fe21  1  0.67118362  0.33803619  1.00280168  1
  Fe  Fe22  1  0.83575285  0.50483344  0.16700176  1
  Cr  Cr23  1  0.67058324  0.33706699  0.33347039  1
  Ni  Ni24  1  0.66760836  0.66934713  1.00309898  1
  Fe  Fe25  1  0.83495631  0.83548217  0.17060448  1
  Fe  Fe26  1  0.66946713  0.67161217  0.33464992  1
  Ni  Ni27  1  0.16801061  0.17008577  0.50100315  1
  Ni  Ni28  1  0.00369481  0.00368773  0.67170908  1
  Ni  Ni29  1  0.16935516  0.17149348  0.83855000  1
  Cr  Cr30  1  0.16853184  0.50461383  0.50320611  1
  Ni  Ni31  1  1.00126534  0.33595670  0.66900073  1
  Ni  Ni32  1  0.16823092  0.50332813  0.83620681  1
  Fe  Fe33  1  0.16872834  0.83934295  0.50300012  1
  Ni  Ni34  1  0.00443603  0.67049148  0.67122631  1
  Ni  Ni35  1  0.16873184  0.83523907  0.83764497  1
  Ni  Ni36  1  0.50584417  0.16978790  0.50438681  1
  Cr  Cr37  1  0.33549138  0.00373756  0.66937076  1
  Ni  Ni38  1  0.50520649  0.17126623  0.83530113  1
  Cr  Cr39  1  0.50325590  0.50402713  0.50761688  1
  Fe  Fe40  1  0.33349252  0.33627113  0.67117801  1
  Fe  Fe41  1  0.50052954  0.50390669  0.83697377  1
  Fe  Fe42  1  0.50510755  0.83867071  0.50431354  1
  Ni  Ni43  1  0.33640915  0.67178394  0.67259392  1
  Ni  Ni44  1  0.50426018  0.83644496  0.83641923  1
  Ni  Ni45  1  0.83655691  0.16687987  0.50468912  1
  Fe  Fe46  1  0.67261820  1.00324059  0.67055372  1
  Fe  Fe47  1  0.84018925  0.17045443  0.83610495  1
  Fe  Fe48  1  0.83598867  0.50102963  0.50567032  1
  Ni  Ni49  1  0.67119203  0.33601240  0.67371437  1
  Fe  Fe50  1  0.83787980  0.50270503  0.83765999  1
  Fe  Fe51  1  0.83772028  0.83741984  0.50402131  1
  Fe  Fe52  1  0.67306919  0.67071735  0.67350942  1
  Fe  Fe53  1  0.83854076  0.83649630  0.83657179  1
" 