52,Ni39Fe44Cr16_3,-233.35603382034, 199.816940927267,Ni39Fe44Cr16,"# generated using pymatgen
 data_Cr10Fe23Ni21
_symmetry_space_group_name_H-M   'P 1'
_cell_length_a   7.43881432
_cell_length_b   7.43881432
_cell_length_c   10.52007210
_cell_angle_alpha   90.00000000
_cell_angle_beta   90.00000000
_cell_angle_gamma   90.00000000
_symmetry_Int_Tables_number   1
_chemical_formula_structural   Cr10Fe23Ni21
_chemical_formula_sum   'Cr10 Fe23 Ni21'
_cell_volume   582.13827253
_cell_formula_units_Z   1
loop_
 _symmetry_equiv_pos_site_id
 _symmetry_equiv_pos_as_xyz
  1  'x, y, z'
loop_
 _atom_site_type_symbol
 _atom_site_label
 _atom_site_symmetry_multiplicity
 _atom_site_fract_x
 _atom_site_fract_y
 _atom_site_fract_z
 _atom_site_occupancy
  Cr  Cr0  1  1.00041246  0.00336075  1.00142700  1
  Fe  Fe1  1  0.16649239  0.16910658  0.17144503  1
  Fe  Fe2  1  0.00413599  0.00203055  0.33326400  1
  Fe  Fe3  1  1.00181746  0.33599184  1.00173067  1
  Fe  Fe4  1  0.16832841  0.50268084  0.16918934  1
  Ni  Ni5  1  1.00163413  0.33527928  0.33358151  1
  Fe  Fe6  1  0.00262968  0.66775567  1.00135844  1
  Ni  Ni7  1  0.16823912  0.83257826  0.17001172  1
  Fe  Fe8  1  0.00486847  0.66777632  0.33525950  1
  Cr  Cr9  1  0.33610777  0.99953016  1.00068960  1
  Cr  Cr10  1  0.50367521  0.16814413  0.17104359  1
  Ni  Ni11  1  0.33453909  1.00034591  0.33622311  1
  Cr  Cr12  1  0.33317872  0.33740940  1.00106383  1
  Ni  Ni13  1  0.50039298  0.50418180  0.16834890  1
  Fe  Fe14  1  0.33454554  0.33624881  0.33631058  1
  Ni  Ni15  1  0.33534143  0.66862284  0.00295792  1
  Fe  Fe16  1  0.50139802  0.83391523  0.16892312  1
  Ni  Ni17  1  0.33454302  0.66981844  0.33478506  1
  Ni  Ni18  1  0.66992511  1.00016768  0.00213494  1
  Ni  Ni19  1  0.83598241  0.16785671  0.16951966  1
  Fe  Fe20  1  0.66733252  0.00271893  0.33437387  1
  Cr  Cr21  1  0.67117247  0.33493855  1.00161187  1
  Fe  Fe22  1  0.83652713  0.50138651  0.16929565  1
  Fe  Fe23  1  0.66792943  0.33551165  0.33562343  1
  Fe  Fe24  1  0.66759293  0.67027350  0.00238345  1
  Fe  Fe25  1  0.83484678  0.83575570  0.16832603  1
  Cr  Cr26  1  0.66683665  0.66728265  0.33593380  1
  Ni  Ni27  1  0.17063475  0.16883110  0.50246755  1
  Fe  Fe28  1  0.00455438  0.00255648  0.67014431  1
  Fe  Fe29  1  0.16795020  0.16966418  0.83242753  1
  Ni  Ni30  1  0.16809531  0.50168763  0.50042614  1
  Ni  Ni31  1  1.00097123  0.33669799  0.67010683  1
  Ni  Ni32  1  0.16712736  0.50288028  0.83665289  1
  Fe  Fe33  1  0.17052017  0.83562041  0.50078940  1
  Ni  Ni34  1  1.00152081  0.66646258  0.66828929  1
  Fe  Fe35  1  0.16818117  0.83473259  0.83493810  1
  Ni  Ni36  1  0.49939975  0.16898866  0.50132618  1
  Ni  Ni37  1  0.33436017  0.00273455  0.66852847  1
  Ni  Ni38  1  0.50301421  0.16781612  0.83370364  1
  Ni  Ni39  1  0.50119928  0.50078383  0.50264114  1
  Fe  Fe40  1  0.33496266  0.33372211  0.66842032  1
  Fe  Fe41  1  0.50247677  0.50159679  0.83492414  1
  Ni  Ni42  1  0.49955432  0.83592124  0.50066651  1
  Cr  Cr43  1  0.33498097  0.66959409  0.66698203  1
  Fe  Fe44  1  0.50229377  0.83543873  0.83579664  1
  Cr  Cr45  1  0.83532878  0.17018070  0.50120610  1
  Cr  Cr46  1  0.66625363  0.00316239  0.66937991  1
  Ni  Ni47  1  0.83480081  0.16843304  0.83515268  1
  Ni  Ni48  1  0.83639975  0.50183574  0.50344528  1
  Ni  Ni49  1  0.66955110  0.33675892  0.66816320  1
  Fe  Fe50  1  0.83622518  0.50136112  0.83331587  1
  Cr  Cr51  1  0.83690526  0.83384590  0.50240087  1
  Fe  Fe52  1  0.66957220  0.66601896  0.66820458  1
  Fe  Fe53  1  0.83521653  0.83448100  0.83516067  1
" 