1024,Ni39Fe50Cr10_18,-235.033172721872, 203.317517673528,Ni39Fe50Cr10,"# generated using pymatgen
 data_Cr2Fe9Ni7
_symmetry_space_group_name_H-M   'P 1'
_cell_length_a   7.41978945
_cell_length_b   7.41978945
_cell_length_c   10.49316687
_cell_angle_alpha   90.00000000
_cell_angle_beta   90.00000000
_cell_angle_gamma   90.00000000
_symmetry_Int_Tables_number   1
_chemical_formula_structural   Cr2Fe9Ni7
_chemical_formula_sum   'Cr6 Fe27 Ni21'
_cell_volume   577.68320564
_cell_formula_units_Z   3
loop_
 _symmetry_equiv_pos_site_id
 _symmetry_equiv_pos_as_xyz
  1  'x, y, z'
loop_
 _atom_site_type_symbol
 _atom_site_label
 _atom_site_symmetry_multiplicity
 _atom_site_fract_x
 _atom_site_fract_y
 _atom_site_fract_z
 _atom_site_occupancy
  Ni  Ni0  1  0.00446603  0.00522418  0.00385197  1
  Fe  Fe1  1  0.16732442  0.17006091  0.16953277  1
  Ni  Ni2  1  0.00389542  0.00459509  0.33459935  1
  Fe  Fe3  1  0.99927737  0.33549756  1.00308203  1
  Fe  Fe4  1  0.16960684  0.50076524  0.17009737  1
  Fe  Fe5  1  1.00210417  0.33630305  0.33715443  1
  Fe  Fe6  1  1.00115502  0.66998628  0.00508456  1
  Ni  Ni7  1  0.17041238  0.83478172  0.16987991  1
  Fe  Fe8  1  0.00431009  0.66899546  0.33616303  1
  Fe  Fe9  1  0.33506485  1.00249920  1.00259422  1
  Cr  Cr10  1  0.50358338  0.16972421  0.16947754  1
  Fe  Fe11  1  0.33588591  1.00246225  0.33768281  1
  Fe  Fe12  1  0.33681235  0.33580598  1.00282599  1
  Fe  Fe13  1  0.50397915  0.50381491  0.16980239  1
  Ni  Ni14  1  0.33628662  0.33685675  0.33713882  1
  Fe  Fe15  1  0.33624957  0.67057229  0.00467869  1
  Fe  Fe16  1  0.50526906  0.83430901  0.16950680  1
  Fe  Fe17  1  0.33561874  0.67000947  0.33690088  1
  Fe  Fe18  1  0.67285953  0.00412840  0.00331458  1
  Ni  Ni19  1  0.83623142  0.17099267  0.17121030  1
  Fe  Fe20  1  0.67018526  0.00432818  0.33728850  1
  Fe  Fe21  1  0.67353531  0.33643601  1.00130948  1
  Ni  Ni22  1  0.83735774  0.50353965  0.17127185  1
  Fe  Fe23  1  0.67121321  0.33629300  0.33807043  1
  Ni  Ni24  1  0.66924196  0.66622680  0.00340881  1
  Fe  Fe25  1  0.83680340  0.83711523  0.17003455  1
  Ni  Ni26  1  0.66859864  0.66853803  0.33612837  1
  Fe  Fe27  1  0.16869957  0.17017649  0.50375069  1
  Ni  Ni28  1  0.00520094  0.00506187  0.67116895  1
  Ni  Ni29  1  0.17068259  0.17055795  0.83648338  1
  Fe  Fe30  1  0.16831862  0.49966980  0.50376363  1
  Ni  Ni31  1  1.00122207  0.33420191  0.66920955  1
  Cr  Cr32  1  0.16762132  0.50301568  0.83725049  1
  Fe  Fe33  1  0.16966130  0.83993774  0.50198664  1
  Ni  Ni34  1  0.00341742  0.67015163  0.66920902  1
  Fe  Fe35  1  0.16926926  0.83930926  0.83754730  1
  Ni  Ni36  1  0.50155655  0.17060789  0.50417100  1
  Ni  Ni37  1  0.33389180  0.00522388  0.66922258  1
  Ni  Ni38  1  0.50220468  0.17118819  0.83590306  1
  Fe  Fe39  1  0.50503954  0.50017595  0.50231813  1
  Ni  Ni40  1  0.33831154  0.33470718  0.67053073  1
  Ni  Ni41  1  0.50353984  0.50139958  0.83781151  1
  Fe  Fe42  1  0.50398575  0.83926262  0.50221040  1
  Cr  Cr43  1  0.33770514  0.66955752  0.66801988  1
  Cr  Cr44  1  0.50372589  0.83870897  0.83525631  1
  Ni  Ni45  1  0.83560676  0.16994887  0.50297389  1
  Fe  Fe46  1  0.66963003  0.00850129  0.66865607  1
  Ni  Ni47  1  0.83667808  0.17064817  0.83544885  1
  Fe  Fe48  1  0.83586863  0.50076176  0.50353603  1
  Ni  Ni49  1  0.66942887  0.33741666  0.67082274  1
  Ni  Ni50  1  0.83621206  0.50297609  0.83415076  1
  Cr  Cr51  1  0.83809676  0.83657208  0.50404670  1
  Fe  Fe52  1  0.67078003  0.66634793  0.66911703  1
  Cr  Cr53  1  0.83828566  0.83602002  0.83531277  1
" 