3513,Ni39Fe44Cr16_5,-233.048981097407, 204.054700204644,Ni39Fe44Cr16,"# generated using pymatgen
 data_Cr10Fe23Ni21
_symmetry_space_group_name_H-M   'P 1'
_cell_length_a   7.43366349
_cell_length_b   7.43366349
_cell_length_c   10.51278772
_cell_angle_alpha   90.00000000
_cell_angle_beta   90.00000000
_cell_angle_gamma   90.00000000
_symmetry_Int_Tables_number   1
_chemical_formula_structural   Cr10Fe23Ni21
_chemical_formula_sum   'Cr10 Fe23 Ni21'
_cell_volume   580.92984644
_cell_formula_units_Z   1
loop_
 _symmetry_equiv_pos_site_id
 _symmetry_equiv_pos_as_xyz
  1  'x, y, z'
loop_
 _atom_site_type_symbol
 _atom_site_label
 _atom_site_symmetry_multiplicity
 _atom_site_fract_x
 _atom_site_fract_y
 _atom_site_fract_z
 _atom_site_occupancy
  Fe  Fe0  1  0.00373749  0.00314014  0.00260588  1
  Fe  Fe1  1  0.16968077  0.16666252  0.16920450  1
  Fe  Fe2  1  1.00135076  0.00480706  0.33594016  1
  Fe  Fe3  1  1.00166297  0.33343281  0.00394049  1
  Fe  Fe4  1  0.16971334  0.50148071  0.16971349  1
  Ni  Ni5  1  1.00063169  0.33661248  0.33288621  1
  Cr  Cr6  1  1.00146120  0.66869207  1.00101026  1
  Ni  Ni7  1  0.17066017  0.83465008  0.17099825  1
  Fe  Fe8  1  1.00156692  0.66917430  0.33621109  1
  Ni  Ni9  1  0.33622104  1.00166849  0.00273163  1
  Ni  Ni10  1  0.50341176  0.16830903  0.17027572  1
  Ni  Ni11  1  0.33657509  1.00135932  0.33461839  1
  Ni  Ni12  1  0.33712241  0.33479598  0.00581594  1
  Fe  Fe13  1  0.50331407  0.50231596  0.16853446  1
  Fe  Fe14  1  0.33759917  0.33429308  0.33410078  1
  Fe  Fe15  1  0.33689633  0.66972090  1.00217592  1
  Ni  Ni16  1  0.50093932  0.83556609  0.16738245  1
  Fe  Fe17  1  0.33678891  0.66845117  0.33438549  1
  Fe  Fe18  1  0.66812739  0.00373372  0.00293953  1
  Ni  Ni19  1  0.83477574  0.17037221  0.16877401  1
  Ni  Ni20  1  0.66735817  0.00396309  0.33480914  1
  Fe  Fe21  1  0.66824241  0.33560938  0.00359593  1
  Fe  Fe22  1  0.83386113  0.50146671  0.17037224  1
  Ni  Ni23  1  0.66983222  0.33527362  0.33628410  1
  Fe  Fe24  1  0.66521707  0.66817748  1.00151452  1
  Cr  Cr25  1  0.83323982  0.83768644  0.17113432  1
  Fe  Fe26  1  0.66820402  0.66745116  0.33599047  1
  Cr  Cr27  1  0.16935536  0.17030198  0.50239239  1
  Cr  Cr28  1  0.99957834  1.00085652  0.66831072  1
  Cr  Cr29  1  0.16859779  0.16971482  0.83625797  1
  Cr  Cr30  1  0.16898688  0.50283133  0.50365770  1
  Ni  Ni31  1  0.99969193  0.33657411  0.67042323  1
  Cr  Cr32  1  0.17083059  0.50153874  0.83373595  1
  Fe  Fe33  1  0.16698845  0.83473570  0.50124264  1
  Ni  Ni34  1  1.00169767  0.66901503  0.66796268  1
  Ni  Ni35  1  0.17026141  0.83432463  0.83370798  1
  Fe  Fe36  1  0.50496121  0.17017097  0.50135053  1
  Fe  Fe37  1  0.33572489  1.00024113  0.66895014  1
  Cr  Cr38  1  0.50331693  0.17015609  0.83303599  1
  Fe  Fe39  1  0.50415658  0.50041682  0.50272944  1
  Ni  Ni40  1  0.33852984  0.33649141  0.66698887  1
  Ni  Ni41  1  0.50213220  0.50257222  0.83621065  1
  Cr  Cr42  1  0.50207629  0.83639603  0.50202393  1
  Ni  Ni43  1  0.33579442  0.66900205  0.67049276  1
  Fe  Fe44  1  0.50117258  0.83587031  0.83661273  1
  Ni  Ni45  1  0.83407525  0.16974472  0.50164425  1
  Ni  Ni46  1  0.66931415  0.00326466  0.66869175  1
  Ni  Ni47  1  0.83397197  0.16935724  0.83653966  1
  Ni  Ni48  1  0.83659763  0.50146383  0.50187769  1
  Fe  Fe49  1  0.67061932  0.33583370  0.66751334  1
  Fe  Fe50  1  0.83478576  0.49977381  0.83511486  1
  Ni  Ni51  1  0.83468699  0.83557601  0.50008959  1
  Cr  Cr52  1  0.67045202  0.66916083  0.66996229  1
  Fe  Fe53  1  0.83470749  0.83700463  0.83579025  1
" 