1813,Ni39Fe24Cr35_18,-225.813912513068, 174.168754916297,Ni39Fe24Cr35,"# generated using pymatgen
 data_Cr20Fe13Ni21
_symmetry_space_group_name_H-M   'P 1'
_cell_length_a   7.48026439
_cell_length_b   7.48026439
_cell_length_c   10.57869135
_cell_angle_alpha   90.00000000
_cell_angle_beta   90.00000000
_cell_angle_gamma   90.00000000
_symmetry_Int_Tables_number   1
_chemical_formula_structural   Cr20Fe13Ni21
_chemical_formula_sum   'Cr20 Fe13 Ni21'
_cell_volume   591.92385561
_cell_formula_units_Z   1
loop_
 _symmetry_equiv_pos_site_id
 _symmetry_equiv_pos_as_xyz
  1  'x, y, z'
loop_
 _atom_site_type_symbol
 _atom_site_label
 _atom_site_symmetry_multiplicity
 _atom_site_fract_x
 _atom_site_fract_y
 _atom_site_fract_z
 _atom_site_occupancy
  Cr  Cr0  1  0.00370302  0.99898894  0.00100936  1
  Ni  Ni1  1  0.16549122  0.16515092  0.16555166  1
  Fe  Fe2  1  0.99902191  -0.00049508  0.33153233  1
  Ni  Ni3  1  0.00129868  0.33338554  0.99883399  1
  Cr  Cr4  1  0.16501513  0.49599494  0.16279453  1
  Fe  Fe5  1  -0.00075015  0.33209006  0.33092187  1
  Fe  Fe6  1  0.99880480  0.66450627  -0.00058561  1
  Fe  Fe7  1  0.16547398  0.83561646  0.16656778  1
  Cr  Cr8  1  -0.00018581  0.66806155  0.33359052  1
  Ni  Ni9  1  0.33003626  0.00053726  0.99761315  1
  Ni  Ni10  1  0.49558604  0.16270102  0.16514570  1
  Ni  Ni11  1  0.32944157  0.00113671  0.33191006  1
  Ni  Ni12  1  0.32961324  0.32822697  0.99825372  1
  Cr  Cr13  1  0.49826357  0.50045766  0.16285131  1
  Cr  Cr14  1  0.33460936  0.33055193  0.33249037  1
  Fe  Fe15  1  0.33110456  0.66807069  0.99665398  1
  Cr  Cr16  1  0.49944972  0.83317994  0.16523490  1
  Cr  Cr17  1  0.32913948  0.66710684  0.33530327  1
  Cr  Cr18  1  0.66340092  0.00079032  0.99907337  1
  Ni  Ni19  1  0.83620870  0.16510779  0.16843036  1
  Fe  Fe20  1  0.66581032  0.00027463  0.33251901  1
  Cr  Cr21  1  0.66574970  0.33168986  0.00096405  1
  Ni  Ni22  1  0.83557556  0.49998561  0.16349802  1
  Cr  Cr23  1  0.66576533  0.33087948  0.33143050  1
  Ni  Ni24  1  0.66863376  0.66525754  -0.00077380  1
  Ni  Ni25  1  0.83306111  0.83224323  0.16583180  1
  Cr  Cr26  1  0.66810237  0.66320105  0.33425872  1
  Cr  Cr27  1  0.16495880  0.16706780  0.49900136  1
  Cr  Cr28  1  0.00132431  0.99776771  0.66578232  1
  Ni  Ni29  1  0.16902801  0.16875249  0.83254352  1
  Ni  Ni30  1  0.16559391  0.49775858  0.50218708  1
  Fe  Fe31  1  0.00080963  0.33453064  0.66741719  1
  Fe  Fe32  1  0.16610800  0.49721450  0.83302435  1
  Ni  Ni33  1  0.16500447  0.83290700  0.49876460  1
  Cr  Cr34  1  0.00238925  0.66596360  0.66542543  1
  Fe  Fe35  1  0.17009647  0.83276127  0.83215946  1
  Ni  Ni36  1  0.49882220  0.16487152  0.50017388  1
  Fe  Fe37  1  0.33395033  0.99822842  0.66692270  1
  Ni  Ni38  1  0.49289022  0.16276785  0.83125940  1
  Ni  Ni39  1  0.49571764  0.49752614  0.50077561  1
  Fe  Fe40  1  0.33198813  0.33252340  0.66616161  1
  Cr  Cr41  1  0.49796651  0.50128111  0.83467296  1
  Cr  Cr42  1  0.49945259  0.83449219  0.50028967  1
  Ni  Ni43  1  0.32983435  0.66535190  0.66480236  1
  Ni  Ni44  1  0.49606580  0.83342677  0.83139670  1
  Fe  Fe45  1  0.83143213  0.16398183  0.49828697  1
  Ni  Ni46  1  0.66387373  0.00142882  0.66435487  1
  Cr  Cr47  1  0.83514139  0.16750175  0.83099522  1
  Fe  Fe48  1  0.83459771  0.49743422  0.49939353  1
  Cr  Cr49  1  0.66386874  0.33083796  0.66509425  1
  Ni  Ni50  1  0.83677988  0.49993484  0.83477554  1
  Ni  Ni51  1  0.83313383  0.83575895  0.49825972  1
  Cr  Cr52  1  0.66550338  0.66505537  0.66393019  1
  Cr  Cr53  1  0.82853828  0.83046928  0.83353865  1
" 