6666,Ni39Fe24Cr35_0,-226.045655046936, 178.418694772373,Ni39Fe24Cr35,"# generated using pymatgen
 data_Cr20Fe13Ni21
_symmetry_space_group_name_H-M   'P 1'
_cell_length_a   7.48009451
_cell_length_b   7.48009451
_cell_length_c   10.57845111
_cell_angle_alpha   90.00000000
_cell_angle_beta   90.00000000
_cell_angle_gamma   90.00000000
_symmetry_Int_Tables_number   1
_chemical_formula_structural   Cr20Fe13Ni21
_chemical_formula_sum   'Cr20 Fe13 Ni21'
_cell_volume   591.88352841
_cell_formula_units_Z   1
loop_
 _symmetry_equiv_pos_site_id
 _symmetry_equiv_pos_as_xyz
  1  'x, y, z'
loop_
 _atom_site_type_symbol
 _atom_site_label
 _atom_site_symmetry_multiplicity
 _atom_site_fract_x
 _atom_site_fract_y
 _atom_site_fract_z
 _atom_site_occupancy
  Ni  Ni0  1  0.99773982  0.99741800  0.99894708  1
  Fe  Fe1  1  0.16498875  0.16566799  0.16653989  1
  Ni  Ni2  1  0.00027370  -0.00072709  0.33432208  1
  Cr  Cr3  1  0.00084225  0.33272354  -0.00039723  1
  Ni  Ni4  1  0.16455920  0.49951866  0.16621820  1
  Ni  Ni5  1  0.00096289  0.33241018  0.33271845  1
  Fe  Fe6  1  0.00053892  0.66601588  -0.00052544  1
  Cr  Cr7  1  0.16363227  0.83327505  0.16455037  1
  Ni  Ni8  1  -0.00055315  0.66571306  0.33187874  1
  Fe  Fe9  1  0.33347182  0.99863338  0.99741724  1
  Cr  Cr10  1  0.49595227  0.16427273  0.16471482  1
  Ni  Ni11  1  0.33048052  0.99903018  0.33388088  1
  Ni  Ni12  1  0.33162794  0.33538736  0.99816130  1
  Cr  Cr13  1  0.49760299  0.49982240  0.16403682  1
  Cr  Cr14  1  0.32868404  0.33083025  0.33192890  1
  Ni  Ni15  1  0.33226302  0.66531170  0.99689954  1
  Fe  Fe16  1  0.49954199  0.83295796  0.16305037  1
  Cr  Cr17  1  0.33056562  0.66767163  0.33465882  1
  Ni  Ni18  1  0.66597195  0.99677721  0.99789726  1
  Cr  Cr19  1  0.83485707  0.16283869  0.16704429  1
  Cr  Cr20  1  0.66582398  0.99812168  0.33509601  1
  Cr  Cr21  1  0.66553341  0.33157798  0.99697050  1
  Fe  Fe22  1  0.83619659  0.50208217  0.16670931  1
  Cr  Cr23  1  0.66822383  0.33093106  0.33256774  1
  Fe  Fe24  1  0.66520061  0.66814711  -0.00066121  1
  Ni  Ni25  1  0.83366181  0.83110342  0.16468150  1
  Cr  Cr26  1  0.66714394  0.66845906  0.33110520  1
  Ni  Ni27  1  0.16657197  0.16471159  0.49746323  1
  Cr  Cr28  1  0.00010775  0.00044356  0.66464806  1
  Cr  Cr29  1  0.16744100  0.16500633  0.83382722  1
  Fe  Fe30  1  0.16327993  0.49654802  0.49847069  1
  Fe  Fe31  1  0.99891695  0.33141748  0.66547409  1
  Ni  Ni32  1  0.16743495  0.50052911  0.83275849  1
  Fe  Fe33  1  0.16508249  0.83598719  0.49775932  1
  Cr  Cr34  1  0.00200102  0.66525478  0.66639988  1
  Ni  Ni35  1  0.16815859  0.83021709  0.83429487  1
  Ni  Ni36  1  0.49665192  0.16476658  0.50094698  1
  Ni  Ni37  1  0.33331711  -0.00018263  0.66554536  1
  Ni  Ni38  1  0.49973508  0.16641316  0.83185001  1
  Cr  Cr39  1  0.49820128  0.49687072  0.50084534  1
  Fe  Fe40  1  0.33301083  0.32989741  0.66624805  1
  Fe  Fe41  1  0.49742893  0.49826563  0.83331219  1
  Fe  Fe42  1  0.49803693  0.83698942  0.49977562  1
  Cr  Cr43  1  0.33082437  0.66742269  0.66577682  1
  Ni  Ni44  1  0.49692261  0.83304401  0.83532955  1
  Ni  Ni45  1  0.83415246  0.16501342  0.49930320  1
  Cr  Cr46  1  0.66440406  0.00237439  0.66432266  1
  Ni  Ni47  1  0.82982183  0.16710974  0.83151866  1
  Cr  Cr48  1  0.83411169  0.49885391  0.49821926  1
  Ni  Ni49  1  0.66585076  0.33015646  0.66774796  1
  Fe  Fe50  1  0.83255842  0.49724502  0.83168519  1
  Ni  Ni51  1  0.83509165  0.83372835  0.49640978  1
  Cr  Cr52  1  0.66450829  0.66558775  0.66677546  1
  Cr  Cr53  1  0.83349522  0.83326376  0.83578681  1
" 