4153,Ni39Fe50Cr10_19,-235.660222726265, 211.858291457404,Ni39Fe50Cr10,"# generated using pymatgen
 data_Cr2Fe9Ni7
_symmetry_space_group_name_H-M   'P 1'
_cell_length_a   7.42020447
_cell_length_b   7.42020447
_cell_length_c   10.49375380
_cell_angle_alpha   90.00000000
_cell_angle_beta   90.00000000
_cell_angle_gamma   90.00000000
_symmetry_Int_Tables_number   1
_chemical_formula_structural   Cr2Fe9Ni7
_chemical_formula_sum   'Cr6 Fe27 Ni21'
_cell_volume   577.78014936
_cell_formula_units_Z   3
loop_
 _symmetry_equiv_pos_site_id
 _symmetry_equiv_pos_as_xyz
  1  'x, y, z'
loop_
 _atom_site_type_symbol
 _atom_site_label
 _atom_site_symmetry_multiplicity
 _atom_site_fract_x
 _atom_site_fract_y
 _atom_site_fract_z
 _atom_site_occupancy
  Fe  Fe0  1  0.00463554  0.00380218  1.00251670  1
  Fe  Fe1  1  0.16954613  0.17115036  0.17115773  1
  Ni  Ni2  1  1.00197530  1.00292643  0.33662445  1
  Ni  Ni3  1  0.00330097  0.33772764  1.00227422  1
  Ni  Ni4  1  0.17185695  0.50322842  0.16942801  1
  Fe  Fe5  1  0.00405136  0.33855045  0.33757754  1
  Fe  Fe6  1  0.00600285  0.66932283  0.00358701  1
  Ni  Ni7  1  0.17009193  0.83364370  0.17083419  1
  Ni  Ni8  1  0.00349285  0.67001876  0.33470428  1
  Cr  Cr9  1  0.33709360  0.00407193  0.00697089  1
  Fe  Fe10  1  0.50208557  0.17083195  0.17184791  1
  Fe  Fe11  1  0.33667472  1.00178000  0.33437173  1
  Ni  Ni12  1  0.33561800  0.33697788  1.00292026  1
  Ni  Ni13  1  0.50085703  0.50179218  0.16865203  1
  Fe  Fe14  1  0.33599704  0.33673259  0.33632062  1
  Ni  Ni15  1  0.33670224  0.66866041  0.00316816  1
  Ni  Ni16  1  0.50296246  0.83437923  0.17117508  1
  Ni  Ni17  1  0.33686449  0.66785267  0.33616116  1
  Fe  Fe18  1  0.66998823  0.00406580  0.00355530  1
  Cr  Cr19  1  0.83589651  0.17257537  0.17093617  1
  Ni  Ni20  1  0.66928512  0.00386914  0.33716685  1
  Fe  Fe21  1  0.66798509  0.33734481  1.00151585  1
  Fe  Fe22  1  0.83781539  0.50626647  0.16877106  1
  Fe  Fe23  1  0.66856529  0.33703613  0.33815006  1
  Fe  Fe24  1  0.66914902  0.66803646  0.00516589  1
  Ni  Ni25  1  0.83745126  0.83988009  0.16718037  1
  Cr  Cr26  1  0.67229136  0.67095967  0.33729744  1
  Fe  Fe27  1  0.16729179  0.17166640  0.50283934  1
  Fe  Fe28  1  1.00274962  0.00681582  0.67013960  1
  Fe  Fe29  1  0.16846645  0.17019747  0.83637703  1
  Ni  Ni30  1  0.17159398  0.50166063  0.50262138  1
  Ni  Ni31  1  0.00327626  0.33630448  0.66896238  1
  Fe  Fe32  1  0.17040112  0.50124151  0.83693698  1
  Cr  Cr33  1  0.17196433  0.83498196  0.50180591  1
  Cr  Cr34  1  1.00110797  0.66910934  0.66980061  1
  Ni  Ni35  1  0.17035062  0.83522321  0.83649359  1
  Fe  Fe36  1  0.50281094  0.17059450  0.50352726  1
  Fe  Fe37  1  0.33477045  0.00637682  0.67035537  1
  Fe  Fe38  1  0.50321406  0.17067198  0.83588270  1
  Fe  Fe39  1  0.50309248  0.50159616  0.50363911  1
  Ni  Ni40  1  0.33653942  0.33506055  0.67087544  1
  Fe  Fe41  1  0.50273174  0.50011468  0.83732679  1
  Fe  Fe42  1  0.50493686  0.83672153  0.50395242  1
  Fe  Fe43  1  0.33653971  0.66417390  0.66961559  1
  Cr  Cr44  1  0.50234805  0.83351243  0.83388801  1
  Ni  Ni45  1  0.83496314  0.17118327  0.50314190  1
  Fe  Fe46  1  0.67112823  0.00620750  0.66870991  1
  Ni  Ni47  1  0.83625915  0.17180848  0.83573592  1
  Ni  Ni48  1  0.83774295  0.49986926  0.50214724  1
  Ni  Ni49  1  0.66929492  0.33604098  0.66989196  1
  Fe  Fe50  1  0.83581928  0.50209413  0.83627529  1
  Ni  Ni51  1  0.83624270  0.83958279  0.50455346  1
  Fe  Fe52  1  0.66923985  0.66542710  0.66715115  1
  Fe  Fe53  1  0.83733637  0.83872832  0.83777145  1
" 