6139,Ni3Cr97_6,-239.466743904426, 177.500539961241,Ni3Cr97,"# generated using pymatgen
 data_CrNi53
_symmetry_space_group_name_H-M   'P 1'
_cell_length_a   7.46493426
_cell_length_b   7.46493426
_cell_length_c   10.55701128
_cell_angle_alpha   90.00000000
_cell_angle_beta   90.00000000
_cell_angle_gamma   90.00000000
_symmetry_Int_Tables_number   1
_chemical_formula_structural   CrNi53
_chemical_formula_sum   'Cr1 Ni53'
_cell_volume   588.29202448
_cell_formula_units_Z   1
loop_
 _symmetry_equiv_pos_site_id
 _symmetry_equiv_pos_as_xyz
  1  'x, y, z'
loop_
 _atom_site_type_symbol
 _atom_site_label
 _atom_site_symmetry_multiplicity
 _atom_site_fract_x
 _atom_site_fract_y
 _atom_site_fract_z
 _atom_site_occupancy
  Ni  Ni0  1  0.00014155  0.00014155  0.00014155  1
  Ni  Ni1  1  0.16680822  0.16680822  0.16680738  1
  Ni  Ni2  1  1.00013651  1.00013651  0.33346984  1
  Ni  Ni3  1  0.00014155  0.33347488  0.00014155  1
  Ni  Ni4  1  0.16680822  0.50014007  0.16680969  1
  Ni  Ni5  1  1.00013651  0.33347993  0.33346984  1
  Ni  Ni6  1  1.00014155  0.66680822  0.00014155  1
  Ni  Ni7  1  0.16680822  0.83347636  0.16680969  1
  Ni  Ni8  1  0.00014303  0.66680822  0.33347636  1
  Ni  Ni9  1  0.33347488  0.00014155  0.00014155  1
  Ni  Ni10  1  0.50014007  0.16680822  0.16680969  1
  Ni  Ni11  1  0.33347993  1.00013651  0.33346984  1
  Ni  Ni12  1  0.33347488  0.33347488  0.00014155  1
  Ni  Ni13  1  0.50014117  0.50014117  0.16680860  1
  Ni  Ni14  1  0.33347993  0.33347993  0.33346984  1
  Ni  Ni15  1  0.33347489  0.66680822  0.00014155  1
  Ni  Ni16  1  0.50014117  0.83347527  0.16680860  1
  Ni  Ni17  1  0.33347341  0.66680822  0.33347636  1
  Ni  Ni18  1  0.66680822  1.00014155  0.00014155  1
  Ni  Ni19  1  0.83347636  0.16680822  0.16680969  1
  Ni  Ni20  1  0.66680822  0.00014303  0.33347636  1
  Ni  Ni21  1  0.66680822  0.33347489  0.00014155  1
  Ni  Ni22  1  0.83347527  0.50014117  0.16680860  1
  Ni  Ni23  1  0.66680822  0.33347341  0.33347636  1
  Ni  Ni24  1  0.66680822  0.66680822  0.00014155  1
  Ni  Ni25  1  0.83347527  0.83347527  0.16680860  1
  Ni  Ni26  1  0.66680822  0.66680822  0.33347489  1
  Cr  Cr27  1  0.16680822  0.16680822  0.50014155  1
  Ni  Ni28  1  1.00013651  1.00013651  0.66681326  1
  Ni  Ni29  1  0.16680822  0.16680822  0.83347572  1
  Ni  Ni30  1  0.16680822  0.50015240  0.50014155  1
  Ni  Ni31  1  1.00013651  0.33347993  0.66681326  1
  Ni  Ni32  1  0.16680822  0.50014007  0.83347341  1
  Ni  Ni33  1  0.16680822  0.83346403  0.50014155  1
  Ni  Ni34  1  0.00014303  0.66680822  0.66680674  1
  Ni  Ni35  1  0.16680822  0.83347636  0.83347341  1
  Ni  Ni36  1  0.50015240  0.16680822  0.50014155  1
  Ni  Ni37  1  0.33347993  1.00013651  0.66681326  1
  Ni  Ni38  1  0.50014007  0.16680822  0.83347341  1
  Ni  Ni39  1  0.50014239  0.50014239  0.50014155  1
  Ni  Ni40  1  0.33347993  0.33347993  0.66681326  1
  Ni  Ni41  1  0.50014117  0.50014117  0.83347450  1
  Ni  Ni42  1  0.50014239  0.83347405  0.50014155  1
  Ni  Ni43  1  0.33347341  0.66680822  0.66680674  1
  Ni  Ni44  1  0.50014117  0.83347527  0.83347450  1
  Ni  Ni45  1  0.83346403  0.16680822  0.50014155  1
  Ni  Ni46  1  0.66680822  0.00014303  0.66680674  1
  Ni  Ni47  1  0.83347636  0.16680822  0.83347341  1
  Ni  Ni48  1  0.83347405  0.50014239  0.50014155  1
  Ni  Ni49  1  0.66680822  0.33347341  0.66680674  1
  Ni  Ni50  1  0.83347527  0.50014117  0.83347450  1
  Ni  Ni51  1  0.83347405  0.83347405  0.50014155  1
  Ni  Ni52  1  0.66680822  0.66680822  0.66680821  1
  Ni  Ni53  1  0.83347527  0.83347527  0.83347450  1
" 