3654,Ni3Fe10Cr85_9,-204.734734548057, 199.892866619972,Ni3Fe10Cr85,"# generated using pymatgen
 data_Cr47Fe5Ni2
_symmetry_space_group_name_H-M   'P 1'
_cell_length_a   7.58810500
_cell_length_b   7.58810500
_cell_length_c   10.73120100
_cell_angle_alpha   90.00000000
_cell_angle_beta   90.00000000
_cell_angle_gamma   90.00000000
_symmetry_Int_Tables_number   1
_chemical_formula_structural   Cr47Fe5Ni2
_chemical_formula_sum   'Cr47 Fe5 Ni2'
_cell_volume   617.89544369
_cell_formula_units_Z   1
loop_
 _symmetry_equiv_pos_site_id
 _symmetry_equiv_pos_as_xyz
  1  'x, y, z'
loop_
 _atom_site_type_symbol
 _atom_site_label
 _atom_site_symmetry_multiplicity
 _atom_site_fract_x
 _atom_site_fract_y
 _atom_site_fract_z
 _atom_site_occupancy
  Cr  Cr0  1  0.99053713  0.99160208  0.99105205  1
  Cr  Cr1  1  0.15905391  0.15725554  0.15946208  1
  Cr  Cr2  1  -0.00775649  0.99169983  0.32535549  1
  Cr  Cr3  1  -0.00724402  0.32593861  0.99109138  1
  Cr  Cr4  1  0.15751820  0.49438339  0.15947944  1
  Cr  Cr5  1  -0.00773978  0.32523225  0.32502327  1
  Cr  Cr6  1  0.99147540  0.65827566  0.99014884  1
  Cr  Cr7  1  0.15776813  0.82433892  0.16079484  1
  Ni  Ni8  1  -0.00733835  0.66045338  0.32513816  1
  Cr  Cr9  1  0.32497362  0.99161279  -0.00636876  1
  Cr  Cr10  1  0.49277165  0.15789184  0.15666463  1
  Fe  Fe11  1  0.32600032  0.99136915  0.32572492  1
  Cr  Cr12  1  0.32358156  0.32660032  0.99125948  1
  Cr  Cr13  1  0.49250786  0.49219317  0.15817873  1
  Cr  Cr14  1  0.32563860  0.32423760  0.32433787  1
  Cr  Cr15  1  0.32486662  0.65778434  0.99114875  1
  Cr  Cr16  1  0.49185476  0.82605395  0.15828273  1
  Cr  Cr17  1  0.32646106  0.66028895  0.32566882  1
  Fe  Fe18  1  0.65939643  0.99112795  0.99150895  1
  Cr  Cr19  1  0.82424021  0.15791635  0.15811231  1
  Cr  Cr20  1  0.65727203  0.99104158  0.32565936  1
  Cr  Cr21  1  0.65976951  0.32600386  -0.00678861  1
  Cr  Cr22  1  0.82610317  0.49364177  0.16151225  1
  Cr  Cr23  1  0.65817428  0.32495404  0.32535322  1
  Cr  Cr24  1  0.65979834  0.65997742  0.99084855  1
  Cr  Cr25  1  0.82630848  0.82464252  0.15751047  1
  Cr  Cr26  1  0.65845925  0.66005477  0.32659077  1
  Cr  Cr27  1  0.15897605  0.15762808  0.49211246  1
  Cr  Cr28  1  0.99133023  0.99158817  0.65945210  1
  Cr  Cr29  1  0.15910021  0.15894690  0.82433916  1
  Cr  Cr30  1  0.15745271  0.49392391  0.49171657  1
  Cr  Cr31  1  -0.00766197  0.32600074  0.66025281  1
  Ni  Ni32  1  0.15594139  0.49345520  0.82531270  1
  Cr  Cr33  1  0.15868091  0.82449486  0.48988815  1
  Cr  Cr34  1  0.99123836  0.65829892  0.66163709  1
  Cr  Cr35  1  0.15821443  0.82418590  0.82536288  1
  Cr  Cr36  1  0.49176071  0.15801115  0.49252800  1
  Cr  Cr37  1  0.32579798  0.99064723  0.65569075  1
  Cr  Cr38  1  0.49341827  0.15809350  0.82663645  1
  Cr  Cr39  1  0.49222714  0.49246720  0.49251618  1
  Cr  Cr40  1  0.32402086  0.32646712  0.66057162  1
  Cr  Cr41  1  0.49175752  0.49171450  0.82534423  1
  Fe  Fe42  1  0.49174412  0.82549800  0.49153726  1
  Cr  Cr43  1  0.32587842  0.65883328  0.65930149  1
  Cr  Cr44  1  0.49334408  0.82638044  0.82574863  1
  Cr  Cr45  1  0.82527155  0.15898208  0.49232527  1
  Cr  Cr46  1  0.65918582  0.98981666  0.65872436  1
  Cr  Cr47  1  0.82350423  0.15734611  0.82566878  1
  Cr  Cr48  1  0.82646417  0.49321569  0.49040178  1
  Cr  Cr49  1  0.65974562  0.32634054  0.65774111  1
  Fe  Fe50  1  0.82634217  0.49228030  0.82546573  1
  Cr  Cr51  1  0.82699821  0.82394475  0.49203626  1
  Cr  Cr52  1  0.65894277  0.65977560  0.65847878  1
  Fe  Fe53  1  0.82512566  0.82434466  0.82571292  1
" 