2980,Ni3Fe65Cr31_7,-220.218536165804, 156.906575764445,Ni3Fe65Cr31,"# generated using pymatgen
 data_Cr18Fe35Ni
_symmetry_space_group_name_H-M   'P 1'
_cell_length_a   7.50419905
_cell_length_b   7.50419905
_cell_length_c   10.61254008
_cell_angle_alpha   90.00000000
_cell_angle_beta   90.00000000
_cell_angle_gamma   90.00000000
_symmetry_Int_Tables_number   1
_chemical_formula_structural   Cr18Fe35Ni
_chemical_formula_sum   'Cr18 Fe35 Ni1'
_cell_volume   597.62400590
_cell_formula_units_Z   1
loop_
 _symmetry_equiv_pos_site_id
 _symmetry_equiv_pos_as_xyz
  1  'x, y, z'
loop_
 _atom_site_type_symbol
 _atom_site_label
 _atom_site_symmetry_multiplicity
 _atom_site_fract_x
 _atom_site_fract_y
 _atom_site_fract_z
 _atom_site_occupancy
  Fe  Fe0  1  0.99491939  0.99523245  0.99547380  1
  Cr  Cr1  1  0.16733826  0.16371214  0.16279499  1
  Fe  Fe2  1  0.99614079  0.00015607  0.33165027  1
  Cr  Cr3  1  0.99271746  0.32980867  -0.00171667  1
  Cr  Cr4  1  0.16362404  0.49585098  0.16546205  1
  Fe  Fe5  1  -0.00128649  0.32777027  0.33136276  1
  Fe  Fe6  1  0.99506958  0.66273093  0.99479779  1
  Cr  Cr7  1  0.16216555  0.83401105  0.16126859  1
  Cr  Cr8  1  -0.00091132  0.66417552  0.33046674  1
  Fe  Fe9  1  0.33353374  0.99747558  0.99707136  1
  Fe  Fe10  1  0.49919907  0.16196944  0.16132542  1
  Fe  Fe11  1  0.33184514  -0.00067574  0.33249919  1
  Fe  Fe12  1  0.33153563  0.33330357  0.99689247  1
  Fe  Fe13  1  0.49897103  0.49935196  0.16337706  1
  Cr  Cr14  1  0.33317357  0.33197310  0.33193512  1
  Cr  Cr15  1  0.32962977  0.66390003  0.99535013  1
  Fe  Fe16  1  0.49609849  0.83213123  0.16265939  1
  Cr  Cr17  1  0.33191524  0.66848774  0.33405630  1
  Fe  Fe18  1  0.66660484  -0.00153744  0.99694951  1
  Fe  Fe19  1  0.83194316  0.16034497  0.16347648  1
  Fe  Fe20  1  0.66115278  0.99441519  0.33067258  1
  Fe  Fe21  1  0.66157353  0.33206040  -0.00113416  1
  Fe  Fe22  1  0.82932237  0.49612893  0.16415258  1
  Cr  Cr23  1  0.66762049  0.32494147  0.32775278  1
  Fe  Fe24  1  0.66526495  0.66222225  0.99568893  1
  Cr  Cr25  1  0.82715954  0.82780067  0.16329345  1
  Fe  Fe26  1  0.66248808  0.66274380  0.32961939  1
  Fe  Fe27  1  0.16244252  0.16437514  0.49832347  1
  Fe  Fe28  1  -0.00150953  -0.00241657  0.66495343  1
  Cr  Cr29  1  0.16557203  0.16353673  0.83381094  1
  Fe  Fe30  1  0.16298812  0.49715298  0.49914732  1
  Fe  Fe31  1  0.99711115  0.33055367  0.66606558  1
  Ni  Ni32  1  0.16020038  0.49753499  0.83007723  1
  Fe  Fe33  1  0.16188223  0.83456019  0.49829387  1
  Fe  Fe34  1  0.99667230  0.66386844  0.66607621  1
  Fe  Fe35  1  0.16315353  0.83045614  0.83106169  1
  Fe  Fe36  1  0.50017073  0.16230547  0.49922938  1
  Fe  Fe37  1  0.32983423  -0.00080469  0.66280402  1
  Cr  Cr38  1  0.49798372  0.16655106  0.83164548  1
  Cr  Cr39  1  0.50170105  0.49861217  0.50035368  1
  Cr  Cr40  1  0.33117858  0.33283178  0.66486993  1
  Fe  Fe41  1  0.49692753  0.49824302  0.83021848  1
  Fe  Fe42  1  0.49752618  0.83407001  0.49990906  1
  Cr  Cr43  1  0.32759255  0.66676511  0.66343211  1
  Cr  Cr44  1  0.50130361  0.83325997  0.82893555  1
  Fe  Fe45  1  0.83130395  0.16333849  0.49926187  1
  Fe  Fe46  1  0.66585789  -0.00051970  0.66400379  1
  Fe  Fe47  1  0.83089115  0.16355312  0.82987720  1
  Cr  Cr48  1  0.83278889  0.49683859  0.49720110  1
  Fe  Fe49  1  0.66743505  0.32979497  0.66533495  1
  Fe  Fe50  1  0.82886050  0.49677224  0.82970137  1
  Cr  Cr51  1  0.82766109  0.82996703  0.49802641  1
  Fe  Fe52  1  0.66578513  0.66378511  0.66650801  1
  Fe  Fe53  1  0.83420641  0.83085892  0.83000922  1
" 