778,Ni3Fe65Cr31_10,-220.311183105099, 152.249470353608,Ni3Fe65Cr31,"# generated using pymatgen
 data_Cr18Fe35Ni
_symmetry_space_group_name_H-M   'P 1'
_cell_length_a   7.50553101
_cell_length_b   7.50553101
_cell_length_c   10.61442374
_cell_angle_alpha   90.00000000
_cell_angle_beta   90.00000000
_cell_angle_gamma   90.00000000
_symmetry_Int_Tables_number   1
_chemical_formula_structural   Cr18Fe35Ni
_chemical_formula_sum   'Cr18 Fe35 Ni1'
_cell_volume   597.94228725
_cell_formula_units_Z   1
loop_
 _symmetry_equiv_pos_site_id
 _symmetry_equiv_pos_as_xyz
  1  'x, y, z'
loop_
 _atom_site_type_symbol
 _atom_site_label
 _atom_site_symmetry_multiplicity
 _atom_site_fract_x
 _atom_site_fract_y
 _atom_site_fract_z
 _atom_site_occupancy
  Fe  Fe0  1  -0.00001912  0.99559225  -0.00093716  1
  Fe  Fe1  1  0.16708561  0.16374083  0.16367162  1
  Cr  Cr2  1  0.99683500  -0.00060373  0.32870749  1
  Cr  Cr3  1  -0.00046452  0.33021185  -0.00205860  1
  Fe  Fe4  1  0.16685017  0.49754784  0.16317923  1
  Cr  Cr5  1  -0.00051156  0.33025331  0.33333664  1
  Fe  Fe6  1  0.00011212  0.66527978  -0.00009448  1
  Fe  Fe7  1  0.16620018  0.83094373  0.16267900  1
  Cr  Cr8  1  -0.00110987  0.66254544  0.32752356  1
  Fe  Fe9  1  0.32826912  0.99614406  -0.00127154  1
  Fe  Fe10  1  0.49635987  0.16494970  0.16492068  1
  Fe  Fe11  1  0.33255990  0.99541969  0.32811883  1
  Fe  Fe12  1  0.33201934  0.33243847  -0.00102277  1
  Fe  Fe13  1  0.49701586  0.49733189  0.16534768  1
  Fe  Fe14  1  0.33238976  0.33385998  0.32873901  1
  Fe  Fe15  1  0.32875901  0.66400474  -0.00243544  1
  Fe  Fe16  1  0.49624782  0.83007214  0.16587699  1
  Fe  Fe17  1  0.33293440  0.66304423  0.32961793  1
  Cr  Cr18  1  0.66353526  0.99648468  -0.00179525  1
  Fe  Fe19  1  0.82911256  0.16501381  0.16366352  1
  Fe  Fe20  1  0.66307608  0.99588455  0.32883152  1
  Fe  Fe21  1  0.66232624  0.33164451  -0.00045564  1
  Fe  Fe22  1  0.82826323  0.49778951  0.16470511  1
  Fe  Fe23  1  0.66377502  0.33272904  0.32933848  1
  Cr  Cr24  1  0.66019374  0.66342210  0.99674669  1
  Fe  Fe25  1  0.82915987  0.82937006  0.16445181  1
  Ni  Ni26  1  0.65873087  0.66451411  0.33076727  1
  Cr  Cr27  1  0.16819469  0.16476045  0.49886744  1
  Cr  Cr28  1  -0.00170949  -0.00002369  0.66469452  1
  Fe  Fe29  1  0.16474145  0.16432824  0.83089507  1
  Fe  Fe30  1  0.16739834  0.49787577  0.49886229  1
  Fe  Fe31  1  0.00050868  0.33315182  0.66430587  1
  Fe  Fe32  1  0.16620346  0.49794214  0.83028478  1
  Cr  Cr33  1  0.16648697  0.82944521  0.49643003  1
  Fe  Fe34  1  0.00043007  0.66246964  0.66442659  1
  Fe  Fe35  1  0.16669054  0.83020515  0.83134123  1
  Cr  Cr36  1  0.49610522  0.16421919  0.49355757  1
  Fe  Fe37  1  0.33161355  0.99602823  0.66563787  1
  Cr  Cr38  1  0.49299326  0.16529425  0.83369569  1
  Fe  Fe39  1  0.49516539  0.50023519  0.49620754  1
  Fe  Fe40  1  0.32947093  0.33283892  0.66501871  1
  Fe  Fe41  1  0.49441374  0.49899736  0.83066516  1
  Fe  Fe42  1  0.49653252  0.82778950  0.49570306  1
  Fe  Fe43  1  0.33213365  0.66346556  0.66508354  1
  Fe  Fe44  1  0.49448583  0.82899214  0.83007680  1
  Fe  Fe45  1  0.83002851  0.16431313  0.49707386  1
  Cr  Cr46  1  0.66172028  0.99492379  0.66223791  1
  Cr  Cr47  1  0.82995256  0.16515872  0.83071501  1
  Cr  Cr48  1  0.83043664  0.49907118  0.49862433  1
  Cr  Cr49  1  0.66271799  0.33156665  0.66458824  1
  Cr  Cr50  1  0.83118315  0.49944065  0.83116701  1
  Cr  Cr51  1  0.83017655  0.82775957  0.49653120  1
  Fe  Fe52  1  0.66008901  0.66399379  0.66382995  1
  Cr  Cr53  1  0.83369241  0.82769075  0.83088843  1
" 