33,Ni3Fe90Cr6_5,-222.97233025078, 131.190676896733,Ni3Fe90Cr6,"# generated using pymatgen
 data_Cr5Fe48Ni
_symmetry_space_group_name_H-M   'P 1'
_cell_length_a   7.44924043
_cell_length_b   7.44924043
_cell_length_c   10.53481685
_cell_angle_alpha   90.00000000
_cell_angle_beta   90.00000000
_cell_angle_gamma   90.00000000
_symmetry_Int_Tables_number   1
_chemical_formula_structural   Cr5Fe48Ni
_chemical_formula_sum   'Cr5 Fe48 Ni1'
_cell_volume   584.58945038
_cell_formula_units_Z   1
loop_
 _symmetry_equiv_pos_site_id
 _symmetry_equiv_pos_as_xyz
  1  'x, y, z'
loop_
 _atom_site_type_symbol
 _atom_site_label
 _atom_site_symmetry_multiplicity
 _atom_site_fract_x
 _atom_site_fract_y
 _atom_site_fract_z
 _atom_site_occupancy
  Fe  Fe0  1  0.00194390  1.00046767  1.00047078  1
  Fe  Fe1  1  0.17016642  0.16559461  0.16707537  1
  Fe  Fe2  1  1.00086326  1.00004242  0.33486212  1
  Fe  Fe3  1  0.00194307  0.33378369  1.00066364  1
  Cr  Cr4  1  0.16859298  0.50298806  0.16686681  1
  Cr  Cr5  1  0.00149746  0.33429403  0.33686718  1
  Fe  Fe6  1  1.00116284  0.66933497  0.00123743  1
  Fe  Fe7  1  0.16761211  0.83625344  0.16811042  1
  Fe  Fe8  1  0.99973449  0.66937262  0.33444718  1
  Fe  Fe9  1  0.33450221  0.00122068  0.00124436  1
  Fe  Fe10  1  0.49941204  0.16811107  0.16782667  1
  Fe  Fe11  1  0.33502587  0.00212736  0.33367598  1
  Fe  Fe12  1  0.33525464  0.33378039  1.00047199  1
  Fe  Fe13  1  0.50294123  0.50094564  0.16786288  1
  Fe  Fe14  1  0.33675900  0.33381698  0.33521436  1
  Fe  Fe15  1  0.33527861  0.66858640  1.00042265  1
  Fe  Fe16  1  0.50117316  0.83452860  0.16788858  1
  Fe  Fe17  1  0.33580385  0.66764240  0.33453302  1
  Fe  Fe18  1  0.66713820  1.00044417  1.00042207  1
  Cr  Cr19  1  0.83306572  0.16773261  0.16580441  1
  Fe  Fe20  1  0.66769255  1.00100030  0.33565281  1
  Fe  Fe21  1  0.66638713  0.33456039  0.00123759  1
  Fe  Fe22  1  0.83228200  0.50350323  0.16682790  1
  Fe  Fe23  1  0.66596380  0.33494573  0.33560561  1
  Fe  Fe24  1  0.66714488  0.66857996  0.00198745  1
  Fe  Fe25  1  0.83480060  0.83272530  0.16782563  1
  Fe  Fe26  1  0.66804946  0.66763934  0.33444425  1
  Fe  Fe27  1  0.16788630  0.16861284  0.50190322  1
  Fe  Fe28  1  1.00007740  0.00231209  0.66824785  1
  Fe  Fe29  1  0.16767400  0.16808725  0.83461349  1
  Fe  Fe30  1  0.16800227  0.49986907  0.50175376  1
  Fe  Fe31  1  0.00161063  0.33343635  0.66652146  1
  Fe  Fe32  1  0.16934602  0.50121699  0.83472701  1
  Cr  Cr33  1  0.16846248  0.83366603  0.50013052  1
  Fe  Fe34  1  0.00125251  0.66783584  0.66789855  1
  Fe  Fe35  1  0.16763493  0.83428181  0.83432950  1
  Fe  Fe36  1  0.50169622  0.16766403  0.50114532  1
  Fe  Fe37  1  0.33526781  0.00187844  0.66866284  1
  Fe  Fe38  1  0.50138111  0.16808784  0.83461419  1
  Fe  Fe39  1  0.50156476  0.50080126  0.50116991  1
  Fe  Fe40  1  0.33447825  0.33461409  0.66789713  1
  Fe  Fe41  1  0.49968731  0.50119381  0.83455302  1
  Fe  Fe42  1  0.50327673  0.83512027  0.50119285  1
  Fe  Fe43  1  0.33527038  0.66709186  0.66862558  1
  Fe  Fe44  1  0.50139722  0.83430436  0.83450442  1
  Ni  Ni45  1  0.83275581  0.16783369  0.50331745  1
  Fe  Fe46  1  0.66823961  0.00152110  0.66750979  1
  Fe  Fe47  1  0.83453043  0.16637344  0.83415909  1
  Fe  Fe48  1  0.83401967  0.50144713  0.50212519  1
  Fe  Fe49  1  0.66749475  0.33343869  0.66674464  1
  Cr  Cr50  1  0.83465710  0.50000034  0.83572890  1
  Fe  Fe51  1  0.83306986  0.83523405  0.50117053  1
  Fe  Fe52  1  0.66706398  0.66862554  0.66715729  1
  Fe  Fe53  1  0.83455363  0.83597238  0.83459001  1
" 