3529,Ni3Fe90Cr6_2,-222.941060456151, 131.304339664721,Ni3Fe90Cr6,"# generated using pymatgen
 data_Cr5Fe48Ni
_symmetry_space_group_name_H-M   'P 1'
_cell_length_a   7.44537830
_cell_length_b   7.44537830
_cell_length_c   10.52935497
_cell_angle_alpha   90.00000000
_cell_angle_beta   90.00000000
_cell_angle_gamma   90.00000000
_symmetry_Int_Tables_number   1
_chemical_formula_structural   Cr5Fe48Ni
_chemical_formula_sum   'Cr5 Fe48 Ni1'
_cell_volume   583.68066252
_cell_formula_units_Z   1
loop_
 _symmetry_equiv_pos_site_id
 _symmetry_equiv_pos_as_xyz
  1  'x, y, z'
loop_
 _atom_site_type_symbol
 _atom_site_label
 _atom_site_symmetry_multiplicity
 _atom_site_fract_x
 _atom_site_fract_y
 _atom_site_fract_z
 _atom_site_occupancy
  Fe  Fe0  1  1.00118453  0.00308178  0.00384571  1
  Fe  Fe1  1  0.16819559  0.16832168  0.16901707  1
  Fe  Fe2  1  1.00122467  1.00074436  0.33438426  1
  Fe  Fe3  1  0.99944314  0.33370618  0.00318615  1
  Fe  Fe4  1  0.16778252  0.50175112  0.16818727  1
  Fe  Fe5  1  1.00119032  0.33533048  0.33438281  1
  Fe  Fe6  1  0.99849427  0.66783533  0.00496155  1
  Fe  Fe7  1  0.16770340  0.83415454  0.16869321  1
  Ni  Ni8  1  0.00190804  0.66728358  0.33490749  1
  Fe  Fe9  1  0.33435386  0.00283454  0.00297293  1
  Fe  Fe10  1  0.50111545  0.16892748  0.17037866  1
  Fe  Fe11  1  0.33348723  1.00064289  0.33520272  1
  Fe  Fe12  1  0.33618427  0.33371871  0.00332336  1
  Fe  Fe13  1  0.50172980  0.50124235  0.16906615  1
  Fe  Fe14  1  0.33345970  0.33604878  0.33455152  1
  Fe  Fe15  1  0.33740977  0.66807878  0.00358685  1
  Fe  Fe16  1  0.50097664  0.83421302  0.16972100  1
  Fe  Fe17  1  0.33389293  0.66765675  0.33553331  1
  Cr  Cr18  1  0.66834755  0.00196405  1.00127580  1
  Fe  Fe19  1  0.83504036  0.16908805  0.16982613  1
  Fe  Fe20  1  0.66966497  1.00083546  0.33366868  1
  Fe  Fe21  1  0.66887551  0.33650362  0.00237566  1
  Fe  Fe22  1  0.83494806  0.50159587  0.16954653  1
  Fe  Fe23  1  0.66973864  0.33585596  0.33428093  1
  Fe  Fe24  1  0.66866935  0.66657555  0.00253448  1
  Fe  Fe25  1  0.83545384  0.83383489  0.17001247  1
  Fe  Fe26  1  0.66945639  0.66764451  0.33443216  1
  Fe  Fe27  1  0.16724542  0.16874051  0.49995066  1
  Fe  Fe28  1  0.99995101  0.00171327  0.66683920  1
  Fe  Fe29  1  0.16686812  0.16910037  0.83617730  1
  Fe  Fe30  1  0.16616573  0.50005399  0.49968815  1
  Fe  Fe31  1  1.00132877  0.33404851  0.66647567  1
  Cr  Cr32  1  0.16779129  0.50130134  0.83548480  1
  Fe  Fe33  1  0.16581456  0.83552646  0.49926602  1
  Fe  Fe34  1  0.99926796  0.66839853  0.66518427  1
  Cr  Cr35  1  0.16591448  0.83474732  0.83726037  1
  Fe  Fe36  1  0.50298593  0.16867906  0.49921000  1
  Cr  Cr37  1  0.33544978  0.00205676  0.66825899  1
  Fe  Fe38  1  0.50097988  0.17111921  0.83518084  1
  Fe  Fe39  1  0.50357049  0.49991240  0.49920217  1
  Fe  Fe40  1  0.33558333  0.33449939  0.66617374  1
  Fe  Fe41  1  0.50308719  0.50132440  0.83530207  1
  Fe  Fe42  1  0.50416184  0.83569028  0.49879589  1
  Cr  Cr43  1  0.33492045  0.66730204  0.66433872  1
  Fe  Fe44  1  0.50256433  0.83218951  0.83530907  1
  Fe  Fe45  1  0.83414501  0.16818713  0.50069088  1
  Fe  Fe46  1  0.66970287  1.00119288  0.66850161  1
  Fe  Fe47  1  0.83680041  0.16954783  0.83364885  1
  Fe  Fe48  1  0.83469761  0.50137363  0.50046143  1
  Fe  Fe49  1  0.66744221  0.33490955  0.66762223  1
  Fe  Fe50  1  0.83404848  0.50184072  0.83459162  1
  Fe  Fe51  1  0.83476217  0.83460424  0.49983458  1
  Fe  Fe52  1  0.66914798  0.66819734  0.66717617  1
  Fe  Fe53  1  0.83425370  0.83285481  0.83410161  1
" 