8681,Ni3Fe10Cr85_6,-204.888046796127, 202.9078098289,Ni3Fe10Cr85,"# generated using pymatgen
 data_Cr47Fe5Ni2
_symmetry_space_group_name_H-M   'P 1'
_cell_length_a   7.58978015
_cell_length_b   7.58978015
_cell_length_c   10.73357002
_cell_angle_alpha   90.00000000
_cell_angle_beta   90.00000000
_cell_angle_gamma   90.00000000
_symmetry_Int_Tables_number   1
_chemical_formula_structural   Cr47Fe5Ni2
_chemical_formula_sum   'Cr47 Fe5 Ni2'
_cell_volume   618.30475389
_cell_formula_units_Z   1
loop_
 _symmetry_equiv_pos_site_id
 _symmetry_equiv_pos_as_xyz
  1  'x, y, z'
loop_
 _atom_site_type_symbol
 _atom_site_label
 _atom_site_symmetry_multiplicity
 _atom_site_fract_x
 _atom_site_fract_y
 _atom_site_fract_z
 _atom_site_occupancy
  Cr  Cr0  1  -0.00612980  0.99178605  0.99185998  1
  Cr  Cr1  1  0.15946335  0.15997623  0.15895633  1
  Cr  Cr2  1  -0.00718550  -0.00801341  0.32582942  1
  Cr  Cr3  1  0.98990318  0.32651752  0.99142567  1
  Cr  Cr4  1  0.15943298  0.49120776  0.15969869  1
  Cr  Cr5  1  -0.00806919  0.32588012  0.32509899  1
  Cr  Cr6  1  0.99109689  0.65743807  -0.00786783  1
  Cr  Cr7  1  0.15768789  0.82456134  0.15793866  1
  Cr  Cr8  1  0.99106913  0.65787348  0.32450756  1
  Cr  Cr9  1  0.32484198  0.99059234  0.99018058  1
  Cr  Cr10  1  0.49133299  0.16025925  0.15895723  1
  Cr  Cr11  1  0.32484390  -0.00714959  0.32530460  1
  Cr  Cr12  1  0.32588172  0.32478003  -0.00591509  1
  Fe  Fe13  1  0.49324544  0.49159983  0.15888663  1
  Fe  Fe14  1  0.32557936  0.32555932  0.32491724  1
  Cr  Cr15  1  0.32587350  0.66037494  0.99088246  1
  Cr  Cr16  1  0.49310928  0.82428529  0.15793849  1
  Cr  Cr17  1  0.32588477  0.65771935  0.32501425  1
  Cr  Cr18  1  0.65703077  0.99178714  0.99144433  1
  Cr  Cr19  1  0.82494619  0.15851065  0.15790805  1
  Cr  Cr20  1  0.65808583  -0.00801366  0.32624598  1
  Cr  Cr21  1  0.65996423  0.32754376  -0.00753714  1
  Ni  Ni22  1  0.82412199  0.49218459  0.15759986  1
  Cr  Cr23  1  0.65792752  0.32691444  0.32405796  1
  Cr  Cr24  1  0.65877611  0.65640802  -0.00682665  1
  Cr  Cr25  1  0.82494580  0.82423935  0.15981292  1
  Cr  Cr26  1  0.65879542  0.65683975  0.32346700  1
  Cr  Cr27  1  0.15896855  0.16019909  0.49061769  1
  Cr  Cr28  1  -0.00666224  -0.00802090  0.65805185  1
  Cr  Cr29  1  0.15833501  0.15858220  0.82617021  1
  Cr  Cr30  1  0.16069544  0.49200549  0.49235592  1
  Cr  Cr31  1  0.99051058  0.32592773  0.65922534  1
  Cr  Cr32  1  0.15902750  0.49359747  0.82369213  1
  Cr  Cr33  1  0.15833111  0.82354003  0.49278371  1
  Cr  Cr34  1  -0.00664721  0.65784055  0.65910512  1
  Fe  Fe35  1  0.16007378  0.82441866  0.82441848  1
  Cr  Cr36  1  0.49186319  0.15945429  0.49136240  1
  Cr  Cr37  1  0.32524126  0.98913032  0.66025341  1
  Cr  Cr38  1  0.49249682  0.15783312  0.82542537  1
  Cr  Cr39  1  0.48939234  0.49200379  0.49163986  1
  Cr  Cr40  1  0.32525100  0.32594696  0.65704393  1
  Cr  Cr41  1  0.49105678  0.49359124  0.82440755  1
  Cr  Cr42  1  0.49250055  0.82428381  0.49352807  1
  Ni  Ni43  1  0.32525064  0.66006660  0.65993293  1
  Fe  Fe44  1  0.49042554  0.82441374  0.82442313  1
  Cr  Cr45  1  0.82491228  0.15708504  0.49260712  1
  Cr  Cr46  1  0.65716408  -0.00802428  0.65805537  1
  Cr  Cr47  1  0.82491258  0.15854980  0.82523053  1
  Cr  Cr48  1  0.82565633  0.49264382  0.49330957  1
  Cr  Cr49  1  0.65998141  0.32593898  0.65922405  1
  Fe  Fe50  1  0.82523673  0.49186585  0.82570564  1
  Cr  Cr51  1  0.82491163  0.82601420  0.49034564  1
  Cr  Cr52  1  0.65713800  0.65783073  0.65910479  1
  Cr  Cr53  1  0.82490998  0.82500910  0.82558342  1
" 