7411,Ni3Fe31Cr64_15,-212.38822429263, 190.70631703944,Ni3Fe31Cr64,"# generated using pymatgen
 data_Cr18Fe8Ni
_symmetry_space_group_name_H-M   'P 1'
_cell_length_a   7.55909299
_cell_length_b   7.55909299
_cell_length_c   10.69017183
_cell_angle_alpha   90.00000000
_cell_angle_beta   90.00000000
_cell_angle_gamma   90.00000000
_symmetry_Int_Tables_number   1
_chemical_formula_structural   Cr18Fe8Ni
_chemical_formula_sum   'Cr36 Fe16 Ni2'
_cell_volume   610.83520892
_cell_formula_units_Z   2
loop_
 _symmetry_equiv_pos_site_id
 _symmetry_equiv_pos_as_xyz
  1  'x, y, z'
loop_
 _atom_site_type_symbol
 _atom_site_label
 _atom_site_symmetry_multiplicity
 _atom_site_fract_x
 _atom_site_fract_y
 _atom_site_fract_z
 _atom_site_occupancy
  Cr  Cr0  1  0.99333583  0.99263239  -0.00510053  1
  Cr  Cr1  1  0.15999791  0.16169723  0.16036933  1
  Cr  Cr2  1  0.99379485  0.99221424  0.32825046  1
  Cr  Cr3  1  0.99344479  0.33027691  0.99292419  1
  Cr  Cr4  1  0.16086454  0.49315891  0.15952995  1
  Cr  Cr5  1  0.99164316  0.32802598  0.32575681  1
  Ni  Ni6  1  0.99201958  0.65832950  0.99270337  1
  Cr  Cr7  1  0.16041748  0.82688109  0.16099788  1
  Cr  Cr8  1  0.99371333  0.66149317  0.32772065  1
  Cr  Cr9  1  0.32928254  -0.00584338  0.99293322  1
  Cr  Cr10  1  0.49378406  0.16024177  0.15965183  1
  Cr  Cr11  1  0.32756194  0.99197298  0.32888848  1
  Fe  Fe12  1  0.32627173  0.32733565  0.99271557  1
  Cr  Cr13  1  0.49445004  0.49614949  0.16192937  1
  Cr  Cr14  1  0.32916015  0.32771070  0.32705461  1
  Cr  Cr15  1  0.32615885  0.66044868  -0.00476413  1
  Fe  Fe16  1  0.49503945  0.82694833  0.16018761  1
  Cr  Cr17  1  0.32734125  0.66205031  0.32680317  1
  Fe  Fe18  1  0.66033711  0.99260015  -0.00608175  1
  Cr  Cr19  1  0.82795446  0.15979820  0.16111574  1
  Cr  Cr20  1  0.66037639  -0.00595788  0.32740284  1
  Cr  Cr21  1  0.66074753  0.32716029  0.99353890  1
  Fe  Fe22  1  0.82740650  0.49553946  0.15974388  1
  Cr  Cr23  1  0.66093145  0.32780164  0.32805519  1
  Fe  Fe24  1  0.66282978  0.66104117  -0.00569405  1
  Cr  Cr25  1  0.82497189  0.82622495  0.15864290  1
  Fe  Fe26  1  0.66096536  0.66099949  0.32686586  1
  Cr  Cr27  1  0.16075593  0.15937114  0.49406186  1
  Cr  Cr28  1  -0.00442366  0.99202378  0.65858230  1
  Fe  Fe29  1  0.16236328  0.16116385  0.82632163  1
  Cr  Cr30  1  0.16050625  0.49410113  0.49478589  1
  Fe  Fe31  1  -0.00517576  0.32786141  0.66175812  1
  Fe  Fe32  1  0.15841118  0.49371639  0.82776824  1
  Fe  Fe33  1  0.16020319  0.82764699  0.49523304  1
  Fe  Fe34  1  0.99354586  0.66024340  0.66102249  1
  Cr  Cr35  1  0.15991328  0.82703384  0.82582478  1
  Fe  Fe36  1  0.49302368  0.15984539  0.49475880  1
  Ni  Ni37  1  0.32688438  -0.00551588  0.66021707  1
  Fe  Fe38  1  0.49224852  0.15952548  0.82722866  1
  Cr  Cr39  1  0.49480142  0.49487151  0.49260629  1
  Cr  Cr40  1  0.32792781  0.32543065  0.66281028  1
  Cr  Cr41  1  0.49372410  0.49402947  0.82720305  1
  Cr  Cr42  1  0.49442135  0.82667790  0.49429294  1
  Cr  Cr43  1  0.32498355  0.66231664  0.65970380  1
  Cr  Cr44  1  0.49557445  0.82772064  0.82871720  1
  Cr  Cr45  1  0.82800738  0.15975185  0.49292492  1
  Cr  Cr46  1  0.65872226  -0.00502956  0.66035641  1
  Cr  Cr47  1  0.82809692  0.16066531  0.82768909  1
  Cr  Cr48  1  0.82642750  0.49554794  0.49517714  1
  Cr  Cr49  1  0.66103716  0.32725824  0.66014209  1
  Fe  Fe50  1  0.82890016  0.49576122  0.82725264  1
  Fe  Fe51  1  0.82770524  0.82593560  0.49430847  1
  Fe  Fe52  1  0.66158995  0.66111539  0.66056664  1
  Cr  Cr53  1  0.82624971  0.82522594  0.82777185  1
" 