2718,Ni3Fe40Cr55_2,-214.968410961144, 183.728145437837,Ni3Fe40Cr55,"# generated using pymatgen
 data_Cr31Fe22Ni
_symmetry_space_group_name_H-M   'P 1'
_cell_length_a   7.54004426
_cell_length_b   7.54004426
_cell_length_c   10.66323286
_cell_angle_alpha   90.00000000
_cell_angle_beta   90.00000000
_cell_angle_gamma   90.00000000
_symmetry_Int_Tables_number   1
_chemical_formula_structural   Cr31Fe22Ni
_chemical_formula_sum   'Cr31 Fe22 Ni1'
_cell_volume   606.22896665
_cell_formula_units_Z   1
loop_
 _symmetry_equiv_pos_site_id
 _symmetry_equiv_pos_as_xyz
  1  'x, y, z'
loop_
 _atom_site_type_symbol
 _atom_site_label
 _atom_site_symmetry_multiplicity
 _atom_site_fract_x
 _atom_site_fract_y
 _atom_site_fract_z
 _atom_site_occupancy
  Fe  Fe0  1  -0.00243251  -0.00420455  0.99424027  1
  Cr  Cr1  1  0.16097589  0.16135516  0.16383519  1
  Cr  Cr2  1  -0.00422393  0.99442622  0.32712735  1
  Cr  Cr3  1  -0.00176502  0.33173111  -0.00421182  1
  Fe  Fe4  1  0.16154537  0.49604286  0.16280750  1
  Fe  Fe5  1  0.99513333  0.33163452  0.32912525  1
  Cr  Cr6  1  -0.00350875  0.66135076  -0.00457998  1
  Cr  Cr7  1  0.16087430  0.82728272  0.16189205  1
  Fe  Fe8  1  0.99448717  0.65783925  0.32766497  1
  Cr  Cr9  1  0.32859073  -0.00356591  -0.00362549  1
  Fe  Fe10  1  0.49425220  0.16232731  0.16138581  1
  Fe  Fe11  1  0.32853899  0.99458470  0.32914340  1
  Fe  Fe12  1  0.32642886  0.32894269  -0.00474844  1
  Cr  Cr13  1  0.49480070  0.49509540  0.15632104  1
  Cr  Cr14  1  0.32576745  0.32791261  0.32723299  1
  Fe  Fe15  1  0.32692369  0.66083855  0.99482791  1
  Cr  Cr16  1  0.49333469  0.82428600  0.16590701  1
  Fe  Fe17  1  0.32829701  0.66103453  0.32901311  1
  Cr  Cr18  1  0.65995523  0.99443120  -0.00332244  1
  Cr  Cr19  1  0.82993384  0.16231374  0.15927061  1
  Cr  Cr20  1  0.65735013  0.99350443  0.32901129  1
  Fe  Fe21  1  0.66163205  0.32952634  -0.00362250  1
  Fe  Fe22  1  0.82962759  0.49777718  0.16221503  1
  Cr  Cr23  1  0.66284270  0.32999561  0.32651272  1
  Fe  Fe24  1  0.66228438  0.66156703  -0.00391623  1
  Fe  Fe25  1  0.82806442  0.82591085  0.16198143  1
  Fe  Fe26  1  0.66290210  0.66025990  0.32874196  1
  Fe  Fe27  1  0.16234977  0.16297776  0.49490818  1
  Cr  Cr28  1  -0.00157794  0.99490824  0.66743641  1
  Ni  Ni29  1  0.16267822  0.16308785  0.82823873  1
  Fe  Fe30  1  0.16152908  0.49476715  0.49349021  1
  Cr  Cr31  1  -0.00041019  0.33169373  0.65846871  1
  Fe  Fe32  1  0.16392953  0.49345438  0.82869675  1
  Cr  Cr33  1  0.16388989  0.82770828  0.49364843  1
  Cr  Cr34  1  -0.00211459  0.65882220  0.66306908  1
  Fe  Fe35  1  0.16366117  0.82892700  0.82982274  1
  Cr  Cr36  1  0.49317718  0.16354614  0.49433689  1
  Cr  Cr37  1  0.32883017  -0.00432582  0.65979576  1
  Cr  Cr38  1  0.49400528  0.16672971  0.83034376  1
  Cr  Cr39  1  0.49309269  0.49805920  0.49819304  1
  Fe  Fe40  1  0.32541953  0.32930014  0.66247720  1
  Cr  Cr41  1  0.49174027  0.49567669  0.83023698  1
  Fe  Fe42  1  0.49350156  0.82711317  0.49328591  1
  Fe  Fe43  1  0.32614967  0.66026860  0.66171280  1
  Cr  Cr44  1  0.49275576  0.82324641  0.82588920  1
  Cr  Cr45  1  0.83253764  0.16309604  0.49742522  1
  Cr  Cr46  1  0.65873368  0.99393515  0.66030038  1
  Cr  Cr47  1  0.83183104  0.16189009  0.82868325  1
  Fe  Fe48  1  0.83029018  0.49615485  0.49287533  1
  Cr  Cr49  1  0.66165081  0.32897622  0.66190257  1
  Cr  Cr50  1  0.82482621  0.49419386  0.82838063  1
  Cr  Cr51  1  0.83003217  0.82776385  0.49412519  1
  Cr  Cr52  1  0.66247258  0.66282883  0.65952620  1
  Cr  Cr53  1  0.83101372  0.82960777  0.83110812  1
" 