2537,Ni3Fe65Cr31_17,-220.218900786927, 156.328307342945,Ni3Fe65Cr31,"# generated using pymatgen
 data_Cr18Fe35Ni
_symmetry_space_group_name_H-M   'P 1'
_cell_length_a   7.50242974
_cell_length_b   7.50242974
_cell_length_c   10.61003789
_cell_angle_alpha   90.00000000
_cell_angle_beta   90.00000000
_cell_angle_gamma   90.00000000
_symmetry_Int_Tables_number   1
_chemical_formula_structural   Cr18Fe35Ni
_chemical_formula_sum   'Cr18 Fe35 Ni1'
_cell_volume   597.20138811
_cell_formula_units_Z   1
loop_
 _symmetry_equiv_pos_site_id
 _symmetry_equiv_pos_as_xyz
  1  'x, y, z'
loop_
 _atom_site_type_symbol
 _atom_site_label
 _atom_site_symmetry_multiplicity
 _atom_site_fract_x
 _atom_site_fract_y
 _atom_site_fract_z
 _atom_site_occupancy
  Fe  Fe0  1  -0.00104309  0.00067997  0.99645823  1
  Fe  Fe1  1  0.16461919  0.16363027  0.16336795  1
  Fe  Fe2  1  -0.00104846  0.99585803  0.33175173  1
  Fe  Fe3  1  -0.00049034  0.32928474  0.99472760  1
  Cr  Cr4  1  0.16400974  0.49633146  0.16168366  1
  Fe  Fe5  1  -0.00231988  0.33301595  0.33227436  1
  Fe  Fe6  1  0.99743618  0.66326494  0.99568924  1
  Cr  Cr7  1  0.16625676  0.83144541  0.16381401  1
  Fe  Fe8  1  -0.00132678  0.66428411  0.33306305  1
  Fe  Fe9  1  0.33218060  -0.00097748  0.99607917  1
  Fe  Fe10  1  0.49650254  0.16178083  0.16326748  1
  Fe  Fe11  1  0.33198472  0.99742211  0.33115187  1
  Fe  Fe12  1  0.33010894  0.32830637  0.99548778  1
  Cr  Cr13  1  0.49704199  0.49801137  0.16247726  1
  Cr  Cr14  1  0.33146565  0.32793614  0.33069989  1
  Fe  Fe15  1  0.33232067  0.66482789  0.99575931  1
  Fe  Fe16  1  0.49790332  0.83301314  0.16192653  1
  Cr  Cr17  1  0.33002768  0.66604344  0.33368387  1
  Fe  Fe18  1  0.66191701  -0.00152560  0.99660067  1
  Cr  Cr19  1  0.83181137  0.16453394  0.16659064  1
  Fe  Fe20  1  0.66117164  -0.00190380  0.33092996  1
  Cr  Cr21  1  0.66503172  0.33206563  0.99597821  1
  Cr  Cr22  1  0.83256709  0.49653723  0.16442940  1
  Fe  Fe23  1  0.66340366  0.33005099  0.33247869  1
  Fe  Fe24  1  0.66320888  0.66589283  0.99562181  1
  Cr  Cr25  1  0.83072498  0.83218300  0.16275017  1
  Cr  Cr26  1  0.66677314  0.66342116  0.33053439  1
  Cr  Cr27  1  0.16313064  0.16555589  0.49803901  1
  Fe  Fe28  1  0.99491464  -0.00169508  0.66450805  1
  Fe  Fe29  1  0.16437245  0.16458347  0.83061666  1
  Fe  Fe30  1  0.16341958  0.49854052  0.49960379  1
  Fe  Fe31  1  -0.00135100  0.33241882  0.66665061  1
  Fe  Fe32  1  0.16550642  0.49702213  0.83158595  1
  Fe  Fe33  1  0.16090672  0.83066887  0.49921179  1
  Fe  Fe34  1  -0.00097648  0.66255454  0.66322579  1
  Cr  Cr35  1  0.16533011  0.82950873  0.82903070  1
  Fe  Fe36  1  0.49729020  0.16462496  0.49784215  1
  Cr  Cr37  1  0.32924701  -0.00151453  0.66407319  1
  Fe  Fe38  1  0.49696755  0.16190219  0.83119512  1
  Fe  Fe39  1  0.49721077  0.49494205  0.49826678  1
  Fe  Fe40  1  0.33015991  0.33351344  0.66539048  1
  Fe  Fe41  1  0.49490469  0.49960017  0.83223589  1
  Cr  Cr42  1  0.49784081  0.83086940  0.49937237  1
  Fe  Fe43  1  0.33164727  0.66176750  0.66457229  1
  Ni  Ni44  1  0.49733930  0.83058213  0.83338452  1
  Cr  Cr45  1  0.82904012  0.16310955  0.49804239  1
  Fe  Fe46  1  0.66276197  -0.00214781  0.66642041  1
  Fe  Fe47  1  0.83180769  0.16439076  0.83038307  1
  Fe  Fe48  1  0.83359541  0.49766709  0.49749820  1
  Cr  Cr49  1  0.66349793  0.33142751  0.66500507  1
  Fe  Fe50  1  0.83345109  0.49902630  0.83186351  1
  Fe  Fe51  1  0.83328761  0.83085546  0.49827946  1
  Cr  Cr52  1  0.66567525  0.66330250  0.66596407  1
  Cr  Cr53  1  0.82944900  0.83417492  0.83112730  1
" 