4227,Ni3Fe10Cr85_11,-204.819020610103, 201.926296499467,Ni3Fe10Cr85,"# generated using pymatgen
 data_Cr47Fe5Ni2
_symmetry_space_group_name_H-M   'P 1'
_cell_length_a   7.58621209
_cell_length_b   7.58621209
_cell_length_c   10.72852403
_cell_angle_alpha   90.00000000
_cell_angle_beta   90.00000000
_cell_angle_gamma   90.00000000
_symmetry_Int_Tables_number   1
_chemical_formula_structural   Cr47Fe5Ni2
_chemical_formula_sum   'Cr47 Fe5 Ni2'
_cell_volume   617.43314370
_cell_formula_units_Z   1
loop_
 _symmetry_equiv_pos_site_id
 _symmetry_equiv_pos_as_xyz
  1  'x, y, z'
loop_
 _atom_site_type_symbol
 _atom_site_label
 _atom_site_symmetry_multiplicity
 _atom_site_fract_x
 _atom_site_fract_y
 _atom_site_fract_z
 _atom_site_occupancy
  Cr  Cr0  1  -0.00760211  -0.00531945  0.99206411  1
  Fe  Fe1  1  0.15959266  0.15903174  0.15982844  1
  Cr  Cr2  1  -0.00664421  -0.00577837  0.32469348  1
  Cr  Cr3  1  -0.00771689  0.32376980  -0.00752191  1
  Cr  Cr4  1  0.15955917  0.49147454  0.15863360  1
  Cr  Cr5  1  -0.00610250  0.32492371  0.32511409  1
  Cr  Cr6  1  -0.00594338  0.65808958  -0.00678612  1
  Cr  Cr7  1  0.15859381  0.82746229  0.15860282  1
  Cr  Cr8  1  -0.00574031  0.65738324  0.32716664  1
  Cr  Cr9  1  0.32608841  0.99146129  -0.00714305  1
  Cr  Cr10  1  0.48895932  0.15938012  0.16212369  1
  Fe  Fe11  1  0.32440199  -0.00732758  0.32517805  1
  Cr  Cr12  1  0.32435793  0.32518133  -0.00631711  1
  Cr  Cr13  1  0.49198382  0.49033359  0.15840293  1
  Fe  Fe14  1  0.32429251  0.32572935  0.32585310  1
  Cr  Cr15  1  0.32662160  0.65986630  0.98970071  1
  Cr  Cr16  1  0.49145939  0.82681798  0.15933348  1
  Cr  Cr17  1  0.32517482  0.65829798  0.32639792  1
  Cr  Cr18  1  0.65776601  -0.00733945  0.98955693  1
  Cr  Cr19  1  0.82483072  0.15842811  0.15747061  1
  Cr  Cr20  1  0.65803940  -0.00715981  0.32666580  1
  Cr  Cr21  1  0.65935660  0.32373020  0.99176033  1
  Cr  Cr22  1  0.82523145  0.49301075  0.15797379  1
  Cr  Cr23  1  0.65942461  0.32505428  0.32518754  1
  Cr  Cr24  1  0.65611038  0.65981946  -0.00749996  1
  Cr  Cr25  1  0.82646495  0.82489975  0.15990425  1
  Cr  Cr26  1  0.65712553  0.65855267  0.32533746  1
  Cr  Cr27  1  0.16158806  0.15931826  0.49123498  1
  Cr  Cr28  1  0.99148157  -0.00623834  0.65986763  1
  Cr  Cr29  1  0.16000719  0.15942409  0.82540554  1
  Fe  Fe30  1  0.16076628  0.49033185  0.49262699  1
  Cr  Cr31  1  -0.00679192  0.32493628  0.65869881  1
  Cr  Cr32  1  0.15924622  0.49084232  0.82349336  1
  Cr  Cr33  1  0.15849396  0.82659091  0.49238392  1
  Cr  Cr34  1  -0.00588709  0.65752547  0.65567911  1
  Cr  Cr35  1  0.15870711  0.82590041  0.82577643  1
  Cr  Cr36  1  0.48984513  0.16011620  0.49129607  1
  Cr  Cr37  1  0.32644451  0.99115431  0.65978526  1
  Cr  Cr38  1  0.49027018  0.16004093  0.82341006  1
  Cr  Cr39  1  0.49081159  0.48931272  0.49245289  1
  Ni  Ni40  1  0.32421354  0.32595895  0.65615892  1
  Cr  Cr41  1  0.49162481  0.49074028  0.82546274  1
  Cr  Cr42  1  0.49139416  0.82688587  0.49165179  1
  Cr  Cr43  1  0.32609173  0.65808894  0.66007347  1
  Ni  Ni44  1  0.49296169  0.82692669  0.82547122  1
  Cr  Cr45  1  0.82524674  0.15859590  0.49417679  1
  Cr  Cr46  1  0.65842058  -0.00782717  0.66037421  1
  Fe  Fe47  1  0.82524093  0.15858327  0.82534193  1
  Cr  Cr48  1  0.82556685  0.49254130  0.49158073  1
  Cr  Cr49  1  0.65909387  0.32432154  0.65987814  1
  Cr  Cr50  1  0.82580089  0.49227282  0.82689708  1
  Cr  Cr51  1  0.82644316  0.82529516  0.49097748  1
  Cr  Cr52  1  0.65675572  0.65982519  0.65861431  1
  Cr  Cr53  1  0.82635999  0.82464552  0.82543153  1
" 