4950,Ni3Fe90Cr6_11,-222.921096505713, 129.489717100557,Ni3Fe90Cr6,"# generated using pymatgen
 data_Cr5Fe48Ni
_symmetry_space_group_name_H-M   'P 1'
_cell_length_a   7.44476673
_cell_length_b   7.44476673
_cell_length_c   10.52849008
_cell_angle_alpha   90.00000000
_cell_angle_beta   90.00000000
_cell_angle_gamma   90.00000000
_symmetry_Int_Tables_number   1
_chemical_formula_structural   Cr5Fe48Ni
_chemical_formula_sum   'Cr5 Fe48 Ni1'
_cell_volume   583.53684208
_cell_formula_units_Z   1
loop_
 _symmetry_equiv_pos_site_id
 _symmetry_equiv_pos_as_xyz
  1  'x, y, z'
loop_
 _atom_site_type_symbol
 _atom_site_label
 _atom_site_symmetry_multiplicity
 _atom_site_fract_x
 _atom_site_fract_y
 _atom_site_fract_z
 _atom_site_occupancy
  Fe  Fe0  1  1.00096632  0.00217230  1.00124437  1
  Fe  Fe1  1  0.16859093  0.16805885  0.16822550  1
  Fe  Fe2  1  0.00229726  0.00263855  0.33381711  1
  Fe  Fe3  1  1.00110275  0.33477329  1.00145263  1
  Fe  Fe4  1  0.16846795  0.50147657  0.16812478  1
  Fe  Fe5  1  1.00147294  0.33502600  0.33432668  1
  Fe  Fe6  1  1.00147374  0.66770250  0.00184317  1
  Fe  Fe7  1  0.16656730  0.83495802  0.16808730  1
  Fe  Fe8  1  0.00236780  0.66692923  0.33381734  1
  Fe  Fe9  1  0.33308143  0.00312926  1.00138891  1
  Fe  Fe10  1  0.50134422  0.16996428  0.16816143  1
  Fe  Fe11  1  0.33361004  0.00267466  0.33617792  1
  Fe  Fe12  1  0.33448770  0.33516387  0.00180378  1
  Fe  Fe13  1  0.50143179  0.49942513  0.16805080  1
  Fe  Fe14  1  0.33458024  0.33514784  0.33476318  1
  Fe  Fe15  1  0.33273081  0.66596706  0.00182887  1
  Cr  Cr16  1  0.50173438  0.83486893  0.16905960  1
  Fe  Fe17  1  0.33351664  0.66658802  0.33563999  1
  Fe  Fe18  1  0.67056857  0.00369846  1.00067411  1
  Fe  Fe19  1  0.83459063  0.16802186  0.16724169  1
  Fe  Fe20  1  0.66851233  0.00401124  0.33525629  1
  Fe  Fe21  1  0.66917379  0.33455747  1.00119349  1
  Fe  Fe22  1  0.83459936  0.50161469  0.16826905  1
  Fe  Fe23  1  0.66843782  0.33499185  0.33456271  1
  Fe  Fe24  1  0.67031224  0.66597562  0.00201967  1
  Fe  Fe25  1  0.83668968  0.83487363  0.16868806  1
  Fe  Fe26  1  0.66853331  0.66552663  0.33486671  1
  Fe  Fe27  1  0.16632093  0.16940379  0.50017785  1
  Fe  Fe28  1  0.00194373  0.00292086  0.66941323  1
  Fe  Fe29  1  0.16730162  0.16918512  0.83589326  1
  Fe  Fe30  1  0.16732642  0.50143742  0.50151721  1
  Fe  Fe31  1  1.00140895  0.33392112  0.66853181  1
  Fe  Fe32  1  0.16759872  0.50072225  0.83486052  1
  Fe  Fe33  1  0.16826355  0.83354831  0.50020022  1
  Fe  Fe34  1  0.00259801  0.66774856  0.66902146  1
  Fe  Fe35  1  0.16501423  0.83474170  0.83583248  1
  Fe  Fe36  1  0.50187663  0.17017444  0.49940735  1
  Cr  Cr37  1  0.33377395  0.00226942  0.66738545  1
  Fe  Fe38  1  0.50232765  0.17106508  0.83660736  1
  Fe  Fe39  1  0.50193157  0.50151684  0.50131396  1
  Fe  Fe40  1  0.33516628  0.33634787  0.66792949  1
  Fe  Fe41  1  0.50219316  0.49833987  0.83509471  1
  Fe  Fe42  1  0.49987995  0.83296357  0.49950891  1
  Fe  Fe43  1  0.33408073  0.66571696  0.66733515  1
  Cr  Cr44  1  0.50122734  0.83263964  0.83553046  1
  Fe  Fe45  1  0.83617811  0.17132152  0.50134866  1
  Cr  Cr46  1  0.66813321  0.00343299  0.66863527  1
  Ni  Ni47  1  0.83686679  0.16973163  0.83472889  1
  Fe  Fe48  1  0.83522241  0.49965230  0.50140644  1
  Fe  Fe49  1  0.66830510  0.33611113  0.66862712  1
  Fe  Fe50  1  0.83470319  0.50105355  0.83482084  1
  Cr  Cr51  1  0.83477603  0.83502250  0.50164485  1
  Fe  Fe52  1  0.66781773  0.66499179  0.66805813  1
  Fe  Fe53  1  0.83732836  0.83489024  0.83539005  1
" 