5510,Ni3Fe10Cr85_14,-204.932412792359, 203.100884827844,Ni3Fe10Cr85,"# generated using pymatgen
 data_Cr47Fe5Ni2
_symmetry_space_group_name_H-M   'P 1'
_cell_length_a   7.58601601
_cell_length_b   7.58601601
_cell_length_c   10.72824672
_cell_angle_alpha   90.00000000
_cell_angle_beta   90.00000000
_cell_angle_gamma   90.00000000
_symmetry_Int_Tables_number   1
_chemical_formula_structural   Cr47Fe5Ni2
_chemical_formula_sum   'Cr47 Fe5 Ni2'
_cell_volume   617.38526831
_cell_formula_units_Z   1
loop_
 _symmetry_equiv_pos_site_id
 _symmetry_equiv_pos_as_xyz
  1  'x, y, z'
loop_
 _atom_site_type_symbol
 _atom_site_label
 _atom_site_symmetry_multiplicity
 _atom_site_fract_x
 _atom_site_fract_y
 _atom_site_fract_z
 _atom_site_occupancy
  Cr  Cr0  1  -0.00766689  0.99197710  0.99146195  1
  Cr  Cr1  1  0.16008447  0.16154910  0.15989785  1
  Cr  Cr2  1  -0.00674678  -0.00579907  0.32644737  1
  Cr  Cr3  1  -0.00645239  0.32630288  0.99109474  1
  Cr  Cr4  1  0.15826697  0.49031289  0.15846352  1
  Ni  Ni5  1  -0.00662718  0.32404878  0.32655131  1
  Cr  Cr6  1  -0.00661867  0.65821515  0.99121422  1
  Cr  Cr7  1  0.16024198  0.82463456  0.15881945  1
  Cr  Cr8  1  -0.00761990  0.65803273  0.32379838  1
  Cr  Cr9  1  0.32561459  -0.00582206  -0.00547251  1
  Fe  Fe10  1  0.49140180  0.16002415  0.15854286  1
  Cr  Cr11  1  0.32493953  -0.00650502  0.32554033  1
  Fe  Fe12  1  0.32505751  0.32671740  0.99106632  1
  Cr  Cr13  1  0.49085029  0.49072420  0.15844078  1
  Cr  Cr14  1  0.32529090  0.32473516  0.32593548  1
  Cr  Cr15  1  0.32473382  0.65591690  0.99012806  1
  Cr  Cr16  1  0.49149332  0.82678644  0.15947911  1
  Cr  Cr17  1  0.32635557  0.65820988  0.32683035  1
  Cr  Cr18  1  0.65857160  -0.00630766  -0.00589447  1
  Cr  Cr19  1  0.82526447  0.16111609  0.15941999  1
  Cr  Cr20  1  0.65822062  -0.00677953  0.32314761  1
  Cr  Cr21  1  0.65593130  0.32547078  -0.00771887  1
  Cr  Cr22  1  0.82719431  0.49044849  0.16134906  1
  Cr  Cr23  1  0.65860628  0.32570468  0.32557373  1
  Cr  Cr24  1  0.65834255  0.65740094  0.99166916  1
  Cr  Cr25  1  0.82473838  0.82484055  0.15836997  1
  Cr  Cr26  1  0.65776006  0.65759285  0.32645765  1
  Fe  Fe27  1  0.15786365  0.16025578  0.49102097  1
  Cr  Cr28  1  -0.00665365  -0.00691327  0.65843893  1
  Cr  Cr29  1  0.16026889  0.16166328  0.82482761  1
  Cr  Cr30  1  0.15825475  0.48996386  0.49017941  1
  Cr  Cr31  1  -0.00629603  0.32516287  0.65827199  1
  Ni  Ni32  1  0.16203139  0.49061304  0.82687702  1
  Cr  Cr33  1  0.16023224  0.82567796  0.49212534  1
  Cr  Cr34  1  -0.00662292  0.65825794  0.66130192  1
  Cr  Cr35  1  0.16025135  0.82375804  0.82547923  1
  Cr  Cr36  1  0.49122240  0.15894685  0.49194692  1
  Cr  Cr37  1  0.32365826  -0.00669145  0.65658284  1
  Cr  Cr38  1  0.49146253  0.15961544  0.82789195  1
  Fe  Fe39  1  0.49199536  0.49177532  0.49204375  1
  Cr  Cr40  1  0.32586395  0.32741965  0.65976482  1
  Fe  Fe41  1  0.48964918  0.49150372  0.82617688  1
  Cr  Cr42  1  0.49168156  0.82501753  0.49253867  1
  Cr  Cr43  1  0.32604283  0.65583261  0.65930940  1
  Cr  Cr44  1  0.49190639  0.82574824  0.82444631  1
  Cr  Cr45  1  0.82683074  0.16103151  0.49250598  1
  Cr  Cr46  1  0.65939199  -0.00711750  0.65947486  1
  Cr  Cr47  1  0.82461844  0.15947955  0.82443480  1
  Cr  Cr48  1  0.82620691  0.49041765  0.48955560  1
  Cr  Cr49  1  0.65682734  0.32747378  0.65883541  1
  Cr  Cr50  1  0.82677559  0.49138193  0.82548995  1
  Cr  Cr51  1  0.82457165  0.82504458  0.49298729  1
  Cr  Cr52  1  0.65699900  0.65610609  0.65833590  1
  Cr  Cr53  1  0.82430773  0.82559663  0.82511283  1
" 