5472,Ni3Fe65Cr31_1,-220.19367083603, 151.711403247505,Ni3Fe65Cr31,"# generated using pymatgen
 data_Cr18Fe35Ni
_symmetry_space_group_name_H-M   'P 1'
_cell_length_a   7.51497100
_cell_length_b   7.51497100
_cell_length_c   10.62777391
_cell_angle_alpha   90.00000000
_cell_angle_beta   90.00000000
_cell_angle_gamma   90.00000000
_symmetry_Int_Tables_number   1
_chemical_formula_structural   Cr18Fe35Ni
_chemical_formula_sum   'Cr18 Fe35 Ni1'
_cell_volume   600.20128993
_cell_formula_units_Z   1
loop_
 _symmetry_equiv_pos_site_id
 _symmetry_equiv_pos_as_xyz
  1  'x, y, z'
loop_
 _atom_site_type_symbol
 _atom_site_label
 _atom_site_symmetry_multiplicity
 _atom_site_fract_x
 _atom_site_fract_y
 _atom_site_fract_z
 _atom_site_occupancy
  Fe  Fe0  1  -0.00289225  0.99632017  0.99646234  1
  Fe  Fe1  1  0.16451477  0.16322238  0.16313328  1
  Cr  Cr2  1  -0.00254457  -0.00240832  0.33054724  1
  Cr  Cr3  1  -0.00216054  0.32877971  0.99609469  1
  Fe  Fe4  1  0.16496770  0.49733016  0.16348572  1
  Cr  Cr5  1  -0.00165039  0.33012417  0.33108509  1
  Fe  Fe6  1  -0.00167837  0.66420193  0.99672537  1
  Fe  Fe7  1  0.16371073  0.82988021  0.16309600  1
  Fe  Fe8  1  -0.00209883  0.66385287  0.33065627  1
  Fe  Fe9  1  0.32939140  0.99680239  0.99672621  1
  Cr  Cr10  1  0.49668488  0.16391200  0.16399690  1
  Fe  Fe11  1  0.33052805  0.99644817  0.33065126  1
  Fe  Fe12  1  0.33063257  0.33065158  0.99646287  1
  Fe  Fe13  1  0.49543831  0.49667680  0.16359151  1
  Fe  Fe14  1  0.33014094  0.33013579  0.33014112  1
  Fe  Fe15  1  0.32890921  0.66298320  -0.00293467  1
  Fe  Fe16  1  0.49630905  0.83016454  0.16337247  1
  Fe  Fe17  1  0.32881559  0.66384678  0.32989385  1
  Fe  Fe18  1  0.66393166  -0.00197600  0.99637076  1
  Cr  Cr19  1  0.82889012  0.16210755  0.16281455  1
  Fe  Fe20  1  0.66285260  -0.00308678  0.33102173  1
  Fe  Fe21  1  0.66271788  0.32943223  0.99533295  1
  Cr  Cr22  1  0.83064034  0.49746570  0.16399850  1
  Fe  Fe23  1  0.66286128  0.32929660  0.33090073  1
  Cr  Cr24  1  0.66202498  0.66323158  -0.00286214  1
  Fe  Fe25  1  0.83041004  0.83060321  0.16302137  1
  Cr  Cr26  1  0.66248925  0.66488573  0.32995826  1
  Fe  Fe27  1  0.16473543  0.16397219  0.49641054  1
  Cr  Cr28  1  -0.00223727  -0.00114016  0.66366146  1
  Fe  Fe29  1  0.16353385  0.16326059  0.83089075  1
  Fe  Fe30  1  0.16346223  0.49680977  0.49606312  1
  Cr  Cr31  1  -0.00313550  0.32943668  0.66325696  1
  Fe  Fe32  1  0.16378580  0.49660314  0.83088597  1
  Fe  Fe33  1  0.16394691  0.82965830  0.49569638  1
  Cr  Cr34  1  0.99650566  0.66213663  0.66270357  1
  Fe  Fe35  1  0.16304481  0.83056834  0.83164068  1
  Fe  Fe36  1  0.49679579  0.16347965  0.49591724  1
  Cr  Cr37  1  0.32982294  -0.00218280  0.66270414  1
  Fe  Fe38  1  0.49762388  0.16489097  0.83099591  1
  Cr  Cr39  1  0.49598815  0.49497977  0.49688917  1
  Fe  Fe40  1  0.33050179  0.32979357  0.66383363  1
  Fe  Fe41  1  0.49698415  0.49458385  0.83041127  1
  Fe  Fe42  1  0.49644064  0.83126741  0.49578644  1
  Cr  Cr43  1  0.33085680  0.66340936  0.66411253  1
  Cr  Cr44  1  0.49500373  0.83045986  0.83044898  1
  Fe  Fe45  1  0.82890821  0.16397512  0.49674427  1
  Cr  Cr46  1  0.66284925  -0.00255306  0.66183250  1
  Ni  Ni47  1  0.82934262  0.16486484  0.83086564  1
  Fe  Fe48  1  0.83051738  0.49645376  0.49628737  1
  Fe  Fe49  1  0.66347139  0.32943184  0.66420739  1
  Fe  Fe50  1  0.82966324  0.49508168  0.83063043  1
  Fe  Fe51  1  0.83004698  0.83001184  0.49612194  1
  Cr  Cr52  1  0.66307193  0.66250022  0.66334069  1
  Cr  Cr53  1  0.83245235  0.83118179  0.83173633  1
" 