425,Ni3Fe90Cr6_3,-222.933475795301, 131.560773153717,Ni3Fe90Cr6,"# generated using pymatgen
 data_Cr5Fe48Ni
_symmetry_space_group_name_H-M   'P 1'
_cell_length_a   7.44883441
_cell_length_b   7.44883441
_cell_length_c   10.53424264
_cell_angle_alpha   90.00000000
_cell_angle_beta   90.00000000
_cell_angle_gamma   90.00000000
_symmetry_Int_Tables_number   1
_chemical_formula_structural   Cr5Fe48Ni
_chemical_formula_sum   'Cr5 Fe48 Ni1'
_cell_volume   584.49386458
_cell_formula_units_Z   1
loop_
 _symmetry_equiv_pos_site_id
 _symmetry_equiv_pos_as_xyz
  1  'x, y, z'
loop_
 _atom_site_type_symbol
 _atom_site_label
 _atom_site_symmetry_multiplicity
 _atom_site_fract_x
 _atom_site_fract_y
 _atom_site_fract_z
 _atom_site_occupancy
  Fe  Fe0  1  0.00267741  0.00138833  1.00037308  1
  Fe  Fe1  1  0.16762845  0.16766583  0.16803993  1
  Fe  Fe2  1  0.00229343  0.00182520  0.33545762  1
  Fe  Fe3  1  0.00185103  0.33521252  0.00125015  1
  Fe  Fe4  1  0.16720756  0.50103679  0.16691225  1
  Fe  Fe5  1  1.00061375  0.33394755  0.33372982  1
  Fe  Fe6  1  0.00286105  0.66706605  1.00042631  1
  Fe  Fe7  1  0.16910115  0.83496685  0.16669166  1
  Fe  Fe8  1  0.99949273  0.66789156  0.33462247  1
  Fe  Fe9  1  0.33458216  1.00037849  0.00124965  1
  Fe  Fe10  1  0.50150929  0.16764075  0.16823285  1
  Fe  Fe11  1  0.33372242  0.00209462  0.33381937  1
  Fe  Fe12  1  0.33455702  0.33537163  0.00125115  1
  Fe  Fe13  1  0.50188037  0.50101108  0.16671859  1
  Fe  Fe14  1  0.33454982  0.33283433  0.33296596  1
  Ni  Ni15  1  0.33433393  0.66805382  1.00105946  1
  Fe  Fe16  1  0.50001183  0.83501767  0.16669057  1
  Cr  Cr17  1  0.33557423  0.66890851  0.33360468  1
  Fe  Fe18  1  0.66640820  0.00138799  1.00015251  1
  Fe  Fe19  1  0.83452989  0.16953327  0.16791849  1
  Fe  Fe20  1  0.66765012  1.00096764  0.33479600  1
  Fe  Fe21  1  0.66725961  0.33518754  0.00122295  1
  Fe  Fe22  1  0.83458013  0.49953519  0.16801283  1
  Fe  Fe23  1  0.66850077  0.33563493  0.33375342  1
  Fe  Fe24  1  0.66624838  0.66709130  1.00039918  1
  Cr  Cr25  1  0.83455762  0.83366883  0.16729901  1
  Fe  Fe26  1  0.66876986  0.66706372  0.33552592  1
  Fe  Fe27  1  0.16625457  0.16620464  0.50122174  1
  Fe  Fe28  1  0.00290718  0.00124862  0.66783502  1
  Fe  Fe29  1  0.16784875  0.16788556  0.83440587  1
  Cr  Cr30  1  0.16716346  0.50019707  0.50253830  1
  Fe  Fe31  1  1.00014623  0.33345232  0.66868978  1
  Fe  Fe32  1  0.16828485  0.50161915  0.83470117  1
  Fe  Fe33  1  0.16728062  0.83731150  0.50205096  1
  Fe  Fe34  1  1.00010340  0.66896637  0.66862074  1
  Fe  Fe35  1  0.16825895  0.83416327  0.83492274  1
  Cr  Cr36  1  0.49961078  0.16891115  0.50020589  1
  Fe  Fe37  1  0.33205086  1.00043580  0.66859582  1
  Fe  Fe38  1  0.50046149  0.16871515  0.83506684  1
  Fe  Fe39  1  0.50373284  0.50205457  0.50207839  1
  Fe  Fe40  1  0.33480199  0.33426749  0.66945139  1
  Fe  Fe41  1  0.50083000  0.50159420  0.83486921  1
  Fe  Fe42  1  0.50100877  0.83265922  0.50120297  1
  Fe  Fe43  1  0.33565848  0.66896498  0.66909970  1
  Fe  Fe44  1  0.50002763  0.83336021  0.83577489  1
  Fe  Fe45  1  0.83728357  0.16893625  0.50036816  1
  Cr  Cr46  1  0.66942713  1.00101502  0.66898841  1
  Fe  Fe47  1  0.83535849  0.16869113  0.83538399  1
  Fe  Fe48  1  0.83262599  0.50102950  0.50119495  1
  Fe  Fe49  1  0.66871643  0.33706471  0.66868908  1
  Fe  Fe50  1  0.83455266  0.50118363  0.83445982  1
  Fe  Fe51  1  0.83538298  0.83370137  0.50012248  1
  Fe  Fe52  1  0.66790448  0.66620966  0.66774146  1
  Fe  Fe53  1  0.83538309  0.83379342  0.83556224  1
" 