2343,Ni3Fe10Cr85_19,-204.871233218319, 204.379914319483,Ni3Fe10Cr85,"# generated using pymatgen
 data_Cr47Fe5Ni2
_symmetry_space_group_name_H-M   'P 1'
_cell_length_a   7.58591978
_cell_length_b   7.58591978
_cell_length_c   10.72811064
_cell_angle_alpha   90.00000000
_cell_angle_beta   90.00000000
_cell_angle_gamma   90.00000000
_symmetry_Int_Tables_number   1
_chemical_formula_structural   Cr47Fe5Ni2
_chemical_formula_sum   'Cr47 Fe5 Ni2'
_cell_volume   617.36177411
_cell_formula_units_Z   1
loop_
 _symmetry_equiv_pos_site_id
 _symmetry_equiv_pos_as_xyz
  1  'x, y, z'
loop_
 _atom_site_type_symbol
 _atom_site_label
 _atom_site_symmetry_multiplicity
 _atom_site_fract_x
 _atom_site_fract_y
 _atom_site_fract_z
 _atom_site_occupancy
  Cr  Cr0  1  -0.00521824  -0.00703100  -0.00722576  1
  Cr  Cr1  1  0.15998857  0.15933027  0.15473105  1
  Cr  Cr2  1  -0.00686469  -0.00682920  0.32581910  1
  Cr  Cr3  1  0.99180163  0.32631004  -0.00777078  1
  Cr  Cr4  1  0.16061605  0.49241457  0.15929364  1
  Cr  Cr5  1  0.99156459  0.32513954  0.32519323  1
  Cr  Cr6  1  0.99066384  0.65708620  0.99135076  1
  Cr  Cr7  1  0.15950998  0.82478630  0.15823510  1
  Cr  Cr8  1  -0.00697123  0.65821631  0.32499003  1
  Ni  Ni9  1  0.32589627  -0.00597098  -0.00765793  1
  Cr  Cr10  1  0.49285078  0.15931134  0.15755617  1
  Cr  Cr11  1  0.32635300  0.99146700  0.32553382  1
  Fe  Fe12  1  0.32580567  0.32399016  0.99161856  1
  Cr  Cr13  1  0.49087863  0.49119007  0.16010958  1
  Cr  Cr14  1  0.32617454  0.32524482  0.32552345  1
  Cr  Cr15  1  0.32665410  0.66042637  -0.00540246  1
  Cr  Cr16  1  0.49192995  0.82594826  0.15903984  1
  Fe  Fe17  1  0.32532759  0.65896450  0.32541938  1
  Cr  Cr18  1  0.65603121  0.99205458  -0.00727807  1
  Cr  Cr19  1  0.82362872  0.15818890  0.16219382  1
  Fe  Fe20  1  0.65814730  -0.00707184  0.32545695  1
  Cr  Cr21  1  0.65902607  0.32722522  -0.00781348  1
  Cr  Cr22  1  0.82493763  0.49152708  0.15869903  1
  Fe  Fe23  1  0.65841011  0.32479980  0.32544823  1
  Cr  Cr24  1  0.65921081  0.65709756  0.98924537  1
  Cr  Cr25  1  0.82502124  0.82679098  0.15936420  1
  Cr  Cr26  1  0.65690356  0.65811135  0.32499441  1
  Cr  Cr27  1  0.15916373  0.16069137  0.49543011  1
  Cr  Cr28  1  -0.00674672  -0.00724333  0.65789688  1
  Cr  Cr29  1  0.16121349  0.16011186  0.82641656  1
  Cr  Cr30  1  0.16093765  0.49223846  0.49224196  1
  Cr  Cr31  1  -0.00725653  0.32592575  0.65904270  1
  Cr  Cr32  1  0.16018036  0.49063003  0.82489835  1
  Cr  Cr33  1  0.15856205  0.82357030  0.49178057  1
  Cr  Cr34  1  0.99082137  0.65769415  0.66018040  1
  Cr  Cr35  1  0.15899483  0.82582103  0.82644577  1
  Cr  Cr36  1  0.49369830  0.16052364  0.49259602  1
  Cr  Cr37  1  0.32570497  -0.00613928  0.65904017  1
  Cr  Cr38  1  0.48994066  0.16009990  0.82640215  1
  Cr  Cr39  1  0.49049900  0.49110011  0.49146313  1
  Ni  Ni40  1  0.32590678  0.32551397  0.65966540  1
  Cr  Cr41  1  0.49050362  0.49021053  0.82490616  1
  Cr  Cr42  1  0.49294234  0.82487229  0.49093198  1
  Cr  Cr43  1  0.32666550  0.65841705  0.65585876  1
  Cr  Cr44  1  0.49169048  0.82624615  0.82643083  1
  Cr  Cr45  1  0.82360455  0.15809084  0.48930974  1
  Cr  Cr46  1  0.65752428  0.99182941  0.65795978  1
  Cr  Cr47  1  0.82536948  0.15864162  0.82494678  1
  Cr  Cr48  1  0.82496290  0.49153090  0.49243701  1
  Cr  Cr49  1  0.65809353  0.32684953  0.65908022  1
  Fe  Fe50  1  0.82581206  0.49128877  0.82551902  1
  Cr  Cr51  1  0.82498326  0.82682491  0.49188734  1
  Cr  Cr52  1  0.65904404  0.65769121  0.66228578  1
  Cr  Cr53  1  0.82581346  0.82515776  0.82518635  1
" 