6306,Ni3Fe10Cr85_16,-204.758760994864, 200.865693357618,Ni3Fe10Cr85,"# generated using pymatgen
 data_Cr47Fe5Ni2
_symmetry_space_group_name_H-M   'P 1'
_cell_length_a   7.59028753
_cell_length_b   7.59028753
_cell_length_c   10.73428756
_cell_angle_alpha   90.00000000
_cell_angle_beta   90.00000000
_cell_angle_gamma   90.00000000
_symmetry_Int_Tables_number   1
_chemical_formula_structural   Cr47Fe5Ni2
_chemical_formula_sum   'Cr47 Fe5 Ni2'
_cell_volume   618.42876389
_cell_formula_units_Z   1
loop_
 _symmetry_equiv_pos_site_id
 _symmetry_equiv_pos_as_xyz
  1  'x, y, z'
loop_
 _atom_site_type_symbol
 _atom_site_label
 _atom_site_symmetry_multiplicity
 _atom_site_fract_x
 _atom_site_fract_y
 _atom_site_fract_z
 _atom_site_occupancy
  Cr  Cr0  1  -0.00775626  -0.00713458  -0.00636097  1
  Fe  Fe1  1  0.15903049  0.15897341  0.15854109  1
  Cr  Cr2  1  -0.00772519  -0.00716950  0.32462599  1
  Cr  Cr3  1  -0.00746103  0.32502489  -0.00743556  1
  Cr  Cr4  1  0.15976052  0.49169327  0.15745788  1
  Cr  Cr5  1  0.99153890  0.32462344  0.32453227  1
  Cr  Cr6  1  0.99073550  0.65775771  -0.00774337  1
  Cr  Cr7  1  0.15821852  0.82580507  0.15862787  1
  Cr  Cr8  1  0.99077090  0.65819508  0.32558940  1
  Cr  Cr9  1  0.32582663  -0.00713920  0.99119090  1
  Cr  Cr10  1  0.49222267  0.16102307  0.15928579  1
  Cr  Cr11  1  0.32452943  -0.00716880  0.32497413  1
  Cr  Cr12  1  0.32518569  0.32468781  -0.00736582  1
  Ni  Ni13  1  0.49301209  0.49049745  0.15935931  1
  Cr  Cr14  1  0.32596226  0.32532398  0.32382824  1
  Cr  Cr15  1  0.32699096  0.65809839  -0.00767200  1
  Cr  Cr16  1  0.49147110  0.82367697  0.15823856  1
  Cr  Cr17  1  0.32673003  0.65749396  0.32488093  1
  Cr  Cr18  1  0.65757252  0.99105932  0.98936533  1
  Cr  Cr19  1  0.82521116  0.15948931  0.15925613  1
  Cr  Cr20  1  0.65884156  -0.00794121  0.32604353  1
  Cr  Cr21  1  0.65792036  0.32619055  -0.00724346  1
  Fe  Fe22  1  0.82317512  0.49157507  0.15886661  1
  Fe  Fe23  1  0.65802847  0.32637137  0.32403488  1
  Cr  Cr24  1  0.65791687  0.65839682  -0.00754708  1
  Cr  Cr25  1  0.82595477  0.82521950  0.15820818  1
  Cr  Cr26  1  0.65814240  0.65675840  0.32400779  1
  Cr  Cr27  1  0.15917930  0.15757237  0.49214197  1
  Cr  Cr28  1  -0.00732130  -0.00777773  0.65738165  1
  Cr  Cr29  1  0.16014347  0.15800836  0.82529547  1
  Cr  Cr30  1  0.15892940  0.49270319  0.49379750  1
  Cr  Cr31  1  -0.00765667  0.32556863  0.65855164  1
  Cr  Cr32  1  0.15886379  0.49230124  0.82438953  1
  Cr  Cr33  1  0.15917907  0.82536950  0.49244321  1
  Cr  Cr34  1  0.99158340  0.65785453  0.65780110  1
  Cr  Cr35  1  0.16014809  0.82533581  0.82457486  1
  Cr  Cr36  1  0.49246141  0.15877559  0.49237667  1
  Ni  Ni37  1  0.32668057  -0.00800985  0.65980645  1
  Fe  Fe38  1  0.49103186  0.15705750  0.82437444  1
  Cr  Cr39  1  0.49212154  0.49090580  0.49008826  1
  Cr  Cr40  1  0.32502791  0.32344258  0.65918209  1
  Cr  Cr41  1  0.49148648  0.49153949  0.82554709  1
  Cr  Cr42  1  0.49066713  0.82596236  0.49267682  1
  Cr  Cr43  1  0.32578682  0.65997721  0.65843102  1
  Fe  Fe44  1  0.49102737  0.82671095  0.82437055  1
  Cr  Cr45  1  0.82400180  0.15902535  0.49140266  1
  Cr  Cr46  1  0.65614551  0.99146452  0.66023392  1
  Cr  Cr47  1  0.82366200  0.15842473  0.82498333  1
  Cr  Cr48  1  0.82459307  0.49090666  0.49163246  1
  Cr  Cr49  1  0.65827273  0.32453947  0.65846369  1
  Cr  Cr50  1  0.82529371  0.49154131  0.82550276  1
  Cr  Cr51  1  0.82579774  0.82571226  0.49170231  1
  Cr  Cr52  1  0.65827513  0.65964120  0.65918161  1
  Cr  Cr53  1  0.82442598  0.82567914  0.82573415  1
" 