2898,Ni3Fe31Cr64_12,-212.065418012782, 188.785004181112,Ni3Fe31Cr64,"# generated using pymatgen
 data_Cr18Fe8Ni
_symmetry_space_group_name_H-M   'P 1'
_cell_length_a   7.55629984
_cell_length_b   7.55629984
_cell_length_c   10.68622171
_cell_angle_alpha   90.00000000
_cell_angle_beta   90.00000000
_cell_angle_gamma   90.00000000
_symmetry_Int_Tables_number   1
_chemical_formula_structural   Cr18Fe8Ni
_chemical_formula_sum   'Cr36 Fe16 Ni2'
_cell_volume   610.15833095
_cell_formula_units_Z   2
loop_
 _symmetry_equiv_pos_site_id
 _symmetry_equiv_pos_as_xyz
  1  'x, y, z'
loop_
 _atom_site_type_symbol
 _atom_site_label
 _atom_site_symmetry_multiplicity
 _atom_site_fract_x
 _atom_site_fract_y
 _atom_site_fract_z
 _atom_site_occupancy
  Cr  Cr0  1  -0.00540146  0.99356447  0.99355087  1
  Cr  Cr1  1  0.16008540  0.16116026  0.15906056  1
  Cr  Cr2  1  0.99171838  0.99396429  0.32806940  1
  Fe  Fe3  1  -0.00549499  0.32927358  -0.00557888  1
  Fe  Fe4  1  0.15956605  0.49395719  0.16050099  1
  Cr  Cr5  1  0.99310526  0.32995237  0.33052084  1
  Cr  Cr6  1  -0.00418305  0.65854787  -0.00289216  1
  Fe  Fe7  1  0.16255040  0.82718190  0.16058111  1
  Cr  Cr8  1  -0.00529572  0.65839723  0.32627592  1
  Cr  Cr9  1  0.32875391  0.99144816  0.99326248  1
  Cr  Cr10  1  0.49427823  0.16186720  0.16180554  1
  Cr  Cr11  1  0.32935585  0.99137044  0.32445852  1
  Cr  Cr12  1  0.32518513  0.32958116  0.99342942  1
  Cr  Cr13  1  0.49642990  0.49373378  0.16113935  1
  Cr  Cr14  1  0.32567445  0.33062745  0.32915519  1
  Cr  Cr15  1  0.32720815  0.66157899  -0.00369057  1
  Ni  Ni16  1  0.49495196  0.82526574  0.16164523  1
  Cr  Cr17  1  0.32695068  0.66063858  0.32327882  1
  Cr  Cr18  1  0.65927859  0.99248269  0.99393501  1
  Cr  Cr19  1  0.82781470  0.16282510  0.15934983  1
  Fe  Fe20  1  0.66029234  0.99162243  0.32670220  1
  Fe  Fe21  1  0.66167091  0.32847713  -0.00494345  1
  Fe  Fe22  1  0.82686877  0.49333028  0.16112605  1
  Cr  Cr23  1  0.66337366  0.32758873  0.33029481  1
  Cr  Cr24  1  0.65960485  0.66193628  -0.00517125  1
  Cr  Cr25  1  0.82769897  0.82567784  0.16272451  1
  Fe  Fe26  1  0.66121228  0.66094456  0.32713762  1
  Cr  Cr27  1  0.16154961  0.15927469  0.49465226  1
  Cr  Cr28  1  0.99263271  -0.00462755  0.66058163  1
  Fe  Fe29  1  0.16029695  0.16254334  0.82707358  1
  Fe  Fe30  1  0.15906279  0.49698468  0.49495525  1
  Cr  Cr31  1  0.99382087  0.32978706  0.65858228  1
  Fe  Fe32  1  0.15978929  0.49405690  0.82697899  1
  Cr  Cr33  1  0.16022752  0.82650387  0.49523724  1
  Fe  Fe34  1  0.99374313  0.65744540  0.65947275  1
  Cr  Cr35  1  0.16082798  0.82737699  0.82430896  1
  Cr  Cr36  1  0.49290121  0.16065013  0.49134010  1
  Fe  Fe37  1  0.32798746  0.99401267  0.66184709  1
  Cr  Cr38  1  0.49177609  0.16263322  0.82847928  1
  Cr  Cr39  1  0.49541603  0.49591512  0.49456564  1
  Cr  Cr40  1  0.32544796  0.32964516  0.65953011  1
  Cr  Cr41  1  0.49450856  0.49517429  0.82627717  1
  Cr  Cr42  1  0.49394309  0.82558533  0.49511029  1
  Fe  Fe43  1  0.32692096  0.66124256  0.66138296  1
  Fe  Fe44  1  0.49385634  0.82624724  0.82604586  1
  Fe  Fe45  1  0.82664708  0.16151677  0.49384847  1
  Cr  Cr46  1  0.65996103  0.99319231  0.66102285  1
  Cr  Cr47  1  0.82916564  0.16263497  0.83126539  1
  Ni  Ni48  1  0.82822895  0.49661617  0.49429493  1
  Cr  Cr49  1  0.66273819  0.32732647  0.65887980  1
  Cr  Cr50  1  0.82729432  0.49487179  0.83009593  1
  Cr  Cr51  1  0.82796798  0.82399210  0.49431563  1
  Fe  Fe52  1  0.66205195  0.65916606  0.66031730  1
  Cr  Cr53  1  0.82906866  0.82432250  0.82489625  1
" 