501,Ni3Fe90Cr6_1,-222.890758268228, 127.367107991911,Ni3Fe90Cr6,"# generated using pymatgen
 data_Cr5Fe48Ni
_symmetry_space_group_name_H-M   'P 1'
_cell_length_a   7.45456590
_cell_length_b   7.45456590
_cell_length_c   10.54234820
_cell_angle_alpha   90.00000000
_cell_angle_beta   90.00000000
_cell_angle_gamma   90.00000000
_symmetry_Int_Tables_number   1
_chemical_formula_structural   Cr5Fe48Ni
_chemical_formula_sum   'Cr5 Fe48 Ni1'
_cell_volume   585.84411759
_cell_formula_units_Z   1
loop_
 _symmetry_equiv_pos_site_id
 _symmetry_equiv_pos_as_xyz
  1  'x, y, z'
loop_
 _atom_site_type_symbol
 _atom_site_label
 _atom_site_symmetry_multiplicity
 _atom_site_fract_x
 _atom_site_fract_y
 _atom_site_fract_z
 _atom_site_occupancy
  Fe  Fe0  1  0.00092315  1.00083623  0.00087283  1
  Fe  Fe1  1  0.16752560  0.16598106  0.16747701  1
  Fe  Fe2  1  0.00086278  1.00081137  0.33417046  1
  Fe  Fe3  1  0.99969361  0.33378686  0.99964534  1
  Cr  Cr4  1  0.16651671  0.50041462  0.16709199  1
  Fe  Fe5  1  1.00007421  0.33341068  0.33493295  1
  Fe  Fe6  1  0.99969409  0.66788719  0.99964585  1
  Fe  Fe7  1  0.16754827  0.83568923  0.16750135  1
  Fe  Fe8  1  1.00007498  0.66828844  0.33495457  1
  Fe  Fe9  1  0.33262243  0.00083790  0.00238100  1
  Fe  Fe10  1  0.50060415  0.16771586  0.16724513  1
  Fe  Fe11  1  0.33338749  0.00159742  0.33338644  1
  Fe  Fe12  1  0.33341500  0.33334234  0.00165574  1
  Fe  Fe13  1  0.50229299  0.50086042  0.16730772  1
  Fe  Fe14  1  0.33495805  0.33341124  0.33495352  1
  Fe  Fe15  1  0.33340993  0.66833046  0.00166083  1
  Fe  Fe16  1  0.50060464  0.83393554  0.16745435  1
  Fe  Fe17  1  0.33417276  0.66750328  0.33417000  1
  Fe  Fe18  1  0.66896550  0.00083776  0.00242196  1
  Fe  Fe19  1  0.83438237  0.16767644  0.16753856  1
  Fe  Fe20  1  0.66826196  0.00159767  0.33340852  1
  Fe  Fe21  1  0.66940837  0.33457722  0.00199240  1
  Fe  Fe22  1  0.83262166  0.50083773  0.16684775  1
  Fe  Fe23  1  0.66747716  0.33419784  0.33417042  1
  Fe  Fe24  1  0.66941279  0.66709621  0.00199612  1
  Fe  Fe25  1  0.83435930  0.83399755  0.16756297  1
  Fe  Fe26  1  0.66826242  0.66671741  0.33338737  1
  Fe  Fe27  1  0.16776025  0.16729363  0.50083966  1
  Fe  Fe28  1  0.00089873  1.00081130  0.66746834  1
  Fe  Fe29  1  0.16579002  0.16815440  0.83419509  1
  Fe  Fe30  1  0.16782304  0.50107133  0.50056706  1
  Fe  Fe31  1  1.00045575  0.33455338  0.66793501  1
  Fe  Fe32  1  0.16566386  0.50083722  0.83440466  1
  Fe  Fe33  1  0.16600260  0.83414619  0.50083941  1
  Fe  Fe34  1  1.00045523  0.66714646  0.66791260  1
  Fe  Fe35  1  0.16581258  0.83351992  0.83417092  1
  Fe  Fe36  1  0.50083800  0.16903199  0.50112068  1
  Fe  Fe37  1  0.33187461  0.00159935  0.66674361  1
  Cr  Cr38  1  0.50091253  0.16618498  0.83318896  1
  Fe  Fe39  1  0.50075226  0.49931609  0.50103360  1
  Fe  Fe40  1  0.33267368  0.33411126  0.66589636  1
  Cr  Cr41  1  0.50117925  0.50139056  0.83417060  1
  Cr  Cr42  1  0.50105457  0.83479847  0.50188861  1
  Fe  Fe43  1  0.33188296  0.66680198  0.66668286  1
  Cr  Cr44  1  0.50091259  0.83493616  0.83403087  1
  Fe  Fe45  1  0.83391322  0.16720750  0.50080193  1
  Fe  Fe46  1  0.66973783  0.00159975  0.66668074  1
  Fe  Fe47  1  0.83525507  0.16826882  0.83417119  1
  Fe  Fe48  1  0.83393668  0.50107173  0.50146839  1
  Fe  Fe49  1  0.66938851  0.33455908  0.66634658  1
  Ni  Ni50  1  0.83761845  0.50062919  0.83473665  1
  Fe  Fe51  1  0.83567266  0.83423203  0.50080160  1
  Fe  Fe52  1  0.67017830  0.66635538  0.66713194  1
  Fe  Fe53  1  0.83523240  0.83340389  0.83414696  1
" 