6949,Ni3Fe48Cr47_6,-217.074978770161, 182.964922411554,Ni3Fe48Cr47,"# generated using pymatgen
 data_Cr27Fe25Ni2
_symmetry_space_group_name_H-M   'P 1'
_cell_length_a   7.51580954
_cell_length_b   7.51580954
_cell_length_c   10.62895978
_cell_angle_alpha   90.00000000
_cell_angle_beta   90.00000000
_cell_angle_gamma   90.00000000
_symmetry_Int_Tables_number   1
_chemical_formula_structural   Cr27Fe25Ni2
_chemical_formula_sum   'Cr27 Fe25 Ni2'
_cell_volume   600.40222857
_cell_formula_units_Z   1
loop_
 _symmetry_equiv_pos_site_id
 _symmetry_equiv_pos_as_xyz
  1  'x, y, z'
loop_
 _atom_site_type_symbol
 _atom_site_label
 _atom_site_symmetry_multiplicity
 _atom_site_fract_x
 _atom_site_fract_y
 _atom_site_fract_z
 _atom_site_occupancy
  Fe  Fe0  1  0.99630538  -0.00189886  -0.00285161  1
  Fe  Fe1  1  0.16118922  0.16277740  0.16300953  1
  Fe  Fe2  1  -0.00191669  -0.00239531  0.33085857  1
  Cr  Cr3  1  -0.00229033  0.33208280  0.99645954  1
  Fe  Fe4  1  0.16420479  0.49854154  0.16359463  1
  Cr  Cr5  1  -0.00173371  0.33015477  0.33090382  1
  Fe  Fe6  1  0.99611258  0.66360495  0.99635232  1
  Cr  Cr7  1  0.16446067  0.83064819  0.16117928  1
  Fe  Fe8  1  -0.00185014  0.66322965  0.33040869  1
  Fe  Fe9  1  0.32979395  -0.00238545  -0.00294380  1
  Cr  Cr10  1  0.49844165  0.16543149  0.16118190  1
  Cr  Cr11  1  0.33157677  -0.00300799  0.32800893  1
  Cr  Cr12  1  0.32884871  0.32933913  -0.00290802  1
  Fe  Fe13  1  0.49488102  0.49924744  0.16325932  1
  Cr  Cr14  1  0.32783835  0.33096148  0.33167232  1
  Fe  Fe15  1  0.33137955  0.66225037  -0.00116558  1
  Fe  Fe16  1  0.49682176  0.82735473  0.16392308  1
  Ni  Ni17  1  0.32859256  0.66330790  0.32815807  1
  Cr  Cr18  1  0.66206949  0.99451645  -0.00297317  1
  Fe  Fe19  1  0.83223460  0.16217363  0.16191381  1
  Cr  Cr20  1  0.66456139  0.99423690  0.33117543  1
  Ni  Ni21  1  0.66355537  0.33033546  0.99646607  1
  Cr  Cr22  1  0.82860645  0.49445847  0.16211665  1
  Cr  Cr23  1  0.66390799  0.32781533  0.32767614  1
  Cr  Cr24  1  0.66486431  0.66460303  0.99675012  1
  Cr  Cr25  1  0.83385352  0.83059814  0.16606715  1
  Fe  Fe26  1  0.66142383  0.66259112  0.32874596  1
  Fe  Fe27  1  0.16210173  0.16182580  0.49644928  1
  Fe  Fe28  1  0.99550182  -0.00206358  0.66330855  1
  Fe  Fe29  1  0.16392457  0.16268212  0.83078019  1
  Fe  Fe30  1  0.16357083  0.50019490  0.49622999  1
  Cr  Cr31  1  -0.00137799  0.33120183  0.66274241  1
  Cr  Cr32  1  0.16464605  0.49927112  0.82949848  1
  Cr  Cr33  1  0.16247006  0.83062997  0.49637640  1
  Cr  Cr34  1  0.99394770  0.66448042  0.66511945  1
  Cr  Cr35  1  0.16258344  0.83206574  0.83298442  1
  Fe  Fe36  1  0.49831076  0.16256131  0.49655488  1
  Cr  Cr37  1  0.33177634  -0.00139989  0.66440184  1
  Fe  Fe38  1  0.49589019  0.16327501  0.83193409  1
  Cr  Cr39  1  0.49675380  0.49687566  0.49595885  1
  Cr  Cr40  1  0.32833014  0.32853868  0.66069140  1
  Cr  Cr41  1  0.49805143  0.49526039  0.82970784  1
  Cr  Cr42  1  0.49565117  0.82821234  0.49658262  1
  Fe  Fe43  1  0.32927410  0.66289929  0.66237952  1
  Cr  Cr44  1  0.49404415  0.82952735  0.82936738  1
  Fe  Fe45  1  0.83072828  0.16045899  0.49764679  1
  Fe  Fe46  1  0.66617772  0.99554506  0.66294834  1
  Cr  Cr47  1  0.82984981  0.16432016  0.83207731  1
  Cr  Cr48  1  0.82855607  0.49601947  0.49657008  1
  Cr  Cr49  1  0.66330304  0.32842578  0.66523674  1
  Fe  Fe50  1  0.82973102  0.49805623  0.83136292  1
  Fe  Fe51  1  0.83005010  0.83009981  0.49676898  1
  Fe  Fe52  1  0.66340763  0.66509945  0.66413330  1
  Fe  Fe53  1  0.82983932  0.83019011  0.82997511  1
" 