218,Ni3Fe48Cr47_8,-217.655654392217, 179.296566505506,Ni3Fe48Cr47,"# generated using pymatgen
 data_Cr27Fe25Ni2
_symmetry_space_group_name_H-M   'P 1'
_cell_length_a   7.53063051
_cell_length_b   7.53063051
_cell_length_c   10.64991980
_cell_angle_alpha   90.00000000
_cell_angle_beta   90.00000000
_cell_angle_gamma   90.00000000
_symmetry_Int_Tables_number   1
_chemical_formula_structural   Cr27Fe25Ni2
_chemical_formula_sum   'Cr27 Fe25 Ni2'
_cell_volume   603.96116854
_cell_formula_units_Z   1
loop_
 _symmetry_equiv_pos_site_id
 _symmetry_equiv_pos_as_xyz
  1  'x, y, z'
loop_
 _atom_site_type_symbol
 _atom_site_label
 _atom_site_symmetry_multiplicity
 _atom_site_fract_x
 _atom_site_fract_y
 _atom_site_fract_z
 _atom_site_occupancy
  Fe  Fe0  1  0.99554512  -0.00202436  0.99363446  1
  Fe  Fe1  1  0.16131884  0.16407200  0.16310349  1
  Cr  Cr2  1  -0.00272180  0.99392595  0.32833145  1
  Fe  Fe3  1  -0.00348009  0.32808758  0.99477034  1
  Cr  Cr4  1  0.16232189  0.49627952  0.16691188  1
  Fe  Fe5  1  -0.00374662  0.32681829  0.33054798  1
  Cr  Cr6  1  0.99294153  0.66210534  0.99366817  1
  Cr  Cr7  1  0.16370886  0.82778831  0.15911851  1
  Fe  Fe8  1  -0.00305032  0.66322534  0.33169563  1
  Cr  Cr9  1  0.32753100  -0.00191673  -0.00247072  1
  Cr  Cr10  1  0.49720573  0.16329616  0.16607939  1
  Cr  Cr11  1  0.32824912  -0.00353054  0.33021248  1
  Cr  Cr12  1  0.32894700  0.32858531  -0.00354925  1
  Cr  Cr13  1  0.49519359  0.49833498  0.16177078  1
  Fe  Fe14  1  0.32924677  0.32902558  0.33096146  1
  Fe  Fe15  1  0.32965600  0.66164695  0.99478462  1
  Fe  Fe16  1  0.49567341  0.82742548  0.16279728  1
  Fe  Fe17  1  0.32961082  0.66391967  0.33146286  1
  Cr  Cr18  1  0.66308000  0.99562399  -0.00255161  1
  Cr  Cr19  1  0.83062712  0.16377610  0.16195224  1
  Cr  Cr20  1  0.66177689  0.99495960  0.33116162  1
  Cr  Cr21  1  0.66287356  0.33167385  0.99361289  1
  Cr  Cr22  1  0.82947225  0.49484039  0.16555272  1
  Ni  Ni23  1  0.66102048  0.33126550  0.33020491  1
  Fe  Fe24  1  0.66176187  0.66247394  0.99467254  1
  Cr  Cr25  1  0.82898963  0.82838504  0.16367175  1
  Fe  Fe26  1  0.66118543  0.66253518  0.33036599  1
  Fe  Fe27  1  0.16054776  0.16347395  0.49502297  1
  Cr  Cr28  1  -0.00414432  0.99384713  0.66383174  1
  Fe  Fe29  1  0.16151678  0.16229973  0.82910429  1
  Fe  Fe30  1  0.16217562  0.49582441  0.49345485  1
  Fe  Fe31  1  0.99574960  0.32879114  0.66298090  1
  Cr  Cr32  1  0.16242871  0.49684535  0.82769967  1
  Ni  Ni33  1  0.16322983  0.82799748  0.49564420  1
  Cr  Cr34  1  0.99485623  0.66256209  0.65945929  1
  Fe  Fe35  1  0.16167827  0.83084928  0.82938873  1
  Fe  Fe36  1  0.49593299  0.16281740  0.49499006  1
  Cr  Cr37  1  0.32789666  -0.00344642  0.65851405  1
  Cr  Cr38  1  0.49820785  0.16178540  0.82432644  1
  Cr  Cr39  1  0.49543195  0.49501059  0.49628686  1
  Cr  Cr40  1  0.32923349  0.32845538  0.66021599  1
  Fe  Fe41  1  0.49624847  0.49577164  0.82889378  1
  Fe  Fe42  1  0.49612162  0.82818763  0.49636826  1
  Cr  Cr43  1  0.32786989  0.66249687  0.66268744  1
  Cr  Cr44  1  0.49361571  0.82901484  0.83060021  1
  Cr  Cr45  1  0.82717113  0.16202003  0.49783964  1
  Fe  Fe46  1  0.66276247  0.99389456  0.66150346  1
  Fe  Fe47  1  0.83111333  0.16303908  0.82842147  1
  Cr  Cr48  1  0.83056644  0.49388993  0.49318119  1
  Fe  Fe49  1  0.66467288  0.32940946  0.66234712  1
  Fe  Fe50  1  0.82879279  0.49434031  0.82801103  1
  Fe  Fe51  1  0.82974173  0.82840670  0.49487499  1
  Cr  Cr52  1  0.66483367  0.66154861  0.66416590  1
  Fe  Fe53  1  0.82884294  0.83030160  0.82974417  1
" 