5983,Ni3Fe10Cr85_5,-204.820811465826, 201.568113568333,Ni3Fe10Cr85,"# generated using pymatgen
 data_Cr47Fe5Ni2
_symmetry_space_group_name_H-M   'P 1'
_cell_length_a   7.58742644
_cell_length_b   7.58742644
_cell_length_c   10.73024138
_cell_angle_alpha   90.00000000
_cell_angle_beta   90.00000000
_cell_angle_gamma   90.00000000
_symmetry_Int_Tables_number   1
_chemical_formula_structural   Cr47Fe5Ni2
_chemical_formula_sum   'Cr47 Fe5 Ni2'
_cell_volume   617.72969523
_cell_formula_units_Z   1
loop_
 _symmetry_equiv_pos_site_id
 _symmetry_equiv_pos_as_xyz
  1  'x, y, z'
loop_
 _atom_site_type_symbol
 _atom_site_label
 _atom_site_symmetry_multiplicity
 _atom_site_fract_x
 _atom_site_fract_y
 _atom_site_fract_z
 _atom_site_occupancy
  Cr  Cr0  1  0.98968645  -0.00777671  0.98976587  1
  Cr  Cr1  1  0.15718745  0.15883559  0.15957215  1
  Cr  Cr2  1  0.99093730  -0.00692654  0.32483040  1
  Cr  Cr3  1  0.99111663  0.32504288  0.99205011  1
  Cr  Cr4  1  0.15718925  0.49174729  0.15819697  1
  Ni  Ni5  1  0.99069120  0.32694190  0.32620627  1
  Cr  Cr6  1  0.99065395  0.65906386  0.99128150  1
  Cr  Cr7  1  0.15766064  0.82560746  0.15992814  1
  Cr  Cr8  1  0.99120900  0.65592371  0.32727304  1
  Cr  Cr9  1  0.32655616  0.99195602  -0.00767890  1
  Cr  Cr10  1  0.49287039  0.15889146  0.15991317  1
  Cr  Cr11  1  0.32660441  0.99197840  0.32552994  1
  Cr  Cr12  1  0.32546943  0.32541857  -0.00706343  1
  Cr  Cr13  1  0.49413702  0.49293052  0.15642640  1
  Cr  Cr14  1  0.32464918  0.32635182  0.32393450  1
  Cr  Cr15  1  0.32640306  0.65890325  0.99153630  1
  Cr  Cr16  1  0.49363755  0.82435938  0.15789066  1
  Cr  Cr17  1  0.32574862  0.65791117  0.32585731  1
  Cr  Cr18  1  0.65975834  0.99105252  0.99006824  1
  Cr  Cr19  1  0.82616129  0.15929271  0.15926701  1
  Cr  Cr20  1  0.65864068  -0.00787582  0.32502518  1
  Cr  Cr21  1  0.65953499  0.32434944  0.99187753  1
  Cr  Cr22  1  0.82510766  0.49233142  0.15997743  1
  Cr  Cr23  1  0.66052855  0.32610141  0.32684399  1
  Fe  Fe24  1  0.65934355  0.65952513  0.99067262  1
  Cr  Cr25  1  0.82492350  0.82430856  0.15752653  1
  Cr  Cr26  1  0.65921766  0.65797385  0.32551377  1
  Cr  Cr27  1  0.15751964  0.15875215  0.49129451  1
  Cr  Cr28  1  0.98988578  0.99176632  0.66130340  1
  Cr  Cr29  1  0.15798357  0.15849112  0.82542811  1
  Cr  Cr30  1  0.15693647  0.49117747  0.49234911  1
  Cr  Cr31  1  0.98941996  0.32593382  0.65893938  1
  Cr  Cr32  1  0.15852217  0.49231531  0.82576114  1
  Cr  Cr33  1  0.15788591  0.82619080  0.49197643  1
  Cr  Cr34  1  0.99102693  0.65836352  0.65737230  1
  Cr  Cr35  1  0.15794643  0.82535312  0.82435284  1
  Cr  Cr36  1  0.49355514  0.15981758  0.49309361  1
  Cr  Cr37  1  0.32625417  0.99126375  0.65827593  1
  Cr  Cr38  1  0.49387171  0.15976302  0.82343976  1
  Cr  Cr39  1  0.49503450  0.49080739  0.49411472  1
  Cr  Cr40  1  0.32655272  0.32602222  0.65933699  1
  Cr  Cr41  1  0.49423842  0.49251984  0.82583258  1
  Cr  Cr42  1  0.49274689  0.82555731  0.49217067  1
  Cr  Cr43  1  0.32546805  0.65892212  0.65868745  1
  Fe  Fe44  1  0.49330032  0.82455506  0.82574351  1
  Cr  Cr45  1  0.82511919  0.16058405  0.49279409  1
  Cr  Cr46  1  0.65990404  -0.00709467  0.66059118  1
  Fe  Fe47  1  0.82417956  0.16022076  0.82442831  1
  Fe  Fe48  1  0.82510665  0.48992289  0.49244263  1
  Ni  Ni49  1  0.66131420  0.32564722  0.65886481  1
  Cr  Cr50  1  0.82343967  0.49245299  0.82480813  1
  Cr  Cr51  1  0.82556716  0.82478994  0.49151926  1
  Cr  Cr52  1  0.65969579  0.65846752  0.65889953  1
  Fe  Fe53  1  0.82353071  0.82484779  0.82558657  1
" 