609,Ni3Fe65Cr31_4,-220.407651131139, 159.367542050111,Ni3Fe65Cr31,"# generated using pymatgen
 data_Cr18Fe35Ni
_symmetry_space_group_name_H-M   'P 1'
_cell_length_a   7.50066057
_cell_length_b   7.50066057
_cell_length_c   10.60753591
_cell_angle_alpha   90.00000000
_cell_angle_beta   90.00000000
_cell_angle_gamma   90.00000000
_symmetry_Int_Tables_number   1
_chemical_formula_structural   Cr18Fe35Ni
_chemical_formula_sum   'Cr18 Fe35 Ni1'
_cell_volume   596.77900542
_cell_formula_units_Z   1
loop_
 _symmetry_equiv_pos_site_id
 _symmetry_equiv_pos_as_xyz
  1  'x, y, z'
loop_
 _atom_site_type_symbol
 _atom_site_label
 _atom_site_symmetry_multiplicity
 _atom_site_fract_x
 _atom_site_fract_y
 _atom_site_fract_z
 _atom_site_occupancy
  Cr  Cr0  1  -0.00217035  0.00094666  0.00184089  1
  Fe  Fe1  1  0.16311544  0.16495439  0.16660317  1
  Fe  Fe2  1  0.99745711  -0.00089940  0.33084542  1
  Fe  Fe3  1  -0.00039164  0.33033109  0.99608154  1
  Cr  Cr4  1  0.16805784  0.49456753  0.16348470  1
  Fe  Fe5  1  -0.00176773  0.33067250  0.33269762  1
  Cr  Cr6  1  0.99711564  0.66250973  0.99490069  1
  Fe  Fe7  1  0.16496914  0.83066695  0.16627264  1
  Cr  Cr8  1  -0.00155916  0.66416367  0.33494999  1
  Cr  Cr9  1  0.33062906  0.99717556  0.99657693  1
  Cr  Cr10  1  0.49628503  0.16589160  0.16537806  1
  Cr  Cr11  1  0.32876822  0.99567035  0.33421105  1
  Fe  Fe12  1  0.33075732  0.33059419  0.99557767  1
  Fe  Fe13  1  0.49956271  0.49883401  0.16656636  1
  Fe  Fe14  1  0.33122652  0.33251235  0.33344048  1
  Cr  Cr15  1  0.33374804  0.66461217  0.00041177  1
  Fe  Fe16  1  0.49782743  0.82970838  0.16656922  1
  Fe  Fe17  1  0.33318537  0.66226182  0.33269343  1
  Fe  Fe18  1  0.66349462  0.99766588  0.99703923  1
  Fe  Fe19  1  0.83143745  0.16652977  0.16759433  1
  Fe  Fe20  1  0.66324693  0.99719173  0.33123708  1
  Cr  Cr21  1  0.66690934  0.33290048  0.99748850  1
  Cr  Cr22  1  0.83205235  0.49882956  0.16527065  1
  Fe  Fe23  1  0.66406759  0.33378955  0.33217517  1
  Fe  Fe24  1  0.66331589  0.66559240  0.99677837  1
  Cr  Cr25  1  0.82844645  0.83281257  0.16487765  1
  Fe  Fe26  1  0.66248556  0.66304234  0.33342512  1
  Fe  Fe27  1  0.16386671  0.16847001  0.49699512  1
  Cr  Cr28  1  -0.00038729  -0.00033115  0.66186802  1
  Fe  Fe29  1  0.16388729  0.16715838  0.83021491  1
  Fe  Fe30  1  0.16306317  0.49506321  0.49772573  1
  Fe  Fe31  1  -0.00188060  0.33301474  0.66378234  1
  Fe  Fe32  1  0.16549702  0.49481650  0.83005783  1
  Fe  Fe33  1  0.16366937  0.82959904  0.49769290  1
  Fe  Fe34  1  0.99714689  0.66038495  0.66321239  1
  Cr  Cr35  1  0.16331113  0.82921806  0.82963257  1
  Fe  Fe36  1  0.49823670  0.16726605  0.49716452  1
  Cr  Cr37  1  0.33254826  -0.00099168  0.66280063  1
  Fe  Fe38  1  0.49911040  0.16534654  0.83028145  1
  Fe  Fe39  1  0.50052332  0.49616127  0.49715308  1
  Fe  Fe40  1  0.33124246  0.33111407  0.66400046  1
  Fe  Fe41  1  0.49780628  0.49826732  0.83000544  1
  Fe  Fe42  1  0.50011003  0.82991652  0.49695469  1
  Cr  Cr43  1  0.33104771  0.66410481  0.66074720  1
  Fe  Fe44  1  0.49861961  0.83020413  0.82989267  1
  Cr  Cr45  1  0.82867355  0.16495275  0.49518433  1
  Fe  Fe46  1  0.66229018  -0.00051816  0.66455600  1
  Fe  Fe47  1  0.83156426  0.16550831  0.82964405  1
  Ni  Ni48  1  0.83056126  0.49687878  0.50004195  1
  Fe  Fe49  1  0.66352171  0.33145653  0.66469093  1
  Fe  Fe50  1  0.83120520  0.49612950  0.82768243  1
  Cr  Cr51  1  0.82984293  0.82967902  0.49993576  1
  Fe  Fe52  1  0.66358334  0.66169926  0.66381964  1
  Cr  Cr53  1  0.82807092  0.83090739  0.82827919  1
" 