2389,Ni3Fe90Cr6_9,-222.889584096744, 130.2792822111,Ni3Fe90Cr6,"# generated using pymatgen
 data_Cr5Fe48Ni
_symmetry_space_group_name_H-M   'P 1'
_cell_length_a   7.44798386
_cell_length_b   7.44798386
_cell_length_c   10.53303979
_cell_angle_alpha   90.00000000
_cell_angle_beta   90.00000000
_cell_angle_gamma   90.00000000
_symmetry_Int_Tables_number   1
_chemical_formula_structural   Cr5Fe48Ni
_chemical_formula_sum   'Cr5 Fe48 Ni1'
_cell_volume   584.29366661
_cell_formula_units_Z   1
loop_
 _symmetry_equiv_pos_site_id
 _symmetry_equiv_pos_as_xyz
  1  'x, y, z'
loop_
 _atom_site_type_symbol
 _atom_site_label
 _atom_site_symmetry_multiplicity
 _atom_site_fract_x
 _atom_site_fract_y
 _atom_site_fract_z
 _atom_site_occupancy
  Fe  Fe0  1  0.00262399  0.99999958  0.00134092  1
  Fe  Fe1  1  0.16952889  0.16794537  0.16766167  1
  Fe  Fe2  1  0.00202037  1.00048919  0.33540241  1
  Fe  Fe3  1  0.00262674  0.33595826  1.00127381  1
  Fe  Fe4  1  0.16769142  0.50099848  0.16791894  1
  Fe  Fe5  1  0.00282766  0.33462863  0.33460286  1
  Fe  Fe6  1  1.00081657  0.66788336  0.00134221  1
  Fe  Fe7  1  0.16765149  0.83489527  0.16795701  1
  Fe  Fe8  1  0.00202987  0.66872242  0.33381189  1
  Fe  Fe9  1  0.33440929  1.00039120  0.00172323  1
  Fe  Fe10  1  0.49812046  0.16800843  0.16955264  1
  Fe  Fe11  1  0.33463700  0.00130510  0.33456258  1
  Fe  Fe12  1  0.33398154  0.33513963  0.00215009  1
  Fe  Fe13  1  0.50077452  0.50177391  0.16879686  1
  Fe  Fe14  1  0.33463562  0.33461334  0.33458686  1
  Fe  Fe15  1  0.33540963  0.66830566  1.00089583  1
  Fe  Fe16  1  0.50075031  0.83405554  0.16809386  1
  Fe  Fe17  1  0.33461399  0.66792094  0.33463539  1
  Cr  Cr18  1  0.66688930  0.99994389  0.99967396  1
  Cr  Cr19  1  0.83702007  0.16870159  0.16980420  1
  Fe  Fe20  1  0.66718447  1.00051470  0.33516815  1
  Cr  Cr21  1  0.66684177  0.33571357  0.99962998  1
  Fe  Fe22  1  0.83536986  0.50364230  0.16893906  1
  Fe  Fe23  1  0.66637862  0.33460138  0.33436863  1
  Fe  Fe24  1  0.66761429  0.66830597  1.00094388  1
  Fe  Fe25  1  0.83543382  0.83223413  0.16879402  1
  Fe  Fe26  1  0.66719528  0.66872431  0.33375990  1
  Fe  Fe27  1  0.16768887  0.16817934  0.50148787  1
  Fe  Fe28  1  1.00045458  1.00056778  0.66711082  1
  Cr  Cr29  1  0.16747066  0.16787560  0.83667523  1
  Fe  Fe30  1  0.16949347  0.50125586  0.50130708  1
  Fe  Fe31  1  1.00125207  0.33461635  0.66797286  1
  Fe  Fe32  1  0.16853409  0.50342032  0.83461346  1
  Fe  Fe33  1  0.16764793  0.83440425  0.50124308  1
  Fe  Fe34  1  0.00207582  0.66865527  0.66868018  1
  Fe  Fe35  1  0.16866725  0.83308483  0.83463895  1
  Fe  Fe36  1  0.50151586  0.16824459  0.50121740  1
  Fe  Fe37  1  0.33577137  1.00014577  0.66756226  1
  Fe  Fe38  1  0.50127359  0.16722107  0.83305536  1
  Fe  Fe39  1  0.49973371  0.50121482  0.50121750  1
  Fe  Fe40  1  0.33534818  0.33541195  0.66711227  1
  Fe  Fe41  1  0.50030515  0.50255438  0.83382049  1
  Fe  Fe42  1  0.50151604  0.83437986  0.50189335  1
  Fe  Fe43  1  0.33494615  0.66827912  0.66830775  1
  Ni  Ni44  1  0.50103847  0.83298563  0.83407222  1
  Fe  Fe45  1  0.83463468  0.16639663  0.50107459  1
  Fe  Fe46  1  0.66761302  1.00096899  0.66856597  1
  Fe  Fe47  1  0.83402306  0.16735718  0.83323597  1
  Cr  Cr48  1  0.83440575  0.50094139  0.50010700  1
  Fe  Fe49  1  0.66723756  0.33379121  0.66893791  1
  Fe  Fe50  1  0.83499868  0.50242818  0.83363951  1
  Fe  Fe51  1  0.83467553  0.83618394  0.50119145  1
  Fe  Fe52  1  0.66681942  0.66907460  0.66912926  1
  Fe  Fe53  1  0.83489098  0.83405371  0.83384816  1
" 