7424,Ni3Fe40Cr55_14,-214.809953273366, 179.830046455001,Ni3Fe40Cr55,"# generated using pymatgen
 data_Cr31Fe22Ni
_symmetry_space_group_name_H-M   'P 1'
_cell_length_a   7.54304223
_cell_length_b   7.54304223
_cell_length_c   10.66747262
_cell_angle_alpha   90.00000000
_cell_angle_beta   90.00000000
_cell_angle_gamma   90.00000000
_symmetry_Int_Tables_number   1
_chemical_formula_structural   Cr31Fe22Ni
_chemical_formula_sum   'Cr31 Fe22 Ni1'
_cell_volume   606.95237419
_cell_formula_units_Z   1
loop_
 _symmetry_equiv_pos_site_id
 _symmetry_equiv_pos_as_xyz
  1  'x, y, z'
loop_
 _atom_site_type_symbol
 _atom_site_label
 _atom_site_symmetry_multiplicity
 _atom_site_fract_x
 _atom_site_fract_y
 _atom_site_fract_z
 _atom_site_occupancy
  Fe  Fe0  1  -0.00478384  -0.00372369  0.99354551  1
  Fe  Fe1  1  0.16012624  0.16249952  0.15997502  1
  Cr  Cr2  1  0.99451429  -0.00459508  0.32508889  1
  Cr  Cr3  1  0.99491620  0.32625826  0.99402683  1
  Cr  Cr4  1  0.15950828  0.49320339  0.16333760  1
  Fe  Fe5  1  -0.00476978  0.32650523  0.32731591  1
  Cr  Cr6  1  0.99310816  0.66482099  -0.00484982  1
  Cr  Cr7  1  0.16074242  0.82823098  0.16050090  1
  Fe  Fe8  1  0.99451613  0.66221049  0.32796352  1
  Cr  Cr9  1  0.32588346  -0.00266065  0.99387483  1
  Cr  Cr10  1  0.49549974  0.16198765  0.15898543  1
  Cr  Cr11  1  0.32666188  -0.00314103  0.32912519  1
  Fe  Fe12  1  0.32803414  0.32642068  0.99249413  1
  Cr  Cr13  1  0.49541288  0.49395456  0.15763126  1
  Cr  Cr14  1  0.32707135  0.32765267  0.32779634  1
  Cr  Cr15  1  0.32733528  0.65988084  0.99366955  1
  Cr  Cr16  1  0.49577927  0.82904512  0.16286473  1
  Cr  Cr17  1  0.32744905  0.66013650  0.32986839  1
  Cr  Cr18  1  0.66587306  -0.00396492  -0.00310684  1
  Fe  Fe19  1  0.83046314  0.16201644  0.16094242  1
  Cr  Cr20  1  0.66376448  -0.00445219  0.32647876  1
  Fe  Fe21  1  0.66165040  0.32921200  0.99239630  1
  Cr  Cr22  1  0.82980003  0.49385639  0.16268599  1
  Cr  Cr23  1  0.66120777  0.32763692  0.32916772  1
  Fe  Fe24  1  0.66283985  0.66102991  0.99344466  1
  Fe  Fe25  1  0.82877613  0.82805360  0.16097103  1
  Cr  Cr26  1  0.66280916  0.66159159  0.32921839  1
  Fe  Fe27  1  0.15988899  0.16110990  0.49711996  1
  Fe  Fe28  1  -0.00305336  -0.00224923  0.66387290  1
  Ni  Ni29  1  0.15923936  0.15988289  0.82691054  1
  Cr  Cr30  1  0.15838614  0.49328571  0.49273835  1
  Fe  Fe31  1  -0.00442901  0.32576663  0.66400065  1
  Cr  Cr32  1  0.16066814  0.49365443  0.82918943  1
  Cr  Cr33  1  0.16281135  0.82908536  0.49873190  1
  Cr  Cr34  1  0.99478022  0.66268449  0.66392087  1
  Fe  Fe35  1  0.16067106  0.83166684  0.82728917  1
  Cr  Cr36  1  0.49444484  0.15925306  0.49542252  1
  Fe  Fe37  1  0.32553612  -0.00391357  0.66410417  1
  Fe  Fe38  1  0.49311099  0.16283217  0.82919587  1
  Fe  Fe39  1  0.49515609  0.49568571  0.49650603  1
  Cr  Cr40  1  0.32790264  0.32823038  0.66158963  1
  Fe  Fe41  1  0.49566161  0.49347636  0.82935332  1
  Cr  Cr42  1  0.49396205  0.82864930  0.49640702  1
  Fe  Fe43  1  0.32974597  0.66073024  0.66242701  1
  Cr  Cr44  1  0.49515442  0.82840464  0.82645786  1
  Cr  Cr45  1  0.83144453  0.16367335  0.49546101  1
  Cr  Cr46  1  0.66366115  -0.00423376  0.66094055  1
  Fe  Fe47  1  0.83044983  0.16132451  0.82803551  1
  Cr  Cr48  1  0.83100729  0.49319646  0.49518825  1
  Cr  Cr49  1  0.66165295  0.32960542  0.66364013  1
  Fe  Fe50  1  0.82685599  0.49451179  0.82876923  1
  Cr  Cr51  1  0.82831080  0.82813596  0.49456796  1
  Fe  Fe52  1  0.66086871  0.66011010  0.66250837  1
  Fe  Fe53  1  0.82990246  0.82975519  0.82821965  1
" 