1923,Ni3Fe40Cr55_1,-215.034873019778, 186.697756089609,Ni3Fe40Cr55,"# generated using pymatgen
 data_Cr31Fe22Ni
_symmetry_space_group_name_H-M   'P 1'
_cell_length_a   7.54241621
_cell_length_b   7.54241621
_cell_length_c   10.66658729
_cell_angle_alpha   90.00000000
_cell_angle_beta   90.00000000
_cell_angle_gamma   90.00000000
_symmetry_Int_Tables_number   1
_chemical_formula_structural   Cr31Fe22Ni
_chemical_formula_sum   'Cr31 Fe22 Ni1'
_cell_volume   606.80126869
_cell_formula_units_Z   1
loop_
 _symmetry_equiv_pos_site_id
 _symmetry_equiv_pos_as_xyz
  1  'x, y, z'
loop_
 _atom_site_type_symbol
 _atom_site_label
 _atom_site_symmetry_multiplicity
 _atom_site_fract_x
 _atom_site_fract_y
 _atom_site_fract_z
 _atom_site_occupancy
  Cr  Cr0  1  0.99492654  0.99343463  0.99236990  1
  Fe  Fe1  1  0.16214444  0.16064642  0.16139791  1
  Cr  Cr2  1  -0.00277093  0.99490280  0.32812145  1
  Cr  Cr3  1  -0.00421249  0.32684820  -0.00332136  1
  Cr  Cr4  1  0.16071166  0.49752437  0.15784382  1
  Cr  Cr5  1  0.99498499  0.32961486  0.32935377  1
  Fe  Fe6  1  0.99226399  0.66204954  0.99481154  1
  Cr  Cr7  1  0.16042762  0.82445093  0.16309488  1
  Fe  Fe8  1  0.99413780  0.66017353  0.32843220  1
  Cr  Cr9  1  0.32711376  -0.00447873  -0.00456183  1
  Cr  Cr10  1  0.49704491  0.16170412  0.16340609  1
  Fe  Fe11  1  0.32763120  -0.00464479  0.32811650  1
  Fe  Fe12  1  0.33243655  0.32972545  -0.00409914  1
  Fe  Fe13  1  0.49587913  0.49505817  0.15948739  1
  Cr  Cr14  1  0.32724441  0.32790753  0.32520600  1
  Fe  Fe15  1  0.33077471  0.66026908  0.99491370  1
  Cr  Cr16  1  0.49563552  0.82926725  0.16430262  1
  Cr  Cr17  1  0.32864626  0.66140052  0.33066815  1
  Cr  Cr18  1  0.66280043  0.99264580  0.99380844  1
  Cr  Cr19  1  0.82484892  0.16166533  0.16068188  1
  Fe  Fe20  1  0.66239998  0.99486182  0.32814061  1
  Ni  Ni21  1  0.65884738  0.33288823  0.99499418  1
  Fe  Fe22  1  0.82676320  0.49662234  0.15991192  1
  Cr  Cr23  1  0.66235925  0.33209771  0.32885353  1
  Cr  Cr24  1  0.66035827  0.66121668  0.99261167  1
  Fe  Fe25  1  0.82903670  0.82618225  0.16215824  1
  Cr  Cr26  1  0.66352459  0.66013238  0.32860641  1
  Cr  Cr27  1  0.16263672  0.16103394  0.49750029  1
  Fe  Fe28  1  -0.00397755  0.99414792  0.66171910  1
  Cr  Cr29  1  0.16164378  0.16341815  0.82699606  1
  Cr  Cr30  1  0.15979926  0.49771424  0.49659906  1
  Fe  Fe31  1  0.99472134  0.32856119  0.66156737  1
  Cr  Cr32  1  0.16402614  0.49662643  0.83040488  1
  Fe  Fe33  1  0.16243303  0.82979251  0.49585859  1
  Cr  Cr34  1  0.99369918  0.66265710  0.65890022  1
  Cr  Cr35  1  0.16239458  0.82488518  0.82720254  1
  Cr  Cr36  1  0.49647086  0.15979347  0.49286019  1
  Fe  Fe37  1  0.32754103  0.99352106  0.66228612  1
  Cr  Cr38  1  0.49669538  0.16365482  0.82865358  1
  Cr  Cr39  1  0.49526135  0.49491005  0.49880360  1
  Fe  Fe40  1  0.32909243  0.32896143  0.66222284  1
  Fe  Fe41  1  0.49458989  0.49483783  0.82760259  1
  Cr  Cr42  1  0.49318856  0.83027385  0.49427814  1
  Fe  Fe43  1  0.33054173  0.66274568  0.66238884  1
  Fe  Fe44  1  0.49425137  0.82555419  0.82720344  1
  Cr  Cr45  1  0.82625515  0.16316750  0.49855436  1
  Cr  Cr46  1  0.66137276  0.99154534  0.66452030  1
  Cr  Cr47  1  0.82702481  0.16261942  0.82636592  1
  Fe  Fe48  1  0.82743497  0.49475448  0.49684081  1
  Fe  Fe49  1  0.66113422  0.33086853  0.66234898  1
  Cr  Cr50  1  0.82860254  0.49413020  0.82682190  1
  Cr  Cr51  1  0.82833079  0.82799069  0.49244904  1
  Fe  Fe52  1  0.66032933  0.66118290  0.66285661  1
  Fe  Fe53  1  0.82874650  0.82668440  0.82708309  1
" 