6288,Ni3Fe10Cr85_1,-204.807582986404, 199.694632104526,Ni3Fe10Cr85,"# generated using pymatgen
 data_Cr47Fe5Ni2
_symmetry_space_group_name_H-M   'P 1'
_cell_length_a   7.59192164
_cell_length_b   7.59192164
_cell_length_c   10.73659854
_cell_angle_alpha   90.00000000
_cell_angle_beta   90.00000000
_cell_angle_gamma   90.00000000
_symmetry_Int_Tables_number   1
_chemical_formula_structural   Cr47Fe5Ni2
_chemical_formula_sum   'Cr47 Fe5 Ni2'
_cell_volume   618.82827365
_cell_formula_units_Z   1
loop_
 _symmetry_equiv_pos_site_id
 _symmetry_equiv_pos_as_xyz
  1  'x, y, z'
loop_
 _atom_site_type_symbol
 _atom_site_label
 _atom_site_symmetry_multiplicity
 _atom_site_fract_x
 _atom_site_fract_y
 _atom_site_fract_z
 _atom_site_occupancy
  Cr  Cr0  1  -0.00809674  -0.00802693  -0.00697692  1
  Cr  Cr1  1  0.15886592  0.16009415  0.16059379  1
  Cr  Cr2  1  0.99126711  -0.00815230  0.32518327  1
  Cr  Cr3  1  -0.00701539  0.32666450  -0.00812678  1
  Fe  Fe4  1  0.15907088  0.49016245  0.15982134  1
  Fe  Fe5  1  -0.00635904  0.32602755  0.32475348  1
  Cr  Cr6  1  -0.00650446  0.65671741  0.99160658  1
  Cr  Cr7  1  0.15887120  0.82560191  0.15809463  1
  Cr  Cr8  1  -0.00786796  0.65746053  0.32487497  1
  Cr  Cr9  1  0.32680976  -0.00785712  0.99050875  1
  Cr  Cr10  1  0.48985266  0.16039610  0.15846033  1
  Cr  Cr11  1  0.32551474  -0.00715157  0.32520451  1
  Cr  Cr12  1  0.32465047  0.32557685  0.99057956  1
  Cr  Cr13  1  0.49043968  0.49100805  0.16032833  1
  Ni  Ni14  1  0.32211934  0.32629683  0.32392464  1
  Cr  Cr15  1  0.32385154  0.65754348  0.99111175  1
  Cr  Cr16  1  0.49103421  0.82383475  0.15780204  1
  Cr  Cr17  1  0.32399801  0.65722331  0.32482201  1
  Cr  Cr18  1  0.65688185  -0.00717174  0.99112040  1
  Cr  Cr19  1  0.82675824  0.15951616  0.15839146  1
  Cr  Cr20  1  0.65857511  -0.00782327  0.32501181  1
  Cr  Cr21  1  0.65775221  0.32380455  0.99088908  1
  Cr  Cr22  1  0.82505723  0.49104007  0.15841661  1
  Cr  Cr23  1  0.65808908  0.32445634  0.32519334  1
  Cr  Cr24  1  0.65794380  0.65861130  -0.00728123  1
  Cr  Cr25  1  0.82546742  0.82475778  0.15748830  1
  Cr  Cr26  1  0.65915781  0.65869777  0.32519560  1
  Cr  Cr27  1  0.15901748  0.15946550  0.48966128  1
  Cr  Cr28  1  0.99091609  -0.00798540  0.65707918  1
  Cr  Cr29  1  0.15907813  0.15816201  0.82496430  1
  Cr  Cr30  1  0.15974477  0.48993068  0.49112573  1
  Cr  Cr31  1  -0.00757827  0.32616439  0.65875326  1
  Fe  Fe32  1  0.15827536  0.49167288  0.82509692  1
  Cr  Cr33  1  0.15888784  0.82602016  0.49226731  1
  Cr  Cr34  1  -0.00696731  0.65717471  0.65891195  1
  Cr  Cr35  1  0.15924579  0.82546892  0.82497483  1
  Cr  Cr36  1  0.49065151  0.15960399  0.49221729  1
  Cr  Cr37  1  0.32771674  -0.00786526  0.65940014  1
  Fe  Fe38  1  0.49282801  0.15657947  0.82409309  1
  Cr  Cr39  1  0.49102044  0.49093416  0.48989853  1
  Cr  Cr40  1  0.32509500  0.32512504  0.65997078  1
  Cr  Cr41  1  0.49161299  0.49225651  0.82496022  1
  Cr  Cr42  1  0.49190157  0.82472201  0.49292934  1
  Cr  Cr43  1  0.32429313  0.65804894  0.65946841  1
  Fe  Fe44  1  0.49316967  0.82647692  0.82414092  1
  Cr  Cr45  1  0.82578357  0.15855840  0.49242574  1
  Ni  Ni46  1  0.65656989  -0.00800584  0.66052074  1
  Cr  Cr47  1  0.82482751  0.15772622  0.82468968  1
  Cr  Cr48  1  0.82456736  0.49110531  0.49198874  1
  Cr  Cr49  1  0.65783795  0.32268554  0.65911203  1
  Cr  Cr50  1  0.82429200  0.49208810  0.82497751  1
  Cr  Cr51  1  0.82461934  0.82560999  0.49320347  1
  Cr  Cr52  1  0.65796673  0.65941548  0.65731309  1
  Cr  Cr53  1  0.82433854  0.82544877  0.82476040  1
" 