8661,Ni3Fe31Cr64_18,-212.507214774696, 191.289327865557,Ni3Fe31Cr64,"# generated using pymatgen
 data_Cr18Fe8Ni
_symmetry_space_group_name_H-M   'P 1'
_cell_length_a   7.55806278
_cell_length_b   7.55806278
_cell_length_c   10.68871489
_cell_angle_alpha   90.00000000
_cell_angle_beta   90.00000000
_cell_angle_gamma   90.00000000
_symmetry_Int_Tables_number   1
_chemical_formula_structural   Cr18Fe8Ni
_chemical_formula_sum   'Cr36 Fe16 Ni2'
_cell_volume   610.58549440
_cell_formula_units_Z   2
loop_
 _symmetry_equiv_pos_site_id
 _symmetry_equiv_pos_as_xyz
  1  'x, y, z'
loop_
 _atom_site_type_symbol
 _atom_site_label
 _atom_site_symmetry_multiplicity
 _atom_site_fract_x
 _atom_site_fract_y
 _atom_site_fract_z
 _atom_site_occupancy
  Fe  Fe0  1  -0.00599089  -0.00575669  0.99364837  1
  Fe  Fe1  1  0.16063546  0.15891146  0.16174336  1
  Fe  Fe2  1  0.99193628  -0.00559978  0.32784017  1
  Cr  Cr3  1  -0.00432208  0.32362167  -0.00508657  1
  Cr  Cr4  1  0.16043253  0.49534979  0.16199054  1
  Cr  Cr5  1  -0.00438847  0.32319827  0.32676678  1
  Cr  Cr6  1  -0.00569965  0.66079977  -0.00581505  1
  Cr  Cr7  1  0.15997900  0.82980050  0.16187429  1
  Cr  Cr8  1  0.99174100  0.66206798  0.32842174  1
  Cr  Cr9  1  0.32660455  -0.00423980  0.99221349  1
  Cr  Cr10  1  0.49619913  0.15976771  0.16242799  1
  Fe  Fe11  1  0.32547614  -0.00325818  0.32641653  1
  Cr  Cr12  1  0.32553595  0.32618116  0.99388568  1
  Cr  Cr13  1  0.49512462  0.49278791  0.15990942  1
  Fe  Fe14  1  0.32628742  0.32540739  0.32666799  1
  Cr  Cr15  1  0.32770097  0.66048040  0.99127819  1
  Cr  Cr16  1  0.49362084  0.82963495  0.16037102  1
  Cr  Cr17  1  0.32782278  0.66122794  0.32615088  1
  Fe  Fe18  1  0.66179639  -0.00474064  0.99337013  1
  Fe  Fe19  1  0.82831335  0.15858672  0.15945786  1
  Fe  Fe20  1  0.66414951  0.99321273  0.32802389  1
  Fe  Fe21  1  0.65994266  0.32611465  0.99364312  1
  Cr  Cr22  1  0.82633105  0.49250368  0.15917421  1
  Cr  Cr23  1  0.66225476  0.32458733  0.32709133  1
  Cr  Cr24  1  0.65999847  0.66342018  0.99018988  1
  Cr  Cr25  1  0.82816702  0.82976609  0.15900726  1
  Cr  Cr26  1  0.66216561  0.66357869  0.33110458  1
  Cr  Cr27  1  0.16125019  0.15851012  0.49722416  1
  Fe  Fe28  1  0.99362006  -0.00587346  0.66144066  1
  Fe  Fe29  1  0.15883515  0.16159788  0.82580859  1
  Cr  Cr30  1  0.16026211  0.49391504  0.49411294  1
  Fe  Fe31  1  -0.00525367  0.32661742  0.66301736  1
  Ni  Ni32  1  0.15973045  0.49385417  0.82685537  1
  Cr  Cr33  1  0.16017535  0.82904386  0.49308404  1
  Cr  Cr34  1  0.99306193  0.66216296  0.65905489  1
  Cr  Cr35  1  0.15956656  0.82871559  0.82678092  1
  Cr  Cr36  1  0.49283273  0.15924402  0.49216543  1
  Fe  Fe37  1  0.32712522  0.99309474  0.66250756  1
  Cr  Cr38  1  0.49504883  0.15927301  0.82671834  1
  Cr  Cr39  1  0.49309355  0.49208381  0.49298660  1
  Cr  Cr40  1  0.32471692  0.32554199  0.66238630  1
  Fe  Fe41  1  0.49328333  0.49266641  0.82730654  1
  Cr  Cr42  1  0.49148177  0.83052569  0.49299233  1
  Cr  Cr43  1  0.32815379  0.66046132  0.66386728  1
  Fe  Fe44  1  0.49482575  0.82816558  0.82700268  1
  Cr  Cr45  1  0.82782986  0.16024768  0.49580942  1
  Cr  Cr46  1  0.66129183  0.99196059  0.65961478  1
  Cr  Cr47  1  0.82721442  0.15945337  0.82857664  1
  Cr  Cr48  1  0.82866601  0.49343224  0.49575110  1
  Cr  Cr49  1  0.66000180  0.32641188  0.66018917  1
  Cr  Cr50  1  0.82805678  0.49249986  0.82705608  1
  Ni  Ni51  1  0.82894261  0.83227019  0.49459208  1
  Cr  Cr52  1  0.66090975  0.66335171  0.65933228  1
  Fe  Fe53  1  0.82832499  0.82822296  0.82686189  1
" 