5660,Ni3Fe48Cr47_18,-217.151662931126, 177.261757263726,Ni3Fe48Cr47,"# generated using pymatgen
 data_Cr27Fe25Ni2
_symmetry_space_group_name_H-M   'P 1'
_cell_length_a   7.52922502
_cell_length_b   7.52922502
_cell_length_c   10.64793214
_cell_angle_alpha   90.00000000
_cell_angle_beta   90.00000000
_cell_angle_gamma   90.00000000
_symmetry_Int_Tables_number   1
_chemical_formula_structural   Cr27Fe25Ni2
_chemical_formula_sum   'Cr27 Fe25 Ni2'
_cell_volume   603.62306833
_cell_formula_units_Z   1
loop_
 _symmetry_equiv_pos_site_id
 _symmetry_equiv_pos_as_xyz
  1  'x, y, z'
loop_
 _atom_site_type_symbol
 _atom_site_label
 _atom_site_symmetry_multiplicity
 _atom_site_fract_x
 _atom_site_fract_y
 _atom_site_fract_z
 _atom_site_occupancy
  Fe  Fe0  1  -0.00359784  -0.00279119  0.99527953  1
  Cr  Cr1  1  0.16101637  0.16069427  0.16425190  1
  Fe  Fe2  1  0.99580454  0.99551769  0.32848933  1
  Fe  Fe3  1  0.99519668  0.32667078  0.99498492  1
  Fe  Fe4  1  0.15968469  0.49642633  0.16188094  1
  Fe  Fe5  1  0.99503547  0.32876211  0.32807171  1
  Fe  Fe6  1  -0.00368942  0.66312367  0.99513332  1
  Fe  Fe7  1  0.16035126  0.82868488  0.16232135  1
  Fe  Fe8  1  0.99548219  0.66311932  0.32850432  1
  Cr  Cr9  1  0.33086181  -0.00400344  0.99554431  1
  Fe  Fe10  1  0.49800517  0.16215010  0.16055551  1
  Fe  Fe11  1  0.33024252  -0.00354078  0.32777133  1
  Cr  Cr12  1  0.32694802  0.33005767  0.99578341  1
  Cr  Cr13  1  0.49866605  0.49623177  0.16051901  1
  Cr  Cr14  1  0.32916121  0.32847712  0.32755959  1
  Cr  Cr15  1  0.32558333  0.66163550  0.99405154  1
  Cr  Cr16  1  0.49576895  0.83038875  0.16057985  1
  Cr  Cr17  1  0.32630708  0.66205586  0.32612648  1
  Ni  Ni18  1  0.66603852  -0.00120198  -0.00402385  1
  Fe  Fe19  1  0.82871717  0.16189775  0.16035051  1
  Cr  Cr20  1  0.66362709  -0.00240485  0.32927759  1
  Fe  Fe21  1  0.66196705  0.32553288  0.99534949  1
  Cr  Cr22  1  0.82934986  0.49455833  0.16066162  1
  Cr  Cr23  1  0.66240217  0.32541430  0.32936077  1
  Fe  Fe24  1  0.66098141  0.66454597  0.99431554  1
  Cr  Cr25  1  0.82949929  0.82881734  0.16114024  1
  Cr  Cr26  1  0.66348266  0.66457366  0.33235807  1
  Cr  Cr27  1  0.16513292  0.16093907  0.49737574  1
  Fe  Fe28  1  -0.00189727  -0.00371026  0.66483290  1
  Fe  Fe29  1  0.16255900  0.16166755  0.82900499  1
  Cr  Cr30  1  0.16255607  0.49344368  0.49435233  1
  Cr  Cr31  1  -0.00284166  0.32861717  0.66464809  1
  Fe  Fe32  1  0.16126415  0.49423177  0.82920057  1
  Cr  Cr33  1  0.16281538  0.83337277  0.49473882  1
  Cr  Cr34  1  -0.00338273  0.66390342  0.66080815  1
  Fe  Fe35  1  0.16176931  0.83111622  0.82937944  1
  Fe  Fe36  1  0.49422580  0.16317242  0.49782716  1
  Fe  Fe37  1  0.32920725  -0.00285034  0.66586014  1
  Fe  Fe38  1  0.49762428  0.16273263  0.82936448  1
  Cr  Cr39  1  0.49556354  0.49398777  0.49914356  1
  Ni  Ni40  1  0.32965468  0.32576972  0.66580134  1
  Fe  Fe41  1  0.49573725  0.49398545  0.82889989  1
  Cr  Cr42  1  0.49299133  0.83118392  0.49609704  1
  Cr  Cr43  1  0.32760049  0.66087972  0.66650481  1
  Fe  Fe44  1  0.49738542  0.83079607  0.83056422  1
  Cr  Cr45  1  0.83293018  0.16337284  0.49710080  1
  Cr  Cr46  1  0.66458047  -0.00232421  0.66111079  1
  Fe  Fe47  1  0.82877995  0.16187276  0.83077023  1
  Cr  Cr48  1  0.82866587  0.49556375  0.49551410  1
  Fe  Fe49  1  0.66051344  0.32850133  0.66435964  1
  Cr  Cr50  1  0.82610933  0.49470625  0.83110027  1
  Fe  Fe51  1  0.83197173  0.83148211  0.49517144  1
  Cr  Cr52  1  0.66316578  0.66536063  0.66106742  1
  Cr  Cr53  1  0.82945486  0.82986214  0.83023347  1
" 