8297,Ni3Fe65Cr31_15,-220.3731431413, 158.900286602831,Ni3Fe65Cr31,"# generated using pymatgen
 data_Cr18Fe35Ni
_symmetry_space_group_name_H-M   'P 1'
_cell_length_a   7.50050680
_cell_length_b   7.50050680
_cell_length_c   10.60731845
_cell_angle_alpha   90.00000000
_cell_angle_beta   90.00000000
_cell_angle_gamma   90.00000000
_symmetry_Int_Tables_number   1
_chemical_formula_structural   Cr18Fe35Ni
_chemical_formula_sum   'Cr18 Fe35 Ni1'
_cell_volume   596.74230268
_cell_formula_units_Z   1
loop_
 _symmetry_equiv_pos_site_id
 _symmetry_equiv_pos_as_xyz
  1  'x, y, z'
loop_
 _atom_site_type_symbol
 _atom_site_label
 _atom_site_symmetry_multiplicity
 _atom_site_fract_x
 _atom_site_fract_y
 _atom_site_fract_z
 _atom_site_occupancy
  Fe  Fe0  1  -0.00121955  -0.00091036  -0.00189281  1
  Fe  Fe1  1  0.16533712  0.16260634  0.16553372  1
  Fe  Fe2  1  -0.00132024  -0.00160177  0.32903906  1
  Fe  Fe3  1  -0.00145516  0.32940064  0.99554755  1
  Cr  Cr4  1  0.16693991  0.49367072  0.16352770  1
  Fe  Fe5  1  0.99727396  0.32966692  0.33037960  1
  Cr  Cr6  1  -0.00089833  0.66566881  0.00039015  1
  Ni  Ni7  1  0.16708102  0.83309738  0.16407875  1
  Cr  Cr8  1  0.99656451  0.66645814  0.32801960  1
  Cr  Cr9  1  0.33062978  0.00101669  0.99715545  1
  Fe  Fe10  1  0.49517793  0.16637697  0.16400030  1
  Fe  Fe11  1  0.33199579  -0.00117231  0.33003625  1
  Fe  Fe12  1  0.33263248  0.33254663  0.99516414  1
  Fe  Fe13  1  0.49621045  0.49606471  0.16419942  1
  Fe  Fe14  1  0.33217870  0.32940345  0.33074189  1
  Fe  Fe15  1  0.33160441  0.66485585  0.99745536  1
  Cr  Cr16  1  0.49997466  0.83227165  0.16364216  1
  Cr  Cr17  1  0.33006292  0.66535219  0.33230884  1
  Fe  Fe18  1  0.66403793  -0.00013346  0.99728789  1
  Cr  Cr19  1  0.83077762  0.16280227  0.16289154  1
  Fe  Fe20  1  0.66265745  -0.00210185  0.33078310  1
  Fe  Fe21  1  0.66259945  0.32862384  0.99675240  1
  Cr  Cr22  1  0.83061852  0.49562104  0.16497902  1
  Cr  Cr23  1  0.66182711  0.33043766  0.33246100  1
  Cr  Cr24  1  0.66626316  0.66156999  0.00129334  1
  Fe  Fe25  1  0.83303554  0.83377996  0.16482068  1
  Fe  Fe26  1  0.66234722  0.66450460  0.33048512  1
  Cr  Cr27  1  0.16317249  0.16462510  0.49394321  1
  Fe  Fe28  1  0.99670592  -0.00002258  0.66481939  1
  Fe  Fe29  1  0.16254628  0.16452857  0.83079726  1
  Cr  Cr30  1  0.16520589  0.49545682  0.49827093  1
  Fe  Fe31  1  -0.00219353  0.32844869  0.66666848  1
  Fe  Fe32  1  0.16550477  0.49706900  0.83175797  1
  Fe  Fe33  1  0.16297449  0.83187524  0.49677747  1
  Cr  Cr34  1  -0.00198368  0.66617876  0.66597476  1
  Fe  Fe35  1  0.16511192  0.83142338  0.83223598  1
  Fe  Fe36  1  0.50000434  0.16251570  0.49719600  1
  Cr  Cr37  1  0.33079440  0.99629072  0.66355637  1
  Fe  Fe38  1  0.50069538  0.16384119  0.83142024  1
  Fe  Fe39  1  0.49895539  0.49900974  0.49905834  1
  Cr  Cr40  1  0.33459733  0.32865950  0.66447954  1
  Fe  Fe41  1  0.49868049  0.49840882  0.83168812  1
  Fe  Fe42  1  0.49655655  0.83116738  0.49767750  1
  Fe  Fe43  1  0.33274989  0.66396411  0.66506199  1
  Fe  Fe44  1  0.49645443  0.83006510  0.83188645  1
  Fe  Fe45  1  0.83051199  0.16437857  0.49820465  1
  Fe  Fe46  1  0.66417737  0.00000210  0.66471615  1
  Fe  Fe47  1  0.83080974  0.16642654  0.83186438  1
  Cr  Cr48  1  0.83161303  0.49719413  0.49920673  1
  Fe  Fe49  1  0.66601333  0.32967550  0.66541594  1
  Fe  Fe50  1  0.83050143  0.49623314  0.83112592  1
  Cr  Cr51  1  0.82716542  0.83330314  0.49551828  1
  Fe  Fe52  1  0.66127722  0.66472879  0.66578862  1
  Cr  Cr53  1  0.82801841  0.83423116  0.83336317  1
" 