2969,Ni3Fe48Cr47_14,-217.698767944317, 182.516692062953,Ni3Fe48Cr47,"# generated using pymatgen
 data_Cr27Fe25Ni2
_symmetry_space_group_name_H-M   'P 1'
_cell_length_a   7.53388112
_cell_length_b   7.53388112
_cell_length_c   10.65451686
_cell_angle_alpha   90.00000000
_cell_angle_beta   90.00000000
_cell_angle_gamma   90.00000000
_symmetry_Int_Tables_number   1
_chemical_formula_structural   Cr27Fe25Ni2
_chemical_formula_sum   'Cr27 Fe25 Ni2'
_cell_volume   604.74360886
_cell_formula_units_Z   1
loop_
 _symmetry_equiv_pos_site_id
 _symmetry_equiv_pos_as_xyz
  1  'x, y, z'
loop_
 _atom_site_type_symbol
 _atom_site_label
 _atom_site_symmetry_multiplicity
 _atom_site_fract_x
 _atom_site_fract_y
 _atom_site_fract_z
 _atom_site_occupancy
  Fe  Fe0  1  0.99248777  0.99317305  -0.00407642  1
  Cr  Cr1  1  0.15947792  0.16198289  0.15933115  1
  Cr  Cr2  1  -0.00286589  0.99374940  0.33209572  1
  Cr  Cr3  1  0.99491572  0.33267170  0.99504372  1
  Cr  Cr4  1  0.16410815  0.49713480  0.16637152  1
  Cr  Cr5  1  0.99515122  0.32900166  0.32913501  1
  Cr  Cr6  1  0.99268907  0.66297360  -0.00098748  1
  Fe  Fe7  1  0.16197573  0.82955509  0.16311116  1
  Fe  Fe8  1  -0.00282635  0.66404679  0.32912252  1
  Cr  Cr9  1  0.32943597  -0.00216195  -0.00385714  1
  Fe  Fe10  1  0.49583362  0.16294724  0.16402760  1
  Cr  Cr11  1  0.32897646  -0.00171406  0.33227767  1
  Cr  Cr12  1  0.32958823  0.32709360  0.99405942  1
  Cr  Cr13  1  0.49488309  0.49659411  0.16683239  1
  Fe  Fe14  1  0.32837727  0.32652778  0.33142071  1
  Cr  Cr15  1  0.32837153  0.66096334  0.99365094  1
  Cr  Cr16  1  0.49695430  0.82976924  0.16167196  1
  Fe  Fe17  1  0.32811515  0.66669174  0.33078177  1
  Fe  Fe18  1  0.66372622  -0.00414316  0.99476075  1
  Cr  Cr19  1  0.82679993  0.15995117  0.16161471  1
  Fe  Fe20  1  0.66248767  -0.00380190  0.33211071  1
  Cr  Cr21  1  0.66124651  0.33096171  0.99400785  1
  Fe  Fe22  1  0.82827555  0.49499133  0.16453316  1
  Fe  Fe23  1  0.66091024  0.32519715  0.32947577  1
  Cr  Cr24  1  0.66640634  0.66210817  0.99328446  1
  Fe  Fe25  1  0.83047423  0.82995276  0.16330565  1
  Cr  Cr26  1  0.66701616  0.66356788  0.32827560  1
  Ni  Ni27  1  0.15807461  0.16204450  0.49756171  1
  Fe  Fe28  1  0.99481268  0.99462566  0.65841180  1
  Cr  Cr29  1  0.15675343  0.16145448  0.82990710  1
  Cr  Cr30  1  0.16307934  0.49618550  0.49575818  1
  Fe  Fe31  1  0.99429038  0.32792427  0.66094656  1
  Fe  Fe32  1  0.16037084  0.49696586  0.82641566  1
  Fe  Fe33  1  0.16313863  0.82789978  0.49707288  1
  Fe  Fe34  1  -0.00322167  0.66289041  0.66201529  1
  Cr  Cr35  1  0.16192394  0.82888480  0.82768096  1
  Fe  Fe36  1  0.49503016  0.16449722  0.49456876  1
  Cr  Cr37  1  0.32782616  -0.00336932  0.65798625  1
  Fe  Fe38  1  0.49641990  0.16063569  0.82776434  1
  Cr  Cr39  1  0.49529930  0.49898109  0.49423517  1
  Cr  Cr40  1  0.32752169  0.32670369  0.66453518  1
  Fe  Fe41  1  0.49544644  0.49374868  0.82683537  1
  Ni  Ni42  1  0.49648041  0.82921489  0.49442762  1
  Fe  Fe43  1  0.33016088  0.66327987  0.66151881  1
  Cr  Cr44  1  0.49648102  0.82763944  0.82894811  1
  Fe  Fe45  1  0.82810958  0.16078785  0.49594248  1
  Cr  Cr46  1  0.66117756  0.99370487  0.65742211  1
  Cr  Cr47  1  0.82874899  0.16101772  0.82649622  1
  Cr  Cr48  1  0.82885111  0.49199500  0.49527502  1
  Fe  Fe49  1  0.66141590  0.32778678  0.66243359  1
  Fe  Fe50  1  0.83214001  0.49542280  0.82594213  1
  Fe  Fe51  1  0.83026427  0.82778695  0.49602817  1
  Cr  Cr52  1  0.66524707  0.66148509  0.66505523  1
  Fe  Fe53  1  0.83164693  0.83050267  0.82791583  1
" 