2037,Ni3Fe31Cr64_14,-212.705766494312, 192.080362099439,Ni3Fe31Cr64,"# generated using pymatgen
 data_Cr18Fe8Ni
_symmetry_space_group_name_H-M   'P 1'
_cell_length_a   7.55728906
_cell_length_b   7.55728906
_cell_length_c   10.68762068
_cell_angle_alpha   90.00000000
_cell_angle_beta   90.00000000
_cell_angle_gamma   90.00000000
_symmetry_Int_Tables_number   1
_chemical_formula_structural   Cr18Fe8Ni
_chemical_formula_sum   'Cr36 Fe16 Ni2'
_cell_volume   610.39799554
_cell_formula_units_Z   2
loop_
 _symmetry_equiv_pos_site_id
 _symmetry_equiv_pos_as_xyz
  1  'x, y, z'
loop_
 _atom_site_type_symbol
 _atom_site_label
 _atom_site_symmetry_multiplicity
 _atom_site_fract_x
 _atom_site_fract_y
 _atom_site_fract_z
 _atom_site_occupancy
  Cr  Cr0  1  -0.00575953  0.99373567  0.99341051  1
  Cr  Cr1  1  0.16213319  0.15958611  0.16139232  1
  Cr  Cr2  1  -0.00322338  0.99277605  0.32828961  1
  Cr  Cr3  1  -0.00543658  0.32852663  0.99267116  1
  Fe  Fe4  1  0.16062157  0.49556476  0.16073694  1
  Cr  Cr5  1  0.99393746  0.32912218  0.32796998  1
  Cr  Cr6  1  0.99402507  0.65982900  -0.00413166  1
  Fe  Fe7  1  0.16097478  0.82634808  0.16112922  1
  Fe  Fe8  1  -0.00518275  0.65994231  0.32662477  1
  Cr  Cr9  1  0.32877559  0.99264920  -0.00373709  1
  Fe  Fe10  1  0.49444060  0.16099840  0.16112420  1
  Fe  Fe11  1  0.32699773  -0.00560272  0.32697613  1
  Cr  Cr12  1  0.32735065  0.32851297  -0.00593939  1
  Fe  Fe13  1  0.49493022  0.49401831  0.15990955  1
  Cr  Cr14  1  0.32833119  0.32599230  0.32763437  1
  Fe  Fe15  1  0.32903144  0.66069686  0.99402586  1
  Cr  Cr16  1  0.49221930  0.82674255  0.15877823  1
  Cr  Cr17  1  0.32616559  0.66124586  0.32643377  1
  Fe  Fe18  1  0.65954707  0.99197589  0.99366797  1
  Cr  Cr19  1  0.82573923  0.16240208  0.15956001  1
  Cr  Cr20  1  0.65876453  -0.00506213  0.32819510  1
  Cr  Cr21  1  0.66017377  0.32872994  -0.00235716  1
  Fe  Fe22  1  0.82653683  0.49486887  0.16061891  1
  Fe  Fe23  1  0.66030772  0.32771505  0.32625971  1
  Ni  Ni24  1  0.65863127  0.66145974  -0.00573044  1
  Cr  Cr25  1  0.82858282  0.82539224  0.16014438  1
  Cr  Cr26  1  0.66189640  0.65840552  0.32724404  1
  Fe  Fe27  1  0.16146507  0.16145554  0.49400943  1
  Cr  Cr28  1  0.99358708  -0.00485188  0.66038294  1
  Cr  Cr29  1  0.16014986  0.16295365  0.82629678  1
  Fe  Fe30  1  0.16110226  0.49364753  0.49437964  1
  Cr  Cr31  1  -0.00296561  0.32748189  0.66143985  1
  Fe  Fe32  1  0.16224054  0.49479700  0.82697178  1
  Cr  Cr33  1  0.16094295  0.82682357  0.49098001  1
  Cr  Cr34  1  -0.00495422  0.65945883  0.65946114  1
  Cr  Cr35  1  0.16300782  0.82509409  0.82914368  1
  Cr  Cr36  1  0.49290291  0.16153267  0.49277089  1
  Cr  Cr37  1  0.32875846  -0.00593855  0.65930923  1
  Cr  Cr38  1  0.49464060  0.15945190  0.82736825  1
  Cr  Cr39  1  0.49260090  0.49314653  0.49495443  1
  Fe  Fe40  1  0.32614602  0.32856976  0.66029831  1
  Cr  Cr41  1  0.49128280  0.49697363  0.82697916  1
  Cr  Cr42  1  0.49292396  0.82741100  0.49600178  1
  Fe  Fe43  1  0.32733131  0.65995480  0.66142629  1
  Ni  Ni44  1  0.49423757  0.82563807  0.82797408  1
  Cr  Cr45  1  0.82742096  0.16100063  0.49482534  1
  Fe  Fe46  1  0.65999337  0.99322315  0.66142304  1
  Cr  Cr47  1  0.82730149  0.15952690  0.82771285  1
  Cr  Cr48  1  0.82800854  0.49396233  0.49121693  1
  Cr  Cr49  1  0.65979773  0.32706233  0.65945852  1
  Cr  Cr50  1  0.82786704  0.49411458  0.82877359  1
  Cr  Cr51  1  0.82822105  0.82712501  0.49429394  1
  Cr  Cr52  1  0.65869895  0.66296060  0.66118325  1
  Cr  Cr53  1  0.82437232  0.82844623  0.82765737  1
" 