2629,Ni3Fe48Cr47_1,-217.411468593847, 170.038790687388,Ni3Fe48Cr47,"# generated using pymatgen
 data_Cr27Fe25Ni2
_symmetry_space_group_name_H-M   'P 1'
_cell_length_a   7.53344429
_cell_length_b   7.53344429
_cell_length_c   10.65389908
_cell_angle_alpha   90.00000000
_cell_angle_beta   90.00000000
_cell_angle_gamma   90.00000000
_symmetry_Int_Tables_number   1
_chemical_formula_structural   Cr27Fe25Ni2
_chemical_formula_sum   'Cr27 Fe25 Ni2'
_cell_volume   604.63842085
_cell_formula_units_Z   1
loop_
 _symmetry_equiv_pos_site_id
 _symmetry_equiv_pos_as_xyz
  1  'x, y, z'
loop_
 _atom_site_type_symbol
 _atom_site_label
 _atom_site_symmetry_multiplicity
 _atom_site_fract_x
 _atom_site_fract_y
 _atom_site_fract_z
 _atom_site_occupancy
  Fe  Fe0  1  0.99470718  0.99262868  0.99294831  1
  Cr  Cr1  1  0.16072386  0.16017966  0.16171815  1
  Cr  Cr2  1  0.99292866  0.99239038  0.32903204  1
  Cr  Cr3  1  0.99546996  0.32828945  0.99371816  1
  Cr  Cr4  1  0.16113717  0.49827891  0.16351512  1
  Cr  Cr5  1  0.99459046  0.32916857  0.32989692  1
  Fe  Fe6  1  0.99422345  0.66466511  0.99447454  1
  Cr  Cr7  1  0.16223381  0.82831395  0.16423521  1
  Fe  Fe8  1  0.99267590  0.66292695  0.33033144  1
  Cr  Cr9  1  0.32879276  0.99518334  0.99273788  1
  Fe  Fe10  1  0.49644562  0.16095978  0.16079933  1
  Fe  Fe11  1  0.32963001  -0.00417461  0.33026088  1
  Cr  Cr12  1  0.33011757  0.33028627  -0.00156112  1
  Fe  Fe13  1  0.49773647  0.49712395  0.16189892  1
  Cr  Cr14  1  0.33089099  0.33002518  0.32522455  1
  Cr  Cr15  1  0.32986721  0.66188176  0.99441867  1
  Cr  Cr16  1  0.49740125  0.82832235  0.16164020  1
  Fe  Fe17  1  0.33000043  0.66382775  0.32973500  1
  Fe  Fe18  1  0.66350351  0.99426856  0.99366970  1
  Cr  Cr19  1  0.82766481  0.16036444  0.15823458  1
  Cr  Cr20  1  0.66317589  0.99426423  0.32901845  1
  Fe  Fe21  1  0.66167792  0.32909952  0.99513168  1
  Cr  Cr22  1  0.82814576  0.49673395  0.16175747  1
  Cr  Cr23  1  0.66111857  0.32853053  0.32904351  1
  Fe  Fe24  1  0.66461353  0.66321259  0.99471607  1
  Fe  Fe25  1  0.82946749  0.82748226  0.16026778  1
  Fe  Fe26  1  0.66401258  0.66247209  0.32943986  1
  Cr  Cr27  1  0.16221757  0.16104094  0.49718369  1
  Cr  Cr28  1  0.99540185  0.99448332  0.66436314  1
  Fe  Fe29  1  0.16163878  0.16167812  0.82712038  1
  Cr  Cr30  1  0.16003308  0.49749622  0.49525784  1
  Ni  Ni31  1  0.99072166  0.33129804  0.66376960  1
  Cr  Cr32  1  0.15958200  0.49620370  0.82867301  1
  Fe  Fe33  1  0.16195661  0.82876525  0.49586231  1
  Fe  Fe34  1  0.99381836  0.66275293  0.66262153  1
  Fe  Fe35  1  0.16160018  0.83035452  0.82884453  1
  Fe  Fe36  1  0.49428072  0.16216012  0.49692470  1
  Ni  Ni37  1  0.32870289  0.99271980  0.66245726  1
  Cr  Cr38  1  0.49759690  0.16079559  0.82666026  1
  Cr  Cr39  1  0.49790109  0.49772123  0.49672030  1
  Cr  Cr40  1  0.32757071  0.32877290  0.66285371  1
  Cr  Cr41  1  0.49925755  0.49736184  0.82948580  1
  Cr  Cr42  1  0.49491405  0.82973036  0.49711757  1
  Cr  Cr43  1  0.32894987  0.66444795  0.66520206  1
  Fe  Fe44  1  0.49727971  0.82930849  0.82835753  1
  Cr  Cr45  1  0.82836464  0.16395451  0.49813931  1
  Cr  Cr46  1  0.66278527  0.99309049  0.66168149  1
  Fe  Fe47  1  0.82947178  0.16353773  0.82864900  1
  Fe  Fe48  1  0.82878056  0.49779277  0.49749617  1
  Fe  Fe49  1  0.66368500  0.32956280  0.66263385  1
  Fe  Fe50  1  0.82837089  0.49592458  0.82817513  1
  Fe  Fe51  1  0.83005995  0.82529875  0.49619944  1
  Fe  Fe52  1  0.66601406  0.66197568  0.66309359  1
  Fe  Fe53  1  0.82812456  0.82709889  0.83018660  1
" 