5368,Ni3Fe10Cr85_18,-204.798177489552, 201.335868958972,Ni3Fe10Cr85,"# generated using pymatgen
 data_Cr47Fe5Ni2
_symmetry_space_group_name_H-M   'P 1'
_cell_length_a   7.58724348
_cell_length_b   7.58724348
_cell_length_c   10.72998263
_cell_angle_alpha   90.00000000
_cell_angle_beta   90.00000000
_cell_angle_gamma   90.00000000
_symmetry_Int_Tables_number   1
_chemical_formula_structural   Cr47Fe5Ni2
_chemical_formula_sum   'Cr47 Fe5 Ni2'
_cell_volume   617.68500899
_cell_formula_units_Z   1
loop_
 _symmetry_equiv_pos_site_id
 _symmetry_equiv_pos_as_xyz
  1  'x, y, z'
loop_
 _atom_site_type_symbol
 _atom_site_label
 _atom_site_symmetry_multiplicity
 _atom_site_fract_x
 _atom_site_fract_y
 _atom_site_fract_z
 _atom_site_occupancy
  Cr  Cr0  1  0.99079023  0.99185692  -0.00783692  1
  Cr  Cr1  1  0.15723512  0.15761576  0.15833864  1
  Ni  Ni2  1  0.99122772  0.99019459  0.32526118  1
  Cr  Cr3  1  0.99168783  0.32627497  0.98985465  1
  Cr  Cr4  1  0.15687520  0.49475126  0.15819062  1
  Cr  Cr5  1  -0.00731272  0.32472871  0.32639398  1
  Fe  Fe6  1  0.99072763  0.65871608  0.99192359  1
  Cr  Cr7  1  0.15623486  0.82386937  0.16028337  1
  Ni  Ni8  1  0.99087349  0.65989345  0.32417710  1
  Cr  Cr9  1  0.32501189  0.99204819  -0.00752423  1
  Cr  Cr10  1  0.49437923  0.16030152  0.15807955  1
  Cr  Cr11  1  0.32405226  -0.00765678  0.32541235  1
  Cr  Cr12  1  0.32459511  0.32636605  -0.00642025  1
  Fe  Fe13  1  0.49313950  0.49211125  0.15929034  1
  Cr  Cr14  1  0.32602795  0.32649147  0.32393343  1
  Cr  Cr15  1  0.32670090  0.65785469  -0.00558803  1
  Cr  Cr16  1  0.49214574  0.82524033  0.15803478  1
  Cr  Cr17  1  0.32610988  0.65757571  0.32509304  1
  Cr  Cr18  1  0.66040528  0.99002205  0.99074024  1
  Cr  Cr19  1  0.82482618  0.15889080  0.16176538  1
  Cr  Cr20  1  0.65981219  0.99117356  0.32539352  1
  Cr  Cr21  1  0.65975165  0.32741376  -0.00598175  1
  Cr  Cr22  1  0.82581691  0.49259769  0.15953986  1
  Fe  Fe23  1  0.65904658  0.32623955  0.32484711  1
  Cr  Cr24  1  0.66073493  0.65897002  0.99051407  1
  Cr  Cr25  1  0.82793959  0.82459179  0.15939303  1
  Cr  Cr26  1  0.65834234  0.65756796  0.32506716  1
  Cr  Cr27  1  0.15765405  0.15775999  0.49239052  1
  Cr  Cr28  1  0.99101218  -0.00763032  0.65817149  1
  Cr  Cr29  1  0.15930514  0.15877840  0.82542433  1
  Cr  Cr30  1  0.15703663  0.49438734  0.49238238  1
  Cr  Cr31  1  0.99166811  0.32551770  0.65992261  1
  Cr  Cr32  1  0.15711317  0.49401644  0.82589868  1
  Cr  Cr33  1  0.15661070  0.82403248  0.48919403  1
  Cr  Cr34  1  0.98958351  0.65835221  0.66065981  1
  Cr  Cr35  1  0.15783428  0.82345905  0.82687896  1
  Cr  Cr36  1  0.49416895  0.15946550  0.49329519  1
  Cr  Cr37  1  0.32450970  0.99183130  0.65836138  1
  Cr  Cr38  1  0.49290198  0.15899122  0.82508045  1
  Cr  Cr39  1  0.49339129  0.49104009  0.49114247  1
  Cr  Cr40  1  0.32359761  0.32584278  0.65854411  1
  Cr  Cr41  1  0.49235390  0.49165048  0.82537639  1
  Cr  Cr42  1  0.49218916  0.82562416  0.49386548  1
  Cr  Cr43  1  0.32600086  0.65855285  0.65663336  1
  Cr  Cr44  1  0.49195895  0.82555902  0.82441656  1
  Cr  Cr45  1  0.82455989  0.15886509  0.48916233  1
  Cr  Cr46  1  0.66077278  0.98995572  0.65990340  1
  Cr  Cr47  1  0.82405805  0.15955721  0.82543277  1
  Cr  Cr48  1  0.82596773  0.49233027  0.49112894  1
  Cr  Cr49  1  0.66092832  0.32693595  0.65815444  1
  Fe  Fe50  1  0.82539895  0.49339267  0.82625579  1
  Cr  Cr51  1  0.82740766  0.82487904  0.48999749  1
  Cr  Cr52  1  0.66046777  0.65937355  0.66029401  1
  Fe  Fe53  1  0.82664166  0.82404947  0.82612719  1
" 