8684,Ni3Fe31Cr64_9,-212.366282075207, 192.342791860001,Ni3Fe31Cr64,"# generated using pymatgen
 data_Cr18Fe8Ni
_symmetry_space_group_name_H-M   'P 1'
_cell_length_a   7.55527111
_cell_length_b   7.55527111
_cell_length_c   10.68476686
_cell_angle_alpha   90.00000000
_cell_angle_beta   90.00000000
_cell_angle_gamma   90.00000000
_symmetry_Int_Tables_number   1
_chemical_formula_structural   Cr18Fe8Ni
_chemical_formula_sum   'Cr36 Fe16 Ni2'
_cell_volume   609.90916002
_cell_formula_units_Z   2
loop_
 _symmetry_equiv_pos_site_id
 _symmetry_equiv_pos_as_xyz
  1  'x, y, z'
loop_
 _atom_site_type_symbol
 _atom_site_label
 _atom_site_symmetry_multiplicity
 _atom_site_fract_x
 _atom_site_fract_y
 _atom_site_fract_z
 _atom_site_occupancy
  Fe  Fe0  1  0.99293485  -0.00526496  -0.00355372  1
  Fe  Fe1  1  0.16155122  0.16176528  0.16073370  1
  Cr  Cr2  1  -0.00407725  -0.00410864  0.32672034  1
  Cr  Cr3  1  -0.00543474  0.32602516  -0.00197372  1
  Ni  Ni4  1  0.16109427  0.49465155  0.16292988  1
  Cr  Cr5  1  -0.00275917  0.32718857  0.32479569  1
  Cr  Cr6  1  0.99287061  0.65891431  -0.00505679  1
  Cr  Cr7  1  0.16004642  0.82474212  0.15966256  1
  Fe  Fe8  1  -0.00365022  0.66056044  0.32622996  1
  Cr  Cr9  1  0.32903038  0.99403747  0.99037633  1
  Cr  Cr10  1  0.49760432  0.16007611  0.16149107  1
  Cr  Cr11  1  0.32636393  -0.00363270  0.33085708  1
  Cr  Cr12  1  0.32597937  0.32620056  -0.00353288  1
  Cr  Cr13  1  0.48905391  0.49396969  0.16239528  1
  Fe  Fe14  1  0.32530428  0.32783227  0.32580012  1
  Fe  Fe15  1  0.32755558  0.66041552  -0.00557550  1
  Cr  Cr16  1  0.49420843  0.82872855  0.16153395  1
  Fe  Fe17  1  0.32413016  0.65947451  0.32657124  1
  Fe  Fe18  1  0.66110130  -0.00500803  0.99392508  1
  Fe  Fe19  1  0.82822564  0.15825327  0.15970080  1
  Fe  Fe20  1  0.66239116  -0.00493324  0.32628867  1
  Fe  Fe21  1  0.66034789  0.32605286  -0.00524217  1
  Cr  Cr22  1  0.82882302  0.49352313  0.16098613  1
  Cr  Cr23  1  0.66190913  0.32854702  0.32675208  1
  Cr  Cr24  1  0.65878926  0.66188095  0.99223735  1
  Fe  Fe25  1  0.82771451  0.82903884  0.16080722  1
  Cr  Cr26  1  0.66170320  0.66199374  0.32824199  1
  Fe  Fe27  1  0.16187279  0.16193595  0.49415629  1
  Cr  Cr28  1  -0.00204490  -0.00484519  0.65890117  1
  Cr  Cr29  1  0.16020543  0.16057542  0.82648862  1
  Cr  Cr30  1  0.16273458  0.49544572  0.49222483  1
  Cr  Cr31  1  -0.00464310  0.32664215  0.65991710  1
  Cr  Cr32  1  0.16206686  0.49508089  0.82891761  1
  Fe  Fe33  1  0.16119497  0.82696832  0.49307651  1
  Cr  Cr34  1  0.99295648  0.66074310  0.65912231  1
  Cr  Cr35  1  0.16145320  0.82685802  0.82837738  1
  Cr  Cr36  1  0.49381870  0.16298808  0.49489118  1
  Cr  Cr37  1  0.32783744  -0.00421193  0.66084335  1
  Fe  Fe38  1  0.49503811  0.16005908  0.82774153  1
  Cr  Cr39  1  0.49154496  0.49161233  0.49296307  1
  Fe  Fe40  1  0.32826702  0.32693777  0.66103422  1
  Cr  Cr41  1  0.49327715  0.49159725  0.82742397  1
  Cr  Cr42  1  0.49275506  0.82806011  0.49078665  1
  Cr  Cr43  1  0.33013187  0.66418511  0.66317363  1
  Ni  Ni44  1  0.49400986  0.82966578  0.83004850  1
  Cr  Cr45  1  0.82601707  0.16006308  0.49472963  1
  Cr  Cr46  1  0.65688642  0.99227002  0.66176718  1
  Cr  Cr47  1  0.82492870  0.16075122  0.82948823  1
  Cr  Cr48  1  0.82791572  0.49339771  0.49703393  1
  Fe  Fe49  1  0.65839742  0.32598810  0.66123590  1
  Cr  Cr50  1  0.82684462  0.49093065  0.82404871  1
  Cr  Cr51  1  0.83021533  0.82890635  0.49142216  1
  Cr  Cr52  1  0.65966404  0.66053038  0.66165172  1
  Cr  Cr53  1  0.82856159  0.83065902  0.82915173  1
" 