3338,Ni3Fe90Cr6_6,-222.818403752121, 126.916106106594,Ni3Fe90Cr6,"# generated using pymatgen
 data_Cr5Fe48Ni
_symmetry_space_group_name_H-M   'P 1'
_cell_length_a   7.44591986
_cell_length_b   7.44591986
_cell_length_c   10.53012084
_cell_angle_alpha   90.00000000
_cell_angle_beta   90.00000000
_cell_angle_gamma   90.00000000
_symmetry_Int_Tables_number   1
_chemical_formula_structural   Cr5Fe48Ni
_chemical_formula_sum   'Cr5 Fe48 Ni1'
_cell_volume   583.80803782
_cell_formula_units_Z   1
loop_
 _symmetry_equiv_pos_site_id
 _symmetry_equiv_pos_as_xyz
  1  'x, y, z'
loop_
 _atom_site_type_symbol
 _atom_site_label
 _atom_site_symmetry_multiplicity
 _atom_site_fract_x
 _atom_site_fract_y
 _atom_site_fract_z
 _atom_site_occupancy
  Fe  Fe0  1  0.00251524  0.00507282  1.00098688  1
  Fe  Fe1  1  0.16966725  0.16697115  0.16805447  1
  Fe  Fe2  1  1.00019335  0.00284690  0.33670312  1
  Fe  Fe3  1  0.00146328  0.33094107  1.00049719  1
  Cr  Cr4  1  0.16997183  0.49840277  0.16962244  1
  Fe  Fe5  1  0.99987912  0.33290757  0.33644022  1
  Cr  Cr6  1  0.99951516  0.66632918  1.00095772  1
  Cr  Cr7  1  0.16904877  0.83497836  0.16821403  1
  Fe  Fe8  1  0.99935591  0.66801586  0.33657700  1
  Ni  Ni9  1  0.33579216  0.00409146  0.99985238  1
  Fe  Fe10  1  0.49957444  0.17005041  0.16770952  1
  Fe  Fe11  1  0.33555952  0.00379030  0.33588551  1
  Fe  Fe12  1  0.33567857  0.33394726  0.99924119  1
  Fe  Fe13  1  0.50311431  0.49949472  0.16866540  1
  Fe  Fe14  1  0.33665746  0.33291134  0.33728794  1
  Fe  Fe15  1  0.33594578  0.66767483  0.99828269  1
  Cr  Cr16  1  0.50212310  0.83493153  0.16717117  1
  Fe  Fe17  1  0.33649442  0.66748635  0.33793355  1
  Fe  Fe18  1  0.66804577  0.00498006  1.00139885  1
  Fe  Fe19  1  0.83505245  0.16792214  0.16863796  1
  Fe  Fe20  1  0.66885497  0.00289457  0.33626692  1
  Fe  Fe21  1  0.66759818  0.33404313  1.00130280  1
  Fe  Fe22  1  0.83201562  0.50064356  0.16942670  1
  Fe  Fe23  1  0.66786663  0.33402397  0.33537334  1
  Fe  Fe24  1  0.66500746  0.66596732  1.00029364  1
  Fe  Fe25  1  0.83459011  0.83580178  0.16902371  1
  Fe  Fe26  1  0.66876801  0.66729607  0.33655890  1
  Fe  Fe27  1  0.16839286  0.16835954  0.50192255  1
  Fe  Fe28  1  0.00259956  0.00267455  0.66659873  1
  Fe  Fe29  1  0.16792772  0.16755832  0.83389633  1
  Fe  Fe30  1  0.16791591  0.50072489  0.50104668  1
  Fe  Fe31  1  0.00186919  0.33451397  0.66761953  1
  Fe  Fe32  1  0.16856537  0.50014283  0.83339147  1
  Fe  Fe33  1  0.16828843  0.83516874  0.50107050  1
  Fe  Fe34  1  0.00252069  0.66740829  0.66784595  1
  Fe  Fe35  1  0.17008909  0.83638950  0.83453085  1
  Fe  Fe36  1  0.50146857  0.16831491  0.50204962  1
  Fe  Fe37  1  0.33503115  0.00176192  0.66878459  1
  Fe  Fe38  1  0.50243385  0.16766482  0.83406665  1
  Fe  Fe39  1  0.50175855  0.50060101  0.50196357  1
  Fe  Fe40  1  0.33497260  0.33458005  0.66781350  1
  Fe  Fe41  1  0.50241621  0.50118265  0.83350765  1
  Fe  Fe42  1  0.50145054  0.83534140  0.50124626  1
  Fe  Fe43  1  0.33487517  0.66800985  0.66751659  1
  Fe  Fe44  1  0.49932873  0.83575897  0.83494783  1
  Fe  Fe45  1  0.83440677  0.16868673  0.50222398  1
  Fe  Fe46  1  0.66641529  0.00294916  0.66626976  1
  Fe  Fe47  1  0.83432126  0.17098131  0.83341325  1
  Fe  Fe48  1  0.83458581  0.50068662  0.50212387  1
  Fe  Fe49  1  0.66742976  0.33436614  0.66752517  1
  Fe  Fe50  1  0.83327786  0.49881554  0.83291675  1
  Fe  Fe51  1  0.83453874  0.83488903  0.50281743  1
  Fe  Fe52  1  0.66661697  0.66732136  0.66685936  1
  Cr  Cr53  1  0.83276683  0.83734371  0.83427868  1
" 