6470,Ni3Fe31Cr64_13,-212.422241708374, 192.005998588349,Ni3Fe31Cr64,"# generated using pymatgen
 data_Cr18Fe8Ni
_symmetry_space_group_name_H-M   'P 1'
_cell_length_a   7.56086355
_cell_length_b   7.56086355
_cell_length_c   10.69267578
_cell_angle_alpha   90.00000000
_cell_angle_beta   90.00000000
_cell_angle_gamma   90.00000000
_symmetry_Int_Tables_number   1
_chemical_formula_structural   Cr18Fe8Ni
_chemical_formula_sum   'Cr36 Fe16 Ni2'
_cell_volume   611.26453567
_cell_formula_units_Z   2
loop_
 _symmetry_equiv_pos_site_id
 _symmetry_equiv_pos_as_xyz
  1  'x, y, z'
loop_
 _atom_site_type_symbol
 _atom_site_label
 _atom_site_symmetry_multiplicity
 _atom_site_fract_x
 _atom_site_fract_y
 _atom_site_fract_z
 _atom_site_occupancy
  Cr  Cr0  1  0.99027631  -0.00529283  0.99268207  1
  Cr  Cr1  1  0.16083387  0.16027327  0.15972740  1
  Cr  Cr2  1  0.99054775  0.99338808  0.32791621  1
  Cr  Cr3  1  -0.00612228  0.32912724  0.99164972  1
  Cr  Cr4  1  0.16127459  0.49259703  0.16108904  1
  Cr  Cr5  1  0.99155225  0.32949995  0.32972649  1
  Cr  Cr6  1  0.99293452  0.65782205  -0.00393795  1
  Cr  Cr7  1  0.15944194  0.82859925  0.16066899  1
  Cr  Cr8  1  0.99212957  0.65821937  0.32696579  1
  Cr  Cr9  1  0.33051200  -0.00467395  -0.00508258  1
  Fe  Fe10  1  0.49443790  0.16234231  0.16069761  1
  Cr  Cr11  1  0.33102824  -0.00527749  0.32892281  1
  Fe  Fe12  1  0.32811773  0.32859439  0.99275902  1
  Cr  Cr13  1  0.49701545  0.49084143  0.15882114  1
  Cr  Cr14  1  0.32846888  0.32681624  0.32667696  1
  Cr  Cr15  1  0.32723026  0.65690151  0.99075833  1
  Cr  Cr16  1  0.49377509  0.82582506  0.16126834  1
  Cr  Cr17  1  0.32718091  0.65968942  0.33006386  1
  Cr  Cr18  1  0.66043422  -0.00505232  -0.00481575  1
  Cr  Cr19  1  0.82614785  0.16331542  0.16052501  1
  Cr  Cr20  1  0.65939948  -0.00478863  0.32686365  1
  Fe  Fe21  1  0.66013284  0.32737287  0.99363221  1
  Fe  Fe22  1  0.82639089  0.49278834  0.16044099  1
  Fe  Fe23  1  0.66044250  0.32664984  0.32836165  1
  Cr  Cr24  1  0.66086237  0.66045404  -0.00561886  1
  Fe  Fe25  1  0.82705145  0.82665925  0.16055973  1
  Cr  Cr26  1  0.66244445  0.66106370  0.32648336  1
  Cr  Cr27  1  0.16020022  0.15925264  0.49315019  1
  Cr  Cr28  1  0.99033592  -0.00415804  0.66113498  1
  Cr  Cr29  1  0.15979668  0.16051731  0.82864367  1
  Fe  Fe30  1  0.16139019  0.49309062  0.49450147  1
  Cr  Cr31  1  0.99232548  0.32770881  0.66007355  1
  Ni  Ni32  1  0.16032856  0.49207801  0.82709444  1
  Fe  Fe33  1  0.16034647  0.82663110  0.49396166  1
  Cr  Cr34  1  -0.00557551  0.65793359  0.65875150  1
  Cr  Cr35  1  0.15983446  0.82751450  0.82722270  1
  Ni  Ni36  1  0.49833470  0.16222259  0.49171201  1
  Cr  Cr37  1  0.33021371  -0.00537050  0.65739074  1
  Cr  Cr38  1  0.49563793  0.16355410  0.82873310  1
  Cr  Cr39  1  0.49792892  0.49326315  0.49562014  1
  Cr  Cr40  1  0.32669944  0.32822869  0.66243648  1
  Fe  Fe41  1  0.49320767  0.49275643  0.82712556  1
  Fe  Fe42  1  0.49534681  0.82772218  0.49418367  1
  Cr  Cr43  1  0.32758959  0.65848165  0.66064561  1
  Cr  Cr44  1  0.49551975  0.82487877  0.82448190  1
  Fe  Fe45  1  0.82375872  0.16242757  0.49356289  1
  Cr  Cr46  1  0.66037910  -0.00447174  0.65925720  1
  Fe  Fe47  1  0.82569069  0.16238436  0.82698462  1
  Fe  Fe48  1  0.82546154  0.49243989  0.49460873  1
  Fe  Fe49  1  0.66007942  0.32617187  0.65920288  1
  Cr  Cr50  1  0.82274386  0.49301007  0.82575261  1
  Fe  Fe51  1  0.82555790  0.82691403  0.49436806  1
  Fe  Fe52  1  0.66147693  0.65962590  0.65908564  1
  Cr  Cr53  1  0.82643111  0.82641894  0.82749011  1
" 