2766,Ni3Fe10Cr85_17,-204.869380076847, 202.655360034377,Ni3Fe10Cr85,"# generated using pymatgen
 data_Cr47Fe5Ni2
_symmetry_space_group_name_H-M   'P 1'
_cell_length_a   7.58870670
_cell_length_b   7.58870670
_cell_length_c   10.73205193
_cell_angle_alpha   90.00000000
_cell_angle_beta   90.00000000
_cell_angle_gamma   90.00000000
_symmetry_Int_Tables_number   1
_chemical_formula_structural   Cr47Fe5Ni2
_chemical_formula_sum   'Cr47 Fe5 Ni2'
_cell_volume   618.04244379
_cell_formula_units_Z   1
loop_
 _symmetry_equiv_pos_site_id
 _symmetry_equiv_pos_as_xyz
  1  'x, y, z'
loop_
 _atom_site_type_symbol
 _atom_site_label
 _atom_site_symmetry_multiplicity
 _atom_site_fract_x
 _atom_site_fract_y
 _atom_site_fract_z
 _atom_site_occupancy
  Fe  Fe0  1  -0.00601928  0.99084051  0.99106337  1
  Cr  Cr1  1  0.15798492  0.15764047  0.15788052  1
  Cr  Cr2  1  -0.00663182  0.99134363  0.32352182  1
  Cr  Cr3  1  -0.00786711  0.32473095  0.99085016  1
  Cr  Cr4  1  0.15864316  0.49115222  0.15946172  1
  Cr  Cr5  1  0.99181749  0.32468844  0.32716664  1
  Cr  Cr6  1  -0.00470675  0.66111348  0.99053904  1
  Fe  Fe7  1  0.15883481  0.82540248  0.15740867  1
  Cr  Cr8  1  -0.00583575  0.65957945  0.32604833  1
  Cr  Cr9  1  0.32259523  0.99022096  0.99074972  1
  Cr  Cr10  1  0.49081120  0.15777341  0.15858611  1
  Cr  Cr11  1  0.32399312  0.99141451  0.32585750  1
  Cr  Cr12  1  0.32656044  0.32605593  -0.00650449  1
  Ni  Ni13  1  0.49089279  0.49371274  0.15850813  1
  Cr  Cr14  1  0.32641417  0.32572247  0.32379265  1
  Cr  Cr15  1  0.32375659  0.65921521  -0.00692377  1
  Cr  Cr16  1  0.49297276  0.82481113  0.15948934  1
  Cr  Cr17  1  0.32430243  0.65860301  0.32258326  1
  Cr  Cr18  1  0.65871574  -0.00658895  0.99071029  1
  Cr  Cr19  1  0.82711410  0.15712301  0.15711029  1
  Cr  Cr20  1  0.65885825  -0.00614339  0.32744368  1
  Cr  Cr21  1  0.65746496  0.32548505  -0.00619970  1
  Cr  Cr22  1  0.82566057  0.49335085  0.15857458  1
  Cr  Cr23  1  0.65780063  0.32514921  0.32311338  1
  Cr  Cr24  1  0.65741718  0.65709557  0.99113573  1
  Cr  Cr25  1  0.82589295  0.82561256  0.15789899  1
  Cr  Cr26  1  0.65783877  0.65710101  0.32611449  1
  Cr  Cr27  1  0.15974950  0.16004186  0.49451696  1
  Cr  Cr28  1  -0.00680922  0.99128560  0.65996954  1
  Cr  Cr29  1  0.15944870  0.15921903  0.82357913  1
  Cr  Cr30  1  0.15873207  0.48992328  0.49385559  1
  Fe  Fe31  1  0.99158680  0.32462894  0.65898832  1
  Cr  Cr32  1  0.15862694  0.49093192  0.82285319  1
  Cr  Cr33  1  0.15987514  0.82579342  0.49103074  1
  Cr  Cr34  1  -0.00634917  0.66001784  0.65903794  1
  Ni  Ni35  1  0.15853886  0.82734059  0.82649501  1
  Cr  Cr36  1  0.48911970  0.15772921  0.49372908  1
  Fe  Fe37  1  0.32351800  0.99078672  0.65975718  1
  Cr  Cr38  1  0.48980843  0.15797978  0.82380618  1
  Cr  Cr39  1  0.49032566  0.49239681  0.49168146  1
  Fe  Fe40  1  0.32556940  0.32535840  0.65894243  1
  Cr  Cr41  1  0.49076286  0.49197610  0.82628968  1
  Cr  Cr42  1  0.49159641  0.82571485  0.49312282  1
  Cr  Cr43  1  0.32333836  0.66007321  0.66024775  1
  Cr  Cr44  1  0.49104941  0.82600041  0.82343972  1
  Cr  Cr45  1  0.82693253  0.15890934  0.49135522  1
  Cr  Cr46  1  0.65899719  -0.00665587  0.65774927  1
  Cr  Cr47  1  0.82670955  0.15850903  0.82745752  1
  Cr  Cr48  1  0.82691747  0.49225053  0.49303521  1
  Cr  Cr49  1  0.65879458  0.32450074  0.65922683  1
  Cr  Cr50  1  0.82658873  0.49212985  0.82462847  1
  Cr  Cr51  1  0.82438284  0.82474966  0.49067057  1
  Cr  Cr52  1  0.65874272  0.65808068  0.65884863  1
  Cr  Cr53  1  0.82531192  0.82526904  0.82685204  1
" 