2667,Ni3Fe90Cr6_4,-222.922366570864, 132.17092153525,Ni3Fe90Cr6,"# generated using pymatgen
 data_Cr5Fe48Ni
_symmetry_space_group_name_H-M   'P 1'
_cell_length_a   7.44363741
_cell_length_b   7.44363741
_cell_length_c   10.52689298
_cell_angle_alpha   90.00000000
_cell_angle_beta   90.00000000
_cell_angle_gamma   90.00000000
_symmetry_Int_Tables_number   1
_chemical_formula_structural   Cr5Fe48Ni
_chemical_formula_sum   'Cr5 Fe48 Ni1'
_cell_volume   583.27132748
_cell_formula_units_Z   1
loop_
 _symmetry_equiv_pos_site_id
 _symmetry_equiv_pos_as_xyz
  1  'x, y, z'
loop_
 _atom_site_type_symbol
 _atom_site_label
 _atom_site_symmetry_multiplicity
 _atom_site_fract_x
 _atom_site_fract_y
 _atom_site_fract_z
 _atom_site_occupancy
  Cr  Cr0  1  0.00240244  0.00180643  0.00221913  1
  Fe  Fe1  1  0.16966895  0.16766640  0.16895184  1
  Fe  Fe2  1  0.00218302  0.00374063  0.33381972  1
  Fe  Fe3  1  0.99955037  0.33604124  1.00028671  1
  Cr  Cr4  1  0.16965258  0.50074017  0.16655485  1
  Fe  Fe5  1  1.00099555  0.33287566  0.33544636  1
  Fe  Fe6  1  0.99963479  0.66768712  1.00085191  1
  Fe  Fe7  1  0.17057973  0.83612411  0.16842862  1
  Cr  Cr8  1  1.00111856  0.66816652  0.33443861  1
  Fe  Fe9  1  0.33775857  1.00094086  1.00134794  1
  Fe  Fe10  1  0.50103441  0.16871449  0.16822155  1
  Fe  Fe11  1  0.33477242  1.00129255  0.33485080  1
  Fe  Fe12  1  0.33683570  0.33397997  1.00018286  1
  Fe  Fe13  1  0.50332558  0.50146425  0.16816968  1
  Fe  Fe14  1  0.33446307  0.33314508  0.33477863  1
  Fe  Fe15  1  0.33635851  0.66973006  1.00034418  1
  Fe  Fe16  1  0.50146556  0.83431289  0.16766141  1
  Fe  Fe17  1  0.33594608  0.67019325  0.33441626  1
  Fe  Fe18  1  0.66695352  1.00061828  1.00150784  1
  Fe  Fe19  1  0.83427276  0.16955888  0.16892367  1
  Fe  Fe20  1  0.66757874  0.00221095  0.33390515  1
  Fe  Fe21  1  0.66835845  0.33471708  1.00131994  1
  Fe  Fe22  1  0.83272070  0.50073872  0.16703228  1
  Fe  Fe23  1  0.66936453  0.33422700  0.33409091  1
  Ni  Ni24  1  0.66755640  0.66740247  0.00182585  1
  Fe  Fe25  1  0.83272166  0.83436309  0.16796802  1
  Fe  Fe26  1  0.66683945  0.66865319  0.33262535  1
  Fe  Fe27  1  0.16830186  0.16807668  0.50178574  1
  Fe  Fe28  1  0.00268275  0.00275696  0.66978744  1
  Fe  Fe29  1  0.16907801  0.16900856  0.83445521  1
  Fe  Fe30  1  0.16688343  0.50084873  0.50224107  1
  Fe  Fe31  1  0.00165729  0.33487867  0.66851338  1
  Fe  Fe32  1  0.16832841  0.50144497  0.83541146  1
  Fe  Fe33  1  0.17064238  0.83552976  0.50250324  1
  Fe  Fe34  1  0.00257302  0.66720657  0.66881051  1
  Fe  Fe35  1  0.16899670  0.83430151  0.83415813  1
  Fe  Fe36  1  0.50204372  0.16620674  0.50163431  1
  Fe  Fe37  1  0.33514030  0.00175664  0.66854843  1
  Fe  Fe38  1  0.50154255  0.16820020  0.83486472  1
  Cr  Cr39  1  0.50115369  0.50172249  0.50093143  1
  Fe  Fe40  1  0.33438779  0.33418526  0.66904437  1
  Fe  Fe41  1  0.50193876  0.50185040  0.83509967  1
  Fe  Fe42  1  0.50014759  0.83666853  0.50180634  1
  Fe  Fe43  1  0.33430668  0.66879941  0.66912785  1
  Fe  Fe44  1  0.50217370  0.83448725  0.83540728  1
  Fe  Fe45  1  0.83439526  0.17028234  0.50181358  1
  Fe  Fe46  1  0.66683782  0.00292367  0.66955959  1
  Fe  Fe47  1  0.83428021  0.16872158  0.83429895  1
  Fe  Fe48  1  0.83520561  0.49969981  0.50262211  1
  Fe  Fe49  1  0.66854044  0.33422852  0.66896679  1
  Fe  Fe50  1  0.83436419  0.50196209  0.83536103  1
  Cr  Cr51  1  0.83387181  0.83644531  0.50282030  1
  Fe  Fe52  1  0.66765877  0.66772574  0.67063663  1
  Fe  Fe53  1  0.83367001  0.83388516  0.83453524  1
" 