3743,Ni3Fe90Cr6_7,-222.892838569362, 129.092064665906,Ni3Fe90Cr6,"# generated using pymatgen
 data_Cr5Fe48Ni
_symmetry_space_group_name_H-M   'P 1'
_cell_length_a   7.45006567
_cell_length_b   7.45006567
_cell_length_c   10.53598392
_cell_angle_alpha   90.00000000
_cell_angle_beta   90.00000000
_cell_angle_gamma   90.00000000
_symmetry_Int_Tables_number   1
_chemical_formula_structural   Cr5Fe48Ni
_chemical_formula_sum   'Cr5 Fe48 Ni1'
_cell_volume   584.78375717
_cell_formula_units_Z   1
loop_
 _symmetry_equiv_pos_site_id
 _symmetry_equiv_pos_as_xyz
  1  'x, y, z'
loop_
 _atom_site_type_symbol
 _atom_site_label
 _atom_site_symmetry_multiplicity
 _atom_site_fract_x
 _atom_site_fract_y
 _atom_site_fract_z
 _atom_site_occupancy
  Fe  Fe0  1  0.00137635  0.99981200  0.99952682  1
  Cr  Cr1  1  0.16821863  0.16707570  0.16853212  1
  Fe  Fe2  1  1.00112909  0.99957848  0.33603246  1
  Fe  Fe3  1  0.99951191  0.33440855  0.00120331  1
  Fe  Fe4  1  0.16672083  0.50334965  0.16835786  1
  Fe  Fe5  1  0.00115668  0.33603690  0.33600896  1
  Fe  Fe6  1  0.00137620  0.66920162  0.00217357  1
  Fe  Fe7  1  0.16758874  0.83305437  0.16775560  1
  Fe  Fe8  1  1.00113883  0.66780545  0.33506563  1
  Fe  Fe9  1  0.33526147  0.99871002  1.00031962  1
  Fe  Fe10  1  0.50196404  0.16698140  0.16863069  1
  Fe  Fe11  1  0.33528978  1.00036906  0.33524199  1
  Cr  Cr12  1  0.33640968  0.33425787  0.00135525  1
  Fe  Fe13  1  0.50196445  0.50147890  0.16857692  1
  Fe  Fe14  1  0.33528951  0.33526926  0.33502511  1
  Fe  Fe15  1  0.33532804  0.67023160  0.00202204  1
  Fe  Fe16  1  0.50111428  0.83495959  0.16778150  1
  Fe  Fe17  1  0.33451156  0.66778032  0.33435389  1
  Fe  Fe18  1  0.66677693  1.00058909  1.00032098  1
  Cr  Cr19  1  0.83318862  0.16851236  0.16709766  1
  Fe  Fe20  1  0.66699959  1.00035313  0.33525953  1
  Fe  Fe21  1  0.66781537  0.33447482  1.00113787  1
  Fe  Fe22  1  0.83473879  0.50250555  0.16751376  1
  Fe  Fe23  1  0.66697220  0.33526302  0.33523548  1
  Fe  Fe24  1  0.66671054  0.66835521  0.00202080  1
  Fe  Fe25  1  0.83471664  0.83306879  0.16777841  1
  Fe  Fe26  1  0.66776876  0.66780481  0.33438023  1
  Fe  Fe27  1  0.16784834  0.16783172  0.50083033  1
  Fe  Fe28  1  1.00113878  1.00039260  0.66785713  1
  Fe  Fe29  1  0.16678790  0.16560046  0.83398749  1
  Fe  Fe30  1  0.16740714  0.50149234  0.50176116  1
  Fe  Fe31  1  0.00115655  0.33360472  0.66620421  1
  Cr  Cr32  1  0.16797477  0.50211289  0.83350538  1
  Fe  Fe33  1  0.16743474  0.83409872  0.50151427  1
  Ni  Ni34  1  1.00091323  0.66989966  0.66571596  1
  Fe  Fe35  1  0.16720998  0.83550940  0.83414249  1
  Fe  Fe36  1  0.50113856  0.16780659  0.50109083  1
  Fe  Fe37  1  0.33380333  1.00052362  0.66786051  1
  Fe  Fe38  1  0.50196387  0.16746735  0.83369869  1
  Fe  Fe39  1  0.50113849  0.50107581  0.50112776  1
  Fe  Fe40  1  0.33464913  0.33432058  0.66725440  1
  Fe  Fe41  1  0.50196193  0.50189902  0.83371590  1
  Fe  Fe42  1  0.50113863  0.83453694  0.50107416  1
  Fe  Fe43  1  0.33453537  0.66857634  0.66703831  1
  Fe  Fe44  1  0.50111425  0.83405109  0.83456338  1
  Fe  Fe45  1  0.83443229  0.16783170  0.50083002  1
  Fe  Fe46  1  0.66847698  1.00049934  0.66783432  1
  Fe  Fe47  1  0.83467224  0.16644379  0.83483109  1
  Fe  Fe48  1  0.83487290  0.50149174  0.50176082  1
  Fe  Fe49  1  0.66761269  0.33432683  0.66704434  1
  Cr  Cr50  1  0.83343341  0.50067701  0.83493898  1
  Fe  Fe51  1  0.83484508  0.83409938  0.50151360  1
  Fe  Fe52  1  0.66775175  0.66859210  0.66702094  1
  Fe  Fe53  1  0.83509488  0.83549545  0.83412023  1
" 