5089,Ni3Fe31Cr64_7,-212.40073427385, 192.571249679054,Ni3Fe31Cr64,"# generated using pymatgen
 data_Cr18Fe8Ni
_symmetry_space_group_name_H-M   'P 1'
_cell_length_a   7.54708485
_cell_length_b   7.54708485
_cell_length_c   10.67318975
_cell_angle_alpha   90.00000000
_cell_angle_beta   90.00000000
_cell_angle_gamma   90.00000000
_symmetry_Int_Tables_number   1
_chemical_formula_structural   Cr18Fe8Ni
_chemical_formula_sum   'Cr36 Fe16 Ni2'
_cell_volume   607.92876850
_cell_formula_units_Z   2
loop_
 _symmetry_equiv_pos_site_id
 _symmetry_equiv_pos_as_xyz
  1  'x, y, z'
loop_
 _atom_site_type_symbol
 _atom_site_label
 _atom_site_symmetry_multiplicity
 _atom_site_fract_x
 _atom_site_fract_y
 _atom_site_fract_z
 _atom_site_occupancy
  Cr  Cr0  1  -0.00488997  0.99416299  -0.00354392  1
  Fe  Fe1  1  0.16196348  0.16202518  0.16083522  1
  Cr  Cr2  1  -0.00463505  -0.00421832  0.32597154  1
  Cr  Cr3  1  -0.00383053  0.32711184  -0.00408135  1
  Cr  Cr4  1  0.16320455  0.49372172  0.16122568  1
  Cr  Cr5  1  -0.00300053  0.32736256  0.33111091  1
  Fe  Fe6  1  0.99468599  0.66100676  0.99436488  1
  Cr  Cr7  1  0.16319941  0.82716992  0.15944815  1
  Cr  Cr8  1  -0.00473052  0.66082871  0.32724675  1
  Cr  Cr9  1  0.32826985  -0.00257339  0.99259571  1
  Cr  Cr10  1  0.49554619  0.16306379  0.16007085  1
  Cr  Cr11  1  0.32712475  -0.00265681  0.32920843  1
  Fe  Fe12  1  0.33093958  0.32845360  0.99378052  1
  Fe  Fe13  1  0.49469856  0.49478494  0.16021697  1
  Cr  Cr14  1  0.32719456  0.32816590  0.32821557  1
  Cr  Cr15  1  0.32994217  0.65978777  0.99467708  1
  Cr  Cr16  1  0.49350085  0.82869113  0.16603562  1
  Fe  Fe17  1  0.32665780  0.66012072  0.32801133  1
  Cr  Cr18  1  0.66088316  -0.00500509  -0.00497269  1
  Fe  Fe19  1  0.82827975  0.16192784  0.16157866  1
  Fe  Fe20  1  0.66154253  -0.00296203  0.32832881  1
  Fe  Fe21  1  0.65836687  0.32806755  0.99368255  1
  Cr  Cr22  1  0.82766394  0.49195225  0.15946505  1
  Cr  Cr23  1  0.66045919  0.32787493  0.32680263  1
  Cr  Cr24  1  0.66092028  0.66009996  0.99241522  1
  Cr  Cr25  1  0.82707940  0.82867170  0.16178193  1
  Cr  Cr26  1  0.66118709  0.66109717  0.32844868  1
  Fe  Fe27  1  0.16197517  0.16103331  0.49707962  1
  Fe  Fe28  1  -0.00473437  -0.00394646  0.66055591  1
  Cr  Cr29  1  0.16174392  0.16110812  0.82667610  1
  Fe  Fe30  1  0.16185838  0.49490539  0.49607760  1
  Fe  Fe31  1  -0.00500385  0.32709701  0.66056088  1
  Cr  Cr32  1  0.16243021  0.49417278  0.82803548  1
  Cr  Cr33  1  0.16403990  0.82724439  0.49650374  1
  Cr  Cr34  1  0.99403161  0.66107705  0.66239372  1
  Cr  Cr35  1  0.16237815  0.82840560  0.82770087  1
  Fe  Fe36  1  0.49424129  0.16122790  0.49476295  1
  Fe  Fe37  1  0.32822213  -0.00512298  0.66051450  1
  Fe  Fe38  1  0.49432686  0.16386333  0.82879118  1
  Cr  Cr39  1  0.49330502  0.49605027  0.49322287  1
  Cr  Cr40  1  0.32766806  0.32658410  0.66093835  1
  Ni  Ni41  1  0.49416287  0.49224224  0.82965481  1
  Cr  Cr42  1  0.49348394  0.82863125  0.49326819  1
  Fe  Fe43  1  0.33107233  0.65903365  0.66217341  1
  Cr  Cr44  1  0.49315568  0.82772373  0.82456041  1
  Cr  Cr45  1  0.82785286  0.16232260  0.49448003  1
  Cr  Cr46  1  0.65954282  0.99469518  0.66090357  1
  Cr  Cr47  1  0.82780825  0.16270439  0.82831856  1
  Cr  Cr48  1  0.82825531  0.49314846  0.49776736  1
  Cr  Cr49  1  0.65813644  0.32966969  0.66354254  1
  Cr  Cr50  1  0.82702522  0.49305404  0.82757449  1
  Cr  Cr51  1  0.82677447  0.82886740  0.49485713  1
  Ni  Ni52  1  0.65888984  0.66079299  0.66273918  1
  Cr  Cr53  1  0.82879771  0.82834483  0.82708934  1
" 