4701,Ni3Fe65Cr31_11,-220.04711330162, 158.695870179234,Ni3Fe65Cr31,"# generated using pymatgen
 data_Cr18Fe35Ni
_symmetry_space_group_name_H-M   'P 1'
_cell_length_a   7.49900523
_cell_length_b   7.49900523
_cell_length_c   10.60519489
_cell_angle_alpha   90.00000000
_cell_angle_beta   90.00000000
_cell_angle_gamma   90.00000000
_symmetry_Int_Tables_number   1
_chemical_formula_structural   Cr18Fe35Ni
_chemical_formula_sum   'Cr18 Fe35 Ni1'
_cell_volume   596.38397668
_cell_formula_units_Z   1
loop_
 _symmetry_equiv_pos_site_id
 _symmetry_equiv_pos_as_xyz
  1  'x, y, z'
loop_
 _atom_site_type_symbol
 _atom_site_label
 _atom_site_symmetry_multiplicity
 _atom_site_fract_x
 _atom_site_fract_y
 _atom_site_fract_z
 _atom_site_occupancy
  Cr  Cr0  1  0.00221699  0.00020116  -0.00163253  1
  Fe  Fe1  1  0.16623995  0.16687869  0.16410456  1
  Cr  Cr2  1  0.00202725  -0.00082327  0.33291663  1
  Fe  Fe3  1  -0.00006534  0.33149570  -0.00127981  1
  Fe  Fe4  1  0.16686392  0.49731415  0.16411293  1
  Cr  Cr5  1  -0.00121855  0.33231112  0.33020394  1
  Cr  Cr6  1  0.99497489  0.66025248  -0.00195758  1
  Fe  Fe7  1  0.16792838  0.82956055  0.16447528  1
  Cr  Cr8  1  0.99730576  0.66224557  0.33299442  1
  Cr  Cr9  1  0.33288377  0.00048691  0.99640626  1
  Cr  Cr10  1  0.50061242  0.16802523  0.16548097  1
  Cr  Cr11  1  0.33316266  -0.00069071  0.33214302  1
  Fe  Fe12  1  0.32803932  0.33362293  -0.00125947  1
  Fe  Fe13  1  0.49734760  0.49944932  0.16364500  1
  Fe  Fe14  1  0.33089351  0.33280179  0.33150744  1
  Fe  Fe15  1  0.33033960  0.66445264  -0.00114094  1
  Fe  Fe16  1  0.49794731  0.83081823  0.16398867  1
  Fe  Fe17  1  0.32907561  0.66407585  0.33034650  1
  Fe  Fe18  1  0.66452437  0.99567792  0.99694901  1
  Cr  Cr19  1  0.83015321  0.16369132  0.16493412  1
  Fe  Fe20  1  0.66527187  -0.00173819  0.33504039  1
  Fe  Fe21  1  0.66580338  0.33426400  -0.00179795  1
  Fe  Fe22  1  0.82825716  0.49641083  0.16357653  1
  Fe  Fe23  1  0.66442613  0.32994160  0.33332547  1
  Fe  Fe24  1  0.66189354  0.66514690  0.99779232  1
  Cr  Cr25  1  0.83301529  0.83308240  0.16415978  1
  Cr  Cr26  1  0.66351295  0.66330210  0.33109083  1
  Fe  Fe27  1  0.16697210  0.16678328  0.50014438  1
  Fe  Fe28  1  0.99726715  -0.00167664  0.66243667  1
  Fe  Fe29  1  0.16515502  0.16737378  0.82844890  1
  Fe  Fe30  1  0.16452504  0.49655672  0.49977759  1
  Fe  Fe31  1  0.99738544  0.33165686  0.66354101  1
  Fe  Fe32  1  0.16299044  0.49441302  0.82950594  1
  Fe  Fe33  1  0.16678112  0.83067677  0.50052259  1
  Fe  Fe34  1  0.99778827  0.66306819  0.66260071  1
  Cr  Cr35  1  0.16322717  0.82860338  0.82727622  1
  Ni  Ni36  1  0.49860463  0.16600974  0.49750900  1
  Fe  Fe37  1  0.33010076  -0.00116754  0.66236228  1
  Cr  Cr38  1  0.49858969  0.16766443  0.83037567  1
  Cr  Cr39  1  0.49509967  0.49525048  0.49647570  1
  Fe  Fe40  1  0.33042678  0.32988209  0.66304570  1
  Cr  Cr41  1  0.49469382  0.49744267  0.83214935  1
  Fe  Fe42  1  0.49615851  0.83158227  0.49788290  1
  Fe  Fe43  1  0.33063736  0.66463372  0.66352767  1
  Fe  Fe44  1  0.49737378  0.83084046  0.83184911  1
  Fe  Fe45  1  0.83003159  0.16599029  0.49858581  1
  Cr  Cr46  1  0.66103952  0.99594013  0.66347050  1
  Cr  Cr47  1  0.83203482  0.16395840  0.83264905  1
  Fe  Fe48  1  0.83085126  0.49511310  0.49950503  1
  Fe  Fe49  1  0.66545494  0.33029936  0.66276560  1
  Fe  Fe50  1  0.83222865  0.49635745  0.83083518  1
  Fe  Fe51  1  0.83076271  0.83202773  0.49854907  1
  Cr  Cr52  1  0.66583063  0.66322487  0.66700573  1
  Fe  Fe53  1  0.82949350  0.83017510  0.83201417  1
" 