5435,Ni3Fe10Cr85_0,-204.746294890606, 198.792293229418,Ni3Fe10Cr85,"# generated using pymatgen
 data_Cr47Fe5Ni2
_symmetry_space_group_name_H-M   'P 1'
_cell_length_a   7.59111511
_cell_length_b   7.59111511
_cell_length_c   10.73545794
_cell_angle_alpha   90.00000000
_cell_angle_beta   90.00000000
_cell_angle_gamma   90.00000000
_symmetry_Int_Tables_number   1
_chemical_formula_structural   Cr47Fe5Ni2
_chemical_formula_sum   'Cr47 Fe5 Ni2'
_cell_volume   618.63107052
_cell_formula_units_Z   1
loop_
 _symmetry_equiv_pos_site_id
 _symmetry_equiv_pos_as_xyz
  1  'x, y, z'
loop_
 _atom_site_type_symbol
 _atom_site_label
 _atom_site_symmetry_multiplicity
 _atom_site_fract_x
 _atom_site_fract_y
 _atom_site_fract_z
 _atom_site_occupancy
  Fe  Fe0  1  0.99130433  -0.00634255  0.99063038  1
  Cr  Cr1  1  0.15790791  0.15883905  0.15760930  1
  Cr  Cr2  1  -0.00792786  0.99075317  0.32509592  1
  Fe  Fe3  1  0.99130559  0.32333457  0.99066317  1
  Cr  Cr4  1  0.15760957  0.49136553  0.15803713  1
  Cr  Cr5  1  -0.00792822  0.32540405  0.32540070  1
  Cr  Cr6  1  0.99141290  0.65892424  -0.00660827  1
  Cr  Cr7  1  0.15837931  0.82528031  0.15879639  1
  Cr  Cr8  1  0.99146821  0.65932680  0.32479744  1
  Cr  Cr9  1  0.32327246  -0.00688412  0.99157444  1
  Cr  Cr10  1  0.49189357  0.15806859  0.15969929  1
  Cr  Cr11  1  0.32447599  -0.00713031  0.32479694  1
  Cr  Cr12  1  0.32404562  0.32421925  -0.00766474  1
  Cr  Cr13  1  0.49172620  0.49166576  0.15863863  1
  Cr  Cr14  1  0.32630066  0.32511354  0.32510581  1
  Cr  Cr15  1  0.32461680  0.65814877  -0.00814826  1
  Cr  Cr16  1  0.49172625  0.82574966  0.15790710  1
  Cr  Cr17  1  0.32478887  0.65750239  0.32551873  1
  Cr  Cr18  1  0.66030954  -0.00736195  0.99085130  1
  Cr  Cr19  1  0.82567717  0.15883895  0.15793119  1
  Cr  Cr20  1  0.65893619  -0.00773453  0.32540062  1
  Cr  Cr21  1  0.65953629  0.32469754  0.99161351  1
  Cr  Cr22  1  0.82614803  0.49119653  0.15787815  1
  Cr  Cr23  1  0.65711143  0.32571675  0.32570826  1
  Cr  Cr24  1  0.65945428  0.65814755  -0.00779589  1
  Cr  Cr25  1  0.82537828  0.82544839  0.15863820  1
  Cr  Cr26  1  0.65922763  0.65750320  0.32510471  1
  Cr  Cr27  1  0.15815717  0.15944914  0.49205856  1
  Cr  Cr28  1  0.99169926  -0.00659957  0.65982835  1
  Fe  Fe29  1  0.15580117  0.15883703  0.82549478  1
  Cr  Cr30  1  0.15903941  0.49217934  0.49310506  1
  Fe  Fe31  1  0.99174549  0.32443105  0.65965394  1
  Cr  Cr32  1  0.15797349  0.49073337  0.82434324  1
  Cr  Cr33  1  0.15980046  0.82385956  0.49204685  1
  Cr  Cr34  1  -0.00708485  0.65832299  0.65729535  1
  Cr  Cr35  1  0.15979512  0.82525959  0.82464154  1
  Cr  Cr36  1  0.49224482  0.15868627  0.49026358  1
  Cr  Cr37  1  0.32387585  0.99161022  0.65911009  1
  Cr  Cr38  1  0.49275575  0.15766251  0.82552138  1
  Fe  Fe39  1  0.49096759  0.49267010  0.49270712  1
  Cr  Cr40  1  0.32466114  0.32633482  0.65804087  1
  Cr  Cr41  1  0.49075087  0.49311716  0.82403639  1
  Cr  Cr42  1  0.49090882  0.82431703  0.49323551  1
  Ni  Ni43  1  0.32498915  0.65708711  0.65794833  1
  Cr  Cr44  1  0.49075048  0.82470571  0.82434154  1
  Cr  Cr45  1  0.82507980  0.15944686  0.49210418  1
  Cr  Cr46  1  0.65990704  -0.00716877  0.65923310  1
  Ni  Ni47  1  0.82827204  0.15929782  0.82573617  1
  Cr  Cr48  1  0.82553835  0.49084202  0.49208779  1
  Cr  Cr49  1  0.65912381  0.32511705  0.65816348  1
  Cr  Cr50  1  0.82675980  0.48873824  0.82551958  1
  Cr  Cr51  1  0.82477452  0.82519628  0.49102558  1
  Cr  Cr52  1  0.65733660  0.65753363  0.65817459  1
  Cr  Cr53  1  0.82493786  0.82726034  0.82582088  1
" 