4878,Ni3Fe10Cr85_15,-204.8201272044, 203.32412741616,Ni3Fe10Cr85,"# generated using pymatgen
 data_Cr47Fe5Ni2
_symmetry_space_group_name_H-M   'P 1'
_cell_length_a   7.58544723
_cell_length_b   7.58544723
_cell_length_c   10.72744235
_cell_angle_alpha   90.00000000
_cell_angle_beta   90.00000000
_cell_angle_gamma   90.00000000
_symmetry_Int_Tables_number   1
_chemical_formula_structural   Cr47Fe5Ni2
_chemical_formula_sum   'Cr47 Fe5 Ni2'
_cell_volume   617.24640868
_cell_formula_units_Z   1
loop_
 _symmetry_equiv_pos_site_id
 _symmetry_equiv_pos_as_xyz
  1  'x, y, z'
loop_
 _atom_site_type_symbol
 _atom_site_label
 _atom_site_symmetry_multiplicity
 _atom_site_fract_x
 _atom_site_fract_y
 _atom_site_fract_z
 _atom_site_occupancy
  Cr  Cr0  1  0.99169413  -0.00738051  -0.00640906  1
  Fe  Fe1  1  0.15685262  0.15919654  0.15919487  1
  Cr  Cr2  1  0.99172917  -0.00533022  0.32446425  1
  Cr  Cr3  1  0.99169437  0.32510273  -0.00498329  1
  Cr  Cr4  1  0.15755163  0.49115856  0.15844560  1
  Fe  Fe5  1  0.99172298  0.32431302  0.32434198  1
  Fe  Fe6  1  -0.00779153  0.65886236  0.99176626  1
  Cr  Cr7  1  0.15858226  0.82593405  0.15740234  1
  Cr  Cr8  1  0.99152794  0.65786336  0.32562150  1
  Cr  Cr9  1  0.32477199  0.99194741  -0.00667365  1
  Cr  Cr10  1  0.49232259  0.15846014  0.15803597  1
  Cr  Cr11  1  0.32473737  0.99191508  0.32473075  1
  Cr  Cr12  1  0.32477221  0.32577738  0.99183819  1
  Cr  Cr13  1  0.49258115  0.49248507  0.15950235  1
  Cr  Cr14  1  0.32370275  0.32577515  0.32547448  1
  Cr  Cr15  1  0.32459537  0.65886235  0.99172391  1
  Cr  Cr16  1  0.49258135  0.82564186  0.15991794  1
  Cr  Cr17  1  0.32666566  0.65889639  0.32633477  1
  Cr  Cr18  1  0.66011845  -0.00720246  -0.00731571  1
  Ni  Ni19  1  0.82734127  0.15953713  0.15953992  1
  Cr  Cr20  1  0.66011704  0.99171197  0.32463189  1
  Cr  Cr21  1  0.66011790  0.32492772  0.99119571  1
  Cr  Cr22  1  0.82645514  0.49141593  0.15949588  1
  Cr  Cr23  1  0.66115063  0.32597805  0.32537613  1
  Cr  Cr24  1  0.65944439  0.65886171  -0.00749672  1
  Cr  Cr25  1  0.82542407  0.82567846  0.15845275  1
  Fe  Fe26  1  0.65882519  0.65889889  0.32552156  1
  Cr  Cr27  1  0.15829020  0.15885498  0.49189450  1
  Fe  Fe28  1  0.99219141  0.99052542  0.65885698  1
  Cr  Cr29  1  0.15932164  0.15822733  0.82478407  1
  Cr  Cr30  1  0.15760577  0.49213774  0.49254049  1
  Cr  Cr31  1  0.99186226  0.32597908  0.65781565  1
  Cr  Cr32  1  0.15759333  0.49380616  0.82560493  1
  Cr  Cr33  1  0.15759738  0.82559371  0.49462989  1
  Ni  Ni34  1  -0.00773063  0.66008055  0.65970111  1
  Cr  Cr35  1  0.15655845  0.82455196  0.82455782  1
  Cr  Cr36  1  0.49185392  0.15886253  0.49336518  1
  Cr  Cr37  1  0.32454689  0.99181271  0.65852753  1
  Cr  Cr38  1  0.49225562  0.15926446  0.82518578  1
  Cr  Cr39  1  0.49273705  0.49232650  0.49105305  1
  Cr  Cr40  1  0.32558998  0.32594574  0.65927128  1
  Cr  Cr41  1  0.49209663  0.49088200  0.82602860  1
  Cr  Cr42  1  0.49273719  0.82539789  0.49022209  1
  Cr  Cr43  1  0.32376882  0.65882855  0.65852747  1
  Cr  Cr44  1  0.49209664  0.82644032  0.82644383  1
  Cr  Cr45  1  0.82644209  0.15885430  0.49262855  1
  Cr  Cr46  1  0.66018020  -0.00744418  0.65927135  1
  Cr  Cr47  1  0.82500968  0.15822669  0.82446637  1
  Cr  Cr48  1  0.82624485  0.49301680  0.49132230  1
  Cr  Cr49  1  0.65913458  0.32520279  0.66001517  1
  Cr  Cr50  1  0.82689605  0.49364561  0.82576885  1
  Cr  Cr51  1  0.82625332  0.82471397  0.49341340  1
  Cr  Cr52  1  0.66021005  0.65882841  0.65781532  1
  Cr  Cr53  1  0.82793133  0.82471262  0.82472067  1
" 