6283,Ni3Fe40Cr55_16,-214.885120051363, 184.080139588554,Ni3Fe40Cr55,"# generated using pymatgen
 data_Cr31Fe22Ni
_symmetry_space_group_name_H-M   'P 1'
_cell_length_a   7.54498915
_cell_length_b   7.54498915
_cell_length_c   10.67022598
_cell_angle_alpha   90.00000000
_cell_angle_beta   90.00000000
_cell_angle_gamma   90.00000000
_symmetry_Int_Tables_number   1
_chemical_formula_structural   Cr31Fe22Ni
_chemical_formula_sum   'Cr31 Fe22 Ni1'
_cell_volume   607.42247324
_cell_formula_units_Z   1
loop_
 _symmetry_equiv_pos_site_id
 _symmetry_equiv_pos_as_xyz
  1  'x, y, z'
loop_
 _atom_site_type_symbol
 _atom_site_label
 _atom_site_symmetry_multiplicity
 _atom_site_fract_x
 _atom_site_fract_y
 _atom_site_fract_z
 _atom_site_occupancy
  Cr  Cr0  1  -0.00478779  0.99374003  0.99470306  1
  Fe  Fe1  1  0.16206125  0.16258985  0.16222057  1
  Cr  Cr2  1  -0.00456294  -0.00474028  0.33057145  1
  Cr  Cr3  1  -0.00355054  0.33040809  -0.00218040  1
  Ni  Ni4  1  0.16103942  0.49871106  0.16083146  1
  Cr  Cr5  1  -0.00407748  0.32905678  0.32632131  1
  Fe  Fe6  1  -0.00369416  0.66134521  -0.00356559  1
  Fe  Fe7  1  0.16183195  0.82677672  0.16218109  1
  Fe  Fe8  1  -0.00445263  0.66161026  0.32688177  1
  Cr  Cr9  1  0.32829861  0.99319127  -0.00094950  1
  Cr  Cr10  1  0.49508283  0.16066421  0.16294983  1
  Fe  Fe11  1  0.32667457  -0.00491042  0.32789493  1
  Cr  Cr12  1  0.32750697  0.32972944  0.99259742  1
  Cr  Cr13  1  0.49500164  0.49371069  0.16297016  1
  Cr  Cr14  1  0.32565866  0.32736340  0.33053197  1
  Fe  Fe15  1  0.32680959  0.66108987  -0.00276311  1
  Fe  Fe16  1  0.49359696  0.82693104  0.16257097  1
  Cr  Cr17  1  0.32890494  0.66212547  0.32696791  1
  Cr  Cr18  1  0.66047650  0.99239458  0.99287357  1
  Cr  Cr19  1  0.82661248  0.16245500  0.16000329  1
  Cr  Cr20  1  0.66121986  0.99157674  0.32910864  1
  Cr  Cr21  1  0.66073438  0.32979690  0.99300336  1
  Fe  Fe22  1  0.82930833  0.49606082  0.16283225  1
  Fe  Fe23  1  0.66162581  0.32729235  0.32835639  1
  Cr  Cr24  1  0.66098405  0.66218057  -0.00361586  1
  Cr  Cr25  1  0.82917770  0.82750854  0.16193227  1
  Fe  Fe26  1  0.66340357  0.66042753  0.32722835  1
  Fe  Fe27  1  0.16162622  0.16139686  0.49527275  1
  Fe  Fe28  1  0.99376536  -0.00483675  0.65956120  1
  Cr  Cr29  1  0.16064501  0.16011814  0.82905417  1
  Cr  Cr30  1  0.16145299  0.49701496  0.49647336  1
  Cr  Cr31  1  -0.00512756  0.32733721  0.66025968  1
  Cr  Cr32  1  0.16265676  0.49801792  0.82727829  1
  Cr  Cr33  1  0.16051288  0.82797052  0.49639179  1
  Fe  Fe34  1  0.99337347  0.66173560  0.66055942  1
  Cr  Cr35  1  0.16172355  0.82650423  0.82796987  1
  Fe  Fe36  1  0.49626838  0.16185305  0.49440983  1
  Cr  Cr37  1  0.32913300  -0.00418300  0.65948968  1
  Fe  Fe38  1  0.49462501  0.16151453  0.82713447  1
  Cr  Cr39  1  0.49615866  0.49399991  0.49569382  1
  Cr  Cr40  1  0.32915584  0.32895469  0.66239773  1
  Fe  Fe41  1  0.49557100  0.49589301  0.82665709  1
  Cr  Cr42  1  0.49483830  0.82785178  0.49258869  1
  Fe  Fe43  1  0.32984932  0.66206522  0.66137988  1
  Cr  Cr44  1  0.49311353  0.82721815  0.82876890  1
  Fe  Fe45  1  0.82663765  0.16067890  0.49555525  1
  Fe  Fe46  1  0.66161562  -0.00400610  0.65960313  1
  Cr  Cr47  1  0.82645935  0.16110984  0.82792676  1
  Cr  Cr48  1  0.82747317  0.49478671  0.49127475  1
  Fe  Fe49  1  0.66131457  0.32713384  0.66154078  1
  Cr  Cr50  1  0.82883158  0.49498742  0.82937500  1
  Fe  Fe51  1  0.82790937  0.82710313  0.49642734  1
  Fe  Fe52  1  0.66121110  0.66110299  0.66115059  1
  Cr  Cr53  1  0.82940489  0.82867509  0.82443176  1
" 