3406,Ni3Fe90Cr6_0,-222.933539468177, 130.002366206911,Ni3Fe90Cr6,"# generated using pymatgen
 data_Cr5Fe48Ni
_symmetry_space_group_name_H-M   'P 1'
_cell_length_a   7.45011428
_cell_length_b   7.45011428
_cell_length_c   10.53605265
_cell_angle_alpha   90.00000000
_cell_angle_beta   90.00000000
_cell_angle_gamma   90.00000000
_symmetry_Int_Tables_number   1
_chemical_formula_structural   Cr5Fe48Ni
_chemical_formula_sum   'Cr5 Fe48 Ni1'
_cell_volume   584.79520275
_cell_formula_units_Z   1
loop_
 _symmetry_equiv_pos_site_id
 _symmetry_equiv_pos_as_xyz
  1  'x, y, z'
loop_
 _atom_site_type_symbol
 _atom_site_label
 _atom_site_symmetry_multiplicity
 _atom_site_fract_x
 _atom_site_fract_y
 _atom_site_fract_z
 _atom_site_occupancy
  Fe  Fe0  1  1.00111413  0.99959485  0.00115332  1
  Fe  Fe1  1  0.16911865  0.16803384  0.16757167  1
  Fe  Fe2  1  0.00149387  1.00000038  0.33560592  1
  Fe  Fe3  1  0.00191239  0.33523935  1.00035862  1
  Fe  Fe4  1  0.16909042  0.50088271  0.16780408  1
  Fe  Fe5  1  0.00351692  0.33369885  0.33517812  1
  Fe  Fe6  1  0.00188172  0.66857553  1.00033896  1
  Fe  Fe7  1  0.16740202  0.83449251  0.16771631  1
  Fe  Fe8  1  0.00226898  0.66971344  0.33483339  1
  Fe  Fe9  1  0.33523710  1.00039584  0.00192709  1
  Fe  Fe10  1  0.49980128  0.16803417  0.16777857  1
  Fe  Fe11  1  0.33446998  0.00122412  0.33438333  1
  Fe  Fe12  1  0.33523637  0.33523643  0.00195013  1
  Fe  Fe13  1  0.49984655  0.50090604  0.16782869  1
  Fe  Fe14  1  0.33446952  0.33449646  0.33444780  1
  Fe  Fe15  1  0.33446771  0.66777606  1.00111113  1
  Fe  Fe16  1  0.50153761  0.83446887  0.16774122  1
  Fe  Fe17  1  0.33449316  0.66768881  0.33443231  1
  Fe  Fe18  1  0.66705968  1.00036577  1.00033900  1
  Cr  Cr19  1  0.83501963  0.16727658  0.16807761  1
  Fe  Fe20  1  0.66744678  0.99997740  0.33563048  1
  Fe  Fe21  1  0.66626154  0.33446907  0.99954468  1
  Cr  Cr22  1  0.83405508  0.50263228  0.16821600  1
  Fe  Fe23  1  0.66542309  0.33372049  0.33520266  1
  Fe  Fe24  1  0.66705935  0.66857571  1.00015548  1
  Fe  Fe25  1  0.83446980  0.83444744  0.16844467  1
  Fe  Fe26  1  0.66664693  0.66971459  0.33504044  1
  Fe  Fe27  1  0.16693148  0.16741950  0.50134413  1
  Fe  Fe28  1  0.99974830  0.99977690  0.66665052  1
  Cr  Cr29  1  0.16829087  0.16717678  0.83523190  1
  Fe  Fe30  1  0.16870805  0.50175470  0.50116086  1
  Fe  Fe31  1  1.00097298  0.33469361  0.66787410  1
  Fe  Fe32  1  0.16775384  0.50269043  0.83444434  1
  Fe  Fe33  1  0.16684252  0.83423581  0.50118552  1
  Fe  Fe34  1  0.00310081  0.66894035  0.66822972  1
  Fe  Fe35  1  0.16786427  0.83291203  0.83450723  1
  Fe  Fe36  1  0.50201047  0.16741870  0.50116095  1
  Fe  Fe37  1  0.33546630  1.00020203  0.66710126  1
  Fe  Fe38  1  0.50271921  0.16780284  0.83446954  1
  Fe  Fe39  1  0.49946352  0.50098377  0.50034269  1
  Fe  Fe40  1  0.33546460  0.33549125  0.66701381  1
  Fe  Fe41  1  0.50018313  0.50013413  0.83523915  1
  Fe  Fe42  1  0.50132847  0.83500910  0.50036611  1
  Fe  Fe43  1  0.33290327  0.66771493  0.66786569  1
  Fe  Fe44  1  0.50007196  0.83547287  0.83530223  1
  Fe  Fe45  1  0.83446758  0.16555712  0.50093023  1
  Fe  Fe46  1  0.66819778  0.00233754  0.66743597  1
  Fe  Fe47  1  0.83291580  0.16791336  0.83473790  1
  Cr  Cr48  1  0.83486861  0.50106258  0.49963151  1
  Fe  Fe49  1  0.66697357  0.33213758  0.66866016  1
  Fe  Fe50  1  0.83547128  0.50004846  0.83532629  1
  Ni  Ni51  1  0.83515815  0.83654096  0.49931209  1
  Cr  Cr52  1  0.66721807  0.66885418  0.66838389  1
  Fe  Fe53  1  0.83547302  0.83544908  0.83464869  1
" 