6698,Ni3Fe31Cr64_1,-212.54133032561, 193.149264487163,Ni3Fe31Cr64,"# generated using pymatgen
 data_Cr18Fe8Ni
_symmetry_space_group_name_H-M   'P 1'
_cell_length_a   7.55787582
_cell_length_b   7.55787582
_cell_length_c   10.68845049
_cell_angle_alpha   90.00000000
_cell_angle_beta   90.00000000
_cell_angle_gamma   90.00000000
_symmetry_Int_Tables_number   1
_chemical_formula_structural   Cr18Fe8Ni
_chemical_formula_sum   'Cr36 Fe16 Ni2'
_cell_volume   610.54018524
_cell_formula_units_Z   2
loop_
 _symmetry_equiv_pos_site_id
 _symmetry_equiv_pos_as_xyz
  1  'x, y, z'
loop_
 _atom_site_type_symbol
 _atom_site_label
 _atom_site_symmetry_multiplicity
 _atom_site_fract_x
 _atom_site_fract_y
 _atom_site_fract_z
 _atom_site_occupancy
  Cr  Cr0  1  0.99334686  0.99344774  -0.00407954  1
  Cr  Cr1  1  0.16130662  0.15945379  0.15905972  1
  Cr  Cr2  1  0.99155860  -0.00523386  0.32678577  1
  Cr  Cr3  1  0.99332576  0.32752119  -0.00551885  1
  Cr  Cr4  1  0.16087248  0.49498829  0.16125814  1
  Cr  Cr5  1  0.99262145  0.32532119  0.32661133  1
  Ni  Ni6  1  0.99308854  0.66199977  0.99345639  1
  Cr  Cr7  1  0.16078773  0.82753241  0.16171145  1
  Cr  Cr8  1  -0.00368137  0.66188482  0.32752848  1
  Fe  Fe9  1  0.32757771  0.99285415  -0.00596706  1
  Cr  Cr10  1  0.49383530  0.16028837  0.15987944  1
  Cr  Cr11  1  0.32798666  0.99127234  0.32649359  1
  Cr  Cr12  1  0.32757186  0.32827841  0.99272204  1
  Ni  Ni13  1  0.49559268  0.49621829  0.16177557  1
  Cr  Cr14  1  0.32912445  0.33101589  0.32931079  1
  Cr  Cr15  1  0.32884638  0.66201265  -0.00431457  1
  Fe  Fe16  1  0.49429560  0.82518124  0.16038054  1
  Fe  Fe17  1  0.32899551  0.65982065  0.32650856  1
  Cr  Cr18  1  0.66006639  0.99216133  -0.00439885  1
  Fe  Fe19  1  0.82692688  0.16038368  0.16060504  1
  Cr  Cr20  1  0.66243001  -0.00502970  0.32689263  1
  Cr  Cr21  1  0.66107369  0.32781146  -0.00437887  1
  Cr  Cr22  1  0.82577493  0.49573419  0.15793390  1
  Cr  Cr23  1  0.66022737  0.32625533  0.32824872  1
  Fe  Fe24  1  0.66120377  0.66089424  -0.00469821  1
  Fe  Fe25  1  0.82660372  0.82643708  0.15942278  1
  Cr  Cr26  1  0.65674012  0.66074822  0.32560858  1
  Cr  Cr27  1  0.16257884  0.15993380  0.49535508  1
  Fe  Fe28  1  0.99361049  0.99361479  0.66025716  1
  Cr  Cr29  1  0.16397989  0.15937235  0.82755802  1
  Cr  Cr30  1  0.16157833  0.49432132  0.49301574  1
  Cr  Cr31  1  -0.00599392  0.32641417  0.66088222  1
  Cr  Cr32  1  0.15862525  0.49393575  0.82769780  1
  Cr  Cr33  1  0.15998538  0.82771860  0.49386348  1
  Fe  Fe34  1  0.99316535  0.66135002  0.66108018  1
  Cr  Cr35  1  0.16023926  0.82866806  0.82639946  1
  Fe  Fe36  1  0.49437639  0.16100279  0.49515712  1
  Fe  Fe37  1  0.32808332  -0.00510612  0.66057324  1
  Cr  Cr38  1  0.49134708  0.15853116  0.82619737  1
  Fe  Fe39  1  0.49353759  0.49371882  0.49396097  1
  Fe  Fe40  1  0.32809907  0.32658638  0.65989690  1
  Cr  Cr41  1  0.49608041  0.49414055  0.82726998  1
  Cr  Cr42  1  0.49461718  0.82826148  0.49439116  1
  Cr  Cr43  1  0.32806660  0.66079708  0.65961118  1
  Fe  Fe44  1  0.49436516  0.82775109  0.82682009  1
  Fe  Fe45  1  0.82664116  0.15980539  0.49484009  1
  Fe  Fe46  1  0.66028057  0.99360213  0.66027555  1
  Cr  Cr47  1  0.82664656  0.16014961  0.82679415  1
  Cr  Cr48  1  0.82607043  0.49507253  0.49560564  1
  Cr  Cr49  1  0.65966691  0.32620730  0.65810796  1
  Cr  Cr50  1  0.82727089  0.49787985  0.82843237  1
  Cr  Cr51  1  0.82737097  0.82726749  0.49647423  1
  Fe  Fe52  1  0.66070199  0.66133091  0.66055115  1
  Cr  Cr53  1  0.82643147  0.82394187  0.82561658  1
" 