8207,Ni3Fe90Cr6_18,-222.95011666448, 127.700879047057,Ni3Fe90Cr6,"# generated using pymatgen
 data_Cr5Fe48Ni
_symmetry_space_group_name_H-M   'P 1'
_cell_length_a   7.45221835
_cell_length_b   7.45221835
_cell_length_c   10.53902827
_cell_angle_alpha   90.00000000
_cell_angle_beta   90.00000000
_cell_angle_gamma   90.00000000
_symmetry_Int_Tables_number   1
_chemical_formula_structural   Cr5Fe48Ni
_chemical_formula_sum   'Cr5 Fe48 Ni1'
_cell_volume   585.29081971
_cell_formula_units_Z   1
loop_
 _symmetry_equiv_pos_site_id
 _symmetry_equiv_pos_as_xyz
  1  'x, y, z'
loop_
 _atom_site_type_symbol
 _atom_site_label
 _atom_site_symmetry_multiplicity
 _atom_site_fract_x
 _atom_site_fract_y
 _atom_site_fract_z
 _atom_site_occupancy
  Fe  Fe0  1  0.99863783  0.00129942  0.99888246  1
  Cr  Cr1  1  0.16677026  0.16788404  0.16686247  1
  Fe  Fe2  1  0.99934776  0.00126784  0.33591846  1
  Fe  Fe3  1  0.99740000  0.33331712  0.99955772  1
  Cr  Cr4  1  0.16734326  0.50079898  0.16809358  1
  Fe  Fe5  1  0.99887056  0.33407317  0.33622514  1
  Fe  Fe6  1  0.99802452  0.66825374  1.00001865  1
  Cr  Cr7  1  0.16824564  0.83427802  0.16741624  1
  Fe  Fe8  1  0.99914036  0.66764029  0.33637027  1
  Fe  Fe9  1  0.33559340  0.00161447  0.99876058  1
  Fe  Fe10  1  0.50184653  0.16914573  0.16785525  1
  Fe  Fe11  1  0.33480466  0.00199036  0.33651035  1
  Fe  Fe12  1  0.33724020  0.33369188  0.99995430  1
  Fe  Fe13  1  0.50206128  0.49947739  0.16768421  1
  Fe  Fe14  1  0.33600988  0.33416358  0.33625416  1
  Fe  Fe15  1  0.33667263  0.66780503  0.99938794  1
  Cr  Cr16  1  0.50248952  0.83494529  0.16850076  1
  Fe  Fe17  1  0.33531265  0.66686703  0.33702115  1
  Fe  Fe18  1  0.66880312  0.00217735  0.99962453  1
  Fe  Fe19  1  0.83258106  0.16714068  0.16684290  1
  Fe  Fe20  1  0.66896415  0.00232960  0.33564689  1
  Fe  Fe21  1  0.66827531  0.33369797  1.00034682  1
  Fe  Fe22  1  0.83287572  0.50133612  0.16778723  1
  Fe  Fe23  1  0.66792843  0.33420535  0.33462461  1
  Fe  Fe24  1  0.66851328  0.66687148  1.00010772  1
  Fe  Fe25  1  0.83518368  0.83448621  0.16785093  1
  Fe  Fe26  1  0.66872792  0.66650115  0.33560051  1
  Fe  Fe27  1  0.16746913  0.16771736  0.50090082  1
  Fe  Fe28  1  1.00056007  0.00138217  0.66794614  1
  Fe  Fe29  1  0.16651340  0.16653627  0.83435630  1
  Fe  Fe30  1  0.16740171  0.50073688  0.50142812  1
  Fe  Fe31  1  0.99975348  0.33299094  0.66734693  1
  Cr  Cr32  1  0.16751939  0.50085467  0.83396438  1
  Fe  Fe33  1  0.16743644  0.83453874  0.50092567  1
  Fe  Fe34  1  1.00022665  0.66854202  0.66672879  1
  Fe  Fe35  1  0.16672337  0.83649517  0.83438407  1
  Fe  Fe36  1  0.50166353  0.16764044  0.50139033  1
  Fe  Fe37  1  0.33437109  1.00094727  0.66751295  1
  Fe  Fe38  1  0.50162643  0.16815558  0.83375256  1
  Fe  Fe39  1  0.50171669  0.50076189  0.50151875  1
  Fe  Fe40  1  0.33511152  0.33346582  0.66672914  1
  Fe  Fe41  1  0.50363974  0.50005264  0.83378953  1
  Fe  Fe42  1  0.50173931  0.83457929  0.50093959  1
  Fe  Fe43  1  0.33519361  0.66862043  0.66694298  1
  Fe  Fe44  1  0.50199448  0.83482786  0.83423915  1
  Fe  Fe45  1  0.83384056  0.16764388  0.50239266  1
  Fe  Fe46  1  0.66790453  0.00123737  0.66801950  1
  Ni  Ni47  1  0.83329938  0.16742436  0.83306828  1
  Fe  Fe48  1  0.83387467  0.50081782  0.50146882  1
  Fe  Fe49  1  0.66803135  0.33380952  0.66790286  1
  Fe  Fe50  1  0.83271523  0.49990018  0.83374099  1
  Fe  Fe51  1  0.83380533  0.83449535  0.50137179  1
  Fe  Fe52  1  0.66761456  0.66780730  0.66751095  1
  Fe  Fe53  1  0.83431831  0.83448713  0.83374977  1
" 