3662,Ni3Fe48Cr47_12,-217.024914885088, 176.110748234447,Ni3Fe48Cr47,"# generated using pymatgen
 data_Cr27Fe25Ni2
_symmetry_space_group_name_H-M   'P 1'
_cell_length_a   7.52782211
_cell_length_b   7.52782211
_cell_length_c   10.64594813
_cell_angle_alpha   90.00000000
_cell_angle_beta   90.00000000
_cell_angle_gamma   90.00000000
_symmetry_Int_Tables_number   1
_chemical_formula_structural   Cr27Fe25Ni2
_chemical_formula_sum   'Cr27 Fe25 Ni2'
_cell_volume   603.28571439
_cell_formula_units_Z   1
loop_
 _symmetry_equiv_pos_site_id
 _symmetry_equiv_pos_as_xyz
  1  'x, y, z'
loop_
 _atom_site_type_symbol
 _atom_site_label
 _atom_site_symmetry_multiplicity
 _atom_site_fract_x
 _atom_site_fract_y
 _atom_site_fract_z
 _atom_site_occupancy
  Ni  Ni0  1  0.99309057  -0.00029325  0.99506035  1
  Cr  Cr1  1  0.15910787  0.16433801  0.16412794  1
  Fe  Fe2  1  -0.00340798  -0.00232193  0.33020785  1
  Fe  Fe3  1  0.99373775  0.32655255  0.99398845  1
  Cr  Cr4  1  0.16213397  0.49030748  0.16138043  1
  Fe  Fe5  1  -0.00403503  0.32767511  0.33095080  1
  Cr  Cr6  1  0.99573938  0.66278578  0.99545455  1
  Cr  Cr7  1  0.16208873  0.83300527  0.16360469  1
  Cr  Cr8  1  -0.00380062  0.66333153  0.33117474  1
  Cr  Cr9  1  0.32971154  -0.00201076  -0.00163409  1
  Fe  Fe10  1  0.49696925  0.16354687  0.16317990  1
  Fe  Fe11  1  0.32947088  -0.00264907  0.33173655  1
  Fe  Fe12  1  0.33022483  0.32768934  0.99431120  1
  Cr  Cr13  1  0.49656989  0.49633447  0.16067938  1
  Cr  Cr14  1  0.33221189  0.32533495  0.33148795  1
  Cr  Cr15  1  0.32739402  0.66213185  0.99531441  1
  Cr  Cr16  1  0.49853703  0.82934177  0.16301474  1
  Cr  Cr17  1  0.32668648  0.66470277  0.32946143  1
  Cr  Cr18  1  0.66244486  0.00206734  -0.00380640  1
  Fe  Fe19  1  0.82992123  0.16249032  0.16257667  1
  Fe  Fe20  1  0.66197783  -0.00314306  0.32954258  1
  Fe  Fe21  1  0.66338481  0.32920630  0.99397257  1
  Cr  Cr22  1  0.82951375  0.49204246  0.16226432  1
  Cr  Cr23  1  0.66320007  0.32570527  0.32972903  1
  Fe  Fe24  1  0.66398278  0.66166019  0.99447307  1
  Cr  Cr25  1  0.82735181  0.83189673  0.16263486  1
  Cr  Cr26  1  0.66527078  0.66050225  0.33120834  1
  Ni  Ni27  1  0.16180856  0.16117402  0.49541395  1
  Fe  Fe28  1  0.99542541  -0.00244435  0.66160690  1
  Cr  Cr29  1  0.16026662  0.16589800  0.82893104  1
  Cr  Cr30  1  0.16424144  0.49120453  0.49603204  1
  Cr  Cr31  1  0.99390639  0.33056816  0.66295634  1
  Fe  Fe32  1  0.16402843  0.49569625  0.82878060  1
  Fe  Fe33  1  0.16146703  0.83356905  0.49621926  1
  Cr  Cr34  1  -0.00376655  0.66401612  0.66077216  1
  Cr  Cr35  1  0.16244169  0.83205696  0.82846598  1
  Fe  Fe36  1  0.49434073  0.16203575  0.49661136  1
  Cr  Cr37  1  0.32966552  -0.00181000  0.66117016  1
  Fe  Fe38  1  0.49624468  0.16403797  0.82923552  1
  Fe  Fe39  1  0.49613288  0.49421107  0.49758717  1
  Fe  Fe40  1  0.32914717  0.32974146  0.66183642  1
  Fe  Fe41  1  0.49562309  0.49396013  0.82965091  1
  Cr  Cr42  1  0.49945252  0.82768649  0.49678622  1
  Fe  Fe43  1  0.33055603  0.65950621  0.66256063  1
  Cr  Cr44  1  0.49880489  0.82635091  0.82884369  1
  Cr  Cr45  1  0.83218574  0.16063129  0.49535518  1
  Fe  Fe46  1  0.66429722  -0.00320277  0.66221600  1
  Fe  Fe47  1  0.82864525  0.16310605  0.82977920  1
  Fe  Fe48  1  0.82845253  0.49545587  0.49641647  1
  Cr  Cr49  1  0.66044728  0.32770835  0.66265260  1
  Fe  Fe50  1  0.82790543  0.49506587  0.83053322  1
  Fe  Fe51  1  0.83125125  0.83124518  0.49699294  1
  Fe  Fe52  1  0.66269024  0.66068980  0.66128724  1
  Cr  Cr53  1  0.82688059  0.83163149  0.82723090  1
" 