3246,Ni3Fe48Cr47_3,-217.04613467831, 172.63878665967,Ni3Fe48Cr47,"# generated using pymatgen
 data_Cr27Fe25Ni2
_symmetry_space_group_name_H-M   'P 1'
_cell_length_a   7.52589808
_cell_length_b   7.52589808
_cell_length_c   10.64322714
_cell_angle_alpha   90.00000000
_cell_angle_beta   90.00000000
_cell_angle_gamma   90.00000000
_symmetry_Int_Tables_number   1
_chemical_formula_structural   Cr27Fe25Ni2
_chemical_formula_sum   'Cr27 Fe25 Ni2'
_cell_volume   602.82325230
_cell_formula_units_Z   1
loop_
 _symmetry_equiv_pos_site_id
 _symmetry_equiv_pos_as_xyz
  1  'x, y, z'
loop_
 _atom_site_type_symbol
 _atom_site_label
 _atom_site_symmetry_multiplicity
 _atom_site_fract_x
 _atom_site_fract_y
 _atom_site_fract_z
 _atom_site_occupancy
  Fe  Fe0  1  0.99444641  -0.00057774  0.99454183  1
  Cr  Cr1  1  0.15950277  0.16100309  0.16319746  1
  Fe  Fe2  1  0.99498160  0.99465076  0.32948734  1
  Fe  Fe3  1  0.99403784  0.32837765  0.99591336  1
  Ni  Ni4  1  0.16182760  0.49444177  0.16311285  1
  Cr  Cr5  1  -0.00257661  0.33177051  0.32644762  1
  Cr  Cr6  1  0.99405172  0.65980070  -0.00174918  1
  Cr  Cr7  1  0.16168330  0.82934186  0.16112018  1
  Fe  Fe8  1  -0.00376936  0.66343369  0.32789709  1
  Fe  Fe9  1  0.32953802  -0.00250904  0.99556625  1
  Fe  Fe10  1  0.49792616  0.16326385  0.16206966  1
  Cr  Cr11  1  0.33117650  -0.00099513  0.32805525  1
  Cr  Cr12  1  0.32769805  0.32605038  -0.00242453  1
  Cr  Cr13  1  0.49810932  0.49458384  0.16278919  1
  Fe  Fe14  1  0.33024061  0.32953176  0.32735095  1
  Fe  Fe15  1  0.32804795  0.66074842  -0.00283588  1
  Cr  Cr16  1  0.49636077  0.82909195  0.15716929  1
  Cr  Cr17  1  0.32762638  0.66244393  0.32897690  1
  Fe  Fe18  1  0.66415165  -0.00085299  0.99520691  1
  Fe  Fe19  1  0.82782890  0.16514366  0.16138780  1
  Cr  Cr20  1  0.66242125  -0.00374001  0.33037891  1
  Fe  Fe21  1  0.66597077  0.32799055  0.99556861  1
  Fe  Fe22  1  0.83081780  0.49452531  0.16228430  1
  Fe  Fe23  1  0.66225502  0.32857041  0.32709712  1
  Fe  Fe24  1  0.66418151  0.66155739  0.99541350  1
  Cr  Cr25  1  0.83041069  0.83285128  0.16321647  1
  Cr  Cr26  1  0.66638739  0.66481570  0.33145149  1
  Cr  Cr27  1  0.15922081  0.16170996  0.49818129  1
  Fe  Fe28  1  0.99394872  -0.00201882  0.66520739  1
  Fe  Fe29  1  0.16119181  0.16161720  0.82938995  1
  Cr  Cr30  1  0.16283501  0.49528563  0.49639078  1
  Ni  Ni31  1  0.99592098  0.32608846  0.66814682  1
  Cr  Cr32  1  0.16264634  0.49569010  0.82770281  1
  Cr  Cr33  1  0.16075364  0.83137317  0.49558469  1
  Cr  Cr34  1  0.99340230  0.66216706  0.66123056  1
  Cr  Cr35  1  0.16302098  0.83231223  0.83143571  1
  Cr  Cr36  1  0.49773830  0.16414465  0.49482164  1
  Fe  Fe37  1  0.33006216  0.99549825  0.66334345  1
  Fe  Fe38  1  0.49607697  0.16075130  0.83025165  1
  Cr  Cr39  1  0.49609583  0.49601390  0.49603237  1
  Cr  Cr40  1  0.32707302  0.32550543  0.66217428  1
  Cr  Cr41  1  0.49791409  0.49722646  0.82977664  1
  Fe  Fe42  1  0.49579275  0.83079018  0.49833144  1
  Fe  Fe43  1  0.32925336  0.66404467  0.66216794  1
  Cr  Cr44  1  0.49591428  0.82930154  0.83119281  1
  Cr  Cr45  1  0.83134561  0.16143835  0.49607928  1
  Fe  Fe46  1  0.66442411  -0.00326984  0.66360764  1
  Fe  Fe47  1  0.83095243  0.16205609  0.82998774  1
  Cr  Cr48  1  0.82939897  0.49295546  0.49525845  1
  Cr  Cr49  1  0.66454080  0.32790959  0.66495494  1
  Fe  Fe50  1  0.83008838  0.49480117  0.83014378  1
  Fe  Fe51  1  0.83016243  0.83136431  0.49600437  1
  Cr  Cr52  1  0.66449597  0.66765908  0.66178990  1
  Fe  Fe53  1  0.82926329  0.83113822  0.83098831  1
" 