5062,Ni3Fe65Cr31_19,-220.160355588298, 162.038695318818,Ni3Fe65Cr31,"# generated using pymatgen
 data_Cr18Fe35Ni
_symmetry_space_group_name_H-M   'P 1'
_cell_length_a   7.49623014
_cell_length_b   7.49623014
_cell_length_c   10.60127033
_cell_angle_alpha   90.00000000
_cell_angle_beta   90.00000000
_cell_angle_gamma   90.00000000
_symmetry_Int_Tables_number   1
_chemical_formula_structural   Cr18Fe35Ni
_chemical_formula_sum   'Cr18 Fe35 Ni1'
_cell_volume   595.72212720
_cell_formula_units_Z   1
loop_
 _symmetry_equiv_pos_site_id
 _symmetry_equiv_pos_as_xyz
  1  'x, y, z'
loop_
 _atom_site_type_symbol
 _atom_site_label
 _atom_site_symmetry_multiplicity
 _atom_site_fract_x
 _atom_site_fract_y
 _atom_site_fract_z
 _atom_site_occupancy
  Cr  Cr0  1  -0.00026895  -0.00125978  0.99780187  1
  Fe  Fe1  1  0.16498999  0.16607562  0.16636687  1
  Fe  Fe2  1  0.00019193  0.99780017  0.33113461  1
  Fe  Fe3  1  0.00117739  0.33204677  0.99665985  1
  Fe  Fe4  1  0.16470257  0.49456576  0.16450641  1
  Fe  Fe5  1  0.00002629  0.33238747  0.33183635  1
  Cr  Cr6  1  -0.00097339  0.66410898  -0.00064277  1
  Fe  Fe7  1  0.16370205  0.83372901  0.16620874  1
  Cr  Cr8  1  -0.00190611  0.66611082  0.33187940  1
  Cr  Cr9  1  0.33021548  0.99733644  0.99743291  1
  Cr  Cr10  1  0.49720700  0.16511377  0.16673572  1
  Fe  Fe11  1  0.32841492  0.99764519  0.33128546  1
  Fe  Fe12  1  0.32781545  0.33168957  -0.00181093  1
  Fe  Fe13  1  0.49912836  0.49686825  0.16489256  1
  Fe  Fe14  1  0.32887033  0.33265300  0.33162217  1
  Cr  Cr15  1  0.33024986  0.66556699  -0.00108521  1
  Cr  Cr16  1  0.50059126  0.83100916  0.16297011  1
  Cr  Cr17  1  0.33131308  0.66541398  0.33068510  1
  Fe  Fe18  1  0.66551040  0.99661134  0.99738789  1
  Cr  Cr19  1  0.83292466  0.16432189  0.16497845  1
  Fe  Fe20  1  0.66606299  0.99504553  0.33151587  1
  Cr  Cr21  1  0.66662411  0.33185486  0.99648222  1
  Fe  Fe22  1  0.83017669  0.49837901  0.16567877  1
  Fe  Fe23  1  0.66529222  0.33502951  0.33155722  1
  Fe  Fe24  1  0.66581584  0.66524998  -0.00191408  1
  Fe  Fe25  1  0.83135262  0.83087138  0.16514218  1
  Fe  Fe26  1  0.66524922  0.66375056  0.33169991  1
  Fe  Fe27  1  0.16492024  0.16410534  0.49772727  1
  Fe  Fe28  1  -0.00072098  0.99719591  0.66492144  1
  Fe  Fe29  1  0.16455332  0.16608838  0.83076433  1
  Fe  Fe30  1  0.16538395  0.49718342  0.49968010  1
  Cr  Cr31  1  0.99648529  0.33150683  0.66644800  1
  Ni  Ni32  1  0.16335075  0.49786573  0.83126807  1
  Fe  Fe33  1  0.16367828  0.83334504  0.49956495  1
  Fe  Fe34  1  -0.00100185  0.66456796  0.66438263  1
  Fe  Fe35  1  0.16568487  0.82963452  0.82863645  1
  Cr  Cr36  1  0.49659961  0.16504885  0.49575983  1
  Fe  Fe37  1  0.32903294  -0.00170027  0.66535412  1
  Cr  Cr38  1  0.49800752  0.16279319  0.83101620  1
  Fe  Fe39  1  0.49775081  0.49829608  0.49809711  1
  Fe  Fe40  1  0.32924131  0.33204129  0.66435807  1
  Cr  Cr41  1  0.49472163  0.49942182  0.83113123  1
  Cr  Cr42  1  0.49855501  0.83097485  0.50072699  1
  Fe  Fe43  1  0.32870079  0.66354296  0.66480667  1
  Fe  Fe44  1  0.49669982  0.83008105  0.82935662  1
  Cr  Cr45  1  0.83286889  0.16295022  0.49657066  1
  Fe  Fe46  1  0.66571037  0.99767227  0.66482452  1
  Fe  Fe47  1  0.83330456  0.16527576  0.83152823  1
  Fe  Fe48  1  0.83073950  0.49977705  0.49745799  1
  Cr  Cr49  1  0.66479951  0.33173305  0.66359105  1
  Fe  Fe50  1  0.83256992  0.49909628  0.83153035  1
  Fe  Fe51  1  0.83231480  0.83060654  0.49944015  1
  Fe  Fe52  1  0.66603884  0.66429148  0.66424828  1
  Cr  Cr53  1  0.83044412  0.83151921  0.83069111  1
" 