8511,Ni3Fe48Cr47_9,-217.599586738587, 176.406751436168,Ni3Fe48Cr47,"# generated using pymatgen
 data_Cr27Fe25Ni2
_symmetry_space_group_name_H-M   'P 1'
_cell_length_a   7.53998455
_cell_length_b   7.53998455
_cell_length_c   10.66314841
_cell_angle_alpha   90.00000000
_cell_angle_beta   90.00000000
_cell_angle_gamma   90.00000000
_symmetry_Int_Tables_number   1
_chemical_formula_structural   Cr27Fe25Ni2
_chemical_formula_sum   'Cr27 Fe25 Ni2'
_cell_volume   606.21456420
_cell_formula_units_Z   1
loop_
 _symmetry_equiv_pos_site_id
 _symmetry_equiv_pos_as_xyz
  1  'x, y, z'
loop_
 _atom_site_type_symbol
 _atom_site_label
 _atom_site_symmetry_multiplicity
 _atom_site_fract_x
 _atom_site_fract_y
 _atom_site_fract_z
 _atom_site_occupancy
  Fe  Fe0  1  -0.00396726  0.99438388  -0.00274403  1
  Fe  Fe1  1  0.16144087  0.16000244  0.16079002  1
  Cr  Cr2  1  0.99452199  -0.00423536  0.32911305  1
  Cr  Cr3  1  -0.00289460  0.32894582  0.99208443  1
  Cr  Cr4  1  0.16023943  0.49812678  0.16079950  1
  Cr  Cr5  1  0.99508448  0.32734961  0.33240257  1
  Fe  Fe6  1  0.99407426  0.66401919  -0.00311490  1
  Fe  Fe7  1  0.16146975  0.83192342  0.16041643  1
  Cr  Cr8  1  0.99508508  0.66363013  0.32783039  1
  Fe  Fe9  1  0.32985508  0.99513182  -0.00312294  1
  Fe  Fe10  1  0.49444178  0.15853903  0.16118226  1
  Fe  Fe11  1  0.32808814  0.99500136  0.32647750  1
  Cr  Cr12  1  0.32680843  0.32975413  0.99453284  1
  Fe  Fe13  1  0.49588012  0.49570083  0.16183900  1
  Cr  Cr14  1  0.32680105  0.32825265  0.32428167  1
  Cr  Cr15  1  0.32801384  0.66242864  0.99458836  1
  Fe  Fe16  1  0.49650902  0.83012144  0.16075388  1
  Cr  Cr17  1  0.32943813  0.66408711  0.32647976  1
  Ni  Ni18  1  0.66114824  0.98955533  -0.00395252  1
  Cr  Cr19  1  0.82652962  0.16082678  0.16053714  1
  Cr  Cr20  1  0.66228572  0.99407631  0.33112174  1
  Cr  Cr21  1  0.66064320  0.32606484  -0.00342733  1
  Cr  Cr22  1  0.82642329  0.49682101  0.16288034  1
  Fe  Fe23  1  0.66243881  0.32818116  0.32817091  1
  Fe  Fe24  1  0.66030427  0.66254200  -0.00304910  1
  Fe  Fe25  1  0.82789117  0.82913810  0.16020566  1
  Cr  Cr26  1  0.66158394  0.66477317  0.33010866  1
  Fe  Fe27  1  0.16152003  0.16139209  0.49763733  1
  Fe  Fe28  1  0.99420562  0.99454109  0.66009285  1
  Cr  Cr29  1  0.16305258  0.15901578  0.82606924  1
  Cr  Cr30  1  0.16270037  0.49678549  0.49876843  1
  Fe  Fe31  1  -0.00450296  0.32780560  0.66159785  1
  Fe  Fe32  1  0.16119812  0.49618947  0.82498382  1
  Cr  Cr33  1  0.16258956  0.83044298  0.49456924  1
  Fe  Fe34  1  0.99256483  0.66386504  0.66121502  1
  Cr  Cr35  1  0.16128173  0.82840001  0.82862151  1
  Cr  Cr36  1  0.49316167  0.16134136  0.49255695  1
  Fe  Fe37  1  0.32939141  0.99425784  0.66101919  1
  Cr  Cr38  1  0.49498375  0.15966275  0.83047487  1
  Cr  Cr39  1  0.49633451  0.49417010  0.49308835  1
  Fe  Fe40  1  0.32885354  0.32779702  0.66193279  1
  Cr  Cr41  1  0.49576730  0.49597769  0.82714775  1
  Fe  Fe42  1  0.49528128  0.82787162  0.49681876  1
  Fe  Fe43  1  0.33050122  0.66380161  0.66241122  1
  Fe  Fe44  1  0.49580970  0.82878496  0.82920212  1
  Fe  Fe45  1  0.82987941  0.16026661  0.49665934  1
  Cr  Cr46  1  0.66232102  0.99135156  0.66165138  1
  Cr  Cr47  1  0.82821682  0.15922138  0.83015231  1
  Fe  Fe48  1  0.82928739  0.49752258  0.49642129  1
  Cr  Cr49  1  0.66399059  0.32647152  0.66022227  1
  Cr  Cr50  1  0.82830198  0.49790665  0.82898159  1
  Ni  Ni51  1  0.83009754  0.82836633  0.49637966  1
  Fe  Fe52  1  0.66281515  0.66236280  0.66006340  1
  Cr  Cr53  1  0.82907742  0.82810589  0.83289558  1
" 