6928,Ni3Fe90Cr6_15,-222.913351526555, 130.716048210585,Ni3Fe90Cr6,"# generated using pymatgen
 data_Cr5Fe48Ni
_symmetry_space_group_name_H-M   'P 1'
_cell_length_a   7.44626086
_cell_length_b   7.44626086
_cell_length_c   10.53060309
_cell_angle_alpha   90.00000000
_cell_angle_beta   90.00000000
_cell_angle_gamma   90.00000000
_symmetry_Int_Tables_number   1
_chemical_formula_structural   Cr5Fe48Ni
_chemical_formula_sum   'Cr5 Fe48 Ni1'
_cell_volume   583.88825156
_cell_formula_units_Z   1
loop_
 _symmetry_equiv_pos_site_id
 _symmetry_equiv_pos_as_xyz
  1  'x, y, z'
loop_
 _atom_site_type_symbol
 _atom_site_label
 _atom_site_symmetry_multiplicity
 _atom_site_fract_x
 _atom_site_fract_y
 _atom_site_fract_z
 _atom_site_occupancy
  Cr  Cr0  1  0.00381785  0.00417958  1.00055173  1
  Fe  Fe1  1  0.16930189  0.16792338  0.16944585  1
  Fe  Fe2  1  0.00417273  1.00122304  0.33398607  1
  Fe  Fe3  1  0.00200394  0.33653868  1.00116011  1
  Fe  Fe4  1  0.16811352  0.50216711  0.16782958  1
  Fe  Fe5  1  0.00236224  0.33604306  0.33390877  1
  Fe  Fe6  1  0.00323789  0.66697045  1.00098099  1
  Ni  Ni7  1  0.16977827  0.83358362  0.16845518  1
  Fe  Fe8  1  0.00426249  0.66732475  0.33515152  1
  Fe  Fe9  1  0.33620355  1.00132680  0.00181841  1
  Fe  Fe10  1  0.50053044  0.16686706  0.16774913  1
  Fe  Fe11  1  0.33463273  1.00058720  0.33411038  1
  Fe  Fe12  1  0.33373147  0.33364329  0.00154806  1
  Fe  Fe13  1  0.49958230  0.50187121  0.16645096  1
  Fe  Fe14  1  0.33506134  0.33522050  0.33433621  1
  Fe  Fe15  1  0.33366368  0.66863981  0.00158748  1
  Fe  Fe16  1  0.49891518  0.83492635  0.16710458  1
  Fe  Fe17  1  0.33272318  0.66797862  0.33485213  1
  Fe  Fe18  1  0.66665334  0.00272597  1.00035583  1
  Fe  Fe19  1  0.83516575  0.16979875  0.16942113  1
  Fe  Fe20  1  0.66539908  0.00275391  0.33452913  1
  Fe  Fe21  1  0.66838825  0.33382591  0.00165465  1
  Fe  Fe22  1  0.83630560  0.50050042  0.16714836  1
  Fe  Fe23  1  0.66634006  0.33392090  0.33324306  1
  Fe  Fe24  1  0.66757566  0.66742305  1.00036206  1
  Cr  Cr25  1  0.83526818  0.83533327  0.16839733  1
  Cr  Cr26  1  0.66683462  0.66683557  0.33625778  1
  Fe  Fe27  1  0.16937418  0.16829215  0.50176390  1
  Fe  Fe28  1  0.00221411  1.00004013  0.66976679  1
  Fe  Fe29  1  0.16986646  0.16963613  0.83307502  1
  Fe  Fe30  1  0.16800851  0.50037840  0.50175222  1
  Fe  Fe31  1  0.00194687  0.33598277  0.66898907  1
  Fe  Fe32  1  0.16866001  0.50125223  0.83471697  1
  Fe  Fe33  1  0.16790924  0.83551559  0.50053886  1
  Fe  Fe34  1  0.00339579  0.66818778  0.66831069  1
  Fe  Fe35  1  0.16968372  0.83356444  0.83503971  1
  Fe  Fe36  1  0.49871085  0.16817063  0.50156458  1
  Fe  Fe37  1  0.33472790  1.00084174  0.66839212  1
  Fe  Fe38  1  0.50064496  0.16832124  0.83489868  1
  Fe  Fe39  1  0.49915956  0.49827296  0.50158362  1
  Fe  Fe40  1  0.33513257  0.33535785  0.66830211  1
  Fe  Fe41  1  0.49990277  0.50057914  0.83605936  1
  Fe  Fe42  1  0.49947411  0.83744415  0.50172223  1
  Fe  Fe43  1  0.33296757  0.66803845  0.66776123  1
  Fe  Fe44  1  0.50023809  0.83506235  0.83546958  1
  Cr  Cr45  1  0.83346544  0.16756995  0.50111406  1
  Fe  Fe46  1  0.66669673  0.00186851  0.66934600  1
  Fe  Fe47  1  0.83403414  0.16922395  0.83329950  1
  Fe  Fe48  1  0.83732866  0.50074741  0.50139843  1
  Fe  Fe49  1  0.66658865  0.33378832  0.66915158  1
  Fe  Fe50  1  0.83557689  0.50070710  0.83566678  1
  Fe  Fe51  1  0.83714351  0.83483012  0.50091683  1
  Cr  Cr52  1  0.66776788  0.66715968  0.66698501  1
  Fe  Fe53  1  0.83472798  0.83440693  0.83539099  1
" 