1704,Ni3Fe48Cr47_4,-217.058016967803, 175.944745656775,Ni3Fe48Cr47,"# generated using pymatgen
 data_Cr27Fe25Ni2
_symmetry_space_group_name_H-M   'P 1'
_cell_length_a   7.53130228
_cell_length_b   7.53130228
_cell_length_c   10.65086983
_cell_angle_alpha   90.00000000
_cell_angle_beta   90.00000000
_cell_angle_gamma   90.00000000
_symmetry_Int_Tables_number   1
_chemical_formula_structural   Cr27Fe25Ni2
_chemical_formula_sum   'Cr27 Fe25 Ni2'
_cell_volume   604.12281155
_cell_formula_units_Z   1
loop_
 _symmetry_equiv_pos_site_id
 _symmetry_equiv_pos_as_xyz
  1  'x, y, z'
loop_
 _atom_site_type_symbol
 _atom_site_label
 _atom_site_symmetry_multiplicity
 _atom_site_fract_x
 _atom_site_fract_y
 _atom_site_fract_z
 _atom_site_occupancy
  Fe  Fe0  1  -0.00419283  0.99360348  -0.00266675  1
  Fe  Fe1  1  0.16191628  0.16065142  0.16129844  1
  Fe  Fe2  1  -0.00127890  0.99498753  0.32802450  1
  Cr  Cr3  1  -0.00227006  0.32958632  -0.00273536  1
  Fe  Fe4  1  0.16310934  0.49763600  0.16077727  1
  Cr  Cr5  1  -0.00142314  0.32902605  0.32728681  1
  Ni  Ni6  1  -0.00257033  0.66151125  -0.00151333  1
  Fe  Fe7  1  0.16332410  0.82873572  0.15982607  1
  Fe  Fe8  1  -0.00160485  0.66313584  0.32745705  1
  Fe  Fe9  1  0.32788388  0.99418261  -0.00334537  1
  Cr  Cr10  1  0.49407979  0.16634520  0.16279242  1
  Cr  Cr11  1  0.32733145  0.99549896  0.33036666  1
  Fe  Fe12  1  0.33009525  0.33083796  -0.00330744  1
  Fe  Fe13  1  0.49437985  0.49653228  0.16196105  1
  Fe  Fe14  1  0.32784996  0.32960944  0.32800447  1
  Fe  Fe15  1  0.32847911  0.66244857  -0.00207591  1
  Fe  Fe16  1  0.49256303  0.82812697  0.16077952  1
  Cr  Cr17  1  0.32651564  0.66249384  0.32903334  1
  Cr  Cr18  1  0.65909476  0.99387232  0.99550548  1
  Fe  Fe19  1  0.83090170  0.16286999  0.16260439  1
  Cr  Cr20  1  0.66175575  0.99541721  0.32606934  1
  Cr  Cr21  1  0.66442288  0.32930846  0.99443568  1
  Fe  Fe22  1  0.82998088  0.49604001  0.16215282  1
  Fe  Fe23  1  0.66214893  0.32989941  0.32624372  1
  Cr  Cr24  1  0.66150677  0.66426675  0.99297762  1
  Cr  Cr25  1  0.83444392  0.82877686  0.16243967  1
  Cr  Cr26  1  0.66146745  0.66343471  0.32625449  1
  Fe  Fe27  1  0.16220026  0.15968570  0.49627649  1
  Fe  Fe28  1  -0.00017144  0.99497653  0.66190050  1
  Cr  Cr29  1  0.16483935  0.15949039  0.83111868  1
  Fe  Fe30  1  0.16209295  0.49561796  0.49385508  1
  Cr  Cr31  1  -0.00366951  0.32893145  0.66270330  1
  Cr  Cr32  1  0.16437615  0.49828776  0.83229333  1
  Fe  Fe33  1  0.16188270  0.83179779  0.49668263  1
  Cr  Cr34  1  -0.00386963  0.65967917  0.66107609  1
  Cr  Cr35  1  0.16059172  0.82907381  0.83125472  1
  Cr  Cr36  1  0.49527689  0.16527456  0.49695162  1
  Ni  Ni37  1  0.32833827  -0.00316498  0.66275940  1
  Fe  Fe38  1  0.49270855  0.16211330  0.82890724  1
  Cr  Cr39  1  0.49546017  0.49210430  0.49391520  1
  Cr  Cr40  1  0.32514524  0.32736534  0.66155735  1
  Fe  Fe41  1  0.49494621  0.49400440  0.82936356  1
  Cr  Cr42  1  0.49484718  0.82972556  0.49596013  1
  Cr  Cr43  1  0.32919941  0.66493844  0.66045265  1
  Fe  Fe44  1  0.49165300  0.83109750  0.82930837  1
  Cr  Cr45  1  0.82820556  0.16129741  0.49425593  1
  Cr  Cr46  1  0.65936881  0.99398497  0.66552033  1
  Cr  Cr47  1  0.82873368  0.16065287  0.82789013  1
  Cr  Cr48  1  0.82712861  0.49599903  0.49493504  1
  Fe  Fe49  1  0.66065941  0.32963804  0.66511763  1
  Fe  Fe50  1  0.83053071  0.49747841  0.83029194  1
  Cr  Cr51  1  0.83443442  0.82976382  0.49546543  1
  Cr  Cr52  1  0.66228802  0.66333218  0.66800699  1
  Fe  Fe53  1  0.83253731  0.82766373  0.83117822  1
" 