5346,Ni3Fe65Cr31_13,-220.167131211467, 158.761696304666,Ni3Fe65Cr31,"# generated using pymatgen
 data_Cr18Fe35Ni
_symmetry_space_group_name_H-M   'P 1'
_cell_length_a   7.50618476
_cell_length_b   7.50618476
_cell_length_c   10.61534828
_cell_angle_alpha   90.00000000
_cell_angle_beta   90.00000000
_cell_angle_gamma   90.00000000
_symmetry_Int_Tables_number   1
_chemical_formula_structural   Cr18Fe35Ni
_chemical_formula_sum   'Cr18 Fe35 Ni1'
_cell_volume   598.09854688
_cell_formula_units_Z   1
loop_
 _symmetry_equiv_pos_site_id
 _symmetry_equiv_pos_as_xyz
  1  'x, y, z'
loop_
 _atom_site_type_symbol
 _atom_site_label
 _atom_site_symmetry_multiplicity
 _atom_site_fract_x
 _atom_site_fract_y
 _atom_site_fract_z
 _atom_site_occupancy
  Cr  Cr0  1  0.99570976  0.99668034  -0.00234787  1
  Cr  Cr1  1  0.16279556  0.16463155  0.16558999  1
  Fe  Fe2  1  0.99673060  0.99701337  0.33104684  1
  Fe  Fe3  1  0.99736605  0.33042716  0.99617305  1
  Cr  Cr4  1  0.16445531  0.49758708  0.16396466  1
  Fe  Fe5  1  0.99695131  0.32978147  0.33237713  1
  Fe  Fe6  1  -0.00206086  0.66489630  0.99670103  1
  Fe  Fe7  1  0.16243892  0.82910577  0.16460796  1
  Fe  Fe8  1  0.99627938  0.66538451  0.33183673  1
  Cr  Cr9  1  0.33085030  0.99580880  0.99533874  1
  Cr  Cr10  1  0.49720203  0.16543034  0.16319826  1
  Cr  Cr11  1  0.32980046  0.99590229  0.33289853  1
  Fe  Fe12  1  0.33125417  0.33205471  0.99579121  1
  Fe  Fe13  1  0.49665946  0.49778061  0.16364887  1
  Fe  Fe14  1  0.33034594  0.33109781  0.33122223  1
  Fe  Fe15  1  0.33070477  0.66327794  0.99618314  1
  Cr  Cr16  1  0.49800703  0.82834766  0.16439689  1
  Fe  Fe17  1  0.33103051  0.66407243  0.33081794  1
  Cr  Cr18  1  0.66562055  -0.00127250  -0.00146497  1
  Fe  Fe19  1  0.83182332  0.16404083  0.16400990  1
  Cr  Cr20  1  0.66598087  -0.00243209  0.32976694  1
  Fe  Fe21  1  0.66355720  0.33095824  0.99702781  1
  Cr  Cr22  1  0.83057682  0.49838455  0.16381921  1
  Cr  Cr23  1  0.66526181  0.33070730  0.33114266  1
  Fe  Fe24  1  0.66353553  0.66382924  0.99686434  1
  Fe  Fe25  1  0.83250526  0.83037765  0.16455757  1
  Fe  Fe26  1  0.66486901  0.66431272  0.33169769  1
  Fe  Fe27  1  0.16364966  0.16372721  0.49722589  1
  Fe  Fe28  1  -0.00137439  0.99723791  0.66426185  1
  Fe  Fe29  1  0.16442222  0.16476831  0.83033711  1
  Cr  Cr30  1  0.16218934  0.49571786  0.49485165  1
  Cr  Cr31  1  0.99670604  0.33034636  0.66339020  1
  Fe  Fe32  1  0.16567619  0.49684512  0.83239024  1
  Fe  Fe33  1  0.16311228  0.83159695  0.49684972  1
  Cr  Cr34  1  0.99719024  0.66452828  0.66424761  1
  Fe  Fe35  1  0.16388267  0.83056319  0.83073034  1
  Fe  Fe36  1  0.49672647  0.16478061  0.49831859  1
  Fe  Fe37  1  0.32937131  -0.00154575  0.66404657  1
  Fe  Fe38  1  0.49702890  0.16581929  0.83033468  1
  Cr  Cr39  1  0.50007316  0.49777874  0.49680265  1
  Fe  Fe40  1  0.33179378  0.32856121  0.66515797  1
  Fe  Fe41  1  0.49683023  0.49686152  0.83115670  1
  Fe  Fe42  1  0.49782939  0.82999740  0.49724624  1
  Cr  Cr43  1  0.33064416  0.66501993  0.66576992  1
  Fe  Fe44  1  0.49758877  0.82949928  0.83086414  1
  Fe  Fe45  1  0.83180087  0.16524551  0.49739686  1
  Cr  Cr46  1  0.66348001  -0.00184431  0.66387686  1
  Fe  Fe47  1  0.83072807  0.16402793  0.83077231  1
  Ni  Ni48  1  0.82988886  0.49854579  0.49708731  1
  Fe  Fe49  1  0.66344268  0.33145205  0.66346021  1
  Cr  Cr50  1  0.82969385  0.49824777  0.83054371  1
  Fe  Fe51  1  0.83123410  0.82899969  0.49686730  1
  Fe  Fe52  1  0.66465404  0.66349710  0.66361251  1
  Fe  Fe53  1  0.83070840  0.83076133  0.83075675  1
" 