3035,Ni3Fe90Cr6_13,-222.955721942081, 130.522491401972,Ni3Fe90Cr6,"# generated using pymatgen
 data_Cr5Fe48Ni
_symmetry_space_group_name_H-M   'P 1'
_cell_length_a   7.44523144
_cell_length_b   7.44523144
_cell_length_c   10.52914728
_cell_angle_alpha   90.00000000
_cell_angle_beta   90.00000000
_cell_angle_gamma   90.00000000
_symmetry_Int_Tables_number   1
_chemical_formula_structural   Cr5Fe48Ni
_chemical_formula_sum   'Cr5 Fe48 Ni1'
_cell_volume   583.64612473
_cell_formula_units_Z   1
loop_
 _symmetry_equiv_pos_site_id
 _symmetry_equiv_pos_as_xyz
  1  'x, y, z'
loop_
 _atom_site_type_symbol
 _atom_site_label
 _atom_site_symmetry_multiplicity
 _atom_site_fract_x
 _atom_site_fract_y
 _atom_site_fract_z
 _atom_site_occupancy
  Cr  Cr0  1  0.00174198  1.00004532  0.99987993  1
  Cr  Cr1  1  0.16914905  0.16955746  0.16796982  1
  Fe  Fe2  1  0.99847179  0.99952254  0.33534553  1
  Fe  Fe3  1  1.00020403  0.33757033  1.00001339  1
  Fe  Fe4  1  0.16908210  0.50468566  0.16677278  1
  Cr  Cr5  1  0.99947800  0.33652384  0.33547174  1
  Fe  Fe6  1  1.00091207  0.66608025  0.99974700  1
  Fe  Fe7  1  0.16804676  0.83079032  0.16773091  1
  Fe  Fe8  1  1.00107708  0.66997633  0.33534828  1
  Fe  Fe9  1  0.33755255  0.99996270  0.99973571  1
  Fe  Fe10  1  0.50352593  0.16794542  0.16566640  1
  Cr  Cr11  1  0.33549225  0.99904456  0.33543222  1
  Fe  Fe12  1  0.33576473  0.33600380  0.99927153  1
  Fe  Fe13  1  0.49976040  0.50240121  0.16611377  1
  Fe  Fe14  1  0.33529631  0.33710679  0.33671996  1
  Fe  Fe15  1  0.33451909  0.66904201  1.00020553  1
  Fe  Fe16  1  0.50245901  0.83330375  0.16660101  1
  Fe  Fe17  1  0.33534429  0.66435155  0.33537273  1
  Fe  Fe18  1  0.66652309  1.00065828  1.00027594  1
  Fe  Fe19  1  0.83219765  0.16685304  0.16651990  1
  Fe  Fe20  1  0.67005413  1.00013124  0.33532252  1
  Fe  Fe21  1  0.66932525  0.33550837  1.00055474  1
  Fe  Fe22  1  0.83484611  0.50360847  0.16489154  1
  Cr  Cr23  1  0.66763503  0.33645000  0.33552309  1
  Fe  Fe24  1  0.66916670  0.66837261  1.00014066  1
  Fe  Fe25  1  0.83397647  0.83369780  0.16859230  1
  Fe  Fe26  1  0.66801316  0.67001351  0.33497799  1
  Fe  Fe27  1  0.16782810  0.16799849  0.50359273  1
  Fe  Fe28  1  0.00160636  1.00100888  0.66961333  1
  Fe  Fe29  1  0.16831097  0.17069030  0.83387526  1
  Fe  Fe30  1  0.16891160  0.50302663  0.50340671  1
  Fe  Fe31  1  1.00086802  0.33591329  0.66849710  1
  Fe  Fe32  1  0.16747887  0.50161703  0.83426079  1
  Fe  Fe33  1  0.16662926  0.83304339  0.50349195  1
  Fe  Fe34  1  1.00095890  0.66760038  0.66936117  1
  Fe  Fe35  1  0.16846131  0.83205802  0.83306600  1
  Fe  Fe36  1  0.50169527  0.16790141  0.50431386  1
  Fe  Fe37  1  0.33495142  1.00091200  0.66852138  1
  Fe  Fe38  1  0.50287806  0.16951655  0.83425484  1
  Fe  Fe39  1  0.50075588  0.50325701  0.50365911  1
  Fe  Fe40  1  0.33503727  0.33531406  0.66856352  1
  Fe  Fe41  1  0.50272733  0.50169276  0.83463214  1
  Fe  Fe42  1  0.50311112  0.83297537  0.50345921  1
  Fe  Fe43  1  0.33512348  0.66815835  0.66872790  1
  Fe  Fe44  1  0.50281402  0.83321788  0.83419590  1
  Fe  Fe45  1  0.83451455  0.16587891  0.50438718  1
  Fe  Fe46  1  0.66782132  1.00091120  0.66877113  1
  Fe  Fe47  1  0.83347831  0.17030518  0.83331548  1
  Fe  Fe48  1  0.83445653  0.50426550  0.50515256  1
  Fe  Fe49  1  0.66849821  0.33604839  0.66840845  1
  Ni  Ni50  1  0.83433738  0.50195985  0.83421092  1
  Fe  Fe51  1  0.83457215  0.83430364  0.50264441  1
  Fe  Fe52  1  0.66831605  0.66755096  0.66929550  1
  Fe  Fe53  1  0.83335920  0.83278335  0.83324051  1
" 