3832,Ni3Fe40Cr55_10,-215.24150510415, 187.282838417834,Ni3Fe40Cr55,"# generated using pymatgen
 data_Cr31Fe22Ni
_symmetry_space_group_name_H-M   'P 1'
_cell_length_a   7.54748915
_cell_length_b   7.54748915
_cell_length_c   10.67376152
_cell_angle_alpha   90.00000000
_cell_angle_beta   90.00000000
_cell_angle_gamma   90.00000000
_symmetry_Int_Tables_number   1
_chemical_formula_structural   Cr31Fe22Ni
_chemical_formula_sum   'Cr31 Fe22 Ni1'
_cell_volume   608.02647478
_cell_formula_units_Z   1
loop_
 _symmetry_equiv_pos_site_id
 _symmetry_equiv_pos_as_xyz
  1  'x, y, z'
loop_
 _atom_site_type_symbol
 _atom_site_label
 _atom_site_symmetry_multiplicity
 _atom_site_fract_x
 _atom_site_fract_y
 _atom_site_fract_z
 _atom_site_occupancy
  Fe  Fe0  1  -0.00441440  0.99386439  0.99391558  1
  Fe  Fe1  1  0.16153127  0.15763287  0.16124709  1
  Fe  Fe2  1  -0.00520375  0.99189226  0.32905180  1
  Cr  Cr3  1  -0.00286886  0.32427691  0.99389732  1
  Cr  Cr4  1  0.15877054  0.49755082  0.16180644  1
  Cr  Cr5  1  -0.00411750  0.32402961  0.32421354  1
  Fe  Fe6  1  0.99365337  0.66085302  0.99201655  1
  Cr  Cr7  1  0.16242596  0.82795980  0.16378891  1
  Fe  Fe8  1  0.99414378  0.66368118  0.33008866  1
  Fe  Fe9  1  0.32526045  -0.00291572  0.99434922  1
  Cr  Cr10  1  0.49542565  0.15856258  0.16314374  1
  Fe  Fe11  1  0.32743381  -0.00510380  0.32865414  1
  Cr  Cr12  1  0.32578798  0.32749982  -0.00469797  1
  Fe  Fe13  1  0.49601137  0.49484536  0.16130823  1
  Cr  Cr14  1  0.32895681  0.32850693  0.32554219  1
  Cr  Cr15  1  0.33178296  0.65850590  -0.00433541  1
  Cr  Cr16  1  0.49359363  0.83078654  0.15636073  1
  Cr  Cr17  1  0.33046756  0.66101514  0.32934129  1
  Fe  Fe18  1  0.66301679  -0.00503917  0.99379866  1
  Cr  Cr19  1  0.82614900  0.16103458  0.16316889  1
  Fe  Fe20  1  0.66095745  0.99466357  0.32908675  1
  Cr  Cr21  1  0.66082166  0.33132851  -0.00425259  1
  Cr  Cr22  1  0.82931860  0.49467049  0.16185399  1
  Fe  Fe23  1  0.65924163  0.32876293  0.32841735  1
  Fe  Fe24  1  0.66407620  0.66067861  0.99343325  1
  Cr  Cr25  1  0.82860373  0.82792329  0.15879331  1
  Cr  Cr26  1  0.66058169  0.66285598  0.32595008  1
  Cr  Cr27  1  0.16201553  0.16061486  0.49403212  1
  Cr  Cr28  1  0.99269848  0.99273822  0.66061199  1
  Fe  Fe29  1  0.16197345  0.15931736  0.82894204  1
  Cr  Cr30  1  0.15805024  0.49871434  0.49631667  1
  Cr  Cr31  1  -0.00412141  0.32716687  0.66654662  1
  Fe  Fe32  1  0.15985931  0.49619518  0.82778853  1
  Fe  Fe33  1  0.15717515  0.82750633  0.49410659  1
  Ni  Ni34  1  0.99195568  0.66221842  0.66222511  1
  Cr  Cr35  1  0.16176241  0.82504793  0.82682964  1
  Fe  Fe36  1  0.49512961  0.16394860  0.49343825  1
  Cr  Cr37  1  0.32690585  -0.00465884  0.66000393  1
  Cr  Cr38  1  0.49560517  0.15997002  0.82546910  1
  Fe  Fe39  1  0.49652218  0.49195294  0.49465913  1
  Cr  Cr40  1  0.32893424  0.32916227  0.66338612  1
  Fe  Fe41  1  0.49602994  0.49448170  0.82834667  1
  Cr  Cr42  1  0.49178872  0.83165212  0.49424952  1
  Cr  Cr43  1  0.32924123  0.65991687  0.65974872  1
  Cr  Cr44  1  0.49441887  0.82966420  0.83287851  1
  Cr  Cr45  1  0.82343561  0.16391928  0.49289055  1
  Cr  Cr46  1  0.66384506  0.99236090  0.65960449  1
  Cr  Cr47  1  0.82596609  0.16310313  0.82793776  1
  Cr  Cr48  1  0.82948305  0.49332453  0.49517284  1
  Fe  Fe49  1  0.66107649  0.33028928  0.66148291  1
  Fe  Fe50  1  0.82887034  0.49828826  0.82827177  1
  Fe  Fe51  1  0.83085460  0.82642619  0.49348967  1
  Cr  Cr52  1  0.66214072  0.66232427  0.66404632  1
  Fe  Fe53  1  0.82920857  0.82626493  0.82981525  1
" 