7914,Ni3Fe48Cr47_16,-217.401952745339, 178.355045703783,Ni3Fe48Cr47,"# generated using pymatgen
 data_Cr27Fe25Ni2
_symmetry_space_group_name_H-M   'P 1'
_cell_length_a   7.52994232
_cell_length_b   7.52994232
_cell_length_c   10.64894656
_cell_angle_alpha   90.00000000
_cell_angle_beta   90.00000000
_cell_angle_gamma   90.00000000
_symmetry_Int_Tables_number   1
_chemical_formula_structural   Cr27Fe25Ni2
_chemical_formula_sum   'Cr27 Fe25 Ni2'
_cell_volume   603.79560414
_cell_formula_units_Z   1
loop_
 _symmetry_equiv_pos_site_id
 _symmetry_equiv_pos_as_xyz
  1  'x, y, z'
loop_
 _atom_site_type_symbol
 _atom_site_label
 _atom_site_symmetry_multiplicity
 _atom_site_fract_x
 _atom_site_fract_y
 _atom_site_fract_z
 _atom_site_occupancy
  Cr  Cr0  1  -0.00131889  0.99513854  -0.00380231  1
  Ni  Ni1  1  0.16391188  0.16479945  0.16252104  1
  Cr  Cr2  1  -0.00255430  0.99437541  0.32930582  1
  Cr  Cr3  1  -0.00374074  0.33034234  0.99574291  1
  Fe  Fe4  1  0.16384171  0.49550886  0.16297455  1
  Cr  Cr5  1  -0.00248551  0.32979104  0.32713023  1
  Cr  Cr6  1  0.99427362  0.66199577  0.99446596  1
  Fe  Fe7  1  0.16337498  0.82925440  0.16247712  1
  Cr  Cr8  1  0.99423298  0.66330648  0.32967264  1
  Cr  Cr9  1  0.32789317  -0.00278620  -0.00358404  1
  Fe  Fe10  1  0.49550172  0.16382123  0.16298223  1
  Cr  Cr11  1  0.32808739  -0.00226849  0.32722055  1
  Cr  Cr12  1  0.32941414  0.32735818  -0.00236555  1
  Fe  Fe13  1  0.49551195  0.49423726  0.16334670  1
  Fe  Fe14  1  0.32937069  0.33065983  0.32762480  1
  Fe  Fe15  1  0.32740301  0.66199511  -0.00370912  1
  Cr  Cr16  1  0.49456909  0.82754556  0.16143670  1
  Fe  Fe17  1  0.32890983  0.66051586  0.32919889  1
  Fe  Fe18  1  0.66262430  -0.00313236  -0.00416960  1
  Cr  Cr19  1  0.82834988  0.16389764  0.16286755  1
  Fe  Fe20  1  0.66272812  0.99572450  0.32916352  1
  Fe  Fe21  1  0.66263411  0.32907319  -0.00379540  1
  Fe  Fe22  1  0.82811773  0.49486094  0.16311102  1
  Fe  Fe23  1  0.66062722  0.33007440  0.32877193  1
  Cr  Cr24  1  0.66387910  0.66046775  -0.00363826  1
  Cr  Cr25  1  0.82809737  0.82960512  0.16371593  1
  Fe  Fe26  1  0.66163261  0.66166605  0.32913434  1
  Cr  Cr27  1  0.16146029  0.16416934  0.49553765  1
  Cr  Cr28  1  -0.00335481  0.99258815  0.66197098  1
  Fe  Fe29  1  0.16274612  0.16247165  0.82965873  1
  Fe  Fe30  1  0.16462327  0.49780767  0.49582651  1
  Cr  Cr31  1  -0.00396600  0.33123401  0.66459780  1
  Fe  Fe32  1  0.16212451  0.49726523  0.82866738  1
  Fe  Fe33  1  0.16186950  0.82671249  0.49635678  1
  Fe  Fe34  1  -0.00300610  0.66240859  0.66299647  1
  Fe  Fe35  1  0.16212085  0.82773139  0.82863591  1
  Cr  Cr36  1  0.49888974  0.16366350  0.49619000  1
  Cr  Cr37  1  0.32801468  -0.00406434  0.66383821  1
  Cr  Cr38  1  0.49883338  0.16169462  0.82894769  1
  Fe  Fe39  1  0.49531736  0.49508765  0.49545168  1
  Cr  Cr40  1  0.33021528  0.32946896  0.66130801  1
  Cr  Cr41  1  0.49457329  0.49687887  0.82833438  1
  Cr  Cr42  1  0.49578390  0.82699117  0.49589118  1
  Fe  Fe43  1  0.32697433  0.66140878  0.66197919  1
  Cr  Cr44  1  0.49456265  0.82889549  0.83014192  1
  Cr  Cr45  1  0.82712408  0.16168792  0.49597572  1
  Fe  Fe46  1  0.66350029  -0.00297658  0.66248322  1
  Cr  Cr47  1  0.82779308  0.16345079  0.82862787  1
  Cr  Cr48  1  0.82933049  0.49541175  0.49626875  1
  Ni  Ni49  1  0.66201949  0.33128326  0.66268470  1
  Fe  Fe50  1  0.82889645  0.49583992  0.82804447  1
  Fe  Fe51  1  0.82916295  0.82942260  0.49565797  1
  Cr  Cr52  1  0.66457981  0.66145446  0.66178317  1
  Fe  Fe53  1  0.82940336  0.82866421  0.82882287  1
" 