4281,Ni3Fe48Cr47_7,-216.981643239039, 172.374973968999,Ni3Fe48Cr47,"# generated using pymatgen
 data_Cr27Fe25Ni2
_symmetry_space_group_name_H-M   'P 1'
_cell_length_a   7.53222765
_cell_length_b   7.53222765
_cell_length_c   10.65217850
_cell_angle_alpha   90.00000000
_cell_angle_beta   90.00000000
_cell_angle_gamma   90.00000000
_symmetry_Int_Tables_number   1
_chemical_formula_structural   Cr27Fe25Ni2
_chemical_formula_sum   'Cr27 Fe25 Ni2'
_cell_volume   604.34552475
_cell_formula_units_Z   1
loop_
 _symmetry_equiv_pos_site_id
 _symmetry_equiv_pos_as_xyz
  1  'x, y, z'
loop_
 _atom_site_type_symbol
 _atom_site_label
 _atom_site_symmetry_multiplicity
 _atom_site_fract_x
 _atom_site_fract_y
 _atom_site_fract_z
 _atom_site_occupancy
  Fe  Fe0  1  0.99480616  -0.00361773  -0.00359666  1
  Cr  Cr1  1  0.16044868  0.16164396  0.16298702  1
  Fe  Fe2  1  0.99555729  -0.00340121  0.32942785  1
  Fe  Fe3  1  -0.00432373  0.33073137  -0.00389468  1
  Fe  Fe4  1  0.16282153  0.49285676  0.16075681  1
  Fe  Fe5  1  -0.00388957  0.32816240  0.32788083  1
  Cr  Cr6  1  -0.00157225  0.66008887  -0.00277880  1
  Cr  Cr7  1  0.16199260  0.83107206  0.15903472  1
  Cr  Cr8  1  0.99445058  0.66259367  0.32558464  1
  Fe  Fe9  1  0.32880941  0.99516454  0.99540112  1
  Cr  Cr10  1  0.49437872  0.16415307  0.16089690  1
  Fe  Fe11  1  0.32873539  -0.00267749  0.33047856  1
  Fe  Fe12  1  0.32732022  0.33228858  0.99444610  1
  Cr  Cr13  1  0.49656620  0.49541748  0.16235646  1
  Fe  Fe14  1  0.32692049  0.32658098  0.32980792  1
  Fe  Fe15  1  0.32970621  0.65972493  0.99431129  1
  Cr  Cr16  1  0.49421444  0.82742109  0.16209838  1
  Cr  Cr17  1  0.32638425  0.66012752  0.32721296  1
  Cr  Cr18  1  0.66290340  -0.00240120  -0.00342836  1
  Fe  Fe19  1  0.83066651  0.16282933  0.16158288  1
  Cr  Cr20  1  0.66268634  0.99447865  0.33034750  1
  Fe  Fe21  1  0.66418448  0.33173861  -0.00388797  1
  Fe  Fe22  1  0.83026532  0.49361407  0.16238330  1
  Cr  Cr23  1  0.66070520  0.32645712  0.32694375  1
  Cr  Cr24  1  0.66342728  0.66212748  -0.00421545  1
  Fe  Fe25  1  0.82894862  0.83039978  0.16245873  1
  Fe  Fe26  1  0.66348621  0.66342728  0.32940358  1
  Fe  Fe27  1  0.16380683  0.16280918  0.49379980  1
  Cr  Cr28  1  -0.00378222  -0.00412641  0.66104759  1
  Cr  Cr29  1  0.16078700  0.16177908  0.82876602  1
  Cr  Cr30  1  0.16155317  0.49417754  0.49451083  1
  Fe  Fe31  1  -0.00400559  0.33096495  0.66420076  1
  Ni  Ni32  1  0.16471839  0.49562911  0.83069752  1
  Cr  Cr33  1  0.16418953  0.83173270  0.49647112  1
  Cr  Cr34  1  -0.00296284  0.65977760  0.66427376  1
  Cr  Cr35  1  0.16637102  0.82867999  0.83095546  1
  Fe  Fe36  1  0.49239236  0.16121032  0.49482407  1
  Fe  Fe37  1  0.33134347  0.99409963  0.66165601  1
  Cr  Cr38  1  0.49536121  0.16253144  0.83220002  1
  Cr  Cr39  1  0.49806713  0.49818135  0.49439009  1
  Cr  Cr40  1  0.32684915  0.32839961  0.66022724  1
  Fe  Fe41  1  0.49403102  0.49870832  0.82888579  1
  Fe  Fe42  1  0.49654828  0.82812374  0.49606526  1
  Fe  Fe43  1  0.33217400  0.66263645  0.66396588  1
  Fe  Fe44  1  0.49437976  0.82588222  0.82824541  1
  Cr  Cr45  1  0.83202000  0.16402226  0.49695011  1
  Cr  Cr46  1  0.65920698  0.99443212  0.66080607  1
  Cr  Cr47  1  0.83051701  0.16572328  0.83162371  1
  Cr  Cr48  1  0.82676294  0.49626762  0.49780466  1
  Cr  Cr49  1  0.66019064  0.32891328  0.66634649  1
  Fe  Fe50  1  0.83015488  0.49588698  0.82861301  1
  Fe  Fe51  1  0.82716088  0.82656876  0.49592060  1
  Ni  Ni52  1  0.65936175  0.66357012  0.66203434  1
  Cr  Cr53  1  0.82855909  0.82877264  0.82707482  1
" 