3797,Ni3Fe31Cr64_19,-212.535643360307, 192.016779997219,Ni3Fe31Cr64,"# generated using pymatgen
 data_Cr18Fe8Ni
_symmetry_space_group_name_H-M   'P 1'
_cell_length_a   7.55674405
_cell_length_b   7.55674405
_cell_length_c   10.68684992
_cell_angle_alpha   90.00000000
_cell_angle_beta   90.00000000
_cell_angle_gamma   90.00000000
_symmetry_Int_Tables_number   1
_chemical_formula_structural   Cr18Fe8Ni
_chemical_formula_sum   'Cr36 Fe16 Ni2'
_cell_volume   610.26594516
_cell_formula_units_Z   2
loop_
 _symmetry_equiv_pos_site_id
 _symmetry_equiv_pos_as_xyz
  1  'x, y, z'
loop_
 _atom_site_type_symbol
 _atom_site_label
 _atom_site_symmetry_multiplicity
 _atom_site_fract_x
 _atom_site_fract_y
 _atom_site_fract_z
 _atom_site_occupancy
  Cr  Cr0  1  0.99258936  0.99387081  0.99105194  1
  Cr  Cr1  1  0.15990731  0.16051738  0.15909820  1
  Cr  Cr2  1  0.99392352  0.99389097  0.32754739  1
  Cr  Cr3  1  -0.00325176  0.32632070  0.99368518  1
  Cr  Cr4  1  0.16170159  0.49587287  0.16313369  1
  Fe  Fe5  1  -0.00451952  0.32603539  0.32865354  1
  Cr  Cr6  1  0.99035422  0.66179414  -0.00419848  1
  Cr  Cr7  1  0.16566219  0.82600743  0.16088258  1
  Fe  Fe8  1  -0.00485494  0.66014089  0.32798703  1
  Cr  Cr9  1  0.32780249  -0.00221475  -0.00558420  1
  Fe  Fe10  1  0.49343557  0.15983304  0.16175192  1
  Fe  Fe11  1  0.32848949  -0.00487271  0.32722993  1
  Cr  Cr12  1  0.32848501  0.32902541  0.99285111  1
  Fe  Fe13  1  0.49274950  0.49449256  0.16236921  1
  Cr  Cr14  1  0.32757392  0.32529900  0.32828083  1
  Fe  Fe15  1  0.32978813  0.66107060  -0.00436408  1
  Fe  Fe16  1  0.49500640  0.82910163  0.16147811  1
  Fe  Fe17  1  0.32927365  0.66003956  0.32777205  1
  Ni  Ni18  1  0.65795126  0.99239631  -0.00089525  1
  Cr  Cr19  1  0.82377570  0.16127868  0.16010546  1
  Fe  Fe20  1  0.65807408  -0.00434829  0.32578086  1
  Cr  Cr21  1  0.65674159  0.32982121  -0.00459478  1
  Cr  Cr22  1  0.82843722  0.49052384  0.16359726  1
  Fe  Fe23  1  0.65845811  0.32644078  0.32684328  1
  Cr  Cr24  1  0.65903196  0.66158347  -0.00525842  1
  Fe  Fe25  1  0.82756945  0.82882169  0.16123200  1
  Cr  Cr26  1  0.66167264  0.66253863  0.32535914  1
  Ni  Ni27  1  0.16105514  0.16117897  0.49228682  1
  Cr  Cr28  1  -0.00446406  -0.00475747  0.66270856  1
  Fe  Fe29  1  0.16195429  0.16100742  0.82721057  1
  Fe  Fe30  1  0.16117212  0.49211867  0.49185413  1
  Cr  Cr31  1  -0.00126542  0.32539683  0.65977002  1
  Cr  Cr32  1  0.16155218  0.49683479  0.82934915  1
  Cr  Cr33  1  0.16351716  0.82569729  0.49275214  1
  Cr  Cr34  1  0.99259657  0.66127450  0.65799797  1
  Cr  Cr35  1  0.16412646  0.82642105  0.82784298  1
  Fe  Fe36  1  0.49311788  0.16105902  0.49234782  1
  Cr  Cr37  1  0.32520393  -0.00173385  0.65719663  1
  Cr  Cr38  1  0.49711942  0.15963577  0.82622825  1
  Cr  Cr39  1  0.49546559  0.49317801  0.49622904  1
  Cr  Cr40  1  0.32802162  0.32605876  0.66128213  1
  Fe  Fe41  1  0.49425240  0.49389422  0.82736588  1
  Cr  Cr42  1  0.49188295  0.82905036  0.49316257  1
  Cr  Cr43  1  0.32893655  0.65785397  0.66082850  1
  Cr  Cr44  1  0.49161053  0.82847108  0.82783495  1
  Cr  Cr45  1  0.82450332  0.16309102  0.49367024  1
  Cr  Cr46  1  0.66052411  0.99227984  0.65817939  1
  Cr  Cr47  1  0.82440620  0.16199889  0.82866957  1
  Cr  Cr48  1  0.82795813  0.49094647  0.49309766  1
  Fe  Fe49  1  0.65999926  0.32620993  0.66037162  1
  Cr  Cr50  1  0.82693955  0.49055564  0.82518536  1
  Cr  Cr51  1  0.82703377  0.82781324  0.49349117  1
  Cr  Cr52  1  0.66082298  0.65949548  0.66286141  1
  Cr  Cr53  1  0.82564677  0.82920643  0.82794749  1
" 