6793,Ni3Fe40Cr55_9,-214.797758826107, 177.252483444783,Ni3Fe40Cr55,"# generated using pymatgen
 data_Cr31Fe22Ni
_symmetry_space_group_name_H-M   'P 1'
_cell_length_a   7.54761888
_cell_length_b   7.54761888
_cell_length_c   10.67394499
_cell_angle_alpha   90.00000000
_cell_angle_beta   90.00000000
_cell_angle_gamma   90.00000000
_symmetry_Int_Tables_number   1
_chemical_formula_structural   Cr31Fe22Ni
_chemical_formula_sum   'Cr31 Fe22 Ni1'
_cell_volume   608.05782939
_cell_formula_units_Z   1
loop_
 _symmetry_equiv_pos_site_id
 _symmetry_equiv_pos_as_xyz
  1  'x, y, z'
loop_
 _atom_site_type_symbol
 _atom_site_label
 _atom_site_symmetry_multiplicity
 _atom_site_fract_x
 _atom_site_fract_y
 _atom_site_fract_z
 _atom_site_occupancy
  Cr  Cr0  1  0.99335009  -0.00460015  -0.00462002  1
  Cr  Cr1  1  0.16127039  0.16081970  0.16329361  1
  Cr  Cr2  1  0.99403195  -0.00453431  0.32703042  1
  Cr  Cr3  1  -0.00505133  0.32742664  -0.00335625  1
  Cr  Cr4  1  0.16512977  0.49595023  0.15984728  1
  Cr  Cr5  1  -0.00400287  0.32870611  0.32708527  1
  Cr  Cr6  1  0.99425836  0.66093973  0.99435120  1
  Cr  Cr7  1  0.16458323  0.82742752  0.16190732  1
  Cr  Cr8  1  -0.00513285  0.65992196  0.32842414  1
  Cr  Cr9  1  0.33086533  -0.00267626  0.99341769  1
  Fe  Fe10  1  0.49455888  0.16180808  0.16231339  1
  Fe  Fe11  1  0.32900999  -0.00361913  0.32939162  1
  Cr  Cr12  1  0.32874155  0.32638156  0.99273130  1
  Cr  Cr13  1  0.49373996  0.49524069  0.16180066  1
  Fe  Fe14  1  0.32987354  0.32757791  0.32992134  1
  Fe  Fe15  1  0.32870765  0.66186105  0.99410874  1
  Cr  Cr16  1  0.49251904  0.82649157  0.16203394  1
  Fe  Fe17  1  0.32849811  0.66009643  0.33074847  1
  Fe  Fe18  1  0.66102258  -0.00371617  -0.00487483  1
  Ni  Ni19  1  0.82427269  0.16168920  0.16196383  1
  Cr  Cr20  1  0.65909003  -0.00436003  0.32549482  1
  Cr  Cr21  1  0.65994110  0.32501983  -0.00369946  1
  Cr  Cr22  1  0.82538831  0.49217305  0.16313433  1
  Fe  Fe23  1  0.66001428  0.32694096  0.32846292  1
  Cr  Cr24  1  0.66218589  0.66292159  0.99239719  1
  Cr  Cr25  1  0.82680178  0.82969732  0.16004682  1
  Cr  Cr26  1  0.66043004  0.66110139  0.33286559  1
  Fe  Fe27  1  0.16307266  0.16281097  0.49568989  1
  Fe  Fe28  1  -0.00492671  0.99438809  0.66050265  1
  Cr  Cr29  1  0.16073757  0.16116463  0.82281655  1
  Fe  Fe30  1  0.16155928  0.49308819  0.49544882  1
  Fe  Fe31  1  -0.00443789  0.32910096  0.65919269  1
  Cr  Cr32  1  0.16196430  0.49412082  0.82929893  1
  Cr  Cr33  1  0.16345476  0.83052719  0.49326654  1
  Fe  Fe34  1  -0.00499070  0.66099549  0.66069675  1
  Cr  Cr35  1  0.16142965  0.82890575  0.82839009  1
  Fe  Fe36  1  0.49331251  0.16141545  0.49485363  1
  Fe  Fe37  1  0.32853485  -0.00440518  0.66002568  1
  Fe  Fe38  1  0.49449562  0.16206442  0.82621320  1
  Fe  Fe39  1  0.49453447  0.49262529  0.49521362  1
  Fe  Fe40  1  0.32939259  0.32696041  0.65953416  1
  Cr  Cr41  1  0.49525380  0.49366902  0.82832378  1
  Fe  Fe42  1  0.49434969  0.82940816  0.49512137  1
  Cr  Cr43  1  0.32865125  0.66027708  0.66093646  1
  Cr  Cr44  1  0.49466247  0.82770455  0.82876172  1
  Cr  Cr45  1  0.82795424  0.16317994  0.49424273  1
  Cr  Cr46  1  0.65905260  0.99398063  0.66394141  1
  Cr  Cr47  1  0.82765948  0.16131106  0.82831326  1
  Fe  Fe48  1  0.82800170  0.49391900  0.49687201  1
  Fe  Fe49  1  0.65923956  0.32830260  0.65974889  1
  Cr  Cr50  1  0.82694783  0.49300079  0.82426815  1
  Cr  Cr51  1  0.82799968  0.82891703  0.49766075  1
  Fe  Fe52  1  0.66086821  0.66003822  0.66004383  1
  Fe  Fe53  1  0.82890244  0.82761637  0.82617458  1
" 