6135,Ni3Fe10Cr85_10,-204.671815851619, 201.511827173944,Ni3Fe10Cr85,"# generated using pymatgen
 data_Cr47Fe5Ni2
_symmetry_space_group_name_H-M   'P 1'
_cell_length_a   7.58633220
_cell_length_b   7.58633220
_cell_length_c   10.72869388
_cell_angle_alpha   90.00000000
_cell_angle_beta   90.00000000
_cell_angle_gamma   90.00000000
_symmetry_Int_Tables_number   1
_chemical_formula_structural   Cr47Fe5Ni2
_chemical_formula_sum   'Cr47 Fe5 Ni2'
_cell_volume   617.46246993
_cell_formula_units_Z   1
loop_
 _symmetry_equiv_pos_site_id
 _symmetry_equiv_pos_as_xyz
  1  'x, y, z'
loop_
 _atom_site_type_symbol
 _atom_site_label
 _atom_site_symmetry_multiplicity
 _atom_site_fract_x
 _atom_site_fract_y
 _atom_site_fract_z
 _atom_site_occupancy
  Cr  Cr0  1  0.99139874  -0.00745400  -0.00706832  1
  Cr  Cr1  1  0.15735190  0.15817052  0.16063398  1
  Cr  Cr2  1  0.99153108  -0.00773781  0.32734591  1
  Cr  Cr3  1  -0.00492228  0.32775840  0.99187931  1
  Fe  Fe4  1  0.15858169  0.49149811  0.15840541  1
  Cr  Cr5  1  -0.00695980  0.32658193  0.32592755  1
  Cr  Cr6  1  -0.00683007  0.65595865  -0.00744570  1
  Cr  Cr7  1  0.15902821  0.82480705  0.15834989  1
  Cr  Cr8  1  0.99059794  0.65771332  0.32574093  1
  Cr  Cr9  1  0.32763484  -0.00554743  0.99152056  1
  Cr  Cr10  1  0.49371578  0.16066806  0.15970216  1
  Cr  Cr11  1  0.32561726  -0.00624661  0.32650396  1
  Cr  Cr12  1  0.32413015  0.32591896  0.99047353  1
  Cr  Cr13  1  0.49276084  0.49138214  0.16105873  1
  Cr  Cr14  1  0.32406376  0.32518718  0.32507777  1
  Cr  Cr15  1  0.32399779  0.65578158  -0.00695809  1
  Cr  Cr16  1  0.49062932  0.82442506  0.15877035  1
  Cr  Cr17  1  0.32483857  0.65749571  0.32300912  1
  Cr  Cr18  1  0.65724093  -0.00754470  0.99062718  1
  Cr  Cr19  1  0.82535351  0.16059698  0.15798149  1
  Cr  Cr20  1  0.65923691  0.99109207  0.32492985  1
  Cr  Cr21  1  0.65715281  0.32427979  0.99134264  1
  Cr  Cr22  1  0.82445215  0.48973675  0.16011728  1
  Fe  Fe23  1  0.65970576  0.32571275  0.32613509  1
  Cr  Cr24  1  0.65919219  0.65972111  0.99185177  1
  Cr  Cr25  1  0.82678245  0.82602465  0.15789310  1
  Cr  Cr26  1  0.66088795  0.65906433  0.32779453  1
  Fe  Fe27  1  0.15928303  0.15966070  0.49217189  1
  Cr  Cr28  1  0.99114072  -0.00747373  0.65589412  1
  Cr  Cr29  1  0.15818263  0.15863285  0.82345466  1
  Cr  Cr30  1  0.15904282  0.49244756  0.49268742  1
  Cr  Cr31  1  -0.00599385  0.32674883  0.65876690  1
  Ni  Ni32  1  0.15861461  0.49217525  0.82652531  1
  Cr  Cr33  1  0.15843238  0.82662011  0.49252079  1
  Cr  Cr34  1  0.99055396  0.65728562  0.65814396  1
  Cr  Cr35  1  0.15861153  0.82392578  0.82547878  1
  Cr  Cr36  1  0.49279097  0.16078198  0.49129960  1
  Cr  Cr37  1  0.32687382  -0.00482060  0.65829993  1
  Ni  Ni38  1  0.49189390  0.15949667  0.82531369  1
  Cr  Cr39  1  0.49414446  0.49134981  0.49090049  1
  Cr  Cr40  1  0.32435443  0.32446785  0.66097605  1
  Cr  Cr41  1  0.49139604  0.49118508  0.82442645  1
  Cr  Cr42  1  0.49052308  0.82417075  0.49218003  1
  Cr  Cr43  1  0.32493962  0.65689005  0.66059168  1
  Cr  Cr44  1  0.49066512  0.82561160  0.82547875  1
  Cr  Cr45  1  0.82637486  0.16118881  0.49081077  1
  Cr  Cr46  1  0.65824594  0.99177578  0.66071157  1
  Cr  Cr47  1  0.82475537  0.15958900  0.82759013  1
  Fe  Fe48  1  0.82531566  0.49195924  0.49178679  1
  Cr  Cr49  1  0.65829790  0.32495542  0.65913131  1
  Cr  Cr50  1  0.82648074  0.49107343  0.82447011  1
  Fe  Fe51  1  0.82519203  0.82506160  0.49214969  1
  Cr  Cr52  1  0.66099964  0.65986927  0.65656142  1
  Cr  Cr53  1  0.82718052  0.82578910  0.82554006  1
" 