2017,Ni3Fe65Cr31_18,-220.027124188782, 158.116993004502,Ni3Fe65Cr31,"# generated using pymatgen
 data_Cr18Fe35Ni
_symmetry_space_group_name_H-M   'P 1'
_cell_length_a   7.50376808
_cell_length_b   7.50376808
_cell_length_c   10.61193058
_cell_angle_alpha   90.00000000
_cell_angle_beta   90.00000000
_cell_angle_gamma   90.00000000
_symmetry_Int_Tables_number   1
_chemical_formula_structural   Cr18Fe35Ni
_chemical_formula_sum   'Cr18 Fe35 Ni1'
_cell_volume   597.52104439
_cell_formula_units_Z   1
loop_
 _symmetry_equiv_pos_site_id
 _symmetry_equiv_pos_as_xyz
  1  'x, y, z'
loop_
 _atom_site_type_symbol
 _atom_site_label
 _atom_site_symmetry_multiplicity
 _atom_site_fract_x
 _atom_site_fract_y
 _atom_site_fract_z
 _atom_site_occupancy
  Fe  Fe0  1  0.99720415  0.99675927  0.99521176  1
  Cr  Cr1  1  0.16501639  0.16056021  0.16663382  1
  Fe  Fe2  1  0.99498467  -0.00095487  0.33243075  1
  Cr  Cr3  1  -0.00162300  0.33015340  0.00035410  1
  Fe  Fe4  1  0.16201041  0.49842538  0.16535802  1
  Fe  Fe5  1  0.99418546  0.33016132  0.33078052  1
  Fe  Fe6  1  -0.00127503  0.66508362  0.99711713  1
  Cr  Cr7  1  0.16276289  0.83172213  0.16650434  1
  Fe  Fe8  1  0.99707113  0.66257877  0.33090432  1
  Cr  Cr9  1  0.33181171  0.99506007  0.99682272  1
  Cr  Cr10  1  0.49871970  0.16547347  0.16220506  1
  Fe  Fe11  1  0.33497421  0.99705484  0.33131479  1
  Fe  Fe12  1  0.33052624  0.33084056  -0.00226570  1
  Fe  Fe13  1  0.50021371  0.49923125  0.16461952  1
  Cr  Cr14  1  0.32823547  0.33479610  0.32965002  1
  Cr  Cr15  1  0.33204219  0.66295667  0.00093728  1
  Fe  Fe16  1  0.49964120  0.83157558  0.16665069  1
  Fe  Fe17  1  0.33349286  0.66624676  0.33014917  1
  Fe  Fe18  1  0.66633004  0.99704571  0.99676284  1
  Fe  Fe19  1  0.83040260  0.16266847  0.16593194  1
  Ni  Ni20  1  0.66568693  0.99557419  0.33090488  1
  Fe  Fe21  1  0.66406289  0.33087054  -0.00224082  1
  Fe  Fe22  1  0.82984020  0.49607473  0.16527157  1
  Fe  Fe23  1  0.66424763  0.32937368  0.33066180  1
  Fe  Fe24  1  0.66392959  0.66480663  -0.00195007  1
  Cr  Cr25  1  0.83272018  0.82888009  0.16329722  1
  Fe  Fe26  1  0.66227002  0.66452973  0.33074625  1
  Fe  Fe27  1  0.16355418  0.16451179  0.49538896  1
  Cr  Cr28  1  0.99563094  -0.00100260  0.66530741  1
  Fe  Fe29  1  0.16590023  0.16566379  0.83141214  1
  Fe  Fe30  1  0.16571318  0.49887365  0.49724430  1
  Cr  Cr31  1  -0.00025004  0.33063211  0.66166863  1
  Fe  Fe32  1  0.16492264  0.49822518  0.83071236  1
  Cr  Cr33  1  0.16349239  0.83225497  0.49633804  1
  Fe  Fe34  1  -0.00196730  0.66564878  0.66440093  1
  Fe  Fe35  1  0.16381309  0.82852583  0.83052372  1
  Cr  Cr36  1  0.49591488  0.16429856  0.49861191  1
  Fe  Fe37  1  0.33036169  0.99715667  0.66634180  1
  Fe  Fe38  1  0.49758088  0.16285451  0.83143523  1
  Fe  Fe39  1  0.49445866  0.49979436  0.49698202  1
  Fe  Fe40  1  0.33013787  0.33036578  0.66372435  1
  Cr  Cr41  1  0.49821685  0.49379471  0.82946521  1
  Fe  Fe42  1  0.49743400  0.83075577  0.49484502  1
  Fe  Fe43  1  0.32872243  0.66458549  0.66436395  1
  Fe  Fe44  1  0.49750213  0.82931495  0.83161033  1
  Fe  Fe45  1  0.83127469  0.16204702  0.49430279  1
  Cr  Cr46  1  0.66475828  0.99576383  0.66534611  1
  Fe  Fe47  1  0.82995590  0.16499278  0.83309854  1
  Cr  Cr48  1  0.82993876  0.49981903  0.49656906  1
  Cr  Cr49  1  0.66682377  0.32930601  0.66226339  1
  Cr  Cr50  1  0.83124006  0.50033405  0.83119457  1
  Fe  Fe51  1  0.83013306  0.83276179  0.49452448  1
  Cr  Cr52  1  0.66206591  0.66762508  0.66178372  1
  Fe  Fe53  1  0.83105912  0.83142049  0.83364981  1
" 