3833,Ni3Fe40Cr55_18,-214.883691124023, 188.198319705823,Ni3Fe40Cr55,"# generated using pymatgen
 data_Cr31Fe22Ni
_symmetry_space_group_name_H-M   'P 1'
_cell_length_a   7.54984261
_cell_length_b   7.54984261
_cell_length_c   10.67708981
_cell_angle_alpha   90.00000000
_cell_angle_beta   90.00000000
_cell_angle_gamma   90.00000000
_symmetry_Int_Tables_number   1
_chemical_formula_structural   Cr31Fe22Ni
_chemical_formula_sum   'Cr31 Fe22 Ni1'
_cell_volume   608.59543635
_cell_formula_units_Z   1
loop_
 _symmetry_equiv_pos_site_id
 _symmetry_equiv_pos_as_xyz
  1  'x, y, z'
loop_
 _atom_site_type_symbol
 _atom_site_label
 _atom_site_symmetry_multiplicity
 _atom_site_fract_x
 _atom_site_fract_y
 _atom_site_fract_z
 _atom_site_occupancy
  Fe  Fe0  1  0.99260804  0.99449190  -0.00456172  1
  Cr  Cr1  1  0.16129344  0.16191347  0.15809987  1
  Cr  Cr2  1  0.99356952  -0.00357887  0.32718396  1
  Fe  Fe3  1  -0.00506156  0.32651413  0.99433502  1
  Cr  Cr4  1  0.16310837  0.49483065  0.16003569  1
  Fe  Fe5  1  0.99444363  0.32812268  0.32752047  1
  Fe  Fe6  1  0.99225584  0.66254498  -0.00484055  1
  Cr  Cr7  1  0.15845607  0.82677720  0.16002541  1
  Fe  Fe8  1  0.99300655  0.66167809  0.32714986  1
  Cr  Cr9  1  0.32765137  0.99375197  0.99137257  1
  Cr  Cr10  1  0.49596345  0.16274848  0.16252795  1
  Cr  Cr11  1  0.32674441  0.99214091  0.32905292  1
  Fe  Fe12  1  0.33016638  0.32776664  -0.00479439  1
  Ni  Ni13  1  0.49536799  0.49430869  0.16501820  1
  Fe  Fe14  1  0.32771280  0.32826185  0.32626956  1
  Cr  Cr15  1  0.33122885  0.66219232  -0.00303199  1
  Fe  Fe16  1  0.49521181  0.82518368  0.16391942  1
  Fe  Fe17  1  0.32968508  0.66043162  0.32550701  1
  Cr  Cr18  1  0.66145560  0.99257352  -0.00195524  1
  Fe  Fe19  1  0.82838839  0.16196979  0.16202021  1
  Fe  Fe20  1  0.66217948  0.99282238  0.32551739  1
  Cr  Cr21  1  0.66323996  0.32937271  -0.00522400  1
  Cr  Cr22  1  0.82890682  0.49421703  0.16119705  1
  Fe  Fe23  1  0.66193067  0.32858106  0.32597187  1
  Cr  Cr24  1  0.66053214  0.66114076  -0.00468660  1
  Fe  Fe25  1  0.82642295  0.82763260  0.16247819  1
  Fe  Fe26  1  0.66085557  0.66229855  0.32559313  1
  Fe  Fe27  1  0.16078789  0.16160877  0.49329305  1
  Fe  Fe28  1  -0.00490316  -0.00369228  0.66088527  1
  Fe  Fe29  1  0.15952787  0.16202324  0.82965793  1
  Cr  Cr30  1  0.16176934  0.49564969  0.49034488  1
  Cr  Cr31  1  -0.00497375  0.32603607  0.65879195  1
  Cr  Cr32  1  0.16055335  0.49484010  0.83281511  1
  Cr  Cr33  1  0.15894969  0.82666636  0.49533755  1
  Fe  Fe34  1  -0.00428881  0.66072493  0.66136507  1
  Cr  Cr35  1  0.15795270  0.82787700  0.82848421  1
  Cr  Cr36  1  0.49574229  0.16169331  0.49373417  1
  Cr  Cr37  1  0.32603604  -0.00491238  0.66257302  1
  Fe  Fe38  1  0.49413940  0.15940056  0.82839835  1
  Cr  Cr39  1  0.49461638  0.49315324  0.49095931  1
  Cr  Cr40  1  0.32555586  0.32595665  0.66193094  1
  Cr  Cr41  1  0.49372783  0.49209086  0.82800502  1
  Cr  Cr42  1  0.49686428  0.82877734  0.49444680  1
  Cr  Cr43  1  0.32936774  0.66223413  0.66109617  1
  Fe  Fe44  1  0.49679387  0.82854721  0.82688478  1
  Cr  Cr45  1  0.82483829  0.15952400  0.49220691  1
  Fe  Fe46  1  0.65997860  -0.00517172  0.66262943  1
  Cr  Cr47  1  0.82690078  0.15875958  0.82974514  1
  Cr  Cr48  1  0.82741006  0.49646354  0.49575104  1
  Cr  Cr49  1  0.66259702  0.32909517  0.66222428  1
  Cr  Cr50  1  0.82986380  0.49675489  0.82591499  1
  Cr  Cr51  1  0.82789573  0.82822659  0.49853474  1
  Fe  Fe52  1  0.66026204  0.66247393  0.66171453  1
  Cr  Cr53  1  0.82861698  0.82841622  0.82447982  1
" 