2278,Ni3Fe40Cr55_4,-215.143861734849, 187.026997124385,Ni3Fe40Cr55,"# generated using pymatgen
 data_Cr31Fe22Ni
_symmetry_space_group_name_H-M   'P 1'
_cell_length_a   7.55354705
_cell_length_b   7.55354705
_cell_length_c   10.68232868
_cell_angle_alpha   90.00000000
_cell_angle_beta   90.00000000
_cell_angle_gamma   90.00000000
_symmetry_Int_Tables_number   1
_chemical_formula_structural   Cr31Fe22Ni
_chemical_formula_sum   'Cr31 Fe22 Ni1'
_cell_volume   609.49172545
_cell_formula_units_Z   1
loop_
 _symmetry_equiv_pos_site_id
 _symmetry_equiv_pos_as_xyz
  1  'x, y, z'
loop_
 _atom_site_type_symbol
 _atom_site_label
 _atom_site_symmetry_multiplicity
 _atom_site_fract_x
 _atom_site_fract_y
 _atom_site_fract_z
 _atom_site_occupancy
  Fe  Fe0  1  -0.00504335  -0.00398452  0.99334070  1
  Fe  Fe1  1  0.16091091  0.16087723  0.16105789  1
  Fe  Fe2  1  -0.00404104  0.99399227  0.32805868  1
  Fe  Fe3  1  -0.00523832  0.32600809  0.99381855  1
  Cr  Cr4  1  0.16273389  0.49238843  0.16134174  1
  Cr  Cr5  1  0.99396839  0.32760810  0.32636130  1
  Cr  Cr6  1  -0.00545143  0.65872393  -0.00446219  1
  Cr  Cr7  1  0.16074832  0.82749091  0.16197198  1
  Cr  Cr8  1  -0.00386907  0.66018491  0.32664389  1
  Cr  Cr9  1  0.32586860  0.99399371  -0.00510676  1
  Cr  Cr10  1  0.49155796  0.16112408  0.16195117  1
  Fe  Fe11  1  0.32655052  0.99211934  0.32757694  1
  Fe  Fe12  1  0.32637649  0.32808311  0.99368580  1
  Cr  Cr13  1  0.49090592  0.49424742  0.16077378  1
  Fe  Fe14  1  0.32778381  0.32899931  0.32768112  1
  Fe  Fe15  1  0.32822861  0.66056969  -0.00550835  1
  Fe  Fe16  1  0.49206098  0.82653085  0.16184592  1
  Ni  Ni17  1  0.32802567  0.66404496  0.32936723  1
  Cr  Cr18  1  0.65896532  -0.00566731  -0.00435559  1
  Cr  Cr19  1  0.82920417  0.15906067  0.16112907  1
  Cr  Cr20  1  0.65789042  0.99421838  0.32702197  1
  Cr  Cr21  1  0.66325124  0.32905423  0.99264040  1
  Fe  Fe22  1  0.82800660  0.49359756  0.16059453  1
  Cr  Cr23  1  0.66205913  0.32778302  0.32933273  1
  Cr  Cr24  1  0.66103683  0.65943942  -0.00397597  1
  Cr  Cr25  1  0.82734867  0.82823577  0.16067868  1
  Cr  Cr26  1  0.65913371  0.66080859  0.32598260  1
  Cr  Cr27  1  0.16057189  0.16017282  0.49158369  1
  Fe  Fe28  1  -0.00517983  -0.00493465  0.66136336  1
  Fe  Fe29  1  0.15908915  0.15973431  0.82842721  1
  Cr  Cr30  1  0.16510848  0.49580066  0.49229476  1
  Cr  Cr31  1  0.99208937  0.32650117  0.66243475  1
  Cr  Cr32  1  0.16360480  0.49391792  0.82922993  1
  Fe  Fe33  1  0.16285891  0.82754686  0.49306417  1
  Cr  Cr34  1  -0.00385035  0.66187709  0.66062405  1
  Fe  Fe35  1  0.16103600  0.82848763  0.82782559  1
  Cr  Cr36  1  0.49428382  0.16204440  0.49204029  1
  Cr  Cr37  1  0.32535051  0.99103869  0.66083099  1
  Cr  Cr38  1  0.49399113  0.16332905  0.82887621  1
  Fe  Fe39  1  0.49287671  0.49676793  0.49360025  1
  Cr  Cr40  1  0.32849286  0.32816292  0.66149569  1
  Fe  Fe41  1  0.49445427  0.49537518  0.82772688  1
  Fe  Fe42  1  0.49179799  0.82509420  0.49385085  1
  Fe  Fe43  1  0.32915555  0.66118327  0.65985747  1
  Cr  Cr44  1  0.49469978  0.82492275  0.82785710  1
  Fe  Fe45  1  0.82869983  0.16013541  0.49412542  1
  Cr  Cr46  1  0.66067127  -0.00473653  0.66021266  1
  Fe  Fe47  1  0.82986851  0.16131384  0.82824966  1
  Cr  Cr48  1  0.82666317  0.49540213  0.49437776  1
  Cr  Cr49  1  0.66232560  0.32901310  0.66083560  1
  Fe  Fe50  1  0.82664038  0.49365932  0.82747446  1
  Cr  Cr51  1  0.82840828  0.83008565  0.49521553  1
  Fe  Fe52  1  0.65905414  0.66001376  0.66096305  1
  Cr  Cr53  1  0.82907436  0.82936845  0.82692432  1
" 