8629,Ni3Fe40Cr55_8,-215.106999769354, 187.630044816611,Ni3Fe40Cr55,"# generated using pymatgen
 data_Cr31Fe22Ni
_symmetry_space_group_name_H-M   'P 1'
_cell_length_a   7.54502548
_cell_length_b   7.54502548
_cell_length_c   10.67027736
_cell_angle_alpha   90.00000000
_cell_angle_beta   90.00000000
_cell_angle_gamma   90.00000000
_symmetry_Int_Tables_number   1
_chemical_formula_structural   Cr31Fe22Ni
_chemical_formula_sum   'Cr31 Fe22 Ni1'
_cell_volume   607.43124913
_cell_formula_units_Z   1
loop_
 _symmetry_equiv_pos_site_id
 _symmetry_equiv_pos_as_xyz
  1  'x, y, z'
loop_
 _atom_site_type_symbol
 _atom_site_label
 _atom_site_symmetry_multiplicity
 _atom_site_fract_x
 _atom_site_fract_y
 _atom_site_fract_z
 _atom_site_occupancy
  Cr  Cr0  1  -0.00394161  -0.00449975  -0.00385429  1
  Fe  Fe1  1  0.16227194  0.16198051  0.16133783  1
  Cr  Cr2  1  -0.00434640  -0.00407198  0.32669319  1
  Cr  Cr3  1  -0.00429240  0.32716412  -0.00248035  1
  Fe  Fe4  1  0.16213167  0.49525019  0.16158079  1
  Cr  Cr5  1  0.99384936  0.32773723  0.32880221  1
  Cr  Cr6  1  0.99476841  0.66199472  0.99299163  1
  Fe  Fe7  1  0.16172221  0.82715176  0.16188407  1
  Cr  Cr8  1  -0.00417250  0.66092662  0.32928065  1
  Cr  Cr9  1  0.32637730  -0.00462266  -0.00382508  1
  Cr  Cr10  1  0.49578666  0.16207534  0.16026449  1
  Cr  Cr11  1  0.32721830  0.99211718  0.32826554  1
  Fe  Fe12  1  0.32868820  0.33006545  -0.00431137  1
  Fe  Fe13  1  0.49498239  0.49418018  0.16131006  1
  Cr  Cr14  1  0.32727547  0.32926347  0.32598693  1
  Cr  Cr15  1  0.33005254  0.65981250  -0.00300335  1
  Cr  Cr16  1  0.49477170  0.82782755  0.16511358  1
  Fe  Fe17  1  0.32713272  0.66175188  0.32828942  1
  Fe  Fe18  1  0.66142335  0.99462707  -0.00485229  1
  Cr  Cr19  1  0.82650320  0.16174812  0.16205053  1
  Ni  Ni20  1  0.66156190  0.99337698  0.33141556  1
  Fe  Fe21  1  0.65990030  0.32894901  -0.00484967  1
  Fe  Fe22  1  0.82737156  0.49491064  0.16082306  1
  Cr  Cr23  1  0.66338477  0.32904540  0.32845802  1
  Cr  Cr24  1  0.65970461  0.65911883  0.99329461  1
  Cr  Cr25  1  0.82808700  0.82753499  0.15917090  1
  Cr  Cr26  1  0.65965126  0.66093218  0.32890966  1
  Cr  Cr27  1  0.16257554  0.16233751  0.49609605  1
  Cr  Cr28  1  0.99434133  0.99414000  0.66139521  1
  Cr  Cr29  1  0.16405987  0.16400256  0.82767938  1
  Fe  Fe30  1  0.16128462  0.49645163  0.49512156  1
  Cr  Cr31  1  -0.00474922  0.32866344  0.65864930  1
  Fe  Fe32  1  0.16341446  0.49390905  0.82764878  1
  Fe  Fe33  1  0.16222789  0.82670057  0.49560887  1
  Fe  Fe34  1  0.99454161  0.66129356  0.65997908  1
  Cr  Cr35  1  0.15965374  0.82563846  0.82713081  1
  Cr  Cr36  1  0.49587296  0.15893203  0.49648719  1
  Fe  Fe37  1  0.32916159  0.99453207  0.66067903  1
  Cr  Cr38  1  0.49440084  0.16268627  0.82764839  1
  Cr  Cr39  1  0.49301461  0.49557065  0.49349490  1
  Fe  Fe40  1  0.32807612  0.32918829  0.66163419  1
  Fe  Fe41  1  0.49295574  0.49316635  0.82827682  1
  Fe  Fe42  1  0.49511080  0.82935418  0.49449157  1
  Cr  Cr43  1  0.32862497  0.66141916  0.66088159  1
  Cr  Cr44  1  0.49647432  0.83013901  0.82717583  1
  Fe  Fe45  1  0.82678883  0.15960822  0.49417899  1
  Fe  Fe46  1  0.66186604  0.99384207  0.65967820  1
  Cr  Cr47  1  0.82595049  0.16021835  0.82964710  1
  Fe  Fe48  1  0.82948478  0.49562563  0.49552688  1
  Cr  Cr49  1  0.66143407  0.32896716  0.66044567  1
  Cr  Cr50  1  0.83021673  0.49680342  0.82842142  1
  Fe  Fe51  1  0.82701980  0.82942848  0.49447627  1
  Cr  Cr52  1  0.66174657  0.66261159  0.66190449  1
  Fe  Fe53  1  0.82754188  0.82937764  0.82785099  1
" 