8144,Ni3Fe31Cr64_8,-212.376067149915, 191.71264143678,Ni3Fe31Cr64,"# generated using pymatgen
 data_Cr18Fe8Ni
_symmetry_space_group_name_H-M   'P 1'
_cell_length_a   7.55282144
_cell_length_b   7.55282144
_cell_length_c   10.68130251
_cell_angle_alpha   90.00000000
_cell_angle_beta   90.00000000
_cell_angle_gamma   90.00000000
_symmetry_Int_Tables_number   1
_chemical_formula_structural   Cr18Fe8Ni
_chemical_formula_sum   'Cr36 Fe16 Ni2'
_cell_volume   609.31609421
_cell_formula_units_Z   2
loop_
 _symmetry_equiv_pos_site_id
 _symmetry_equiv_pos_as_xyz
  1  'x, y, z'
loop_
 _atom_site_type_symbol
 _atom_site_label
 _atom_site_symmetry_multiplicity
 _atom_site_fract_x
 _atom_site_fract_y
 _atom_site_fract_z
 _atom_site_occupancy
  Cr  Cr0  1  -0.00477813  0.99161364  -0.00489414  1
  Cr  Cr1  1  0.16149227  0.16119360  0.15948990  1
  Fe  Fe2  1  -0.00417162  0.99353808  0.32783538  1
  Fe  Fe3  1  -0.00389266  0.32721013  -0.00566708  1
  Cr  Cr4  1  0.16322833  0.49500163  0.16136560  1
  Cr  Cr5  1  0.99378435  0.32917263  0.32823441  1
  Cr  Cr6  1  0.99396752  0.66085790  0.99321909  1
  Fe  Fe7  1  0.16129672  0.82761868  0.16253107  1
  Cr  Cr8  1  -0.00518739  0.66050406  0.32773193  1
  Cr  Cr9  1  0.32864541  0.99291441  0.99232238  1
  Fe  Fe10  1  0.49350047  0.16223863  0.16121370  1
  Cr  Cr11  1  0.32902616  0.99310716  0.32550688  1
  Ni  Ni12  1  0.32807916  0.32748625  -0.00448436  1
  Cr  Cr13  1  0.49330012  0.49498159  0.16227454  1
  Cr  Cr14  1  0.32790608  0.32844639  0.33135274  1
  Cr  Cr15  1  0.32777724  0.66396298  -0.00235473  1
  Fe  Fe16  1  0.49445391  0.82822319  0.16153036  1
  Fe  Fe17  1  0.32819632  0.66162312  0.32884779  1
  Cr  Cr18  1  0.65920681  0.99277339  -0.00457988  1
  Cr  Cr19  1  0.82664578  0.15950988  0.16417670  1
  Fe  Fe20  1  0.65914109  0.99369325  0.32780628  1
  Cr  Cr21  1  0.66163776  0.32795972  -0.00499103  1
  Cr  Cr22  1  0.82719556  0.49466010  0.15721777  1
  Fe  Fe23  1  0.66038176  0.32869643  0.32755628  1
  Cr  Cr24  1  0.66119296  0.66221298  0.99175809  1
  Cr  Cr25  1  0.82746326  0.82835462  0.16460170  1
  Cr  Cr26  1  0.65981364  0.66139250  0.32847355  1
  Cr  Cr27  1  0.16088132  0.15919459  0.49579816  1
  Cr  Cr28  1  -0.00538753  0.99323125  0.65990343  1
  Cr  Cr29  1  0.16134507  0.16207697  0.82810180  1
  Fe  Fe30  1  0.16045578  0.49541987  0.49406580  1
  Cr  Cr31  1  0.99358154  0.32946043  0.66118214  1
  Cr  Cr32  1  0.16228520  0.49469673  0.82865258  1
  Cr  Cr33  1  0.16032041  0.82680755  0.49341844  1
  Fe  Fe34  1  -0.00539673  0.66072682  0.66075001  1
  Fe  Fe35  1  0.16256050  0.82567026  0.82701654  1
  Cr  Cr36  1  0.49520953  0.16055955  0.49391762  1
  Cr  Cr37  1  0.32870876  0.99279290  0.66523763  1
  Cr  Cr38  1  0.49364352  0.16185553  0.82891360  1
  Fe  Fe39  1  0.49416508  0.49693608  0.49347220  1
  Cr  Cr40  1  0.32762082  0.32851878  0.65764519  1
  Cr  Cr41  1  0.49304964  0.49582540  0.82722071  1
  Fe  Fe42  1  0.49537728  0.82764124  0.49432569  1
  Cr  Cr43  1  0.32808719  0.66191185  0.65757619  1
  Ni  Ni44  1  0.49462863  0.82407183  0.82653769  1
  Cr  Cr45  1  0.82715328  0.15820133  0.49060956  1
  Cr  Cr46  1  0.65950346  0.99306716  0.66076622  1
  Cr  Cr47  1  0.82855458  0.16022234  0.82894516  1
  Cr  Cr48  1  0.82593045  0.49679292  0.49634523  1
  Cr  Cr49  1  0.66133919  0.32902278  0.66031471  1
  Fe  Fe50  1  0.82720018  0.49462816  0.82674329  1
  Fe  Fe51  1  0.82619761  0.82757461  0.49389809  1
  Fe  Fe52  1  0.65975940  0.66176117  0.66030529  1
  Cr  Cr53  1  0.82729671  0.82575873  0.82363587  1
" 