6749,Ni3Fe48Cr47_15,-217.549453324139, 175.26588547384,Ni3Fe48Cr47,"# generated using pymatgen
 data_Cr27Fe25Ni2
_symmetry_space_group_name_H-M   'P 1'
_cell_length_a   7.53516927
_cell_length_b   7.53516927
_cell_length_c   10.65633858
_cell_angle_alpha   90.00000000
_cell_angle_beta   90.00000000
_cell_angle_gamma   90.00000000
_symmetry_Int_Tables_number   1
_chemical_formula_structural   Cr27Fe25Ni2
_chemical_formula_sum   'Cr27 Fe25 Ni2'
_cell_volume   605.05386035
_cell_formula_units_Z   1
loop_
 _symmetry_equiv_pos_site_id
 _symmetry_equiv_pos_as_xyz
  1  'x, y, z'
loop_
 _atom_site_type_symbol
 _atom_site_label
 _atom_site_symmetry_multiplicity
 _atom_site_fract_x
 _atom_site_fract_y
 _atom_site_fract_z
 _atom_site_occupancy
  Fe  Fe0  1  -0.00441793  0.99452994  0.99490071  1
  Fe  Fe1  1  0.16252645  0.16029564  0.16268022  1
  Ni  Ni2  1  -0.00398082  -0.00148985  0.32956749  1
  Cr  Cr3  1  0.99326904  0.32803692  -0.00301766  1
  Cr  Cr4  1  0.15946703  0.49495759  0.16124826  1
  Fe  Fe5  1  -0.00422067  0.32777212  0.33035102  1
  Fe  Fe6  1  0.99401691  0.66467698  0.99464957  1
  Cr  Cr7  1  0.16007313  0.83107586  0.16364952  1
  Fe  Fe8  1  0.99389796  0.65988765  0.32937093  1
  Fe  Fe9  1  0.32759268  -0.00367690  -0.00397747  1
  Fe  Fe10  1  0.49290929  0.16324840  0.16071921  1
  Fe  Fe11  1  0.32640959  -0.00146103  0.32864001  1
  Fe  Fe12  1  0.32993579  0.32740897  -0.00203875  1
  Fe  Fe13  1  0.49722576  0.49533718  0.16042296  1
  Cr  Cr14  1  0.32762758  0.33018525  0.32852009  1
  Cr  Cr15  1  0.32752660  0.66409131  0.99371635  1
  Cr  Cr16  1  0.49572555  0.83032955  0.16559497  1
  Cr  Cr17  1  0.32825606  0.66164033  0.33046522  1
  Cr  Cr18  1  0.66281424  -0.00308867  0.99362058  1
  Cr  Cr19  1  0.82972847  0.16198013  0.16248656  1
  Cr  Cr20  1  0.66262795  -0.00234828  0.32963074  1
  Fe  Fe21  1  0.66145147  0.32941643  -0.00340800  1
  Fe  Fe22  1  0.82743144  0.49710956  0.16160539  1
  Cr  Cr23  1  0.66443734  0.32943153  0.32688155  1
  Fe  Fe24  1  0.66230176  0.66217249  -0.00344260  1
  Cr  Cr25  1  0.83020390  0.82618473  0.16415423  1
  Fe  Fe26  1  0.66382903  0.65950393  0.32877197  1
  Fe  Fe27  1  0.16012676  0.16123012  0.49413511  1
  Fe  Fe28  1  0.99509356  -0.00449406  0.66183495  1
  Cr  Cr29  1  0.16169224  0.16213202  0.82872443  1
  Fe  Fe30  1  0.16139966  0.49452426  0.49487155  1
  Cr  Cr31  1  0.99459839  0.32713785  0.65763302  1
  Cr  Cr32  1  0.16276755  0.49338042  0.82834277  1
  Cr  Cr33  1  0.15984755  0.83070634  0.49242472  1
  Cr  Cr34  1  -0.00232401  0.66233050  0.66446479  1
  Fe  Fe35  1  0.15971851  0.83088541  0.83039538  1
  Cr  Cr36  1  0.49332301  0.16323483  0.49610449  1
  Cr  Cr37  1  0.32900010  0.99196017  0.66283619  1
  Cr  Cr38  1  0.49462956  0.16472083  0.83043298  1
  Fe  Fe39  1  0.49718315  0.49559146  0.49615107  1
  Fe  Fe40  1  0.32794342  0.32851746  0.65995107  1
  Cr  Cr41  1  0.49598532  0.49413704  0.82749210  1
  Cr  Cr42  1  0.49758829  0.82815462  0.49418905  1
  Cr  Cr43  1  0.32880663  0.66169615  0.66160483  1
  Fe  Fe44  1  0.49715641  0.82854711  0.82933215  1
  Fe  Fe45  1  0.83156807  0.16067050  0.49390180  1
  Cr  Cr46  1  0.66524628  -0.00446137  0.66403871  1
  Ni  Ni47  1  0.83086776  0.15962492  0.82791633  1
  Fe  Fe48  1  0.82856806  0.49634476  0.49412948  1
  Cr  Cr49  1  0.66553811  0.32664770  0.66151831  1
  Cr  Cr50  1  0.82778973  0.49595727  0.83183388  1
  Cr  Cr51  1  0.82950797  0.82762843  0.49393885  1
  Fe  Fe52  1  0.66335994  0.66196038  0.66219522  1
  Fe  Fe53  1  0.83025901  0.82993378  0.82975034  1
" 