3540,Ni3Fe48Cr47_19,-217.250536102588, 173.230110109448,Ni3Fe48Cr47,"# generated using pymatgen
 data_Cr27Fe25Ni2
_symmetry_space_group_name_H-M   'P 1'
_cell_length_a   7.53373565
_cell_length_b   7.53373565
_cell_length_c   10.65431113
_cell_angle_alpha   90.00000000
_cell_angle_beta   90.00000000
_cell_angle_gamma   90.00000000
_symmetry_Int_Tables_number   1
_chemical_formula_structural   Cr27Fe25Ni2
_chemical_formula_sum   'Cr27 Fe25 Ni2'
_cell_volume   604.70857878
_cell_formula_units_Z   1
loop_
 _symmetry_equiv_pos_site_id
 _symmetry_equiv_pos_as_xyz
  1  'x, y, z'
loop_
 _atom_site_type_symbol
 _atom_site_label
 _atom_site_symmetry_multiplicity
 _atom_site_fract_x
 _atom_site_fract_y
 _atom_site_fract_z
 _atom_site_occupancy
  Cr  Cr0  1  -0.00332074  0.99171689  0.99517325  1
  Cr  Cr1  1  0.16140766  0.16115798  0.16045177  1
  Fe  Fe2  1  -0.00365128  0.99521997  0.33076882  1
  Fe  Fe3  1  0.99444168  0.33199940  -0.00438415  1
  Cr  Cr4  1  0.15829453  0.49506395  0.16333004  1
  Ni  Ni5  1  0.99372237  0.32628466  0.32892941  1
  Cr  Cr6  1  0.99501605  0.66399771  0.99545600  1
  Fe  Fe7  1  0.16223318  0.83042986  0.16429304  1
  Fe  Fe8  1  0.99441297  0.66355602  0.32878228  1
  Fe  Fe9  1  0.32913271  0.99184733  0.99551163  1
  Cr  Cr10  1  0.49448957  0.15770134  0.16140497  1
  Fe  Fe11  1  0.32656363  0.99551683  0.33065066  1
  Cr  Cr12  1  0.33002702  0.33077799  0.99456337  1
  Cr  Cr13  1  0.49686191  0.49844117  0.16433254  1
  Cr  Cr14  1  0.32868351  0.32715813  0.33364951  1
  Cr  Cr15  1  0.32845482  0.66510228  0.99402883  1
  Fe  Fe16  1  0.49548653  0.83046820  0.16374304  1
  Cr  Cr17  1  0.32767792  0.66539701  0.32806132  1
  Cr  Cr18  1  0.66299264  0.99251761  0.99491513  1
  Cr  Cr19  1  0.83103545  0.16261436  0.16063678  1
  Fe  Fe20  1  0.66381802  0.99461307  0.32917638  1
  Cr  Cr21  1  0.66348992  0.33158571  -0.00427079  1
  Fe  Fe22  1  0.83081286  0.49613428  0.16481068  1
  Cr  Cr23  1  0.66270798  0.32818966  0.32959497  1
  Cr  Cr24  1  0.66314720  0.66238745  -0.00246015  1
  Fe  Fe25  1  0.82909090  0.82799999  0.16497630  1
  Fe  Fe26  1  0.66544124  0.66440154  0.32776748  1
  Fe  Fe27  1  0.16023327  0.15985844  0.49329336  1
  Cr  Cr28  1  0.99396278  0.99189703  0.65954261  1
  Cr  Cr29  1  0.16134442  0.16262328  0.83349873  1
  Cr  Cr30  1  0.15989641  0.49827957  0.49613093  1
  Cr  Cr31  1  0.99547350  0.32763467  0.66266649  1
  Fe  Fe32  1  0.16148925  0.49726849  0.82781846  1
  Ni  Ni33  1  0.16036061  0.83047857  0.49431939  1
  Fe  Fe34  1  -0.00354269  0.66356759  0.66298656  1
  Fe  Fe35  1  0.16258836  0.82769441  0.82677370  1
  Fe  Fe36  1  0.49605470  0.15917121  0.49508655  1
  Cr  Cr37  1  0.32659464  0.99456354  0.66114880  1
  Cr  Cr38  1  0.49579226  0.15873214  0.82986219  1
  Cr  Cr39  1  0.49643937  0.49916413  0.49696915  1
  Cr  Cr40  1  0.32988582  0.32992067  0.65939558  1
  Fe  Fe41  1  0.49575356  0.49780249  0.82726257  1
  Cr  Cr42  1  0.49732022  0.82953972  0.49589648  1
  Fe  Fe43  1  0.32685239  0.66399906  0.66337265  1
  Fe  Fe44  1  0.49596194  0.82744874  0.82705439  1
  Fe  Fe45  1  0.83020606  0.15977450  0.49361808  1
  Fe  Fe46  1  0.66291943  0.99434675  0.66191110  1
  Cr  Cr47  1  0.82957527  0.16169915  0.83019237  1
  Cr  Cr48  1  0.83046182  0.49765889  0.49347059  1
  Cr  Cr49  1  0.66142264  0.32817109  0.66131127  1
  Fe  Fe50  1  0.82955943  0.49753410  0.82786412  1
  Fe  Fe51  1  0.83042207  0.82852619  0.49444497  1
  Fe  Fe52  1  0.66345554  0.66420498  0.66427141  1
  Fe  Fe53  1  0.82804477  0.82715829  0.82694245  1
" 