3997,Ni3Fe10Cr85_13,-204.693308037485, 200.871905032317,Ni3Fe10Cr85,"# generated using pymatgen
 data_Cr47Fe5Ni2
_symmetry_space_group_name_H-M   'P 1'
_cell_length_a   7.58526281
_cell_length_b   7.58526281
_cell_length_c   10.72718153
_cell_angle_alpha   90.00000000
_cell_angle_beta   90.00000000
_cell_angle_gamma   90.00000000
_symmetry_Int_Tables_number   1
_chemical_formula_structural   Cr47Fe5Ni2
_chemical_formula_sum   'Cr47 Fe5 Ni2'
_cell_volume   617.20138905
_cell_formula_units_Z   1
loop_
 _symmetry_equiv_pos_site_id
 _symmetry_equiv_pos_as_xyz
  1  'x, y, z'
loop_
 _atom_site_type_symbol
 _atom_site_label
 _atom_site_symmetry_multiplicity
 _atom_site_fract_x
 _atom_site_fract_y
 _atom_site_fract_z
 _atom_site_occupancy
  Cr  Cr0  1  0.99080281  -0.00770889  -0.00697590  1
  Cr  Cr1  1  0.15853186  0.15752618  0.15901221  1
  Cr  Cr2  1  0.99091561  -0.00731751  0.32512154  1
  Cr  Cr3  1  -0.00678650  0.32546532  -0.00439575  1
  Fe  Fe4  1  0.15973800  0.49194196  0.15946260  1
  Cr  Cr5  1  -0.00725676  0.32549719  0.32339055  1
  Cr  Cr6  1  -0.00678054  0.65881995  -0.00630497  1
  Cr  Cr7  1  0.15996227  0.82509680  0.16048664  1
  Cr  Cr8  1  -0.00623397  0.65831320  0.32433719  1
  Cr  Cr9  1  0.32593363  -0.00768127  0.99165629  1
  Cr  Cr10  1  0.49226443  0.15855997  0.15914259  1
  Fe  Fe11  1  0.32489809  -0.00774944  0.32540820  1
  Cr  Cr12  1  0.32408709  0.32599488  0.99086594  1
  Cr  Cr13  1  0.49186858  0.49328576  0.15916529  1
  Cr  Cr14  1  0.32411750  0.32622589  0.32591581  1
  Cr  Cr15  1  0.32400693  0.65815413  -0.00732683  1
  Cr  Cr16  1  0.49049829  0.82488422  0.16054707  1
  Fe  Fe17  1  0.32482792  0.65884603  0.32511954  1
  Cr  Cr18  1  0.65985626  -0.00763450  -0.00575466  1
  Ni  Ni19  1  0.82671724  0.15809943  0.15899799  1
  Cr  Cr20  1  0.65920958  -0.00724712  0.32387459  1
  Cr  Cr21  1  0.65938350  0.32353331  -0.00658263  1
  Cr  Cr22  1  0.82513794  0.49184650  0.15854630  1
  Cr  Cr23  1  0.65977069  0.32369476  0.32550942  1
  Cr  Cr24  1  0.65933224  0.66082480  0.99131175  1
  Fe  Fe25  1  0.82549258  0.82722841  0.15910958  1
  Cr  Cr26  1  0.65923263  0.66026691  0.32671408  1
  Cr  Cr27  1  0.15876385  0.15693013  0.49391348  1
  Ni  Ni28  1  -0.00649546  -0.00697912  0.65872242  1
  Cr  Cr29  1  0.15792714  0.15790509  0.82328693  1
  Cr  Cr30  1  0.15933513  0.49242988  0.49074083  1
  Cr  Cr31  1  -0.00593546  0.32515131  0.65782034  1
  Cr  Cr32  1  0.15843472  0.49127338  0.82639457  1
  Cr  Cr33  1  0.15912749  0.82738982  0.49155961  1
  Cr  Cr34  1  -0.00662641  0.65997724  0.65885549  1
  Cr  Cr35  1  0.15737481  0.82743593  0.82443688  1
  Cr  Cr36  1  0.49040046  0.15881050  0.49147239  1
  Cr  Cr37  1  0.32558327  -0.00745824  0.65894048  1
  Cr  Cr38  1  0.49135623  0.16001496  0.82561159  1
  Cr  Cr39  1  0.49219692  0.49226662  0.49229248  1
  Fe  Fe40  1  0.32480914  0.32541065  0.65864326  1
  Cr  Cr41  1  0.49297910  0.49127034  0.82497450  1
  Cr  Cr42  1  0.48998186  0.82546964  0.48901524  1
  Cr  Cr43  1  0.32538211  0.65783445  0.65893166  1
  Cr  Cr44  1  0.49186758  0.82528253  0.82689143  1
  Cr  Cr45  1  0.82720601  0.15865906  0.49288544  1
  Cr  Cr46  1  0.65907602  0.99190484  0.65887923  1
  Cr  Cr47  1  0.82723762  0.15892576  0.82511697  1
  Cr  Cr48  1  0.82513882  0.49207745  0.49308019  1
  Cr  Cr49  1  0.65693844  0.32489286  0.65780611  1
  Cr  Cr50  1  0.82512558  0.49180278  0.82499820  1
  Cr  Cr51  1  0.82729132  0.82594929  0.49388546  1
  Cr  Cr52  1  0.65785653  0.65983382  0.65885100  1
  Cr  Cr53  1  0.82734832  0.82598120  0.82484837  1
" 