247,Ni3Fe48Cr47_0,-217.190854038638, 177.740382435777,Ni3Fe48Cr47,"# generated using pymatgen
 data_Cr27Fe25Ni2
_symmetry_space_group_name_H-M   'P 1'
_cell_length_a   7.53253071
_cell_length_b   7.53253071
_cell_length_c   10.65260709
_cell_angle_alpha   90.00000000
_cell_angle_beta   90.00000000
_cell_angle_gamma   90.00000000
_symmetry_Int_Tables_number   1
_chemical_formula_structural   Cr27Fe25Ni2
_chemical_formula_sum   'Cr27 Fe25 Ni2'
_cell_volume   604.41847514
_cell_formula_units_Z   1
loop_
 _symmetry_equiv_pos_site_id
 _symmetry_equiv_pos_as_xyz
  1  'x, y, z'
loop_
 _atom_site_type_symbol
 _atom_site_label
 _atom_site_symmetry_multiplicity
 _atom_site_fract_x
 _atom_site_fract_y
 _atom_site_fract_z
 _atom_site_occupancy
  Fe  Fe0  1  -0.00301292  0.99222517  -0.00358187  1
  Cr  Cr1  1  0.16167031  0.16072403  0.16175761  1
  Cr  Cr2  1  0.99400752  0.99188224  0.32736986  1
  Fe  Fe3  1  0.99507967  0.33162502  0.99542026  1
  Fe  Fe4  1  0.16243117  0.49805144  0.16158953  1
  Fe  Fe5  1  0.99542616  0.33106121  0.32824679  1
  Fe  Fe6  1  -0.00198610  0.66251480  -0.00278522  1
  Ni  Ni7  1  0.16308900  0.82609457  0.15859498  1
  Cr  Cr8  1  -0.00366673  0.66282638  0.32753503  1
  Fe  Fe9  1  0.32828418  0.99085608  0.99498700  1
  Cr  Cr10  1  0.49287416  0.16022724  0.16370705  1
  Fe  Fe11  1  0.32827258  0.99347479  0.32819895  1
  Cr  Cr12  1  0.32896014  0.33246527  0.99553332  1
  Fe  Fe13  1  0.49313681  0.49741735  0.16318061  1
  Cr  Cr14  1  0.32865290  0.33106293  0.33200433  1
  Fe  Fe15  1  0.32704292  0.66531315  0.99508174  1
  Cr  Cr16  1  0.49325953  0.82658287  0.16467893  1
  Fe  Fe17  1  0.32723592  0.66256460  0.32719789  1
  Cr  Cr18  1  0.66475951  0.99491342  0.99445499  1
  Cr  Cr19  1  0.83251257  0.16487100  0.16001773  1
  Fe  Fe20  1  0.66241673  0.99516366  0.32855842  1
  Cr  Cr21  1  0.66222746  0.32898753  -0.00400621  1
  Fe  Fe22  1  0.83149944  0.49792925  0.16230683  1
  Cr  Cr23  1  0.66148110  0.32865239  0.32675289  1
  Cr  Cr24  1  0.66391644  0.66304915  -0.00108900  1
  Fe  Fe25  1  0.83138017  0.82875959  0.16187825  1
  Fe  Fe26  1  0.66286866  0.66200964  0.32652328  1
  Cr  Cr27  1  0.16139710  0.16310345  0.49242415  1
  Fe  Fe28  1  -0.00402061  -0.00432499  0.66326293  1
  Cr  Cr29  1  0.15834228  0.16134877  0.83274316  1
  Fe  Fe30  1  0.16034855  0.49698610  0.49563479  1
  Fe  Fe31  1  -0.00271879  0.32921713  0.66343684  1
  Fe  Fe32  1  0.16104739  0.49809778  0.83000515  1
  Cr  Cr33  1  0.16357440  0.82942841  0.49593427  1
  Fe  Fe34  1  -0.00282961  0.66197357  0.66258640  1
  Fe  Fe35  1  0.16338727  0.82744329  0.83164643  1
  Fe  Fe36  1  0.49793562  0.16058859  0.49545417  1
  Cr  Cr37  1  0.32960253  0.99545018  0.66272328  1
  Cr  Cr38  1  0.49482577  0.16085492  0.82849703  1
  Cr  Cr39  1  0.49774030  0.49930348  0.49568842  1
  Cr  Cr40  1  0.32926365  0.33003645  0.65987533  1
  Cr  Cr41  1  0.49726500  0.49973969  0.82978308  1
  Cr  Cr42  1  0.49631462  0.82830042  0.49308459  1
  Cr  Cr43  1  0.32537538  0.66175550  0.66477193  1
  Ni  Ni44  1  0.49411677  0.82789912  0.82940103  1
  Cr  Cr45  1  0.83060590  0.16329238  0.49902614  1
  Fe  Fe46  1  0.66155954  0.99523588  0.66373860  1
  Fe  Fe47  1  0.82905077  0.16150143  0.82728588  1
  Cr  Cr48  1  0.82967009  0.49616533  0.49814559  1
  Fe  Fe49  1  0.66232944  0.32749334  0.66277948  1
  Cr  Cr50  1  0.83058750  0.49405610  0.82640169  1
  Cr  Cr51  1  0.82638082  0.82713580  0.49701264  1
  Fe  Fe52  1  0.66049145  0.66418952  0.66366224  1
  Cr  Cr53  1  0.82981649  0.82770253  0.82615970  1
" 