919,Ni3Fe31Cr64_4,-212.432637776303, 192.711051840555,Ni3Fe31Cr64,"# generated using pymatgen
 data_Cr18Fe8Ni
_symmetry_space_group_name_H-M   'P 1'
_cell_length_a   7.55333465
_cell_length_b   7.55333465
_cell_length_c   10.68202830
_cell_angle_alpha   90.00000000
_cell_angle_beta   90.00000000
_cell_angle_gamma   90.00000000
_symmetry_Int_Tables_number   1
_chemical_formula_structural   Cr18Fe8Ni
_chemical_formula_sum   'Cr36 Fe16 Ni2'
_cell_volume   609.44031068
_cell_formula_units_Z   2
loop_
 _symmetry_equiv_pos_site_id
 _symmetry_equiv_pos_as_xyz
  1  'x, y, z'
loop_
 _atom_site_type_symbol
 _atom_site_label
 _atom_site_symmetry_multiplicity
 _atom_site_fract_x
 _atom_site_fract_y
 _atom_site_fract_z
 _atom_site_occupancy
  Cr  Cr0  1  0.99426400  0.99305927  -0.00368726  1
  Cr  Cr1  1  0.16064612  0.16330381  0.16210746  1
  Cr  Cr2  1  0.99238914  0.99408484  0.32788641  1
  Cr  Cr3  1  0.99055779  0.32674605  0.99415094  1
  Cr  Cr4  1  0.15869113  0.49268183  0.16074951  1
  Cr  Cr5  1  0.98919779  0.32608258  0.32775896  1
  Fe  Fe6  1  0.99323418  0.66103363  0.99271710  1
  Cr  Cr7  1  0.15929433  0.82662137  0.16058679  1
  Cr  Cr8  1  -0.00495702  0.66281931  0.33045417  1
  Cr  Cr9  1  0.32699438  0.99245092  0.99137296  1
  Cr  Cr10  1  0.49305385  0.15926310  0.16042601  1
  Cr  Cr11  1  0.32573595  0.99111346  0.32774936  1
  Cr  Cr12  1  0.33091145  0.32861167  0.99330217  1
  Cr  Cr13  1  0.49655403  0.49733999  0.16354998  1
  Cr  Cr14  1  0.33039634  0.33020126  0.32806954  1
  Cr  Cr15  1  0.32623978  0.66200950  -0.00488933  1
  Cr  Cr16  1  0.49899526  0.82664963  0.16169343  1
  Cr  Cr17  1  0.32833048  0.66128660  0.32861224  1
  Cr  Cr18  1  0.66179973  -0.00174132  0.99349316  1
  Fe  Fe19  1  0.82692601  0.16121423  0.16069215  1
  Cr  Cr20  1  0.66482150  -0.00321977  0.32821018  1
  Cr  Cr21  1  0.66092458  0.32769328  0.99398899  1
  Cr  Cr22  1  0.82790840  0.49836856  0.15909629  1
  Cr  Cr23  1  0.66256367  0.32841188  0.32768594  1
  Fe  Fe24  1  0.66123410  0.66010974  0.99372005  1
  Cr  Cr25  1  0.82456753  0.82520154  0.16093991  1
  Ni  Ni26  1  0.66308479  0.65928777  0.33153313  1
  Cr  Cr27  1  0.16119031  0.16306336  0.49519330  1
  Cr  Cr28  1  0.99398427  0.99141806  0.65897696  1
  Cr  Cr29  1  0.16257910  0.16300525  0.82492109  1
  Cr  Cr30  1  0.15882481  0.49132423  0.49442680  1
  Fe  Fe31  1  0.99256966  0.32910122  0.66035741  1
  Cr  Cr32  1  0.15632979  0.49346697  0.82778112  1
  Fe  Fe33  1  0.16139775  0.82798609  0.49545706  1
  Fe  Fe34  1  0.99193044  0.65962565  0.65988109  1
  Fe  Fe35  1  0.16041188  0.82781246  0.82636731  1
  Cr  Cr36  1  0.49279853  0.15958858  0.49691354  1
  Fe  Fe37  1  0.32908713  0.99395909  0.66172445  1
  Ni  Ni38  1  0.49408752  0.15982819  0.82354857  1
  Fe  Fe39  1  0.49621186  0.49471217  0.49504936  1
  Fe  Fe40  1  0.32868402  0.32828526  0.66169303  1
  Cr  Cr41  1  0.49497928  0.49546766  0.82704924  1
  Cr  Cr42  1  0.49971753  0.82766854  0.49342763  1
  Cr  Cr43  1  0.32642601  0.66252760  0.65974627  1
  Cr  Cr44  1  0.49838858  0.82935242  0.82736881  1
  Fe  Fe45  1  0.82699252  0.16104723  0.49643478  1
  Fe  Fe46  1  0.66112756  0.99376609  0.66132617  1
  Cr  Cr47  1  0.82840077  0.15924309  0.82648763  1
  Fe  Fe48  1  0.82535120  0.49597022  0.49517884  1
  Cr  Cr49  1  0.66197660  0.32840140  0.66122346  1
  Fe  Fe50  1  0.82644069  0.49446098  0.82676981  1
  Fe  Fe51  1  0.82754578  0.82596746  0.49528997  1
  Fe  Fe52  1  0.66294127  0.66076577  0.65890022  1
  Cr  Cr53  1  0.82682592  0.82306029  0.82809591  1
" 