5252,Ni3Fe65Cr31_12,-220.332056524571, 159.736579108948,Ni3Fe65Cr31,"# generated using pymatgen
 data_Cr18Fe35Ni
_symmetry_space_group_name_H-M   'P 1'
_cell_length_a   7.50186557
_cell_length_b   7.50186557
_cell_length_c   10.60924003
_cell_angle_alpha   90.00000000
_cell_angle_beta   90.00000000
_cell_angle_gamma   90.00000000
_symmetry_Int_Tables_number   1
_chemical_formula_structural   Cr18Fe35Ni
_chemical_formula_sum   'Cr18 Fe35 Ni1'
_cell_volume   597.06667284
_cell_formula_units_Z   1
loop_
 _symmetry_equiv_pos_site_id
 _symmetry_equiv_pos_as_xyz
  1  'x, y, z'
loop_
 _atom_site_type_symbol
 _atom_site_label
 _atom_site_symmetry_multiplicity
 _atom_site_fract_x
 _atom_site_fract_y
 _atom_site_fract_z
 _atom_site_occupancy
  Fe  Fe0  1  0.99656572  0.99590200  0.99634800  1
  Cr  Cr1  1  0.16365103  0.16226094  0.16143248  1
  Cr  Cr2  1  0.99749015  0.99608213  0.33254347  1
  Fe  Fe3  1  0.99514716  0.33375784  0.99658749  1
  Fe  Fe4  1  0.16247790  0.49653479  0.16449243  1
  Fe  Fe5  1  0.99662641  0.33256521  0.33053749  1
  Fe  Fe6  1  -0.00189126  0.66356808  0.99750806  1
  Cr  Cr7  1  0.16535695  0.82807297  0.16341264  1
  Fe  Fe8  1  -0.00148170  0.66212524  0.33102077  1
  Fe  Fe9  1  0.33225932  0.99434840  0.99587444  1
  Cr  Cr10  1  0.49900287  0.16307964  0.16655747  1
  Fe  Fe11  1  0.33318300  0.99631061  0.33259602  1
  Cr  Cr12  1  0.32885723  0.32905510  0.99628780  1
  Cr  Cr13  1  0.49664123  0.49802347  0.16371568  1
  Fe  Fe14  1  0.33036630  0.33142442  0.33165671  1
  Fe  Fe15  1  0.33136593  0.66504764  0.99635575  1
  Fe  Fe16  1  0.49766742  0.83268021  0.16383201  1
  Fe  Fe17  1  0.33054190  0.66412471  0.33186135  1
  Fe  Fe18  1  0.66474036  0.99651213  0.99756800  1
  Cr  Cr19  1  0.82967465  0.16481190  0.16457890  1
  Fe  Fe20  1  0.66439472  -0.00143339  0.33340675  1
  Fe  Fe21  1  0.66590688  0.33194628  -0.00175815  1
  Fe  Fe22  1  0.83362721  0.49704880  0.16516679  1
  Ni  Ni23  1  0.66402908  0.33249229  0.33220907  1
  Cr  Cr24  1  0.66683370  0.66464703  -0.00213853  1
  Fe  Fe25  1  0.83169876  0.83226186  0.16321948  1
  Cr  Cr26  1  0.66641380  0.66683204  0.32844426  1
  Cr  Cr27  1  0.16219767  0.16417996  0.49739705  1
  Fe  Fe28  1  0.99556760  0.99556353  0.66327970  1
  Fe  Fe29  1  0.16219867  0.16320501  0.83199295  1
  Fe  Fe30  1  0.16379208  0.49937840  0.49767959  1
  Fe  Fe31  1  0.99689693  0.33090216  0.66450236  1
  Cr  Cr32  1  0.16408450  0.50199741  0.82905240  1
  Fe  Fe33  1  0.16459620  0.82733153  0.49751487  1
  Fe  Fe34  1  -0.00045455  0.66709182  0.66386903  1
  Fe  Fe35  1  0.16276813  0.83353128  0.83237043  1
  Fe  Fe36  1  0.49957462  0.16380418  0.49621383  1
  Cr  Cr37  1  0.32869965  -0.00155235  0.66510159  1
  Cr  Cr38  1  0.50092120  0.16418623  0.83180314  1
  Cr  Cr39  1  0.49692594  0.49885783  0.49970414  1
  Cr  Cr40  1  0.33028654  0.33033527  0.66476157  1
  Fe  Fe41  1  0.49883407  0.49805358  0.83134835  1
  Fe  Fe42  1  0.49764491  0.83222893  0.49763433  1
  Fe  Fe43  1  0.33043729  0.66685234  0.66433371  1
  Fe  Fe44  1  0.49656795  0.83055013  0.83180070  1
  Fe  Fe45  1  0.82806878  0.16417381  0.49796152  1
  Fe  Fe46  1  0.66420007  0.99760755  0.66267759  1
  Cr  Cr47  1  0.83132826  0.16404379  0.82939296  1
  Cr  Cr48  1  0.83206700  0.49731424  0.49899086  1
  Fe  Fe49  1  0.66475388  0.32939838  0.66329106  1
  Fe  Fe50  1  0.83131402  0.49703168  0.83053086  1
  Fe  Fe51  1  0.83107819  0.83152604  0.49899286  1
  Cr  Cr52  1  0.66561958  0.66556601  0.66786402  1
  Fe  Fe53  1  0.83357063  0.83144542  0.83130842  1
" 