1668,Ni3Fe90Cr6_16,-222.887881346594, 127.389706543722,Ni3Fe90Cr6,"# generated using pymatgen
 data_Cr5Fe48Ni
_symmetry_space_group_name_H-M   'P 1'
_cell_length_a   7.45136940
_cell_length_b   7.45136940
_cell_length_c   10.53782766
_cell_angle_alpha   90.00000000
_cell_angle_beta   90.00000000
_cell_angle_gamma   90.00000000
_symmetry_Int_Tables_number   1
_chemical_formula_structural   Cr5Fe48Ni
_chemical_formula_sum   'Cr5 Fe48 Ni1'
_cell_volume   585.09081387
_cell_formula_units_Z   1
loop_
 _symmetry_equiv_pos_site_id
 _symmetry_equiv_pos_as_xyz
  1  'x, y, z'
loop_
 _atom_site_type_symbol
 _atom_site_label
 _atom_site_symmetry_multiplicity
 _atom_site_fract_x
 _atom_site_fract_y
 _atom_site_fract_z
 _atom_site_occupancy
  Fe  Fe0  1  1.00085244  0.99893773  0.99880242  1
  Cr  Cr1  1  0.16897506  0.16622351  0.16677574  1
  Fe  Fe2  1  0.00124210  0.99905489  0.33668567  1
  Fe  Fe3  1  0.00107202  0.33451336  0.99755029  1
  Cr  Cr4  1  0.16828506  0.50143761  0.16875067  1
  Fe  Fe5  1  0.00233012  0.33295129  0.33686580  1
  Fe  Fe6  1  0.00112327  0.66965774  0.99895537  1
  Fe  Fe7  1  0.16714039  0.83424996  0.16764559  1
  Fe  Fe8  1  0.00191562  0.67112306  0.33558667  1
  Fe  Fe9  1  0.33575571  0.99965384  0.99964670  1
  Fe  Fe10  1  0.50107482  0.16833648  0.16755304  1
  Fe  Fe11  1  0.33556321  0.99984052  0.33561770  1
  Fe  Fe12  1  0.33646982  0.33471542  0.99894988  1
  Fe  Fe13  1  0.50079344  0.50029037  0.16869741  1
  Fe  Fe14  1  0.33669938  0.33443405  0.33672651  1
  Fe  Fe15  1  0.33557662  0.66869464  0.99996158  1
  Fe  Fe16  1  0.50091360  0.83454715  0.16755027  1
  Fe  Fe17  1  0.33610444  0.66871337  0.33598582  1
  Fe  Fe18  1  0.66661714  0.99991136  0.99990907  1
  Cr  Cr19  1  0.83401824  0.16744772  0.16806625  1
  Fe  Fe20  1  0.66641650  0.99981204  0.33550664  1
  Fe  Fe21  1  0.66559462  0.33444731  0.99884832  1
  Cr  Cr22  1  0.83321203  0.50176888  0.16782510  1
  Fe  Fe23  1  0.66392471  0.33372583  0.33584571  1
  Fe  Fe24  1  0.66637715  0.66885503  0.99976015  1
  Fe  Fe25  1  0.83509913  0.83452444  0.16769510  1
  Fe  Fe26  1  0.66484295  0.66957918  0.33492865  1
  Fe  Fe27  1  0.16851321  0.16876897  0.50095314  1
  Fe  Fe28  1  0.00112536  0.00111609  0.66759007  1
  Fe  Fe29  1  0.16815845  0.16740213  0.83458736  1
  Fe  Fe30  1  0.17020711  0.50128776  0.50088950  1
  Fe  Fe31  1  0.00204505  0.33333667  0.66882550  1
  Fe  Fe32  1  0.16803560  0.50129927  0.83460874  1
  Fe  Fe33  1  0.16853597  0.83308905  0.50144755  1
  Fe  Fe34  1  0.00202452  0.66868771  0.66878221  1
  Fe  Fe35  1  0.16818281  0.83445655  0.83405501  1
  Fe  Fe36  1  0.50143215  0.16881018  0.50147217  1
  Fe  Fe37  1  0.33430378  0.00110181  0.66770624  1
  Fe  Fe38  1  0.50092420  0.16729767  0.83414785  1
  Ni  Ni39  1  0.50036923  0.50195016  0.50145948  1
  Fe  Fe40  1  0.33488327  0.33486784  0.66724410  1
  Fe  Fe41  1  0.50095786  0.50131655  0.83302587  1
  Fe  Fe42  1  0.50142371  0.83324428  0.50153699  1
  Fe  Fe43  1  0.33484540  0.66724861  0.66730873  1
  Fe  Fe44  1  0.50093012  0.83453594  0.83406948  1
  Fe  Fe45  1  0.83318996  0.16646209  0.50090547  1
  Fe  Fe46  1  0.66771976  0.00110422  0.66784930  1
  Fe  Fe47  1  0.83407237  0.16744266  0.83452058  1
  Cr  Cr48  1  0.83345713  0.50139721  0.50114786  1
  Fe  Fe49  1  0.66603406  0.33394802  0.66818122  1
  Fe  Fe50  1  0.83415516  0.50129901  0.83414797  1
  Fe  Fe51  1  0.83316305  0.83533155  0.50143869  1
  Fe  Fe52  1  0.66608697  0.66814857  0.66820868  1
  Fe  Fe53  1  0.83404405  0.83441256  0.83400806  1
" 