1707,Ni3Fe90Cr6_14,-222.935235974666, 131.640696317672,Ni3Fe90Cr6,"# generated using pymatgen
 data_Cr5Fe48Ni
_symmetry_space_group_name_H-M   'P 1'
_cell_length_a   7.44432931
_cell_length_b   7.44432931
_cell_length_c   10.52787148
_cell_angle_alpha   90.00000000
_cell_angle_beta   90.00000000
_cell_angle_gamma   90.00000000
_symmetry_Int_Tables_number   1
_chemical_formula_structural   Cr5Fe48Ni
_chemical_formula_sum   'Cr5 Fe48 Ni1'
_cell_volume   583.43399160
_cell_formula_units_Z   1
loop_
 _symmetry_equiv_pos_site_id
 _symmetry_equiv_pos_as_xyz
  1  'x, y, z'
loop_
 _atom_site_type_symbol
 _atom_site_label
 _atom_site_symmetry_multiplicity
 _atom_site_fract_x
 _atom_site_fract_y
 _atom_site_fract_z
 _atom_site_occupancy
  Cr  Cr0  1  0.00229026  1.00062523  0.00229469  1
  Fe  Fe1  1  0.16814898  0.16981397  0.16820026  1
  Fe  Fe2  1  0.99992158  0.00307621  0.33466767  1
  Fe  Fe3  1  1.00152127  0.33648814  1.00152200  1
  Fe  Fe4  1  0.16898441  0.50072698  0.16739522  1
  Fe  Fe5  1  0.00176375  0.33303585  0.33486344  1
  Fe  Fe6  1  0.00158785  0.66659583  0.00158707  1
  Fe  Fe7  1  0.16901415  0.83404155  0.16741450  1
  Cr  Cr8  1  1.00095814  0.66902330  0.33486124  1
  Fe  Fe9  1  0.33646118  0.00152694  0.00176525  1
  Fe  Fe10  1  0.50233849  0.16895709  0.16738458  1
  Cr  Cr11  1  0.33397221  0.00327649  0.33283315  1
  Fe  Fe12  1  0.33462632  0.33459321  0.00154957  1
  Fe  Fe13  1  0.50150476  0.50157659  0.16826267  1
  Fe  Fe14  1  0.33465216  0.33671018  0.33488516  1
  Fe  Fe15  1  0.33450938  0.66845749  0.00161474  1
  Fe  Fe16  1  0.50233612  0.83404928  0.16762623  1
  Fe  Fe17  1  0.33556171  0.66580324  0.33401687  1
  Fe  Fe18  1  0.66658416  0.00159322  0.00161495  1
  Fe  Fe19  1  0.83409235  0.16896635  0.16903364  1
  Fe  Fe20  1  0.67084096  0.00214979  0.33397186  1
  Fe  Fe21  1  0.66842956  0.33455239  0.00158855  1
  Fe  Fe22  1  0.83408545  0.50072864  0.16737103  1
  Fe  Fe23  1  0.66816300  0.33479534  0.33481912  1
  Fe  Fe24  1  0.66847999  0.66843197  1.00089577  1
  Fe  Fe25  1  0.83322687  0.83488214  0.16823835  1
  Fe  Fe26  1  0.66718414  0.66761733  0.33470558  1
  Fe  Fe27  1  0.16757888  0.16875498  0.50233203  1
  Fe  Fe28  1  1.00092079  0.00245195  0.66836079  1
  Fe  Fe29  1  0.16895717  0.16898594  0.83403735  1
  Fe  Fe30  1  0.17004103  0.50011190  0.50144319  1
  Fe  Fe31  1  1.00089705  0.33390083  0.66819139  1
  Fe  Fe32  1  0.16896189  0.50066452  0.83574598  1
  Fe  Fe33  1  0.16739404  0.83572982  0.50225862  1
  Cr  Cr34  1  1.00021425  0.66887537  0.66890303  1
  Fe  Fe35  1  0.16981688  0.83492656  0.83490225  1
  Fe  Fe36  1  0.50225864  0.17057281  0.50225722  1
  Fe  Fe37  1  0.33442321  1.00146707  0.66878423  1
  Fe  Fe38  1  0.50146116  0.16814177  0.83491975  1
  Fe  Fe39  1  0.50186594  0.50032098  0.50186615  1
  Fe  Fe40  1  0.33527471  0.33570087  0.66814409  1
  Fe  Fe41  1  0.50188755  0.50193759  0.83445023  1
  Cr  Cr42  1  0.50258734  0.83268489  0.50258490  1
  Fe  Fe43  1  0.33633311  0.66740055  0.66895348  1
  Fe  Fe44  1  0.50189020  0.83449468  0.83425322  1
  Fe  Fe45  1  0.83473606  0.16792850  0.50143798  1
  Fe  Fe46  1  0.66923508  1.00136227  0.66899810  1
  Fe  Fe47  1  0.83416195  0.16898221  0.83411238  1
  Fe  Fe48  1  0.83266487  0.50053136  0.50188655  1
  Fe  Fe49  1  0.66840538  0.33581640  0.66817041  1
  Fe  Fe50  1  0.83372383  0.50108421  0.83532478  1
  Fe  Fe51  1  0.83450552  0.83612268  0.50187102  1
  Ni  Ni52  1  0.66808937  0.66684103  0.66873986  1
  Fe  Fe53  1  0.83287237  0.83451100  0.83448535  1
" 