8700,Ni3Fe40Cr55_7,-214.575352103939, 186.55421623267,Ni3Fe40Cr55,"# generated using pymatgen
 data_Cr31Fe22Ni
_symmetry_space_group_name_H-M   'P 1'
_cell_length_a   7.53645450
_cell_length_b   7.53645450
_cell_length_c   10.65815616
_cell_angle_alpha   90.00000000
_cell_angle_beta   90.00000000
_cell_angle_gamma   90.00000000
_symmetry_Int_Tables_number   1
_chemical_formula_structural   Cr31Fe22Ni
_chemical_formula_sum   'Cr31 Fe22 Ni1'
_cell_volume   605.36351392
_cell_formula_units_Z   1
loop_
 _symmetry_equiv_pos_site_id
 _symmetry_equiv_pos_as_xyz
  1  'x, y, z'
loop_
 _atom_site_type_symbol
 _atom_site_label
 _atom_site_symmetry_multiplicity
 _atom_site_fract_x
 _atom_site_fract_y
 _atom_site_fract_z
 _atom_site_occupancy
  Fe  Fe0  1  -0.00273147  -0.00267458  -0.00423847  1
  Ni  Ni1  1  0.16248621  0.16276110  0.16252143  1
  Fe  Fe2  1  -0.00417598  -0.00324592  0.32767499  1
  Cr  Cr3  1  -0.00369369  0.32873521  -0.00356728  1
  Fe  Fe4  1  0.16004698  0.49481329  0.16212507  1
  Fe  Fe5  1  -0.00322842  0.32786532  0.32723973  1
  Fe  Fe6  1  -0.00447085  0.66161997  -0.00438296  1
  Cr  Cr7  1  0.16116845  0.83175814  0.15903812  1
  Cr  Cr8  1  -0.00438503  0.66138534  0.33036576  1
  Fe  Fe9  1  0.32858184  -0.00195576  -0.00382530  1
  Fe  Fe10  1  0.49543627  0.16174346  0.16096185  1
  Cr  Cr11  1  0.33006535  -0.00363085  0.32571092  1
  Cr  Cr12  1  0.32881465  0.32863714  -0.00236818  1
  Fe  Fe13  1  0.49581209  0.49440757  0.16149210  1
  Cr  Cr14  1  0.32718349  0.32871769  0.32522593  1
  Cr  Cr15  1  0.32715704  0.66136053  -0.00408434  1
  Cr  Cr16  1  0.49665547  0.82685759  0.16202609  1
  Cr  Cr17  1  0.32703931  0.66111369  0.32713111  1
  Cr  Cr18  1  0.66123399  -0.00220967  0.99451189  1
  Cr  Cr19  1  0.83059552  0.16241665  0.16105434  1
  Fe  Fe20  1  0.66363495  0.99424083  0.32863255  1
  Fe  Fe21  1  0.65980917  0.32908489  0.99499687  1
  Cr  Cr22  1  0.82571885  0.49607838  0.16131128  1
  Cr  Cr23  1  0.66239206  0.32618967  0.32731494  1
  Fe  Fe24  1  0.65999766  0.66078840  0.99504789  1
  Cr  Cr25  1  0.82846435  0.82760205  0.16165130  1
  Fe  Fe26  1  0.66246472  0.66196075  0.32934658  1
  Cr  Cr27  1  0.16245355  0.16128162  0.49626360  1
  Fe  Fe28  1  0.99370818  0.99476705  0.66261799  1
  Cr  Cr29  1  0.16289317  0.16106174  0.82579166  1
  Cr  Cr30  1  0.16304168  0.49273231  0.49629409  1
  Cr  Cr31  1  0.99466737  0.32944171  0.66150066  1
  Fe  Fe32  1  0.16208183  0.49478892  0.82901807  1
  Cr  Cr33  1  0.16225391  0.83206189  0.49705556  1
  Cr  Cr34  1  -0.00456191  0.66196867  0.66187422  1
  Cr  Cr35  1  0.16279610  0.83089801  0.83002001  1
  Cr  Cr36  1  0.49344202  0.16276523  0.49608308  1
  Fe  Fe37  1  0.33007020  -0.00424818  0.66301331  1
  Fe  Fe38  1  0.49462945  0.16190086  0.82920408  1
  Cr  Cr39  1  0.49733192  0.49468971  0.49530965  1
  Fe  Fe40  1  0.33007286  0.32880289  0.66400562  1
  Fe  Fe41  1  0.49399347  0.49525794  0.82935406  1
  Cr  Cr42  1  0.49561230  0.82854225  0.49400672  1
  Cr  Cr43  1  0.32805953  0.66188050  0.66356201  1
  Fe  Fe44  1  0.49509989  0.82920835  0.82946594  1
  Cr  Cr45  1  0.83052944  0.16229450  0.49432177  1
  Cr  Cr46  1  0.66267005  -0.00427938  0.66236124  1
  Fe  Fe47  1  0.82980360  0.16130154  0.82983678  1
  Fe  Fe48  1  0.82816025  0.49539800  0.49434388  1
  Cr  Cr49  1  0.66250439  0.32649423  0.66564603  1
  Cr  Cr50  1  0.82622860  0.49479340  0.83123041  1
  Fe  Fe51  1  0.82893114  0.82947445  0.49391669  1
  Cr  Cr52  1  0.66290157  0.66375939  0.66062439  1
  Cr  Cr53  1  0.82989630  0.82788535  0.83170807  1
" 