5112,Ni3Fe90Cr6_8,-223.031626348083, 129.783365470866,Ni3Fe90Cr6,"# generated using pymatgen
 data_Cr5Fe48Ni
_symmetry_space_group_name_H-M   'P 1'
_cell_length_a   7.45268953
_cell_length_b   7.45268953
_cell_length_c   10.53969461
_cell_angle_alpha   90.00000000
_cell_angle_beta   90.00000000
_cell_angle_gamma   90.00000000
_symmetry_Int_Tables_number   1
_chemical_formula_structural   Cr5Fe48Ni
_chemical_formula_sum   'Cr5 Fe48 Ni1'
_cell_volume   585.40184382
_cell_formula_units_Z   1
loop_
 _symmetry_equiv_pos_site_id
 _symmetry_equiv_pos_as_xyz
  1  'x, y, z'
loop_
 _atom_site_type_symbol
 _atom_site_label
 _atom_site_symmetry_multiplicity
 _atom_site_fract_x
 _atom_site_fract_y
 _atom_site_fract_z
 _atom_site_occupancy
  Fe  Fe0  1  1.00011508  0.99908825  0.00158949  1
  Fe  Fe1  1  0.16682734  0.16643320  0.16640279  1
  Fe  Fe2  1  0.00252632  0.00224448  0.33331469  1
  Fe  Fe3  1  1.00058341  0.33439295  0.00269259  1
  Fe  Fe4  1  0.16681125  0.50195208  0.16687885  1
  Fe  Fe5  1  0.99945167  0.33432785  0.33415073  1
  Fe  Fe6  1  0.00204403  0.66943687  0.00122691  1
  Fe  Fe7  1  0.16764928  0.83454184  0.16679244  1
  Fe  Fe8  1  0.00257240  0.66622889  0.33319937  1
  Fe  Fe9  1  0.33493713  0.99900434  0.00165351  1
  Fe  Fe10  1  0.50163459  0.16634723  0.16682978  1
  Fe  Fe11  1  0.33410016  0.99938298  0.33415021  1
  Fe  Fe12  1  0.33423854  0.33412541  0.00368074  1
  Fe  Fe13  1  0.50169575  0.50203770  0.16625210  1
  Cr  Cr14  1  0.33437841  0.33431857  0.33448329  1
  Fe  Fe15  1  0.33277623  0.66958998  0.00134368  1
  Fe  Fe16  1  0.50091851  0.83445818  0.16787520  1
  Fe  Fe17  1  0.33415309  0.66919885  0.33415250  1
  Fe  Fe18  1  0.66784821  1.00059569  0.00124185  1
  Fe  Fe19  1  0.83443164  0.16719779  0.16774033  1
  Fe  Fe20  1  0.66631336  0.00233908  0.33340104  1
  Fe  Fe21  1  0.66805649  0.33231721  0.00272616  1
  Fe  Fe22  1  0.83434377  0.50122585  0.16718748  1
  Fe  Fe23  1  0.66910388  0.33437955  0.33414959  1
  Fe  Fe24  1  0.66792557  0.66992011  0.00271060  1
  Fe  Fe25  1  0.83431930  0.83445792  0.16868405  1
  Fe  Fe26  1  0.66619843  0.66606636  0.33325164  1
  Fe  Fe27  1  0.16627849  0.16588450  0.50193566  1
  Fe  Fe28  1  0.00115471  1.00044781  0.66794544  1
  Cr  Cr29  1  0.16859488  0.16820641  0.83509062  1
  Fe  Fe30  1  0.16621401  0.50252879  0.50149181  1
  Fe  Fe31  1  0.00115610  0.33398569  0.66600593  1
  Fe  Fe32  1  0.16766516  0.50303928  0.83448545  1
  Fe  Fe33  1  0.16921633  0.83453756  0.50169236  1
  Fe  Fe34  1  0.00339013  0.66844311  0.66799910  1
  Ni  Ni35  1  0.16750984  0.83537805  0.83420343  1
  Fe  Fe36  1  0.50218105  0.16579657  0.50154369  1
  Fe  Fe37  1  0.33485630  0.99948252  0.66715403  1
  Fe  Fe38  1  0.50207930  0.16545511  0.83448269  1
  Fe  Fe39  1  0.50226847  0.50259434  0.50209814  1
  Fe  Fe40  1  0.33424865  0.33413585  0.66516149  1
  Cr  Cr41  1  0.50058458  0.49973702  0.83509587  1
  Fe  Fe42  1  0.49962769  0.83443980  0.50058465  1
  Fe  Fe43  1  0.33311322  0.66911174  0.66745494  1
  Fe  Fe44  1  0.49983454  0.83563446  0.83442261  1
  Fe  Fe45  1  0.83442523  0.16842711  0.50071092  1
  Fe  Fe46  1  0.66690431  0.00153047  0.66824316  1
  Fe  Fe47  1  0.83331450  0.16580540  0.83443068  1
  Fe  Fe48  1  0.83432238  0.49955063  0.50131935  1
  Fe  Fe49  1  0.66748782  0.33231024  0.66598250  1
  Cr  Cr50  1  0.83356054  0.50099019  0.83392602  1
  Cr  Cr51  1  0.83486319  0.83401905  0.50001803  1
  Fe  Fe52  1  0.66619721  0.66887958  0.66690780  1
  Fe  Fe53  1  0.83501472  0.83605673  0.83386927  1
" 