8926,Ni3Fe65Cr31_2,-220.101016413116, 154.89162984011,Ni3Fe65Cr31,"# generated using pymatgen
 data_Cr18Fe35Ni
_symmetry_space_group_name_H-M   'P 1'
_cell_length_a   7.50023644
_cell_length_b   7.50023644
_cell_length_c   10.60693609
_cell_angle_alpha   90.00000000
_cell_angle_beta   90.00000000
_cell_angle_gamma   90.00000000
_symmetry_Int_Tables_number   1
_chemical_formula_structural   Cr18Fe35Ni
_chemical_formula_sum   'Cr18 Fe35 Ni1'
_cell_volume   596.67777453
_cell_formula_units_Z   1
loop_
 _symmetry_equiv_pos_site_id
 _symmetry_equiv_pos_as_xyz
  1  'x, y, z'
loop_
 _atom_site_type_symbol
 _atom_site_label
 _atom_site_symmetry_multiplicity
 _atom_site_fract_x
 _atom_site_fract_y
 _atom_site_fract_z
 _atom_site_occupancy
  Cr  Cr0  1  0.99735724  -0.00022068  0.99632522  1
  Fe  Fe1  1  0.16471200  0.16302328  0.16478987  1
  Fe  Fe2  1  -0.00161834  0.99717449  0.33132959  1
  Cr  Cr3  1  0.99643580  0.32914112  -0.00167931  1
  Fe  Fe4  1  0.16540304  0.49792788  0.16374037  1
  Cr  Cr5  1  0.99766834  0.32838879  0.33115367  1
  Fe  Fe6  1  -0.00030216  0.66613582  0.99778267  1
  Fe  Fe7  1  0.16519915  0.83225913  0.16429905  1
  Fe  Fe8  1  -0.00032793  0.66549090  0.33242699  1
  Fe  Fe9  1  0.33324942  0.99728152  -0.00183812  1
  Fe  Fe10  1  0.49880881  0.16399316  0.16490336  1
  Fe  Fe11  1  0.33010945  -0.00131196  0.33048340  1
  Fe  Fe12  1  0.33281461  0.32993411  -0.00031797  1
  Fe  Fe13  1  0.49693721  0.49541310  0.16396964  1
  Fe  Fe14  1  0.33131386  0.33041325  0.32941883  1
  Fe  Fe15  1  0.32935518  0.66585473  -0.00068070  1
  Fe  Fe16  1  0.49735725  0.83416893  0.16394707  1
  Cr  Cr17  1  0.33186181  0.66529839  0.33160569  1
  Fe  Fe18  1  0.66351734  0.00053218  -0.00199014  1
  Ni  Ni19  1  0.82872114  0.16281613  0.16569497  1
  Fe  Fe20  1  0.66471500  -0.00005493  0.33075639  1
  Fe  Fe21  1  0.66297531  0.32715155  -0.00108330  1
  Cr  Cr22  1  0.83074072  0.49889024  0.16420993  1
  Fe  Fe23  1  0.66336941  0.32904141  0.32952811  1
  Cr  Cr24  1  0.66162912  0.66587500  0.99675037  1
  Cr  Cr25  1  0.83311790  0.83175539  0.16596851  1
  Cr  Cr26  1  0.66221866  0.66573756  0.33325992  1
  Fe  Fe27  1  0.16317872  0.16432416  0.49841856  1
  Fe  Fe28  1  0.99578986  -0.00196395  0.66383065  1
  Cr  Cr29  1  0.16707562  0.16326565  0.82889399  1
  Fe  Fe30  1  0.16482385  0.49585542  0.49792326  1
  Fe  Fe31  1  -0.00203700  0.32832302  0.66308076  1
  Cr  Cr32  1  0.16515127  0.49752399  0.83179443  1
  Fe  Fe33  1  0.16314350  0.83292698  0.49647473  1
  Cr  Cr34  1  -0.00154336  0.66513474  0.66415978  1
  Fe  Fe35  1  0.16476735  0.83025868  0.83238455  1
  Cr  Cr36  1  0.49629627  0.16383347  0.49683965  1
  Cr  Cr37  1  0.33190660  0.99619175  0.66454482  1
  Fe  Fe38  1  0.50011854  0.16376250  0.83148201  1
  Cr  Cr39  1  0.49800400  0.49534960  0.49968711  1
  Fe  Fe40  1  0.32977362  0.33032187  0.66354877  1
  Cr  Cr41  1  0.49762685  0.49533763  0.82963715  1
  Fe  Fe42  1  0.49960652  0.83316511  0.49790959  1
  Cr  Cr43  1  0.33321418  0.66603679  0.66341406  1
  Fe  Fe44  1  0.49805027  0.83318592  0.83195167  1
  Fe  Fe45  1  0.83089053  0.16259748  0.49762722  1
  Fe  Fe46  1  0.66633561  0.99673461  0.66496426  1
  Fe  Fe47  1  0.82845348  0.16395725  0.83030615  1
  Cr  Cr48  1  0.83063144  0.49896050  0.49822765  1
  Fe  Fe49  1  0.66543470  0.32814809  0.66482540  1
  Cr  Cr50  1  0.83052463  0.49858243  0.83118381  1
  Fe  Fe51  1  0.83079856  0.83481435  0.49754105  1
  Fe  Fe52  1  0.66459358  0.66845625  0.66455889  1
  Fe  Fe53  1  0.83057549  0.83332919  0.83055990  1
" 