184,Ni3Fe65Cr31_9,-220.081914778405, 161.552220478886,Ni3Fe65Cr31,"# generated using pymatgen
 data_Cr18Fe35Ni
_symmetry_space_group_name_H-M   'P 1'
_cell_length_a   7.49552919
_cell_length_b   7.49552919
_cell_length_c   10.60027904
_cell_angle_alpha   90.00000000
_cell_angle_beta   90.00000000
_cell_angle_gamma   90.00000000
_symmetry_Int_Tables_number   1
_chemical_formula_structural   Cr18Fe35Ni
_chemical_formula_sum   'Cr18 Fe35 Ni1'
_cell_volume   595.55503134
_cell_formula_units_Z   1
loop_
 _symmetry_equiv_pos_site_id
 _symmetry_equiv_pos_as_xyz
  1  'x, y, z'
loop_
 _atom_site_type_symbol
 _atom_site_label
 _atom_site_symmetry_multiplicity
 _atom_site_fract_x
 _atom_site_fract_y
 _atom_site_fract_z
 _atom_site_occupancy
  Fe  Fe0  1  0.99770997  -0.00068433  0.99796943  1
  Fe  Fe1  1  0.16534929  0.16446028  0.16455503  1
  Fe  Fe2  1  0.99745366  0.00146956  0.33217184  1
  Cr  Cr3  1  0.00135937  0.33191018  -0.00083341  1
  Fe  Fe4  1  0.16453166  0.49976124  0.16417185  1
  Cr  Cr5  1  0.99799968  0.33329325  0.33244940  1
  Fe  Fe6  1  -0.00165963  0.66430225  0.99727029  1
  Cr  Cr7  1  0.16483593  0.83271466  0.16695803  1
  Fe  Fe8  1  0.99699991  0.66310332  0.33304136  1
  Fe  Fe9  1  0.33054563  0.00048062  -0.00159543  1
  Fe  Fe10  1  0.49553587  0.16152844  0.16485907  1
  Fe  Fe11  1  0.33058165  0.00037166  0.33135744  1
  Fe  Fe12  1  0.33150280  0.33082528  -0.00178850  1
  Cr  Cr13  1  0.50014815  0.49532488  0.16530543  1
  Cr  Cr14  1  0.32961575  0.33064545  0.33224146  1
  Cr  Cr15  1  0.33133069  0.66466493  0.99561033  1
  Fe  Fe16  1  0.49713013  0.83093352  0.16608587  1
  Fe  Fe17  1  0.33167584  0.66288338  0.33062760  1
  Cr  Cr18  1  0.66374832  0.99651234  0.99652891  1
  Fe  Fe19  1  0.83289479  0.16393491  0.16608644  1
  Cr  Cr20  1  0.66333345  0.99794848  0.33135283  1
  Cr  Cr21  1  0.66723104  0.32952104  0.00226620  1
  Fe  Fe22  1  0.83382481  0.49901307  0.16585725  1
  Fe  Fe23  1  0.66533332  0.33115550  0.33250959  1
  Cr  Cr24  1  0.66392033  0.66709691  0.99628486  1
  Cr  Cr25  1  0.83458205  0.82971562  0.16528267  1
  Fe  Fe26  1  0.66618150  0.66175765  0.33202076  1
  Fe  Fe27  1  0.16385743  0.16549655  0.49924921  1
  Fe  Fe28  1  0.99681042  -0.00058447  0.66389844  1
  Fe  Fe29  1  0.16400816  0.16730498  0.83058766  1
  Fe  Fe30  1  0.16612295  0.49805904  0.49995981  1
  Fe  Fe31  1  -0.00050917  0.32977022  0.66452620  1
  Ni  Ni32  1  0.16517309  0.49686847  0.83083270  1
  Cr  Cr33  1  0.16285713  0.83222318  0.49420538  1
  Cr  Cr34  1  -0.00173995  0.66319042  0.66487476  1
  Cr  Cr35  1  0.16276275  0.83338469  0.83246932  1
  Fe  Fe36  1  0.49901771  0.16673882  0.49937867  1
  Cr  Cr37  1  0.33206790  -0.00124165  0.66384521  1
  Cr  Cr38  1  0.49920907  0.16819991  0.83137049  1
  Fe  Fe39  1  0.49862287  0.49703117  0.49847937  1
  Fe  Fe40  1  0.32986057  0.33403758  0.66387619  1
  Fe  Fe41  1  0.49626986  0.49786936  0.82959099  1
  Cr  Cr42  1  0.49643312  0.82972284  0.49669853  1
  Fe  Fe43  1  0.33158128  0.66274965  0.66562043  1
  Fe  Fe44  1  0.49794367  0.83039628  0.82799710  1
  Fe  Fe45  1  0.83138604  0.16434941  0.49950329  1
  Fe  Fe46  1  0.66742700  0.99761590  0.66454159  1
  Fe  Fe47  1  0.83470696  0.16403755  0.82989840  1
  Fe  Fe48  1  0.82943833  0.49856275  0.49887937  1
  Fe  Fe49  1  0.66526727  0.33167625  0.66321527  1
  Cr  Cr50  1  0.82966656  0.49625068  0.83277807  1
  Fe  Fe51  1  0.83054016  0.83123326  0.49775532  1
  Fe  Fe52  1  0.66337228  0.66494245  0.66502921  1
  Fe  Fe53  1  0.83155571  0.83287579  0.82969756  1
" 