7430,Ni3Fe48Cr47_11,-217.324093910054, 171.974474134166,Ni3Fe48Cr47,"# generated using pymatgen
 data_Cr27Fe25Ni2
_symmetry_space_group_name_H-M   'P 1'
_cell_length_a   7.54084989
_cell_length_b   7.54084989
_cell_length_c   10.66437219
_cell_angle_alpha   90.00000000
_cell_angle_beta   90.00000000
_cell_angle_gamma   90.00000000
_symmetry_Int_Tables_number   1
_chemical_formula_structural   Cr27Fe25Ni2
_chemical_formula_sum   'Cr27 Fe25 Ni2'
_cell_volume   606.42330827
_cell_formula_units_Z   1
loop_
 _symmetry_equiv_pos_site_id
 _symmetry_equiv_pos_as_xyz
  1  'x, y, z'
loop_
 _atom_site_type_symbol
 _atom_site_label
 _atom_site_symmetry_multiplicity
 _atom_site_fract_x
 _atom_site_fract_y
 _atom_site_fract_z
 _atom_site_occupancy
  Cr  Cr0  1  0.99509935  -0.00422439  -0.00318134  1
  Fe  Fe1  1  0.16267475  0.16086725  0.16195220  1
  Cr  Cr2  1  -0.00317646  0.99360715  0.32708090  1
  Cr  Cr3  1  0.99477872  0.32853457  -0.00476656  1
  Cr  Cr4  1  0.16286500  0.49468139  0.16147165  1
  Cr  Cr5  1  0.99293987  0.32889822  0.32669046  1
  Cr  Cr6  1  -0.00395366  0.66100881  0.99320859  1
  Fe  Fe7  1  0.16223779  0.82864076  0.16316572  1
  Fe  Fe8  1  -0.00488118  0.66268284  0.32921558  1
  Cr  Cr9  1  0.32954209  -0.00356155  -0.00411572  1
  Fe  Fe10  1  0.49666139  0.16233934  0.16033471  1
  Fe  Fe11  1  0.32785973  0.99475886  0.32802258  1
  Fe  Fe12  1  0.33031039  0.32662093  0.99464112  1
  Cr  Cr13  1  0.49460018  0.49446705  0.16246408  1
  Cr  Cr14  1  0.33086526  0.32739004  0.32925872  1
  Cr  Cr15  1  0.32709171  0.66183240  0.99395455  1
  Cr  Cr16  1  0.49475321  0.82916264  0.16116720  1
  Fe  Fe17  1  0.32787756  0.66326143  0.32889444  1
  Ni  Ni18  1  0.66026461  -0.00015852  -0.00457856  1
  Fe  Fe19  1  0.82598483  0.16233050  0.16033005  1
  Cr  Cr20  1  0.66063592  -0.00395088  0.32718616  1
  Ni  Ni21  1  0.66067516  0.32493533  -0.00443809  1
  Cr  Cr22  1  0.82785611  0.49309209  0.16248183  1
  Fe  Fe23  1  0.66143621  0.32877409  0.32837544  1
  Cr  Cr24  1  0.66217607  0.66150590  0.99439625  1
  Cr  Cr25  1  0.82770134  0.83054059  0.16114308  1
  Fe  Fe26  1  0.66232019  0.66032804  0.32974105  1
  Cr  Cr27  1  0.16173760  0.16041034  0.49548326  1
  Fe  Fe28  1  -0.00462312  0.99333722  0.66175584  1
  Fe  Fe29  1  0.16276772  0.16165907  0.82826824  1
  Cr  Cr30  1  0.16193396  0.49672757  0.49386884  1
  Cr  Cr31  1  0.99385152  0.32995840  0.66339351  1
  Fe  Fe32  1  0.16075788  0.49522278  0.82839982  1
  Fe  Fe33  1  0.16034892  0.82810172  0.49465134  1
  Fe  Fe34  1  0.99446067  0.66266141  0.66190688  1
  Fe  Fe35  1  0.16088138  0.82844225  0.82749989  1
  Fe  Fe36  1  0.49590598  0.16275209  0.49510703  1
  Cr  Cr37  1  0.32833314  -0.00417628  0.66142176  1
  Fe  Fe38  1  0.49666226  0.16210271  0.82988356  1
  Fe  Fe39  1  0.49733215  0.49443938  0.49465308  1
  Cr  Cr40  1  0.33014721  0.32730367  0.66336120  1
  Cr  Cr41  1  0.49441890  0.49368675  0.82977867  1
  Cr  Cr42  1  0.49572185  0.82735489  0.49430045  1
  Cr  Cr43  1  0.32772763  0.66218966  0.66252573  1
  Cr  Cr44  1  0.49692493  0.82961013  0.82984786  1
  Cr  Cr45  1  0.82750292  0.16139391  0.49656865  1
  Fe  Fe46  1  0.66208509  -0.00434592  0.66172656  1
  Cr  Cr47  1  0.82743987  0.16089110  0.82900253  1
  Fe  Fe48  1  0.82665312  0.49687561  0.49498619  1
  Fe  Fe49  1  0.66110627  0.32890342  0.66185757  1
  Fe  Fe50  1  0.82785705  0.49468761  0.82811939  1
  Fe  Fe51  1  0.82954928  0.82667803  0.49599902  1
  Fe  Fe52  1  0.66342717  0.66075692  0.66093131  1
  Cr  Cr53  1  0.82764358  0.82976174  0.82635681  1
" 