8363,Ni3Fe31Cr64_6,-212.486463566096, 193.713550716115,Ni3Fe31Cr64,"# generated using pymatgen
 data_Cr18Fe8Ni
_symmetry_space_group_name_H-M   'P 1'
_cell_length_a   7.55878029
_cell_length_b   7.55878029
_cell_length_c   10.68972960
_cell_angle_alpha   90.00000000
_cell_angle_beta   90.00000000
_cell_angle_gamma   90.00000000
_symmetry_Int_Tables_number   1
_chemical_formula_structural   Cr18Fe8Ni
_chemical_formula_sum   'Cr36 Fe16 Ni2'
_cell_volume   610.75940519
_cell_formula_units_Z   2
loop_
 _symmetry_equiv_pos_site_id
 _symmetry_equiv_pos_as_xyz
  1  'x, y, z'
loop_
 _atom_site_type_symbol
 _atom_site_label
 _atom_site_symmetry_multiplicity
 _atom_site_fract_x
 _atom_site_fract_y
 _atom_site_fract_z
 _atom_site_occupancy
  Cr  Cr0  1  0.99277624  0.99213430  -0.00584982  1
  Fe  Fe1  1  0.16012992  0.15919965  0.15993478  1
  Fe  Fe2  1  -0.00541763  0.99310476  0.32636948  1
  Cr  Cr3  1  -0.00575082  0.32863665  -0.00538215  1
  Cr  Cr4  1  0.16132307  0.49666605  0.15885577  1
  Cr  Cr5  1  -0.00275800  0.32657893  0.32669889  1
  Fe  Fe6  1  0.99119250  0.66154970  0.99314139  1
  Cr  Cr7  1  0.16161858  0.82730756  0.15829614  1
  Cr  Cr8  1  0.99140261  0.66129795  0.32611369  1
  Fe  Fe9  1  0.32788703  -0.00599758  0.99357321  1
  Cr  Cr10  1  0.49619144  0.15870095  0.15905221  1
  Cr  Cr11  1  0.32664146  -0.00427760  0.32612445  1
  Cr  Cr12  1  0.32725648  0.32429977  -0.00414425  1
  Cr  Cr13  1  0.49435858  0.49631364  0.16164393  1
  Cr  Cr14  1  0.32536624  0.32518783  0.32667092  1
  Fe  Fe15  1  0.32856624  0.66152015  -0.00561308  1
  Fe  Fe16  1  0.49555448  0.82622742  0.16084959  1
  Cr  Cr17  1  0.32797524  0.66100678  0.32948693  1
  Cr  Cr18  1  0.65958033  0.99090853  0.99325253  1
  Cr  Cr19  1  0.82718511  0.15858863  0.16360097  1
  Fe  Fe20  1  0.66063688  0.99170638  0.32601325  1
  Cr  Cr21  1  0.66022281  0.32729550  0.99016300  1
  Cr  Cr22  1  0.82598982  0.49381980  0.15942681  1
  Cr  Cr23  1  0.65969640  0.32906240  0.32807889  1
  Fe  Fe24  1  0.66186472  0.66114172  -0.00574975  1
  Fe  Fe25  1  0.82505319  0.82672740  0.16107381  1
  Ni  Ni26  1  0.66190424  0.66557258  0.32472272  1
  Fe  Fe27  1  0.15944439  0.15965980  0.49469921  1
  Fe  Fe28  1  0.99367191  -0.00566788  0.66085366  1
  Cr  Cr29  1  0.15966494  0.15918523  0.82796059  1
  Cr  Cr30  1  0.16082079  0.49554866  0.49546735  1
  Fe  Fe31  1  0.99369975  0.32684990  0.66079047  1
  Cr  Cr32  1  0.16071933  0.49641945  0.82849264  1
  Cr  Cr33  1  0.16022778  0.82837567  0.49735848  1
  Cr  Cr34  1  0.99165767  0.66079708  0.66254349  1
  Cr  Cr35  1  0.16055508  0.82607020  0.82707872  1
  Cr  Cr36  1  0.49772727  0.16022947  0.49470255  1
  Cr  Cr37  1  0.32803894  -0.00454726  0.66193701  1
  Ni  Ni38  1  0.49508235  0.16064165  0.82742300  1
  Cr  Cr39  1  0.49474877  0.49515724  0.49380878  1
  Cr  Cr40  1  0.32708043  0.32582023  0.65935879  1
  Cr  Cr41  1  0.49359442  0.49377802  0.82644767  1
  Cr  Cr42  1  0.49373310  0.82644795  0.49226019  1
  Fe  Fe43  1  0.32827636  0.66081549  0.66088164  1
  Cr  Cr44  1  0.49099940  0.82681188  0.82916681  1
  Cr  Cr45  1  0.82878952  0.15950893  0.49424199  1
  Cr  Cr46  1  0.65998594  0.99239057  0.66238318  1
  Cr  Cr47  1  0.82639690  0.16160250  0.82411269  1
  Cr  Cr48  1  0.82615871  0.49181543  0.49418216  1
  Fe  Fe49  1  0.66047665  0.32737635  0.66187868  1
  Fe  Fe50  1  0.82708485  0.49451644  0.82752525  1
  Cr  Cr51  1  0.82782275  0.83027265  0.49106183  1
  Cr  Cr52  1  0.66255994  0.66144184  0.66103348  1
  Fe  Fe53  1  0.82686533  0.82673310  0.82827581  1
" 