5410,Ni3Fe48Cr47_5,-217.602179507709, 175.906543711776,Ni3Fe48Cr47,"# generated using pymatgen
 data_Cr27Fe25Ni2
_symmetry_space_group_name_H-M   'P 1'
_cell_length_a   7.53603469
_cell_length_b   7.53603469
_cell_length_c   10.65756247
_cell_angle_alpha   90.00000000
_cell_angle_beta   90.00000000
_cell_angle_gamma   90.00000000
_symmetry_Int_Tables_number   1
_chemical_formula_structural   Cr27Fe25Ni2
_chemical_formula_sum   'Cr27 Fe25 Ni2'
_cell_volume   605.26235762
_cell_formula_units_Z   1
loop_
 _symmetry_equiv_pos_site_id
 _symmetry_equiv_pos_as_xyz
  1  'x, y, z'
loop_
 _atom_site_type_symbol
 _atom_site_label
 _atom_site_symmetry_multiplicity
 _atom_site_fract_x
 _atom_site_fract_y
 _atom_site_fract_z
 _atom_site_occupancy
  Cr  Cr0  1  0.99282570  0.99503638  -0.00414265  1
  Fe  Fe1  1  0.16007732  0.16380789  0.16154523  1
  Cr  Cr2  1  0.99412519  -0.00354739  0.32825366  1
  Fe  Fe3  1  0.99390257  0.33093211  -0.00440940  1
  Fe  Fe4  1  0.15934525  0.49602455  0.16067132  1
  Cr  Cr5  1  0.99379142  0.32804310  0.32998344  1
  Ni  Ni6  1  0.99401799  0.65970242  0.99266368  1
  Cr  Cr7  1  0.16067818  0.83042499  0.16238981  1
  Cr  Cr8  1  -0.00411132  0.66180791  0.33063977  1
  Cr  Cr9  1  0.33001352  0.99447470  0.99477366  1
  Cr  Cr10  1  0.49531432  0.16287177  0.16172096  1
  Fe  Fe11  1  0.33043448  0.99534784  0.32889992  1
  Cr  Cr12  1  0.32941554  0.33094192  -0.00279012  1
  Fe  Fe13  1  0.49615344  0.49729799  0.16217355  1
  Cr  Cr14  1  0.32894355  0.33019329  0.32699581  1
  Cr  Cr15  1  0.32727464  0.66161481  -0.00393922  1
  Fe  Fe16  1  0.49640859  0.82960542  0.16289164  1
  Cr  Cr17  1  0.33022573  0.66337132  0.32703174  1
  Cr  Cr18  1  0.66347703  -0.00391706  0.99051955  1
  Fe  Fe19  1  0.82813571  0.16258242  0.16121399  1
  Fe  Fe20  1  0.65998145  0.99490039  0.32905841  1
  Fe  Fe21  1  0.66535052  0.32859800  0.99451687  1
  Cr  Cr22  1  0.82730469  0.49654859  0.16164204  1
  Cr  Cr23  1  0.66305050  0.32885164  0.32965562  1
  Cr  Cr24  1  0.66182506  0.66254677  -0.00420783  1
  Cr  Cr25  1  0.82760437  0.82816336  0.16200992  1
  Fe  Fe26  1  0.66156054  0.66319877  0.32827524  1
  Cr  Cr27  1  0.16418381  0.16083276  0.49390147  1
  Cr  Cr28  1  0.99314042  0.99436172  0.66147569  1
  Cr  Cr29  1  0.16291250  0.16456213  0.83087023  1
  Cr  Cr30  1  0.16185076  0.49544673  0.50041211  1
  Fe  Fe31  1  0.99490899  0.32845427  0.66288415  1
  Fe  Fe32  1  0.15900684  0.49679413  0.82795091  1
  Fe  Fe33  1  0.16354851  0.82762024  0.49628403  1
  Fe  Fe34  1  0.99230706  0.66050659  0.66393570  1
  Cr  Cr35  1  0.15905523  0.82759619  0.82708477  1
  Fe  Fe36  1  0.49809345  0.15926327  0.49469073  1
  Cr  Cr37  1  0.33107307  0.99382463  0.66185853  1
  Fe  Fe38  1  0.49795766  0.16067428  0.82856151  1
  Cr  Cr39  1  0.49814998  0.49633560  0.49412344  1
  Cr  Cr40  1  0.33099055  0.32885826  0.66247770  1
  Cr  Cr41  1  0.49660133  0.49388401  0.83019333  1
  Fe  Fe42  1  0.49500658  0.82952521  0.49520402  1
  Fe  Fe43  1  0.33026736  0.66253980  0.66268511  1
  Fe  Fe44  1  0.49676292  0.82764912  0.82693605  1
  Fe  Fe45  1  0.82732997  0.16179333  0.49620282  1
  Fe  Fe46  1  0.66222612  0.99378354  0.66394947  1
  Fe  Fe47  1  0.82925303  0.16226268  0.82808167  1
  Fe  Fe48  1  0.82925762  0.49522375  0.49730696  1
  Cr  Cr49  1  0.66454012  0.32772229  0.66218880  1
  Fe  Fe50  1  0.83140254  0.49652219  0.82923051  1
  Cr  Cr51  1  0.82647107  0.82700864  0.49472541  1
  Fe  Fe52  1  0.66234769  0.66373625  0.66357521  1
  Ni  Ni53  1  0.82706288  0.82662852  0.82800712  1
" 