1080,Ni3Fe40Cr55_12,-215.594865245379, 190.137618090166,Ni3Fe40Cr55,"# generated using pymatgen
 data_Cr31Fe22Ni
_symmetry_space_group_name_H-M   'P 1'
_cell_length_a   7.54805591
_cell_length_b   7.54805591
_cell_length_c   10.67456304
_cell_angle_alpha   90.00000000
_cell_angle_beta   90.00000000
_cell_angle_gamma   90.00000000
_symmetry_Int_Tables_number   1
_chemical_formula_structural   Cr31Fe22Ni
_chemical_formula_sum   'Cr31 Fe22 Ni1'
_cell_volume   608.16346008
_cell_formula_units_Z   1
loop_
 _symmetry_equiv_pos_site_id
 _symmetry_equiv_pos_as_xyz
  1  'x, y, z'
loop_
 _atom_site_type_symbol
 _atom_site_label
 _atom_site_symmetry_multiplicity
 _atom_site_fract_x
 _atom_site_fract_y
 _atom_site_fract_z
 _atom_site_occupancy
  Cr  Cr0  1  -0.00474137  -0.00348250  0.99426359  1
  Cr  Cr1  1  0.16509282  0.15855408  0.16630666  1
  Fe  Fe2  1  0.99458473  0.99286852  0.32854402  1
  Cr  Cr3  1  -0.00502147  0.32752013  0.99318687  1
  Fe  Fe4  1  0.15916617  0.49666237  0.16327153  1
  Cr  Cr5  1  -0.00357256  0.32620406  0.33009860  1
  Fe  Fe6  1  -0.00368232  0.66114908  -0.00408904  1
  Fe  Fe7  1  0.16252733  0.82565456  0.16267852  1
  Fe  Fe8  1  0.99376103  0.66101681  0.32908790  1
  Cr  Cr9  1  0.32824008  0.99288776  0.99384970  1
  Fe  Fe10  1  0.49757660  0.16070536  0.16322810  1
  Fe  Fe11  1  0.32954645  0.99246565  0.32765753  1
  Cr  Cr12  1  0.32596265  0.32887068  -0.00024156  1
  Cr  Cr13  1  0.49757796  0.49134300  0.16296762  1
  Fe  Fe14  1  0.33007240  0.32779827  0.32758428  1
  Cr  Cr15  1  0.32665374  0.66014049  0.99147601  1
  Cr  Cr16  1  0.49527101  0.82926203  0.16113116  1
  Cr  Cr17  1  0.32787882  0.65857806  0.33005851  1
  Cr  Cr18  1  0.66309029  -0.00421779  0.99407080  1
  Fe  Fe19  1  0.82834485  0.16228432  0.16235628  1
  Cr  Cr20  1  0.66458677  0.99461641  0.32904656  1
  Fe  Fe21  1  0.66212516  0.32741879  -0.00348267  1
  Fe  Fe22  1  0.82993328  0.49273369  0.16252012  1
  Fe  Fe23  1  0.66297463  0.32824047  0.32811147  1
  Cr  Cr24  1  0.65980234  0.66146048  -0.00514924  1
  Cr  Cr25  1  0.83239395  0.82411934  0.16292582  1
  Cr  Cr26  1  0.66039642  0.66266922  0.33303529  1
  Cr  Cr27  1  0.16334734  0.15954710  0.49521782  1
  Cr  Cr28  1  0.99118625  -0.00188341  0.66001857  1
  Cr  Cr29  1  0.16267578  0.16029337  0.82226902  1
  Cr  Cr30  1  0.16053107  0.49414593  0.49563670  1
  Fe  Fe31  1  0.99023305  0.32812335  0.66041061  1
  Cr  Cr32  1  0.15928881  0.49516904  0.82581784  1
  Cr  Cr33  1  0.15877486  0.83016819  0.49282036  1
  Cr  Cr34  1  0.99378103  0.66214598  0.66044342  1
  Fe  Fe35  1  0.16187864  0.82836685  0.82588104  1
  Cr  Cr36  1  0.49386506  0.16291286  0.49088225  1
  Fe  Fe37  1  0.32983122  0.99272946  0.66064529  1
  Cr  Cr38  1  0.49390574  0.16202059  0.83113802  1
  Fe  Fe39  1  0.49377527  0.49438789  0.49469502  1
  Cr  Cr40  1  0.32633163  0.33114467  0.65857269  1
  Cr  Cr41  1  0.49572944  0.49334075  0.82533548  1
  Fe  Fe42  1  0.49238845  0.83068269  0.49416179  1
  Fe  Fe43  1  0.32716619  0.66519044  0.66017599  1
  Fe  Fe44  1  0.49331700  0.82786255  0.82636098  1
  Fe  Fe45  1  0.82798702  0.16100935  0.49403739  1
  Cr  Cr46  1  0.66148229  0.99443070  0.66079482  1
  Fe  Fe47  1  0.82695791  0.16347822  0.82702679  1
  Cr  Cr48  1  0.82547088  0.49584800  0.49544892  1
  Fe  Fe49  1  0.66156531  0.32644370  0.66004788  1
  Cr  Cr50  1  0.82585055  0.49515404  0.82917759  1
  Ni  Ni51  1  0.82724840  0.82931474  0.49242080  1
  Cr  Cr52  1  0.65643531  0.66411392  0.65647625  1
  Cr  Cr53  1  0.82868053  0.82656249  0.82981909  1
" 