2039,Ni3Fe10Cr85_7,-204.949962902492, 204.516583821532,Ni3Fe10Cr85,"# generated using pymatgen
 data_Cr47Fe5Ni2
_symmetry_space_group_name_H-M   'P 1'
_cell_length_a   7.58613216
_cell_length_b   7.58613216
_cell_length_c   10.72841099
_cell_angle_alpha   90.00000000
_cell_angle_beta   90.00000000
_cell_angle_gamma   90.00000000
_symmetry_Int_Tables_number   1
_chemical_formula_structural   Cr47Fe5Ni2
_chemical_formula_sum   'Cr47 Fe5 Ni2'
_cell_volume   617.41362766
_cell_formula_units_Z   1
loop_
 _symmetry_equiv_pos_site_id
 _symmetry_equiv_pos_as_xyz
  1  'x, y, z'
loop_
 _atom_site_type_symbol
 _atom_site_label
 _atom_site_symmetry_multiplicity
 _atom_site_fract_x
 _atom_site_fract_y
 _atom_site_fract_z
 _atom_site_occupancy
  Ni  Ni0  1  -0.00600716  0.99206702  -0.00682973  1
  Fe  Fe1  1  0.15774990  0.15707297  0.15777478  1
  Cr  Cr2  1  -0.00612904  -0.00761323  0.32441221  1
  Cr  Cr3  1  0.99188552  0.32484802  -0.00636749  1
  Cr  Cr4  1  0.15967676  0.49276207  0.15877738  1
  Cr  Cr5  1  -0.00738019  0.32690417  0.32527188  1
  Cr  Cr6  1  0.99182495  0.65893547  -0.00575250  1
  Fe  Fe7  1  0.15793613  0.82720448  0.15774831  1
  Cr  Cr8  1  -0.00726961  0.65713993  0.32514449  1
  Cr  Cr9  1  0.32417991  0.99153408  -0.00635436  1
  Cr  Cr10  1  0.49137651  0.16012433  0.16003283  1
  Cr  Cr11  1  0.32473735  0.99206726  0.32334928  1
  Cr  Cr12  1  0.32407541  0.32378472  0.99201406  1
  Cr  Cr13  1  0.49203124  0.49182998  0.15891108  1
  Cr  Cr14  1  0.32291238  0.32447061  0.32677172  1
  Cr  Cr15  1  0.32537076  0.66129080  0.99059120  1
  Cr  Cr16  1  0.49152677  0.82449583  0.15914559  1
  Cr  Cr17  1  0.32322850  0.65991421  0.32674541  1
  Cr  Cr18  1  0.65811109  0.99135858  0.99042968  1
  Cr  Cr19  1  0.82711787  0.15749092  0.15774239  1
  Cr  Cr20  1  0.65784362  0.99209604  0.32686739  1
  Cr  Cr21  1  0.66053706  0.32585051  -0.00738079  1
  Fe  Fe22  1  0.82532701  0.49219740  0.15879529  1
  Cr  Cr23  1  0.66088180  0.32543321  0.32482162  1
  Cr  Cr24  1  0.65935398  0.65932504  0.99130307  1
  Cr  Cr25  1  0.82808056  0.82612518  0.15872117  1
  Cr  Cr26  1  0.66051748  0.65889293  0.32479187  1
  Cr  Cr27  1  0.15795569  0.15909484  0.49302002  1
  Fe  Fe28  1  -0.00722351  0.99194739  0.65939674  1
  Cr  Cr29  1  0.15689802  0.15729389  0.82643858  1
  Ni  Ni30  1  0.15894783  0.49236721  0.49231400  1
  Cr  Cr31  1  -0.00715109  0.32642515  0.65755658  1
  Cr  Cr32  1  0.16007113  0.49249471  0.82411647  1
  Cr  Cr33  1  0.15717106  0.82454445  0.49205434  1
  Cr  Cr34  1  -0.00712644  0.65733531  0.65692257  1
  Cr  Cr35  1  0.15681631  0.82656194  0.82645505  1
  Cr  Cr36  1  0.49244157  0.15978054  0.49073950  1
  Cr  Cr37  1  0.32640497  0.99137358  0.65954135  1
  Cr  Cr38  1  0.49202702  0.15976238  0.82565966  1
  Cr  Cr39  1  0.48972335  0.49183140  0.49134302  1
  Cr  Cr40  1  0.32354938  0.32545564  0.65763399  1
  Cr  Cr41  1  0.49104157  0.49263221  0.82620629  1
  Cr  Cr42  1  0.49244476  0.82484127  0.49162794  1
  Cr  Cr43  1  0.32470905  0.65968239  0.65891050  1
  Fe  Fe44  1  0.49186464  0.82577403  0.82553921  1
  Cr  Cr45  1  0.82614944  0.15664674  0.49397316  1
  Cr  Cr46  1  0.65779954  0.99138498  0.65914760  1
  Cr  Cr47  1  0.82749969  0.15629303  0.82473707  1
  Cr  Cr48  1  0.82611201  0.49266093  0.49080118  1
  Cr  Cr49  1  0.65999421  0.32486443  0.65907818  1
  Cr  Cr50  1  0.82535165  0.49249430  0.82732379  1
  Cr  Cr51  1  0.82692452  0.82711466  0.49299146  1
  Cr  Cr52  1  0.65875992  0.66033036  0.66041226  1
  Cr  Cr53  1  0.82751021  0.82757278  0.82474472  1
" 