3578,Ni3Fe48Cr47_2,-217.535167452973, 177.647603727331,Ni3Fe48Cr47,"# generated using pymatgen
 data_Cr27Fe25Ni2
_symmetry_space_group_name_H-M   'P 1'
_cell_length_a   7.53126998
_cell_length_b   7.53126998
_cell_length_c   10.65082415
_cell_angle_alpha   90.00000000
_cell_angle_beta   90.00000000
_cell_angle_gamma   90.00000000
_symmetry_Int_Tables_number   1
_chemical_formula_structural   Cr27Fe25Ni2
_chemical_formula_sum   'Cr27 Fe25 Ni2'
_cell_volume   604.11503973
_cell_formula_units_Z   1
loop_
 _symmetry_equiv_pos_site_id
 _symmetry_equiv_pos_as_xyz
  1  'x, y, z'
loop_
 _atom_site_type_symbol
 _atom_site_label
 _atom_site_symmetry_multiplicity
 _atom_site_fract_x
 _atom_site_fract_y
 _atom_site_fract_z
 _atom_site_occupancy
  Ni  Ni0  1  -0.00330106  -0.00415600  0.99554218  1
  Fe  Fe1  1  0.16172940  0.16240140  0.16201516  1
  Cr  Cr2  1  -0.00383667  -0.00214517  0.33063345  1
  Cr  Cr3  1  0.99382374  0.33040039  -0.00171949  1
  Fe  Fe4  1  0.16231459  0.49633187  0.16240156  1
  Cr  Cr5  1  -0.00317937  0.32955228  0.32794580  1
  Fe  Fe6  1  -0.00382542  0.66325412  0.99541564  1
  Cr  Cr7  1  0.16085713  0.82827214  0.16029836  1
  Cr  Cr8  1  -0.00349115  0.65996770  0.33024422  1
  Cr  Cr9  1  0.32964528  0.99400366  0.99557165  1
  Fe  Fe10  1  0.49642299  0.16183166  0.16304531  1
  Cr  Cr11  1  0.33087746  0.99558262  0.32603196  1
  Cr  Cr12  1  0.32877194  0.32751564  -0.00147324  1
  Cr  Cr13  1  0.49449814  0.49543742  0.16399531  1
  Fe  Fe14  1  0.32820642  0.33013485  0.32859396  1
  Fe  Fe15  1  0.32819779  0.66343878  0.99572731  1
  Fe  Fe16  1  0.49582273  0.82822335  0.16351184  1
  Fe  Fe17  1  0.32896204  0.66082502  0.32937810  1
  Cr  Cr18  1  0.65992190  0.99549905  -0.00235384  1
  Fe  Fe19  1  0.82912482  0.16210764  0.16149776  1
  Fe  Fe20  1  0.66243162  -0.00363422  0.32792194  1
  Fe  Fe21  1  0.66363433  0.32860936  -0.00360408  1
  Fe  Fe22  1  0.82923667  0.49597764  0.16163334  1
  Cr  Cr23  1  0.66325431  0.32865284  0.32853812  1
  Cr  Cr24  1  0.66221147  0.66124728  0.99481042  1
  Cr  Cr25  1  0.82914708  0.82932710  0.16400122  1
  Fe  Fe26  1  0.66116640  0.66280476  0.32837135  1
  Cr  Cr27  1  0.16309120  0.16296653  0.49702357  1
  Fe  Fe28  1  -0.00379891  0.99480460  0.66212333  1
  Cr  Cr29  1  0.16268117  0.16018219  0.82865980  1
  Fe  Fe30  1  0.16566728  0.49675612  0.49590998  1
  Cr  Cr31  1  0.99434177  0.32968658  0.66097615  1
  Cr  Cr32  1  0.16317692  0.49738442  0.83079522  1
  Fe  Fe33  1  0.16377073  0.82836635  0.49641045  1
  Cr  Cr34  1  -0.00325651  0.66199496  0.66304176  1
  Fe  Fe35  1  0.16271038  0.82898702  0.82975049  1
  Cr  Cr36  1  0.49586087  0.16473735  0.49743769  1
  Fe  Fe37  1  0.32872114  0.99346826  0.66259211  1
  Cr  Cr38  1  0.49564045  0.16378779  0.82709321  1
  Fe  Fe39  1  0.49361210  0.49570455  0.49559240  1
  Fe  Fe40  1  0.32936806  0.33082164  0.66167297  1
  Cr  Cr41  1  0.49596768  0.49438418  0.82745685  1
  Cr  Cr42  1  0.49653003  0.82768543  0.49332550  1
  Fe  Fe43  1  0.32845805  0.66299063  0.66175635  1
  Fe  Fe44  1  0.49443240  0.82867732  0.82793259  1
  Fe  Fe45  1  0.82779411  0.16176015  0.49680948  1
  Fe  Fe46  1  0.66257075  -0.00404353  0.66215379  1
  Cr  Cr47  1  0.82861348  0.16219075  0.82749704  1
  Cr  Cr48  1  0.82725671  0.49660358  0.49545902  1
  Fe  Fe49  1  0.66288773  0.32958607  0.66213996  1
  Ni  Ni50  1  0.82833825  0.49629437  0.83137005  1
  Cr  Cr51  1  0.82959691  0.83146271  0.49388445  1
  Cr  Cr52  1  0.66129577  0.66169926  0.66309418  1
  Cr  Cr53  1  0.83180627  0.82935697  0.82982570  1
" 