6941,Ni3Fe31Cr64_2,-212.410677624247, 189.989905488499,Ni3Fe31Cr64,"# generated using pymatgen
 data_Cr18Fe8Ni
_symmetry_space_group_name_H-M   'P 1'
_cell_length_a   7.55452739
_cell_length_b   7.55452739
_cell_length_c   10.68371509
_cell_angle_alpha   90.00000000
_cell_angle_beta   90.00000000
_cell_angle_gamma   90.00000000
_symmetry_Int_Tables_number   1
_chemical_formula_structural   Cr18Fe8Ni
_chemical_formula_sum   'Cr36 Fe16 Ni2'
_cell_volume   609.72906491
_cell_formula_units_Z   2
loop_
 _symmetry_equiv_pos_site_id
 _symmetry_equiv_pos_as_xyz
  1  'x, y, z'
loop_
 _atom_site_type_symbol
 _atom_site_label
 _atom_site_symmetry_multiplicity
 _atom_site_fract_x
 _atom_site_fract_y
 _atom_site_fract_z
 _atom_site_occupancy
  Cr  Cr0  1  0.99357171  -0.00151954  -0.00418376  1
  Fe  Fe1  1  0.15987064  0.16383731  0.16044768  1
  Cr  Cr2  1  0.99271207  0.00024876  0.32448613  1
  Ni  Ni3  1  -0.00549384  0.32764061  -0.00193896  1
  Cr  Cr4  1  0.15988554  0.49513577  0.16269265  1
  Fe  Fe5  1  0.98962547  0.33043398  0.32708304  1
  Cr  Cr6  1  0.99346217  0.65657569  0.99268854  1
  Cr  Cr7  1  0.15878283  0.82732211  0.16349039  1
  Fe  Fe8  1  0.99332625  0.65896349  0.32833398  1
  Cr  Cr9  1  0.32737905  -0.00467621  -0.00373584  1
  Cr  Cr10  1  0.49551680  0.16471411  0.15911477  1
  Cr  Cr11  1  0.32878648  -0.00523369  0.32723276  1
  Fe  Fe12  1  0.32319574  0.32781671  -0.00502993  1
  Cr  Cr13  1  0.49603996  0.49081649  0.15947213  1
  Cr  Cr14  1  0.32251968  0.32784350  0.32790939  1
  Cr  Cr15  1  0.32752216  0.65980977  0.99306043  1
  Cr  Cr16  1  0.49320211  0.82590332  0.16378145  1
  Fe  Fe17  1  0.32733383  0.65969879  0.32905064  1
  Cr  Cr18  1  0.66154704  0.99316731  -0.00469862  1
  Fe  Fe19  1  0.82756831  0.16563097  0.16060410  1
  Cr  Cr20  1  0.66192227  0.99389787  0.32844336  1
  Fe  Fe21  1  0.66650990  0.32655796  -0.00522745  1
  Fe  Fe22  1  0.82814263  0.49100053  0.16106881  1
  Fe  Fe23  1  0.66334615  0.32638281  0.32828455  1
  Cr  Cr24  1  0.66149557  0.66049489  -0.00570708  1
  Cr  Cr25  1  0.83049558  0.82580674  0.15915913  1
  Cr  Cr26  1  0.66247507  0.65941934  0.32709667  1
  Cr  Cr27  1  0.15898917  0.16040220  0.49341587  1
  Fe  Fe28  1  -0.00554440  -0.00340201  0.65969432  1
  Cr  Cr29  1  0.16003762  0.16106275  0.82989333  1
  Fe  Fe30  1  0.15847045  0.49483533  0.49216273  1
  Cr  Cr31  1  -0.00490727  0.32914336  0.65824083  1
  Fe  Fe32  1  0.15881720  0.49203258  0.82921401  1
  Cr  Cr33  1  0.15873415  0.82583899  0.49266210  1
  Fe  Fe34  1  -0.00545048  0.65726642  0.66027003  1
  Cr  Cr35  1  0.15726902  0.82706008  0.82524543  1
  Cr  Cr36  1  0.49597858  0.16463036  0.49626326  1
  Cr  Cr37  1  0.32786336  0.99410321  0.65981949  1
  Cr  Cr38  1  0.49550991  0.16515508  0.82793981  1
  Cr  Cr39  1  0.49527333  0.49195743  0.49286376  1
  Cr  Cr40  1  0.32495482  0.32927617  0.66322965  1
  Cr  Cr41  1  0.49476352  0.48933673  0.83071679  1
  Fe  Fe42  1  0.49418409  0.82647362  0.49329490  1
  Cr  Cr43  1  0.32628149  0.65839255  0.66018869  1
  Cr  Cr44  1  0.49402714  0.82768893  0.82733089  1
  Fe  Fe45  1  0.82744942  0.16346397  0.49409329  1
  Cr  Cr46  1  0.66171820  -0.00543157  0.65882723  1
  Cr  Cr47  1  0.82754575  0.16195383  0.82526107  1
  Fe  Fe48  1  0.82865543  0.49271849  0.49341633  1
  Ni  Ni49  1  0.66496043  0.32911714  0.65806272  1
  Cr  Cr50  1  0.82737400  0.49260808  0.82781745  1
  Cr  Cr51  1  0.83143259  0.82667824  0.49727166  1
  Cr  Cr52  1  0.66077198  0.65961065  0.66173324  1
  Cr  Cr53  1  0.83144524  0.82768390  0.82543805  1
" 