6290,Ni3Fe31Cr64_10,-212.741753286328, 194.116094718332,Ni3Fe31Cr64,"# generated using pymatgen
 data_Cr18Fe8Ni
_symmetry_space_group_name_H-M   'P 1'
_cell_length_a   7.56836531
_cell_length_b   7.56836531
_cell_length_c   10.70328487
_cell_angle_alpha   90.00000000
_cell_angle_beta   90.00000000
_cell_angle_gamma   90.00000000
_symmetry_Int_Tables_number   1
_chemical_formula_structural   Cr18Fe8Ni
_chemical_formula_sum   'Cr36 Fe16 Ni2'
_cell_volume   613.08580042
_cell_formula_units_Z   2
loop_
 _symmetry_equiv_pos_site_id
 _symmetry_equiv_pos_as_xyz
  1  'x, y, z'
loop_
 _atom_site_type_symbol
 _atom_site_label
 _atom_site_symmetry_multiplicity
 _atom_site_fract_x
 _atom_site_fract_y
 _atom_site_fract_z
 _atom_site_occupancy
  Cr  Cr0  1  -0.00619551  0.99172928  -0.00462847  1
  Cr  Cr1  1  0.15956765  0.15931065  0.15892587  1
  Cr  Cr2  1  0.99304995  0.99279796  0.32695570  1
  Fe  Fe3  1  -0.00504834  0.32777090  0.99248268  1
  Cr  Cr4  1  0.16103662  0.49505935  0.16008587  1
  Cr  Cr5  1  -0.00470641  0.32705834  0.32775587  1
  Cr  Cr6  1  -0.00569762  0.65947490  0.99287039  1
  Ni  Ni7  1  0.16593597  0.82521640  0.15951058  1
  Cr  Cr8  1  0.99298696  0.66005450  0.32693649  1
  Fe  Fe9  1  0.32651955  0.99117316  -0.00525488  1
  Cr  Cr10  1  0.49462817  0.16127952  0.15952333  1
  Cr  Cr11  1  0.32675057  -0.00506866  0.32314522  1
  Cr  Cr12  1  0.32681690  0.32731528  0.98960264  1
  Cr  Cr13  1  0.49366210  0.49412799  0.16204758  1
  Cr  Cr14  1  0.32720938  0.32754937  0.33170034  1
  Fe  Fe15  1  0.32592995  0.66049484  -0.00652004  1
  Fe  Fe16  1  0.49016666  0.82570774  0.15930125  1
  Fe  Fe17  1  0.32563158  0.66109518  0.32627106  1
  Cr  Cr18  1  0.65762983  0.99245326  0.99319215  1
  Cr  Cr19  1  0.82582759  0.16426493  0.15870560  1
  Cr  Cr20  1  0.66001880  0.99303837  0.32698458  1
  Fe  Fe21  1  0.65813855  0.32702777  0.99253415  1
  Cr  Cr22  1  0.82523803  0.48913338  0.15875918  1
  Fe  Fe23  1  0.66030336  0.32626607  0.32929932  1
  Cr  Cr24  1  0.65844963  0.66041818  0.99259665  1
  Cr  Cr25  1  0.82732297  0.82637759  0.16101479  1
  Cr  Cr26  1  0.65992909  0.65987995  0.32707718  1
  Fe  Fe27  1  0.16028284  0.15981718  0.49321172  1
  Cr  Cr28  1  0.99200463  -0.00640761  0.65690376  1
  Cr  Cr29  1  0.15908384  0.15973615  0.82689833  1
  Fe  Fe30  1  0.16051273  0.49404636  0.49361854  1
  Cr  Cr31  1  -0.00346095  0.32810317  0.65944511  1
  Ni  Ni32  1  0.16215176  0.49233033  0.82696625  1
  Cr  Cr33  1  0.16197402  0.82633958  0.49397982  1
  Cr  Cr34  1  0.99241796  0.65829257  0.65962364  1
  Cr  Cr35  1  0.16211609  0.82572602  0.82638302  1
  Fe  Fe36  1  0.49395549  0.16021304  0.49260851  1
  Cr  Cr37  1  0.32809037  -0.00171038  0.66122976  1
  Fe  Fe38  1  0.49319315  0.16143670  0.82768173  1
  Fe  Fe39  1  0.49370280  0.49337233  0.49248913  1
  Cr  Cr40  1  0.32692666  0.32699930  0.65904711  1
  Fe  Fe41  1  0.49187003  0.49268481  0.82757007  1
  Cr  Cr42  1  0.49137604  0.82545595  0.49274168  1
  Cr  Cr43  1  0.32680321  0.65468691  0.66169414  1
  Cr  Cr44  1  0.49080766  0.82668873  0.82721076  1
  Fe  Fe45  1  0.82589147  0.16110888  0.49289440  1
  Cr  Cr46  1  0.65972777  -0.00629595  0.65917020  1
  Cr  Cr47  1  0.82584110  0.16213837  0.82908640  1
  Fe  Fe48  1  0.82585599  0.49261760  0.49295899  1
  Cr  Cr49  1  0.65597159  0.32691783  0.65983929  1
  Cr  Cr50  1  0.82680406  0.49054675  0.82906260  1
  Fe  Fe51  1  0.82626341  0.82617626  0.49293852  1
  Cr  Cr52  1  0.66067290  0.65931885  0.65997188  1
  Cr  Cr53  1  0.82661241  0.82720507  0.82245056  1
" 