2407,Ni3Fe48Cr47_13,-217.412441640931, 180.211667960225,Ni3Fe48Cr47,"# generated using pymatgen
 data_Cr27Fe25Ni2
_symmetry_space_group_name_H-M   'P 1'
_cell_length_a   7.53205909
_cell_length_b   7.53205909
_cell_length_c   10.65194011
_cell_angle_alpha   90.00000000
_cell_angle_beta   90.00000000
_cell_angle_gamma   90.00000000
_symmetry_Int_Tables_number   1
_chemical_formula_structural   Cr27Fe25Ni2
_chemical_formula_sum   'Cr27 Fe25 Ni2'
_cell_volume   604.30495130
_cell_formula_units_Z   1
loop_
 _symmetry_equiv_pos_site_id
 _symmetry_equiv_pos_as_xyz
  1  'x, y, z'
loop_
 _atom_site_type_symbol
 _atom_site_label
 _atom_site_symmetry_multiplicity
 _atom_site_fract_x
 _atom_site_fract_y
 _atom_site_fract_z
 _atom_site_occupancy
  Cr  Cr0  1  0.99494658  -0.00284411  0.99316713  1
  Fe  Fe1  1  0.16056671  0.16145501  0.16207265  1
  Fe  Fe2  1  0.99567374  0.99463962  0.32797810  1
  Cr  Cr3  1  -0.00299027  0.32790139  -0.00351933  1
  Fe  Fe4  1  0.16043779  0.49785229  0.16061983  1
  Cr  Cr5  1  0.99516664  0.32754443  0.32659658  1
  Ni  Ni6  1  0.99423402  0.66189424  -0.00306242  1
  Fe  Fe7  1  0.15984831  0.82744815  0.16193109  1
  Fe  Fe8  1  -0.00312451  0.66235300  0.32743957  1
  Cr  Cr9  1  0.32681270  -0.00345895  -0.00420972  1
  Cr  Cr10  1  0.49624517  0.16440406  0.16055614  1
  Cr  Cr11  1  0.32762007  0.99477087  0.32571096  1
  Fe  Fe12  1  0.32690309  0.33019751  -0.00314894  1
  Fe  Fe13  1  0.49801557  0.49503524  0.16056345  1
  Cr  Cr14  1  0.32662049  0.33240595  0.32711346  1
  Cr  Cr15  1  0.32942449  0.66106730  -0.00307362  1
  Cr  Cr16  1  0.49679494  0.83083021  0.16016312  1
  Cr  Cr17  1  0.32962878  0.66020198  0.32942490  1
  Fe  Fe18  1  0.66598822  0.99552071  0.99520094  1
  Fe  Fe19  1  0.82835088  0.16255599  0.16213019  1
  Cr  Cr20  1  0.66654723  0.99517938  0.33072372  1
  Fe  Fe21  1  0.66371919  0.32957900  -0.00275153  1
  Fe  Fe22  1  0.82823459  0.49507224  0.16090248  1
  Fe  Fe23  1  0.66230583  0.32981068  0.32808375  1
  Fe  Fe24  1  0.66558478  0.66224196  -0.00350290  1
  Cr  Cr25  1  0.83254292  0.82583681  0.16235882  1
  Cr  Cr26  1  0.66120006  0.66197478  0.32942967  1
  Cr  Cr27  1  0.16255501  0.15947238  0.49586338  1
  Fe  Fe28  1  -0.00312037  0.99403005  0.66454599  1
  Fe  Fe29  1  0.16269275  0.16026941  0.82742718  1
  Fe  Fe30  1  0.16223964  0.49692170  0.49667955  1
  Cr  Cr31  1  0.99424798  0.32637489  0.66374193  1
  Cr  Cr32  1  0.15961437  0.49851410  0.82755927  1
  Cr  Cr33  1  0.15905297  0.82787458  0.49613882  1
  Fe  Fe34  1  -0.00356739  0.66568314  0.66341619  1
  Fe  Fe35  1  0.16013152  0.82893546  0.82758067  1
  Cr  Cr36  1  0.49645343  0.16389261  0.49605716  1
  Ni  Ni37  1  0.32647471  0.99430513  0.66499970  1
  Cr  Cr38  1  0.49516802  0.16242249  0.83035149  1
  Fe  Fe39  1  0.49490146  0.49521686  0.49674577  1
  Cr  Cr40  1  0.32674929  0.33095995  0.66181701  1
  Cr  Cr41  1  0.49756939  0.49347251  0.82993109  1
  Cr  Cr42  1  0.49258944  0.83146011  0.49675233  1
  Fe  Fe43  1  0.32738445  0.66439639  0.66227070  1
  Cr  Cr44  1  0.49504935  0.83105993  0.83064962  1
  Fe  Fe45  1  0.83034765  0.16107764  0.49582379  1
  Cr  Cr46  1  0.66607629  0.99433920  0.66289063  1
  Fe  Fe47  1  0.82822005  0.16193787  0.82910627  1
  Cr  Cr48  1  0.83102193  0.49564418  0.49531633  1
  Fe  Fe49  1  0.66277546  0.32799237  0.66223489  1
  Cr  Cr50  1  0.83013012  0.49745708  0.83222986  1
  Fe  Fe51  1  0.83186496  0.83024976  0.49554535  1
  Cr  Cr52  1  0.66163608  0.66331301  0.66178506  1
  Fe  Fe53  1  0.83139829  0.82821231  0.83059673  1
" 