7088,Ni3Fe65Cr31_14,-220.189307725877, 160.756432119054,Ni3Fe65Cr31,"# generated using pymatgen
 data_Cr18Fe35Ni
_symmetry_space_group_name_H-M   'P 1'
_cell_length_a   7.50189734
_cell_length_b   7.50189734
_cell_length_c   10.60928496
_cell_angle_alpha   90.00000000
_cell_angle_beta   90.00000000
_cell_angle_gamma   90.00000000
_symmetry_Int_Tables_number   1
_chemical_formula_structural   Cr18Fe35Ni
_chemical_formula_sum   'Cr18 Fe35 Ni1'
_cell_volume   597.07425903
_cell_formula_units_Z   1
loop_
 _symmetry_equiv_pos_site_id
 _symmetry_equiv_pos_as_xyz
  1  'x, y, z'
loop_
 _atom_site_type_symbol
 _atom_site_label
 _atom_site_symmetry_multiplicity
 _atom_site_fract_x
 _atom_site_fract_y
 _atom_site_fract_z
 _atom_site_occupancy
  Fe  Fe0  1  -0.00164662  -0.00079286  -0.00089894  1
  Fe  Fe1  1  0.16243352  0.16424656  0.16580813  1
  Fe  Fe2  1  -0.00216334  0.00077642  0.32999011  1
  Fe  Fe3  1  0.99360779  0.33134852  0.00121915  1
  Fe  Fe4  1  0.16257365  0.49594204  0.16621628  1
  Ni  Ni5  1  0.00063448  0.33034743  0.32944989  1
  Fe  Fe6  1  0.99594340  0.66452312  -0.00044395  1
  Cr  Cr7  1  0.16474986  0.82938429  0.16539081  1
  Fe  Fe8  1  0.99363035  0.66277364  0.32976860  1
  Fe  Fe9  1  0.33094967  -0.00208822  -0.00091779  1
  Fe  Fe10  1  0.49519884  0.16372535  0.16506660  1
  Fe  Fe11  1  0.33010004  0.00179629  0.32944807  1
  Cr  Cr12  1  0.32695584  0.32838809  -0.00069813  1
  Fe  Fe13  1  0.49744567  0.49758488  0.16538151  1
  Fe  Fe14  1  0.33136928  0.32948527  0.32843979  1
  Cr  Cr15  1  0.33339449  0.66399788  0.99740007  1
  Fe  Fe16  1  0.49711025  0.82946370  0.16696736  1
  Fe  Fe17  1  0.33260537  0.66135856  0.32798992  1
  Cr  Cr18  1  0.66307263  0.99767536  0.00148616  1
  Fe  Fe19  1  0.83490000  0.16514936  0.16390418  1
  Cr  Cr20  1  0.66649479  0.99510682  0.32828180  1
  Fe  Fe21  1  0.66191169  0.33242202  0.00126495  1
  Fe  Fe22  1  0.83357874  0.49756930  0.16472436  1
  Cr  Cr23  1  0.66718367  0.32951766  0.32918128  1
  Cr  Cr24  1  0.66503814  0.66610381  -0.00188927  1
  Fe  Fe25  1  0.83310753  0.82953846  0.16497679  1
  Fe  Fe26  1  0.66625037  0.66156051  0.32936234  1
  Fe  Fe27  1  0.16626071  0.16379002  0.49500108  1
  Fe  Fe28  1  0.99612937  0.99725403  0.66388952  1
  Fe  Fe29  1  0.16262283  0.16340889  0.83156136  1
  Cr  Cr30  1  0.16599974  0.49804524  0.49315063  1
  Cr  Cr31  1  0.00043556  0.32850428  0.66174253  1
  Cr  Cr32  1  0.16115539  0.49779715  0.83438420  1
  Cr  Cr33  1  0.16257352  0.83087853  0.49505971  1
  Cr  Cr34  1  0.99535161  0.66395646  0.66469004  1
  Cr  Cr35  1  0.16389946  0.83244446  0.83252269  1
  Cr  Cr36  1  0.50152005  0.16677841  0.50027387  1
  Fe  Fe37  1  0.32917624  -0.00055016  0.66453999  1
  Fe  Fe38  1  0.49415226  0.16385909  0.83013348  1
  Fe  Fe39  1  0.49887992  0.49811137  0.49569708  1
  Fe  Fe40  1  0.33242128  0.33073645  0.66565107  1
  Fe  Fe41  1  0.50039775  0.49362901  0.83154794  1
  Cr  Cr42  1  0.49586165  0.83172389  0.49421077  1
  Cr  Cr43  1  0.33270939  0.66259615  0.66640769  1
  Fe  Fe44  1  0.49934660  0.83513326  0.83054109  1
  Fe  Fe45  1  0.83545149  0.16304704  0.49620757  1
  Fe  Fe46  1  0.66620936  -0.00124938  0.66439878  1
  Cr  Cr47  1  0.82607499  0.16759602  0.83270365  1
  Fe  Fe48  1  0.83065541  0.49672646  0.49512511  1
  Fe  Fe49  1  0.66530325  0.33395225  0.66401783  1
  Fe  Fe50  1  0.82936116  0.49832182  0.83250007  1
  Fe  Fe51  1  0.83081371  0.83166288  0.49588152  1
  Cr  Cr52  1  0.66423620  0.66665751  0.66366641  1
  Fe  Fe53  1  0.83114372  0.83285727  0.83219695  1
" 