1890,Ni3Fe40Cr55_13,-215.200002681313, 182.502483409222,Ni3Fe40Cr55,"# generated using pymatgen
 data_Cr31Fe22Ni
_symmetry_space_group_name_H-M   'P 1'
_cell_length_a   7.54470879
_cell_length_b   7.54470879
_cell_length_c   10.66982950
_cell_angle_alpha   90.00000000
_cell_angle_beta   90.00000000
_cell_angle_gamma   90.00000000
_symmetry_Int_Tables_number   1
_chemical_formula_structural   Cr31Fe22Ni
_chemical_formula_sum   'Cr31 Fe22 Ni1'
_cell_volume   607.35476477
_cell_formula_units_Z   1
loop_
 _symmetry_equiv_pos_site_id
 _symmetry_equiv_pos_as_xyz
  1  'x, y, z'
loop_
 _atom_site_type_symbol
 _atom_site_label
 _atom_site_symmetry_multiplicity
 _atom_site_fract_x
 _atom_site_fract_y
 _atom_site_fract_z
 _atom_site_occupancy
  Cr  Cr0  1  -0.00436556  -0.00385702  -0.00357433  1
  Fe  Fe1  1  0.16068437  0.16337189  0.16162405  1
  Fe  Fe2  1  -0.00385978  -0.00245393  0.32772329  1
  Fe  Fe3  1  -0.00360223  0.32863061  -0.00373017  1
  Ni  Ni4  1  0.16082122  0.49103458  0.16041825  1
  Fe  Fe5  1  -0.00467661  0.32772763  0.32678450  1
  Cr  Cr6  1  -0.00500354  0.65964956  0.99281899  1
  Cr  Cr7  1  0.16392250  0.82901998  0.16485642  1
  Cr  Cr8  1  0.99458443  0.66086630  0.32797010  1
  Fe  Fe9  1  0.32751356  -0.00302854  0.99429055  1
  Cr  Cr10  1  0.49423304  0.16229284  0.15858104  1
  Fe  Fe11  1  0.32702234  -0.00433976  0.32869227  1
  Fe  Fe12  1  0.32641357  0.32752329  -0.00458442  1
  Fe  Fe13  1  0.49416262  0.49539859  0.16097533  1
  Cr  Cr14  1  0.32821523  0.32835744  0.32965511  1
  Cr  Cr15  1  0.32736141  0.65892099  -0.00434873  1
  Cr  Cr16  1  0.49369054  0.82623065  0.16223230  1
  Fe  Fe17  1  0.32926228  0.66009181  0.32712685  1
  Cr  Cr18  1  0.66089428  -0.00352632  0.99286670  1
  Fe  Fe19  1  0.83057827  0.16388610  0.16157949  1
  Cr  Cr20  1  0.66199246  -0.00436409  0.32913952  1
  Fe  Fe21  1  0.66170501  0.32932879  -0.00410979  1
  Fe  Fe22  1  0.82870488  0.49355076  0.16088747  1
  Cr  Cr23  1  0.66135655  0.33022036  0.32873791  1
  Fe  Fe24  1  0.66164569  0.65983439  -0.00430736  1
  Cr  Cr25  1  0.82694892  0.82825656  0.16172907  1
  Fe  Fe26  1  0.66050875  0.65956129  0.32835017  1
  Fe  Fe27  1  0.16199949  0.16073773  0.49345103  1
  Cr  Cr28  1  0.99443929  0.99414712  0.66155043  1
  Fe  Fe29  1  0.16287106  0.16300111  0.82966280  1
  Cr  Cr30  1  0.16180847  0.49351252  0.49615105  1
  Cr  Cr31  1  -0.00357128  0.32916315  0.66112353  1
  Fe  Fe32  1  0.16152002  0.49277218  0.82967889  1
  Cr  Cr33  1  0.16307464  0.82910066  0.49212813  1
  Cr  Cr34  1  -0.00502674  0.66125878  0.66383474  1
  Cr  Cr35  1  0.16272720  0.82791391  0.82763931  1
  Fe  Fe36  1  0.49371505  0.16131451  0.49458626  1
  Cr  Cr37  1  0.32980497  -0.00177164  0.66236600  1
  Fe  Fe38  1  0.49401459  0.16158439  0.82936547  1
  Fe  Fe39  1  0.49587756  0.49501033  0.49396436  1
  Cr  Cr40  1  0.32944492  0.32674492  0.66198306  1
  Cr  Cr41  1  0.49365799  0.49287655  0.83045727  1
  Cr  Cr42  1  0.49407270  0.82782757  0.49314734  1
  Cr  Cr43  1  0.32685795  0.65955830  0.66121848  1
  Cr  Cr44  1  0.49502352  0.83004630  0.82909927  1
  Cr  Cr45  1  0.82897681  0.16298412  0.49448011  1
  Fe  Fe46  1  0.66040578  -0.00404950  0.66144464  1
  Cr  Cr47  1  0.82725991  0.16282878  0.82844053  1
  Fe  Fe48  1  0.82735079  0.49515612  0.49398526  1
  Cr  Cr49  1  0.65867692  0.32617951  0.65849970  1
  Cr  Cr50  1  0.82943396  0.49300316  0.82907355  1
  Cr  Cr51  1  0.82740799  0.82879031  0.49671155  1
  Cr  Cr52  1  0.66275666  0.66146791  0.65957516  1
  Cr  Cr53  1  0.82678208  0.82873299  0.82607400  1
" 