2144,Ni3Fe40Cr55_5,-214.949847427703, 183.393473130838,Ni3Fe40Cr55,"# generated using pymatgen
 data_Cr31Fe22Ni
_symmetry_space_group_name_H-M   'P 1'
_cell_length_a   7.54744493
_cell_length_b   7.54744493
_cell_length_c   10.67369898
_cell_angle_alpha   90.00000000
_cell_angle_beta   90.00000000
_cell_angle_gamma   90.00000000
_symmetry_Int_Tables_number   1
_chemical_formula_structural   Cr31Fe22Ni
_chemical_formula_sum   'Cr31 Fe22 Ni1'
_cell_volume   608.01578688
_cell_formula_units_Z   1
loop_
 _symmetry_equiv_pos_site_id
 _symmetry_equiv_pos_as_xyz
  1  'x, y, z'
loop_
 _atom_site_type_symbol
 _atom_site_label
 _atom_site_symmetry_multiplicity
 _atom_site_fract_x
 _atom_site_fract_y
 _atom_site_fract_z
 _atom_site_occupancy
  Cr  Cr0  1  0.99454483  0.99425702  -0.00507585  1
  Cr  Cr1  1  0.16565845  0.15998597  0.15812563  1
  Cr  Cr2  1  -0.00516397  -0.00491551  0.32613876  1
  Cr  Cr3  1  -0.00517836  0.32454446  0.99419370  1
  Cr  Cr4  1  0.16179566  0.49580122  0.16201114  1
  Cr  Cr5  1  -0.00494727  0.32589265  0.32965540  1
  Fe  Fe6  1  0.99448812  0.66241710  0.99467059  1
  Fe  Fe7  1  0.16349451  0.82697974  0.16187965  1
  Fe  Fe8  1  -0.00446433  0.66095810  0.32812314  1
  Fe  Fe9  1  0.33140551  -0.00532192  -0.00513553  1
  Fe  Fe10  1  0.49487241  0.15819072  0.16127182  1
  Fe  Fe11  1  0.33040228  -0.00397045  0.32636204  1
  Fe  Fe12  1  0.32830512  0.32578923  0.99436408  1
  Cr  Cr13  1  0.49318955  0.49401412  0.16113287  1
  Fe  Fe14  1  0.32773133  0.32642511  0.32867694  1
  Cr  Cr15  1  0.32979127  0.66358045  0.99347196  1
  Fe  Fe16  1  0.49310694  0.83016080  0.16184343  1
  Fe  Fe17  1  0.32790366  0.66170589  0.32709252  1
  Fe  Fe18  1  0.65906340  0.99372312  -0.00522278  1
  Fe  Fe19  1  0.82616098  0.16034556  0.16145616  1
  Fe  Fe20  1  0.65906094  -0.00503100  0.32662770  1
  Cr  Cr21  1  0.66010788  0.32597996  -0.00265027  1
  Cr  Cr22  1  0.82869552  0.49669619  0.16100926  1
  Cr  Cr23  1  0.65936807  0.32568826  0.32681041  1
  Cr  Cr24  1  0.65902021  0.66402332  0.99156787  1
  Cr  Cr25  1  0.82719278  0.82811683  0.16171023  1
  Fe  Fe26  1  0.66056004  0.66275440  0.32734962  1
  Cr  Cr27  1  0.16412698  0.16087852  0.49812668  1
  Cr  Cr28  1  -0.00483814  -0.00389738  0.66281659  1
  Fe  Fe29  1  0.16365424  0.16074288  0.82805697  1
  Fe  Fe30  1  0.16158477  0.49529003  0.49338941  1
  Fe  Fe31  1  -0.00503585  0.32886042  0.66142058  1
  Cr  Cr32  1  0.16046588  0.49251003  0.82958449  1
  Cr  Cr33  1  0.16284523  0.82818034  0.49071090  1
  Cr  Cr34  1  -0.00440338  0.66295907  0.66161098  1
  Cr  Cr35  1  0.16299644  0.83063717  0.82992411  1
  Fe  Fe36  1  0.49496386  0.15985006  0.49480627  1
  Fe  Fe37  1  0.33019597  0.99332695  0.66231842  1
  Cr  Cr38  1  0.49291451  0.15865325  0.82752127  1
  Cr  Cr39  1  0.49456729  0.49394669  0.49335680  1
  Cr  Cr40  1  0.32814239  0.32754795  0.66054090  1
  Cr  Cr41  1  0.49477512  0.49363611  0.82917476  1
  Cr  Cr42  1  0.49454268  0.83124017  0.49359588  1
  Cr  Cr43  1  0.32983524  0.66261661  0.66148878  1
  Ni  Ni44  1  0.49509971  0.83361003  0.82880564  1
  Cr  Cr45  1  0.82544868  0.16075920  0.49674574  1
  Fe  Fe46  1  0.65843059  0.99407272  0.66234989  1
  Cr  Cr47  1  0.82730977  0.16097542  0.82614875  1
  Cr  Cr48  1  0.82834947  0.49507009  0.49550207  1
  Fe  Fe49  1  0.66127900  0.32682709  0.66096885  1
  Cr  Cr50  1  0.82873863  0.49463106  0.82793273  1
  Cr  Cr51  1  0.82645758  0.82818255  0.49441383  1
  Cr  Cr52  1  0.65851448  0.66301037  0.66492852  1
  Fe  Fe53  1  0.82526240  0.82948036  0.82868875  1
" 