5128,Ni3Fe40Cr55_6,-214.650920389131, 179.012570404448,Ni3Fe40Cr55,"# generated using pymatgen
 data_Cr31Fe22Ni
_symmetry_space_group_name_H-M   'P 1'
_cell_length_a   7.55091228
_cell_length_b   7.55091228
_cell_length_c   10.67860255
_cell_angle_alpha   90.00000000
_cell_angle_beta   90.00000000
_cell_angle_gamma   90.00000000
_symmetry_Int_Tables_number   1
_chemical_formula_structural   Cr31Fe22Ni
_chemical_formula_sum   'Cr31 Fe22 Ni1'
_cell_volume   608.85415338
_cell_formula_units_Z   1
loop_
 _symmetry_equiv_pos_site_id
 _symmetry_equiv_pos_as_xyz
  1  'x, y, z'
loop_
 _atom_site_type_symbol
 _atom_site_label
 _atom_site_symmetry_multiplicity
 _atom_site_fract_x
 _atom_site_fract_y
 _atom_site_fract_z
 _atom_site_occupancy
  Fe  Fe0  1  -0.00425556  0.99397217  -0.00425026  1
  Cr  Cr1  1  0.16184348  0.15868014  0.15954528  1
  Cr  Cr2  1  0.99327371  -0.00543102  0.32537380  1
  Cr  Cr3  1  -0.00460950  0.32678354  0.99306087  1
  Fe  Fe4  1  0.16161799  0.49569833  0.16153521  1
  Cr  Cr5  1  0.99354612  0.32880595  0.32894475  1
  Cr  Cr6  1  -0.00374607  0.66192645  -0.00359859  1
  Ni  Ni7  1  0.16028110  0.82885544  0.15979502  1
  Cr  Cr8  1  -0.00451609  0.65996442  0.32639938  1
  Fe  Fe9  1  0.32609094  0.99356026  -0.00466531  1
  Cr  Cr10  1  0.49359386  0.16215612  0.16197480  1
  Cr  Cr11  1  0.32958330  0.99345823  0.32677435  1
  Cr  Cr12  1  0.32674961  0.32820150  0.99236470  1
  Cr  Cr13  1  0.49587958  0.49374732  0.16220594  1
  Fe  Fe14  1  0.32846961  0.32848982  0.32850390  1
  Cr  Cr15  1  0.32699424  0.66162466  0.99420802  1
  Fe  Fe16  1  0.49347093  0.82779009  0.16104013  1
  Cr  Cr17  1  0.32769140  0.66075372  0.32777278  1
  Cr  Cr18  1  0.66150167  0.99438480  -0.00487700  1
  Fe  Fe19  1  0.82821396  0.15988313  0.16103365  1
  Cr  Cr20  1  0.66048118  -0.00459639  0.32943768  1
  Cr  Cr21  1  0.66119980  0.32710063  0.99439181  1
  Cr  Cr22  1  0.82606618  0.49528028  0.16263384  1
  Fe  Fe23  1  0.66073236  0.32815063  0.32898694  1
  Cr  Cr24  1  0.66008909  0.66185748  -0.00527222  1
  Fe  Fe25  1  0.82863907  0.82869953  0.16112959  1
  Fe  Fe26  1  0.66080208  0.66082901  0.32820569  1
  Cr  Cr27  1  0.16239771  0.16305937  0.49534953  1
  Cr  Cr28  1  0.99318838  -0.00327294  0.66122789  1
  Fe  Fe29  1  0.16103295  0.16183128  0.82775011  1
  Fe  Fe30  1  0.16181148  0.49371109  0.49525153  1
  Fe  Fe31  1  -0.00435939  0.32818266  0.66070467  1
  Fe  Fe32  1  0.16233435  0.49322316  0.82654193  1
  Cr  Cr33  1  0.16194559  0.82696737  0.49506374  1
  Cr  Cr34  1  -0.00349021  0.65817885  0.66054970  1
  Cr  Cr35  1  0.16127886  0.82894973  0.82829252  1
  Fe  Fe36  1  0.49525775  0.16170073  0.49444696  1
  Cr  Cr37  1  0.32990771  -0.00550006  0.66049219  1
  Cr  Cr38  1  0.49221100  0.16226804  0.82793102  1
  Fe  Fe39  1  0.49395054  0.49415039  0.49394519  1
  Fe  Fe40  1  0.32688570  0.32948582  0.66123097  1
  Fe  Fe41  1  0.49292509  0.49453563  0.82705291  1
  Fe  Fe42  1  0.49477938  0.82748642  0.49496597  1
  Fe  Fe43  1  0.32818337  0.65910775  0.66072379  1
  Cr  Cr44  1  0.49386533  0.82704260  0.82687247  1
  Fe  Fe45  1  0.82667634  0.16221921  0.49494365  1
  Fe  Fe46  1  0.66078707  -0.00522388  0.65989124  1
  Cr  Cr47  1  0.82936159  0.16115312  0.82742568  1
  Fe  Fe48  1  0.82757792  0.49323739  0.49405001  1
  Cr  Cr49  1  0.66106525  0.32651882  0.66045996  1
  Cr  Cr50  1  0.82745497  0.49451702  0.82757603  1
  Cr  Cr51  1  0.82637288  0.82679718  0.49562403  1
  Cr  Cr52  1  0.65883952  0.66150118  0.66119236  1
  Cr  Cr53  1  0.82819768  0.82766866  0.82791205  1
" 