8885,Ni3Fe10Cr85_12,-204.95974209754, 202.610614954474,Ni3Fe10Cr85,"# generated using pymatgen
 data_Cr47Fe5Ni2
_symmetry_space_group_name_H-M   'P 1'
_cell_length_a   7.58936501
_cell_length_b   7.58936501
_cell_length_c   10.73298293
_cell_angle_alpha   90.00000000
_cell_angle_beta   90.00000000
_cell_angle_gamma   90.00000000
_symmetry_Int_Tables_number   1
_chemical_formula_structural   Cr47Fe5Ni2
_chemical_formula_sum   'Cr47 Fe5 Ni2'
_cell_volume   618.20330227
_cell_formula_units_Z   1
loop_
 _symmetry_equiv_pos_site_id
 _symmetry_equiv_pos_as_xyz
  1  'x, y, z'
loop_
 _atom_site_type_symbol
 _atom_site_label
 _atom_site_symmetry_multiplicity
 _atom_site_fract_x
 _atom_site_fract_y
 _atom_site_fract_z
 _atom_site_occupancy
  Cr  Cr0  1  0.99029390  0.99100771  0.99111342  1
  Cr  Cr1  1  0.15797199  0.15891643  0.15869008  1
  Cr  Cr2  1  0.99059172  0.99121263  0.32512547  1
  Cr  Cr3  1  0.99182476  0.32490709  0.99029528  1
  Cr  Cr4  1  0.15705098  0.49047351  0.15972126  1
  Fe  Fe5  1  0.99133956  0.32552061  0.32590357  1
  Cr  Cr6  1  0.99147831  0.65984512  -0.00683043  1
  Cr  Cr7  1  0.15746596  0.82623025  0.15759447  1
  Cr  Cr8  1  -0.00774968  0.65900820  0.32429418  1
  Cr  Cr9  1  0.32517842  -0.00792969  -0.00715384  1
  Cr  Cr10  1  0.49165468  0.15949050  0.15870651  1
  Cr  Cr11  1  0.32497022  0.99189580  0.32443408  1
  Cr  Cr12  1  0.32637088  0.32701554  -0.00640631  1
  Ni  Ni13  1  0.49221028  0.49148373  0.15879875  1
  Cr  Cr14  1  0.32519672  0.32724085  0.32399262  1
  Cr  Cr15  1  0.32563672  0.65689197  -0.00746202  1
  Cr  Cr16  1  0.49273160  0.82536504  0.15937226  1
  Cr  Cr17  1  0.32510813  0.65686662  0.32613107  1
  Cr  Cr18  1  0.66032113  0.99172852  0.99187968  1
  Cr  Cr19  1  0.82619442  0.15957211  0.15968697  1
  Cr  Cr20  1  0.66020056  0.99169845  0.32623707  1
  Cr  Cr21  1  0.65737961  0.32556778  0.99084854  1
  Cr  Cr22  1  0.82468401  0.49214692  0.15861684  1
  Cr  Cr23  1  0.65760290  0.32557537  0.32560837  1
  Cr  Cr24  1  0.65837274  0.65860829  -0.00412289  1
  Ni  Ni25  1  0.82559695  0.82604155  0.15890971  1
  Cr  Cr26  1  0.65858556  0.65855417  0.32171280  1
  Cr  Cr27  1  0.15715720  0.15997349  0.48867509  1
  Cr  Cr28  1  0.99043010  -0.00715093  0.65979895  1
  Cr  Cr29  1  0.15850359  0.15866624  0.82785519  1
  Fe  Fe30  1  0.15892556  0.49212992  0.49158037  1
  Cr  Cr31  1  0.99175147  0.32420509  0.65721169  1
  Cr  Cr32  1  0.15765881  0.49219166  0.82358809  1
  Cr  Cr33  1  0.15941382  0.82520291  0.49395521  1
  Cr  Cr34  1  -0.00635366  0.65818490  0.65808140  1
  Cr  Cr35  1  0.15952129  0.82524581  0.82466844  1
  Cr  Cr36  1  0.49171172  0.15824686  0.49130462  1
  Cr  Cr37  1  0.32441109  -0.00688052  0.65845085  1
  Cr  Cr38  1  0.49178017  0.15808742  0.82595858  1
  Cr  Cr39  1  0.49320213  0.49267910  0.49343354  1
  Cr  Cr40  1  0.32475695  0.32694052  0.65822792  1
  Cr  Cr41  1  0.49293665  0.49280062  0.82501835  1
  Cr  Cr42  1  0.49156368  0.82523270  0.49415300  1
  Fe  Fe43  1  0.32504259  0.65778185  0.65814666  1
  Cr  Cr44  1  0.49158501  0.82525915  0.82255619  1
  Fe  Fe45  1  0.82553932  0.15871594  0.49101371  1
  Cr  Cr46  1  0.66081398  -0.00640471  0.65788899  1
  Fe  Fe47  1  0.82528798  0.15849473  0.82548375  1
  Cr  Cr48  1  0.82702793  0.49013955  0.49045629  1
  Cr  Cr49  1  0.65950733  0.32352868  0.65977799  1
  Cr  Cr50  1  0.82534007  0.49127986  0.82618190  1
  Cr  Cr51  1  0.82495451  0.82372140  0.49093178  1
  Cr  Cr52  1  0.65933669  0.65806213  0.65847186  1
  Cr  Cr53  1  0.82477339  0.82357295  0.82627445  1
" 