4825,Ni3Fe65Cr31_0,-220.026877959113, 153.278241057951,Ni3Fe65Cr31,"# generated using pymatgen
 data_Cr18Fe35Ni
_symmetry_space_group_name_H-M   'P 1'
_cell_length_a   7.49913099
_cell_length_b   7.49913099
_cell_length_c   10.60537275
_cell_angle_alpha   90.00000000
_cell_angle_beta   90.00000000
_cell_angle_gamma   90.00000000
_symmetry_Int_Tables_number   1
_chemical_formula_structural   Cr18Fe35Ni
_chemical_formula_sum   'Cr18 Fe35 Ni1'
_cell_volume   596.41398266
_cell_formula_units_Z   1
loop_
 _symmetry_equiv_pos_site_id
 _symmetry_equiv_pos_as_xyz
  1  'x, y, z'
loop_
 _atom_site_type_symbol
 _atom_site_label
 _atom_site_symmetry_multiplicity
 _atom_site_fract_x
 _atom_site_fract_y
 _atom_site_fract_z
 _atom_site_occupancy
  Fe  Fe0  1  0.99699715  0.99430611  0.99616108  1
  Cr  Cr1  1  0.16259567  0.16389077  0.16354640  1
  Cr  Cr2  1  0.99733425  0.99656712  0.33367261  1
  Fe  Fe3  1  0.99595267  0.33390821  0.99518103  1
  Cr  Cr4  1  0.16320849  0.49655548  0.16240400  1
  Fe  Fe5  1  0.99714448  0.33043722  0.33308989  1
  Fe  Fe6  1  -0.00049017  0.66518328  0.99573238  1
  Fe  Fe7  1  0.16579724  0.83233170  0.16102522  1
  Cr  Cr8  1  0.99387466  0.66237025  0.32720247  1
  Fe  Fe9  1  0.33217355  0.99397215  0.99696526  1
  Cr  Cr10  1  0.49794147  0.16287216  0.15961468  1
  Cr  Cr11  1  0.33283951  -0.00093690  0.33185311  1
  Fe  Fe12  1  0.33231310  0.33306739  0.99560979  1
  Fe  Fe13  1  0.49791963  0.49793211  0.16223843  1
  Cr  Cr14  1  0.33076195  0.33038984  0.33266007  1
  Fe  Fe15  1  0.33226121  0.66535244  -0.00213860  1
  Ni  Ni16  1  0.49996959  0.82840022  0.16403292  1
  Cr  Cr17  1  0.33010072  0.66538489  0.32846442  1
  Fe  Fe18  1  0.66389190  0.99558074  0.99531497  1
  Cr  Cr19  1  0.83274601  0.16497738  0.16011686  1
  Cr  Cr20  1  0.66420633  0.99764369  0.33180514  1
  Fe  Fe21  1  0.66421192  0.33114712  0.99484161  1
  Fe  Fe22  1  0.82967832  0.49787049  0.16173064  1
  Cr  Cr23  1  0.66571937  0.33322568  0.32829587  1
  Cr  Cr24  1  0.66657122  0.66276950  -0.00148603  1
  Fe  Fe25  1  0.83106175  0.83199144  0.16210146  1
  Fe  Fe26  1  0.66376441  0.66588943  0.32868962  1
  Fe  Fe27  1  0.16295182  0.16753873  0.50054271  1
  Fe  Fe28  1  0.99642507  -0.00172110  0.66490366  1
  Cr  Cr29  1  0.16244233  0.16351066  0.83220938  1
  Fe  Fe30  1  0.16285724  0.49702480  0.49952947  1
  Fe  Fe31  1  0.99653967  0.32919250  0.66552171  1
  Fe  Fe32  1  0.16648332  0.49769735  0.83350347  1
  Cr  Cr33  1  0.16424633  0.83009424  0.50004771  1
  Cr  Cr34  1  -0.00202622  0.66197456  0.66958711  1
  Fe  Fe35  1  0.16606763  0.83035289  0.83220659  1
  Fe  Fe36  1  0.49962679  0.16738380  0.49963480  1
  Cr  Cr37  1  0.33311806  -0.00029085  0.66328913  1
  Fe  Fe38  1  0.49787207  0.16613682  0.83344504  1
  Cr  Cr39  1  0.49977154  0.50263427  0.49934612  1
  Fe  Fe40  1  0.33075107  0.33378061  0.66535798  1
  Fe  Fe41  1  0.49725630  0.49723650  0.83029838  1
  Fe  Fe42  1  0.50007866  0.83108698  0.49805312  1
  Fe  Fe43  1  0.33295925  0.66443375  0.66749483  1
  Fe  Fe44  1  0.49685894  0.83077853  0.83313479  1
  Fe  Fe45  1  0.83125568  0.16671177  0.49972185  1
  Cr  Cr46  1  0.66477061  -0.00056212  0.66631051  1
  Fe  Fe47  1  0.82980100  0.16503781  0.83336261  1
  Fe  Fe48  1  0.83253127  0.49817561  0.49925079  1
  Fe  Fe49  1  0.66541139  0.33305908  0.66633505  1
  Fe  Fe50  1  0.83097320  0.49504769  0.83177159  1
  Fe  Fe51  1  0.82867650  0.82732895  0.49997739  1
  Fe  Fe52  1  0.66394466  0.66510765  0.66841248  1
  Fe  Fe53  1  0.83229587  0.83265506  0.83251287  1
" 