8849,Ni3Fe65Cr31_8,-220.302885761195, 158.320670670497,Ni3Fe65Cr31,"# generated using pymatgen
 data_Cr18Fe35Ni
_symmetry_space_group_name_H-M   'P 1'
_cell_length_a   7.50709933
_cell_length_b   7.50709933
_cell_length_c   10.61664169
_cell_angle_alpha   90.00000000
_cell_angle_beta   90.00000000
_cell_angle_gamma   90.00000000
_symmetry_Int_Tables_number   1
_chemical_formula_structural   Cr18Fe35Ni
_chemical_formula_sum   'Cr18 Fe35 Ni1'
_cell_volume   598.31719645
_cell_formula_units_Z   1
loop_
 _symmetry_equiv_pos_site_id
 _symmetry_equiv_pos_as_xyz
  1  'x, y, z'
loop_
 _atom_site_type_symbol
 _atom_site_label
 _atom_site_symmetry_multiplicity
 _atom_site_fract_x
 _atom_site_fract_y
 _atom_site_fract_z
 _atom_site_occupancy
  Cr  Cr0  1  0.99530874  -0.00205858  0.99564164  1
  Cr  Cr1  1  0.16379933  0.16494481  0.16386794  1
  Cr  Cr2  1  0.99410655  0.99687042  0.33100350  1
  Fe  Fe3  1  0.99343235  0.33230114  -0.00204539  1
  Fe  Fe4  1  0.16163025  0.49775364  0.16424161  1
  Fe  Fe5  1  0.99703916  0.33342871  0.32944203  1
  Fe  Fe6  1  0.99567365  0.66151132  -0.00223035  1
  Cr  Cr7  1  0.16482165  0.82728914  0.16003055  1
  Fe  Fe8  1  0.99645724  0.66184805  0.32912847  1
  Fe  Fe9  1  0.33064211  -0.00208176  0.99691214  1
  Fe  Fe10  1  0.50136607  0.16551003  0.16384639  1
  Cr  Cr11  1  0.33027363  -0.00165537  0.33077396  1
  Cr  Cr12  1  0.33169624  0.33179103  -0.00238175  1
  Cr  Cr13  1  0.49923742  0.49846175  0.16350608  1
  Fe  Fe14  1  0.33020595  0.33350621  0.33082097  1
  Fe  Fe15  1  0.32944148  0.66397292  0.99583809  1
  Cr  Cr16  1  0.49740676  0.83288789  0.16262517  1
  Fe  Fe17  1  0.33058233  0.66187702  0.33216710  1
  Fe  Fe18  1  0.66523648  -0.00044463  -0.00178904  1
  Fe  Fe19  1  0.82753690  0.16606031  0.16402800  1
  Fe  Fe20  1  0.66441599  0.99653529  0.32994469  1
  Fe  Fe21  1  0.66848702  0.32902364  -0.00217909  1
  Ni  Ni22  1  0.83264867  0.49547079  0.16300797  1
  Fe  Fe23  1  0.66534540  0.33083928  0.32895373  1
  Cr  Cr24  1  0.66552737  0.66201787  0.99442253  1
  Fe  Fe25  1  0.82978162  0.82755305  0.16393624  1
  Fe  Fe26  1  0.66583463  0.66461684  0.33007802  1
  Cr  Cr27  1  0.16327344  0.16607978  0.50136458  1
  Fe  Fe28  1  0.99625796  0.99608078  0.66660990  1
  Fe  Fe29  1  0.16324905  0.16305624  0.82905328  1
  Fe  Fe30  1  0.16439175  0.49598996  0.49683891  1
  Fe  Fe31  1  0.99699798  0.33167360  0.66631298  1
  Cr  Cr32  1  0.15985858  0.49871563  0.83274908  1
  Cr  Cr33  1  0.16344916  0.82911808  0.49885376  1
  Fe  Fe34  1  0.99562648  0.66474173  0.66528715  1
  Fe  Fe35  1  0.16294675  0.83178454  0.83000486  1
  Cr  Cr36  1  0.49845818  0.16381969  0.49678262  1
  Fe  Fe37  1  0.33061854  0.99721932  0.66496978  1
  Cr  Cr38  1  0.49878660  0.16345446  0.83190985  1
  Fe  Fe39  1  0.49733045  0.49695842  0.49566003  1
  Fe  Fe40  1  0.33130664  0.33102668  0.66561672  1
  Fe  Fe41  1  0.49868752  0.49613234  0.82990045  1
  Fe  Fe42  1  0.50131838  0.82923888  0.49711299  1
  Cr  Cr43  1  0.33399507  0.66088281  0.66336449  1
  Cr  Cr44  1  0.49567545  0.83154221  0.83223813  1
  Cr  Cr45  1  0.82998451  0.16588826  0.49830213  1
  Fe  Fe46  1  0.66500999  0.99521004  0.66436225  1
  Fe  Fe47  1  0.83141416  0.16523263  0.82900407  1
  Cr  Cr48  1  0.83143865  0.49834052  0.49836440  1
  Fe  Fe49  1  0.66328891  0.33272583  0.66552458  1
  Fe  Fe50  1  0.82894415  0.49588311  0.82992433  1
  Fe  Fe51  1  0.82820107  0.83057458  0.49853139  1
  Fe  Fe52  1  0.66576541  0.66432372  0.66501147  1
  Fe  Fe53  1  0.83174033  0.83042550  0.82870477  1
" 