3882,Ni3Fe48Cr47_10,-217.246747739015, 174.918344797165,Ni3Fe48Cr47,"# generated using pymatgen
 data_Cr27Fe25Ni2
_symmetry_space_group_name_H-M   'P 1'
_cell_length_a   7.52755541
_cell_length_b   7.52755541
_cell_length_c   10.64557096
_cell_angle_alpha   90.00000000
_cell_angle_beta   90.00000000
_cell_angle_gamma   90.00000000
_symmetry_Int_Tables_number   1
_chemical_formula_structural   Cr27Fe25Ni2
_chemical_formula_sum   'Cr27 Fe25 Ni2'
_cell_volume   603.22159607
_cell_formula_units_Z   1
loop_
 _symmetry_equiv_pos_site_id
 _symmetry_equiv_pos_as_xyz
  1  'x, y, z'
loop_
 _atom_site_type_symbol
 _atom_site_label
 _atom_site_symmetry_multiplicity
 _atom_site_fract_x
 _atom_site_fract_y
 _atom_site_fract_z
 _atom_site_occupancy
  Cr  Cr0  1  -0.00381462  0.99358458  0.99204515  1
  Cr  Cr1  1  0.16341116  0.16205836  0.16258855  1
  Cr  Cr2  1  0.99547606  0.99381101  0.33248219  1
  Cr  Cr3  1  -0.00293988  0.32907571  -0.00302221  1
  Fe  Fe4  1  0.16323173  0.49618304  0.16344732  1
  Cr  Cr5  1  -0.00302336  0.33029928  0.33068852  1
  Cr  Cr6  1  -0.00278631  0.66485282  -0.00138427  1
  Cr  Cr7  1  0.16223243  0.82816808  0.16296966  1
  Fe  Fe8  1  0.99465630  0.66290024  0.33148899  1
  Cr  Cr9  1  0.32976617  0.99247403  0.99377927  1
  Fe  Fe10  1  0.49567628  0.16164307  0.16399710  1
  Fe  Fe11  1  0.32831079  -0.00280116  0.32924261  1
  Cr  Cr12  1  0.32996324  0.33051438  -0.00282050  1
  Cr  Cr13  1  0.49550547  0.49709581  0.16196728  1
  Fe  Fe14  1  0.32807784  0.32968989  0.32957154  1
  Fe  Fe15  1  0.32982526  0.66361884  0.99424313  1
  Cr  Cr16  1  0.49752893  0.83207707  0.16380735  1
  Cr  Cr17  1  0.32782425  0.66259827  0.32759361  1
  Fe  Fe18  1  0.66241433  0.99341303  0.99387405  1
  Cr  Cr19  1  0.82726835  0.15977000  0.15932213  1
  Fe  Fe20  1  0.66391317  0.99435051  0.32994037  1
  Cr  Cr21  1  0.66127889  0.32972177  0.99412628  1
  Cr  Cr22  1  0.83086735  0.49783922  0.16313871  1
  Cr  Cr23  1  0.66241625  0.32921044  0.33031171  1
  Cr  Cr24  1  0.66060649  0.66491943  0.99246019  1
  Fe  Fe25  1  0.82823011  0.82974650  0.16312726  1
  Fe  Fe26  1  0.66537340  0.66403301  0.33047778  1
  Fe  Fe27  1  0.16367255  0.16137170  0.49658184  1
  Fe  Fe28  1  -0.00179697  0.99195930  0.66240232  1
  Fe  Fe29  1  0.16282418  0.16107610  0.82722613  1
  Fe  Fe30  1  0.16399910  0.49872730  0.49837456  1
  Cr  Cr31  1  -0.00384947  0.32637543  0.66047359  1
  Cr  Cr32  1  0.16347977  0.49693903  0.83111055  1
  Fe  Fe33  1  0.16357300  0.82764349  0.49821275  1
  Fe  Fe34  1  -0.00337467  0.66491387  0.66225119  1
  Fe  Fe35  1  0.16155204  0.82931324  0.82649665  1
  Cr  Cr36  1  0.49332547  0.16129124  0.49282036  1
  Fe  Fe37  1  0.32700311  0.99517245  0.66301840  1
  Cr  Cr38  1  0.49413261  0.16195927  0.82938690  1
  Cr  Cr39  1  0.49527620  0.49796651  0.49989068  1
  Fe  Fe40  1  0.32815218  0.33026814  0.66306463  1
  Fe  Fe41  1  0.49507272  0.49910989  0.82660450  1
  Cr  Cr42  1  0.49484568  0.82912197  0.49577492  1
  Ni  Ni43  1  0.32805188  0.66554100  0.66621725  1
  Fe  Fe44  1  0.49590432  0.82735587  0.82672208  1
  Fe  Fe45  1  0.82894049  0.16080583  0.49636892  1
  Cr  Cr46  1  0.66391940  0.99525017  0.66319667  1
  Cr  Cr47  1  0.83097951  0.16117418  0.83048619  1
  Fe  Fe48  1  0.83021072  0.49940920  0.49643094  1
  Cr  Cr49  1  0.66269611  0.33054158  0.66267995  1
  Cr  Cr50  1  0.83073913  0.49802085  0.82767326  1
  Fe  Fe51  1  0.82974233  0.82713124  0.49792063  1
  Fe  Fe52  1  0.66248606  0.66478948  0.66412703  1
  Ni  Ni53  1  0.83012177  0.82889374  0.82799263  1
" 