466,Ni3Fe31Cr64_0,-212.535322707968, 195.579990796105,Ni3Fe31Cr64,"# generated using pymatgen
 data_Cr18Fe8Ni
_symmetry_space_group_name_H-M   'P 1'
_cell_length_a   7.55566000
_cell_length_b   7.55566000
_cell_length_c   10.68531685
_cell_angle_alpha   90.00000000
_cell_angle_beta   90.00000000
_cell_angle_gamma   90.00000000
_symmetry_Int_Tables_number   1
_chemical_formula_structural   Cr18Fe8Ni
_chemical_formula_sum   'Cr36 Fe16 Ni2'
_cell_volume   610.00334800
_cell_formula_units_Z   2
loop_
 _symmetry_equiv_pos_site_id
 _symmetry_equiv_pos_as_xyz
  1  'x, y, z'
loop_
 _atom_site_type_symbol
 _atom_site_label
 _atom_site_symmetry_multiplicity
 _atom_site_fract_x
 _atom_site_fract_y
 _atom_site_fract_z
 _atom_site_occupancy
  Cr  Cr0  1  -0.00477408  -0.00346043  -0.00492828  1
  Ni  Ni1  1  0.16232606  0.16018328  0.15968464  1
  Cr  Cr2  1  0.99395455  -0.00411154  0.32611298  1
  Cr  Cr3  1  -0.00456612  0.32574866  -0.00546090  1
  Cr  Cr4  1  0.15996042  0.49340561  0.16189796  1
  Cr  Cr5  1  -0.00477480  0.32627613  0.32753599  1
  Cr  Cr6  1  -0.00566172  0.66011904  0.99332015  1
  Cr  Cr7  1  0.16135568  0.83050243  0.16102015  1
  Cr  Cr8  1  0.99412067  0.66024456  0.32742195  1
  Fe  Fe9  1  0.32615150  -0.00394208  0.99409753  1
  Cr  Cr10  1  0.49122976  0.16182853  0.15902604  1
  Fe  Fe11  1  0.32692178  0.99392337  0.32750524  1
  Fe  Fe12  1  0.32660834  0.32586859  -0.00576286  1
  Cr  Cr13  1  0.49707503  0.49300702  0.16039008  1
  Cr  Cr14  1  0.32547517  0.32832633  0.32779730  1
  Cr  Cr15  1  0.32817703  0.65990416  0.99302812  1
  Cr  Cr16  1  0.49235049  0.82756971  0.16246280  1
  Fe  Fe17  1  0.32825520  0.66155026  0.32824584  1
  Cr  Cr18  1  0.66086560  -0.00531156  0.99236859  1
  Cr  Cr19  1  0.82830350  0.16323187  0.16049974  1
  Cr  Cr20  1  0.66086612  0.99189321  0.33092345  1
  Fe  Fe21  1  0.66090839  0.32755912  0.99411447  1
  Fe  Fe22  1  0.82712514  0.49370588  0.16080366  1
  Cr  Cr23  1  0.66171312  0.32815125  0.32646062  1
  Cr  Cr24  1  0.65989871  0.66011245  -0.00356069  1
  Cr  Cr25  1  0.82869946  0.82464995  0.16097890  1
  Fe  Fe26  1  0.66050215  0.66109627  0.32785069  1
  Cr  Cr27  1  0.16171824  0.15972008  0.49297089  1
  Cr  Cr28  1  0.99174520  -0.00476073  0.66120857  1
  Fe  Fe29  1  0.16164751  0.16071790  0.82779288  1
  Fe  Fe30  1  0.16085551  0.49485936  0.49405945  1
  Cr  Cr31  1  -0.00439729  0.32713192  0.66033215  1
  Fe  Fe32  1  0.16085188  0.49347138  0.82753730  1
  Cr  Cr33  1  0.16126605  0.82700008  0.49378148  1
  Fe  Fe34  1  -0.00496224  0.66073853  0.66040534  1
  Cr  Cr35  1  0.16023211  0.82824302  0.82759886  1
  Cr  Cr36  1  0.49424550  0.15881868  0.49526126  1
  Ni  Ni37  1  0.32838148  0.99334658  0.66092662  1
  Cr  Cr38  1  0.49327982  0.16104699  0.82813020  1
  Cr  Cr39  1  0.49418871  0.49467880  0.49257625  1
  Cr  Cr40  1  0.32504877  0.32854835  0.66179878  1
  Cr  Cr41  1  0.49430708  0.49122575  0.82944599  1
  Fe  Fe42  1  0.49401963  0.82831357  0.49421326  1
  Cr  Cr43  1  0.32682144  0.66041652  0.66021922  1
  Cr  Cr44  1  0.49272694  0.83013701  0.82626232  1
  Fe  Fe45  1  0.82707868  0.15967982  0.49444797  1
  Fe  Fe46  1  0.65980392  -0.00575893  0.66003051  1
  Fe  Fe47  1  0.82736522  0.16075780  0.82754691  1
  Cr  Cr48  1  0.82836212  0.49512054  0.49313196  1
  Cr  Cr49  1  0.66176414  0.32468055  0.66116865  1
  Cr  Cr50  1  0.82825012  0.49376242  0.82889260  1
  Fe  Fe51  1  0.82627761  0.82792237  0.49450606  1
  Cr  Cr52  1  0.65995721  0.66427046  0.65958547  1
  Cr  Cr53  1  0.82944287  0.82722448  0.82568029  1
" 