7881,Ni3Fe40Cr55_15,-214.987520165935, 187.216649625336,Ni3Fe40Cr55,"# generated using pymatgen
 data_Cr31Fe22Ni
_symmetry_space_group_name_H-M   'P 1'
_cell_length_a   7.53759762
_cell_length_b   7.53759762
_cell_length_c   10.65977278
_cell_angle_alpha   90.00000000
_cell_angle_beta   90.00000000
_cell_angle_gamma   90.00000000
_symmetry_Int_Tables_number   1
_chemical_formula_structural   Cr31Fe22Ni
_chemical_formula_sum   'Cr31 Fe22 Ni1'
_cell_volume   605.63901772
_cell_formula_units_Z   1
loop_
 _symmetry_equiv_pos_site_id
 _symmetry_equiv_pos_as_xyz
  1  'x, y, z'
loop_
 _atom_site_type_symbol
 _atom_site_label
 _atom_site_symmetry_multiplicity
 _atom_site_fract_x
 _atom_site_fract_y
 _atom_site_fract_z
 _atom_site_occupancy
  Cr  Cr0  1  -0.00320591  0.99470908  -0.00377167  1
  Fe  Fe1  1  0.16227766  0.16369239  0.16237201  1
  Cr  Cr2  1  -0.00394793  0.99226263  0.32697036  1
  Fe  Fe3  1  0.99399644  0.32873486  -0.00383219  1
  Fe  Fe4  1  0.16059851  0.49474585  0.16416416  1
  Fe  Fe5  1  -0.00255967  0.32724404  0.32830493  1
  Cr  Cr6  1  -0.00418588  0.66229426  -0.00348021  1
  Cr  Cr7  1  0.16547082  0.82756616  0.16213411  1
  Fe  Fe8  1  -0.00316807  0.66142573  0.32727857  1
  Fe  Fe9  1  0.32860347  -0.00267623  -0.00355653  1
  Fe  Fe10  1  0.49520295  0.16282480  0.16205075  1
  Cr  Cr11  1  0.32859308  -0.00067386  0.32940013  1
  Cr  Cr12  1  0.32699063  0.32908539  -0.00163767  1
  Cr  Cr13  1  0.49364407  0.49774146  0.16152818  1
  Fe  Fe14  1  0.32847895  0.32877214  0.32672339  1
  Fe  Fe15  1  0.32836613  0.66081456  0.99482447  1
  Cr  Cr16  1  0.49626199  0.82834310  0.15773178  1
  Fe  Fe17  1  0.32822835  0.66311001  0.32865960  1
  Cr  Cr18  1  0.66489709  -0.00358097  -0.00274403  1
  Cr  Cr19  1  0.83097692  0.16344711  0.16266175  1
  Cr  Cr20  1  0.66123316  -0.00205429  0.32682460  1
  Cr  Cr21  1  0.65924181  0.32964592  0.99386038  1
  Cr  Cr22  1  0.82964854  0.49351261  0.16521571  1
  Fe  Fe23  1  0.65950443  0.32793755  0.32891567  1
  Fe  Fe24  1  0.66505074  0.66090281  0.99506195  1
  Ni  Ni25  1  0.82959008  0.82749250  0.16108964  1
  Cr  Cr26  1  0.66408292  0.66159871  0.32855707  1
  Cr  Cr27  1  0.16107454  0.16296508  0.50000586  1
  Cr  Cr28  1  -0.00427918  0.99296446  0.66269292  1
  Cr  Cr29  1  0.15831793  0.16378300  0.82732226  1
  Cr  Cr30  1  0.16070853  0.49408199  0.49155273  1
  Fe  Fe31  1  0.99227839  0.33105366  0.66295952  1
  Cr  Cr32  1  0.15993689  0.49325023  0.82973336  1
  Fe  Fe33  1  0.16263885  0.82825520  0.49385035  1
  Cr  Cr34  1  0.99507879  0.66183567  0.65850242  1
  Cr  Cr35  1  0.16606229  0.82954475  0.82662203  1
  Fe  Fe36  1  0.49395600  0.16387883  0.49550180  1
  Fe  Fe37  1  0.32990095  0.99478883  0.66086006  1
  Cr  Cr38  1  0.49321157  0.15930595  0.82621539  1
  Cr  Cr39  1  0.49522678  0.49553732  0.49435023  1
  Fe  Fe40  1  0.32732053  0.32872070  0.66209667  1
  Fe  Fe41  1  0.49298948  0.49429830  0.83033176  1
  Cr  Cr42  1  0.49390488  0.82874063  0.49653914  1
  Cr  Cr43  1  0.32740238  0.65883673  0.66142229  1
  Cr  Cr44  1  0.49728443  0.82614657  0.83265332  1
  Cr  Cr45  1  0.82899829  0.16541022  0.49460838  1
  Cr  Cr46  1  0.66347562  -0.00350754  0.66097072  1
  Fe  Fe47  1  0.82851408  0.16350312  0.82848173  1
  Fe  Fe48  1  0.82875824  0.49466073  0.49314657  1
  Cr  Cr49  1  0.65911188  0.33006958  0.66219869  1
  Fe  Fe50  1  0.82944054  0.49404275  0.82993987  1
  Cr  Cr51  1  0.82796142  0.82805464  0.49239077  1
  Cr  Cr52  1  0.66382356  0.65961336  0.66656709  1
  Fe  Fe53  1  0.83031788  0.82853378  0.83046400  1
" 