3626,Ni3Fe31Cr64_11,-212.592982527606, 193.59426898594,Ni3Fe31Cr64,"# generated using pymatgen
 data_Cr18Fe8Ni
_symmetry_space_group_name_H-M   'P 1'
_cell_length_a   7.55387648
_cell_length_b   7.55387648
_cell_length_c   10.68279457
_cell_angle_alpha   90.00000000
_cell_angle_beta   90.00000000
_cell_angle_gamma   90.00000000
_symmetry_Int_Tables_number   1
_chemical_formula_structural   Cr18Fe8Ni
_chemical_formula_sum   'Cr36 Fe16 Ni2'
_cell_volume   609.57147364
_cell_formula_units_Z   2
loop_
 _symmetry_equiv_pos_site_id
 _symmetry_equiv_pos_as_xyz
  1  'x, y, z'
loop_
 _atom_site_type_symbol
 _atom_site_label
 _atom_site_symmetry_multiplicity
 _atom_site_fract_x
 _atom_site_fract_y
 _atom_site_fract_z
 _atom_site_occupancy
  Cr  Cr0  1  -0.00548556  0.99279477  0.98951698  1
  Cr  Cr1  1  0.16053504  0.16149554  0.16046637  1
  Cr  Cr2  1  -0.00174161  0.99174878  0.33048865  1
  Fe  Fe3  1  -0.00542039  0.32657934  0.99301868  1
  Cr  Cr4  1  0.15819878  0.49343594  0.15832961  1
  Cr  Cr5  1  0.99334154  0.32787940  0.32740211  1
  Cr  Cr6  1  -0.00463501  0.66360815  -0.00293922  1
  Ni  Ni7  1  0.15923910  0.82759765  0.16326634  1
  Fe  Fe8  1  -0.00538705  0.66149170  0.32618123  1
  Cr  Cr9  1  0.32540487  0.99185301  -0.00285854  1
  Cr  Cr10  1  0.49324685  0.15920652  0.16004015  1
  Fe  Fe11  1  0.32505589  0.99333045  0.32786956  1
  Fe  Fe12  1  0.32645486  0.32690231  0.99346616  1
  Cr  Cr13  1  0.49273064  0.49437360  0.15987971  1
  Cr  Cr14  1  0.32827844  0.32709567  0.32851065  1
  Cr  Cr15  1  0.32611192  0.66305345  0.99317538  1
  Cr  Cr16  1  0.49434038  0.82916221  0.16149983  1
  Cr  Cr17  1  0.32503090  0.66376965  0.32698509  1
  Fe  Fe18  1  0.66228354  0.99259166  0.99290746  1
  Cr  Cr19  1  0.82908639  0.16001321  0.15828687  1
  Cr  Cr20  1  0.66083022  -0.00463768  0.32514600  1
  Cr  Cr21  1  0.66131330  0.32684315  -0.00574140  1
  Fe  Fe22  1  0.82801966  0.49501657  0.16163156  1
  Cr  Cr23  1  0.66083669  0.32911320  0.32878549  1
  Cr  Cr24  1  0.66136998  0.66092264  0.99398865  1
  Cr  Cr25  1  0.82817268  0.82719361  0.16197461  1
  Fe  Fe26  1  0.66125892  0.66061621  0.32697019  1
  Fe  Fe27  1  0.16181342  0.15758413  0.49542710  1
  Fe  Fe28  1  -0.00216041  -0.00566616  0.66244994  1
  Fe  Fe29  1  0.16164463  0.15881530  0.82664184  1
  Cr  Cr30  1  0.16008781  0.49478214  0.49492228  1
  Cr  Cr31  1  0.99390084  0.32522489  0.66116699  1
  Cr  Cr32  1  0.16080328  0.49244777  0.82980078  1
  Fe  Fe33  1  0.16219735  0.82931736  0.49504752  1
  Cr  Cr34  1  -0.00381250  0.66460333  0.66147722  1
  Fe  Fe35  1  0.16210868  0.82937471  0.82607426  1
  Cr  Cr36  1  0.49195829  0.15712043  0.49258976  1
  Ni  Ni37  1  0.32308590  0.99115680  0.65911467  1
  Cr  Cr38  1  0.49249853  0.15899001  0.83054850  1
  Cr  Cr39  1  0.49362149  0.49794393  0.49815046  1
  Cr  Cr40  1  0.32758443  0.32546194  0.66052719  1
  Cr  Cr41  1  0.49198131  0.49575788  0.82453565  1
  Cr  Cr42  1  0.49420316  0.82848018  0.49494530  1
  Fe  Fe43  1  0.32610262  0.66445127  0.66127496  1
  Cr  Cr44  1  0.49491967  0.82836958  0.82624814  1
  Cr  Cr45  1  0.83010464  0.15838455  0.49580165  1
  Cr  Cr46  1  0.66234594  -0.00453908  0.66456985  1
  Fe  Fe47  1  0.82873395  0.16037545  0.82808908  1
  Cr  Cr48  1  0.82901272  0.49751376  0.49191496  1
  Cr  Cr49  1  0.66125600  0.32786539  0.65883202  1
  Cr  Cr50  1  0.82982861  0.49509931  0.82745129  1
  Cr  Cr51  1  0.82754762  0.82721259  0.49485225  1
  Fe  Fe52  1  0.66121142  0.66244943  0.66162372  1
  Fe  Fe53  1  0.82859515  0.82801789  0.82731995  1
" 