4112,Ni3Fe10Cr85_2,-204.852762528012, 202.037941859973,Ni3Fe10Cr85,"# generated using pymatgen
 data_Cr47Fe5Ni2
_symmetry_space_group_name_H-M   'P 1'
_cell_length_a   7.59050512
_cell_length_b   7.59050512
_cell_length_c   10.73459528
_cell_angle_alpha   90.00000000
_cell_angle_beta   90.00000000
_cell_angle_gamma   90.00000000
_symmetry_Int_Tables_number   1
_chemical_formula_structural   Cr47Fe5Ni2
_chemical_formula_sum   'Cr47 Fe5 Ni2'
_cell_volume   618.48195115
_cell_formula_units_Z   1
loop_
 _symmetry_equiv_pos_site_id
 _symmetry_equiv_pos_as_xyz
  1  'x, y, z'
loop_
 _atom_site_type_symbol
 _atom_site_label
 _atom_site_symmetry_multiplicity
 _atom_site_fract_x
 _atom_site_fract_y
 _atom_site_fract_z
 _atom_site_occupancy
  Fe  Fe0  1  0.99136045  0.99135685  0.99137494  1
  Fe  Fe1  1  0.15853613  0.15853873  0.15790635  1
  Cr  Cr2  1  -0.00759368  -0.00647079  0.32436694  1
  Cr  Cr3  1  -0.00665167  0.32366516  -0.00681129  1
  Cr  Cr4  1  0.15906730  0.49071800  0.15832714  1
  Cr  Cr5  1  0.99072138  0.32483910  0.32673681  1
  Cr  Cr6  1  0.99101660  0.65993619  0.99111197  1
  Cr  Cr7  1  0.15766455  0.82593767  0.15888289  1
  Cr  Cr8  1  0.99152965  0.65723278  0.32592727  1
  Cr  Cr9  1  0.32366433  -0.00665401  -0.00681183  1
  Cr  Cr10  1  0.49092609  0.15921900  0.15847370  1
  Cr  Cr11  1  0.32498966  0.99174580  0.32505030  1
  Fe  Fe12  1  0.32522708  0.32522672  0.99186202  1
  Cr  Cr13  1  0.49104483  0.49098672  0.15725958  1
  Cr  Cr14  1  0.32429155  0.32424091  0.32327801  1
  Cr  Cr15  1  0.32589945  0.65734149  0.99121247  1
  Cr  Cr16  1  0.49217157  0.82539689  0.16057056  1
  Cr  Cr17  1  0.32527018  0.65961439  0.32527251  1
  Cr  Cr18  1  0.65993414  0.99101451  0.99111170  1
  Cr  Cr19  1  0.82603283  0.15781609  0.15800485  1
  Cr  Cr20  1  0.65820854  -0.00744534  0.32602529  1
  Cr  Cr21  1  0.65733921  0.32590093  0.99121243  1
  Cr  Cr22  1  0.82549070  0.49196409  0.15998633  1
  Cr  Cr23  1  0.66058728  0.32511627  0.32701542  1
  Cr  Cr24  1  0.65868850  0.65868893  0.99051877  1
  Cr  Cr25  1  0.82576593  0.82582011  0.15684979  1
  Cr  Cr26  1  0.65880139  0.65793064  0.32482976  1
  Cr  Cr27  1  0.15728261  0.15891407  0.49211723  1
  Cr  Cr28  1  0.99106010  -0.00781390  0.65953230  1
  Cr  Cr29  1  0.15879110  0.15909059  0.82669990  1
  Cr  Cr30  1  0.15732043  0.49242893  0.49208937  1
  Cr  Cr31  1  0.99046058  0.32504550  0.65568396  1
  Cr  Cr32  1  0.16019625  0.49148401  0.82518584  1
  Cr  Cr33  1  0.15884260  0.82425990  0.49223576  1
  Cr  Cr34  1  0.99116029  0.65836840  0.65856487  1
  Cr  Cr35  1  0.15624144  0.82502770  0.82448240  1
  Cr  Cr36  1  0.49382547  0.15821840  0.49208957  1
  Cr  Cr37  1  0.32520271  0.99148269  0.65736839  1
  Cr  Cr38  1  0.49169068  0.16034851  0.82503929  1
  Cr  Cr39  1  0.49237706  0.49172598  0.49206226  1
  Cr  Cr40  1  0.32548299  0.32543184  0.66046491  1
  Fe  Fe41  1  0.49198516  0.49196644  0.82550183  1
  Cr  Cr42  1  0.49155683  0.82565836  0.49082984  1
  Cr  Cr43  1  0.32548785  0.65869126  0.65911459  1
  Cr  Cr44  1  0.49353134  0.82448468  0.82420263  1
  Ni  Ni45  1  0.82504199  0.15985198  0.49188489  1
  Cr  Cr46  1  0.65933994  -0.00781891  0.65846157  1
  Cr  Cr47  1  0.82512122  0.15639292  0.82536023  1
  Fe  Fe48  1  0.82519252  0.49028587  0.49186259  1
  Cr  Cr49  1  0.65966179  0.32532715  0.65737384  1
  Cr  Cr50  1  0.82457824  0.49332350  0.82478620  1
  Cr  Cr51  1  0.82520313  0.82570418  0.49191516  1
  Cr  Cr52  1  0.65895419  0.65809423  0.66025336  1
  Ni  Ni53  1  0.82527985  0.82520021  0.82614487  1
" 