8067,Ni3Fe48Cr47_17,-217.337697894312, 171.396893495441,Ni3Fe48Cr47,"# generated using pymatgen
 data_Cr27Fe25Ni2
_symmetry_space_group_name_H-M   'P 1'
_cell_length_a   7.53473362
_cell_length_b   7.53473362
_cell_length_c   10.65572247
_cell_angle_alpha   90.00000000
_cell_angle_beta   90.00000000
_cell_angle_gamma   90.00000000
_symmetry_Int_Tables_number   1
_chemical_formula_structural   Cr27Fe25Ni2
_chemical_formula_sum   'Cr27 Fe25 Ni2'
_cell_volume   604.94892064
_cell_formula_units_Z   1
loop_
 _symmetry_equiv_pos_site_id
 _symmetry_equiv_pos_as_xyz
  1  'x, y, z'
loop_
 _atom_site_type_symbol
 _atom_site_label
 _atom_site_symmetry_multiplicity
 _atom_site_fract_x
 _atom_site_fract_y
 _atom_site_fract_z
 _atom_site_occupancy
  Cr  Cr0  1  -0.00447567  -0.00252491  -0.00260377  1
  Cr  Cr1  1  0.16398667  0.16278330  0.16267612  1
  Fe  Fe2  1  0.99418112  0.99426005  0.32839649  1
  Cr  Cr3  1  0.99377346  0.32908488  0.99418649  1
  Cr  Cr4  1  0.16329825  0.49543095  0.16053877  1
  Cr  Cr5  1  0.99250862  0.32913917  0.32624840  1
  Fe  Fe6  1  0.99516601  0.66332920  0.99515333  1
  Cr  Cr7  1  0.16166756  0.82834543  0.16323942  1
  Fe  Fe8  1  0.99488396  0.66403960  0.32846533  1
  Fe  Fe9  1  0.32782310  -0.00375300  0.99241760  1
  Cr  Cr10  1  0.49397564  0.16397075  0.16106229  1
  Cr  Cr11  1  0.32918017  0.99309530  0.32876060  1
  Fe  Fe12  1  0.32958675  0.32812061  0.99267864  1
  Cr  Cr13  1  0.49673392  0.49514713  0.16271852  1
  Fe  Fe14  1  0.33153470  0.32985810  0.32967075  1
  Fe  Fe15  1  0.32847099  0.66215936  0.99268738  1
  Cr  Cr16  1  0.49621485  0.82729270  0.15842508  1
  Fe  Fe17  1  0.32944017  0.66092380  0.32972867  1
  Cr  Cr18  1  0.66082692  -0.00340248  0.99398467  1
  Fe  Fe19  1  0.82734526  0.16291451  0.16155127  1
  Cr  Cr20  1  0.66233872  -0.00346255  0.32806699  1
  Fe  Fe21  1  0.66199883  0.32863645  0.99404270  1
  Fe  Fe22  1  0.82751556  0.49736512  0.16161481  1
  Fe  Fe23  1  0.66079645  0.32955550  0.32941076  1
  Fe  Fe24  1  0.66283262  0.66062963  0.99493078  1
  Fe  Fe25  1  0.82892668  0.82661002  0.16258487  1
  Fe  Fe26  1  0.66270049  0.66104454  0.32809642  1
  Cr  Cr27  1  0.16431173  0.16330436  0.49412487  1
  Cr  Cr28  1  -0.00245344  -0.00294887  0.66242516  1
  Ni  Ni29  1  0.16616182  0.16330332  0.83020970  1
  Cr  Cr30  1  0.16440899  0.49409511  0.49533539  1
  Cr  Cr31  1  -0.00378572  0.32835015  0.66671943  1
  Fe  Fe32  1  0.16450596  0.49388616  0.83078923  1
  Fe  Fe33  1  0.16146948  0.82838072  0.49360881  1
  Cr  Cr34  1  -0.00090905  0.66110902  0.66305864  1
  Fe  Fe35  1  0.16229680  0.83069072  0.83136146  1
  Fe  Fe36  1  0.49523554  0.16455403  0.49505779  1
  Cr  Cr37  1  0.33069072  0.99485594  0.66407778  1
  Fe  Fe38  1  0.49579041  0.16329911  0.82984092  1
  Fe  Fe39  1  0.49518488  0.49293102  0.49323565  1
  Fe  Fe40  1  0.32932901  0.32841199  0.66450232  1
  Fe  Fe41  1  0.49386792  0.49296895  0.83108120  1
  Cr  Cr42  1  0.49707855  0.82864578  0.49582531  1
  Cr  Cr43  1  0.32909294  0.66166164  0.66289198  1
  Fe  Fe44  1  0.49388702  0.82996603  0.83061346  1
  Cr  Cr45  1  0.82836835  0.16091268  0.49778282  1
  Fe  Fe46  1  0.66092503  -0.00311010  0.66453765  1
  Ni  Ni47  1  0.82851888  0.16139336  0.82899683  1
  Cr  Cr48  1  0.82820820  0.49685686  0.49507062  1
  Cr  Cr49  1  0.66027763  0.32745031  0.66207671  1
  Cr  Cr50  1  0.82781252  0.49657749  0.82979762  1
  Cr  Cr51  1  0.82911309  0.82882603  0.49679322  1
  Cr  Cr52  1  0.65820170  0.66109996  0.66246514  1
  Cr  Cr53  1  0.82663290  0.82938874  0.82644056  1
" 