3892,Ni3Fe31Cr64_17,-212.38619069829, 190.317779560609,Ni3Fe31Cr64,"# generated using pymatgen
 data_Cr18Fe8Ni
_symmetry_space_group_name_H-M   'P 1'
_cell_length_a   7.55700235
_cell_length_b   7.55700235
_cell_length_c   10.68721522
_cell_angle_alpha   90.00000000
_cell_angle_beta   90.00000000
_cell_angle_gamma   90.00000000
_symmetry_Int_Tables_number   1
_chemical_formula_structural   Cr18Fe8Ni
_chemical_formula_sum   'Cr36 Fe16 Ni2'
_cell_volume   610.32852736
_cell_formula_units_Z   2
loop_
 _symmetry_equiv_pos_site_id
 _symmetry_equiv_pos_as_xyz
  1  'x, y, z'
loop_
 _atom_site_type_symbol
 _atom_site_label
 _atom_site_symmetry_multiplicity
 _atom_site_fract_x
 _atom_site_fract_y
 _atom_site_fract_z
 _atom_site_occupancy
  Fe  Fe0  1  -0.00486601  0.99374425  -0.00511837  1
  Cr  Cr1  1  0.15984733  0.15720434  0.16027823  1
  Ni  Ni2  1  0.99229919  0.99320715  0.32538019  1
  Cr  Cr3  1  -0.00539345  0.32716571  0.99072609  1
  Cr  Cr4  1  0.16263215  0.49652625  0.16064100  1
  Cr  Cr5  1  0.99238137  0.32673394  0.32869478  1
  Cr  Cr6  1  -0.00538390  0.66197078  -0.00476657  1
  Fe  Fe7  1  0.15988025  0.82824229  0.16040279  1
  Cr  Cr8  1  0.99347765  0.66273470  0.32642049  1
  Fe  Fe9  1  0.32621222  0.99365372  -0.00551884  1
  Fe  Fe10  1  0.49434784  0.16216821  0.16108706  1
  Cr  Cr11  1  0.32778164  0.99377384  0.32782916  1
  Cr  Cr12  1  0.32806407  0.32668460  0.99293708  1
  Ni  Ni13  1  0.49524379  0.49402752  0.16059710  1
  Cr  Cr14  1  0.33012181  0.32687534  0.32739407  1
  Fe  Fe15  1  0.32756432  0.66053562  -0.00507297  1
  Cr  Cr16  1  0.49255306  0.82639537  0.15932271  1
  Cr  Cr17  1  0.32793122  0.66149693  0.32668337  1
  Cr  Cr18  1  0.66006634  -0.00589912  -0.00564248  1
  Cr  Cr19  1  0.82676966  0.15940925  0.16307420  1
  Fe  Fe20  1  0.66207477  -0.00557870  0.32691098  1
  Cr  Cr21  1  0.65947258  0.32777176  -0.00229590  1
  Fe  Fe22  1  0.82521655  0.49443090  0.16108511  1
  Fe  Fe23  1  0.66025022  0.32704775  0.32569119  1
  Cr  Cr24  1  0.66054678  0.66027408  -0.00543564  1
  Fe  Fe25  1  0.82868333  0.82775335  0.16158408  1
  Cr  Cr26  1  0.66073389  0.66039176  0.32705413  1
  Cr  Cr27  1  0.16060549  0.16023849  0.49477941  1
  Cr  Cr28  1  -0.00572256  -0.00487356  0.66164496  1
  Fe  Fe29  1  0.16154077  0.16070252  0.82739214  1
  Cr  Cr30  1  0.16169273  0.49368053  0.49497148  1
  Cr  Cr31  1  -0.00350321  0.32749953  0.66272492  1
  Fe  Fe32  1  0.16151685  0.49328694  0.82737015  1
  Cr  Cr33  1  0.16139909  0.82822620  0.49132986  1
  Cr  Cr34  1  0.99316453  0.65951987  0.66049858  1
  Cr  Cr35  1  0.16183617  0.82845255  0.83124410  1
  Cr  Cr36  1  0.49471572  0.15942778  0.49351691  1
  Fe  Fe37  1  0.32812229  -0.00508079  0.66065845  1
  Cr  Cr38  1  0.49216657  0.15988231  0.82706718  1
  Cr  Cr39  1  0.49393704  0.49480213  0.49433927  1
  Fe  Fe40  1  0.32644650  0.32657803  0.66151919  1
  Cr  Cr41  1  0.49245650  0.49511146  0.82744319  1
  Fe  Fe42  1  0.49485617  0.82817797  0.49489672  1
  Cr  Cr43  1  0.32886312  0.66116552  0.65956645  1
  Cr  Cr44  1  0.49358887  0.82714994  0.82511568  1
  Cr  Cr45  1  0.82682958  0.15914370  0.49188815  1
  Fe  Fe46  1  0.65956531  0.99277050  0.66042372  1
  Cr  Cr47  1  0.82891389  0.15964564  0.82718955  1
  Cr  Cr48  1  0.82651667  0.49400066  0.49363272  1
  Cr  Cr49  1  0.66009130  0.32693505  0.66123060  1
  Cr  Cr50  1  0.82760440  0.49434007  0.82660437  1
  Cr  Cr51  1  0.82570762  0.82899882  0.49458042  1
  Fe  Fe52  1  0.66046535  0.66192251  0.66031505  1
  Cr  Cr53  1  0.82672015  0.82815964  0.82671934  1
" 