1931,Ni3Fe90Cr6_12,-222.941219986528, 129.238394378545,Ni3Fe90Cr6,"# generated using pymatgen
 data_Cr5Fe48Ni
_symmetry_space_group_name_H-M   'P 1'
_cell_length_a   7.45249592
_cell_length_b   7.45249592
_cell_length_c   10.53942080
_cell_angle_alpha   90.00000000
_cell_angle_beta   90.00000000
_cell_angle_gamma   90.00000000
_symmetry_Int_Tables_number   1
_chemical_formula_structural   Cr5Fe48Ni
_chemical_formula_sum   'Cr5 Fe48 Ni1'
_cell_volume   585.35622121
_cell_formula_units_Z   1
loop_
 _symmetry_equiv_pos_site_id
 _symmetry_equiv_pos_as_xyz
  1  'x, y, z'
loop_
 _atom_site_type_symbol
 _atom_site_label
 _atom_site_symmetry_multiplicity
 _atom_site_fract_x
 _atom_site_fract_y
 _atom_site_fract_z
 _atom_site_occupancy
  Fe  Fe0  1  0.00115669  1.00075545  1.00088745  1
  Fe  Fe1  1  0.16807657  0.16728440  0.16805471  1
  Fe  Fe2  1  0.00150264  0.00126563  0.33435771  1
  Fe  Fe3  1  0.00117326  0.33454916  1.00073729  1
  Fe  Fe4  1  0.16678707  0.50015833  0.16839254  1
  Fe  Fe5  1  0.00320090  0.33364081  0.33460047  1
  Fe  Fe6  1  0.99940030  0.66762320  1.00095280  1
  Fe  Fe7  1  0.16722499  0.83548258  0.16881773  1
  Fe  Fe8  1  0.00140215  0.66802170  0.33431083  1
  Fe  Fe9  1  0.33430991  0.00256216  0.00162176  1
  Fe  Fe10  1  0.49976859  0.16646165  0.16745682  1
  Ni  Ni11  1  0.33262349  0.99848677  0.33257654  1
  Fe  Fe12  1  0.33433416  0.33280619  1.00088745  1
  Fe  Fe13  1  0.50103381  0.50095627  0.16759816  1
  Fe  Fe14  1  0.33192979  0.33434816  0.33353191  1
  Cr  Cr15  1  0.33387551  0.66923473  0.00169726  1
  Fe  Fe16  1  0.50141308  0.83550903  0.16886827  1
  Fe  Fe17  1  0.33457557  0.66816695  0.33408917  1
  Fe  Fe18  1  0.66746206  1.00078012  1.00091332  1
  Fe  Fe19  1  0.83508551  0.16690779  0.16680292  1
  Fe  Fe20  1  0.66766014  0.99861226  0.33353367  1
  Fe  Fe21  1  0.66742184  0.33454851  1.00095326  1
  Fe  Fe22  1  0.83511216  0.50180253  0.16682138  1
  Cr  Cr23  1  0.66985764  0.33508454  0.33417437  1
  Fe  Fe24  1  0.66921327  0.66759896  0.00097834  1
  Fe  Fe25  1  0.83428400  0.83421965  0.16757860  1
  Fe  Fe26  1  0.66694998  0.66985927  0.33433274  1
  Fe  Fe27  1  0.16722513  0.16649866  0.49978134  1
  Fe  Fe28  1  1.00067366  0.99963924  0.66768332  1
  Fe  Fe29  1  0.16848831  0.16687195  0.83507766  1
  Fe  Fe30  1  0.16862062  0.50148629  0.50024023  1
  Cr  Cr31  1  1.00060474  0.33351497  0.66627879  1
  Fe  Fe32  1  0.16764738  0.50095711  0.83429202  1
  Fe  Fe33  1  0.16824600  0.83493604  0.50061421  1
  Fe  Fe34  1  1.00076162  0.66899725  0.66766518  1
  Fe  Fe35  1  0.16682816  0.83510217  0.83349291  1
  Cr  Cr36  1  0.49902926  0.16626910  0.50128794  1
  Fe  Fe37  1  0.33349775  1.00062102  0.66783114  1
  Fe  Fe38  1  0.50014495  0.16686159  0.83487252  1
  Fe  Fe39  1  0.49944448  0.50414311  0.50105933  1
  Fe  Fe40  1  0.33352028  0.33520250  0.66851290  1
  Fe  Fe41  1  0.50095708  0.50094790  0.83428123  1
  Fe  Fe42  1  0.50063523  0.83309210  0.50058654  1
  Fe  Fe43  1  0.33433351  0.66710245  0.66792524  1
  Fe  Fe44  1  0.50178966  0.83512451  0.83346871  1
  Fe  Fe45  1  0.83669880  0.16529499  0.50023232  1
  Fe  Fe46  1  0.66875137  0.99883448  0.66848400  1
  Fe  Fe47  1  0.83429502  0.16604036  0.83588775  1
  Fe  Fe48  1  0.83487535  0.50315408  0.50017016  1
  Cr  Cr49  1  0.66830847  0.33494219  0.66856636  1
  Fe  Fe50  1  0.83432201  0.50260317  0.83593330  1
  Fe  Fe51  1  0.83404302  0.83448380  0.50106495  1
  Fe  Fe52  1  0.66783336  0.66898958  0.66761720  1
  Fe  Fe53  1  0.83430970  0.83428255  0.83428527  1
" 