7466,Ni3Fe40Cr55_3,-215.28050028236, 185.891856739553,Ni3Fe40Cr55,"# generated using pymatgen
 data_Cr31Fe22Ni
_symmetry_space_group_name_H-M   'P 1'
_cell_length_a   7.55789285
_cell_length_b   7.55789285
_cell_length_c   10.68847457
_cell_angle_alpha   90.00000000
_cell_angle_beta   90.00000000
_cell_angle_gamma   90.00000000
_symmetry_Int_Tables_number   1
_chemical_formula_structural   Cr31Fe22Ni
_chemical_formula_sum   'Cr31 Fe22 Ni1'
_cell_volume   610.54431211
_cell_formula_units_Z   1
loop_
 _symmetry_equiv_pos_site_id
 _symmetry_equiv_pos_as_xyz
  1  'x, y, z'
loop_
 _atom_site_type_symbol
 _atom_site_label
 _atom_site_symmetry_multiplicity
 _atom_site_fract_x
 _atom_site_fract_y
 _atom_site_fract_z
 _atom_site_occupancy
  Fe  Fe0  1  0.99395919  -0.00515810  0.99396433  1
  Fe  Fe1  1  0.16054591  0.16248696  0.16150780  1
  Fe  Fe2  1  0.99345477  -0.00466109  0.32693348  1
  Cr  Cr3  1  -0.00596911  0.32921653  -0.00470563  1
  Ni  Ni4  1  0.16324958  0.49180176  0.16181062  1
  Fe  Fe5  1  -0.00411644  0.32736851  0.32542434  1
  Cr  Cr6  1  -0.00508274  0.65769942  -0.00589782  1
  Cr  Cr7  1  0.16002981  0.82794815  0.16001576  1
  Cr  Cr8  1  0.99370843  0.65774316  0.32679422  1
  Cr  Cr9  1  0.32895278  0.99348983  -0.00572299  1
  Fe  Fe10  1  0.49259423  0.16103431  0.16151572  1
  Cr  Cr11  1  0.32890493  -0.00530214  0.32660458  1
  Cr  Cr12  1  0.32557909  0.32694753  -0.00316497  1
  Fe  Fe13  1  0.49256512  0.49450459  0.16193542  1
  Fe  Fe14  1  0.32583822  0.32881831  0.32500441  1
  Cr  Cr15  1  0.32625465  0.66153395  0.99391188  1
  Fe  Fe16  1  0.49392767  0.82643445  0.16203197  1
  Fe  Fe17  1  0.32811051  0.65875205  0.32542587  1
  Cr  Cr18  1  0.65852775  -0.00562744  0.99294200  1
  Cr  Cr19  1  0.82863439  0.15941060  0.16001832  1
  Fe  Fe20  1  0.66075290  0.99307289  0.32648547  1
  Cr  Cr21  1  0.66236170  0.32651675  0.99385372  1
  Fe  Fe22  1  0.82853456  0.49407111  0.16151983  1
  Cr  Cr23  1  0.66122617  0.32766127  0.32616291  1
  Cr  Cr24  1  0.66079640  0.66108072  -0.00397235  1
  Cr  Cr25  1  0.82676575  0.82802156  0.16171975  1
  Fe  Fe26  1  0.65930774  0.66118227  0.32600020  1
  Cr  Cr27  1  0.15949041  0.16123024  0.49228124  1
  Fe  Fe28  1  0.99356657  -0.00558386  0.66107027  1
  Cr  Cr29  1  0.15874571  0.16052110  0.82798372  1
  Cr  Cr30  1  0.16312657  0.49327454  0.49599627  1
  Fe  Fe31  1  0.99399000  0.32713918  0.66158247  1
  Fe  Fe32  1  0.16066187  0.49397846  0.82610048  1
  Cr  Cr33  1  0.15894190  0.82746627  0.49479343  1
  Fe  Fe34  1  -0.00559352  0.66041455  0.66106594  1
  Cr  Cr35  1  0.15945374  0.82697400  0.82715691  1
  Cr  Cr36  1  0.49373800  0.16364266  0.49388512  1
  Cr  Cr37  1  0.32833590  0.99277679  0.66108816  1
  Cr  Cr38  1  0.49494779  0.16290177  0.82684919  1
  Cr  Cr39  1  0.49316719  0.49393126  0.49526093  1
  Fe  Fe40  1  0.32697564  0.32850330  0.66115640  1
  Cr  Cr41  1  0.49313443  0.49396811  0.82427905  1
  Cr  Cr42  1  0.49494536  0.82439500  0.49299869  1
  Fe  Fe43  1  0.32741343  0.65989685  0.66159075  1
  Fe  Fe44  1  0.49399302  0.82645215  0.82638709  1
  Cr  Cr45  1  0.82874365  0.15945318  0.49502871  1
  Cr  Cr46  1  0.65997986  -0.00514484  0.66110205  1
  Fe  Fe47  1  0.82819538  0.16065820  0.82648064  1
  Cr  Cr48  1  0.82567539  0.49447828  0.49470852  1
  Fe  Fe49  1  0.66099982  0.32766971  0.66106084  1
  Cr  Cr50  1  0.82640823  0.49325808  0.82602616  1
  Cr  Cr51  1  0.82808206  0.82804064  0.49245782  1
  Fe  Fe52  1  0.66014704  0.66033120  0.66116031  1
  Cr  Cr53  1  0.82878282  0.82878752  0.82779225  1
" 