6049,Ni3Fe65Cr31_5,-220.347364051781, 157.441647130107,Ni3Fe65Cr31,"# generated using pymatgen
 data_Cr18Fe35Ni
_symmetry_space_group_name_H-M   'P 1'
_cell_length_a   7.50167273
_cell_length_b   7.50167273
_cell_length_c   10.60896732
_cell_angle_alpha   90.00000000
_cell_angle_beta   90.00000000
_cell_angle_gamma   90.00000000
_symmetry_Int_Tables_number   1
_chemical_formula_structural   Cr18Fe35Ni
_chemical_formula_sum   'Cr18 Fe35 Ni1'
_cell_volume   597.02063126
_cell_formula_units_Z   1
loop_
 _symmetry_equiv_pos_site_id
 _symmetry_equiv_pos_as_xyz
  1  'x, y, z'
loop_
 _atom_site_type_symbol
 _atom_site_label
 _atom_site_symmetry_multiplicity
 _atom_site_fract_x
 _atom_site_fract_y
 _atom_site_fract_z
 _atom_site_occupancy
  Cr  Cr0  1  -0.00166079  0.99688591  0.99651280  1
  Cr  Cr1  1  0.16592259  0.16272763  0.16235559  1
  Fe  Fe2  1  -0.00144815  0.99694776  0.33073640  1
  Cr  Cr3  1  -0.00065484  0.33196321  0.99660893  1
  Fe  Fe4  1  0.16586266  0.50124548  0.16334984  1
  Cr  Cr5  1  0.99686620  0.33094691  0.33161091  1
  Fe  Fe6  1  -0.00175472  0.66458453  0.99706693  1
  Fe  Fe7  1  0.16626561  0.82865692  0.16481180  1
  Fe  Fe8  1  0.00087770  0.66472665  0.33158509  1
  Fe  Fe9  1  0.33428107  0.99722499  0.99713849  1
  Fe  Fe10  1  0.50062050  0.16355386  0.16365336  1
  Fe  Fe11  1  0.33214075  0.99550934  0.33121108  1
  Fe  Fe12  1  0.33330903  0.32996806  -0.00110025  1
  Fe  Fe13  1  0.49653421  0.49813124  0.16254578  1
  Cr  Cr14  1  0.33211220  0.33230386  0.32959473  1
  Fe  Fe15  1  0.33149163  0.66596940  -0.00098304  1
  Fe  Fe16  1  0.49593483  0.83158770  0.16296804  1
  Fe  Fe17  1  0.32921020  0.66571359  0.33099263  1
  Fe  Fe18  1  0.66130006  0.99755343  0.99670982  1
  Fe  Fe19  1  0.82794246  0.16389018  0.16453692  1
  Fe  Fe20  1  0.66275343  0.00080028  0.33111095  1
  Fe  Fe21  1  0.66263892  0.32948563  -0.00193316  1
  Cr  Cr22  1  0.82913733  0.49792000  0.16282649  1
  Fe  Fe23  1  0.66356902  0.32920802  0.33198892  1
  Fe  Fe24  1  0.66351004  0.66608883  0.99646482  1
  Cr  Cr25  1  0.83108632  0.83210639  0.16337975  1
  Cr  Cr26  1  0.66133881  0.66450093  0.33403644  1
  Cr  Cr27  1  0.16422473  0.16282030  0.50314059  1
  Fe  Fe28  1  -0.00227680  -0.00163655  0.66496819  1
  Fe  Fe29  1  0.16868487  0.16378378  0.82937455  1
  Fe  Fe30  1  0.16521537  0.49965637  0.49853253  1
  Fe  Fe31  1  0.99749345  0.33066711  0.66399850  1
  Cr  Cr32  1  0.16585606  0.49514631  0.83084372  1
  Fe  Fe33  1  0.16652084  0.83017000  0.49735478  1
  Cr  Cr34  1  0.99698875  0.66317721  0.66498566  1
  Cr  Cr35  1  0.16577671  0.83269832  0.82979728  1
  Fe  Fe36  1  0.49813775  0.16309085  0.49658419  1
  Fe  Fe37  1  0.33234398  0.99647707  0.66517986  1
  Fe  Fe38  1  0.49465631  0.16262153  0.83214910  1
  Fe  Fe39  1  0.49560687  0.49783565  0.49804800  1
  Fe  Fe40  1  0.33139317  0.33101556  0.66367689  1
  Cr  Cr41  1  0.49767357  0.49793608  0.83267758  1
  Fe  Fe42  1  0.49378490  0.83221765  0.49810079  1
  Fe  Fe43  1  0.33271720  0.66572517  0.66311972  1
  Ni  Ni44  1  0.49767627  0.83191500  0.83281779  1
  Fe  Fe45  1  0.83015928  0.16447697  0.49723501  1
  Cr  Cr46  1  0.66152535  0.99595704  0.66577807  1
  Cr  Cr47  1  0.83188974  0.16420397  0.83013589  1
  Fe  Fe48  1  0.83195167  0.49625636  0.49696136  1
  Cr  Cr49  1  0.66421035  0.33166286  0.66093198  1
  Fe  Fe50  1  0.83012128  0.49966258  0.83283242  1
  Cr  Cr51  1  0.83206453  0.83298439  0.49707548  1
  Cr  Cr52  1  0.66297269  0.66550442  0.66638497  1
  Fe  Fe53  1  0.82882140  0.82915061  0.83291244  1
" 