4190,Ni3Fe31Cr64_16,-212.263150665422, 190.43516435055,Ni3Fe31Cr64,"# generated using pymatgen
 data_Cr18Fe8Ni
_symmetry_space_group_name_H-M   'P 1'
_cell_length_a   7.55994803
_cell_length_b   7.55994803
_cell_length_c   10.69138103
_cell_angle_alpha   90.00000000
_cell_angle_beta   90.00000000
_cell_angle_gamma   90.00000000
_symmetry_Int_Tables_number   1
_chemical_formula_structural   Cr18Fe8Ni
_chemical_formula_sum   'Cr36 Fe16 Ni2'
_cell_volume   611.04251319
_cell_formula_units_Z   2
loop_
 _symmetry_equiv_pos_site_id
 _symmetry_equiv_pos_as_xyz
  1  'x, y, z'
loop_
 _atom_site_type_symbol
 _atom_site_label
 _atom_site_symmetry_multiplicity
 _atom_site_fract_x
 _atom_site_fract_y
 _atom_site_fract_z
 _atom_site_occupancy
  Fe  Fe0  1  -0.00570022  0.99348344  -0.00574452  1
  Cr  Cr1  1  0.16260333  0.16031803  0.16062733  1
  Cr  Cr2  1  0.99351716  -0.00534025  0.32580001  1
  Cr  Cr3  1  -0.00523178  0.32606202  -0.00578131  1
  Cr  Cr4  1  0.15968780  0.49296094  0.16108607  1
  Cr  Cr5  1  0.99314680  0.32730198  0.32726302  1
  Fe  Fe6  1  0.99193800  0.66036160  -0.00518945  1
  Cr  Cr7  1  0.15904609  0.82828693  0.16062473  1
  Cr  Cr8  1  0.99357439  0.65960513  0.32737358  1
  Fe  Fe9  1  0.32597524  -0.00476898  0.99333933  1
  Cr  Cr10  1  0.49186552  0.16181262  0.16258525  1
  Fe  Fe11  1  0.32719142  -0.00424704  0.32723469  1
  Fe  Fe12  1  0.32727936  0.32707661  0.99356552  1
  Fe  Fe13  1  0.49459823  0.49291701  0.16070119  1
  Ni  Ni14  1  0.32781590  0.32673081  0.32610509  1
  Cr  Cr15  1  0.32804682  0.65825854  0.99170682  1
  Cr  Cr16  1  0.49457861  0.82763542  0.16095118  1
  Cr  Cr17  1  0.32752353  0.65965321  0.32859746  1
  Cr  Cr18  1  0.66270499  0.99329553  -0.00512317  1
  Fe  Fe19  1  0.82769125  0.16108250  0.16005191  1
  Cr  Cr20  1  0.66085834  -0.00534703  0.32705616  1
  Cr  Cr21  1  0.65991467  0.32872836  -0.00345270  1
  Ni  Ni22  1  0.82593808  0.49554481  0.15994924  1
  Cr  Cr23  1  0.66090456  0.32763099  0.32525161  1
  Fe  Fe24  1  0.66194127  0.65905777  -0.00478260  1
  Fe  Fe25  1  0.82768664  0.82580787  0.15926115  1
  Cr  Cr26  1  0.66046597  0.65928316  0.32536360  1
  Cr  Cr27  1  0.16240631  0.16213141  0.49287247  1
  Cr  Cr28  1  -0.00612022  -0.00342803  0.66159048  1
  Fe  Fe29  1  0.16084487  0.16168805  0.82763228  1
  Cr  Cr30  1  0.15894583  0.49246646  0.49383058  1
  Fe  Fe31  1  -0.00576576  0.32762270  0.66096918  1
  Fe  Fe32  1  0.16135275  0.49219355  0.82718717  1
  Cr  Cr33  1  0.16115192  0.82697291  0.49146831  1
  Cr  Cr34  1  -0.00478388  0.65792893  0.65909506  1
  Cr  Cr35  1  0.15952745  0.82741710  0.82946905  1
  Cr  Cr36  1  0.49281586  0.16130180  0.49292760  1
  Cr  Cr37  1  0.32694873  -0.00572024  0.66047487  1
  Cr  Cr38  1  0.49156263  0.16269065  0.82605358  1
  Cr  Cr39  1  0.49459772  0.49162383  0.49388554  1
  Fe  Fe40  1  0.32678146  0.32760683  0.66122512  1
  Fe  Fe41  1  0.49312210  0.49308594  0.82710041  1
  Cr  Cr42  1  0.49322488  0.82864378  0.49314559  1
  Cr  Cr43  1  0.32727848  0.65854564  0.66126741  1
  Cr  Cr44  1  0.49420601  0.82676812  0.82746509  1
  Cr  Cr45  1  0.82634533  0.16351235  0.49604150  1
  Cr  Cr46  1  0.66073762  -0.00457418  0.65964230  1
  Cr  Cr47  1  0.82814465  0.16144148  0.82543607  1
  Fe  Fe48  1  0.82717676  0.49302251  0.49424595  1
  Fe  Fe49  1  0.66054950  0.32803222  0.66056740  1
  Cr  Cr50  1  0.82749748  0.49443715  0.82504171  1
  Cr  Cr51  1  0.82719130  0.82517644  0.49463911  1
  Cr  Cr52  1  0.65907138  0.65874860  0.66040773  1
  Cr  Cr53  1  0.82783738  0.82568255  0.83010777  1
" 