832,Ni3Fe10Cr85_3,-204.81573686795, 200.892009368399,Ni3Fe10Cr85,"# generated using pymatgen
 data_Cr47Fe5Ni2
_symmetry_space_group_name_H-M   'P 1'
_cell_length_a   7.58774742
_cell_length_b   7.58774742
_cell_length_c   10.73069531
_cell_angle_alpha   90.00000000
_cell_angle_beta   90.00000000
_cell_angle_gamma   90.00000000
_symmetry_Int_Tables_number   1
_chemical_formula_structural   Cr47Fe5Ni2
_chemical_formula_sum   'Cr47 Fe5 Ni2'
_cell_volume   617.80809635
_cell_formula_units_Z   1
loop_
 _symmetry_equiv_pos_site_id
 _symmetry_equiv_pos_as_xyz
  1  'x, y, z'
loop_
 _atom_site_type_symbol
 _atom_site_label
 _atom_site_symmetry_multiplicity
 _atom_site_fract_x
 _atom_site_fract_y
 _atom_site_fract_z
 _atom_site_occupancy
  Cr  Cr0  1  -0.00769680  0.99176596  0.99199328  1
  Cr  Cr1  1  0.16012438  0.15727873  0.15695956  1
  Cr  Cr2  1  -0.00716276  0.99155380  0.32716086  1
  Cr  Cr3  1  0.99195493  0.32525877  -0.00771395  1
  Cr  Cr4  1  0.15969492  0.49249309  0.15826382  1
  Cr  Cr5  1  0.99199420  0.32496586  0.32402616  1
  Cr  Cr6  1  -0.00732367  0.65905207  -0.00678378  1
  Cr  Cr7  1  0.15969945  0.82635509  0.15830184  1
  Cr  Cr8  1  -0.00636656  0.65960005  0.32502359  1
  Fe  Fe9  1  0.32494151  0.99086242  0.99059535  1
  Cr  Cr10  1  0.49098553  0.15801876  0.15931425  1
  Cr  Cr11  1  0.32420463  0.99153321  0.32593098  1
  Cr  Cr12  1  0.32509382  0.32483209  -0.00759924  1
  Cr  Cr13  1  0.49208958  0.49244315  0.16060500  1
  Cr  Cr14  1  0.32519503  0.32495127  0.32563888  1
  Cr  Cr15  1  0.32487267  0.66047858  0.98957340  1
  Cr  Cr16  1  0.49129175  0.82574407  0.15696572  1
  Cr  Cr17  1  0.32326406  0.65965557  0.32807161  1
  Cr  Cr18  1  0.65773104  0.99194987  0.99107731  1
  Cr  Cr19  1  0.82503761  0.15805088  0.15954317  1
  Cr  Cr20  1  0.65920505  -0.00646059  0.32543528  1
  Cr  Cr21  1  0.65908589  0.32442746  -0.00730931  1
  Cr  Cr22  1  0.82445090  0.49296859  0.15870396  1
  Fe  Fe23  1  0.65963777  0.32519469  0.32555823  1
  Cr  Cr24  1  0.65845060  0.65977970  0.99000235  1
  Cr  Cr25  1  0.82514023  0.82522537  0.15937553  1
  Cr  Cr26  1  0.65923444  0.65896464  0.32546254  1
  Cr  Cr27  1  0.15739780  0.15732092  0.49444369  1
  Fe  Fe28  1  -0.00626099  0.99182184  0.65824741  1
  Cr  Cr29  1  0.15808501  0.15708197  0.82476626  1
  Cr  Cr30  1  0.15796609  0.49222495  0.49298453  1
  Ni  Ni31  1  -0.00753977  0.32376143  0.65915638  1
  Cr  Cr32  1  0.15788600  0.49142840  0.82463720  1
  Ni  Ni33  1  0.15755291  0.82679940  0.49439457  1
  Cr  Cr34  1  -0.00632903  0.65956920  0.65796030  1
  Fe  Fe35  1  0.15890816  0.82620396  0.82474143  1
  Cr  Cr36  1  0.49228800  0.15923921  0.49027402  1
  Cr  Cr37  1  0.32492371  0.99016748  0.65926771  1
  Cr  Cr38  1  0.49020696  0.15692052  0.82675625  1
  Cr  Cr39  1  0.49283827  0.49180935  0.49109721  1
  Cr  Cr40  1  0.32421099  0.32525992  0.65799335  1
  Cr  Cr41  1  0.49145022  0.49307559  0.82458258  1
  Cr  Cr42  1  0.49140982  0.82522851  0.49205641  1
  Cr  Cr43  1  0.32459821  0.66058156  0.65814029  1
  Fe  Fe44  1  0.49006548  0.82638059  0.82562258  1
  Cr  Cr45  1  0.82672183  0.15872284  0.49433934  1
  Cr  Cr46  1  0.65844365  0.99149978  0.65915871  1
  Cr  Cr47  1  0.82783245  0.15812182  0.82253832  1
  Cr  Cr48  1  0.82543412  0.49155709  0.49282280  1
  Cr  Cr49  1  0.65930811  0.32443378  0.65842980  1
  Cr  Cr50  1  0.82679356  0.49206620  0.82455332  1
  Cr  Cr51  1  0.82729842  0.82598686  0.49219821  1
  Cr  Cr52  1  0.65773461  0.66026588  0.66031928  1
  Cr  Cr53  1  0.82645082  0.82603340  0.82484725  1
" 