1418,Ni3Fe40Cr55_11,-214.965542870719, 186.214742737888,Ni3Fe40Cr55,"# generated using pymatgen
 data_Cr31Fe22Ni
_symmetry_space_group_name_H-M   'P 1'
_cell_length_a   7.54544542
_cell_length_b   7.54544542
_cell_length_c   10.67087124
_cell_angle_alpha   90.00000000
_cell_angle_beta   90.00000000
_cell_angle_gamma   90.00000000
_symmetry_Int_Tables_number   1
_chemical_formula_structural   Cr31Fe22Ni
_chemical_formula_sum   'Cr31 Fe22 Ni1'
_cell_volume   607.53267902
_cell_formula_units_Z   1
loop_
 _symmetry_equiv_pos_site_id
 _symmetry_equiv_pos_as_xyz
  1  'x, y, z'
loop_
 _atom_site_type_symbol
 _atom_site_label
 _atom_site_symmetry_multiplicity
 _atom_site_fract_x
 _atom_site_fract_y
 _atom_site_fract_z
 _atom_site_occupancy
  Fe  Fe0  1  0.99421849  -0.00389519  0.99393711  1
  Cr  Cr1  1  0.15981564  0.16212008  0.15971053  1
  Cr  Cr2  1  -0.00371495  0.99303660  0.32799492  1
  Fe  Fe3  1  -0.00436894  0.32721640  0.99430967  1
  Cr  Cr4  1  0.16236002  0.49614872  0.16043334  1
  Cr  Cr5  1  -0.00476443  0.32883773  0.33200307  1
  Cr  Cr6  1  0.99277016  0.66548248  -0.00327822  1
  Fe  Fe7  1  0.16237176  0.82879280  0.16153501  1
  Cr  Cr8  1  0.99442856  0.66265381  0.32770682  1
  Cr  Cr9  1  0.32655190  -0.00413279  0.99409029  1
  Fe  Fe10  1  0.49538730  0.16073105  0.16309523  1
  Fe  Fe11  1  0.32709792  -0.00447920  0.32775668  1
  Cr  Cr12  1  0.32963872  0.32813133  0.99338475  1
  Fe  Fe13  1  0.49455444  0.49540583  0.16184178  1
  Cr  Cr14  1  0.33117473  0.32799909  0.32721490  1
  Fe  Fe15  1  0.32924400  0.66198107  -0.00437685  1
  Cr  Cr16  1  0.49213416  0.82896315  0.16337381  1
  Fe  Fe17  1  0.32838262  0.66033638  0.32767216  1
  Fe  Fe18  1  0.66153210  0.99350208  0.99437806  1
  Cr  Cr19  1  0.82671637  0.16205520  0.16304918  1
  Fe  Fe20  1  0.66139840  -0.00445115  0.32803332  1
  Cr  Cr21  1  0.65797162  0.33006756  -0.00185306  1
  Cr  Cr22  1  0.82924658  0.49213818  0.16095050  1
  Fe  Fe23  1  0.66214182  0.32797331  0.32875155  1
  Fe  Fe24  1  0.65930284  0.66288085  -0.00491254  1
  Cr  Cr25  1  0.82589692  0.83054328  0.15908646  1
  Cr  Cr26  1  0.66245585  0.65807567  0.32827705  1
  Ni  Ni27  1  0.16020592  0.16445031  0.49650323  1
  Cr  Cr28  1  -0.00392983  0.99307197  0.66265091  1
  Fe  Fe29  1  0.15970574  0.16236517  0.82841179  1
  Fe  Fe30  1  0.16234901  0.49405872  0.49618260  1
  Fe  Fe31  1  0.99474856  0.32729754  0.65858171  1
  Cr  Cr32  1  0.15954402  0.49326776  0.82725492  1
  Cr  Cr33  1  0.16461186  0.82671477  0.49204375  1
  Fe  Fe34  1  0.99470522  0.66001949  0.66015010  1
  Cr  Cr35  1  0.16300886  0.82597489  0.82896323  1
  Cr  Cr36  1  0.49599508  0.15886694  0.49116445  1
  Cr  Cr37  1  0.32580783  -0.00213382  0.66124547  1
  Cr  Cr38  1  0.49669266  0.16007734  0.82903581  1
  Fe  Fe39  1  0.49283407  0.49566429  0.49478360  1
  Cr  Cr40  1  0.32802294  0.32747864  0.66254061  1
  Cr  Cr41  1  0.49460837  0.49837934  0.82818228  1
  Cr  Cr42  1  0.49352630  0.82723976  0.49593479  1
  Fe  Fe43  1  0.32765633  0.66065070  0.65998009  1
  Cr  Cr44  1  0.49618220  0.82659021  0.82565080  1
  Fe  Fe45  1  0.82985603  0.16134818  0.49477624  1
  Cr  Cr46  1  0.66324847  0.99413911  0.66307582  1
  Cr  Cr47  1  0.83025701  0.16293929  0.83042299  1
  Fe  Fe48  1  0.82933201  0.49396545  0.49596226  1
  Cr  Cr49  1  0.66007672  0.33008941  0.65736237  1
  Cr  Cr50  1  0.82947997  0.49419095  0.82798891  1
  Cr  Cr51  1  0.82650778  0.82773464  0.49681209  1
  Fe  Fe52  1  0.66236829  0.66023771  0.66045208  1
  Fe  Fe53  1  0.82812171  0.82667470  0.82918931  1
" 