6371,Ni3Fe40Cr55_17,-214.878654569184, 176.776108142273,Ni3Fe40Cr55,"# generated using pymatgen
 data_Cr31Fe22Ni
_symmetry_space_group_name_H-M   'P 1'
_cell_length_a   7.54520766
_cell_length_b   7.54520766
_cell_length_c   10.67053500
_cell_angle_alpha   90.00000000
_cell_angle_beta   90.00000000
_cell_angle_gamma   90.00000000
_symmetry_Int_Tables_number   1
_chemical_formula_structural   Cr31Fe22Ni
_chemical_formula_sum   'Cr31 Fe22 Ni1'
_cell_volume   607.47524966
_cell_formula_units_Z   1
loop_
 _symmetry_equiv_pos_site_id
 _symmetry_equiv_pos_as_xyz
  1  'x, y, z'
loop_
 _atom_site_type_symbol
 _atom_site_label
 _atom_site_symmetry_multiplicity
 _atom_site_fract_x
 _atom_site_fract_y
 _atom_site_fract_z
 _atom_site_occupancy
  Cr  Cr0  1  -0.00182577  0.99418506  0.99413010  1
  Fe  Fe1  1  0.16369456  0.16081206  0.16297804  1
  Cr  Cr2  1  -0.00152063  0.99437224  0.33007010  1
  Cr  Cr3  1  -0.00456092  0.32725928  -0.00358136  1
  Cr  Cr4  1  0.16147477  0.49500193  0.16027030  1
  Cr  Cr5  1  -0.00397057  0.32668199  0.32705159  1
  Cr  Cr6  1  -0.00407243  0.66312262  -0.00394735  1
  Fe  Fe7  1  0.16258763  0.82950381  0.16172014  1
  Cr  Cr8  1  -0.00486655  0.66353535  0.32786415  1
  Cr  Cr9  1  0.32662833  0.99333900  0.99428299  1
  Cr  Cr10  1  0.49347957  0.15998619  0.16281127  1
  Fe  Fe11  1  0.32613067  -0.00336914  0.32832309  1
  Cr  Cr12  1  0.32808144  0.32609857  0.99231045  1
  Cr  Cr13  1  0.49208765  0.49472706  0.16297996  1
  Ni  Ni14  1  0.32704641  0.32621263  0.33067180  1
  Fe  Fe15  1  0.32767810  0.66289842  0.99421372  1
  Cr  Cr16  1  0.49277866  0.82973786  0.16134396  1
  Cr  Cr17  1  0.32778841  0.66267195  0.32806531  1
  Cr  Cr18  1  0.65956485  0.99401916  0.99145457  1
  Cr  Cr19  1  0.82847728  0.16111586  0.16144334  1
  Cr  Cr20  1  0.66217823  0.99428181  0.32948673  1
  Cr  Cr21  1  0.66085632  0.32903305  -0.00434784  1
  Fe  Fe22  1  0.82778104  0.49518818  0.16174323  1
  Cr  Cr23  1  0.66030195  0.32978791  0.32840673  1
  Cr  Cr24  1  0.66034706  0.66139219  -0.00474478  1
  Cr  Cr25  1  0.82820432  0.82905169  0.16148281  1
  Cr  Cr26  1  0.66139868  0.66042792  0.32915499  1
  Fe  Fe27  1  0.16272476  0.16038216  0.49509062  1
  Fe  Fe28  1  -0.00457387  0.99317990  0.66086740  1
  Fe  Fe29  1  0.16282332  0.16026935  0.82637690  1
  Cr  Cr30  1  0.16340599  0.49485748  0.49684074  1
  Cr  Cr31  1  -0.00369422  0.32578257  0.66132349  1
  Cr  Cr32  1  0.16201338  0.49630728  0.82715999  1
  Fe  Fe33  1  0.16142551  0.82944871  0.49673752  1
  Fe  Fe34  1  0.99472709  0.66425614  0.66150034  1
  Fe  Fe35  1  0.16183563  0.82838837  0.82624921  1
  Cr  Cr36  1  0.49348380  0.16069141  0.49379686  1
  Fe  Fe37  1  0.32718367  -0.00484409  0.66259000  1
  Fe  Fe38  1  0.49309124  0.16034194  0.82614950  1
  Fe  Fe39  1  0.49321645  0.49456071  0.49542306  1
  Fe  Fe40  1  0.32814438  0.32662091  0.66086405  1
  Cr  Cr41  1  0.49198979  0.49637262  0.82620163  1
  Cr  Cr42  1  0.49469299  0.82900487  0.49481373  1
  Fe  Fe43  1  0.32825443  0.66291853  0.66106964  1
  Fe  Fe44  1  0.49415589  0.82841538  0.82615252  1
  Fe  Fe45  1  0.82899150  0.15964559  0.49594282  1
  Fe  Fe46  1  0.66181850  0.99349946  0.66178335  1
  Cr  Cr47  1  0.82776117  0.15856912  0.82783170  1
  Cr  Cr48  1  0.82985015  0.49598089  0.49468903  1
  Cr  Cr49  1  0.65944400  0.32870131  0.66059930  1
  Cr  Cr50  1  0.83038618  0.49586078  0.83001801  1
  Fe  Fe51  1  0.82922776  0.82932537  0.49696388  1
  Fe  Fe52  1  0.66171521  0.66327194  0.66149860  1
  Fe  Fe53  1  0.82846597  0.82742632  0.82613778  1
" 