6218,Ni3Fe90Cr6_10,-222.910233988201, 130.038877152072,Ni3Fe90Cr6,"# generated using pymatgen
 data_Cr5Fe48Ni
_symmetry_space_group_name_H-M   'P 1'
_cell_length_a   7.44874454
_cell_length_b   7.44874454
_cell_length_c   10.53411555
_cell_angle_alpha   90.00000000
_cell_angle_beta   90.00000000
_cell_angle_gamma   90.00000000
_symmetry_Int_Tables_number   1
_chemical_formula_structural   Cr5Fe48Ni
_chemical_formula_sum   'Cr5 Fe48 Ni1'
_cell_volume   584.47271048
_cell_formula_units_Z   1
loop_
 _symmetry_equiv_pos_site_id
 _symmetry_equiv_pos_as_xyz
  1  'x, y, z'
loop_
 _atom_site_type_symbol
 _atom_site_label
 _atom_site_symmetry_multiplicity
 _atom_site_fract_x
 _atom_site_fract_y
 _atom_site_fract_z
 _atom_site_occupancy
  Fe  Fe0  1  0.99888826  1.00041794  0.00201545  1
  Fe  Fe1  1  0.16740400  0.16847617  0.16841284  1
  Fe  Fe2  1  1.00067237  0.00180921  0.33490796  1
  Fe  Fe3  1  1.00064777  0.33511564  0.00204406  1
  Fe  Fe4  1  0.16815559  0.50141011  0.16787018  1
  Fe  Fe5  1  0.00241202  0.33418716  0.33493341  1
  Fe  Fe6  1  0.00148774  0.66815469  0.00122937  1
  Fe  Fe7  1  0.16554590  0.83380044  0.16865883  1
  Fe  Fe8  1  1.00105775  0.66768806  0.33447280  1
  Cr  Cr9  1  0.33414761  1.00080201  1.00109587  1
  Fe  Fe10  1  0.50114997  0.16946774  0.16781753  1
  Fe  Fe11  1  0.33401309  0.00218406  0.33528219  1
  Fe  Fe12  1  0.33539811  0.33689786  0.00203981  1
  Fe  Fe13  1  0.50042419  0.50043599  0.16709317  1
  Fe  Fe14  1  0.33303669  0.33457445  0.33447358  1
  Fe  Fe15  1  0.33375647  0.66556236  1.00039839  1
  Cr  Cr16  1  0.50283349  0.83309746  0.16949592  1
  Fe  Fe17  1  0.33401228  0.66692579  0.33534771  1
  Fe  Fe18  1  0.67022720  0.00206031  1.00042334  1
  Fe  Fe19  1  0.83513043  0.16685734  0.16769011  1
  Fe  Fe20  1  0.66900246  1.00083412  0.33571858  1
  Fe  Fe21  1  0.66763729  0.33430140  0.00146338  1
  Fe  Fe22  1  0.83510561  0.50230330  0.16705376  1
  Cr  Cr23  1  0.66841632  0.33516102  0.33424479  1
  Fe  Fe24  1  0.66844415  0.66732204  1.00047113  1
  Fe  Fe25  1  0.83610449  0.83452609  0.16783153  1
  Fe  Fe26  1  0.66861761  0.66866556  0.33528428  1
  Fe  Fe27  1  0.16637573  0.16870390  0.50065271  1
  Fe  Fe28  1  0.99853170  1.00080879  0.66676460  1
  Cr  Cr29  1  0.16553560  0.16997796  0.83385791  1
  Fe  Fe30  1  0.16730225  0.50055632  0.50125394  1
  Fe  Fe31  1  1.00027924  0.33474883  0.66671054  1
  Fe  Fe32  1  0.16794891  0.50280679  0.83456193  1
  Fe  Fe33  1  0.16651542  0.83442447  0.50044350  1
  Fe  Fe34  1  0.00155203  0.66812940  0.66798364  1
  Fe  Fe35  1  0.16634993  0.83142275  0.83458094  1
  Fe  Fe36  1  0.50195453  0.16787840  0.50121952  1
  Cr  Cr37  1  0.33497310  1.00025591  0.66692352  1
  Fe  Fe38  1  0.50430281  0.16943844  0.83464511  1
  Fe  Fe39  1  0.50104621  0.50140705  0.50200364  1
  Fe  Fe40  1  0.33537469  0.33695168  0.66717061  1
  Fe  Fe41  1  0.50094275  0.50101980  0.83458742  1
  Fe  Fe42  1  0.50265923  0.83440061  0.50018565  1
  Fe  Fe43  1  0.33453679  0.66635145  0.66794374  1
  Fe  Fe44  1  0.50256883  0.83322415  0.83478899  1
  Ni  Ni45  1  0.83603833  0.16683777  0.50306985  1
  Fe  Fe46  1  0.66980575  0.00164823  0.66755090  1
  Fe  Fe47  1  0.83298117  0.16784117  0.83394075  1
  Fe  Fe48  1  0.83533803  0.50126222  0.50200512  1
  Fe  Fe49  1  0.66803088  0.33393028  0.66731544  1
  Fe  Fe50  1  0.83479473  0.50105875  0.83462612  1
  Fe  Fe51  1  0.83451097  0.83532917  0.50120322  1
  Fe  Fe52  1  0.66759693  0.66810643  0.66793410  1
  Fe  Fe53  1  0.83476904  0.83478540  0.83465108  1
" 