5922,Ni3Fe90Cr6_17,-222.835058609455, 131.461771667511,Ni3Fe90Cr6,"# generated using pymatgen
 data_Cr5Fe48Ni
_symmetry_space_group_name_H-M   'P 1'
_cell_length_a   7.44477273
_cell_length_b   7.44477273
_cell_length_c   10.52849856
_cell_angle_alpha   90.00000000
_cell_angle_beta   90.00000000
_cell_angle_gamma   90.00000000
_symmetry_Int_Tables_number   1
_chemical_formula_structural   Cr5Fe48Ni
_chemical_formula_sum   'Cr5 Fe48 Ni1'
_cell_volume   583.53825227
_cell_formula_units_Z   1
loop_
 _symmetry_equiv_pos_site_id
 _symmetry_equiv_pos_as_xyz
  1  'x, y, z'
loop_
 _atom_site_type_symbol
 _atom_site_label
 _atom_site_symmetry_multiplicity
 _atom_site_fract_x
 _atom_site_fract_y
 _atom_site_fract_z
 _atom_site_occupancy
  Fe  Fe0  1  1.00068902  0.00230300  0.00249324  1
  Fe  Fe1  1  0.16933994  0.16734586  0.16689417  1
  Fe  Fe2  1  0.00257293  1.00041909  0.33498717  1
  Fe  Fe3  1  1.00129002  0.33459763  0.00246151  1
  Fe  Fe4  1  0.16936372  0.50236907  0.16734370  1
  Cr  Cr5  1  0.00339170  0.33469605  0.33446060  1
  Fe  Fe6  1  1.00087948  0.66739736  0.00241402  1
  Fe  Fe7  1  0.16815492  0.83483710  0.16750478  1
  Fe  Fe8  1  1.00112699  0.67031306  0.33435568  1
  Fe  Fe9  1  0.33559466  0.00211253  0.00241402  1
  Fe  Fe10  1  0.50084485  0.16915078  0.16728913  1
  Fe  Fe11  1  0.33267896  0.00186502  0.33435568  1
  Fe  Fe12  1  0.33479949  0.33482707  1.00106347  1
  Fe  Fe13  1  0.50174343  0.50124859  0.16816041  1
  Fe  Fe14  1  0.33713123  0.33431651  0.33504625  1
  Fe  Fe15  1  0.33566383  0.66732819  0.00231487  1
  Fe  Fe16  1  0.50062295  0.83362830  0.16734370  1
  Fe  Fe17  1  0.33461452  0.66837749  0.33486284  1
  Fe  Fe18  1  0.66839438  0.00170200  0.00246151  1
  Fe  Fe19  1  0.83469099  0.16830103  0.16752709  1
  Cr  Cr20  1  0.66829597  0.99960032  0.33446060  1
  Fe  Fe21  1  0.66835189  0.33464012  1.00133261  1
  Fe  Fe22  1  0.83384124  0.50214717  0.16728913  1
  Fe  Fe23  1  0.66783100  0.33516102  0.33500106  1
  Fe  Fe24  1  0.66816495  0.66819253  1.00106347  1
  Fe  Fe25  1  0.83564615  0.83365207  0.16689417  1
  Fe  Fe26  1  0.66867550  0.66586079  0.33504625  1
  Fe  Fe27  1  0.16715264  0.16597517  0.50172328  1
  Fe  Fe28  1  1.00024607  0.00274594  0.66725200  1
  Fe  Fe29  1  0.16675292  0.16845123  0.83617067  1
  Fe  Fe30  1  0.16727567  0.50268768  0.50094350  1
  Fe  Fe31  1  0.99850707  0.33497338  0.66745791  1
  Fe  Fe32  1  0.16677834  0.50044481  0.83628165  1
  Fe  Fe33  1  0.16731060  0.83568142  0.50198011  1
  Fe  Fe34  1  0.00285594  0.66645678  0.66745525  1
  Cr  Cr35  1  0.16907964  0.83391237  0.83402945  1
  Fe  Fe36  1  0.50200086  0.16832950  0.50132408  1
  Fe  Fe37  1  0.33653523  1.00013607  0.66745525  1
  Fe  Fe38  1  0.50177215  0.16690729  0.83600761  1
  Fe  Fe39  1  0.50243026  0.50056176  0.50009832  1
  Cr  Cr40  1  0.33216238  0.33439076  0.66862911  1
  Fe  Fe41  1  0.50099227  0.50199974  0.83640529  1
  Fe  Fe42  1  0.50030434  0.83571635  0.50094350  1
  Fe  Fe43  1  0.33455903  0.66843299  0.66687334  1
  Fe  Fe44  1  0.50254721  0.83621368  0.83628165  1
  Ni  Ni45  1  0.83408703  0.16890498  0.50266971  1
  Fe  Fe46  1  0.66801864  0.00448495  0.66745791  1
  Fe  Fe47  1  0.83521765  0.16777437  0.83419595  1
  Fe  Fe48  1  0.83466252  0.50099116  0.50132408  1
  Fe  Fe49  1  0.66889765  0.33409437  0.66845306  1
  Fe  Fe50  1  0.83608473  0.50121987  0.83600761  1
  Fe  Fe51  1  0.83701684  0.83583938  0.50172328  1
  Cr  Cr52  1  0.66860126  0.67082964  0.66862911  1
  Fe  Fe53  1  0.83454079  0.83623910  0.83617067  1
" 