6122,Ni3Fe65Cr31_3,-220.270860318301, 158.433727122057,Ni3Fe65Cr31,"# generated using pymatgen
 data_Cr18Fe35Ni
_symmetry_space_group_name_H-M   'P 1'
_cell_length_a   7.49957685
_cell_length_b   7.49957685
_cell_length_c   10.60600329
_cell_angle_alpha   90.00000000
_cell_angle_beta   90.00000000
_cell_angle_gamma   90.00000000
_symmetry_Int_Tables_number   1
_chemical_formula_structural   Cr18Fe35Ni
_chemical_formula_sum   'Cr18 Fe35 Ni1'
_cell_volume   596.52036703
_cell_formula_units_Z   1
loop_
 _symmetry_equiv_pos_site_id
 _symmetry_equiv_pos_as_xyz
  1  'x, y, z'
loop_
 _atom_site_type_symbol
 _atom_site_label
 _atom_site_symmetry_multiplicity
 _atom_site_fract_x
 _atom_site_fract_y
 _atom_site_fract_z
 _atom_site_occupancy
  Fe  Fe0  1  0.99701773  0.00002369  0.99730025  1
  Fe  Fe1  1  0.16178267  0.16519707  0.16318508  1
  Fe  Fe2  1  0.99755374  0.00041251  0.33095118  1
  Fe  Fe3  1  0.00009881  0.32880225  0.99628034  1
  Fe  Fe4  1  0.16399967  0.49547546  0.16388587  1
  Fe  Fe5  1  0.00046821  0.32990769  0.33046971  1
  Cr  Cr6  1  0.99628735  0.66151333  0.99639296  1
  Fe  Fe7  1  0.16543041  0.83234418  0.16218607  1
  Fe  Fe8  1  0.00041139  0.66342399  0.32911346  1
  Fe  Fe9  1  0.32891194  -0.00121542  -0.00116587  1
  Cr  Cr10  1  0.49799810  0.16661866  0.16195809  1
  Cr  Cr11  1  0.32883999  0.00013936  0.33074508  1
  Fe  Fe12  1  0.32885485  0.33171727  -0.00206372  1
  Fe  Fe13  1  0.49621687  0.49684952  0.16363562  1
  Fe  Fe14  1  0.33060105  0.33306465  0.33089704  1
  Fe  Fe15  1  0.32970828  0.66291236  0.00032287  1
  Fe  Fe16  1  0.49680681  0.83376135  0.16217484  1
  Cr  Cr17  1  0.33231485  0.66565255  0.32961914  1
  Fe  Fe18  1  0.66659983  -0.00128800  0.99738674  1
  Fe  Fe19  1  0.83314359  0.16621050  0.16496993  1
  Fe  Fe20  1  0.66473200  0.00002062  0.33080655  1
  Cr  Cr21  1  0.66848175  0.33172732  0.99544489  1
  Fe  Fe22  1  0.83331495  0.49400499  0.16578407  1
  Fe  Fe23  1  0.66362828  0.33024068  0.33016071  1
  Cr  Cr24  1  0.66354636  0.66467439  -0.00019209  1
  Cr  Cr25  1  0.83398588  0.83299150  0.16550250  1
  Cr  Cr26  1  0.66299311  0.66393527  0.32804046  1
  Fe  Fe27  1  0.16327672  0.16647300  0.49807049  1
  Fe  Fe28  1  0.99679726  -0.00125721  0.66630922  1
  Fe  Fe29  1  0.16749254  0.16461483  0.83298454  1
  Fe  Fe30  1  0.16710857  0.49598749  0.49761599  1
  Cr  Cr31  1  -0.00060936  0.32913756  0.66708134  1
  Fe  Fe32  1  0.16518003  0.49607031  0.83177071  1
  Cr  Cr33  1  0.16132097  0.83032529  0.49999901  1
  Fe  Fe34  1  -0.00207913  0.66229358  0.66661285  1
  Cr  Cr35  1  0.16231751  0.83017908  0.83076371  1
  Cr  Cr36  1  0.49874099  0.16794546  0.50044886  1
  Fe  Fe37  1  0.32871722  0.00058919  0.66551179  1
  Fe  Fe38  1  0.49638006  0.16310963  0.83122533  1
  Ni  Ni39  1  0.49716912  0.49421261  0.49715347  1
  Fe  Fe40  1  0.33126617  0.33160233  0.66443792  1
  Cr  Cr41  1  0.49565033  0.49447957  0.83096287  1
  Cr  Cr42  1  0.49747886  0.83228942  0.49966056  1
  Fe  Fe43  1  0.32935153  0.66082522  0.66359278  1
  Cr  Cr44  1  0.49547915  0.83292508  0.83308387  1
  Fe  Fe45  1  0.83183673  0.16494919  0.49707408  1
  Fe  Fe46  1  0.66633862  0.00059499  0.66675345  1
  Fe  Fe47  1  0.83188478  0.16191796  0.83144818  1
  Cr  Cr48  1  0.83230957  0.49708407  0.49551388  1
  Fe  Fe49  1  0.66539603  0.33033117  0.66579028  1
  Fe  Fe50  1  0.83265131  0.49778632  0.83001921  1
  Cr  Cr51  1  0.83370546  0.83258927  0.49847123  1
  Cr  Cr52  1  0.66390565  0.66383138  0.66571298  1
  Fe  Fe53  1  0.83009301  0.83288357  0.83102775  1
" 