5347,Ni3Fe40Cr55_19,-214.894225357237, 183.442313907668,Ni3Fe40Cr55,"# generated using pymatgen
 data_Cr31Fe22Ni
_symmetry_space_group_name_H-M   'P 1'
_cell_length_a   7.53863757
_cell_length_b   7.53863757
_cell_length_c   10.66124349
_cell_angle_alpha   90.00000000
_cell_angle_beta   90.00000000
_cell_angle_gamma   90.00000000
_symmetry_Int_Tables_number   1
_chemical_formula_structural   Cr31Fe22Ni
_chemical_formula_sum   'Cr31 Fe22 Ni1'
_cell_volume   605.88973031
_cell_formula_units_Z   1
loop_
 _symmetry_equiv_pos_site_id
 _symmetry_equiv_pos_as_xyz
  1  'x, y, z'
loop_
 _atom_site_type_symbol
 _atom_site_label
 _atom_site_symmetry_multiplicity
 _atom_site_fract_x
 _atom_site_fract_y
 _atom_site_fract_z
 _atom_site_occupancy
  Fe  Fe0  1  -0.00411947  0.99505203  0.99497707  1
  Cr  Cr1  1  0.16212131  0.16058915  0.16087025  1
  Cr  Cr2  1  0.99290662  0.99470731  0.32730275  1
  Cr  Cr3  1  -0.00446626  0.32840484  0.99430933  1
  Fe  Fe4  1  0.16232637  0.49553175  0.16213064  1
  Cr  Cr5  1  -0.00327413  0.32866167  0.32791020  1
  Cr  Cr6  1  -0.00317266  0.66211565  -0.00369259  1
  Cr  Cr7  1  0.16274213  0.83029598  0.16045887  1
  Fe  Fe8  1  0.99496037  0.66189923  0.32846929  1
  Fe  Fe9  1  0.32827444  0.99427483  0.99339731  1
  Cr  Cr10  1  0.49523806  0.16247029  0.16426690  1
  Fe  Fe11  1  0.32875749  -0.00400865  0.32920487  1
  Cr  Cr12  1  0.32972134  0.33012840  -0.00403299  1
  Cr  Cr13  1  0.49716363  0.49482238  0.16242060  1
  Fe  Fe14  1  0.32954150  0.32655998  0.32858273  1
  Fe  Fe15  1  0.33007045  0.66224635  0.99339842  1
  Cr  Cr16  1  0.49470605  0.82822955  0.15995153  1
  Cr  Cr17  1  0.32655909  0.65984548  0.32716745  1
  Cr  Cr18  1  0.66143731  -0.00425403  0.99510914  1
  Fe  Fe19  1  0.82724406  0.16230814  0.16107894  1
  Cr  Cr20  1  0.66231883  -0.00315168  0.33232442  1
  Fe  Fe21  1  0.66099939  0.32999793  0.99328926  1
  Cr  Cr22  1  0.82634316  0.49424657  0.16028091  1
  Fe  Fe23  1  0.66264089  0.32745544  0.32944900  1
  Fe  Fe24  1  0.66017376  0.65992108  0.99302170  1
  Cr  Cr25  1  0.82828340  0.82818082  0.16241793  1
  Cr  Cr26  1  0.66288385  0.66418452  0.32907939  1
  Cr  Cr27  1  0.16309870  0.16141560  0.49651297  1
  Cr  Cr28  1  0.99330714  0.99497836  0.66181888  1
  Cr  Cr29  1  0.16216011  0.15893726  0.82785483  1
  Cr  Cr30  1  0.16166866  0.49442458  0.49448736  1
  Fe  Fe31  1  0.99401127  0.32827642  0.66200172  1
  Cr  Cr32  1  0.16223526  0.49504300  0.82559878  1
  Cr  Cr33  1  0.16276234  0.82960855  0.49547175  1
  Cr  Cr34  1  -0.00406180  0.66206942  0.65998542  1
  Fe  Fe35  1  0.16464773  0.82783254  0.82891319  1
  Fe  Fe36  1  0.49532545  0.16219325  0.49492045  1
  Fe  Fe37  1  0.33106711  0.99413679  0.66344506  1
  Fe  Fe38  1  0.49490141  0.16223890  0.82905219  1
  Cr  Cr39  1  0.49601837  0.49447011  0.49304942  1
  Cr  Cr40  1  0.32985852  0.32888482  0.66136176  1
  Ni  Ni41  1  0.49637912  0.49767484  0.83050169  1
  Cr  Cr42  1  0.49504262  0.83003394  0.49693286  1
  Fe  Fe43  1  0.33023552  0.66277160  0.66342455  1
  Fe  Fe44  1  0.49249023  0.82832035  0.82898231  1
  Fe  Fe45  1  0.82763892  0.16206450  0.49630299  1
  Fe  Fe46  1  0.66042649  -0.00368620  0.66194131  1
  Cr  Cr47  1  0.82941468  0.16333713  0.82958038  1
  Cr  Cr48  1  0.82804901  0.49486950  0.49667976  1
  Cr  Cr49  1  0.66019964  0.32685045  0.66358163  1
  Fe  Fe50  1  0.82675277  0.49546521  0.82918423  1
  Fe  Fe51  1  0.82888120  0.82915663  0.49579817  1
  Cr  Cr52  1  0.66059414  0.66329767  0.66390055  1
  Cr  Cr53  1  0.82811145  0.82821682  0.82916954  1
" 