3692,Ni3Fe65Cr31_6,-220.489709865167, 158.287712403552,Ni3Fe65Cr31,"# generated using pymatgen
 data_Cr18Fe35Ni
_symmetry_space_group_name_H-M   'P 1'
_cell_length_a   7.50394939
_cell_length_b   7.50394939
_cell_length_c   10.61218700
_cell_angle_alpha   90.00000000
_cell_angle_beta   90.00000000
_cell_angle_gamma   90.00000000
_symmetry_Int_Tables_number   1
_chemical_formula_structural   Cr18Fe35Ni
_chemical_formula_sum   'Cr18 Fe35 Ni1'
_cell_volume   597.56435875
_cell_formula_units_Z   1
loop_
 _symmetry_equiv_pos_site_id
 _symmetry_equiv_pos_as_xyz
  1  'x, y, z'
loop_
 _atom_site_type_symbol
 _atom_site_label
 _atom_site_symmetry_multiplicity
 _atom_site_fract_x
 _atom_site_fract_y
 _atom_site_fract_z
 _atom_site_occupancy
  Fe  Fe0  1  -0.00121521  0.99666438  0.99499483  1
  Fe  Fe1  1  0.16390132  0.16310220  0.16480084  1
  Fe  Fe2  1  -0.00070307  -0.00094612  0.33276824  1
  Cr  Cr3  1  -0.00075922  0.33334779  0.00057614  1
  Fe  Fe4  1  0.16273200  0.49842150  0.16380881  1
  Fe  Fe5  1  0.99609071  0.32970890  0.33133940  1
  Ni  Ni6  1  -0.00207457  0.66494267  0.99593308  1
  Cr  Cr7  1  0.16552905  0.83100646  0.16378284  1
  Cr  Cr8  1  0.99618124  0.66214516  0.33048712  1
  Fe  Fe9  1  0.32978656  0.99546204  0.99555261  1
  Cr  Cr10  1  0.49768260  0.16302911  0.16228957  1
  Fe  Fe11  1  0.32881580  0.99535381  0.33188190  1
  Cr  Cr12  1  0.32995075  0.33125027  0.99454033  1
  Cr  Cr13  1  0.49913287  0.49876767  0.16477844  1
  Cr  Cr14  1  0.32798781  0.33097420  0.33046577  1
  Fe  Fe15  1  0.32957131  0.66496828  0.99627005  1
  Fe  Fe16  1  0.49753974  0.83061849  0.16338406  1
  Fe  Fe17  1  0.33283732  0.66636157  0.33179538  1
  Fe  Fe18  1  0.66423504  0.99646523  0.99503103  1
  Cr  Cr19  1  0.83069809  0.16525149  0.16430026  1
  Cr  Cr20  1  0.66310786  0.99414472  0.33299859  1
  Fe  Fe21  1  0.66476357  0.33193641  0.99582867  1
  Fe  Fe22  1  0.83123245  0.49862449  0.16327343  1
  Fe  Fe23  1  0.66678244  0.33349492  0.33237130  1
  Fe  Fe24  1  0.66402268  0.66429659  0.99670509  1
  Cr  Cr25  1  0.83189223  0.82996980  0.16025392  1
  Fe  Fe26  1  0.66296797  0.66279915  0.33217132  1
  Fe  Fe27  1  0.16292236  0.16294885  0.49614952  1
  Cr  Cr28  1  0.99643055  0.99579015  0.66346182  1
  Fe  Fe29  1  0.16403213  0.16336905  0.83118430  1
  Cr  Cr30  1  0.16531936  0.49962762  0.50090868  1
  Cr  Cr31  1  -0.00079477  0.33106631  0.66384624  1
  Fe  Fe32  1  0.16523751  0.50057500  0.83022042  1
  Fe  Fe33  1  0.16511313  0.83163387  0.49640793  1
  Fe  Fe34  1  0.99696098  0.66612814  0.66510046  1
  Fe  Fe35  1  0.16346897  0.82883713  0.83264582  1
  Cr  Cr36  1  0.49710712  0.16585833  0.49759715  1
  Cr  Cr37  1  0.33116400  0.99711944  0.66389608  1
  Fe  Fe38  1  0.49801585  0.16402104  0.83213308  1
  Fe  Fe39  1  0.49861327  0.50045778  0.49712565  1
  Fe  Fe40  1  0.33113431  0.33164833  0.66617969  1
  Fe  Fe41  1  0.49631409  0.49939950  0.83084069  1
  Fe  Fe42  1  0.49626872  0.82706996  0.49734539  1
  Fe  Fe43  1  0.33207590  0.66394766  0.66534436  1
  Fe  Fe44  1  0.49760863  0.82897410  0.83236596  1
  Fe  Fe45  1  0.83287873  0.16524728  0.49559263  1
  Cr  Cr46  1  0.66498719  0.99482558  0.66573328  1
  Fe  Fe47  1  0.83069940  0.16306132  0.83318015  1
  Fe  Fe48  1  0.82870613  0.49806270  0.49733693  1
  Cr  Cr49  1  0.66284770  0.33133442  0.66428826  1
  Cr  Cr50  1  0.83109762  0.49968516  0.83171866  1
  Fe  Fe51  1  0.83106979  0.82883996  0.49742203  1
  Fe  Fe52  1  0.66372777  0.66502045  0.66349290  1
  Fe  Fe53  1  0.83152773  0.83051322  0.83332239  1
" 