8224,Ni3Fe65Cr31_16,-220.232726301472, 154.408465178547,Ni3Fe65Cr31,"# generated using pymatgen
 data_Cr18Fe35Ni
_symmetry_space_group_name_H-M   'P 1'
_cell_length_a   7.50877548
_cell_length_b   7.50877548
_cell_length_c   10.61901212
_cell_angle_alpha   90.00000000
_cell_angle_beta   90.00000000
_cell_angle_gamma   90.00000000
_symmetry_Int_Tables_number   1
_chemical_formula_structural   Cr18Fe35Ni
_chemical_formula_sum   'Cr18 Fe35 Ni1'
_cell_volume   598.71805401
_cell_formula_units_Z   1
loop_
 _symmetry_equiv_pos_site_id
 _symmetry_equiv_pos_as_xyz
  1  'x, y, z'
loop_
 _atom_site_type_symbol
 _atom_site_label
 _atom_site_symmetry_multiplicity
 _atom_site_fract_x
 _atom_site_fract_y
 _atom_site_fract_z
 _atom_site_occupancy
  Cr  Cr0  1  0.00132576  -0.00201249  0.99496161  1
  Fe  Fe1  1  0.16387490  0.16471966  0.16513801  1
  Ni  Ni2  1  0.99652395  -0.00040777  0.33070103  1
  Cr  Cr3  1  0.99656040  0.32832220  0.99588121  1
  Fe  Fe4  1  0.16472974  0.49535958  0.16429024  1
  Fe  Fe5  1  0.00002866  0.32981023  0.32868528  1
  Cr  Cr6  1  0.99507705  0.66455908  0.99705055  1
  Cr  Cr7  1  0.16499269  0.83008094  0.16185464  1
  Fe  Fe8  1  -0.00136516  0.66570188  0.32993390  1
  Fe  Fe9  1  0.33192557  0.00249279  0.99661077  1
  Fe  Fe10  1  0.49635865  0.16542513  0.16404685  1
  Cr  Cr11  1  0.32793131  0.00010221  0.33294503  1
  Fe  Fe12  1  0.32851934  0.32915145  -0.00119620  1
  Fe  Fe13  1  0.49524808  0.49554474  0.16390891  1
  Fe  Fe14  1  0.32965251  0.33021388  0.33134670  1
  Fe  Fe15  1  0.32830254  0.66233774  -0.00215217  1
  Cr  Cr16  1  0.49752384  0.83283494  0.16050571  1
  Cr  Cr17  1  0.33268848  0.66232688  0.33314796  1
  Fe  Fe18  1  0.66762953  -0.00071618  0.99673856  1
  Fe  Fe19  1  0.83062707  0.16199147  0.16600513  1
  Fe  Fe20  1  0.66385410  0.99678871  0.32999569  1
  Cr  Cr21  1  0.66322049  0.33061651  0.99652313  1
  Fe  Fe22  1  0.83181584  0.49585907  0.16646183  1
  Fe  Fe23  1  0.66188138  0.32774180  0.32868582  1
  Cr  Cr24  1  0.66535632  0.66261327  -0.00208122  1
  Fe  Fe25  1  0.83176887  0.83310823  0.16610610  1
  Cr  Cr26  1  0.66464481  0.66226202  0.33213159  1
  Fe  Fe27  1  0.16132280  0.16584203  0.49816169  1
  Fe  Fe28  1  0.99583256  -0.00215892  0.66402363  1
  Fe  Fe29  1  0.16712663  0.16288700  0.82766037  1
  Fe  Fe30  1  0.16514591  0.49428726  0.49908589  1
  Fe  Fe31  1  -0.00231114  0.32804074  0.66507182  1
  Cr  Cr32  1  0.16278476  0.49799999  0.82857605  1
  Cr  Cr33  1  0.16350530  0.82953079  0.50002898  1
  Fe  Fe34  1  0.99678328  0.66400920  0.66459641  1
  Fe  Fe35  1  0.16425472  0.83157554  0.82755648  1
  Fe  Fe36  1  0.49557781  0.16510207  0.49786982  1
  Fe  Fe37  1  0.33216050  -0.00067898  0.66300272  1
  Fe  Fe38  1  0.49480779  0.16365867  0.83090539  1
  Fe  Fe39  1  0.49648867  0.49381487  0.49805654  1
  Fe  Fe40  1  0.32912282  0.32932578  0.66246671  1
  Cr  Cr41  1  0.49391445  0.49776176  0.83248877  1
  Fe  Fe42  1  0.49955877  0.83377958  0.49870601  1
  Fe  Fe43  1  0.33137608  0.66333697  0.66229423  1
  Cr  Cr44  1  0.49491795  0.83310251  0.83314896  1
  Cr  Cr45  1  0.82838064  0.16279476  0.49508879  1
  Fe  Fe46  1  0.66324073  -0.00238823  0.66420584  1
  Fe  Fe47  1  0.83049796  0.16168601  0.82862393  1
  Cr  Cr48  1  0.83472889  0.49363882  0.49704388  1
  Cr  Cr49  1  0.66225079  0.33083514  0.66697020  1
  Fe  Fe50  1  0.83087621  0.49786215  0.82877083  1
  Fe  Fe51  1  0.83186086  0.83161380  0.49621752  1
  Cr  Cr52  1  0.66398456  0.66437008  0.66243244  1
  Fe  Fe53  1  0.83106822  0.83149785  0.82867465  1
" 