302,Ni3Fe10Cr85_4,-204.768855386378, 200.30580919835,Ni3Fe10Cr85,"# generated using pymatgen
 data_Cr47Fe5Ni2
_symmetry_space_group_name_H-M   'P 1'
_cell_length_a   7.59082170
_cell_length_b   7.59082170
_cell_length_c   10.73504299
_cell_angle_alpha   90.00000000
_cell_angle_beta   90.00000000
_cell_angle_gamma   90.00000000
_symmetry_Int_Tables_number   1
_chemical_formula_structural   Cr47Fe5Ni2
_chemical_formula_sum   'Cr47 Fe5 Ni2'
_cell_volume   618.55933962
_cell_formula_units_Z   1
loop_
 _symmetry_equiv_pos_site_id
 _symmetry_equiv_pos_as_xyz
  1  'x, y, z'
loop_
 _atom_site_type_symbol
 _atom_site_label
 _atom_site_symmetry_multiplicity
 _atom_site_fract_x
 _atom_site_fract_y
 _atom_site_fract_z
 _atom_site_occupancy
  Cr  Cr0  1  0.99147976  0.99001852  -0.00710345  1
  Cr  Cr1  1  0.15845337  0.15774068  0.15840072  1
  Cr  Cr2  1  0.99142512  0.99099440  0.32512100  1
  Cr  Cr3  1  -0.00733077  0.32782883  0.99171822  1
  Cr  Cr4  1  0.15804379  0.49318095  0.15847602  1
  Cr  Cr5  1  -0.00750763  0.32668451  0.32618587  1
  Ni  Ni6  1  -0.00722834  0.65758905  0.99150501  1
  Cr  Cr7  1  0.15804418  0.82462201  0.15815302  1
  Fe  Fe8  1  -0.00782125  0.65818028  0.32506218  1
  Cr  Cr9  1  0.32615162  -0.00781981  0.99182299  1
  Cr  Cr10  1  0.49126004  0.15910037  0.15746615  1
  Cr  Cr11  1  0.32536239  0.99040787  0.32451909  1
  Cr  Cr12  1  0.32496329  0.32566823  0.99064612  1
  Cr  Cr13  1  0.49262712  0.49277810  0.16009890  1
  Cr  Cr14  1  0.32429452  0.32727204  0.32558494  1
  Cr  Cr15  1  0.32280333  0.65769149  0.99092580  1
  Cr  Cr16  1  0.49126632  0.82366163  0.16025894  1
  Fe  Fe17  1  0.32484508  0.65817874  0.32552262  1
  Cr  Cr18  1  0.65791012  -0.00781943  0.99145947  1
  Cr  Cr19  1  0.82582770  0.15910223  0.15856056  1
  Cr  Cr20  1  0.65875368  0.99039439  0.32494548  1
  Cr  Cr21  1  0.65790926  0.32448031  0.99182267  1
  Cr  Cr22  1  0.82487184  0.49318363  0.15815904  1
  Cr  Cr23  1  0.65875379  0.32620472  0.32451890  1
  Cr  Cr24  1  0.66007016  0.65888068  -0.00789651  1
  Cr  Cr25  1  0.82622972  0.82325521  0.15832034  1
  Fe  Fe26  1  0.65851619  0.65850707  0.32519829  1
  Cr  Cr27  1  0.15810588  0.15874773  0.49190256  1
  Cr  Cr28  1  0.99107705  0.99151964  0.65752278  1
  Cr  Cr29  1  0.15948187  0.15923733  0.82523815  1
  Fe  Fe30  1  0.15851968  0.49252164  0.49163089  1
  Cr  Cr31  1  -0.00669318  0.32696850  0.65763628  1
  Ni  Ni32  1  0.15830499  0.49205289  0.82538485  1
  Cr  Cr33  1  0.15885670  0.82441919  0.49096684  1
  Cr  Cr34  1  -0.00669277  0.65705327  0.65926948  1
  Cr  Cr35  1  0.15800283  0.82394698  0.82641840  1
  Cr  Cr36  1  0.49129533  0.15906548  0.49323584  1
  Cr  Cr37  1  0.32636335  -0.00800996  0.65920208  1
  Fe  Fe38  1  0.49139197  0.15896893  0.82517664  1
  Cr  Cr39  1  0.49161349  0.49312898  0.49020157  1
  Cr  Cr40  1  0.32413317  0.32649809  0.65931205  1
  Cr  Cr41  1  0.49112371  0.49087505  0.82523825  1
  Cr  Cr42  1  0.49129838  0.82334567  0.49080355  1
  Cr  Cr43  1  0.32366303  0.65705388  0.65843020  1
  Cr  Cr44  1  0.49145164  0.82575950  0.82447602  1
  Cr  Cr45  1  0.82614038  0.15906562  0.49250457  1
  Cr  Cr46  1  0.65810069  -0.00801062  0.65913819  1
  Cr  Cr47  1  0.82460526  0.15890910  0.82447596  1
  Cr  Cr48  1  0.82506660  0.49237565  0.49096620  1
  Cr  Cr49  1  0.65810012  0.32426877  0.65920186  1
  Cr  Cr50  1  0.82641818  0.49235387  0.82641833  1
  Cr  Cr51  1  0.82538660  0.82409880  0.49156768  1
  Cr  Cr52  1  0.65857044  0.65928356  0.65831646  1
  Cr  Cr53  1  0.82608481  0.82428035  0.82565650  1
" 