4059,Ni3Fe40Cr55_0,-214.827093660375, 183.946112405719,Ni3Fe40Cr55,"# generated using pymatgen
 data_Cr31Fe22Ni
_symmetry_space_group_name_H-M   'P 1'
_cell_length_a   7.54602221
_cell_length_b   7.54602221
_cell_length_c   10.67168695
_cell_angle_alpha   90.00000000
_cell_angle_beta   90.00000000
_cell_angle_gamma   90.00000000
_symmetry_Int_Tables_number   1
_chemical_formula_structural   Cr31Fe22Ni
_chemical_formula_sum   'Cr31 Fe22 Ni1'
_cell_volume   607.67201266
_cell_formula_units_Z   1
loop_
 _symmetry_equiv_pos_site_id
 _symmetry_equiv_pos_as_xyz
  1  'x, y, z'
loop_
 _atom_site_type_symbol
 _atom_site_label
 _atom_site_symmetry_multiplicity
 _atom_site_fract_x
 _atom_site_fract_y
 _atom_site_fract_z
 _atom_site_occupancy
  Cr  Cr0  1  -0.00328903  0.99433090  -0.00485328  1
  Fe  Fe1  1  0.16087881  0.16259011  0.16162790  1
  Cr  Cr2  1  0.99423903  -0.00392927  0.32895478  1
  Fe  Fe3  1  -0.00473266  0.32756322  -0.00497963  1
  Cr  Cr4  1  0.15968671  0.49210863  0.16187876  1
  Fe  Fe5  1  0.99405534  0.32685302  0.32732548  1
  Fe  Fe6  1  0.99467210  0.66080362  0.99351547  1
  Cr  Cr7  1  0.16211553  0.82783008  0.16143423  1
  Fe  Fe8  1  0.99430183  0.66110480  0.32845953  1
  Cr  Cr9  1  0.32683178  -0.00360399  -0.00365053  1
  Fe  Fe10  1  0.49409488  0.16000796  0.16245689  1
  Fe  Fe11  1  0.32960460  -0.00485901  0.32640048  1
  Fe  Fe12  1  0.32788527  0.32612868  -0.00492566  1
  Cr  Cr13  1  0.49408433  0.49624169  0.16260414  1
  Cr  Cr14  1  0.32832261  0.32708159  0.32688806  1
  Cr  Cr15  1  0.32603956  0.66233440  0.99374256  1
  Fe  Fe16  1  0.49466156  0.82868778  0.16378953  1
  Fe  Fe17  1  0.32806874  0.66347845  0.32738146  1
  Cr  Cr18  1  0.66075088  -0.00203776  -0.00217516  1
  Fe  Fe19  1  0.82939334  0.16237141  0.16194319  1
  Fe  Fe20  1  0.66065451  -0.00480450  0.32721557  1
  Cr  Cr21  1  0.66081469  0.32710564  0.99371073  1
  Cr  Cr22  1  0.83063183  0.49457976  0.15896168  1
  Cr  Cr23  1  0.66297176  0.32628862  0.32809420  1
  Cr  Cr24  1  0.66231337  0.65926198  0.99277819  1
  Cr  Cr25  1  0.82526321  0.82825827  0.16247797  1
  Fe  Fe26  1  0.66201866  0.66311191  0.32781198  1
  Cr  Cr27  1  0.16018165  0.16300120  0.49745672  1
  Fe  Fe28  1  0.99459179  -0.00378287  0.66083704  1
  Cr  Cr29  1  0.16291256  0.16219313  0.82608759  1
  Cr  Cr30  1  0.16105607  0.49221037  0.49250801  1
  Fe  Fe31  1  -0.00429021  0.32835751  0.66131062  1
  Cr  Cr32  1  0.15982169  0.49208733  0.82995668  1
  Cr  Cr33  1  0.16181954  0.82960448  0.49566643  1
  Cr  Cr34  1  -0.00478678  0.66459732  0.66347741  1
  Fe  Fe35  1  0.16114484  0.82925741  0.82763677  1
  Cr  Cr36  1  0.49439815  0.15901106  0.49923839  1
  Fe  Fe37  1  0.32826228  -0.00399749  0.66266178  1
  Fe  Fe38  1  0.49316885  0.16143007  0.82648769  1
  Cr  Cr39  1  0.49326487  0.49566818  0.49420394  1
  Ni  Ni40  1  0.32777349  0.32419935  0.66329138  1
  Cr  Cr41  1  0.49354098  0.49218942  0.82711928  1
  Cr  Cr42  1  0.49748947  0.82971825  0.49102103  1
  Cr  Cr43  1  0.32638350  0.66112968  0.66122440  1
  Cr  Cr44  1  0.49548276  0.83181071  0.82730075  1
  Fe  Fe45  1  0.82835566  0.15956609  0.49578740  1
  Fe  Fe46  1  0.66168788  -0.00502994  0.66099182  1
  Cr  Cr47  1  0.82871897  0.16112431  0.82618390  1
  Cr  Cr48  1  0.83006117  0.49464334  0.49333713  1
  Cr  Cr49  1  0.66088456  0.32706831  0.66224683  1
  Fe  Fe50  1  0.83006038  0.49360858  0.82863659  1
  Fe  Fe51  1  0.82772520  0.83001471  0.49426696  1
  Cr  Cr52  1  0.66289810  0.66017813  0.66133544  1
  Cr  Cr53  1  0.82848477  0.82867877  0.82828488  1
" 