8253,Ni3Fe31Cr64_3,-212.663364696488, 193.528442780558,Ni3Fe31Cr64,"# generated using pymatgen
 data_Cr18Fe8Ni
_symmetry_space_group_name_H-M   'P 1'
_cell_length_a   7.55881012
_cell_length_b   7.55881012
_cell_length_c   10.68977178
_cell_angle_alpha   90.00000000
_cell_angle_beta   90.00000000
_cell_angle_gamma   90.00000000
_symmetry_Int_Tables_number   1
_chemical_formula_structural   Cr18Fe8Ni
_chemical_formula_sum   'Cr36 Fe16 Ni2'
_cell_volume   610.76663553
_cell_formula_units_Z   2
loop_
 _symmetry_equiv_pos_site_id
 _symmetry_equiv_pos_as_xyz
  1  'x, y, z'
loop_
 _atom_site_type_symbol
 _atom_site_label
 _atom_site_symmetry_multiplicity
 _atom_site_fract_x
 _atom_site_fract_y
 _atom_site_fract_z
 _atom_site_occupancy
  Cr  Cr0  1  -0.00453655  0.99300215  0.99297278  1
  Cr  Cr1  1  0.15967488  0.15912511  0.16268832  1
  Fe  Fe2  1  0.99336710  0.99182488  0.32904462  1
  Cr  Cr3  1  0.99294283  0.32754129  0.99356244  1
  Cr  Cr4  1  0.16038766  0.49465152  0.16300287  1
  Fe  Fe5  1  0.99335942  0.32904542  0.32799375  1
  Cr  Cr6  1  0.99388451  0.66101197  0.99264228  1
  Cr  Cr7  1  0.15969226  0.82802145  0.16100115  1
  Fe  Fe8  1  0.99315842  0.66064673  0.32917268  1
  Cr  Cr9  1  0.32632684  0.99292850  0.99230775  1
  Cr  Cr10  1  0.49373723  0.15902408  0.16105196  1
  Fe  Fe11  1  0.32800382  0.99296554  0.32843002  1
  Cr  Cr12  1  0.32742118  0.32603799  -0.00533263  1
  Cr  Cr13  1  0.49404255  0.49606313  0.15842886  1
  Cr  Cr14  1  0.32719585  0.32760868  0.32746760  1
  Cr  Cr15  1  0.32612177  0.66279599  0.99292814  1
  Cr  Cr16  1  0.49483101  0.82695210  0.16101312  1
  Cr  Cr17  1  0.32626596  0.66192143  0.32955274  1
  Cr  Cr18  1  0.65984389  -0.00526668  0.99173668  1
  Cr  Cr19  1  0.82845180  0.15824059  0.16298910  1
  Fe  Fe20  1  0.66032484  0.99226721  0.32911663  1
  Cr  Cr21  1  0.66167205  0.32818484  0.99352228  1
  Cr  Cr22  1  0.82697757  0.49605020  0.15810770  1
  Cr  Cr23  1  0.66142693  0.32788267  0.32617700  1
  Fe  Fe24  1  0.66079433  0.66214768  0.99236276  1
  Cr  Cr25  1  0.82728859  0.82771714  0.16187585  1
  Cr  Cr26  1  0.66162780  0.66078250  0.32808805  1
  Cr  Cr27  1  0.16006281  0.16247165  0.49355427  1
  Cr  Cr28  1  -0.00567328  0.99134581  0.66166462  1
  Cr  Cr29  1  0.16093711  0.16160462  0.82695131  1
  Fe  Fe30  1  0.15856119  0.49471000  0.49581757  1
  Fe  Fe31  1  -0.00581968  0.32872285  0.66001347  1
  Cr  Cr32  1  0.16089878  0.49497977  0.82297550  1
  Cr  Cr33  1  0.15939936  0.82635001  0.49459515  1
  Ni  Ni34  1  -0.00513352  0.66052168  0.65887572  1
  Fe  Fe35  1  0.16068409  0.82488019  0.82515181  1
  Cr  Cr36  1  0.49412235  0.15931719  0.49522504  1
  Cr  Cr37  1  0.32864513  0.99261239  0.66264187  1
  Fe  Fe38  1  0.49409391  0.16037985  0.82612170  1
  Cr  Cr39  1  0.49069975  0.49469490  0.49524005  1
  Fe  Fe40  1  0.32613519  0.32823681  0.66010011  1
  Cr  Cr41  1  0.49375764  0.49550041  0.82857226  1
  Fe  Fe42  1  0.49608100  0.82861071  0.49422662  1
  Fe  Fe43  1  0.32605637  0.66153893  0.66017828  1
  Fe  Fe44  1  0.49369150  0.82721059  0.82635562  1
  Cr  Cr45  1  0.82769050  0.15744831  0.49376772  1
  Fe  Fe46  1  0.66148613  0.99110095  0.65994222  1
  Cr  Cr47  1  0.82726491  0.16017279  0.82534291  1
  Cr  Cr48  1  0.82905479  0.49483365  0.49559504  1
  Cr  Cr49  1  0.66052930  0.32635839  0.66174386  1
  Fe  Fe50  1  0.82860920  0.49492549  0.82546102  1
  Ni  Ni51  1  0.82767011  0.82732309  0.49322124  1
  Cr  Cr52  1  0.66158789  0.66167828  0.65986579  1
  Cr  Cr53  1  0.82684807  0.82552175  0.82711988  1
" 