7014,Ni3Fe31Cr64_5,-212.3561468475, 187.827453263891,Ni3Fe31Cr64,"# generated using pymatgen
 data_Cr18Fe8Ni
_symmetry_space_group_name_H-M   'P 1'
_cell_length_a   7.55923159
_cell_length_b   7.55923159
_cell_length_c   10.69036784
_cell_angle_alpha   90.00000000
_cell_angle_beta   90.00000000
_cell_angle_gamma   90.00000000
_symmetry_Int_Tables_number   1
_chemical_formula_structural   Cr18Fe8Ni
_chemical_formula_sum   'Cr36 Fe16 Ni2'
_cell_volume   610.86880898
_cell_formula_units_Z   2
loop_
 _symmetry_equiv_pos_site_id
 _symmetry_equiv_pos_as_xyz
  1  'x, y, z'
loop_
 _atom_site_type_symbol
 _atom_site_label
 _atom_site_symmetry_multiplicity
 _atom_site_fract_x
 _atom_site_fract_y
 _atom_site_fract_z
 _atom_site_occupancy
  Fe  Fe0  1  0.99157094  0.99215902  -0.00383725  1
  Cr  Cr1  1  0.16207701  0.16083488  0.15887888  1
  Cr  Cr2  1  -0.00546141  -0.00580476  0.32435677  1
  Cr  Cr3  1  0.99085434  0.32470292  -0.00586028  1
  Cr  Cr4  1  0.16190457  0.49233859  0.15954982  1
  Cr  Cr5  1  0.99336292  0.32536939  0.32902424  1
  Cr  Cr6  1  0.99356556  0.66335252  0.99350431  1
  Fe  Fe7  1  0.15842165  0.82735002  0.16008312  1
  Cr  Cr8  1  -0.00503109  0.66206874  0.32699360  1
  Cr  Cr9  1  0.32895091  0.99192421  -0.00483505  1
  Fe  Fe10  1  0.49609186  0.15811452  0.16039548  1
  Cr  Cr11  1  0.32892174  0.99352233  0.32661981  1
  Fe  Fe12  1  0.32853202  0.32606837  -0.00553308  1
  Cr  Cr13  1  0.49320848  0.49317750  0.16066830  1
  Cr  Cr14  1  0.32874632  0.32552046  0.32998544  1
  Cr  Cr15  1  0.32880593  0.66465624  -0.00569301  1
  Fe  Fe16  1  0.49713865  0.82866387  0.16064032  1
  Cr  Cr17  1  0.32868827  0.66278876  0.32571677  1
  Fe  Fe18  1  0.66059824  0.99169603  -0.00455680  1
  Fe  Fe19  1  0.82550159  0.15805247  0.16015863  1
  Fe  Fe20  1  0.66018882  0.99303822  0.32490209  1
  Cr  Cr21  1  0.66019733  0.32381038  -0.00536187  1
  Cr  Cr22  1  0.82651532  0.49658513  0.16171448  1
  Cr  Cr23  1  0.65990763  0.32474258  0.32689970  1
  Cr  Cr24  1  0.65924379  0.66196991  0.99238439  1
  Ni  Ni25  1  0.82330098  0.83204011  0.16128707  1
  Fe  Fe26  1  0.65995472  0.66319063  0.32558766  1
  Fe  Fe27  1  0.16280607  0.16020371  0.49470040  1
  Cr  Cr28  1  -0.00418632  -0.00508049  0.66067883  1
  Cr  Cr29  1  0.16231317  0.16103506  0.82719813  1
  Fe  Fe30  1  0.16272416  0.49392416  0.49432492  1
  Cr  Cr31  1  0.99310906  0.32652744  0.65838444  1
  Cr  Cr32  1  0.16233361  0.49146589  0.82903873  1
  Cr  Cr33  1  0.16103926  0.82900083  0.49390578  1
  Cr  Cr34  1  -0.00503137  0.66027579  0.66103190  1
  Cr  Cr35  1  0.16138372  0.82953671  0.82784093  1
  Fe  Fe36  1  0.49338053  0.15954402  0.49537562  1
  Fe  Fe37  1  0.32989961  -0.00512240  0.66016231  1
  Cr  Cr38  1  0.49253978  0.15885630  0.82677784  1
  Fe  Fe39  1  0.49337606  0.49437551  0.49406624  1
  Fe  Fe40  1  0.32717002  0.32696464  0.65783502  1
  Cr  Cr41  1  0.49177648  0.49300170  0.82874723  1
  Cr  Cr42  1  0.49604579  0.82875001  0.49383808  1
  Cr  Cr43  1  0.32842101  0.66289885  0.66190907  1
  Ni  Ni44  1  0.49428164  0.83097741  0.82687104  1
  Cr  Cr45  1  0.82555642  0.15709036  0.49307256  1
  Fe  Fe46  1  0.65828114  0.99375768  0.66073903  1
  Cr  Cr47  1  0.82686987  0.15750630  0.82900280  1
  Cr  Cr48  1  0.82534619  0.49631232  0.49248430  1
  Cr  Cr49  1  0.65972841  0.32578905  0.66046803  1
  Cr  Cr50  1  0.82743876  0.49378748  0.82721314  1
  Cr  Cr51  1  0.82513235  0.82793476  0.49377207  1
  Cr  Cr52  1  0.65823049  0.65994837  0.66249909  1
  Cr  Cr53  1  0.82501505  0.82954352  0.82512695  1
" 