8868,Ni3Fe10Cr85_8,-204.840067691965, 202.352112281662,Ni3Fe10Cr85,"# generated using pymatgen
 data_Cr47Fe5Ni2
_symmetry_space_group_name_H-M   'P 1'
_cell_length_a   7.58779410
_cell_length_b   7.58779410
_cell_length_c   10.73076133
_cell_angle_alpha   90.00000000
_cell_angle_beta   90.00000000
_cell_angle_gamma   90.00000000
_symmetry_Int_Tables_number   1
_chemical_formula_structural   Cr47Fe5Ni2
_chemical_formula_sum   'Cr47 Fe5 Ni2'
_cell_volume   617.81949824
_cell_formula_units_Z   1
loop_
 _symmetry_equiv_pos_site_id
 _symmetry_equiv_pos_as_xyz
  1  'x, y, z'
loop_
 _atom_site_type_symbol
 _atom_site_label
 _atom_site_symmetry_multiplicity
 _atom_site_fract_x
 _atom_site_fract_y
 _atom_site_fract_z
 _atom_site_occupancy
  Cr  Cr0  1  -0.00583745  0.99155533  -0.00579099  1
  Fe  Fe1  1  0.15906946  0.15734549  0.15901910  1
  Cr  Cr2  1  -0.00519484  -0.00745221  0.32343551  1
  Cr  Cr3  1  -0.00777578  0.32503953  0.99186015  1
  Cr  Cr4  1  0.16034479  0.49336204  0.15863150  1
  Cr  Cr5  1  -0.00606957  0.32442179  0.32544339  1
  Cr  Cr6  1  -0.00660560  0.65953557  -0.00685402  1
  Ni  Ni7  1  0.15927416  0.82576873  0.15779793  1
  Cr  Cr8  1  0.99191931  0.65915790  0.32420074  1
  Cr  Cr9  1  0.32367511  0.99108063  -0.00715699  1
  Cr  Cr10  1  0.49158344  0.15972020  0.15894044  1
  Cr  Cr11  1  0.32368222  -0.00686412  0.32587772  1
  Cr  Cr12  1  0.32543190  0.32533522  -0.00700068  1
  Cr  Cr13  1  0.49004959  0.49103106  0.15863105  1
  Fe  Fe14  1  0.32472223  0.32470369  0.32537339  1
  Fe  Fe15  1  0.32450293  0.65955971  -0.00708055  1
  Cr  Cr16  1  0.49001362  0.82537919  0.15829576  1
  Cr  Cr17  1  0.32580440  0.65934689  0.32514377  1
  Cr  Cr18  1  0.65829521  -0.00775084  0.99136813  1
  Cr  Cr19  1  0.82525836  0.15790367  0.15820812  1
  Cr  Cr20  1  0.65764154  0.99111712  0.32628705  1
  Cr  Cr21  1  0.65847346  0.32610854  0.99156304  1
  Cr  Cr22  1  0.82573372  0.49178210  0.15939778  1
  Cr  Cr23  1  0.65783093  0.32655102  0.32425131  1
  Cr  Cr24  1  0.65799469  0.65777291  0.99179458  1
  Cr  Cr25  1  0.82759103  0.82644398  0.15906162  1
  Cr  Cr26  1  0.65840596  0.65845929  0.32704909  1
  Fe  Fe27  1  0.15815223  0.15994688  0.49260207  1
  Cr  Cr28  1  -0.00661986  -0.00574402  0.65848559  1
  Cr  Cr29  1  0.15782007  0.15954557  0.82343382  1
  Cr  Cr30  1  0.15884903  0.49035595  0.49299414  1
  Ni  Ni31  1  -0.00722726  0.32479081  0.65819404  1
  Cr  Cr32  1  0.15888881  0.49270034  0.82450832  1
  Cr  Cr33  1  0.15926709  0.82555068  0.49247642  1
  Cr  Cr34  1  0.99154622  0.65680003  0.65878923  1
  Cr  Cr35  1  0.15929365  0.82388276  0.82685709  1
  Cr  Cr36  1  0.49097952  0.15814264  0.49121830  1
  Cr  Cr37  1  0.32533597  -0.00791752  0.65740602  1
  Cr  Cr38  1  0.49305289  0.15853584  0.82597286  1
  Cr  Cr39  1  0.49049961  0.49195593  0.49045632  1
  Cr  Cr40  1  0.32316705  0.32430764  0.65775301  1
  Cr  Cr41  1  0.49045425  0.49218571  0.82704906  1
  Fe  Fe42  1  0.49205787  0.82535076  0.49204080  1
  Cr  Cr43  1  0.32640617  0.65973745  0.65920592  1
  Cr  Cr44  1  0.49106239  0.82540967  0.82536021  1
  Cr  Cr45  1  0.82630242  0.15856289  0.49346140  1
  Cr  Cr46  1  0.65741268  0.99101760  0.65847321  1
  Cr  Cr47  1  0.82525732  0.15893804  0.82445857  1
  Cr  Cr48  1  0.82677954  0.49152995  0.49269856  1
  Cr  Cr49  1  0.66035101  0.32614357  0.66031523  1
  Cr  Cr50  1  0.82678426  0.49071117  0.82403041  1
  Cr  Cr51  1  0.82470329  0.82603870  0.49169424  1
  Cr  Cr52  1  0.65817707  0.65896747  0.65728462  1
  Cr  Cr53  1  0.82577404  0.82648124  0.82537479  1
" 