635,Ni3Fe90Cr6_19,-222.902799229807, 129.376178931366,Ni3Fe90Cr6,"# generated using pymatgen
 data_Cr5Fe48Ni
_symmetry_space_group_name_H-M   'P 1'
_cell_length_a   7.44488318
_cell_length_b   7.44488318
_cell_length_c   10.52865476
_cell_angle_alpha   90.00000000
_cell_angle_beta   90.00000000
_cell_angle_gamma   90.00000000
_symmetry_Int_Tables_number   1
_chemical_formula_structural   Cr5Fe48Ni
_chemical_formula_sum   'Cr5 Fe48 Ni1'
_cell_volume   583.56422565
_cell_formula_units_Z   1
loop_
 _symmetry_equiv_pos_site_id
 _symmetry_equiv_pos_as_xyz
  1  'x, y, z'
loop_
 _atom_site_type_symbol
 _atom_site_label
 _atom_site_symmetry_multiplicity
 _atom_site_fract_x
 _atom_site_fract_y
 _atom_site_fract_z
 _atom_site_occupancy
  Fe  Fe0  1  0.99986635  1.00148235  0.00237087  1
  Fe  Fe1  1  0.16758992  0.16838324  0.16925289  1
  Fe  Fe2  1  0.00191975  1.00125351  0.33488599  1
  Cr  Cr3  1  1.00078025  0.33616457  0.99971785  1
  Fe  Fe4  1  0.16850430  0.50198204  0.16970693  1
  Fe  Fe5  1  0.00167881  0.33482632  0.33447283  1
  Fe  Fe6  1  1.00076397  0.66990843  0.00320198  1
  Fe  Fe7  1  0.16694151  0.83407397  0.16953938  1
  Fe  Fe8  1  0.00154881  0.66842817  0.33499023  1
  Cr  Cr9  1  0.33613561  1.00080429  0.00294715  1
  Fe  Fe10  1  0.50266342  0.16898171  0.17005816  1
  Fe  Fe11  1  0.33443948  1.00124566  0.33425000  1
  Fe  Fe12  1  0.33449474  0.33435642  0.00223149  1
  Fe  Fe13  1  0.50177194  0.50119278  0.16820001  1
  Fe  Fe14  1  0.33463172  0.33484481  0.33499871  1
  Fe  Fe15  1  0.33370397  0.66617504  0.00384936  1
  Fe  Fe16  1  0.50284913  0.83381497  0.16968528  1
  Fe  Fe17  1  0.33483136  0.66835372  0.33500510  1
  Fe  Fe18  1  0.67025219  0.00177942  0.00219755  1
  Fe  Fe19  1  0.83418222  0.16772024  0.16982023  1
  Fe  Fe20  1  0.66817163  1.00109036  0.33507169  1
  Fe  Fe21  1  0.66707475  0.33297892  0.00228818  1
  Fe  Fe22  1  0.83385632  0.50201803  0.16946587  1
  Fe  Fe23  1  0.66817849  0.33520179  0.33575591  1
  Fe  Fe24  1  0.66928591  0.66951094  0.00288455  1
  Fe  Fe25  1  0.83488320  0.83519405  0.16916826  1
  Fe  Fe26  1  0.66811912  0.66816544  0.33520270  1
  Fe  Fe27  1  0.16808366  0.16802311  0.50183563  1
  Fe  Fe28  1  1.00003835  0.00308450  0.66697226  1
  Ni  Ni29  1  0.16734499  0.16823525  0.83313513  1
  Fe  Fe30  1  0.16805527  0.50141628  0.50081975  1
  Fe  Fe31  1  0.00365238  0.33453981  0.66829745  1
  Fe  Fe32  1  0.16807726  0.50031441  0.83326390  1
  Fe  Fe33  1  0.16803800  0.83506866  0.50177951  1
  Fe  Fe34  1  0.99983877  0.66714156  0.66622913  1
  Cr  Cr35  1  0.16605889  0.83459056  0.83395661  1
  Fe  Fe36  1  0.50089474  0.16733169  0.50006086  1
  Fe  Fe37  1  0.33557368  0.00293025  0.66744900  1
  Fe  Fe38  1  0.50037176  0.16646351  0.83446519  1
  Fe  Fe39  1  0.50085900  0.50208383  0.50076269  1
  Fe  Fe40  1  0.33331401  0.33391940  0.66734396  1
  Cr  Cr41  1  0.50153574  0.50223975  0.83696411  1
  Fe  Fe42  1  0.50131824  0.83510037  0.50092611  1
  Fe  Fe43  1  0.33547701  0.66791877  0.66599362  1
  Fe  Fe44  1  0.50253942  0.83640355  0.83400043  1
  Fe  Fe45  1  0.83580898  0.16734153  0.49966565  1
  Fe  Fe46  1  0.66813170  0.99985670  0.66697904  1
  Fe  Fe47  1  0.83519239  0.16575498  0.83447286  1
  Fe  Fe48  1  0.83591509  0.50213875  0.49989655  1
  Cr  Cr49  1  0.67062861  0.33418174  0.66719578  1
  Fe  Fe50  1  0.83757369  0.50388721  0.83456231  1
  Fe  Fe51  1  0.83500099  0.83501459  0.50082844  1
  Fe  Fe52  1  0.66877282  0.67022224  0.66671753  1
  Fe  Fe53  1  0.83316836  0.83524850  0.83458998  1
" 