2902,Ni40Fe17Cr42_10,-222.977340793491, 169.784301544016,Ni40Fe17Cr42,"# generated using pymatgen
 data_Cr8Fe3Ni7
_symmetry_space_group_name_H-M   'P 1'
_cell_length_a   7.49301283
_cell_length_b   7.49301283
_cell_length_c   10.59672037
_cell_angle_alpha   90.00000000
_cell_angle_beta   90.00000000
_cell_angle_gamma   90.00000000
_symmetry_Int_Tables_number   1
_chemical_formula_structural   Cr8Fe3Ni7
_chemical_formula_sum   'Cr24 Fe9 Ni21'
_cell_volume   594.95542273
_cell_formula_units_Z   3
loop_
 _symmetry_equiv_pos_site_id
 _symmetry_equiv_pos_as_xyz
  1  'x, y, z'
loop_
 _atom_site_type_symbol
 _atom_site_label
 _atom_site_symmetry_multiplicity
 _atom_site_fract_x
 _atom_site_fract_y
 _atom_site_fract_z
 _atom_site_occupancy
  Cr  Cr0  1  -0.00126984  -0.00090948  0.00070277  1
  Ni  Ni1  1  0.16228623  0.16474822  0.16483644  1
  Ni  Ni2  1  0.99686667  -0.00106005  0.33086346  1
  Cr  Cr3  1  -0.00084883  0.33049145  0.99822948  1
  Fe  Fe4  1  0.16631113  0.50036144  0.16415292  1
  Fe  Fe5  1  0.99659599  0.32874573  0.33188078  1
  Fe  Fe6  1  0.00036984  0.66515282  -0.00069804  1
  Ni  Ni7  1  0.16172269  0.82960405  0.16644980  1
  Fe  Fe8  1  0.99826496  0.66832163  0.33261691  1
  Cr  Cr9  1  0.32931966  0.99590813  0.99813731  1
  Cr  Cr10  1  0.50028873  0.16812732  0.16563821  1
  Cr  Cr11  1  0.32724274  0.99505354  0.33141472  1
  Fe  Fe12  1  0.33121493  0.33367647  -0.00037626  1
  Ni  Ni13  1  0.49701804  0.49752157  0.16292259  1
  Cr  Cr14  1  0.33076548  0.33453497  0.32950131  1
  Ni  Ni15  1  0.33121345  0.66218757  -0.00005281  1
  Cr  Cr16  1  0.49770192  0.82967572  0.16527932  1
  Ni  Ni17  1  0.32808153  0.66441000  0.32926319  1
  Cr  Cr18  1  0.66667357  0.99762842  -0.00033115  1
  Ni  Ni19  1  0.83292340  0.16463214  0.16841940  1
  Ni  Ni20  1  0.67207961  0.00006591  0.33150914  1
  Ni  Ni21  1  0.66469100  0.33423482  0.00088386  1
  Cr  Cr22  1  0.83134679  0.49824198  0.16434597  1
  Ni  Ni23  1  0.66922619  0.33098195  0.33112977  1
  Fe  Fe24  1  0.66309385  0.66443508  -0.00107548  1
  Ni  Ni25  1  0.83575181  0.83262342  0.16531610  1
  Cr  Cr26  1  0.66387579  0.66416378  0.33225477  1
  Ni  Ni27  1  0.16381910  0.16283881  0.49967715  1
  Cr  Cr28  1  -0.00059174  -0.00144604  0.66373939  1
  Fe  Fe29  1  0.16737318  0.16670488  0.83058196  1
  Cr  Cr30  1  0.16193333  0.49992437  0.49698579  1
  Cr  Cr31  1  -0.00027942  0.33237857  0.66417861  1
  Ni  Ni32  1  0.16583081  0.49784762  0.83294658  1
  Ni  Ni33  1  0.16099570  0.83308133  0.49710591  1
  Ni  Ni34  1  0.99713882  0.66417824  0.66351211  1
  Cr  Cr35  1  0.16501936  0.82953861  0.83072332  1
  Cr  Cr36  1  0.49833143  0.16359867  0.49873050  1
  Ni  Ni37  1  0.33124082  -0.00136940  0.66527884  1
  Cr  Cr38  1  0.49640341  0.16363876  0.83029495  1
  Cr  Cr39  1  0.49991993  0.49721722  0.49766682  1
  Fe  Fe40  1  0.32932259  0.32979317  0.66522715  1
  Cr  Cr41  1  0.49735519  0.49846002  0.83309702  1
  Cr  Cr42  1  0.49854986  0.83391300  0.49975442  1
  Cr  Cr43  1  0.33181223  0.66636725  0.66388132  1
  Ni  Ni44  1  0.49813993  0.83160469  0.83014108  1
  Fe  Fe45  1  0.83284756  0.16315530  0.49521618  1
  Ni  Ni46  1  0.66363206  0.99534681  0.66428947  1
  Cr  Cr47  1  0.83022872  0.16468926  0.83196472  1
  Ni  Ni48  1  0.83295945  0.49993410  0.49864142  1
  Cr  Cr49  1  0.66696819  0.33320121  0.66219723  1
  Cr  Cr50  1  0.83363850  0.50132360  0.83169013  1
  Ni  Ni51  1  0.83406193  0.83087835  0.49918209  1
  Ni  Ni52  1  0.66677917  0.66714800  0.66527347  1
  Cr  Cr53  1  0.83020064  0.82893300  0.83124589  1
" 