4546,Ni40Fe60_18,-242.538323329226, 224.185614170331,Ni40Fe60,"# generated using pymatgen
 data_Fe7Ni11
_symmetry_space_group_name_H-M   'P 1'
_cell_length_a   7.40258288
_cell_length_b   7.40258288
_cell_length_c   10.46883310
_cell_angle_alpha   90.00000000
_cell_angle_beta   90.00000000
_cell_angle_gamma   90.00000000
_symmetry_Int_Tables_number   1
_chemical_formula_structural   Fe7Ni11
_chemical_formula_sum   'Fe21 Ni33'
_cell_volume   573.67355833
_cell_formula_units_Z   3
loop_
 _symmetry_equiv_pos_site_id
 _symmetry_equiv_pos_as_xyz
  1  'x, y, z'
loop_
 _atom_site_type_symbol
 _atom_site_label
 _atom_site_symmetry_multiplicity
 _atom_site_fract_x
 _atom_site_fract_y
 _atom_site_fract_z
 _atom_site_occupancy
  Ni  Ni0  1  1.00398069  0.00489751  0.00452599  1
  Fe  Fe1  1  0.17173940  0.17088956  0.17052910  1
  Ni  Ni2  1  1.00273612  0.00538156  0.33810141  1
  Ni  Ni3  1  1.00355017  0.33726171  1.00399647  1
  Ni  Ni4  1  0.17005290  0.50494110  0.17051808  1
  Ni  Ni5  1  1.00384830  0.33719124  0.33797193  1
  Fe  Fe6  1  0.00544712  0.67008118  0.00435554  1
  Ni  Ni7  1  0.17072200  0.83742165  0.17070044  1
  Fe  Fe8  1  0.00460205  0.67100339  0.33761295  1
  Ni  Ni9  1  0.33741716  1.00313851  0.00448855  1
  Ni  Ni10  1  0.50500785  0.17003622  0.17092583  1
  Fe  Fe11  1  0.33770620  1.00431290  0.33753818  1
  Ni  Ni12  1  0.33821848  0.33936858  0.00471313  1
  Ni  Ni13  1  0.50420003  0.50450678  0.17060635  1
  Fe  Fe14  1  0.33740698  0.33739342  0.33796686  1
  Ni  Ni15  1  0.33854489  0.67055018  1.00386994  1
  Ni  Ni16  1  0.50420084  0.83851656  0.17061330  1
  Ni  Ni17  1  0.33854323  0.67015605  0.33799680  1
  Fe  Fe18  1  0.66973059  0.00524834  0.00449637  1
  Fe  Fe19  1  0.83769262  0.17089142  0.17161712  1
  Ni  Ni20  1  0.67210518  1.00427289  0.33758225  1
  Ni  Ni21  1  0.67128825  0.33837739  0.00442397  1
  Fe  Fe22  1  0.83735972  0.50418989  0.17074245  1
  Fe  Fe23  1  0.67121859  0.33726442  0.33758280  1
  Fe  Fe24  1  0.67026712  0.67033790  1.00407749  1
  Fe  Fe25  1  0.83750047  0.83798746  0.17129173  1
  Fe  Fe26  1  0.67110927  0.67130225  0.33789213  1
  Ni  Ni27  1  0.17007583  0.17083630  0.50366348  1
  Ni  Ni28  1  1.00307138  0.00478051  0.67043921  1
  Ni  Ni29  1  0.17085030  0.17098950  0.83847046  1
  Ni  Ni30  1  0.16975948  0.50412895  0.50450861  1
  Fe  Fe31  1  0.00544899  0.33714918  0.67067450  1
  Ni  Ni32  1  0.16973997  0.50375314  0.83803690  1
  Fe  Fe33  1  0.17151717  0.83781684  0.50402287  1
  Fe  Fe34  1  0.00503214  0.67107458  0.67109103  1
  Fe  Fe35  1  0.17211694  0.83764570  0.83821191  1
  Ni  Ni36  1  0.50462484  0.16938362  0.50452637  1
  Ni  Ni37  1  0.33801029  1.00378185  0.67023924  1
  Ni  Ni38  1  0.50381604  0.16957385  0.83761194  1
  Ni  Ni39  1  0.50460599  0.50524316  0.50451560  1
  Ni  Ni40  1  0.33800531  0.33946056  0.67090022  1
  Ni  Ni41  1  0.50463284  0.50486836  0.83794695  1
  Ni  Ni42  1  0.50462248  0.83843171  0.50394481  1
  Ni  Ni43  1  0.33835776  0.66981274  0.67119544  1
  Ni  Ni44  1  0.50463100  0.83862627  0.83850111  1
  Ni  Ni45  1  0.83836006  0.17083962  0.50484533  1
  Ni  Ni46  1  0.67197901  0.00442836  0.67129466  1
  Fe  Fe47  1  0.83749572  0.17163367  0.83757481  1
  Ni  Ni48  1  0.83870720  0.50412492  0.50390302  1
  Fe  Fe49  1  0.67000516  0.33709208  0.67127307  1
  Ni  Ni50  1  0.83870211  0.50455301  0.83813392  1
  Fe  Fe51  1  0.83726601  0.83865309  0.50435570  1
  Fe  Fe52  1  0.66993808  0.67162572  0.67109176  1
  Fe  Fe53  1  0.83755875  0.83789972  0.83741698  1
" 