3886,Ni40Fe51Cr7_11,-235.31794689497, 213.317635398678,Ni40Fe51Cr7,"# generated using pymatgen
 data_Cr2Fe9Ni7
_symmetry_space_group_name_H-M   'P 1'
_cell_length_a   7.41377965
_cell_length_b   7.41377965
_cell_length_c   10.48466772
_cell_angle_alpha   90.00000000
_cell_angle_beta   90.00000000
_cell_angle_gamma   90.00000000
_symmetry_Int_Tables_number   1
_chemical_formula_structural   Cr2Fe9Ni7
_chemical_formula_sum   'Cr6 Fe27 Ni21'
_cell_volume   576.28062531
_cell_formula_units_Z   3
loop_
 _symmetry_equiv_pos_site_id
 _symmetry_equiv_pos_as_xyz
  1  'x, y, z'
loop_
 _atom_site_type_symbol
 _atom_site_label
 _atom_site_symmetry_multiplicity
 _atom_site_fract_x
 _atom_site_fract_y
 _atom_site_fract_z
 _atom_site_occupancy
  Fe  Fe0  1  1.00234002  0.00497931  0.00429139  1
  Ni  Ni1  1  0.16941993  0.16969883  0.17048175  1
  Fe  Fe2  1  1.00150486  0.00657850  0.33685998  1
  Fe  Fe3  1  0.00415519  0.33453509  0.00486977  1
  Ni  Ni4  1  0.16922366  0.50385239  0.16852307  1
  Ni  Ni5  1  0.00512639  0.33696738  0.33772688  1
  Fe  Fe6  1  0.00414955  0.67098024  0.00480267  1
  Ni  Ni7  1  0.17086903  0.83706945  0.17146738  1
  Fe  Fe8  1  1.00319764  0.66778060  0.33591779  1
  Ni  Ni9  1  0.33634001  0.00396016  0.00392764  1
  Fe  Fe10  1  0.50216649  0.16928694  0.17007359  1
  Fe  Fe11  1  0.33880043  0.00588575  0.33567033  1
  Fe  Fe12  1  0.33722915  0.33429441  0.00458529  1
  Fe  Fe13  1  0.50027181  0.50191592  0.17031287  1
  Fe  Fe14  1  0.33631541  0.33657911  0.33718029  1
  Fe  Fe15  1  0.33644009  0.67060719  0.00509901  1
  Ni  Ni16  1  0.50253322  0.83879838  0.16900028  1
  Fe  Fe17  1  0.33702449  0.66838385  0.33632662  1
  Ni  Ni18  1  0.66927394  0.00512350  1.00333168  1
  Fe  Fe19  1  0.83746192  0.16937467  0.17166345  1
  Ni  Ni20  1  0.66882223  0.00375070  0.33642186  1
  Ni  Ni21  1  0.67108146  0.33464270  0.00712750  1
  Fe  Fe22  1  0.83923513  0.50173844  0.17049771  1
  Ni  Ni23  1  0.67112066  0.33593917  0.33566301  1
  Cr  Cr24  1  0.66994396  0.67166701  0.00483999  1
  Fe  Fe25  1  0.83908043  0.83966491  0.17054761  1
  Cr  Cr26  1  0.66890300  0.67048959  0.33843103  1
  Ni  Ni27  1  0.16952822  0.17123146  0.50388539  1
  Ni  Ni28  1  1.00343312  0.00554084  0.66997926  1
  Fe  Fe29  1  0.17093354  0.17196072  0.83716569  1
  Ni  Ni30  1  0.16880473  0.50329687  0.50492609  1
  Ni  Ni31  1  0.00427304  0.33547382  0.67017657  1
  Fe  Fe32  1  0.17104772  0.50152399  0.83616051  1
  Cr  Cr33  1  0.17086424  0.83763928  0.50044113  1
  Ni  Ni34  1  0.00481496  0.67017781  0.66893430  1
  Cr  Cr35  1  0.17011981  0.83652652  0.83750742  1
  Ni  Ni36  1  0.50521000  0.16979638  0.50253812  1
  Fe  Fe37  1  0.33722119  0.00640992  0.67037065  1
  Ni  Ni38  1  0.50532382  0.16980776  0.83738618  1
  Fe  Fe39  1  0.50179621  0.50123607  0.50494548  1
  Fe  Fe40  1  0.33545952  0.33533210  0.66905022  1
  Cr  Cr41  1  0.50374916  0.50113235  0.83615718  1
  Ni  Ni42  1  0.50369985  0.83841971  0.50617957  1
  Ni  Ni43  1  0.33752164  0.67054945  0.67007002  1
  Fe  Fe44  1  0.50421161  0.83940527  0.83605866  1
  Ni  Ni45  1  0.83614731  0.17174429  0.50358162  1
  Fe  Fe46  1  0.67105169  0.00438989  0.66979872  1
  Fe  Fe47  1  0.83559576  0.16931163  0.83608769  1
  Fe  Fe48  1  0.83777723  0.50111869  0.50456262  1
  Ni  Ni49  1  0.67027388  0.33499353  0.66780834  1
  Cr  Cr50  1  0.83846590  0.50171312  0.83593070  1
  Fe  Fe51  1  0.83692446  0.84009482  0.50473363  1
  Fe  Fe52  1  0.67200788  0.67107772  0.66840046  1
  Fe  Fe53  1  0.83570824  0.83954670  0.83551815  1
" 