1882,Ni40Fe6Cr53_6,-217.494977732276, 148.566059384679,Ni40Fe6Cr53,"# generated using pymatgen
 data_Cr10FeNi7
_symmetry_space_group_name_H-M   'P 1'
_cell_length_a   7.52424858
_cell_length_b   7.52424858
_cell_length_c   10.64089439
_cell_angle_alpha   90.00000000
_cell_angle_beta   90.00000000
_cell_angle_gamma   90.00000000
_symmetry_Int_Tables_number   1
_chemical_formula_structural   Cr10FeNi7
_chemical_formula_sum   'Cr30 Fe3 Ni21'
_cell_volume   602.42696451
_cell_formula_units_Z   3
loop_
 _symmetry_equiv_pos_site_id
 _symmetry_equiv_pos_as_xyz
  1  'x, y, z'
loop_
 _atom_site_type_symbol
 _atom_site_label
 _atom_site_symmetry_multiplicity
 _atom_site_fract_x
 _atom_site_fract_y
 _atom_site_fract_z
 _atom_site_occupancy
  Cr  Cr0  1  -0.00213296  -0.00350074  0.99511654  1
  Cr  Cr1  1  0.16561522  0.16305745  0.16114463  1
  Cr  Cr2  1  -0.00074679  -0.00144803  0.33084663  1
  Cr  Cr3  1  -0.00167081  0.32906752  0.99345532  1
  Cr  Cr4  1  0.16398602  0.49690283  0.16260136  1
  Ni  Ni5  1  0.99592659  0.32884924  0.32977356  1
  Ni  Ni6  1  -0.00266783  0.66296230  -0.00055337  1
  Ni  Ni7  1  0.16841673  0.83023284  0.16043348  1
  Cr  Cr8  1  0.99608140  0.66308239  0.32605747  1
  Fe  Fe9  1  0.32978250  0.99555788  0.99504094  1
  Fe  Fe10  1  0.49458037  0.16383666  0.16258456  1
  Cr  Cr11  1  0.33008945  -0.00358955  0.33024149  1
  Ni  Ni12  1  0.33165523  0.32824998  0.99575913  1
  Ni  Ni13  1  0.49747168  0.49495934  0.16339061  1
  Cr  Cr14  1  0.33003999  0.32890954  0.33259844  1
  Cr  Cr15  1  0.33307705  0.66081854  0.99574676  1
  Ni  Ni16  1  0.49248597  0.82967625  0.16130129  1
  Cr  Cr17  1  0.33322317  0.66343428  0.33207501  1
  Cr  Cr18  1  0.66050407  0.99418991  -0.00375985  1
  Cr  Cr19  1  0.82602628  0.16587048  0.16578101  1
  Cr  Cr20  1  0.65917870  0.99489968  0.33073789  1
  Cr  Cr21  1  0.66012522  0.33191477  -0.00325191  1
  Ni  Ni22  1  0.82688571  0.49401561  0.16400704  1
  Fe  Fe23  1  0.66053649  0.33097799  0.33100176  1
  Cr  Cr24  1  0.66247172  0.66287205  0.99517501  1
  Cr  Cr25  1  0.83045711  0.82896301  0.16219938  1
  Cr  Cr26  1  0.65945683  0.66279741  0.32921964  1
  Ni  Ni27  1  0.16381258  0.16297478  0.49929493  1
  Ni  Ni28  1  -0.00076385  -0.00089876  0.66259286  1
  Ni  Ni29  1  0.16555046  0.16162424  0.82757837  1
  Cr  Cr30  1  0.16274431  0.49610692  0.49842912  1
  Ni  Ni31  1  -0.00302927  0.32655216  0.66272033  1
  Cr  Cr32  1  0.16497516  0.49635168  0.82814286  1
  Cr  Cr33  1  0.16492998  0.82963276  0.49913397  1
  Ni  Ni34  1  -0.00189745  0.66268032  0.66369501  1
  Cr  Cr35  1  0.16517044  0.82933938  0.82831193  1
  Ni  Ni36  1  0.49534293  0.16231878  0.49701672  1
  Ni  Ni37  1  0.33058077  -0.00318433  0.66240765  1
  Cr  Cr38  1  0.49453899  0.16201698  0.83065678  1
  Ni  Ni39  1  0.49707127  0.49509496  0.49814872  1
  Cr  Cr40  1  0.33012093  0.32930552  0.66277887  1
  Ni  Ni41  1  0.49458334  0.49614694  0.82805936  1
  Ni  Ni42  1  0.49442283  0.83162817  0.50038035  1
  Ni  Ni43  1  0.33242557  0.66456021  0.66194786  1
  Ni  Ni44  1  0.49340423  0.83011694  0.82654304  1
  Cr  Cr45  1  0.82783140  0.16372244  0.49780948  1
  Ni  Ni46  1  0.65847454  -0.00270065  0.66165303  1
  Cr  Cr47  1  0.82769726  0.16227458  0.82374553  1
  Cr  Cr48  1  0.82980445  0.49450910  0.49585373  1
  Ni  Ni49  1  0.66040402  0.32845891  0.66066303  1
  Cr  Cr50  1  0.82966610  0.49571856  0.82774086  1
  Cr  Cr51  1  0.82849627  0.83056493  0.50096665  1
  Cr  Cr52  1  0.65841007  0.66182649  0.66386242  1
  Cr  Cr53  1  0.82911769  0.83043850  0.82588288  1
" 