2126,Ni40Fe51Cr7_13,-235.39376454199, 207.990751239472,Ni40Fe51Cr7,"# generated using pymatgen
 data_Cr2Fe9Ni7
_symmetry_space_group_name_H-M   'P 1'
_cell_length_a   7.41744953
_cell_length_b   7.41744953
_cell_length_c   10.48985773
_cell_angle_alpha   90.00000000
_cell_angle_beta   90.00000000
_cell_angle_gamma   90.00000000
_symmetry_Int_Tables_number   1
_chemical_formula_structural   Cr2Fe9Ni7
_chemical_formula_sum   'Cr6 Fe27 Ni21'
_cell_volume   577.13684109
_cell_formula_units_Z   3
loop_
 _symmetry_equiv_pos_site_id
 _symmetry_equiv_pos_as_xyz
  1  'x, y, z'
loop_
 _atom_site_type_symbol
 _atom_site_label
 _atom_site_symmetry_multiplicity
 _atom_site_fract_x
 _atom_site_fract_y
 _atom_site_fract_z
 _atom_site_occupancy
  Fe  Fe0  1  1.00314191  0.00362506  1.00292811  1
  Ni  Ni1  1  0.17052389  0.16781267  0.16824941  1
  Fe  Fe2  1  0.00362548  0.00593551  0.33454195  1
  Ni  Ni3  1  1.00285446  0.33623734  1.00232610  1
  Cr  Cr4  1  0.17249878  0.49939070  0.16857151  1
  Fe  Fe5  1  1.00248500  0.33387452  0.33615130  1
  Fe  Fe6  1  1.00214595  0.67005695  1.00248438  1
  Fe  Fe7  1  0.16995468  0.83796739  0.16762757  1
  Cr  Cr8  1  1.00061842  0.66790303  0.33427463  1
  Fe  Fe9  1  0.33745820  1.00330926  0.00377263  1
  Fe  Fe10  1  0.50353459  0.17151245  0.16915217  1
  Ni  Ni11  1  0.33854153  0.00662255  0.33551867  1
  Ni  Ni12  1  0.33645189  0.33570644  1.00213609  1
  Ni  Ni13  1  0.50567609  0.50210673  0.16909212  1
  Ni  Ni14  1  0.33629294  0.33257683  0.33776690  1
  Ni  Ni15  1  0.33788141  0.67031051  1.00318773  1
  Fe  Fe16  1  0.50499337  0.83672828  0.16942320  1
  Cr  Cr17  1  0.33845549  0.67052833  0.33568178  1
  Ni  Ni18  1  0.67014149  0.00368104  1.00321667  1
  Fe  Fe19  1  0.83684197  0.17156814  0.16757185  1
  Fe  Fe20  1  0.66828570  1.00313868  0.33555864  1
  Fe  Fe21  1  0.66930627  0.33742337  1.00137225  1
  Ni  Ni22  1  0.83246069  0.50354912  0.16748527  1
  Fe  Fe23  1  0.67014394  0.33697649  0.33618585  1
  Ni  Ni24  1  0.66968436  0.67199987  1.00225934  1
  Ni  Ni25  1  0.83568156  0.83832349  0.16824621  1
  Ni  Ni26  1  0.67118146  0.67138923  0.33627927  1
  Ni  Ni27  1  0.16926395  0.17097291  0.50467398  1
  Fe  Fe28  1  1.00268982  0.00511153  0.67274141  1
  Fe  Fe29  1  0.17043272  0.17064660  0.83739573  1
  Fe  Fe30  1  0.16827779  0.50135130  0.50498809  1
  Fe  Fe31  1  1.00148727  0.33556637  0.67095902  1
  Fe  Fe32  1  0.17029585  0.50347483  0.83791975  1
  Cr  Cr33  1  0.17077703  0.84034205  0.50254387  1
  Ni  Ni34  1  0.00485371  0.66837549  0.67208956  1
  Ni  Ni35  1  0.16983828  0.83841168  0.83809195  1
  Fe  Fe36  1  0.50361644  0.16811145  0.50376008  1
  Fe  Fe37  1  0.33742881  0.00426888  0.67044424  1
  Fe  Fe38  1  0.50418191  0.16945828  0.83694295  1
  Cr  Cr39  1  0.50507017  0.50340695  0.50341770  1
  Fe  Fe40  1  0.33706060  0.33577483  0.67117538  1
  Ni  Ni41  1  0.50390863  0.50280291  0.83789505  1
  Ni  Ni42  1  0.50378377  0.83782062  0.50440606  1
  Fe  Fe43  1  0.33808695  0.67068967  0.67305519  1
  Fe  Fe44  1  0.50409591  0.83747597  0.83655058  1
  Fe  Fe45  1  0.83602861  0.17104129  0.50497248  1
  Ni  Ni46  1  0.66840588  0.00497261  0.67022095  1
  Ni  Ni47  1  0.83671335  0.16913262  0.83752793  1
  Ni  Ni48  1  0.83550774  0.50109043  0.50467855  1
  Ni  Ni49  1  0.67002668  0.33403072  0.67186944  1
  Fe  Fe50  1  0.83664467  0.50295563  0.83666698  1
  Cr  Cr51  1  0.83506664  0.83715699  0.50566764  1
  Fe  Fe52  1  0.67039902  0.66859820  0.67219197  1
  Fe  Fe53  1  0.83573651  0.83724545  0.83663213  1
" 