7438,Ni40Fe5Cr53_4,-217.69200750475, 152.655036396015,Ni40Fe5Cr53,"# generated using pymatgen
 data_Cr10FeNi7
_symmetry_space_group_name_H-M   'P 1'
_cell_length_a   7.52263329
_cell_length_b   7.52263329
_cell_length_c   10.63861002
_cell_angle_alpha   90.00000000
_cell_angle_beta   90.00000000
_cell_angle_gamma   90.00000000
_symmetry_Int_Tables_number   1
_chemical_formula_structural   Cr10FeNi7
_chemical_formula_sum   'Cr30 Fe3 Ni21'
_cell_volume   602.03906397
_cell_formula_units_Z   3
loop_
 _symmetry_equiv_pos_site_id
 _symmetry_equiv_pos_as_xyz
  1  'x, y, z'
loop_
 _atom_site_type_symbol
 _atom_site_label
 _atom_site_symmetry_multiplicity
 _atom_site_fract_x
 _atom_site_fract_y
 _atom_site_fract_z
 _atom_site_occupancy
  Cr  Cr0  1  -0.00274244  -0.00313001  -0.00338032  1
  Cr  Cr1  1  0.16546743  0.16707977  0.16152312  1
  Cr  Cr2  1  -0.00183160  0.99593915  0.32907720  1
  Ni  Ni3  1  0.99547584  0.33078164  0.99610983  1
  Cr  Cr4  1  0.16401755  0.49785392  0.15931925  1
  Cr  Cr5  1  0.99335184  0.33146843  0.32921724  1
  Fe  Fe6  1  0.99522298  0.66141943  -0.00305651  1
  Ni  Ni7  1  0.16458899  0.82559598  0.16364606  1
  Cr  Cr8  1  0.99555887  0.66179794  0.32975890  1
  Cr  Cr9  1  0.33005582  -0.00291593  -0.00327478  1
  Ni  Ni10  1  0.49584916  0.16743314  0.16319113  1
  Cr  Cr11  1  0.32821340  -0.00332057  0.32677160  1
  Ni  Ni12  1  0.33136880  0.33172980  0.99485120  1
  Cr  Cr13  1  0.49611465  0.49615735  0.16368194  1
  Ni  Ni14  1  0.33334519  0.33237207  0.32955069  1
  Ni  Ni15  1  0.33252050  0.66203952  0.99517289  1
  Cr  Cr16  1  0.49585775  0.82641121  0.16272679  1
  Ni  Ni17  1  0.33084100  0.66119874  0.33103089  1
  Cr  Cr18  1  0.66145616  -0.00333385  0.99490558  1
  Cr  Cr19  1  0.82600875  0.16730169  0.16282785  1
  Cr  Cr20  1  0.66236250  -0.00108254  0.32691626  1
  Ni  Ni21  1  0.66200475  0.33430995  -0.00217490  1
  Ni  Ni22  1  0.82774840  0.49677013  0.16153488  1
  Ni  Ni23  1  0.66085134  0.33517525  0.32950028  1
  Ni  Ni24  1  0.66168556  0.65963276  0.99408267  1
  Cr  Cr25  1  0.82826637  0.82469814  0.16128163  1
  Ni  Ni26  1  0.66202810  0.65710888  0.33080735  1
  Cr  Cr27  1  0.16450771  0.16615333  0.49860237  1
  Cr  Cr28  1  -0.00314269  0.99593966  0.66335021  1
  Ni  Ni29  1  0.16323715  0.16683008  0.82914606  1
  Cr  Cr30  1  0.16562201  0.49528415  0.49711478  1
  Ni  Ni31  1  0.99599049  0.33022424  0.66318411  1
  Cr  Cr32  1  0.16496730  0.49290411  0.83221004  1
  Fe  Fe33  1  0.16375615  0.82851505  0.49518673  1
  Cr  Cr34  1  0.99481081  0.66063344  0.66219218  1
  Cr  Cr35  1  0.16294363  0.82647982  0.83109600  1
  Cr  Cr36  1  0.49704155  0.16460737  0.49608333  1
  Cr  Cr37  1  0.33073076  0.99577224  0.66550856  1
  Cr  Cr38  1  0.49659470  0.16600082  0.82908849  1
  Fe  Fe39  1  0.49837352  0.49412769  0.49557793  1
  Ni  Ni40  1  0.33121606  0.33054924  0.66470719  1
  Ni  Ni41  1  0.49611204  0.49623230  0.83018156  1
  Cr  Cr42  1  0.49668041  0.82815106  0.49505023  1
  Cr  Cr43  1  0.33254554  0.66042265  0.66303399  1
  Ni  Ni44  1  0.49901493  0.82658990  0.83071602  1
  Cr  Cr45  1  0.82711772  0.16500629  0.49882462  1
  Ni  Ni46  1  0.66250955  0.99576168  0.66588075  1
  Cr  Cr47  1  0.83026800  0.16404402  0.82685888  1
  Ni  Ni48  1  0.82760720  0.49490114  0.49588196  1
  Ni  Ni49  1  0.66198981  0.33150221  0.66177881  1
  Cr  Cr50  1  0.82972268  0.49552281  0.83194703  1
  Cr  Cr51  1  0.82641424  0.82919027  0.49689162  1
  Cr  Cr52  1  0.66203670  0.66006943  0.66462389  1
  Ni  Ni53  1  0.82613801  0.82858662  0.83017759  1
" 