5095,Ni40Fe49Cr9_6,-236.341135153951, 211.026506748773,Ni40Fe49Cr9,"# generated using pymatgen
 data_Cr3Fe13Ni11
_symmetry_space_group_name_H-M   'P 1'
_cell_length_a   7.42627299
_cell_length_b   7.42627299
_cell_length_c   10.50233598
_cell_angle_alpha   90.00000000
_cell_angle_beta   90.00000000
_cell_angle_gamma   90.00000000
_symmetry_Int_Tables_number   1
_chemical_formula_structural   Cr3Fe13Ni11
_chemical_formula_sum   'Cr6 Fe26 Ni22'
_cell_volume   579.19889812
_cell_formula_units_Z   2
loop_
 _symmetry_equiv_pos_site_id
 _symmetry_equiv_pos_as_xyz
  1  'x, y, z'
loop_
 _atom_site_type_symbol
 _atom_site_label
 _atom_site_symmetry_multiplicity
 _atom_site_fract_x
 _atom_site_fract_y
 _atom_site_fract_z
 _atom_site_occupancy
  Fe  Fe0  1  1.00233934  0.00320945  0.00276969  1
  Cr  Cr1  1  0.16829149  0.16780163  0.16901738  1
  Ni  Ni2  1  1.00077006  1.00088784  0.33557747  1
  Fe  Fe3  1  1.00227250  0.33514897  1.00166474  1
  Ni  Ni4  1  0.17101816  0.50549904  0.16917474  1
  Fe  Fe5  1  1.00020197  0.33587491  0.33673282  1
  Cr  Cr6  1  1.00265902  0.66886475  0.00371182  1
  Ni  Ni7  1  0.16939948  0.83473120  0.17097643  1
  Fe  Fe8  1  1.00150640  0.66925920  0.33543907  1
  Ni  Ni9  1  0.33741827  1.00265772  0.00298909  1
  Ni  Ni10  1  0.50627118  0.16988588  0.16806139  1
  Fe  Fe11  1  0.33801579  1.00227279  0.33579381  1
  Fe  Fe12  1  0.33589137  0.33631194  0.00297220  1
  Ni  Ni13  1  0.50321552  0.50298501  0.16877575  1
  Cr  Cr14  1  0.33743276  0.33606562  0.33684418  1
  Fe  Fe15  1  0.33605509  0.67043773  0.00378182  1
  Fe  Fe16  1  0.50245541  0.83658677  0.16923627  1
  Fe  Fe17  1  0.33676083  0.67002357  0.33473891  1
  Fe  Fe18  1  0.66951278  0.00305412  0.00313084  1
  Ni  Ni19  1  0.83336482  0.16826251  0.17042058  1
  Ni  Ni20  1  0.67008502  0.00315889  0.33553676  1
  Fe  Fe21  1  0.67007678  0.33481830  0.00374160  1
  Fe  Fe22  1  0.83516707  0.50156988  0.16977452  1
  Ni  Ni23  1  0.66998984  0.33536318  0.33529343  1
  Fe  Fe24  1  0.66834989  0.67036293  0.00370244  1
  Ni  Ni25  1  0.83588618  0.83779271  0.16978492  1
  Fe  Fe26  1  0.66996661  0.67002023  0.33577597  1
  Ni  Ni27  1  0.16890376  0.17123991  0.50335479  1
  Fe  Fe28  1  1.00005095  0.00383576  0.66968620  1
  Fe  Fe29  1  0.16838158  0.17070993  0.83658152  1
  Ni  Ni30  1  0.16972511  0.50185788  0.50444197  1
  Fe  Fe31  1  0.00279505  0.33629825  0.66984064  1
  Ni  Ni32  1  0.16948806  0.50326592  0.83463363  1
  Cr  Cr33  1  0.16757660  0.83568206  0.50100497  1
  Ni  Ni34  1  1.00198996  0.66811344  0.67040615  1
  Ni  Ni35  1  0.16920659  0.83585799  0.83589667  1
  Ni  Ni36  1  0.50474334  0.17040453  0.50316063  1
  Cr  Cr37  1  0.33745124  0.00497758  0.66899120  1
  Fe  Fe38  1  0.50345765  0.16911611  0.83628872  1
  Fe  Fe39  1  0.50296818  0.50246571  0.50338722  1
  Ni  Ni40  1  0.33565158  0.33669604  0.66916558  1
  Cr  Cr41  1  0.50230661  0.50237463  0.83498249  1
  Fe  Fe42  1  0.50489434  0.83629578  0.50214241  1
  Fe  Fe43  1  0.33580084  0.66719925  0.66970267  1
  Fe  Fe44  1  0.50338147  0.83677598  0.83685850  1
  Fe  Fe45  1  0.83603950  0.16890781  0.50241639  1
  Ni  Ni46  1  0.67037883  0.00321190  0.66977480  1
  Ni  Ni47  1  0.83556729  0.16876807  0.83538750  1
  Fe  Fe48  1  0.83647874  0.50232873  0.50358099  1
  Ni  Ni49  1  0.66927558  0.33497463  0.66849132  1
  Ni  Ni50  1  0.83628929  0.50135215  0.83513139  1
  Ni  Ni51  1  0.83446786  0.83667243  0.50405307  1
  Fe  Fe52  1  0.67045264  0.66992968  0.66875261  1
  Fe  Fe53  1  0.83614965  0.83602698  0.83471327  1
" 