8746,Ni40Fe6Cr53_10,-217.314158646648, 143.838146026328,Ni40Fe6Cr53,"# generated using pymatgen
 data_Cr10FeNi7
_symmetry_space_group_name_H-M   'P 1'
_cell_length_a   7.52826494
_cell_length_b   7.52826494
_cell_length_c   10.64657437
_cell_angle_alpha   90.00000000
_cell_angle_beta   90.00000000
_cell_angle_gamma   90.00000000
_symmetry_Int_Tables_number   1
_chemical_formula_structural   Cr10FeNi7
_chemical_formula_sum   'Cr30 Fe3 Ni21'
_cell_volume   603.39218511
_cell_formula_units_Z   3
loop_
 _symmetry_equiv_pos_site_id
 _symmetry_equiv_pos_as_xyz
  1  'x, y, z'
loop_
 _atom_site_type_symbol
 _atom_site_label
 _atom_site_symmetry_multiplicity
 _atom_site_fract_x
 _atom_site_fract_y
 _atom_site_fract_z
 _atom_site_occupancy
  Ni  Ni0  1  0.99550605  -0.00239945  -0.00112598  1
  Ni  Ni1  1  0.16196063  0.16437465  0.16000250  1
  Cr  Cr2  1  0.99281985  -0.00366192  0.32867286  1
  Ni  Ni3  1  -0.00402881  0.32951949  -0.00143671  1
  Cr  Cr4  1  0.16056456  0.49299065  0.16313717  1
  Ni  Ni5  1  -0.00380973  0.32674203  0.32657123  1
  Ni  Ni6  1  0.99365392  0.66124492  -0.00346382  1
  Cr  Cr7  1  0.16092675  0.83206353  0.15867596  1
  Cr  Cr8  1  0.99345521  0.66176462  0.32570373  1
  Ni  Ni9  1  0.32908161  -0.00253771  -0.00179931  1
  Ni  Ni10  1  0.49476664  0.16351706  0.16030095  1
  Cr  Cr11  1  0.33028198  0.99581243  0.32296410  1
  Ni  Ni12  1  0.32853098  0.32903221  0.99543065  1
  Cr  Cr13  1  0.49834697  0.49365995  0.16299568  1
  Ni  Ni14  1  0.32686150  0.32622795  0.32656444  1
  Cr  Cr15  1  0.33030428  0.66242383  0.99395952  1
  Ni  Ni16  1  0.49886779  0.83152730  0.15921651  1
  Cr  Cr17  1  0.32932166  0.66292959  0.32722948  1
  Cr  Cr18  1  0.66192364  0.99525441  -0.00057856  1
  Ni  Ni19  1  0.83092640  0.16407130  0.16099120  1
  Cr  Cr20  1  0.66430249  0.99492963  0.32686146  1
  Ni  Ni21  1  0.66312260  0.33087875  -0.00216901  1
  Ni  Ni22  1  0.83011510  0.49462271  0.15872313  1
  Cr  Cr23  1  0.66634590  0.32671521  0.32769692  1
  Ni  Ni24  1  0.66338266  0.66170976  -0.00247265  1
  Ni  Ni25  1  0.82919385  0.82867042  0.15816004  1
  Cr  Cr26  1  0.66472775  0.66554084  0.32434594  1
  Cr  Cr27  1  0.16307280  0.16176470  0.49355165  1
  Fe  Fe28  1  0.99530182  0.99476781  0.66294131  1
  Cr  Cr29  1  0.16141832  0.16234672  0.83509307  1
  Cr  Cr30  1  0.16300668  0.49556423  0.49282152  1
  Cr  Cr31  1  -0.00387604  0.32865467  0.66292868  1
  Ni  Ni32  1  0.16251876  0.49686473  0.83100801  1
  Cr  Cr33  1  0.16042001  0.82876326  0.49882904  1
  Fe  Fe34  1  0.99545437  0.66066236  0.66470258  1
  Cr  Cr35  1  0.16019116  0.82969469  0.83054546  1
  Cr  Cr36  1  0.49497128  0.16460811  0.49328429  1
  Cr  Cr37  1  0.33035004  0.99465233  0.66630062  1
  Cr  Cr38  1  0.49641837  0.16361595  0.83414710  1
  Cr  Cr39  1  0.49620403  0.49567176  0.49499086  1
  Cr  Cr40  1  0.32800094  0.33333159  0.66670033  1
  Ni  Ni41  1  0.49573034  0.49871454  0.83024285  1
  Cr  Cr42  1  0.49693903  0.82795315  0.49592731  1
  Ni  Ni43  1  0.32975341  0.66260990  0.66607167  1
  Ni  Ni44  1  0.49610783  0.82573902  0.82987354  1
  Fe  Fe45  1  0.83117636  0.16202867  0.49503653  1
  Cr  Cr46  1  0.66453736  -0.00394844  0.66041220  1
  Cr  Cr47  1  0.83061473  0.16201288  0.83196858  1
  Cr  Cr48  1  0.82869296  0.49824446  0.49461186  1
  Cr  Cr49  1  0.66376091  0.33053488  0.66433532  1
  Cr  Cr50  1  0.82764688  0.49631490  0.83444938  1
  Ni  Ni51  1  0.83057625  0.82885769  0.49972107  1
  Ni  Ni52  1  0.66148768  0.66478201  0.66430041  1
  Cr  Cr53  1  0.82851654  0.82801430  0.83049240  1
" 