1911,Ni40Fe17Cr42_5,-222.60673459207, 167.33968758565,Ni40Fe17Cr42,"# generated using pymatgen
 data_Cr8Fe3Ni7
_symmetry_space_group_name_H-M   'P 1'
_cell_length_a   7.49814575
_cell_length_b   7.49814575
_cell_length_c   10.60397942
_cell_angle_alpha   90.00000000
_cell_angle_beta   90.00000000
_cell_angle_gamma   90.00000000
_symmetry_Int_Tables_number   1
_chemical_formula_structural   Cr8Fe3Ni7
_chemical_formula_sum   'Cr24 Fe9 Ni21'
_cell_volume   596.17894247
_cell_formula_units_Z   3
loop_
 _symmetry_equiv_pos_site_id
 _symmetry_equiv_pos_as_xyz
  1  'x, y, z'
loop_
 _atom_site_type_symbol
 _atom_site_label
 _atom_site_symmetry_multiplicity
 _atom_site_fract_x
 _atom_site_fract_y
 _atom_site_fract_z
 _atom_site_occupancy
  Ni  Ni0  1  0.99616879  0.99487366  0.99369370  1
  Cr  Cr1  1  0.16410981  0.16344619  0.15775130  1
  Cr  Cr2  1  0.00139083  -0.00112903  0.33172085  1
  Fe  Fe3  1  0.99630853  0.33356262  0.99651931  1
  Ni  Ni4  1  0.16624812  0.50113450  0.16266164  1
  Cr  Cr5  1  0.00085731  0.33378823  0.33009306  1
  Ni  Ni6  1  0.99672411  0.66462819  0.99673170  1
  Cr  Cr7  1  0.16484130  0.83066387  0.16294102  1
  Ni  Ni8  1  0.99774762  0.66090037  0.33242032  1
  Ni  Ni9  1  0.33367925  0.99760556  0.99532158  1
  Cr  Cr10  1  0.49963209  0.16447588  0.16305576  1
  Ni  Ni11  1  0.33486321  -0.00056580  0.33216697  1
  Ni  Ni12  1  0.33362092  0.33202769  -0.00010287  1
  Ni  Ni13  1  0.49624226  0.49922157  0.16151156  1
  Cr  Cr14  1  0.33103837  0.33033740  0.32917037  1
  Ni  Ni15  1  0.33229450  0.66451139  -0.00070296  1
  Fe  Fe16  1  0.49666012  0.83087684  0.16103762  1
  Fe  Fe17  1  0.32949790  0.66370240  0.32817800  1
  Ni  Ni18  1  0.66373621  0.99689659  0.99548103  1
  Cr  Cr19  1  0.82957501  0.16386610  0.16078191  1
  Fe  Fe20  1  0.66233937  -0.00056573  0.33006744  1
  Ni  Ni21  1  0.66240941  0.33203801  0.99572898  1
  Cr  Cr22  1  0.83074649  0.49732403  0.16099694  1
  Fe  Fe23  1  0.66378600  0.33213054  0.32956205  1
  Ni  Ni24  1  0.66488921  0.66469685  0.99666293  1
  Cr  Cr25  1  0.83171499  0.83306726  0.16339193  1
  Cr  Cr26  1  0.66422563  0.66329137  0.32693582  1
  Ni  Ni27  1  0.16535170  0.16538582  0.49790621  1
  Cr  Cr28  1  0.99779332  -0.00057731  0.66850024  1
  Cr  Cr29  1  0.16387502  0.16511704  0.83674555  1
  Fe  Fe30  1  0.16436504  0.49679864  0.49816303  1
  Ni  Ni31  1  0.99726252  0.33283267  0.66418978  1
  Cr  Cr32  1  0.16543020  0.49973389  0.83383097  1
  Cr  Cr33  1  0.16607519  0.82902108  0.49826842  1
  Cr  Cr34  1  0.99528136  0.66348927  0.66551496  1
  Ni  Ni35  1  0.16526865  0.83003882  0.83429261  1
  Ni  Ni36  1  0.49860218  0.16667203  0.49608690  1
  Cr  Cr37  1  0.33288396  -0.00041619  0.66735782  1
  Ni  Ni38  1  0.50074520  0.16447118  0.83391644  1
  Cr  Cr39  1  0.49911006  0.49783237  0.50085465  1
  Cr  Cr40  1  0.33039811  0.32763964  0.66414819  1
  Cr  Cr41  1  0.49776327  0.49696560  0.83316956  1
  Cr  Cr42  1  0.49634941  0.83029163  0.49614927  1
  Fe  Fe43  1  0.33045423  0.66622960  0.66823942  1
  Ni  Ni44  1  0.49652097  0.83124043  0.83612404  1
  Cr  Cr45  1  0.82881697  0.16674598  0.49738730  1
  Cr  Cr46  1  0.66284377  0.99631184  0.66841133  1
  Ni  Ni47  1  0.82954992  0.16633081  0.83412579  1
  Fe  Fe48  1  0.83118417  0.49666188  0.49882306  1
  Fe  Fe49  1  0.66710823  0.32903640  0.66791904  1
  Ni  Ni50  1  0.83131412  0.49589662  0.83244186  1
  Cr  Cr51  1  0.83090985  0.83088636  0.49491571  1
  Cr  Cr52  1  0.66579525  0.66568988  0.67060070  1
  Ni  Ni53  1  0.83161894  0.83088647  0.83615821  1
" 