1106,Ni40Fe60_12,-242.265062943511, 225.113025094389,Ni40Fe60,"# generated using pymatgen
 data_Fe7Ni11
_symmetry_space_group_name_H-M   'P 1'
_cell_length_a   7.40281795
_cell_length_b   7.40281795
_cell_length_c   10.46916554
_cell_angle_alpha   90.00000000
_cell_angle_beta   90.00000000
_cell_angle_gamma   90.00000000
_symmetry_Int_Tables_number   1
_chemical_formula_structural   Fe7Ni11
_chemical_formula_sum   'Fe21 Ni33'
_cell_volume   573.72821095
_cell_formula_units_Z   3
loop_
 _symmetry_equiv_pos_site_id
 _symmetry_equiv_pos_as_xyz
  1  'x, y, z'
loop_
 _atom_site_type_symbol
 _atom_site_label
 _atom_site_symmetry_multiplicity
 _atom_site_fract_x
 _atom_site_fract_y
 _atom_site_fract_z
 _atom_site_occupancy
  Fe  Fe0  1  0.00504086  0.00448442  1.00411552  1
  Fe  Fe1  1  0.17171993  0.17058909  0.17034873  1
  Ni  Ni2  1  1.00352775  1.00416702  0.33692267  1
  Ni  Ni3  1  1.00394947  0.33796142  1.00417852  1
  Fe  Fe4  1  0.17218198  0.50404277  0.17062917  1
  Fe  Fe5  1  1.00405084  0.33759484  0.33780564  1
  Fe  Fe6  1  0.00498322  0.67121192  1.00352465  1
  Fe  Fe7  1  0.17209229  0.83838352  0.17130318  1
  Fe  Fe8  1  1.00427103  0.67145022  0.33818704  1
  Ni  Ni9  1  0.33825697  1.00323926  0.00452578  1
  Ni  Ni10  1  0.50459026  0.17101274  0.17098165  1
  Ni  Ni11  1  0.33728091  1.00344015  0.33729718  1
  Ni  Ni12  1  0.33654574  0.33868837  1.00370016  1
  Ni  Ni13  1  0.50373035  0.50371428  0.17181189  1
  Ni  Ni14  1  0.33811136  0.33868073  0.33786686  1
  Ni  Ni15  1  0.33776275  0.67108755  1.00433335  1
  Ni  Ni16  1  0.50460813  0.83828415  0.17108564  1
  Ni  Ni17  1  0.33847427  0.67089711  0.33750230  1
  Ni  Ni18  1  0.67168098  1.00358031  1.00431750  1
  Ni  Ni19  1  0.83689492  0.17053825  0.17082259  1
  Ni  Ni20  1  0.67221014  1.00380888  0.33822364  1
  Fe  Fe21  1  0.66999390  0.33722098  0.00478031  1
  Fe  Fe22  1  0.83593582  0.50404450  0.17122042  1
  Ni  Ni23  1  0.67137857  0.33830635  0.33672401  1
  Fe  Fe24  1  0.67043743  0.67124915  0.00498865  1
  Ni  Ni25  1  0.83726011  0.83839480  0.17176172  1
  Ni  Ni26  1  0.67064457  0.67090121  0.33739958  1
  Fe  Fe27  1  0.17152117  0.17069700  0.50513666  1
  Ni  Ni28  1  1.00423675  0.00448694  0.67212563  1
  Ni  Ni29  1  0.17205863  0.17137808  0.83721585  1
  Ni  Ni30  1  0.16986840  0.50461684  0.50486370  1
  Ni  Ni31  1  1.00338830  0.33731257  0.67072039  1
  Ni  Ni32  1  0.17046831  0.50367619  0.83732612  1
  Ni  Ni33  1  0.17190389  0.83712990  0.50439672  1
  Fe  Fe34  1  0.00535153  0.67020488  0.67130729  1
  Ni  Ni35  1  0.17084906  0.83795985  0.83789204  1
  Ni  Ni36  1  0.50436905  0.17009371  0.50373238  1
  Ni  Ni37  1  0.33647263  1.00292931  0.67118816  1
  Fe  Fe38  1  0.50353102  0.17100139  0.83759421  1
  Fe  Fe39  1  0.50370162  0.50469025  0.50362112  1
  Ni  Ni40  1  0.33732802  0.33887079  0.67144366  1
  Fe  Fe41  1  0.50325383  0.50477353  0.83802765  1
  Ni  Ni42  1  0.50351864  0.83953412  0.50398854  1
  Ni  Ni43  1  0.33768310  0.67121674  0.67118488  1
  Fe  Fe44  1  0.50325431  0.83723946  0.83797007  1
  Fe  Fe45  1  0.83780218  0.17102662  0.50383944  1
  Fe  Fe46  1  0.67019858  0.00514528  0.67094111  1
  Fe  Fe47  1  0.83949185  0.17122687  0.83795716  1
  Ni  Ni48  1  0.83876701  0.50376597  0.50366957  1
  Ni  Ni49  1  0.67230373  0.33852455  0.67175974  1
  Ni  Ni50  1  0.83835463  0.50451695  0.83852118  1
  Fe  Fe51  1  0.83775555  0.83766904  0.50382437  1
  Fe  Fe52  1  0.67123624  0.67048365  0.67065218  1
  Ni  Ni53  1  0.83797971  0.83711778  0.83700410  1
" 