723,Ni40Fe51Cr7_19,-235.299343641656, 213.012619071811,Ni40Fe51Cr7,"# generated using pymatgen
 data_Cr2Fe9Ni7
_symmetry_space_group_name_H-M   'P 1'
_cell_length_a   7.41728766
_cell_length_b   7.41728766
_cell_length_c   10.48962881
_cell_angle_alpha   90.00000000
_cell_angle_beta   90.00000000
_cell_angle_gamma   90.00000000
_symmetry_Int_Tables_number   1
_chemical_formula_structural   Cr2Fe9Ni7
_chemical_formula_sum   'Cr6 Fe27 Ni21'
_cell_volume   577.09905804
_cell_formula_units_Z   3
loop_
 _symmetry_equiv_pos_site_id
 _symmetry_equiv_pos_as_xyz
  1  'x, y, z'
loop_
 _atom_site_type_symbol
 _atom_site_label
 _atom_site_symmetry_multiplicity
 _atom_site_fract_x
 _atom_site_fract_y
 _atom_site_fract_z
 _atom_site_occupancy
  Fe  Fe0  1  1.00227298  1.00212407  0.00475609  1
  Ni  Ni1  1  0.16987038  0.17231921  0.16978610  1
  Ni  Ni2  1  1.00333019  0.00357317  0.33739166  1
  Fe  Fe3  1  0.00337805  0.33717129  0.00573906  1
  Ni  Ni4  1  0.17017534  0.50269100  0.16914865  1
  Ni  Ni5  1  0.00345171  0.33631776  0.33549155  1
  Ni  Ni6  1  0.00482654  0.67114028  0.00384796  1
  Fe  Fe7  1  0.16963126  0.83713906  0.16962724  1
  Ni  Ni8  1  0.00370011  0.67017261  0.33659645  1
  Fe  Fe9  1  0.33755946  1.00236759  0.00387088  1
  Ni  Ni10  1  0.50284895  0.16879333  0.17085283  1
  Fe  Fe11  1  0.33537025  0.00380335  0.33636329  1
  Fe  Fe12  1  0.33662793  0.33709230  0.00536703  1
  Fe  Fe13  1  0.50146251  0.50289032  0.17141605  1
  Ni  Ni14  1  0.33657443  0.33659537  0.33713178  1
  Fe  Fe15  1  0.33567305  0.67060632  0.00427113  1
  Ni  Ni16  1  0.50447580  0.83728047  0.17021174  1
  Ni  Ni17  1  0.33656111  0.67013401  0.33599709  1
  Fe  Fe18  1  0.67023225  1.00307516  0.00357951  1
  Ni  Ni19  1  0.83734311  0.16816191  0.17040111  1
  Fe  Fe20  1  0.67089606  1.00316432  0.33661282  1
  Cr  Cr21  1  0.66993670  0.33514681  1.00334911  1
  Fe  Fe22  1  0.83880458  0.50312039  0.17140267  1
  Fe  Fe23  1  0.67067558  0.33656358  0.33673364  1
  Cr  Cr24  1  0.67015361  0.67071498  0.00346576  1
  Ni  Ni25  1  0.83604610  0.83758042  0.17061336  1
  Fe  Fe26  1  0.67058764  0.67033010  0.33624622  1
  Ni  Ni27  1  0.16954672  0.17177680  0.50193057  1
  Fe  Fe28  1  1.00017592  1.00157542  0.66844679  1
  Cr  Cr29  1  0.17018909  0.16973148  0.83835047  1
  Ni  Ni30  1  0.17177879  0.50331924  0.50355558  1
  Cr  Cr31  1  1.00137908  0.33672728  0.66859980  1
  Cr  Cr32  1  0.17184742  0.50530775  0.83739483  1
  Fe  Fe33  1  0.16810743  0.83610971  0.50278184  1
  Fe  Fe34  1  1.00203609  0.67273395  0.66934510  1
  Ni  Ni35  1  0.16812123  0.83484079  0.83731057  1
  Fe  Fe36  1  0.50436822  0.17101497  0.50319358  1
  Cr  Cr37  1  0.33710698  1.00252417  0.66819031  1
  Ni  Ni38  1  0.50603117  0.17081523  0.83613303  1
  Fe  Fe39  1  0.50309327  0.50270848  0.50384800  1
  Fe  Fe40  1  0.34072464  0.33770961  0.66820854  1
  Ni  Ni41  1  0.50317855  0.50294194  0.83449630  1
  Fe  Fe42  1  0.50409195  0.83634099  0.50220367  1
  Fe  Fe43  1  0.33806702  0.66887421  0.66920413  1
  Fe  Fe44  1  0.50258700  0.83691537  0.83688869  1
  Ni  Ni45  1  0.83626756  0.16762454  0.50325819  1
  Ni  Ni46  1  0.67046994  0.00410318  0.67167520  1
  Fe  Fe47  1  0.83434085  0.16881030  0.83611826  1
  Fe  Fe48  1  0.83710780  0.50341699  0.50264811  1
  Ni  Ni49  1  0.66892234  0.33638378  0.67071848  1
  Fe  Fe50  1  0.83562755  0.50391599  0.83600673  1
  Ni  Ni51  1  0.83608493  0.83752745  0.50411980  1
  Fe  Fe52  1  0.66996239  0.66997833  0.67031961  1
  Fe  Fe53  1  0.83745381  0.83733627  0.83591642  1
" 