2028,Ni40Fe17Cr42_19,-222.746018774312, 172.930946222177,Ni40Fe17Cr42,"# generated using pymatgen
 data_Cr8Fe3Ni7
_symmetry_space_group_name_H-M   'P 1'
_cell_length_a   7.49313330
_cell_length_b   7.49313330
_cell_length_c   10.59689073
_cell_angle_alpha   90.00000000
_cell_angle_beta   90.00000000
_cell_angle_gamma   90.00000000
_symmetry_Int_Tables_number   1
_chemical_formula_structural   Cr8Fe3Ni7
_chemical_formula_sum   'Cr24 Fe9 Ni21'
_cell_volume   594.98411773
_cell_formula_units_Z   3
loop_
 _symmetry_equiv_pos_site_id
 _symmetry_equiv_pos_as_xyz
  1  'x, y, z'
loop_
 _atom_site_type_symbol
 _atom_site_label
 _atom_site_symmetry_multiplicity
 _atom_site_fract_x
 _atom_site_fract_y
 _atom_site_fract_z
 _atom_site_occupancy
  Cr  Cr0  1  -0.00116730  0.99700143  0.00081092  1
  Ni  Ni1  1  0.16609928  0.16606530  0.16199118  1
  Cr  Cr2  1  0.99779947  0.99745960  0.32915837  1
  Ni  Ni3  1  0.00177103  0.33025121  0.99696161  1
  Cr  Cr4  1  0.16735118  0.49820505  0.16466779  1
  Cr  Cr5  1  0.99779907  0.32923755  0.33130380  1
  Cr  Cr6  1  -0.00020201  0.66733501  0.99801326  1
  Fe  Fe7  1  0.16709045  0.82981261  0.16487821  1
  Ni  Ni8  1  -0.00100938  0.67024408  0.33230588  1
  Cr  Cr9  1  0.33085355  0.99543352  0.99613848  1
  Cr  Cr10  1  0.49827458  0.16394880  0.16369408  1
  Cr  Cr11  1  0.32918362  0.99799507  0.33102009  1
  Ni  Ni12  1  0.33272355  0.33365151  0.99635131  1
  Ni  Ni13  1  0.49711194  0.50036537  0.16448008  1
  Cr  Cr14  1  0.33530643  0.33250165  0.33294995  1
  Ni  Ni15  1  0.33526210  0.66350155  -0.00153248  1
  Ni  Ni16  1  0.49835242  0.82958865  0.16295153  1
  Ni  Ni17  1  0.33182268  0.66737997  0.32950315  1
  Ni  Ni18  1  0.66314601  0.99502314  -0.00035858  1
  Cr  Cr19  1  0.82893274  0.16535717  0.16264909  1
  Fe  Fe20  1  0.66391185  0.99767833  0.33096768  1
  Ni  Ni21  1  0.66052166  0.33411489  0.99744582  1
  Cr  Cr22  1  0.83160513  0.49773650  0.16176595  1
  Ni  Ni23  1  0.66297806  0.33108766  0.33461617  1
  Ni  Ni24  1  0.66019515  0.66558952  0.99808104  1
  Ni  Ni25  1  0.82734379  0.83104548  0.16572033  1
  Cr  Cr26  1  0.66333766  0.66303249  0.32979617  1
  Ni  Ni27  1  0.16647833  0.16353878  0.49994676  1
  Cr  Cr28  1  0.00079403  0.99762176  0.66450003  1
  Fe  Fe29  1  0.16759254  0.16520676  0.83326155  1
  Cr  Cr30  1  0.16516472  0.50152454  0.49671660  1
  Cr  Cr31  1  -0.00024877  0.32899386  0.66674399  1
  Ni  Ni32  1  0.16809054  0.49886523  0.83385331  1
  Fe  Fe33  1  0.16440579  0.83290426  0.49875405  1
  Fe  Fe34  1  -0.00135964  0.66517227  0.66631455  1
  Ni  Ni35  1  0.16921829  0.82940738  0.82935073  1
  Ni  Ni36  1  0.49877256  0.16177640  0.49786614  1
  Fe  Fe37  1  0.33314121  -0.00134216  0.66636770  1
  Fe  Fe38  1  0.49751236  0.16525032  0.83365293  1
  Fe  Fe39  1  0.49856710  0.49768015  0.49731893  1
  Cr  Cr40  1  0.33319837  0.33048503  0.66561820  1
  Ni  Ni41  1  0.49653430  0.50098864  0.83365382  1
  Cr  Cr42  1  0.49681022  0.83197817  0.49830499  1
  Cr  Cr43  1  0.33401429  0.66404090  0.66657334  1
  Ni  Ni44  1  0.49641461  0.83138304  0.83275981  1
  Ni  Ni45  1  0.82985275  0.16349572  0.49547760  1
  Cr  Cr46  1  0.66481266  -0.00127936  0.66453549  1
  Cr  Cr47  1  0.82946190  0.16554727  0.83720914  1
  Cr  Cr48  1  0.83343558  0.49996233  0.49973069  1
  Cr  Cr49  1  0.66194512  0.33416089  0.66323796  1
  Cr  Cr50  1  0.83206849  0.49837923  0.83327117  1
  Fe  Fe51  1  0.83186992  0.83278907  0.49786093  1
  Ni  Ni52  1  0.66314285  0.66601198  0.66576155  1
  Cr  Cr53  1  0.82792064  0.83081992  0.83103265  1
" 