8454,Ni40Fe60_16,-242.428937331267, 222.262103143113,Ni40Fe60,"# generated using pymatgen
 data_Fe7Ni11
_symmetry_space_group_name_H-M   'P 1'
_cell_length_a   7.40388980
_cell_length_b   7.40388980
_cell_length_c   10.47068137
_cell_angle_alpha   90.00000000
_cell_angle_beta   90.00000000
_cell_angle_gamma   90.00000000
_symmetry_Int_Tables_number   1
_chemical_formula_structural   Fe7Ni11
_chemical_formula_sum   'Fe21 Ni33'
_cell_volume   573.97745752
_cell_formula_units_Z   3
loop_
 _symmetry_equiv_pos_site_id
 _symmetry_equiv_pos_as_xyz
  1  'x, y, z'
loop_
 _atom_site_type_symbol
 _atom_site_label
 _atom_site_symmetry_multiplicity
 _atom_site_fract_x
 _atom_site_fract_y
 _atom_site_fract_z
 _atom_site_occupancy
  Fe  Fe0  1  0.00539480  0.00493540  1.00344618  1
  Ni  Ni1  1  0.17109098  0.17019437  0.17124800  1
  Fe  Fe2  1  1.00404217  1.00417742  0.33822601  1
  Fe  Fe3  1  0.00616540  0.33769724  1.00325831  1
  Fe  Fe4  1  0.17096226  0.50360459  0.16980384  1
  Fe  Fe5  1  0.00431129  0.33664636  0.33832478  1
  Ni  Ni6  1  1.00364552  0.67148324  1.00375369  1
  Fe  Fe7  1  0.17109370  0.83855708  0.17157593  1
  Ni  Ni8  1  1.00403867  0.67047459  0.33860886  1
  Ni  Ni9  1  0.33802571  0.00455918  1.00414420  1
  Ni  Ni10  1  0.50429582  0.17093621  0.17156238  1
  Ni  Ni11  1  0.33847821  0.00454298  0.33777418  1
  Ni  Ni12  1  0.33966377  0.33646729  0.00496512  1
  Fe  Fe13  1  0.50404974  0.50243322  0.17079701  1
  Fe  Fe14  1  0.33827269  0.33747557  0.33779145  1
  Ni  Ni15  1  0.33573281  0.67202444  1.00327902  1
  Fe  Fe16  1  0.50317523  0.83926307  0.17198291  1
  Ni  Ni17  1  0.33536797  0.67161914  0.33793985  1
  Fe  Fe18  1  0.66999541  0.00441665  0.00481125  1
  Ni  Ni19  1  0.83797711  0.17088302  0.17018481  1
  Ni  Ni20  1  0.67048408  0.00639192  0.33845107  1
  Ni  Ni21  1  0.67145692  0.33638392  1.00287336  1
  Fe  Fe22  1  0.83765825  0.50217790  0.17117848  1
  Ni  Ni23  1  0.67152710  0.33631550  0.33867971  1
  Fe  Fe24  1  0.66891573  0.67041351  1.00296590  1
  Fe  Fe25  1  0.83803345  0.83900264  0.17047834  1
  Fe  Fe26  1  0.66984272  0.67183446  0.33879212  1
  Ni  Ni27  1  0.17080115  0.16903437  0.50317836  1
  Ni  Ni28  1  0.00527201  0.00427027  0.67061173  1
  Ni  Ni29  1  0.17156512  0.17119130  0.83844188  1
  Fe  Fe30  1  0.17125278  0.50333648  0.50542220  1
  Ni  Ni31  1  1.00411873  0.33790787  0.67182013  1
  Ni  Ni32  1  0.17169526  0.50436129  0.83707222  1
  Ni  Ni33  1  0.17124820  0.83785677  0.50448940  1
  Ni  Ni34  1  1.00253482  0.67063371  0.67071180  1
  Fe  Fe35  1  0.17028769  0.83799804  0.83661038  1
  Ni  Ni36  1  0.50378522  0.17065297  0.50383246  1
  Ni  Ni37  1  0.33777621  0.00573978  0.67093268  1
  Ni  Ni38  1  0.50376513  0.17124856  0.83766121  1
  Ni  Ni39  1  0.50500896  0.50517301  0.50368042  1
  Ni  Ni40  1  0.33827283  0.33574641  0.67017790  1
  Ni  Ni41  1  0.50342373  0.50467864  0.83758052  1
  Ni  Ni42  1  0.50269117  0.83708021  0.50440315  1
  Fe  Fe43  1  0.33678563  0.67037304  0.67042234  1
  Fe  Fe44  1  0.50449204  0.83804362  0.83643348  1
  Ni  Ni45  1  0.83863301  0.17186573  0.50457940  1
  Fe  Fe46  1  0.67170430  0.00482658  0.67024266  1
  Ni  Ni47  1  0.83811206  0.16998145  0.83809670  1
  Ni  Ni48  1  0.83729789  0.50449908  0.50394901  1
  Fe  Fe49  1  0.67155186  0.33765997  0.67117514  1
  Ni  Ni50  1  0.83766739  0.50523635  0.83867572  1
  Fe  Fe51  1  0.83692075  0.83851615  0.50501300  1
  Ni  Ni52  1  0.67207534  0.67008429  0.67068608  1
  Ni  Ni53  1  0.83788279  0.83741274  0.83752284  1
" 