1692,Ni40Fe5Cr53_17,-217.144995774013, 138.755500942894,Ni40Fe5Cr53,"# generated using pymatgen
 data_Cr10FeNi7
_symmetry_space_group_name_H-M   'P 1'
_cell_length_a   7.52829204
_cell_length_b   7.52829204
_cell_length_c   10.64661271
_cell_angle_alpha   90.00000000
_cell_angle_beta   90.00000000
_cell_angle_gamma   90.00000000
_symmetry_Int_Tables_number   1
_chemical_formula_structural   Cr10FeNi7
_chemical_formula_sum   'Cr30 Fe3 Ni21'
_cell_volume   603.39870280
_cell_formula_units_Z   3
loop_
 _symmetry_equiv_pos_site_id
 _symmetry_equiv_pos_as_xyz
  1  'x, y, z'
loop_
 _atom_site_type_symbol
 _atom_site_label
 _atom_site_symmetry_multiplicity
 _atom_site_fract_x
 _atom_site_fract_y
 _atom_site_fract_z
 _atom_site_occupancy
  Cr  Cr0  1  0.99460101  0.99303983  0.99570035  1
  Cr  Cr1  1  0.16531310  0.16236372  0.16554777  1
  Cr  Cr2  1  -0.00192008  0.99508924  0.32963430  1
  Cr  Cr3  1  0.99504646  0.33207436  0.99329010  1
  Cr  Cr4  1  0.16128334  0.49642479  0.16388101  1
  Ni  Ni5  1  -0.00192651  0.33028262  0.33091621  1
  Ni  Ni6  1  0.99481038  0.66349944  0.99550955  1
  Ni  Ni7  1  0.16086200  0.82845802  0.16355370  1
  Ni  Ni8  1  0.99479997  0.66177122  0.32717207  1
  Cr  Cr9  1  0.33181702  0.99452960  -0.00366540  1
  Ni  Ni10  1  0.49499782  0.15960167  0.16381204  1
  Ni  Ni11  1  0.32995346  -0.00148246  0.32898305  1
  Cr  Cr12  1  0.33113925  0.33000633  0.99582504  1
  Cr  Cr13  1  0.49675066  0.49602904  0.16353501  1
  Fe  Fe14  1  0.32878956  0.32590037  0.33009780  1
  Cr  Cr15  1  0.32827228  0.66315150  0.99226247  1
  Fe  Fe16  1  0.49751778  0.83068912  0.16194355  1
  Cr  Cr17  1  0.32926533  0.66453366  0.32873659  1
  Ni  Ni18  1  0.66077430  0.99440018  -0.00392100  1
  Cr  Cr19  1  0.82806982  0.16072272  0.16051707  1
  Cr  Cr20  1  0.65998399  0.99488191  0.32782455  1
  Cr  Cr21  1  0.66163328  0.32840770  0.99226967  1
  Cr  Cr22  1  0.82964219  0.50007197  0.16381457  1
  Cr  Cr23  1  0.66153931  0.32923040  0.33039182  1
  Ni  Ni24  1  0.66366156  0.66504290  0.99568896  1
  Ni  Ni25  1  0.82873691  0.82640413  0.16213032  1
  Ni  Ni26  1  0.66416800  0.66349357  0.32741276  1
  Ni  Ni27  1  0.16469313  0.16440693  0.49338245  1
  Cr  Cr28  1  -0.00355527  -0.00186904  0.66260292  1
  Cr  Cr29  1  0.16156786  0.16277092  0.82896749  1
  Cr  Cr30  1  0.16205239  0.49392284  0.49468789  1
  Ni  Ni31  1  0.99483185  0.32950586  0.66409354  1
  Ni  Ni32  1  0.16193556  0.49870843  0.82838482  1
  Cr  Cr33  1  0.16349992  0.83014960  0.49697552  1
  Cr  Cr34  1  -0.00148769  0.66047085  0.66457832  1
  Ni  Ni35  1  0.16465720  0.82513124  0.82903430  1
  Ni  Ni36  1  0.49270399  0.16312821  0.49446485  1
  Cr  Cr37  1  0.33004538  0.99434740  0.66269587  1
  Ni  Ni38  1  0.49947429  0.16253748  0.82946580  1
  Cr  Cr39  1  0.49606950  0.49574684  0.49606214  1
  Cr  Cr40  1  0.33008301  0.33067717  0.66292607  1
  Ni  Ni41  1  0.49674404  0.49722390  0.82810694  1
  Cr  Cr42  1  0.49559351  0.82927913  0.49587643  1
  Ni  Ni43  1  0.32977831  0.66163157  0.66682479  1
  Ni  Ni44  1  0.49519543  0.82805952  0.83059397  1
  Cr  Cr45  1  0.83064256  0.16441390  0.49861981  1
  Cr  Cr46  1  0.66128172  -0.00112222  0.66342847  1
  Ni  Ni47  1  0.82620912  0.16538667  0.82811900  1
  Cr  Cr48  1  0.82964985  0.49616847  0.49438118  1
  Fe  Fe49  1  0.66293797  0.32907820  0.66532348  1
  Ni  Ni50  1  0.82912155  0.49458451  0.82933422  1
  Cr  Cr51  1  0.82874302  0.82732318  0.49362128  1
  Cr  Cr52  1  0.66000091  0.66046349  0.66329474  1
  Cr  Cr53  1  0.82829733  0.82960603  0.83163846  1
" 