567,Ni40Fe5Cr53_7,-217.428366620737, 148.341510769462,Ni40Fe5Cr53,"# generated using pymatgen
 data_Cr10FeNi7
_symmetry_space_group_name_H-M   'P 1'
_cell_length_a   7.52523082
_cell_length_b   7.52523082
_cell_length_c   10.64228348
_cell_angle_alpha   90.00000000
_cell_angle_beta   90.00000000
_cell_angle_gamma   90.00000000
_symmetry_Int_Tables_number   1
_chemical_formula_structural   Cr10FeNi7
_chemical_formula_sum   'Cr30 Fe3 Ni21'
_cell_volume   602.66292350
_cell_formula_units_Z   3
loop_
 _symmetry_equiv_pos_site_id
 _symmetry_equiv_pos_as_xyz
  1  'x, y, z'
loop_
 _atom_site_type_symbol
 _atom_site_label
 _atom_site_symmetry_multiplicity
 _atom_site_fract_x
 _atom_site_fract_y
 _atom_site_fract_z
 _atom_site_occupancy
  Ni  Ni0  1  0.99251571  0.99519415  0.99460057  1
  Cr  Cr1  1  0.16302570  0.16186640  0.16242151  1
  Cr  Cr2  1  -0.00307577  0.99398044  0.32993857  1
  Cr  Cr3  1  0.99547951  0.32848548  -0.00214305  1
  Ni  Ni4  1  0.16211421  0.49784166  0.16085443  1
  Cr  Cr5  1  0.99370581  0.33128943  0.32965625  1
  Cr  Cr6  1  0.99466771  0.66547550  -0.00018954  1
  Ni  Ni7  1  0.16328264  0.82953378  0.16370024  1
  Cr  Cr8  1  0.99509674  0.66327283  0.32765581  1
  Cr  Cr9  1  0.32813925  0.99455967  -0.00324784  1
  Cr  Cr10  1  0.49885393  0.15935485  0.16383308  1
  Ni  Ni11  1  0.33059838  0.99196847  0.32806684  1
  Ni  Ni12  1  0.33128085  0.33002236  -0.00300012  1
  Cr  Cr13  1  0.49869141  0.49691402  0.16004059  1
  Cr  Cr14  1  0.32949363  0.32969473  0.32881635  1
  Cr  Cr15  1  0.33017654  0.66516541  -0.00324550  1
  Ni  Ni16  1  0.49726738  0.83074263  0.16300244  1
  Cr  Cr17  1  0.32842734  0.66492621  0.32829314  1
  Ni  Ni18  1  0.66388203  0.99388319  0.99238696  1
  Cr  Cr19  1  0.82671953  0.16123735  0.16198284  1
  Ni  Ni20  1  0.66342411  0.99435832  0.33219191  1
  Ni  Ni21  1  0.66456223  0.32899137  -0.00384781  1
  Ni  Ni22  1  0.82907997  0.49672503  0.16136887  1
  Cr  Cr23  1  0.66609284  0.33073809  0.33380852  1
  Ni  Ni24  1  0.66288899  0.66526476  -0.00369638  1
  Cr  Cr25  1  0.82565332  0.83090312  0.16039495  1
  Cr  Cr26  1  0.66501909  0.66270087  0.33008096  1
  Cr  Cr27  1  0.16093897  0.16026117  0.49688420  1
  Ni  Ni28  1  0.99222046  0.99527441  0.66250530  1
  Cr  Cr29  1  0.15870423  0.16315543  0.82922688  1
  Cr  Cr30  1  0.16300404  0.49867054  0.50121267  1
  Ni  Ni31  1  0.99133454  0.32761497  0.66151951  1
  Cr  Cr32  1  0.16215788  0.49709711  0.82614499  1
  Ni  Ni33  1  0.16001850  0.82865425  0.49763156  1
  Ni  Ni34  1  0.99413886  0.66604800  0.66013927  1
  Cr  Cr35  1  0.15914950  0.82804100  0.82560143  1
  Cr  Cr36  1  0.49814999  0.16090303  0.49254141  1
  Cr  Cr37  1  0.33036490  0.99364060  0.66317029  1
  Cr  Cr38  1  0.50034895  0.16152695  0.83253966  1
  Ni  Ni39  1  0.49649978  0.49811794  0.49778489  1
  Cr  Cr40  1  0.33157917  0.32932153  0.66379618  1
  Cr  Cr41  1  0.49659132  0.49852494  0.83142106  1
  Cr  Cr42  1  0.49690357  0.82907828  0.49456577  1
  Ni  Ni43  1  0.32963354  0.66618830  0.66194617  1
  Ni  Ni44  1  0.49976399  0.82952116  0.82967701  1
  Ni  Ni45  1  0.82978231  0.15880955  0.49798625  1
  Fe  Fe46  1  0.66595905  0.99502760  0.66346205  1
  Ni  Ni47  1  0.82903862  0.15927233  0.82901241  1
  Fe  Fe48  1  0.83087543  0.49859220  0.49814660  1
  Cr  Cr49  1  0.66490931  0.32778085  0.65966372  1
  Cr  Cr50  1  0.83041337  0.49717518  0.83057278  1
  Ni  Ni51  1  0.83098844  0.83216828  0.49873854  1
  Cr  Cr52  1  0.66240256  0.66449545  0.66259240  1
  Fe  Fe53  1  0.82830839  0.83119156  0.82903514  1
" 