70,Ni40Fe6Cr53_13,-217.631664497342, 151.168892822277,Ni40Fe6Cr53,"# generated using pymatgen
 data_Cr10FeNi7
_symmetry_space_group_name_H-M   'P 1'
_cell_length_a   7.52247221
_cell_length_b   7.52247221
_cell_length_c   10.63838222
_cell_angle_alpha   90.00000000
_cell_angle_beta   90.00000000
_cell_angle_gamma   90.00000000
_symmetry_Int_Tables_number   1
_chemical_formula_structural   Cr10FeNi7
_chemical_formula_sum   'Cr30 Fe3 Ni21'
_cell_volume   602.00039142
_cell_formula_units_Z   3
loop_
 _symmetry_equiv_pos_site_id
 _symmetry_equiv_pos_as_xyz
  1  'x, y, z'
loop_
 _atom_site_type_symbol
 _atom_site_label
 _atom_site_symmetry_multiplicity
 _atom_site_fract_x
 _atom_site_fract_y
 _atom_site_fract_z
 _atom_site_occupancy
  Ni  Ni0  1  -0.00088254  0.99233602  -0.00251539  1
  Ni  Ni1  1  0.16395863  0.15935573  0.16399613  1
  Ni  Ni2  1  0.00092834  0.99494028  0.32837217  1
  Cr  Cr3  1  0.99612080  0.32621765  -0.00289259  1
  Cr  Cr4  1  0.16302728  0.49739445  0.16289258  1
  Ni  Ni5  1  -0.00233753  0.32597847  0.32968289  1
  Cr  Cr6  1  0.99549850  0.66836369  0.99170547  1
  Ni  Ni7  1  0.16572364  0.83323724  0.16308906  1
  Cr  Cr8  1  -0.00251291  0.66590908  0.33518652  1
  Cr  Cr9  1  0.32918264  0.99437953  -0.00300989  1
  Cr  Cr10  1  0.49419003  0.15819988  0.16430602  1
  Ni  Ni11  1  0.32802142  0.99538379  0.32940710  1
  Ni  Ni12  1  0.33016912  0.33124962  0.00057496  1
  Fe  Fe13  1  0.49494635  0.50091018  0.16131979  1
  Cr  Cr14  1  0.32972018  0.32691754  0.32924987  1
  Ni  Ni15  1  0.33235904  0.66681430  -0.00161688  1
  Ni  Ni16  1  0.49451525  0.82636999  0.16450425  1
  Cr  Cr17  1  0.33021959  0.66712861  0.32947546  1
  Cr  Cr18  1  0.66391683  0.99255088  0.99538073  1
  Cr  Cr19  1  0.83520637  0.15926392  0.16596015  1
  Fe  Fe20  1  0.66111619  0.99397908  0.33065601  1
  Cr  Cr21  1  0.66089209  0.33066095  -0.00367551  1
  Cr  Cr22  1  0.82816034  0.49959491  0.16342663  1
  Cr  Cr23  1  0.66116964  0.32954587  0.32866783  1
  Ni  Ni24  1  0.65891812  0.66581482  0.99618313  1
  Cr  Cr25  1  0.82885094  0.82980379  0.16608712  1
  Ni  Ni26  1  0.66186531  0.66663444  0.32789612  1
  Cr  Cr27  1  0.16363162  0.15961255  0.49514787  1
  Cr  Cr28  1  -0.00333052  0.99080874  0.66634016  1
  Cr  Cr29  1  0.16509340  0.16089619  0.83272847  1
  Fe  Fe30  1  0.16313666  0.49696169  0.49446616  1
  Cr  Cr31  1  0.99399015  0.33238993  0.66209775  1
  Cr  Cr32  1  0.16487282  0.49745912  0.82973783  1
  Ni  Ni33  1  0.16270261  0.83395946  0.49532404  1
  Cr  Cr34  1  -0.00323411  0.66586081  0.66140023  1
  Ni  Ni35  1  0.16592517  0.82995715  0.83113579  1
  Ni  Ni36  1  0.49612739  0.15933678  0.49774536  1
  Ni  Ni37  1  0.33136524  0.99328061  0.66245748  1
  Cr  Cr38  1  0.49508962  0.16062373  0.82339222  1
  Cr  Cr39  1  0.49754207  0.49805401  0.49606149  1
  Cr  Cr40  1  0.33126291  0.32763055  0.65875540  1
  Cr  Cr41  1  0.49489026  0.49915348  0.83302545  1
  Cr  Cr42  1  0.49712664  0.83363673  0.49549429  1
  Cr  Cr43  1  0.32629869  0.66826710  0.66101287  1
  Ni  Ni44  1  0.49580941  0.82925126  0.82905197  1
  Cr  Cr45  1  0.82785168  0.15877171  0.49443600  1
  Ni  Ni46  1  0.66162630  0.99496716  0.66110795  1
  Cr  Cr47  1  0.82895201  0.16118605  0.82875234  1
  Cr  Cr48  1  0.82892759  0.49729893  0.49516533  1
  Ni  Ni49  1  0.66251918  0.32745875  0.66275931  1
  Ni  Ni50  1  0.82673145  0.49951055  0.82953682  1
  Ni  Ni51  1  0.83004230  0.83157987  0.49351764  1
  Cr  Cr52  1  0.66554461  0.66566157  0.66549827  1
  Ni  Ni53  1  0.82762871  0.82855833  0.83060925  1
" 