3900,Ni40Fe51Cr7_2,-235.724974356515, 205.328434322378,Ni40Fe51Cr7,"# generated using pymatgen
 data_Cr2Fe9Ni7
_symmetry_space_group_name_H-M   'P 1'
_cell_length_a   7.42586540
_cell_length_b   7.42586540
_cell_length_c   10.50175956
_cell_angle_alpha   90.00000000
_cell_angle_beta   90.00000000
_cell_angle_gamma   90.00000000
_symmetry_Int_Tables_number   1
_chemical_formula_structural   Cr2Fe9Ni7
_chemical_formula_sum   'Cr6 Fe27 Ni21'
_cell_volume   579.10353546
_cell_formula_units_Z   3
loop_
 _symmetry_equiv_pos_site_id
 _symmetry_equiv_pos_as_xyz
  1  'x, y, z'
loop_
 _atom_site_type_symbol
 _atom_site_label
 _atom_site_symmetry_multiplicity
 _atom_site_fract_x
 _atom_site_fract_y
 _atom_site_fract_z
 _atom_site_occupancy
  Cr  Cr0  1  0.00304655  1.00196096  1.00182926  1
  Cr  Cr1  1  0.17177559  0.16985746  0.17077237  1
  Fe  Fe2  1  1.00270065  1.00073409  0.33694952  1
  Ni  Ni3  1  0.00302411  0.33882590  1.00121808  1
  Ni  Ni4  1  0.17047057  0.50474809  0.16948244  1
  Fe  Fe5  1  0.00408615  0.33792132  0.33688227  1
  Fe  Fe6  1  1.00170287  0.66841949  0.00328008  1
  Ni  Ni7  1  0.16893373  0.83299463  0.16916896  1
  Fe  Fe8  1  0.00305603  0.66966268  0.33500297  1
  Fe  Fe9  1  0.33878137  1.00232051  1.00201556  1
  Ni  Ni10  1  0.50287796  0.17095681  0.16869631  1
  Ni  Ni11  1  0.33752672  1.00247520  0.33509735  1
  Fe  Fe12  1  0.33704208  0.33661294  1.00261241  1
  Ni  Ni13  1  0.50208373  0.50212692  0.16892368  1
  Fe  Fe14  1  0.33657338  0.33609733  0.33552234  1
  Fe  Fe15  1  0.33629399  0.66938980  0.00330122  1
  Fe  Fe16  1  0.50216762  0.83594661  0.16939569  1
  Ni  Ni17  1  0.33586391  0.67005120  0.33421007  1
  Ni  Ni18  1  0.66725692  1.00171935  1.00240800  1
  Cr  Cr19  1  0.83377211  0.16873676  0.16910061  1
  Fe  Fe20  1  0.66760344  1.00147620  0.33652684  1
  Fe  Fe21  1  0.66884295  0.33656114  1.00220234  1
  Fe  Fe22  1  0.83634289  0.50430528  0.16896650  1
  Fe  Fe23  1  0.66766065  0.33573954  0.33643794  1
  Ni  Ni24  1  0.66915754  0.66937562  0.00356866  1
  Ni  Ni25  1  0.83614326  0.83378775  0.17022043  1
  Fe  Fe26  1  0.66942927  0.67110267  0.33547733  1
  Fe  Fe27  1  0.17011748  0.16935304  0.50340795  1
  Ni  Ni28  1  0.00300956  0.00550455  0.66972935  1
  Ni  Ni29  1  0.16943911  0.17094783  0.83460526  1
  Fe  Fe30  1  0.16955235  0.50155200  0.50144905  1
  Fe  Fe31  1  0.00314498  0.33450741  0.67017657  1
  Fe  Fe32  1  0.17010279  0.50241273  0.83734769  1
  Cr  Cr33  1  0.16993999  0.83677735  0.50330816  1
  Cr  Cr34  1  1.00194086  0.66974406  0.67062969  1
  Fe  Fe35  1  0.17123288  0.83696711  0.83558079  1
  Ni  Ni36  1  0.50268781  0.16898415  0.50328720  1
  Ni  Ni37  1  0.33614070  0.00328382  0.67017655  1
  Fe  Fe38  1  0.50294258  0.16825931  0.83597647  1
  Cr  Cr39  1  0.50196329  0.50339276  0.50429476  1
  Fe  Fe40  1  0.33560192  0.33510921  0.67018684  1
  Fe  Fe41  1  0.50331323  0.50386409  0.83583313  1
  Ni  Ni42  1  0.50486306  0.83715995  0.50306860  1
  Ni  Ni43  1  0.33832150  0.67024434  0.67074753  1
  Ni  Ni44  1  0.50397224  0.83521268  0.83519047  1
  Fe  Fe45  1  0.83526998  0.16874414  0.50299835  1
  Fe  Fe46  1  0.66897779  1.00138753  0.66958883  1
  Fe  Fe47  1  0.83567647  0.16939264  0.83563799  1
  Fe  Fe48  1  0.83552876  0.50245637  0.50256785  1
  Ni  Ni49  1  0.67033040  0.33591200  0.67061215  1
  Fe  Fe50  1  0.83490337  0.50233456  0.83678695  1
  Ni  Ni51  1  0.83432113  0.83712477  0.50257358  1
  Ni  Ni52  1  0.66811375  0.66921537  0.66917733  1
  Ni  Ni53  1  0.83411203  0.83598607  0.83552777  1
" 