249,Ni40Cr60_3,-223.653249715036, 139.618123759167,Ni40Cr60,"# generated using pymatgen
 data_Cr7Ni11
_symmetry_space_group_name_H-M   'P 1'
_cell_length_a   7.50095336
_cell_length_b   7.50095336
_cell_length_c   10.60794997
_cell_angle_alpha   90.00000000
_cell_angle_beta   90.00000000
_cell_angle_gamma   90.00000000
_symmetry_Int_Tables_number   1
_chemical_formula_structural   Cr7Ni11
_chemical_formula_sum   'Cr21 Ni33'
_cell_volume   596.84889337
_cell_formula_units_Z   3
loop_
 _symmetry_equiv_pos_site_id
 _symmetry_equiv_pos_as_xyz
  1  'x, y, z'
loop_
 _atom_site_type_symbol
 _atom_site_label
 _atom_site_symmetry_multiplicity
 _atom_site_fract_x
 _atom_site_fract_y
 _atom_site_fract_z
 _atom_site_occupancy
  Ni  Ni0  1  -0.00170726  0.99703185  0.99692296  1
  Ni  Ni1  1  0.16456392  0.16349511  0.16490816  1
  Cr  Cr2  1  -0.00174029  -0.00161441  0.33240913  1
  Ni  Ni3  1  -0.00164478  0.33106496  0.99604798  1
  Ni  Ni4  1  0.16005491  0.49828608  0.16485167  1
  Ni  Ni5  1  -0.00063078  0.33195511  0.33207021  1
  Ni  Ni6  1  -0.00157317  0.66508716  0.99718841  1
  Ni  Ni7  1  0.16246245  0.83147854  0.16447140  1
  Ni  Ni8  1  -0.00130417  0.66316586  0.32989841  1
  Cr  Cr9  1  0.33009128  -0.00212143  -0.00126234  1
  Ni  Ni10  1  0.49673457  0.16302674  0.16575864  1
  Ni  Ni11  1  0.33004800  -0.00069045  0.32747506  1
  Cr  Cr12  1  0.32873930  0.32983388  0.99746538  1
  Cr  Cr13  1  0.49976299  0.49471627  0.16464868  1
  Cr  Cr14  1  0.32735297  0.32934605  0.33051212  1
  Cr  Cr15  1  0.32852713  0.66531958  -0.00134157  1
  Ni  Ni16  1  0.49568052  0.83467482  0.16603398  1
  Cr  Cr17  1  0.32854667  0.66487276  0.32799481  1
  Cr  Cr18  1  0.66522938  0.99726210  0.99682818  1
  Cr  Cr19  1  0.83235859  0.16657700  0.16292962  1
  Cr  Cr20  1  0.66448756  0.99714761  0.33045093  1
  Ni  Ni21  1  0.66662459  0.32874576  0.99585238  1
  Cr  Cr22  1  0.83422993  0.49660543  0.16347212  1
  Ni  Ni23  1  0.66633282  0.32865856  0.33080612  1
  Cr  Cr24  1  0.66619704  0.66674237  0.99737985  1
  Ni  Ni25  1  0.83513791  0.82998540  0.16382385  1
  Cr  Cr26  1  0.66676646  0.66692002  0.32969688  1
  Ni  Ni27  1  0.16457746  0.16591361  0.49710179  1
  Cr  Cr28  1  0.99525454  -0.00157855  0.66505116  1
  Ni  Ni29  1  0.16439944  0.16365420  0.83125696  1
  Ni  Ni30  1  0.16271427  0.49727244  0.49841102  1
  Cr  Cr31  1  -0.00030159  0.33109560  0.66426680  1
  Ni  Ni32  1  0.16105538  0.49924384  0.82987029  1
  Cr  Cr33  1  0.16432880  0.83068064  0.49903978  1
  Ni  Ni34  1  0.99753862  0.66423777  0.66605428  1
  Ni  Ni35  1  0.16333715  0.83036257  0.83049539  1
  Cr  Cr36  1  0.49747595  0.16400992  0.49946949  1
  Ni  Ni37  1  0.33230595  -0.00092277  0.66736870  1
  Ni  Ni38  1  0.49895722  0.16338067  0.82810586  1
  Cr  Cr39  1  0.49746761  0.49693565  0.50107643  1
  Ni  Ni40  1  0.32985540  0.33043880  0.66505381  1
  Cr  Cr41  1  0.49934918  0.49653418  0.82760724  1
  Cr  Cr42  1  0.49663990  0.83224508  0.50133707  1
  Ni  Ni43  1  0.32941707  0.66382866  0.66649906  1
  Ni  Ni44  1  0.49719623  0.83333308  0.82651319  1
  Ni  Ni45  1  0.83076425  0.16506999  0.49741441  1
  Ni  Ni46  1  0.66436496  0.99717995  0.66605961  1
  Ni  Ni47  1  0.82995029  0.16553928  0.83226170  1
  Cr  Cr48  1  0.83207671  0.49765842  0.49657822  1
  Ni  Ni49  1  0.66431152  0.32897333  0.66637062  1
  Ni  Ni50  1  0.83297411  0.49754704  0.83161762  1
  Ni  Ni51  1  0.83172199  0.83069249  0.49964540  1
  Ni  Ni52  1  0.66613442  0.66702296  0.66618802  1
  Ni  Ni53  1  0.83275947  0.83003324  0.82994789  1
" 