3648,Ni40Fe6Cr53_19,-217.456009043882, 146.083313700884,Ni40Fe6Cr53,"# generated using pymatgen
 data_Cr10FeNi7
_symmetry_space_group_name_H-M   'P 1'
_cell_length_a   7.52669293
_cell_length_b   7.52669293
_cell_length_c   10.64435122
_cell_angle_alpha   90.00000000
_cell_angle_beta   90.00000000
_cell_angle_gamma   90.00000000
_symmetry_Int_Tables_number   1
_chemical_formula_structural   Cr10FeNi7
_chemical_formula_sum   'Cr30 Fe3 Ni21'
_cell_volume   603.01427374
_cell_formula_units_Z   3
loop_
 _symmetry_equiv_pos_site_id
 _symmetry_equiv_pos_as_xyz
  1  'x, y, z'
loop_
 _atom_site_type_symbol
 _atom_site_label
 _atom_site_symmetry_multiplicity
 _atom_site_fract_x
 _atom_site_fract_y
 _atom_site_fract_z
 _atom_site_occupancy
  Ni  Ni0  1  -0.00065098  0.99419973  -0.00376648  1
  Ni  Ni1  1  0.16665115  0.15937268  0.16238858  1
  Ni  Ni2  1  0.00125909  0.99317153  0.32921458  1
  Cr  Cr3  1  -0.00012870  0.33005434  -0.00360057  1
  Cr  Cr4  1  0.16507978  0.49779260  0.16330533  1
  Cr  Cr5  1  -0.00010165  0.32809909  0.32918847  1
  Fe  Fe6  1  -0.00167480  0.66494284  0.99528130  1
  Fe  Fe7  1  0.16377654  0.83262741  0.16444030  1
  Ni  Ni8  1  -0.00037293  0.66658781  0.32814499  1
  Ni  Ni9  1  0.32639542  -0.00310385  -0.00191495  1
  Ni  Ni10  1  0.48814101  0.16174392  0.16258400  1
  Ni  Ni11  1  0.32706253  0.99574716  0.32923201  1
  Ni  Ni12  1  0.32636650  0.32719425  -0.00305198  1
  Cr  Cr13  1  0.49412805  0.49584818  0.16484979  1
  Ni  Ni14  1  0.32934008  0.32648808  0.32823995  1
  Cr  Cr15  1  0.32788351  0.66431409  0.99355761  1
  Cr  Cr16  1  0.49304489  0.82956549  0.16420217  1
  Ni  Ni17  1  0.32774938  0.66613874  0.33138377  1
  Cr  Cr18  1  0.65959646  0.99478845  0.99493235  1
  Cr  Cr19  1  0.83243162  0.15885377  0.16252997  1
  Cr  Cr20  1  0.65795672  -0.00378952  0.33040045  1
  Cr  Cr21  1  0.66074528  0.32768011  -0.00192298  1
  Cr  Cr22  1  0.82888986  0.50036860  0.16510770  1
  Cr  Cr23  1  0.66054421  0.32663206  0.32917967  1
  Cr  Cr24  1  0.66225387  0.66521838  0.99346665  1
  Cr  Cr25  1  0.83323112  0.82908140  0.16312555  1
  Ni  Ni26  1  0.66097322  0.66529093  0.33069877  1
  Cr  Cr27  1  0.16573108  0.15852336  0.49719332  1
  Fe  Fe28  1  -0.00099848  0.99327899  0.66232118  1
  Cr  Cr29  1  0.16511264  0.16207285  0.82863699  1
  Cr  Cr30  1  0.16625941  0.49865519  0.49598921  1
  Cr  Cr31  1  -0.00236047  0.33053926  0.66279522  1
  Ni  Ni32  1  0.16537038  0.49630934  0.82919751  1
  Ni  Ni33  1  0.16626987  0.83026574  0.49394023  1
  Cr  Cr34  1  -0.00017878  0.66319823  0.66422526  1
  Cr  Cr35  1  0.16377166  0.83204892  0.82954394  1
  Ni  Ni36  1  0.49202324  0.16157197  0.49663851  1
  Ni  Ni37  1  0.33062116  0.99338891  0.66093767  1
  Cr  Cr38  1  0.49242559  0.16210800  0.82954099  1
  Cr  Cr39  1  0.49405931  0.49635493  0.49568722  1
  Ni  Ni40  1  0.33000434  0.32882541  0.66315315  1
  Cr  Cr41  1  0.49228434  0.49495809  0.82762182  1
  Ni  Ni42  1  0.49124576  0.83029058  0.49542253  1
  Ni  Ni43  1  0.32854951  0.66588984  0.66268782  1
  Ni  Ni44  1  0.49416597  0.83061351  0.82815560  1
  Cr  Cr45  1  0.82979639  0.16076012  0.49843574  1
  Cr  Cr46  1  0.65953594  0.99466745  0.66278828  1
  Cr  Cr47  1  0.83113893  0.15938677  0.82725197  1
  Cr  Cr48  1  0.82765551  0.49763972  0.49299549  1
  Ni  Ni49  1  0.65991466  0.32763376  0.66150614  1
  Cr  Cr50  1  0.82931037  0.49664613  0.82994853  1
  Cr  Cr51  1  0.83255952  0.82959410  0.49369025  1
  Cr  Cr52  1  0.66011121  0.66560522  0.66361165  1
  Ni  Ni53  1  0.83108808  0.83030367  0.83092514  1
" 