4743,Ni40Fe60_8,-242.969558697311, 223.768496064932,Ni40Fe60,"# generated using pymatgen
 data_Fe7Ni11
_symmetry_space_group_name_H-M   'P 1'
_cell_length_a   7.40764127
_cell_length_b   7.40764127
_cell_length_c   10.47598674
_cell_angle_alpha   90.00000000
_cell_angle_beta   90.00000000
_cell_angle_gamma   90.00000000
_symmetry_Int_Tables_number   1
_chemical_formula_structural   Fe7Ni11
_chemical_formula_sum   'Fe21 Ni33'
_cell_volume   574.85038297
_cell_formula_units_Z   3
loop_
 _symmetry_equiv_pos_site_id
 _symmetry_equiv_pos_as_xyz
  1  'x, y, z'
loop_
 _atom_site_type_symbol
 _atom_site_label
 _atom_site_symmetry_multiplicity
 _atom_site_fract_x
 _atom_site_fract_y
 _atom_site_fract_z
 _atom_site_occupancy
  Fe  Fe0  1  1.00353177  1.00360175  0.00434772  1
  Fe  Fe1  1  0.17015968  0.17126165  0.17119227  1
  Ni  Ni2  1  1.00284618  0.00444193  0.33742778  1
  Ni  Ni3  1  0.00488480  0.33738287  1.00396110  1
  Ni  Ni4  1  0.17130359  0.50438322  0.17127907  1
  Ni  Ni5  1  0.00465645  0.33788467  0.33721214  1
  Fe  Fe6  1  0.00430468  0.67052679  0.00409145  1
  Ni  Ni7  1  0.17096805  0.83668302  0.17163751  1
  Ni  Ni8  1  0.00434559  0.66970270  0.33646393  1
  Fe  Fe9  1  0.33771609  1.00363601  1.00386528  1
  Fe  Fe10  1  0.50423228  0.17038366  0.17048721  1
  Ni  Ni11  1  0.33833957  0.00407414  0.33657360  1
  Ni  Ni12  1  0.33567456  0.33822440  1.00369543  1
  Ni  Ni13  1  0.50319502  0.50373890  0.17170885  1
  Ni  Ni14  1  0.33616894  0.33789377  0.33731074  1
  Ni  Ni15  1  0.33794558  0.66953568  1.00358926  1
  Ni  Ni16  1  0.50357199  0.83736223  0.17039465  1
  Ni  Ni17  1  0.33684716  0.67006253  0.33743913  1
  Ni  Ni18  1  0.67116362  1.00314574  1.00357799  1
  Ni  Ni19  1  0.83684642  0.17058843  0.17114938  1
  Ni  Ni20  1  0.67084329  1.00376482  0.33734190  1
  Fe  Fe21  1  0.67012499  0.33774874  1.00386762  1
  Ni  Ni22  1  0.83752869  0.50257755  0.17051130  1
  Fe  Fe23  1  0.67096703  0.33697656  0.33689599  1
  Ni  Ni24  1  0.67032346  0.67218290  1.00380621  1
  Ni  Ni25  1  0.83749026  0.83886324  0.17181976  1
  Fe  Fe26  1  0.67045036  0.67120492  0.33668050  1
  Fe  Fe27  1  0.17144643  0.17011716  0.50327619  1
  Fe  Fe28  1  1.00393946  1.00209598  0.67077805  1
  Fe  Fe29  1  0.17089510  0.17103850  0.83756089  1
  Ni  Ni30  1  0.17088162  0.50466683  0.50375317  1
  Fe  Fe31  1  0.00402137  0.33800384  0.67082853  1
  Ni  Ni32  1  0.17199142  0.50505352  0.83699769  1
  Ni  Ni33  1  0.17137675  0.83647961  0.50376079  1
  Ni  Ni34  1  0.00403162  0.66951216  0.67155413  1
  Ni  Ni35  1  0.17004590  0.83610754  0.83663187  1
  Fe  Fe36  1  0.50276385  0.16950106  0.50440827  1
  Ni  Ni37  1  0.33854514  0.00406016  0.67130089  1
  Ni  Ni38  1  0.50575135  0.17164488  0.83707899  1
  Fe  Fe39  1  0.50271517  0.50530704  0.50415105  1
  Fe  Fe40  1  0.33802804  0.33826646  0.67118690  1
  Ni  Ni41  1  0.50277804  0.50278468  0.83645900  1
  Ni  Ni42  1  0.50334758  0.83799173  0.50474521  1
  Ni  Ni43  1  0.33703609  0.67065638  0.67100190  1
  Fe  Fe44  1  0.50437138  0.83726195  0.83697798  1
  Fe  Fe45  1  0.83781934  0.16989620  0.50357034  1
  Ni  Ni46  1  0.67016164  1.00375000  0.67110962  1
  Ni  Ni47  1  0.83577085  0.16969833  0.83679284  1
  Fe  Fe48  1  0.83830030  0.50533973  0.50367091  1
  Fe  Fe49  1  0.66998035  0.33752963  0.67126456  1
  Fe  Fe50  1  0.83741605  0.50438232  0.83754049  1
  Fe  Fe51  1  0.83768127  0.83679283  0.50422167  1
  Ni  Ni52  1  0.67096270  0.67167216  0.67089727  1
  Ni  Ni53  1  0.83804036  0.83908581  0.83668234  1
" 