8354,Ni40Fe49Cr9_13,-235.48261784255, 213.487143076853,Ni40Fe49Cr9,"# generated using pymatgen
 data_Cr3Fe13Ni11
_symmetry_space_group_name_H-M   'P 1'
_cell_length_a   7.41329785
_cell_length_b   7.41329785
_cell_length_c   10.48398636
_cell_angle_alpha   90.00000000
_cell_angle_beta   90.00000000
_cell_angle_gamma   90.00000000
_symmetry_Int_Tables_number   1
_chemical_formula_structural   Cr3Fe13Ni11
_chemical_formula_sum   'Cr6 Fe26 Ni22'
_cell_volume   576.16828052
_cell_formula_units_Z   2
loop_
 _symmetry_equiv_pos_site_id
 _symmetry_equiv_pos_as_xyz
  1  'x, y, z'
loop_
 _atom_site_type_symbol
 _atom_site_label
 _atom_site_symmetry_multiplicity
 _atom_site_fract_x
 _atom_site_fract_y
 _atom_site_fract_z
 _atom_site_occupancy
  Fe  Fe0  1  0.00565174  0.99985062  1.00213760  1
  Fe  Fe1  1  0.17116696  0.16925390  0.17269235  1
  Fe  Fe2  1  0.00584962  1.00216215  0.33905987  1
  Cr  Cr3  1  0.00561829  0.33604430  1.00330949  1
  Ni  Ni4  1  0.17092208  0.50575871  0.17230665  1
  Ni  Ni5  1  0.00607214  0.33732077  0.33873978  1
  Fe  Fe6  1  0.00512324  0.67261082  0.00594272  1
  Fe  Fe7  1  0.17099084  0.83579156  0.17286138  1
  Ni  Ni8  1  1.00156854  0.66957450  0.33690184  1
  Fe  Fe9  1  0.33485211  1.00138186  0.00563865  1
  Fe  Fe10  1  0.50230403  0.17089658  0.17327079  1
  Ni  Ni11  1  0.33846896  0.00413949  0.33685101  1
  Cr  Cr12  1  0.33665969  0.33881415  0.00469662  1
  Ni  Ni13  1  0.50343429  0.50422873  0.17217407  1
  Ni  Ni14  1  0.33549797  0.33553445  0.33743732  1
  Ni  Ni15  1  0.33866169  0.67181000  0.00419481  1
  Fe  Fe16  1  0.50339407  0.83434030  0.17313669  1
  Fe  Fe17  1  0.33605961  0.66949559  0.33788567  1
  Cr  Cr18  1  0.66931258  1.00155644  0.00413018  1
  Cr  Cr19  1  0.83713365  0.17083209  0.17304007  1
  Fe  Fe20  1  0.66979814  1.00301779  0.33871830  1
  Ni  Ni21  1  0.66926634  0.33857750  0.00636454  1
  Fe  Fe22  1  0.83630519  0.50690164  0.17225000  1
  Fe  Fe23  1  0.66871923  0.34016955  0.33844235  1
  Ni  Ni24  1  0.66830245  0.67203378  0.00492954  1
  Ni  Ni25  1  0.83893391  0.83678530  0.17192109  1
  Ni  Ni26  1  0.67019692  0.67328705  0.33752874  1
  Fe  Fe27  1  0.17110111  0.16953277  0.50400242  1
  Ni  Ni28  1  1.00034208  1.00328579  0.66929082  1
  Ni  Ni29  1  0.16980636  0.16515720  0.83485857  1
  Fe  Fe30  1  0.17096378  0.50475692  0.50296568  1
  Ni  Ni31  1  0.00547872  0.33633157  0.66940382  1
  Fe  Fe32  1  0.17372160  0.50432995  0.83441957  1
  Ni  Ni33  1  0.16919443  0.83614303  0.50243454  1
  Ni  Ni34  1  0.00394581  0.67034365  0.66916672  1
  Fe  Fe35  1  0.17177941  0.83417907  0.83403408  1
  Ni  Ni36  1  0.50343427  0.17074452  0.50297105  1
  Fe  Fe37  1  0.33255884  1.00285135  0.66667238  1
  Cr  Cr38  1  0.50183363  0.17135541  0.83573685  1
  Fe  Fe39  1  0.50351061  0.50488682  0.50265953  1
  Ni  Ni40  1  0.33637703  0.33766895  0.66868373  1
  Ni  Ni41  1  0.50488321  0.50525790  0.83515568  1
  Ni  Ni42  1  0.50120565  0.83862161  0.50350550  1
  Ni  Ni43  1  0.33840256  0.66924865  0.66750601  1
  Fe  Fe44  1  0.50156804  0.83407832  0.83415011  1
  Fe  Fe45  1  0.83704497  0.16983327  0.50298112  1
  Fe  Fe46  1  0.66940295  1.00274430  0.66808983  1
  Fe  Fe47  1  0.83705773  0.17063039  0.83527061  1
  Ni  Ni48  1  0.83895293  0.50310439  0.50103193  1
  Fe  Fe49  1  0.67176845  0.33915356  0.66778066  1
  Cr  Cr50  1  0.83570088  0.50576728  0.84022540  1
  Fe  Fe51  1  0.83635723  0.83591419  0.50266631  1
  Fe  Fe52  1  0.67159329  0.66989693  0.66735810  1
  Fe  Fe53  1  0.83751234  0.83777482  0.83617907  1
" 