6702,Ni40Fe51Cr7_10,-235.369070548946, 210.649795006883,Ni40Fe51Cr7,"# generated using pymatgen
 data_Cr2Fe9Ni7
_symmetry_space_group_name_H-M   'P 1'
_cell_length_a   7.41818216
_cell_length_b   7.41818216
_cell_length_c   10.49089382
_cell_angle_alpha   90.00000000
_cell_angle_beta   90.00000000
_cell_angle_gamma   90.00000000
_symmetry_Int_Tables_number   1
_chemical_formula_structural   Cr2Fe9Ni7
_chemical_formula_sum   'Cr6 Fe27 Ni21'
_cell_volume   577.30787123
_cell_formula_units_Z   3
loop_
 _symmetry_equiv_pos_site_id
 _symmetry_equiv_pos_as_xyz
  1  'x, y, z'
loop_
 _atom_site_type_symbol
 _atom_site_label
 _atom_site_symmetry_multiplicity
 _atom_site_fract_x
 _atom_site_fract_y
 _atom_site_fract_z
 _atom_site_occupancy
  Fe  Fe0  1  0.00352735  1.00284300  1.00327026  1
  Ni  Ni1  1  0.16913976  0.16869888  0.17154165  1
  Ni  Ni2  1  0.00385074  0.00579372  0.33646955  1
  Fe  Fe3  1  1.00175880  0.33663448  0.00361002  1
  Fe  Fe4  1  0.16764366  0.50184359  0.16996560  1
  Ni  Ni5  1  1.00289667  0.33511034  0.33568203  1
  Fe  Fe6  1  0.00329382  0.67040073  0.00339713  1
  Fe  Fe7  1  0.17037986  0.83933043  0.16867903  1
  Cr  Cr8  1  1.00193242  0.66937028  0.33708022  1
  Ni  Ni9  1  0.33601791  0.00331648  0.00437097  1
  Ni  Ni10  1  0.50308642  0.16821808  0.17110650  1
  Ni  Ni11  1  0.33681758  0.00506637  0.33613164  1
  Cr  Cr12  1  0.33631647  0.33474441  1.00184652  1
  Cr  Cr13  1  0.50445633  0.50317065  0.17018264  1
  Fe  Fe14  1  0.33496786  0.33396301  0.33704136  1
  Fe  Fe15  1  0.33556524  0.67165067  1.00258792  1
  Fe  Fe16  1  0.50384638  0.83962689  0.16933336  1
  Cr  Cr17  1  0.33762208  0.67139920  0.33644087  1
  Fe  Fe18  1  0.66995172  0.00418976  0.00365326  1
  Fe  Fe19  1  0.83699636  0.16980372  0.17011618  1
  Fe  Fe20  1  0.67019372  1.00327462  0.33678540  1
  Fe  Fe21  1  0.67120813  0.33579956  1.00194103  1
  Fe  Fe22  1  0.83729878  0.50225313  0.16882462  1
  Fe  Fe23  1  0.67060797  0.33541612  0.33722139  1
  Ni  Ni24  1  0.67196368  0.66950413  0.00373666  1
  Ni  Ni25  1  0.83667421  0.83726674  0.16927206  1
  Fe  Fe26  1  0.67096583  0.67118847  0.33732666  1
  Fe  Fe27  1  0.16960376  0.17033197  0.50153868  1
  Ni  Ni28  1  1.00173170  0.00366693  0.67016996  1
  Fe  Fe29  1  0.16867802  0.16986089  0.83720483  1
  Ni  Ni30  1  0.17052859  0.50239563  0.50461150  1
  Fe  Fe31  1  1.00275365  0.33668871  0.66975413  1
  Fe  Fe32  1  0.16964942  0.50378967  0.83539880  1
  Ni  Ni33  1  0.16925769  0.83731019  0.50337543  1
  Fe  Fe34  1  0.00358082  0.67103283  0.66985062  1
  Ni  Ni35  1  0.16800615  0.83612921  0.83771163  1
  Fe  Fe36  1  0.50310710  0.17022057  0.50249264  1
  Cr  Cr37  1  0.33603447  0.00367278  0.66939924  1
  Ni  Ni38  1  0.50547935  0.17188366  0.83657754  1
  Ni  Ni39  1  0.50355119  0.50337618  0.50454949  1
  Fe  Fe40  1  0.33757887  0.33846839  0.67013289  1
  Ni  Ni41  1  0.50450436  0.50239672  0.83518332  1
  Ni  Ni42  1  0.50428063  0.83578579  0.50218788  1
  Ni  Ni43  1  0.33675032  0.66720456  0.67020469  1
  Cr  Cr44  1  0.50285257  0.83565074  0.83791198  1
  Fe  Fe45  1  0.83717330  0.16959161  0.50376250  1
  Ni  Ni46  1  0.67243415  0.00366111  0.66979655  1
  Ni  Ni47  1  0.83661411  0.17060201  0.83738248  1
  Fe  Fe48  1  0.83594064  0.50341662  0.50415677  1
  Fe  Fe49  1  0.66955151  0.33654215  0.67072683  1
  Ni  Ni50  1  0.83608555  0.50217867  0.83700678  1
  Fe  Fe51  1  0.83583274  0.83687282  0.50385732  1
  Ni  Ni52  1  0.67019922  0.66860275  0.66857381  1
  Fe  Fe53  1  0.83711623  0.83664522  0.83672304  1
" 