3464,Ni40Fe49Cr9_11,-235.379468712937, 203.416286734144,Ni40Fe49Cr9,"# generated using pymatgen
 data_Cr3Fe13Ni11
_symmetry_space_group_name_H-M   'P 1'
_cell_length_a   7.41962170
_cell_length_b   7.41962170
_cell_length_c   10.49292964
_cell_angle_alpha   90.00000000
_cell_angle_beta   90.00000000
_cell_angle_gamma   90.00000000
_symmetry_Int_Tables_number   1
_chemical_formula_structural   Cr3Fe13Ni11
_chemical_formula_sum   'Cr6 Fe26 Ni22'
_cell_volume   577.64402649
_cell_formula_units_Z   2
loop_
 _symmetry_equiv_pos_site_id
 _symmetry_equiv_pos_as_xyz
  1  'x, y, z'
loop_
 _atom_site_type_symbol
 _atom_site_label
 _atom_site_symmetry_multiplicity
 _atom_site_fract_x
 _atom_site_fract_y
 _atom_site_fract_z
 _atom_site_occupancy
  Fe  Fe0  1  1.00200700  1.00232463  1.00039577  1
  Cr  Cr1  1  0.16969007  0.16958262  0.16954905  1
  Fe  Fe2  1  1.00185721  0.00326125  0.33936373  1
  Cr  Cr3  1  0.00347843  0.33910137  0.99989724  1
  Fe  Fe4  1  0.16871063  0.50289407  0.16995166  1
  Ni  Ni5  1  1.00236869  0.33695199  0.33781967  1
  Ni  Ni6  1  1.00097536  0.67004803  0.00329318  1
  Cr  Cr7  1  0.16767104  0.83764069  0.16966302  1
  Ni  Ni8  1  1.00188700  0.66757106  0.33671155  1
  Fe  Fe9  1  0.33788722  0.00387812  1.00115204  1
  Fe  Fe10  1  0.50505897  0.16854931  0.16886374  1
  Fe  Fe11  1  0.33732066  0.00436271  0.33846545  1
  Ni  Ni12  1  0.33842623  0.33557768  0.00413807  1
  Fe  Fe13  1  0.50436788  0.50170317  0.17000144  1
  Fe  Fe14  1  0.33597397  0.33621582  0.33844277  1
  Cr  Cr15  1  0.33568946  0.66719193  1.00053508  1
  Ni  Ni16  1  0.50579323  0.83657224  0.16967362  1
  Cr  Cr17  1  0.33566672  0.66884028  0.33914803  1
  Fe  Fe18  1  0.67001189  0.00336892  1.00227383  1
  Fe  Fe19  1  0.83384722  0.16847132  0.17104815  1
  Fe  Fe20  1  0.67124107  1.00271516  0.33704839  1
  Fe  Fe21  1  0.66888439  0.33780005  1.00245856  1
  Fe  Fe22  1  0.83659453  0.50503437  0.17106832  1
  Fe  Fe23  1  0.67108854  0.33784627  0.33726627  1
  Fe  Fe24  1  0.67148045  0.66840572  1.00238227  1
  Fe  Fe25  1  0.83437008  0.83625305  0.16983610  1
  Fe  Fe26  1  0.67210431  0.66899772  0.33754121  1
  Ni  Ni27  1  0.17012162  0.16827751  0.50381441  1
  Fe  Fe28  1  0.00439271  1.00162773  0.66953215  1
  Fe  Fe29  1  0.17093941  0.17098506  0.83484217  1
  Fe  Fe30  1  0.16655796  0.50230117  0.50522862  1
  Fe  Fe31  1  1.00203458  0.33761842  0.66936799  1
  Ni  Ni32  1  0.17071685  0.50471035  0.83492779  1
  Ni  Ni33  1  0.16875981  0.83829565  0.50334022  1
  Ni  Ni34  1  1.00312493  0.66978382  0.66977602  1
  Ni  Ni35  1  0.16845610  0.83750371  0.83634208  1
  Fe  Fe36  1  0.50305719  0.17121196  0.50342703  1
  Fe  Fe37  1  0.33493460  1.00152680  0.67022423  1
  Ni  Ni38  1  0.50185617  0.17291964  0.83829020  1
  Ni  Ni39  1  0.50520370  0.50218738  0.50425919  1
  Ni  Ni40  1  0.33571889  0.33678122  0.66952381  1
  Ni  Ni41  1  0.50432767  0.50077869  0.83628923  1
  Fe  Fe42  1  0.50449988  0.83586895  0.50292182  1
  Ni  Ni43  1  0.33640304  0.66875070  0.66984954  1
  Fe  Fe44  1  0.50470854  0.83549900  0.83644046  1
  Ni  Ni45  1  0.83836594  0.17167848  0.50175168  1
  Cr  Cr46  1  0.67214086  0.00380500  0.66922274  1
  Ni  Ni47  1  0.83516172  0.17024679  0.83653232  1
  Ni  Ni48  1  0.83371990  0.50374657  0.50402120  1
  Fe  Fe49  1  0.66958217  0.33964316  0.67036317  1
  Ni  Ni50  1  0.83426480  0.50473240  0.83487841  1
  Ni  Ni51  1  0.83929210  0.83448035  0.50061166  1
  Ni  Ni52  1  0.67017344  0.67170459  0.66986320  1
  Ni  Ni53  1  0.83961597  0.83475820  0.83895328  1
" 