236,Ni40Fe6Cr53_12,-217.603007536163, 148.401223916272,Ni40Fe6Cr53,"# generated using pymatgen
 data_Cr10FeNi7
_symmetry_space_group_name_H-M   'P 1'
_cell_length_a   7.52644423
_cell_length_b   7.52644423
_cell_length_c   10.64399950
_cell_angle_alpha   90.00000000
_cell_angle_beta   90.00000000
_cell_angle_gamma   90.00000000
_symmetry_Int_Tables_number   1
_chemical_formula_structural   Cr10FeNi7
_chemical_formula_sum   'Cr30 Fe3 Ni21'
_cell_volume   602.95450017
_cell_formula_units_Z   3
loop_
 _symmetry_equiv_pos_site_id
 _symmetry_equiv_pos_as_xyz
  1  'x, y, z'
loop_
 _atom_site_type_symbol
 _atom_site_label
 _atom_site_symmetry_multiplicity
 _atom_site_fract_x
 _atom_site_fract_y
 _atom_site_fract_z
 _atom_site_occupancy
  Cr  Cr0  1  0.99507222  0.99444528  0.99462586  1
  Cr  Cr1  1  0.16255031  0.16451338  0.16262008  1
  Ni  Ni2  1  0.99329161  0.99188157  0.33164987  1
  Ni  Ni3  1  -0.00338667  0.33074880  -0.00282633  1
  Ni  Ni4  1  0.16442371  0.49507558  0.16099988  1
  Cr  Cr5  1  -0.00314557  0.33438990  0.32543347  1
  Cr  Cr6  1  0.99332835  0.66014579  -0.00009195  1
  Cr  Cr7  1  0.16709698  0.82673181  0.16693151  1
  Cr  Cr8  1  0.99266854  0.66327616  0.32664849  1
  Cr  Cr9  1  0.33347457  -0.00094900  -0.00314199  1
  Ni  Ni10  1  0.49768078  0.16452268  0.16115560  1
  Cr  Cr11  1  0.33385348  -0.00172713  0.32892182  1
  Ni  Ni12  1  0.32970899  0.33108401  -0.00285661  1
  Cr  Cr13  1  0.49463770  0.49740014  0.16232014  1
  Ni  Ni14  1  0.33377267  0.33139234  0.32846818  1
  Ni  Ni15  1  0.33225149  0.65982784  -0.00014921  1
  Ni  Ni16  1  0.49807115  0.82853297  0.15949835  1
  Ni  Ni17  1  0.33095427  0.65930714  0.32890796  1
  Ni  Ni18  1  0.66262202  0.99417520  -0.00066290  1
  Cr  Cr19  1  0.82799138  0.16350247  0.16329589  1
  Cr  Cr20  1  0.66146826  0.99397749  0.32626909  1
  Ni  Ni21  1  0.66163707  0.33066001  -0.00003802  1
  Ni  Ni22  1  0.82787915  0.49536372  0.15935998  1
  Fe  Fe23  1  0.65855488  0.33012222  0.32744068  1
  Ni  Ni24  1  0.66234002  0.66339554  -0.00180046  1
  Ni  Ni25  1  0.82609264  0.82890229  0.16046357  1
  Cr  Cr26  1  0.66351768  0.66229162  0.32695983  1
  Cr  Cr27  1  0.16148416  0.16106556  0.49312660  1
  Cr  Cr28  1  -0.00379560  0.99481478  0.66283678  1
  Ni  Ni29  1  0.16223428  0.16433670  0.83284049  1
  Cr  Cr30  1  0.16602978  0.49972694  0.49420011  1
  Cr  Cr31  1  -0.00241816  0.33014204  0.66670619  1
  Cr  Cr32  1  0.16599887  0.49719885  0.83382156  1
  Ni  Ni33  1  0.16271152  0.82707643  0.49423790  1
  Cr  Cr34  1  0.99358668  0.66323420  0.66208933  1
  Cr  Cr35  1  0.16807304  0.82689484  0.82785245  1
  Ni  Ni36  1  0.49792233  0.16735237  0.49378258  1
  Cr  Cr37  1  0.33004710  -0.00093659  0.66297844  1
  Cr  Cr38  1  0.49969890  0.16523757  0.83281055  1
  Fe  Fe39  1  0.49566390  0.49615798  0.49501447  1
  Cr  Cr40  1  0.33104506  0.32836676  0.66266200  1
  Cr  Cr41  1  0.49746063  0.49889243  0.82790117  1
  Cr  Cr42  1  0.49339191  0.82570166  0.49687654  1
  Ni  Ni43  1  0.33226977  0.66160384  0.65933759  1
  Cr  Cr44  1  0.49737791  0.82419024  0.83322128  1
  Cr  Cr45  1  0.82671972  0.16341659  0.49326396  1
  Cr  Cr46  1  0.66170382  0.99524690  0.66320409  1
  Cr  Cr47  1  0.82778851  0.16517105  0.83149337  1
  Cr  Cr48  1  0.82422379  0.49428222  0.49700168  1
  Ni  Ni49  1  0.65895199  0.33193138  0.65845223  1
  Cr  Cr50  1  0.82360613  0.49479041  0.83075989  1
  Ni  Ni51  1  0.82892635  0.82821052  0.49726740  1
  Ni  Ni52  1  0.66119558  0.66189190  0.66169526  1
  Fe  Fe53  1  0.82661781  0.82793611  0.83108680  1
" 