8450,Ni40Fe6Cr53_9,-217.377659491463, 143.4508049569,Ni40Fe6Cr53,"# generated using pymatgen
 data_Cr10FeNi7
_symmetry_space_group_name_H-M   'P 1'
_cell_length_a   7.52555358
_cell_length_b   7.52555358
_cell_length_c   10.64273994
_cell_angle_alpha   90.00000000
_cell_angle_beta   90.00000000
_cell_angle_gamma   90.00000000
_symmetry_Int_Tables_number   1
_chemical_formula_structural   Cr10FeNi7
_chemical_formula_sum   'Cr30 Fe3 Ni21'
_cell_volume   602.74047340
_cell_formula_units_Z   3
loop_
 _symmetry_equiv_pos_site_id
 _symmetry_equiv_pos_as_xyz
  1  'x, y, z'
loop_
 _atom_site_type_symbol
 _atom_site_label
 _atom_site_symmetry_multiplicity
 _atom_site_fract_x
 _atom_site_fract_y
 _atom_site_fract_z
 _atom_site_occupancy
  Ni  Ni0  1  0.99385601  -0.00225625  0.99384453  1
  Cr  Cr1  1  0.16275439  0.16338882  0.16227496  1
  Cr  Cr2  1  -0.00354275  0.99387937  0.32965248  1
  Ni  Ni3  1  0.99338323  0.32642469  0.99383196  1
  Cr  Cr4  1  0.16375458  0.49476259  0.16116947  1
  Cr  Cr5  1  -0.00199715  0.33026040  0.32993205  1
  Cr  Cr6  1  0.99386264  0.66502737  -0.00310921  1
  Cr  Cr7  1  0.16446907  0.83028829  0.16024953  1
  Cr  Cr8  1  0.99353898  0.66414760  0.32940746  1
  Cr  Cr9  1  0.33073882  0.99602790  0.99443240  1
  Cr  Cr10  1  0.49680585  0.16111333  0.16518267  1
  Ni  Ni11  1  0.33172145  0.99448468  0.33046907  1
  Cr  Cr12  1  0.33198341  0.32847578  0.99420527  1
  Cr  Cr13  1  0.49607272  0.49688657  0.16203719  1
  Ni  Ni14  1  0.33208629  0.32790940  0.33041100  1
  Ni  Ni15  1  0.33207597  0.66291761  -0.00366675  1
  Ni  Ni16  1  0.49813877  0.82889104  0.16512347  1
  Cr  Cr17  1  0.33136953  0.66367789  0.32977087  1
  Cr  Cr18  1  0.66351582  -0.00372408  -0.00288821  1
  Cr  Cr19  1  0.82870587  0.16176860  0.16284882  1
  Fe  Fe20  1  0.65977503  0.99197048  0.32919546  1
  Ni  Ni21  1  0.66440729  0.32913201  0.99159824  1
  Cr  Cr22  1  0.82831223  0.49555327  0.16192846  1
  Cr  Cr23  1  0.66082847  0.33164250  0.33124485  1
  Cr  Cr24  1  0.66183729  0.66346475  0.99561088  1
  Ni  Ni25  1  0.82650394  0.83045164  0.16406362  1
  Ni  Ni26  1  0.66038694  0.66597528  0.32971721  1
  Cr  Cr27  1  0.16375040  0.16028130  0.49626836  1
  Ni  Ni28  1  -0.00267634  0.99597718  0.66497547  1
  Ni  Ni29  1  0.16026778  0.16171274  0.82952182  1
  Cr  Cr30  1  0.16590338  0.49704147  0.49506269  1
  Cr  Cr31  1  0.99402451  0.32761434  0.66456541  1
  Cr  Cr32  1  0.16502778  0.49776569  0.83193562  1
  Fe  Fe33  1  0.16656641  0.83073666  0.49821014  1
  Cr  Cr34  1  0.99505509  0.66457212  0.66170766  1
  Cr  Cr35  1  0.16319371  0.83049631  0.82738468  1
  Cr  Cr36  1  0.49621224  0.16098971  0.49521757  1
  Ni  Ni37  1  0.32863336  0.99483463  0.66242377  1
  Ni  Ni38  1  0.49778714  0.16510843  0.82816072  1
  Ni  Ni39  1  0.49654802  0.49931497  0.49730396  1
  Cr  Cr40  1  0.33228687  0.32881747  0.66344445  1
  Ni  Ni41  1  0.49832575  0.49601415  0.82788996  1
  Ni  Ni42  1  0.49530545  0.82741242  0.49602943  1
  Ni  Ni43  1  0.33359862  0.66425941  0.66077504  1
  Cr  Cr44  1  0.49573478  0.82680578  0.82798942  1
  Cr  Cr45  1  0.82822951  0.16150998  0.49674195  1
  Cr  Cr46  1  0.66210030  -0.00295852  0.66465263  1
  Ni  Ni47  1  0.82981943  0.16261403  0.82997357  1
  Cr  Cr48  1  0.82491256  0.49666782  0.49779021  1
  Ni  Ni49  1  0.66118544  0.33198158  0.66564373  1
  Fe  Fe50  1  0.82706746  0.49524930  0.82919202  1
  Cr  Cr51  1  0.82597231  0.83001992  0.49678391  1
  Ni  Ni52  1  0.66005343  0.66117002  0.66314978  1
  Ni  Ni53  1  0.82986357  0.83154325  0.82876193  1
" 