7575,Ni40Fe6Cr53_0,-217.499597059736, 144.963358460616,Ni40Fe6Cr53,"# generated using pymatgen
 data_Cr10FeNi7
_symmetry_space_group_name_H-M   'P 1'
_cell_length_a   7.52697419
_cell_length_b   7.52697419
_cell_length_c   10.64474899
_cell_angle_alpha   90.00000000
_cell_angle_beta   90.00000000
_cell_angle_gamma   90.00000000
_symmetry_Int_Tables_number   1
_chemical_formula_structural   Cr10FeNi7
_chemical_formula_sum   'Cr30 Fe3 Ni21'
_cell_volume   603.08187823
_cell_formula_units_Z   3
loop_
 _symmetry_equiv_pos_site_id
 _symmetry_equiv_pos_as_xyz
  1  'x, y, z'
loop_
 _atom_site_type_symbol
 _atom_site_label
 _atom_site_symmetry_multiplicity
 _atom_site_fract_x
 _atom_site_fract_y
 _atom_site_fract_z
 _atom_site_occupancy
  Cr  Cr0  1  0.99463042  0.99448551  -0.00023416  1
  Ni  Ni1  1  0.16525579  0.15787350  0.16404426  1
  Cr  Cr2  1  -0.00159254  0.99486518  0.32808165  1
  Cr  Cr3  1  -0.00351064  0.32737192  0.00008142  1
  Cr  Cr4  1  0.16436588  0.49814335  0.16271043  1
  Cr  Cr5  1  -0.00260870  0.32730145  0.32793475  1
  Cr  Cr6  1  -0.00131269  0.66590874  0.99568244  1
  Ni  Ni7  1  0.16511691  0.83116983  0.16469254  1
  Ni  Ni8  1  -0.00258091  0.66593891  0.32904256  1
  Cr  Cr9  1  0.32988478  0.99451499  0.99430949  1
  Ni  Ni10  1  0.49443764  0.15788775  0.16265394  1
  Ni  Ni11  1  0.32803272  0.99376092  0.33004021  1
  Cr  Cr12  1  0.33026102  0.32845117  -0.00301093  1
  Cr  Cr13  1  0.49483151  0.49984092  0.16467115  1
  Cr  Cr14  1  0.32937350  0.32400387  0.33078849  1
  Ni  Ni15  1  0.32953744  0.66846666  -0.00348020  1
  Ni  Ni16  1  0.49428984  0.83317268  0.16306320  1
  Ni  Ni17  1  0.32783939  0.66783769  0.32689871  1
  Ni  Ni18  1  0.66024063  0.99554100  -0.00221365  1
  Fe  Fe19  1  0.82746058  0.15940422  0.16251375  1
  Cr  Cr20  1  0.66003313  0.99597008  0.32675602  1
  Cr  Cr21  1  0.66135004  0.32558024  -0.00317253  1
  Cr  Cr22  1  0.82920180  0.49774440  0.16490550  1
  Cr  Cr23  1  0.66136940  0.32743989  0.33048442  1
  Cr  Cr24  1  0.66104362  0.66760539  0.99556160  1
  Fe  Fe25  1  0.82834993  0.82993194  0.16396638  1
  Ni  Ni26  1  0.66283598  0.66559487  0.32736908  1
  Ni  Ni27  1  0.16424573  0.15853090  0.49732475  1
  Ni  Ni28  1  -0.00026102  0.99457579  0.66167770  1
  Cr  Cr29  1  0.16253105  0.16041202  0.82734155  1
  Cr  Cr30  1  0.16257177  0.49895767  0.49359097  1
  Ni  Ni31  1  -0.00307311  0.32714263  0.66076544  1
  Cr  Cr32  1  0.16272161  0.49681302  0.83189786  1
  Ni  Ni33  1  0.16305576  0.83266240  0.49552150  1
  Fe  Fe34  1  -0.00191997  0.66459214  0.66183774  1
  Ni  Ni35  1  0.16460514  0.83030482  0.82777541  1
  Ni  Ni36  1  0.49283611  0.16040326  0.49734457  1
  Ni  Ni37  1  0.32604319  0.99479325  0.66202539  1
  Ni  Ni38  1  0.49712696  0.15860380  0.82787602  1
  Cr  Cr39  1  0.49759261  0.49887745  0.49264731  1
  Cr  Cr40  1  0.33105382  0.32687571  0.66079267  1
  Cr  Cr41  1  0.49643782  0.49691757  0.83085971  1
  Cr  Cr42  1  0.49328774  0.83018419  0.49317735  1
  Cr  Cr43  1  0.33029678  0.66679415  0.66495951  1
  Ni  Ni44  1  0.49461751  0.83201720  0.83021505  1
  Cr  Cr45  1  0.83013695  0.16109570  0.49943741  1
  Cr  Cr46  1  0.65827523  0.99462836  0.66323585  1
  Cr  Cr47  1  0.82925012  0.16187045  0.82888643  1
  Cr  Cr48  1  0.82920929  0.49726774  0.49780964  1
  Ni  Ni49  1  0.66278072  0.32913112  0.66226034  1
  Cr  Cr50  1  0.83069848  0.49497234  0.82514747  1
  Cr  Cr51  1  0.83031479  0.82755828  0.49597379  1
  Ni  Ni52  1  0.66273439  0.66186831  0.66342666  1
  Cr  Cr53  1  0.82973149  0.83138010  0.82708881  1
" 