2995,Ni40Fe57Cr2_3,-238.009824874169, 214.295420942672,Ni40Fe57Cr2,"# generated using pymatgen
 data_CrFe15Ni11
_symmetry_space_group_name_H-M   'P 1'
_cell_length_a   7.40456549
_cell_length_b   7.40456549
_cell_length_c   10.47163694
_cell_angle_alpha   90.00000000
_cell_angle_beta   90.00000000
_cell_angle_gamma   90.00000000
_symmetry_Int_Tables_number   1
_chemical_formula_structural   CrFe15Ni11
_chemical_formula_sum   'Cr2 Fe30 Ni22'
_cell_volume   574.13461816
_cell_formula_units_Z   2
loop_
 _symmetry_equiv_pos_site_id
 _symmetry_equiv_pos_as_xyz
  1  'x, y, z'
loop_
 _atom_site_type_symbol
 _atom_site_label
 _atom_site_symmetry_multiplicity
 _atom_site_fract_x
 _atom_site_fract_y
 _atom_site_fract_z
 _atom_site_occupancy
  Ni  Ni0  1  0.00481978  0.00487739  1.00409704  1
  Fe  Fe1  1  0.17155387  0.17017945  0.16984209  1
  Fe  Fe2  1  1.00414280  1.00270870  0.33658293  1
  Ni  Ni3  1  1.00414094  0.33740744  0.00480489  1
  Fe  Fe4  1  0.17132814  0.50466276  0.17031147  1
  Fe  Fe5  1  1.00337977  0.33714559  0.33699636  1
  Fe  Fe6  1  0.00537719  0.67118353  1.00404140  1
  Ni  Ni7  1  0.16960943  0.83743083  0.17103163  1
  Ni  Ni8  1  1.00164942  0.67102247  0.33594874  1
  Ni  Ni9  1  0.33743262  1.00407871  0.00462584  1
  Ni  Ni10  1  0.50382018  0.17185918  0.17101458  1
  Ni  Ni11  1  0.33754447  0.00476706  0.33668621  1
  Ni  Ni12  1  0.33709027  0.33718796  1.00419150  1
  Ni  Ni13  1  0.50357198  0.50276963  0.17146501  1
  Fe  Fe14  1  0.33897289  0.33730331  0.33585366  1
  Ni  Ni15  1  0.33852667  0.67138984  0.00461236  1
  Fe  Fe16  1  0.50378262  0.83755618  0.17054926  1
  Fe  Fe17  1  0.33842349  0.67203368  0.33595561  1
  Fe  Fe18  1  0.67054997  0.00423348  1.00371301  1
  Fe  Fe19  1  0.83747194  0.17051171  0.17058707  1
  Fe  Fe20  1  0.67106686  1.00325724  0.33776820  1
  Fe  Fe21  1  0.67003316  0.33732269  1.00421633  1
  Fe  Fe22  1  0.83721175  0.50481079  0.17101357  1
  Fe  Fe23  1  0.67030016  0.33812642  0.33772856  1
  Fe  Fe24  1  0.67060019  0.67110424  0.00435470  1
  Ni  Ni25  1  0.83852613  0.83768092  0.17141626  1
  Ni  Ni26  1  0.67195977  0.67011291  0.33768908  1
  Fe  Fe27  1  0.17118059  0.16897931  0.50485283  1
  Fe  Fe28  1  1.00341671  0.00456851  0.67156353  1
  Ni  Ni29  1  0.17142835  0.17236183  0.83682760  1
  Cr  Cr30  1  0.17081537  0.50448328  0.50460062  1
  Ni  Ni31  1  1.00284005  0.33783305  0.67169185  1
  Ni  Ni32  1  0.17026593  0.50287943  0.83750194  1
  Fe  Fe33  1  0.17102938  0.83920527  0.50347365  1
  Ni  Ni34  1  0.00430521  0.67029421  0.67253873  1
  Fe  Fe35  1  0.17077487  0.83716224  0.83812562  1
  Fe  Fe36  1  0.50403348  0.17057606  0.50413253  1
  Ni  Ni37  1  0.33782539  0.00451941  0.67134438  1
  Fe  Fe38  1  0.50413989  0.17056401  0.83757195  1
  Fe  Fe39  1  0.50557673  0.50330758  0.50260198  1
  Fe  Fe40  1  0.33816197  0.33647598  0.67236570  1
  Fe  Fe41  1  0.50320321  0.50374651  0.83914048  1
  Fe  Fe42  1  0.50302211  0.83877187  0.50400677  1
  Fe  Fe43  1  0.33683915  0.67161948  0.67251655  1
  Ni  Ni44  1  0.50457225  0.83926369  0.83894173  1
  Fe  Fe45  1  0.83743954  0.17152950  0.50491182  1
  Ni  Ni46  1  0.66925331  0.00598079  0.67070139  1
  Fe  Fe47  1  0.83818707  0.17125108  0.83715902  1
  Fe  Fe48  1  0.83700931  0.50345500  0.50400661  1
  Ni  Ni49  1  0.67194156  0.33642850  0.67074098  1
  Ni  Ni50  1  0.83958756  0.50396335  0.83764218  1
  Fe  Fe51  1  0.83860151  0.83766956  0.50316394  1
  Cr  Cr52  1  0.67217496  0.67012008  0.67099978  1
  Ni  Ni53  1  0.83732282  0.83810104  0.83761322  1
" 