1364,Ni40Fe51Cr7_5,-235.439651202155, 206.142327266734,Ni40Fe51Cr7,"# generated using pymatgen
 data_Cr2Fe9Ni7
_symmetry_space_group_name_H-M   'P 1'
_cell_length_a   7.41919737
_cell_length_b   7.41919737
_cell_length_c   10.49232954
_cell_angle_alpha   90.00000000
_cell_angle_beta   90.00000000
_cell_angle_gamma   90.00000000
_symmetry_Int_Tables_number   1
_chemical_formula_structural   Cr2Fe9Ni7
_chemical_formula_sum   'Cr6 Fe27 Ni21'
_cell_volume   577.54492383
_cell_formula_units_Z   3
loop_
 _symmetry_equiv_pos_site_id
 _symmetry_equiv_pos_as_xyz
  1  'x, y, z'
loop_
 _atom_site_type_symbol
 _atom_site_label
 _atom_site_symmetry_multiplicity
 _atom_site_fract_x
 _atom_site_fract_y
 _atom_site_fract_z
 _atom_site_occupancy
  Ni  Ni0  1  0.00561656  1.00308976  1.00266942  1
  Fe  Fe1  1  0.16979711  0.16851126  0.16960847  1
  Fe  Fe2  1  0.00442270  0.00372740  0.33612585  1
  Ni  Ni3  1  0.99954882  0.33431937  1.00181804  1
  Cr  Cr4  1  0.16763909  0.50091650  0.16940336  1
  Ni  Ni5  1  0.00325845  0.33337203  0.33762035  1
  Ni  Ni6  1  0.00349163  0.67191230  0.00373789  1
  Fe  Fe7  1  0.17133378  0.83710564  0.16942361  1
  Fe  Fe8  1  0.00536425  0.66876217  0.33638108  1
  Ni  Ni9  1  0.33510619  1.00149036  1.00297306  1
  Ni  Ni10  1  0.50191548  0.16765234  0.17016595  1
  Fe  Fe11  1  0.33652573  0.00451863  0.33577611  1
  Fe  Fe12  1  0.33685814  0.33402374  0.00359789  1
  Fe  Fe13  1  0.50235216  0.50178539  0.16863533  1
  Ni  Ni14  1  0.33675492  0.33679317  0.33715576  1
  Ni  Ni15  1  0.33806269  0.67295151  1.00255236  1
  Ni  Ni16  1  0.50216169  0.83884679  0.16997118  1
  Ni  Ni17  1  0.33511536  0.67136569  0.33894066  1
  Cr  Cr18  1  0.66974560  0.00483909  1.00161518  1
  Fe  Fe19  1  0.83673425  0.17156496  0.17017929  1
  Fe  Fe20  1  0.66868759  0.00504415  0.33604265  1
  Ni  Ni21  1  0.67001445  0.33809284  0.00432131  1
  Ni  Ni22  1  0.83774319  0.50225372  0.16836782  1
  Ni  Ni23  1  0.66964002  0.33456874  0.33536555  1
  Fe  Fe24  1  0.67044819  0.67037075  0.00331244  1
  Fe  Fe25  1  0.83836119  0.83731238  0.16931311  1
  Cr  Cr26  1  0.66777999  0.66894341  0.33425464  1
  Ni  Ni27  1  0.17090346  0.16961868  0.50262085  1
  Fe  Fe28  1  0.00350745  0.00409199  0.67066913  1
  Ni  Ni29  1  0.16976433  0.16746248  0.83747540  1
  Ni  Ni30  1  0.16977337  0.50208587  0.50373269  1
  Fe  Fe31  1  0.00456843  0.33559906  0.66994694  1
  Cr  Cr32  1  0.16777854  0.50130126  0.83649480  1
  Fe  Fe33  1  0.16928149  0.83643839  0.50333439  1
  Ni  Ni34  1  0.00432743  0.67242339  0.66905131  1
  Fe  Fe35  1  0.17055955  0.83611393  0.83719415  1
  Fe  Fe36  1  0.50173977  0.16996709  0.50113828  1
  Fe  Fe37  1  0.33610026  0.00332449  0.67115007  1
  Fe  Fe38  1  0.50006680  0.17228635  0.83799303  1
  Fe  Fe39  1  0.50000540  0.50266309  0.50389381  1
  Fe  Fe40  1  0.33480504  0.33670883  0.66885627  1
  Ni  Ni41  1  0.50462717  0.50618053  0.83922769  1
  Fe  Fe42  1  0.50152372  0.83702274  0.50452752  1
  Fe  Fe43  1  0.33818213  0.66978690  0.66961442  1
  Ni  Ni44  1  0.50385808  0.83766337  0.83566294  1
  Fe  Fe45  1  0.83850969  0.16772172  0.50186313  1
  Fe  Fe46  1  0.67026604  1.00028331  0.67013386  1
  Fe  Fe47  1  0.83800215  0.17135501  0.83700949  1
  Cr  Cr48  1  0.83872170  0.50425005  0.50271697  1
  Cr  Cr49  1  0.66868146  0.33633813  0.67041721  1
  Ni  Ni50  1  0.83668508  0.50495234  0.83797653  1
  Fe  Fe51  1  0.83842292  0.83906092  0.50457600  1
  Ni  Ni52  1  0.66993211  0.67045550  0.67199833  1
  Fe  Fe53  1  0.83906418  0.83484749  0.83553341  1
" 