7214,Ni40Fe51Cr7_0,-235.806181327933, 209.376558000972,Ni40Fe51Cr7,"# generated using pymatgen
 data_Cr2Fe9Ni7
_symmetry_space_group_name_H-M   'P 1'
_cell_length_a   7.41791002
_cell_length_b   7.41791002
_cell_length_c   10.49050895
_cell_angle_alpha   90.00000000
_cell_angle_beta   90.00000000
_cell_angle_gamma   90.00000000
_symmetry_Int_Tables_number   1
_chemical_formula_structural   Cr2Fe9Ni7
_chemical_formula_sum   'Cr6 Fe27 Ni21'
_cell_volume   577.24433617
_cell_formula_units_Z   3
loop_
 _symmetry_equiv_pos_site_id
 _symmetry_equiv_pos_as_xyz
  1  'x, y, z'
loop_
 _atom_site_type_symbol
 _atom_site_label
 _atom_site_symmetry_multiplicity
 _atom_site_fract_x
 _atom_site_fract_y
 _atom_site_fract_z
 _atom_site_occupancy
  Fe  Fe0  1  1.00246802  0.00614809  1.00219412  1
  Fe  Fe1  1  0.16832284  0.17161048  0.16899231  1
  Ni  Ni2  1  0.00435263  0.00590185  0.33674018  1
  Ni  Ni3  1  0.00348538  0.33662245  0.00415830  1
  Ni  Ni4  1  0.16955040  0.50204641  0.16957588  1
  Ni  Ni5  1  1.00153590  0.33529595  0.33619972  1
  Fe  Fe6  1  1.00213455  0.66750927  1.00145801  1
  Cr  Cr7  1  0.17190924  0.83680252  0.17092808  1
  Fe  Fe8  1  0.00561921  0.66653381  0.33775143  1
  Fe  Fe9  1  0.33709108  0.00566581  1.00316581  1
  Fe  Fe10  1  0.50532640  0.16986685  0.16901049  1
  Fe  Fe11  1  0.33729606  1.00248207  0.33736017  1
  Fe  Fe12  1  0.33704280  0.33650429  1.00284369  1
  Ni  Ni13  1  0.50318952  0.50344813  0.16858490  1
  Cr  Cr14  1  0.33633916  0.33793657  0.33483120  1
  Fe  Fe15  1  0.33765514  0.66776653  0.00454351  1
  Ni  Ni16  1  0.50197386  0.83745819  0.17067758  1
  Ni  Ni17  1  0.33653516  0.67191656  0.33759770  1
  Ni  Ni18  1  0.66955159  0.00408492  0.00413576  1
  Ni  Ni19  1  0.83667940  0.17216602  0.17135960  1
  Fe  Fe20  1  0.66868163  0.00684222  0.33571246  1
  Ni  Ni21  1  0.67014078  0.33642828  0.00378086  1
  Ni  Ni22  1  0.83719795  0.49947792  0.17031132  1
  Ni  Ni23  1  0.67239455  0.33546955  0.33617170  1
  Fe  Fe24  1  0.67014904  0.66755501  1.00315230  1
  Cr  Cr25  1  0.83540004  0.83755140  0.16922864  1
  Cr  Cr26  1  0.66774950  0.66810977  0.33483088  1
  Fe  Fe27  1  0.16820344  0.16976324  0.50462178  1
  Fe  Fe28  1  0.00400636  0.00460280  0.67045624  1
  Ni  Ni29  1  0.16959565  0.16962084  0.83655470  1
  Fe  Fe30  1  0.16843758  0.50417891  0.50370869  1
  Ni  Ni31  1  0.00372926  0.33675016  0.66958197  1
  Fe  Fe32  1  0.16977640  0.50267288  0.83667928  1
  Fe  Fe33  1  0.17080393  0.83599499  0.50279023  1
  Ni  Ni34  1  0.00356341  0.66990091  0.67071424  1
  Fe  Fe35  1  0.16822659  0.83600955  0.83654849  1
  Fe  Fe36  1  0.50495315  0.17004722  0.50441069  1
  Fe  Fe37  1  0.33561393  0.00479598  0.66941616  1
  Fe  Fe38  1  0.50364529  0.17270186  0.83651561  1
  Fe  Fe39  1  0.50410931  0.50328621  0.50512086  1
  Ni  Ni40  1  0.33678807  0.33623115  0.67118620  1
  Ni  Ni41  1  0.50427408  0.50207815  0.83572332  1
  Fe  Fe42  1  0.50146019  0.83660352  0.50365324  1
  Fe  Fe43  1  0.33621977  0.66775327  0.66885971  1
  Cr  Cr44  1  0.50400326  0.83575186  0.83616466  1
  Fe  Fe45  1  0.83678130  0.17240767  0.50230728  1
  Fe  Fe46  1  0.67031661  0.00505042  0.67036032  1
  Fe  Fe47  1  0.83622346  0.17115829  0.83751582  1
  Ni  Ni48  1  0.83741938  0.50075477  0.50340041  1
  Ni  Ni49  1  0.66941849  0.33733545  0.66998559  1
  Ni  Ni50  1  0.83609997  0.50314145  0.83622322  1
  Cr  Cr51  1  0.83728703  0.83626630  0.50368360  1
  Ni  Ni52  1  0.67013682  0.66876690  0.67105425  1
  Fe  Fe53  1  0.83798833  0.83602730  0.83631977  1
" 