7836,Ni40Fe57Cr2_2,-238.151249367464, 217.022105244501,Ni40Fe57Cr2,"# generated using pymatgen
 data_CrFe15Ni11
_symmetry_space_group_name_H-M   'P 1'
_cell_length_a   7.40612240
_cell_length_b   7.40612240
_cell_length_c   10.47383874
_cell_angle_alpha   90.00000000
_cell_angle_beta   90.00000000
_cell_angle_gamma   90.00000000
_symmetry_Int_Tables_number   1
_chemical_formula_structural   CrFe15Ni11
_chemical_formula_sum   'Cr2 Fe30 Ni22'
_cell_volume   574.49685218
_cell_formula_units_Z   2
loop_
 _symmetry_equiv_pos_site_id
 _symmetry_equiv_pos_as_xyz
  1  'x, y, z'
loop_
 _atom_site_type_symbol
 _atom_site_label
 _atom_site_symmetry_multiplicity
 _atom_site_fract_x
 _atom_site_fract_y
 _atom_site_fract_z
 _atom_site_occupancy
  Fe  Fe0  1  0.00469491  0.00478542  1.00305714  1
  Fe  Fe1  1  0.17173401  0.17195282  0.17084699  1
  Fe  Fe2  1  1.00394721  0.00553136  0.33816213  1
  Ni  Ni3  1  1.00345318  0.33851712  1.00301006  1
  Ni  Ni4  1  0.17234234  0.50337320  0.17054869  1
  Ni  Ni5  1  1.00393059  0.33866547  0.33864493  1
  Ni  Ni6  1  0.00455362  0.67056056  1.00341408  1
  Fe  Fe7  1  0.17180192  0.83642712  0.17021813  1
  Fe  Fe8  1  1.00398600  0.67016262  0.33796487  1
  Ni  Ni9  1  0.33813054  1.00359030  1.00275334  1
  Fe  Fe10  1  0.50357598  0.17167116  0.17106109  1
  Ni  Ni11  1  0.33852214  1.00390476  0.33912604  1
  Ni  Ni12  1  0.33780293  0.33735501  0.00433342  1
  Ni  Ni13  1  0.50303621  0.50401430  0.17064590  1
  Ni  Ni14  1  0.33741691  0.33748564  0.33732375  1
  Ni  Ni15  1  0.33637498  0.67139414  1.00388853  1
  Fe  Fe16  1  0.50308972  0.83712581  0.17077854  1
  Fe  Fe17  1  0.33810927  0.66946137  0.33691662  1
  Fe  Fe18  1  0.67094231  0.00439951  1.00379638  1
  Fe  Fe19  1  0.83703156  0.17240968  0.17053343  1
  Ni  Ni20  1  0.67016157  0.00421570  0.33807978  1
  Ni  Ni21  1  0.67108507  0.33676013  1.00366241  1
  Fe  Fe22  1  0.83773058  0.50347397  0.17095822  1
  Ni  Ni23  1  0.67099300  0.33690937  0.33863408  1
  Fe  Fe24  1  0.67017420  0.66998389  1.00401978  1
  Fe  Fe25  1  0.83744826  0.83645622  0.17084848  1
  Fe  Fe26  1  0.67024387  0.67012412  0.33803163  1
  Ni  Ni27  1  0.17195649  0.17160513  0.50289351  1
  Cr  Cr28  1  0.00476971  1.00315314  0.67022901  1
  Ni  Ni29  1  0.17137143  0.17148547  0.83923554  1
  Ni  Ni30  1  0.17141474  0.50276107  0.50419544  1
  Fe  Fe31  1  0.00426856  0.33891495  0.67056500  1
  Fe  Fe32  1  0.16948688  0.50403957  0.83805685  1
  Fe  Fe33  1  0.17122745  0.83567632  0.50347606  1
  Ni  Ni34  1  0.00440614  0.66903905  0.67048442  1
  Fe  Fe35  1  0.17076426  0.83720032  0.83864088  1
  Fe  Fe36  1  0.50335155  0.17230377  0.50249653  1
  Fe  Fe37  1  0.33649196  1.00407716  0.67084786  1
  Fe  Fe38  1  0.50369758  0.17110242  0.83878512  1
  Ni  Ni39  1  0.50415713  0.50418672  0.50378070  1
  Fe  Fe40  1  0.33656515  0.33758212  0.67028928  1
  Fe  Fe41  1  0.50452440  0.50337168  0.83798658  1
  Fe  Fe42  1  0.50320196  0.83634673  0.50298871  1
  Fe  Fe43  1  0.33723257  0.67067775  0.67081823  1
  Fe  Fe44  1  0.50324006  0.83786549  0.83857185  1
  Fe  Fe45  1  0.83752371  0.17358371  0.50227180  1
  Cr  Cr46  1  0.66975050  0.00488777  0.67031906  1
  Ni  Ni47  1  0.83834953  0.17091160  0.83914439  1
  Ni  Ni48  1  0.83676867  0.50530845  0.50437245  1
  Fe  Fe49  1  0.67150918  0.33966222  0.67070526  1
  Fe  Fe50  1  0.83832879  0.50358399  0.83728169  1
  Ni  Ni51  1  0.83675322  0.83601878  0.50215362  1
  Fe  Fe52  1  0.67175101  0.66951677  0.67029015  1
  Ni  Ni53  1  0.83693539  0.83653803  0.83997248  1
" 