1577,Ni40Fe5Cr53_18,-217.505751727756, 148.436465142571,Ni40Fe5Cr53,"# generated using pymatgen
 data_Cr10FeNi7
_symmetry_space_group_name_H-M   'P 1'
_cell_length_a   7.52539328
_cell_length_b   7.52539328
_cell_length_c   10.64251324
_cell_angle_alpha   90.00000000
_cell_angle_beta   90.00000000
_cell_angle_gamma   90.00000000
_symmetry_Int_Tables_number   1
_chemical_formula_structural   Cr10FeNi7
_chemical_formula_sum   'Cr30 Fe3 Ni21'
_cell_volume   602.70195700
_cell_formula_units_Z   3
loop_
 _symmetry_equiv_pos_site_id
 _symmetry_equiv_pos_as_xyz
  1  'x, y, z'
loop_
 _atom_site_type_symbol
 _atom_site_label
 _atom_site_symmetry_multiplicity
 _atom_site_fract_x
 _atom_site_fract_y
 _atom_site_fract_z
 _atom_site_occupancy
  Cr  Cr0  1  -0.00274607  -0.00218821  -0.00365927  1
  Ni  Ni1  1  0.16445414  0.16458981  0.16201796  1
  Cr  Cr2  1  0.99568257  0.99403741  0.33032364  1
  Ni  Ni3  1  -0.00361926  0.32941645  -0.00311331  1
  Cr  Cr4  1  0.16140212  0.49601309  0.16388550  1
  Cr  Cr5  1  -0.00350870  0.33238948  0.32930207  1
  Cr  Cr6  1  0.99601852  0.65996466  -0.00108996  1
  Ni  Ni7  1  0.16337140  0.82987714  0.16463413  1
  Ni  Ni8  1  0.99284924  0.66246001  0.33081479  1
  Cr  Cr9  1  0.33229114  -0.00298164  -0.00115459  1
  Ni  Ni10  1  0.49672985  0.16239919  0.16361670  1
  Cr  Cr11  1  0.33050649  -0.00181940  0.32514686  1
  Cr  Cr12  1  0.32992348  0.32822923  0.99481648  1
  Cr  Cr13  1  0.49685835  0.49627019  0.16408852  1
  Ni  Ni14  1  0.32995895  0.33045055  0.32948800  1
  Cr  Cr15  1  0.33019860  0.66304431  0.99462637  1
  Ni  Ni16  1  0.49805119  0.83143218  0.16385361  1
  Cr  Cr17  1  0.32914206  0.66364554  0.32953740  1
  Ni  Ni18  1  0.65988665  -0.00063898  -0.00225645  1
  Cr  Cr19  1  0.82822685  0.16495701  0.16067411  1
  Ni  Ni20  1  0.66252159  0.99302341  0.32738524  1
  Fe  Fe21  1  0.66185863  0.32867420  -0.00354232  1
  Ni  Ni22  1  0.82925151  0.49596003  0.16361722  1
  Cr  Cr23  1  0.66213078  0.33086318  0.32967503  1
  Cr  Cr24  1  0.66139915  0.66236979  -0.00323019  1
  Cr  Cr25  1  0.82808010  0.82842953  0.16333950  1
  Ni  Ni26  1  0.66578015  0.66312880  0.33088174  1
  Cr  Cr27  1  0.16310887  0.16347882  0.49570264  1
  Ni  Ni28  1  0.99598869  0.99561500  0.66139022  1
  Fe  Fe29  1  0.16310153  0.16476260  0.83003090  1
  Ni  Ni30  1  0.16475761  0.49853458  0.49353673  1
  Cr  Cr31  1  0.99529303  0.33086096  0.66222528  1
  Ni  Ni32  1  0.16355964  0.49241746  0.83048826  1
  Ni  Ni33  1  0.15824198  0.82596438  0.49611022  1
  Cr  Cr34  1  0.99402464  0.66186392  0.65962218  1
  Cr  Cr35  1  0.16090441  0.82766288  0.82821254  1
  Cr  Cr36  1  0.49705598  0.16600821  0.49378232  1
  Cr  Cr37  1  0.32757772  -0.00217819  0.66446766  1
  Ni  Ni38  1  0.49923315  0.16620395  0.83064679  1
  Ni  Ni39  1  0.49693280  0.49649894  0.49680106  1
  Cr  Cr40  1  0.33106458  0.33058580  0.66289970  1
  Ni  Ni41  1  0.49665533  0.49160006  0.82764146  1
  Cr  Cr42  1  0.49736895  0.82719481  0.49506186  1
  Cr  Cr43  1  0.33056165  0.65995714  0.66413714  1
  Cr  Cr44  1  0.49868795  0.82824734  0.82918100  1
  Cr  Cr45  1  0.82769673  0.16055710  0.49786389  1
  Cr  Cr46  1  0.66294170  -0.00359661  0.66191874  1
  Cr  Cr47  1  0.82919582  0.16310716  0.83010269  1
  Fe  Fe48  1  0.82744561  0.49825980  0.49483380  1
  Ni  Ni49  1  0.66149998  0.33372232  0.66423115  1
  Cr  Cr50  1  0.82894257  0.49467348  0.83214749  1
  Ni  Ni51  1  0.82967124  0.82646951  0.49586422  1
  Ni  Ni52  1  0.66345612  0.65762625  0.66047883  1
  Cr  Cr53  1  0.82899661  0.83056971  0.82760680  1
" 