193,Ni40Fe57Cr2_14,-237.817797835614, 216.052687957399,Ni40Fe57Cr2,"# generated using pymatgen
 data_CrFe15Ni11
_symmetry_space_group_name_H-M   'P 1'
_cell_length_a   7.40128423
_cell_length_b   7.40128423
_cell_length_c   10.46699654
_cell_angle_alpha   90.00000000
_cell_angle_beta   90.00000000
_cell_angle_gamma   90.00000000
_symmetry_Int_Tables_number   1
_chemical_formula_structural   CrFe15Ni11
_chemical_formula_sum   'Cr2 Fe30 Ni22'
_cell_volume   573.37169055
_cell_formula_units_Z   2
loop_
 _symmetry_equiv_pos_site_id
 _symmetry_equiv_pos_as_xyz
  1  'x, y, z'
loop_
 _atom_site_type_symbol
 _atom_site_label
 _atom_site_symmetry_multiplicity
 _atom_site_fract_x
 _atom_site_fract_y
 _atom_site_fract_z
 _atom_site_occupancy
  Ni  Ni0  1  0.00476851  1.00426930  1.00383802  1
  Fe  Fe1  1  0.17199643  0.17123292  0.17094100  1
  Fe  Fe2  1  0.00456992  0.00491697  0.33779599  1
  Ni  Ni3  1  0.00463248  0.33775752  0.00511510  1
  Fe  Fe4  1  0.17218730  0.50473029  0.17132096  1
  Fe  Fe5  1  1.00416101  0.33748989  0.33798397  1
  Fe  Fe6  1  0.00501911  0.67189502  1.00397818  1
  Ni  Ni7  1  0.17182737  0.83849340  0.17090838  1
  Fe  Fe8  1  1.00414984  0.67092304  0.33799235  1
  Ni  Ni9  1  0.33699110  0.00469657  0.00609928  1
  Ni  Ni10  1  0.50435915  0.17123304  0.17115269  1
  Fe  Fe11  1  0.33873041  0.00463520  0.33687328  1
  Fe  Fe12  1  0.33740769  0.33673621  0.00461659  1
  Ni  Ni13  1  0.50550403  0.50429833  0.17002384  1
  Ni  Ni14  1  0.33814773  0.33887401  0.33666319  1
  Fe  Fe15  1  0.33601811  0.67132534  0.00607887  1
  Ni  Ni16  1  0.50320352  0.83779492  0.17098193  1
  Ni  Ni17  1  0.33795948  0.67050228  0.33814660  1
  Fe  Fe18  1  0.67200166  0.00579752  0.00546059  1
  Fe  Fe19  1  0.83681517  0.17113338  0.17143564  1
  Ni  Ni20  1  0.67132845  1.00413999  0.33702945  1
  Fe  Fe21  1  0.67143729  0.33722098  0.00548173  1
  Ni  Ni22  1  0.83740687  0.50333591  0.17150850  1
  Ni  Ni23  1  0.67052310  0.33719592  0.33868350  1
  Fe  Fe24  1  0.67228729  0.67030861  0.00557265  1
  Fe  Fe25  1  0.83680337  0.83769905  0.17147287  1
  Fe  Fe26  1  0.66972014  0.67048861  0.33790080  1
  Ni  Ni27  1  0.16967637  0.17154079  0.50491051  1
  Fe  Fe28  1  1.00428879  0.00468650  0.67118818  1
  Fe  Fe29  1  0.17117261  0.17084328  0.83759221  1
  Fe  Fe30  1  0.17127016  0.50423568  0.50490110  1
  Ni  Ni31  1  0.00590556  0.33841862  0.67057144  1
  Fe  Fe32  1  0.17081906  0.50467411  0.83710748  1
  Fe  Fe33  1  0.17099677  0.83760150  0.50450551  1
  Ni  Ni34  1  0.00576592  0.67098088  0.67175300  1
  Ni  Ni35  1  0.16952112  0.83790840  0.83642241  1
  Fe  Fe36  1  0.50522352  0.17074476  0.50397052  1
  Fe  Fe37  1  0.33633164  0.00529760  0.67088380  1
  Fe  Fe38  1  0.50379193  0.17204233  0.83808028  1
  Ni  Ni39  1  0.50373749  0.50443658  0.50419065  1
  Ni  Ni40  1  0.33689367  0.33762389  0.67170056  1
  Fe  Fe41  1  0.50284858  0.50217704  0.83833354  1
  Ni  Ni42  1  0.50386969  0.83728078  0.50347018  1
  Fe  Fe43  1  0.33511736  0.66998174  0.66972679  1
  Cr  Cr44  1  0.50230905  0.83846419  0.83876677  1
  Ni  Ni45  1  0.83901394  0.17140631  0.50505253  1
  Ni  Ni46  1  0.67176134  0.00581394  0.67071697  1
  Fe  Fe47  1  0.83836449  0.17044287  0.83734631  1
  Fe  Fe48  1  0.83863393  0.50345736  0.50348128  1
  Fe  Fe49  1  0.67155299  0.33629363  0.67054134  1
  Fe  Fe50  1  0.83966253  0.50413301  0.83909687  1
  Ni  Ni51  1  0.83804220  0.83922568  0.50433581  1
  Cr  Cr52  1  0.67252567  0.67231295  0.66841092  1
  Fe  Fe53  1  0.84085294  0.83875718  0.83779292  1
" 