3755,Ni40Fe6Cr53_5,-217.387762111415, 147.082888041665,Ni40Fe6Cr53,"# generated using pymatgen
 data_Cr10FeNi7
_symmetry_space_group_name_H-M   'P 1'
_cell_length_a   7.52429368
_cell_length_b   7.52429368
_cell_length_c   10.64095816
_cell_angle_alpha   90.00000000
_cell_angle_beta   90.00000000
_cell_angle_gamma   90.00000000
_symmetry_Int_Tables_number   1
_chemical_formula_structural   Cr10FeNi7
_chemical_formula_sum   'Cr30 Fe3 Ni21'
_cell_volume   602.43779677
_cell_formula_units_Z   3
loop_
 _symmetry_equiv_pos_site_id
 _symmetry_equiv_pos_as_xyz
  1  'x, y, z'
loop_
 _atom_site_type_symbol
 _atom_site_label
 _atom_site_symmetry_multiplicity
 _atom_site_fract_x
 _atom_site_fract_y
 _atom_site_fract_z
 _atom_site_occupancy
  Cr  Cr0  1  0.99472819  -0.00289291  0.99201284  1
  Cr  Cr1  1  0.16305498  0.16600500  0.16315781  1
  Cr  Cr2  1  0.99608796  0.99530182  0.33191439  1
  Ni  Ni3  1  0.99464427  0.32919771  0.99399416  1
  Cr  Cr4  1  0.16259980  0.49470103  0.16608327  1
  Ni  Ni5  1  -0.00043535  0.33147549  0.32992443  1
  Cr  Cr6  1  0.99583745  0.66238994  0.99420662  1
  Cr  Cr7  1  0.16468523  0.82789753  0.16460098  1
  Ni  Ni8  1  -0.00140477  0.66199398  0.33067100  1
  Cr  Cr9  1  0.33086168  -0.00372525  -0.00351644  1
  Ni  Ni10  1  0.49806501  0.16224777  0.16335086  1
  Cr  Cr11  1  0.33205822  -0.00224982  0.33022839  1
  Cr  Cr12  1  0.33078500  0.33047428  0.99536135  1
  Ni  Ni13  1  0.49592681  0.49645035  0.16240308  1
  Ni  Ni14  1  0.32944420  0.32913091  0.32949347  1
  Cr  Cr15  1  0.33107856  0.66183483  0.99582342  1
  Ni  Ni16  1  0.49824956  0.82988122  0.16292426  1
  Fe  Fe17  1  0.32890553  0.66204058  0.32862565  1
  Ni  Ni18  1  0.66298049  -0.00312849  -0.00272529  1
  Cr  Cr19  1  0.82807558  0.16355127  0.16130803  1
  Ni  Ni20  1  0.65963862  -0.00349768  0.32812713  1
  Ni  Ni21  1  0.66268110  0.32894062  0.99612906  1
  Cr  Cr22  1  0.83073130  0.49489077  0.16269632  1
  Cr  Cr23  1  0.66029537  0.32738517  0.32965230  1
  Fe  Fe24  1  0.66155945  0.66239947  0.99583372  1
  Cr  Cr25  1  0.82622941  0.83011713  0.16299367  1
  Cr  Cr26  1  0.66280056  0.66394507  0.32760354  1
  Ni  Ni27  1  0.16374829  0.16185098  0.49548261  1
  Ni  Ni28  1  -0.00237466  0.99552857  0.66468816  1
  Ni  Ni29  1  0.15871954  0.16364811  0.82923297  1
  Cr  Cr30  1  0.16248321  0.49586890  0.49151672  1
  Cr  Cr31  1  0.99581985  0.32667334  0.66433833  1
  Ni  Ni32  1  0.16330991  0.49460217  0.83076724  1
  Ni  Ni33  1  0.16188511  0.83085817  0.49615914  1
  Cr  Cr34  1  0.99577916  0.66632577  0.66379972  1
  Fe  Fe35  1  0.16042914  0.83039026  0.82825795  1
  Ni  Ni36  1  0.49477990  0.16325470  0.49491002  1
  Cr  Cr37  1  0.32529920  -0.00252394  0.66185203  1
  Cr  Cr38  1  0.49785597  0.16431211  0.82966739  1
  Cr  Cr39  1  0.49619277  0.49504622  0.49857949  1
  Cr  Cr40  1  0.33132885  0.32866973  0.66354954  1
  Ni  Ni41  1  0.49709927  0.49690796  0.82912811  1
  Cr  Cr42  1  0.49584595  0.83049425  0.49580683  1
  Cr  Cr43  1  0.32942592  0.66244942  0.66447071  1
  Cr  Cr44  1  0.49865349  0.82747651  0.83022940  1
  Cr  Cr45  1  0.82946387  0.16303269  0.49653269  1
  Cr  Cr46  1  0.66529479  -0.00248830  0.66172606  1
  Ni  Ni47  1  0.83170804  0.16153949  0.83054921  1
  Cr  Cr48  1  0.82992522  0.49618963  0.49622766  1
  Ni  Ni49  1  0.66158122  0.33082511  0.66353012  1
  Cr  Cr50  1  0.82748673  0.49517279  0.82966851  1
  Cr  Cr51  1  0.83024274  0.82936699  0.49643061  1
  Ni  Ni52  1  0.66295908  0.66102594  0.66545278  1
  Ni  Ni53  1  0.82947277  0.83132422  0.82914755  1
" 