2089,Ni40Fe60_5,-242.628258345308, 220.809396186995,Ni40Fe60,"# generated using pymatgen
 data_Fe7Ni11
_symmetry_space_group_name_H-M   'P 1'
_cell_length_a   7.40933535
_cell_length_b   7.40933535
_cell_length_c   10.47838254
_cell_angle_alpha   90.00000000
_cell_angle_beta   90.00000000
_cell_angle_gamma   90.00000000
_symmetry_Int_Tables_number   1
_chemical_formula_structural   Fe7Ni11
_chemical_formula_sum   'Fe21 Ni33'
_cell_volume   575.24486766
_cell_formula_units_Z   3
loop_
 _symmetry_equiv_pos_site_id
 _symmetry_equiv_pos_as_xyz
  1  'x, y, z'
loop_
 _atom_site_type_symbol
 _atom_site_label
 _atom_site_symmetry_multiplicity
 _atom_site_fract_x
 _atom_site_fract_y
 _atom_site_fract_z
 _atom_site_occupancy
  Ni  Ni0  1  0.00394874  0.00455994  0.00547340  1
  Ni  Ni1  1  0.17218565  0.16945563  0.16873924  1
  Fe  Fe2  1  0.00515588  0.00448932  0.33772159  1
  Ni  Ni3  1  1.00321606  0.33708868  1.00355009  1
  Ni  Ni4  1  0.16908190  0.50380225  0.16968466  1
  Fe  Fe5  1  0.00527548  0.33696911  0.33631252  1
  Fe  Fe6  1  0.00405652  0.67094014  1.00374686  1
  Ni  Ni7  1  0.17009582  0.83822089  0.17109802  1
  Fe  Fe8  1  0.00444475  0.67034074  0.33723268  1
  Ni  Ni9  1  0.33623719  1.00248769  1.00221748  1
  Ni  Ni10  1  0.50279936  0.16923365  0.17015114  1
  Ni  Ni11  1  0.33651235  1.00244843  0.33865442  1
  Ni  Ni12  1  0.33702057  0.33837233  0.00463112  1
  Ni  Ni13  1  0.50490052  0.50304093  0.17052398  1
  Fe  Fe14  1  0.33657961  0.33601834  0.33623595  1
  Ni  Ni15  1  0.33702820  0.67026186  0.00572827  1
  Ni  Ni16  1  0.50353265  0.83917149  0.16875392  1
  Fe  Fe17  1  0.33817276  0.67057398  0.33690282  1
  Ni  Ni18  1  0.67130029  0.00397670  0.00445995  1
  Fe  Fe19  1  0.83732054  0.17167583  0.17016807  1
  Fe  Fe20  1  0.66868665  1.00344221  0.33749334  1
  Ni  Ni21  1  0.67130291  0.33772596  0.00481414  1
  Ni  Ni22  1  0.83755033  0.50496978  0.16962534  1
  Fe  Fe23  1  0.66976937  0.33743395  0.33739886  1
  Ni  Ni24  1  0.66924390  0.66965160  1.00333709  1
  Fe  Fe25  1  0.83671760  0.83681628  0.17013643  1
  Fe  Fe26  1  0.66939933  0.67124685  0.33653856  1
  Ni  Ni27  1  0.17134422  0.17061000  0.50517066  1
  Ni  Ni28  1  1.00351873  0.00401107  0.66832171  1
  Fe  Fe29  1  0.16939313  0.17092321  0.83796105  1
  Ni  Ni30  1  0.16953710  0.50175331  0.50385574  1
  Fe  Fe31  1  0.00398262  0.33777707  0.67122447  1
  Ni  Ni32  1  0.17034204  0.50512063  0.83823375  1
  Fe  Fe33  1  0.17197308  0.83592697  0.50425633  1
  Fe  Fe34  1  1.00295699  0.67144501  0.67089394  1
  Ni  Ni35  1  0.16863862  0.83796498  0.83634022  1
  Ni  Ni36  1  0.50256038  0.17016617  0.50353507  1
  Fe  Fe37  1  0.33856075  0.00391830  0.67097143  1
  Ni  Ni38  1  0.50434082  0.16967043  0.83835763  1
  Ni  Ni39  1  0.50436064  0.50325681  0.50364771  1
  Fe  Fe40  1  0.33839548  0.33667649  0.67133650  1
  Ni  Ni41  1  0.50412976  0.50089272  0.83749501  1
  Ni  Ni42  1  0.50625443  0.83827197  0.50577836  1
  Ni  Ni43  1  0.33650026  0.66887041  0.66885763  1
  Fe  Fe44  1  0.50350658  0.83487630  0.83722794  1
  Fe  Fe45  1  0.83663546  0.17213524  0.50389057  1
  Ni  Ni46  1  0.67272882  0.00544830  0.67007558  1
  Fe  Fe47  1  0.83684993  0.17095378  0.83738830  1
  Ni  Ni48  1  0.83775295  0.50583444  0.50464567  1
  Ni  Ni49  1  0.67116124  0.33754237  0.66942565  1
  Ni  Ni50  1  0.83711544  0.50507297  0.83705900  1
  Ni  Ni51  1  0.83745325  0.83689379  0.50294558  1
  Fe  Fe52  1  0.67066529  0.67150731  0.67142178  1
  Ni  Ni53  1  0.83811353  0.83837185  0.83865923  1
" 