8390,Ni40Fe60_10,-242.504247125838, 222.317520692833,Ni40Fe60,"# generated using pymatgen
 data_Fe7Ni11
_symmetry_space_group_name_H-M   'P 1'
_cell_length_a   7.40658923
_cell_length_b   7.40658923
_cell_length_c   10.47449895
_cell_angle_alpha   90.00000000
_cell_angle_beta   90.00000000
_cell_angle_gamma   90.00000000
_symmetry_Int_Tables_number   1
_chemical_formula_structural   Fe7Ni11
_chemical_formula_sum   'Fe21 Ni33'
_cell_volume   574.60549732
_cell_formula_units_Z   3
loop_
 _symmetry_equiv_pos_site_id
 _symmetry_equiv_pos_as_xyz
  1  'x, y, z'
loop_
 _atom_site_type_symbol
 _atom_site_label
 _atom_site_symmetry_multiplicity
 _atom_site_fract_x
 _atom_site_fract_y
 _atom_site_fract_z
 _atom_site_occupancy
  Ni  Ni0  1  1.00407493  0.00464779  1.00391460  1
  Fe  Fe1  1  0.17045662  0.17082605  0.17166130  1
  Ni  Ni2  1  0.00475645  0.00471626  0.33807814  1
  Fe  Fe3  1  1.00378700  0.33836432  0.00437360  1
  Ni  Ni4  1  0.17076753  0.50340334  0.17002618  1
  Ni  Ni5  1  1.00363866  0.33693076  0.33687062  1
  Fe  Fe6  1  1.00356608  0.67097209  1.00382419  1
  Fe  Fe7  1  0.17074612  0.83747954  0.17053049  1
  Fe  Fe8  1  0.00426188  0.66976556  0.33781829  1
  Fe  Fe9  1  0.33810596  1.00295023  0.00415469  1
  Ni  Ni10  1  0.50346639  0.17005987  0.17037896  1
  Ni  Ni11  1  0.33691302  0.00438110  0.33653708  1
  Fe  Fe12  1  0.33777878  0.33835428  0.00484897  1
  Ni  Ni13  1  0.50266509  0.50408139  0.17055733  1
  Ni  Ni14  1  0.33803034  0.33726575  0.33707402  1
  Ni  Ni15  1  0.33941413  0.67028910  0.00416349  1
  Ni  Ni16  1  0.50413294  0.83810218  0.17012534  1
  Fe  Fe17  1  0.33723408  0.66976550  0.33672506  1
  Fe  Fe18  1  0.67071204  1.00272776  1.00404063  1
  Ni  Ni19  1  0.83803702  0.17004313  0.17045894  1
  Fe  Fe20  1  0.67067915  0.00554148  0.33774682  1
  Fe  Fe21  1  0.67067836  0.33821988  0.00499611  1
  Ni  Ni22  1  0.83881197  0.50407265  0.17047689  1
  Ni  Ni23  1  0.67057496  0.33873187  0.33739686  1
  Ni  Ni24  1  0.66943249  0.66995712  0.00444702  1
  Ni  Ni25  1  0.83736212  0.83813089  0.17012514  1
  Fe  Fe26  1  0.67074824  0.67038889  0.33733944  1
  Ni  Ni27  1  0.17058520  0.17143252  0.50382453  1
  Ni  Ni28  1  0.00436667  0.00453559  0.67025169  1
  Fe  Fe29  1  0.17031202  0.17024427  0.83657346  1
  Ni  Ni30  1  0.17056307  0.50269721  0.50504174  1
  Ni  Ni31  1  1.00403878  0.33761686  0.67044783  1
  Fe  Fe32  1  0.17060326  0.50517837  0.83733925  1
  Fe  Fe33  1  0.17060308  0.83813792  0.50430406  1
  Ni  Ni34  1  1.00286662  0.67009251  0.67135174  1
  Fe  Fe35  1  0.17060071  0.83682364  0.83741005  1
  Ni  Ni36  1  0.50293049  0.16994890  0.50469766  1
  Ni  Ni37  1  0.33770182  0.00420199  0.67112477  1
  Fe  Fe38  1  0.50489261  0.17038576  0.83705015  1
  Ni  Ni39  1  0.50295530  0.50418868  0.50425006  1
  Fe  Fe40  1  0.33705454  0.33712463  0.66983435  1
  Ni  Ni41  1  0.50364621  0.50484641  0.83743670  1
  Ni  Ni42  1  0.50441956  0.83810796  0.50461059  1
  Fe  Fe43  1  0.33752402  0.67144565  0.67121969  1
  Ni  Ni44  1  0.50432142  0.83741637  0.83750849  1
  Ni  Ni45  1  0.83872904  0.16996721  0.50479764  1
  Ni  Ni46  1  0.67017638  1.00302937  0.67067628  1
  Fe  Fe47  1  0.83704093  0.17038319  0.83718906  1
  Ni  Ni48  1  0.83872438  0.50418927  0.50426884  1
  Fe  Fe49  1  0.67166169  0.33730897  0.67004825  1
  Ni  Ni50  1  0.83801449  0.50483903  0.83750032  1
  Ni  Ni51  1  0.83724200  0.83808824  0.50471271  1
  Ni  Ni52  1  0.67064543  0.67056638  0.67082496  1
  Ni  Ni53  1  0.83734306  0.83742946  0.83741009  1
" 