7832,Ni40Fe57Cr2_1,-237.990452307412, 217.853652794168,Ni40Fe57Cr2,"# generated using pymatgen
 data_CrFe15Ni11
_symmetry_space_group_name_H-M   'P 1'
_cell_length_a   7.40295104
_cell_length_b   7.40295104
_cell_length_c   10.46935376
_cell_angle_alpha   90.00000000
_cell_angle_beta   90.00000000
_cell_angle_gamma   90.00000000
_symmetry_Int_Tables_number   1
_chemical_formula_structural   CrFe15Ni11
_chemical_formula_sum   'Cr2 Fe30 Ni22'
_cell_volume   573.75915657
_cell_formula_units_Z   2
loop_
 _symmetry_equiv_pos_site_id
 _symmetry_equiv_pos_as_xyz
  1  'x, y, z'
loop_
 _atom_site_type_symbol
 _atom_site_label
 _atom_site_symmetry_multiplicity
 _atom_site_fract_x
 _atom_site_fract_y
 _atom_site_fract_z
 _atom_site_occupancy
  Fe  Fe0  1  0.00493676  1.00409376  1.00372033  1
  Fe  Fe1  1  0.16986635  0.17159316  0.16993297  1
  Fe  Fe2  1  0.00480263  0.00446312  0.33794804  1
  Fe  Fe3  1  0.00519044  0.33801672  0.00525468  1
  Ni  Ni4  1  0.17058204  0.50569337  0.17000351  1
  Ni  Ni5  1  1.00218289  0.33796056  0.33799933  1
  Fe  Fe6  1  0.00485054  0.67087643  0.00445051  1
  Fe  Fe7  1  0.17104397  0.83649660  0.17108699  1
  Ni  Ni8  1  1.00432889  0.67038883  0.33690015  1
  Ni  Ni9  1  0.33774624  0.00511052  0.00488830  1
  Fe  Fe10  1  0.50526783  0.17140164  0.16987517  1
  Fe  Fe11  1  0.33688452  1.00283992  0.33809460  1
  Ni  Ni12  1  0.33798825  0.33734283  1.00408831  1
  Ni  Ni13  1  0.50459184  0.50570193  0.17047081  1
  Cr  Cr14  1  0.33739686  0.33834546  0.33764922  1
  Ni  Ni15  1  0.33816520  0.67053693  0.00502154  1
  Fe  Fe16  1  0.50434659  0.83643241  0.17071141  1
  Ni  Ni17  1  0.33717289  0.67199529  0.33694083  1
  Fe  Fe18  1  0.66997267  1.00409985  1.00375740  1
  Ni  Ni19  1  0.83751191  0.17093168  0.17096531  1
  Fe  Fe20  1  0.67129941  0.00449315  0.33817217  1
  Fe  Fe21  1  0.66962506  0.33810425  0.00461983  1
  Ni  Ni22  1  0.83781544  0.50450290  0.17135028  1
  Fe  Fe23  1  0.67292021  0.33843666  0.33746545  1
  Ni  Ni24  1  0.67123463  0.67053543  1.00410379  1
  Fe  Fe25  1  0.83759797  0.83651343  0.17057349  1
  Fe  Fe26  1  0.67129968  0.67005661  0.33676780  1
  Ni  Ni27  1  0.17100777  0.17090586  0.50532001  1
  Ni  Ni28  1  1.00402297  1.00409229  0.67066544  1
  Ni  Ni29  1  0.17224820  0.17120147  0.83710505  1
  Ni  Ni30  1  0.16998902  0.50490927  0.50558367  1
  Fe  Fe31  1  0.00682889  0.33712087  0.67029912  1
  Fe  Fe32  1  0.17130776  0.50430138  0.83757035  1
  Fe  Fe33  1  0.17156721  0.83763603  0.50461198  1
  Ni  Ni34  1  0.00502643  0.67144253  0.67114306  1
  Fe  Fe35  1  0.17134984  0.83852537  0.83728643  1
  Ni  Ni36  1  0.50375041  0.16879496  0.50423249  1
  Ni  Ni37  1  0.33770555  0.00434479  0.67054870  1
  Ni  Ni38  1  0.50256178  0.16981378  0.83866568  1
  Fe  Fe39  1  0.50315739  0.50540724  0.50391216  1
  Fe  Fe40  1  0.33563199  0.33661606  0.67104871  1
  Fe  Fe41  1  0.50333345  0.50507595  0.83933191  1
  Fe  Fe42  1  0.50305290  0.83809774  0.50457772  1
  Ni  Ni43  1  0.33668767  0.67120104  0.67102734  1
  Fe  Fe44  1  0.50399896  0.83845645  0.83769985  1
  Fe  Fe45  1  0.83888701  0.17056752  0.50312896  1
  Ni  Ni46  1  0.67125994  1.00422023  0.67165700  1
  Fe  Fe47  1  0.83841447  0.16949333  0.83845553  1
  Fe  Fe48  1  0.83934793  0.50427443  0.50295050  1
  Cr  Cr49  1  0.67083195  0.33614121  0.67082998  1
  Fe  Fe50  1  0.83834866  0.50498677  0.83876267  1
  Fe  Fe51  1  0.83836591  0.83814223  0.50528404  1
  Fe  Fe52  1  0.67137953  0.67395230  0.67173434  1
  Ni  Ni53  1  0.83708732  0.83708809  0.83752774  1
" 