1420,Ni40Fe60_1,-242.555279450411, 223.315610433277,Ni40Fe60,"# generated using pymatgen
 data_Fe7Ni11
_symmetry_space_group_name_H-M   'P 1'
_cell_length_a   7.40625806
_cell_length_b   7.40625806
_cell_length_c   10.47403060
_cell_angle_alpha   90.00000000
_cell_angle_beta   90.00000000
_cell_angle_gamma   90.00000000
_symmetry_Int_Tables_number   1
_chemical_formula_structural   Fe7Ni11
_chemical_formula_sum   'Fe21 Ni33'
_cell_volume   574.52842290
_cell_formula_units_Z   3
loop_
 _symmetry_equiv_pos_site_id
 _symmetry_equiv_pos_as_xyz
  1  'x, y, z'
loop_
 _atom_site_type_symbol
 _atom_site_label
 _atom_site_symmetry_multiplicity
 _atom_site_fract_x
 _atom_site_fract_y
 _atom_site_fract_z
 _atom_site_occupancy
  Fe  Fe0  1  1.00347421  1.00384862  0.00410844  1
  Fe  Fe1  1  0.17121107  0.17063037  0.17182681  1
  Ni  Ni2  1  0.00516032  0.00414882  0.33649649  1
  Ni  Ni3  1  1.00374913  0.33754581  1.00395089  1
  Ni  Ni4  1  0.16996030  0.50441572  0.17170895  1
  Ni  Ni5  1  0.00483672  0.33773092  0.33792194  1
  Fe  Fe6  1  1.00376627  0.67022477  0.00501982  1
  Ni  Ni7  1  0.17066400  0.83695864  0.17170870  1
  Ni  Ni8  1  0.00434546  0.67043277  0.33735316  1
  Ni  Ni9  1  0.33735602  1.00286405  1.00330336  1
  Ni  Ni10  1  0.50451946  0.16990774  0.17148990  1
  Ni  Ni11  1  0.33666622  0.00430065  0.33790575  1
  Fe  Fe12  1  0.33847103  0.33758226  0.00472691  1
  Ni  Ni13  1  0.50420238  0.50362156  0.17060597  1
  Ni  Ni14  1  0.33666019  0.33724957  0.33670130  1
  Ni  Ni15  1  0.33765733  0.67158914  0.00481528  1
  Ni  Ni16  1  0.50452314  0.83878142  0.17155926  1
  Fe  Fe17  1  0.33708008  0.67048053  0.33699249  1
  Ni  Ni18  1  0.67005447  1.00402647  1.00382982  1
  Fe  Fe19  1  0.83685166  0.17099303  0.17044504  1
  Ni  Ni20  1  0.67048603  1.00380970  0.33726783  1
  Ni  Ni21  1  0.67204545  0.33784720  1.00407503  1
  Ni  Ni22  1  0.83814984  0.50442352  0.17158129  1
  Ni  Ni23  1  0.67081464  0.33806437  0.33701674  1
  Ni  Ni24  1  0.66974351  0.67043853  1.00351520  1
  Ni  Ni25  1  0.83712114  0.83727635  0.17062620  1
  Ni  Ni26  1  0.67096708  0.67043833  0.33716588  1
  Ni  Ni27  1  0.17076007  0.17145054  0.50434588  1
  Ni  Ni28  1  0.00446124  0.00482848  0.67139486  1
  Fe  Fe29  1  0.17033948  0.17092384  0.83703706  1
  Ni  Ni30  1  0.17010002  0.50349556  0.50368424  1
  Fe  Fe31  1  1.00347687  0.33776582  0.67113229  1
  Ni  Ni32  1  0.16946811  0.50440219  0.83691921  1
  Fe  Fe33  1  0.17047946  0.83779786  0.50362089  1
  Fe  Fe34  1  1.00343670  0.67055589  0.67043888  1
  Fe  Fe35  1  0.17124348  0.83754101  0.83777020  1
  Fe  Fe36  1  0.50349056  0.17138937  0.50366413  1
  Fe  Fe37  1  0.33868697  1.00380900  0.67098835  1
  Ni  Ni38  1  0.50524161  0.16882228  0.83637779  1
  Fe  Fe39  1  0.50355477  0.50362688  0.50383761  1
  Fe  Fe40  1  0.33784634  0.33747201  0.67001201  1
  Fe  Fe41  1  0.50501438  0.50413735  0.83755929  1
  Fe  Fe42  1  0.50352083  0.83729514  0.50446047  1
  Ni  Ni43  1  0.33740250  0.67048074  0.67057087  1
  Ni  Ni44  1  0.50440112  0.83907618  0.83729117  1
  Fe  Fe45  1  0.83834540  0.17095567  0.50464324  1
  Ni  Ni46  1  0.67158132  0.00447529  0.67121151  1
  Ni  Ni47  1  0.83615179  0.17112643  0.83690956  1
  Fe  Fe48  1  0.83783869  0.50362829  0.50373608  1
  Ni  Ni49  1  0.67112116  0.33767626  0.67121570  1
  Ni  Ni50  1  0.83877328  0.50356227  0.83662538  1
  Fe  Fe51  1  0.83831180  0.83772904  0.50347921  1
  Ni  Ni52  1  0.66961940  0.67015981  0.67162917  1
  Fe  Fe53  1  0.83640776  0.83779821  0.83733879  1
" 