2926,Ni40Fe6Cr53_18,-217.616347491037, 149.794044350133,Ni40Fe6Cr53,"# generated using pymatgen
 data_Cr10FeNi7
_symmetry_space_group_name_H-M   'P 1'
_cell_length_a   7.52323721
_cell_length_b   7.52323721
_cell_length_c   10.63946410
_cell_angle_alpha   90.00000000
_cell_angle_beta   90.00000000
_cell_angle_gamma   90.00000000
_symmetry_Int_Tables_number   1
_chemical_formula_structural   Cr10FeNi7
_chemical_formula_sum   'Cr30 Fe3 Ni21'
_cell_volume   602.18407229
_cell_formula_units_Z   3
loop_
 _symmetry_equiv_pos_site_id
 _symmetry_equiv_pos_as_xyz
  1  'x, y, z'
loop_
 _atom_site_type_symbol
 _atom_site_label
 _atom_site_symmetry_multiplicity
 _atom_site_fract_x
 _atom_site_fract_y
 _atom_site_fract_z
 _atom_site_occupancy
  Ni  Ni0  1  -0.00314351  -0.00233010  0.99327238  1
  Cr  Cr1  1  0.16259398  0.16386077  0.16228206  1
  Cr  Cr2  1  -0.00372935  0.99541533  0.32987461  1
  Ni  Ni3  1  0.99574272  0.32903007  -0.00206493  1
  Cr  Cr4  1  0.16507741  0.49715294  0.16449746  1
  Fe  Fe5  1  0.99603324  0.32914956  0.32825897  1
  Cr  Cr6  1  0.99246861  0.66250961  0.99527600  1
  Cr  Cr7  1  0.16667987  0.82700200  0.16175592  1
  Cr  Cr8  1  0.99504228  0.66014889  0.33060474  1
  Cr  Cr9  1  0.33042453  -0.00265019  -0.00371396  1
  Ni  Ni10  1  0.49740555  0.16455043  0.16421864  1
  Cr  Cr11  1  0.33368415  -0.00150521  0.32752648  1
  Cr  Cr12  1  0.33183909  0.32862879  0.99570810  1
  Ni  Ni13  1  0.49710283  0.49760547  0.16177039  1
  Ni  Ni14  1  0.33196753  0.33213916  0.32886614  1
  Fe  Fe15  1  0.33467287  0.66230333  0.99541700  1
  Ni  Ni16  1  0.49694274  0.82657205  0.16332334  1
  Fe  Fe17  1  0.33512348  0.66207710  0.32988363  1
  Cr  Cr18  1  0.65925239  0.99411266  -0.00215548  1
  Cr  Cr19  1  0.82673471  0.16414423  0.16228616  1
  Ni  Ni20  1  0.65851634  0.99500783  0.32824688  1
  Ni  Ni21  1  0.66072836  0.33449187  -0.00129616  1
  Ni  Ni22  1  0.82746885  0.49478794  0.16088877  1
  Cr  Cr23  1  0.65902817  0.33127435  0.32828535  1
  Ni  Ni24  1  0.65948113  0.66090793  -0.00362265  1
  Cr  Cr25  1  0.82822843  0.82957227  0.16144145  1
  Cr  Cr26  1  0.66238004  0.66324338  0.32985940  1
  Cr  Cr27  1  0.16482457  0.16361310  0.49763560  1
  Ni  Ni28  1  -0.00112656  -0.00348646  0.66576421  1
  Ni  Ni29  1  0.16240170  0.16223266  0.82821754  1
  Cr  Cr30  1  0.16795212  0.49646349  0.49467522  1
  Cr  Cr31  1  -0.00244179  0.32932236  0.66307978  1
  Cr  Cr32  1  0.16798613  0.49552397  0.82931706  1
  Cr  Cr33  1  0.16727267  0.82857709  0.49753574  1
  Cr  Cr34  1  0.99525457  0.66463805  0.66311504  1
  Cr  Cr35  1  0.16542007  0.83003394  0.82912963  1
  Cr  Cr36  1  0.49642237  0.16370044  0.49769846  1
  Ni  Ni37  1  0.32926058  0.99564466  0.66397886  1
  Cr  Cr38  1  0.49644391  0.16586250  0.82680011  1
  Ni  Ni39  1  0.49356044  0.49715437  0.49799211  1
  Ni  Ni40  1  0.33225497  0.33044996  0.66351299  1
  Ni  Ni41  1  0.49659878  0.49859478  0.82907587  1
  Ni  Ni42  1  0.49431699  0.82778865  0.49594663  1
  Ni  Ni43  1  0.33445443  0.66251408  0.66237397  1
  Ni  Ni44  1  0.49649026  0.82619334  0.82937417  1
  Cr  Cr45  1  0.82699632  0.16257427  0.49611794  1
  Cr  Cr46  1  0.66130101  0.99361818  0.66252699  1
  Cr  Cr47  1  0.82866121  0.16321573  0.83066629  1
  Cr  Cr48  1  0.82670891  0.49309023  0.49652087  1
  Ni  Ni49  1  0.65733632  0.33239751  0.66287010  1
  Cr  Cr50  1  0.82484002  0.49432428  0.83215775  1
  Cr  Cr51  1  0.82759964  0.83236882  0.49692262  1
  Cr  Cr52  1  0.66176393  0.66175058  0.66370694  1
  Ni  Ni53  1  0.82804224  0.83097919  0.83093903  1
" 