8582,Ni40Fe60_11,-242.883626092195, 226.957977128277,Ni40Fe60,"# generated using pymatgen
 data_Fe7Ni11
_symmetry_space_group_name_H-M   'P 1'
_cell_length_a   7.40496300
_cell_length_b   7.40496300
_cell_length_c   10.47219910
_cell_angle_alpha   90.00000000
_cell_angle_beta   90.00000000
_cell_angle_gamma   90.00000000
_symmetry_Int_Tables_number   1
_chemical_formula_structural   Fe7Ni11
_chemical_formula_sum   'Fe21 Ni33'
_cell_volume   574.22708841
_cell_formula_units_Z   3
loop_
 _symmetry_equiv_pos_site_id
 _symmetry_equiv_pos_as_xyz
  1  'x, y, z'
loop_
 _atom_site_type_symbol
 _atom_site_label
 _atom_site_symmetry_multiplicity
 _atom_site_fract_x
 _atom_site_fract_y
 _atom_site_fract_z
 _atom_site_occupancy
  Ni  Ni0  1  1.00283717  1.00353202  1.00362850  1
  Ni  Ni1  1  0.16988981  0.17045822  0.16991630  1
  Ni  Ni2  1  1.00309107  1.00401299  0.33824905  1
  Ni  Ni3  1  0.00501305  0.33752911  1.00397623  1
  Ni  Ni4  1  0.17304386  0.50423715  0.17137241  1
  Ni  Ni5  1  0.00645033  0.33676823  0.33813117  1
  Fe  Fe6  1  0.00437583  0.66982514  1.00392171  1
  Ni  Ni7  1  0.16891357  0.83815698  0.16969281  1
  Ni  Ni8  1  1.00365936  0.67143395  0.33693884  1
  Fe  Fe9  1  0.33706410  0.00618488  1.00332526  1
  Fe  Fe10  1  0.50352906  0.17043243  0.17078005  1
  Fe  Fe11  1  0.33548126  0.00462132  0.33846760  1
  Ni  Ni12  1  0.33748891  0.33983664  1.00346034  1
  Ni  Ni13  1  0.50400430  0.50385398  0.17097498  1
  Ni  Ni14  1  0.33793090  0.33771846  0.33762768  1
  Ni  Ni15  1  0.33804792  0.67040887  0.00430858  1
  Fe  Fe16  1  0.50355871  0.83817599  0.17066161  1
  Fe  Fe17  1  0.33698705  0.67083761  0.33616159  1
  Ni  Ni18  1  0.67156053  1.00320556  1.00346480  1
  Ni  Ni19  1  0.83788903  0.16839097  0.17129499  1
  Ni  Ni20  1  0.67076885  1.00329714  0.33835896  1
  Ni  Ni21  1  0.67018809  0.33726555  0.00613968  1
  Fe  Fe22  1  0.83978952  0.50318427  0.17226579  1
  Fe  Fe23  1  0.67280228  0.33758888  0.33836049  1
  Fe  Fe24  1  0.67145527  0.66980911  0.00478944  1
  Ni  Ni25  1  0.83797343  0.83893351  0.17138682  1
  Ni  Ni26  1  0.67017151  0.67206703  0.33669870  1
  Ni  Ni27  1  0.17079320  0.16950641  0.50543610  1
  Ni  Ni28  1  0.00468171  1.00305306  0.67069242  1
  Fe  Fe29  1  0.17073468  0.17166038  0.83690242  1
  Fe  Fe30  1  0.16996808  0.50153851  0.50443971  1
  Ni  Ni31  1  0.00419345  0.33779849  0.67077902  1
  Ni  Ni32  1  0.17171116  0.50433561  0.83667296  1
  Fe  Fe33  1  0.17033158  0.83745427  0.50404148  1
  Ni  Ni34  1  1.00388671  0.67156021  0.67061098  1
  Fe  Fe35  1  0.17167418  0.83723555  0.83795446  1
  Ni  Ni36  1  0.50371695  0.17190671  0.50342792  1
  Ni  Ni37  1  0.33849137  0.00427388  0.67143283  1
  Ni  Ni38  1  0.50451172  0.17218496  0.83789732  1
  Ni  Ni39  1  0.50350964  0.50504499  0.50493397  1
  Ni  Ni40  1  0.33852360  0.33665443  0.67112044  1
  Ni  Ni41  1  0.50359601  0.50307844  0.83675278  1
  Fe  Fe42  1  0.50477721  0.83862362  0.50414652  1
  Fe  Fe43  1  0.33612497  0.66988510  0.67180900  1
  Fe  Fe44  1  0.50431538  0.83694372  0.83789522  1
  Ni  Ni45  1  0.83831159  0.17019280  0.50541264  1
  Fe  Fe46  1  0.67137742  0.00655493  0.67138452  1
  Fe  Fe47  1  0.83698502  0.17268090  0.83789919  1
  Ni  Ni48  1  0.83685150  0.50521564  0.50388801  1
  Ni  Ni49  1  0.66958116  0.33769888  0.66971038  1
  Fe  Fe50  1  0.83672523  0.50317847  0.83612693  1
  Fe  Fe51  1  0.83722094  0.83754885  0.50381959  1
  Fe  Fe52  1  0.67139698  0.67033293  0.67021849  1
  Ni  Ni53  1  0.83841690  0.83846538  0.83661342  1
" 