3320,Ni40Fe49Cr9_10,-235.385821517904, 209.964300197807,Ni40Fe49Cr9,"# generated using pymatgen
 data_Cr3Fe13Ni11
_symmetry_space_group_name_H-M   'P 1'
_cell_length_a   7.41948545
_cell_length_b   7.41948545
_cell_length_c   10.49273694
_cell_angle_alpha   90.00000000
_cell_angle_beta   90.00000000
_cell_angle_gamma   90.00000000
_symmetry_Int_Tables_number   1
_chemical_formula_structural   Cr3Fe13Ni11
_chemical_formula_sum   'Cr6 Fe26 Ni22'
_cell_volume   577.61220290
_cell_formula_units_Z   2
loop_
 _symmetry_equiv_pos_site_id
 _symmetry_equiv_pos_as_xyz
  1  'x, y, z'
loop_
 _atom_site_type_symbol
 _atom_site_label
 _atom_site_symmetry_multiplicity
 _atom_site_fract_x
 _atom_site_fract_y
 _atom_site_fract_z
 _atom_site_occupancy
  Fe  Fe0  1  1.00305303  0.00366091  1.00157856  1
  Cr  Cr1  1  0.16952119  0.17093314  0.17032266  1
  Ni  Ni2  1  0.00327521  1.00209458  0.33656254  1
  Ni  Ni3  1  1.00207956  0.33931528  0.00356557  1
  Ni  Ni4  1  0.16833122  0.50373836  0.16936845  1
  Fe  Fe5  1  1.00205486  0.33735011  0.33639887  1
  Fe  Fe6  1  0.00419778  0.66824369  0.00332645  1
  Fe  Fe7  1  0.17017536  0.83353371  0.17113769  1
  Ni  Ni8  1  0.00461506  0.66836510  0.33644436  1
  Cr  Cr9  1  0.33670924  1.00195810  1.00250340  1
  Fe  Fe10  1  0.50508123  0.17039433  0.17190166  1
  Ni  Ni11  1  0.33813002  1.00179647  0.33699237  1
  Fe  Fe12  1  0.33592024  0.33805703  1.00104564  1
  Cr  Cr13  1  0.50295007  0.50257216  0.16971854  1
  Fe  Fe14  1  0.33646200  0.33593923  0.33871738  1
  Fe  Fe15  1  0.33498719  0.66842430  1.00211708  1
  Fe  Fe16  1  0.50142226  0.83617166  0.17195710  1
  Fe  Fe17  1  0.33566649  0.67116112  0.33780827  1
  Cr  Cr18  1  0.66944665  0.00469570  0.00331755  1
  Fe  Fe19  1  0.83614298  0.17322371  0.17078677  1
  Ni  Ni20  1  0.66821174  0.00507149  0.33662453  1
  Fe  Fe21  1  0.67095802  0.33692435  1.00255489  1
  Ni  Ni22  1  0.83829283  0.50283231  0.16918819  1
  Ni  Ni23  1  0.67097425  0.33535665  0.33604101  1
  Fe  Fe24  1  0.67043178  0.66811023  1.00146368  1
  Cr  Cr25  1  0.83708668  0.83616967  0.17099517  1
  Fe  Fe26  1  0.67067684  0.67079185  0.33896987  1
  Fe  Fe27  1  0.17048495  0.16943878  0.50327576  1
  Ni  Ni28  1  0.00520156  1.00294858  0.67089516  1
  Fe  Fe29  1  0.16945455  0.17084256  0.83571949  1
  Ni  Ni30  1  0.16976548  0.50249311  0.50258003  1
  Fe  Fe31  1  0.00383185  0.33710725  0.67041237  1
  Ni  Ni32  1  0.17009629  0.50278759  0.83766977  1
  Fe  Fe33  1  0.17024720  0.83624294  0.50312359  1
  Fe  Fe34  1  0.00348662  0.66958807  0.66908071  1
  Fe  Fe35  1  0.16979086  0.83628212  0.83535313  1
  Ni  Ni36  1  0.50170423  0.16991773  0.50189527  1
  Ni  Ni37  1  0.33465855  1.00299825  0.66999642  1
  Ni  Ni38  1  0.50202030  0.17165703  0.83640349  1
  Ni  Ni39  1  0.50306969  0.50267466  0.50462789  1
  Ni  Ni40  1  0.33682018  0.33726759  0.67045563  1
  Fe  Fe41  1  0.50283137  0.50282142  0.83550908  1
  Ni  Ni42  1  0.50382969  0.83702393  0.50235089  1
  Ni  Ni43  1  0.33649607  0.66934557  0.67006281  1
  Fe  Fe44  1  0.50175432  0.83399275  0.83506475  1
  Fe  Fe45  1  0.83622071  0.17082114  0.50214119  1
  Cr  Cr46  1  0.66922515  0.00347038  0.66873249  1
  Fe  Fe47  1  0.83839908  0.17192216  0.83668574  1
  Ni  Ni48  1  0.83678298  0.50461912  0.50332241  1
  Ni  Ni49  1  0.66950167  0.33890225  0.67085997  1
  Fe  Fe50  1  0.83610730  0.50248721  0.83667226  1
  Ni  Ni51  1  0.83682758  0.83589327  0.50305355  1
  Ni  Ni52  1  0.66955054  0.66744021  0.66971857  1
  Fe  Fe53  1  0.83806932  0.83521097  0.83601125  1
" 