3693,Ni40Cr60_14,-223.676785989895, 137.558910818384,Ni40Cr60,"# generated using pymatgen
 data_Cr7Ni11
_symmetry_space_group_name_H-M   'P 1'
_cell_length_a   7.50487644
_cell_length_b   7.50487644
_cell_length_c   10.61349804
_cell_angle_alpha   90.00000000
_cell_angle_beta   90.00000000
_cell_angle_gamma   90.00000000
_symmetry_Int_Tables_number   1
_chemical_formula_structural   Cr7Ni11
_chemical_formula_sum   'Cr21 Ni33'
_cell_volume   597.78585850
_cell_formula_units_Z   3
loop_
 _symmetry_equiv_pos_site_id
 _symmetry_equiv_pos_as_xyz
  1  'x, y, z'
loop_
 _atom_site_type_symbol
 _atom_site_label
 _atom_site_symmetry_multiplicity
 _atom_site_fract_x
 _atom_site_fract_y
 _atom_site_fract_z
 _atom_site_occupancy
  Ni  Ni0  1  0.00075475  0.99647475  0.99693897  1
  Ni  Ni1  1  0.16780397  0.16210653  0.16333824  1
  Cr  Cr2  1  -0.00103217  -0.00139314  0.33149742  1
  Ni  Ni3  1  -0.00156182  0.32970898  0.99616754  1
  Cr  Cr4  1  0.16397990  0.49906247  0.16396493  1
  Cr  Cr5  1  -0.00013872  0.33117707  0.33556860  1
  Ni  Ni6  1  0.00150415  0.66600792  0.99681601  1
  Ni  Ni7  1  0.16765245  0.83115100  0.16296890  1
  Ni  Ni8  1  -0.00091728  0.66323961  0.33237577  1
  Ni  Ni9  1  0.32852515  0.99379540  -0.00023584  1
  Ni  Ni10  1  0.49420296  0.16333286  0.16486462  1
  Ni  Ni11  1  0.33100139  -0.00205217  0.32695879  1
  Cr  Cr12  1  0.33276473  0.33380474  -0.00214804  1
  Ni  Ni13  1  0.49551569  0.49805259  0.16516787  1
  Ni  Ni14  1  0.33099368  0.33126982  0.33131336  1
  Ni  Ni15  1  0.32895969  0.66715732  0.99588056  1
  Ni  Ni16  1  0.49306025  0.83040795  0.16738822  1
  Ni  Ni17  1  0.33195819  0.66321912  0.32980854  1
  Cr  Cr18  1  0.66077586  0.99550489  -0.00168805  1
  Cr  Cr19  1  0.83133213  0.16475427  0.15970404  1
  Ni  Ni20  1  0.66101576  0.99671691  0.32945930  1
  Ni  Ni21  1  0.66348543  0.33045486  0.99684624  1
  Cr  Cr22  1  0.83152370  0.49874015  0.16155270  1
  Cr  Cr23  1  0.66327807  0.33214344  0.33055490  1
  Cr  Cr24  1  0.65741620  0.66345992  -0.00103972  1
  Cr  Cr25  1  0.83342119  0.82805804  0.16748140  1
  Ni  Ni26  1  0.66143025  0.66377590  0.33070234  1
  Ni  Ni27  1  0.16415596  0.16467909  0.49597285  1
  Ni  Ni28  1  0.99567710  0.99734950  0.66414761  1
  Cr  Cr29  1  0.16247029  0.16353417  0.83303428  1
  Ni  Ni30  1  0.16606911  0.49966033  0.49623503  1
  Cr  Cr31  1  -0.00181121  0.33095452  0.66020191  1
  Ni  Ni32  1  0.16545500  0.50248794  0.83132345  1
  Cr  Cr33  1  0.16548000  0.82938355  0.49779931  1
  Ni  Ni34  1  -0.00051125  0.66382028  0.66353455  1
  Ni  Ni35  1  0.16519167  0.82747635  0.83212005  1
  Cr  Cr36  1  0.49655625  0.16349077  0.49697260  1
  Cr  Cr37  1  0.32837065  0.99422887  0.66680588  1
  Cr  Cr38  1  0.50045561  0.16531012  0.82955074  1
  Ni  Ni39  1  0.49749767  0.49880177  0.49736625  1
  Cr  Cr40  1  0.33092661  0.33584811  0.66152692  1
  Ni  Ni41  1  0.49683694  0.50071695  0.82947639  1
  Cr  Cr42  1  0.49750758  0.82947834  0.49723302  1
  Ni  Ni43  1  0.33129142  0.66232713  0.66677100  1
  Ni  Ni44  1  0.49449724  0.82816656  0.82922726  1
  Ni  Ni45  1  0.82904356  0.16386155  0.50102282  1
  Ni  Ni46  1  0.66637510  0.99747690  0.66531103  1
  Ni  Ni47  1  0.83107641  0.16383549  0.83076181  1
  Ni  Ni48  1  0.83001677  0.49923891  0.49801509  1
  Ni  Ni49  1  0.66619187  0.33323667  0.66392538  1
  Cr  Cr50  1  0.83204437  0.49579486  0.83375084  1
  Cr  Cr51  1  0.82912571  0.82951172  0.49743608  1
  Ni  Ni52  1  0.66234909  0.66229673  0.66397356  1
  Cr  Cr53  1  0.83285963  0.83080634  0.82820135  1
" 