8723,Ni40Fe5Cr53_10,-217.33768841915, 145.32781392196,Ni40Fe5Cr53,"# generated using pymatgen
 data_Cr10FeNi7
_symmetry_space_group_name_H-M   'P 1'
_cell_length_a   7.52584155
_cell_length_b   7.52584155
_cell_length_c   10.64314719
_cell_angle_alpha   90.00000000
_cell_angle_beta   90.00000000
_cell_angle_gamma   90.00000000
_symmetry_Int_Tables_number   1
_chemical_formula_structural   Cr10FeNi7
_chemical_formula_sum   'Cr30 Fe3 Ni21'
_cell_volume   602.80966864
_cell_formula_units_Z   3
loop_
 _symmetry_equiv_pos_site_id
 _symmetry_equiv_pos_as_xyz
  1  'x, y, z'
loop_
 _atom_site_type_symbol
 _atom_site_label
 _atom_site_symmetry_multiplicity
 _atom_site_fract_x
 _atom_site_fract_y
 _atom_site_fract_z
 _atom_site_occupancy
  Ni  Ni0  1  -0.00305724  0.99503129  0.99432983  1
  Cr  Cr1  1  0.16288780  0.16487983  0.16133731  1
  Cr  Cr2  1  -0.00343395  -0.00389325  0.33132649  1
  Cr  Cr3  1  -0.00353702  0.33247145  -0.00388148  1
  Ni  Ni4  1  0.16311925  0.49663139  0.16297044  1
  Fe  Fe5  1  0.99399278  0.33027960  0.32762464  1
  Ni  Ni6  1  -0.00262260  0.66119102  0.99565434  1
  Cr  Cr7  1  0.16084080  0.82808357  0.16126918  1
  Cr  Cr8  1  -0.00304365  0.66284934  0.32741257  1
  Cr  Cr9  1  0.32956957  0.00027918  0.99557051  1
  Ni  Ni10  1  0.49756903  0.16653520  0.16115965  1
  Cr  Cr11  1  0.32942195  0.99309242  0.33049129  1
  Fe  Fe12  1  0.32934525  0.33054137  0.99558740  1
  Ni  Ni13  1  0.49479839  0.49363893  0.16413666  1
  Cr  Cr14  1  0.33105420  0.32854126  0.32563489  1
  Cr  Cr15  1  0.32773546  0.65992214  0.99568681  1
  Cr  Cr16  1  0.49772175  0.82924633  0.16311681  1
  Ni  Ni17  1  0.32867206  0.66130376  0.32975936  1
  Ni  Ni18  1  0.66267788  -0.00091858  -0.00263964  1
  Cr  Cr19  1  0.82943491  0.16097142  0.16361466  1
  Cr  Cr20  1  0.66192966  -0.00173543  0.32927116  1
  Cr  Cr21  1  0.66046970  0.33017749  -0.00381303  1
  Ni  Ni22  1  0.83044870  0.49662680  0.16379103  1
  Ni  Ni23  1  0.66423226  0.32948700  0.32760386  1
  Cr  Cr24  1  0.66530883  0.65831862  -0.00305397  1
  Ni  Ni25  1  0.83058289  0.82844857  0.15825233  1
  Cr  Cr26  1  0.66196725  0.66106502  0.32789103  1
  Cr  Cr27  1  0.15982187  0.16479092  0.49632953  1
  Ni  Ni28  1  -0.00235624  -0.00258655  0.66303499  1
  Ni  Ni29  1  0.16430968  0.16333002  0.82932130  1
  Cr  Cr30  1  0.16416667  0.49579991  0.49371957  1
  Cr  Cr31  1  -0.00381554  0.32891072  0.66324492  1
  Ni  Ni32  1  0.16435872  0.49460410  0.83066869  1
  Ni  Ni33  1  0.16390643  0.82905081  0.49630466  1
  Cr  Cr34  1  -0.00171639  0.66285838  0.66615647  1
  Ni  Ni35  1  0.16039789  0.83034925  0.83011810  1
  Cr  Cr36  1  0.49790178  0.16453530  0.49694530  1
  Cr  Cr37  1  0.32767051  0.99608871  0.66196953  1
  Ni  Ni38  1  0.49389804  0.16486424  0.82988838  1
  Cr  Cr39  1  0.49459565  0.49677165  0.49553493  1
  Fe  Fe40  1  0.32872741  0.32855479  0.66623611  1
  Ni  Ni41  1  0.49280716  0.49210830  0.82914993  1
  Ni  Ni42  1  0.49441735  0.82945373  0.49563818  1
  Cr  Cr43  1  0.32822428  0.66364010  0.66226056  1
  Cr  Cr44  1  0.49851733  0.83105000  0.82935413  1
  Ni  Ni45  1  0.82902112  0.16245808  0.49581371  1
  Ni  Ni46  1  0.66228475  -0.00083937  0.66169548  1
  Cr  Cr47  1  0.82938096  0.15909467  0.82870361  1
  Cr  Cr48  1  0.82947476  0.49222561  0.49447938  1
  Cr  Cr49  1  0.66295166  0.32943067  0.66493509  1
  Ni  Ni50  1  0.83092950  0.49634005  0.83077499  1
  Cr  Cr51  1  0.82852440  0.83143834  0.49970074  1
  Cr  Cr52  1  0.66217803  0.66120264  0.66445757  1
  Cr  Cr53  1  0.83040491  0.83047775  0.83252860  1
" 