3128,Ni40Fe49Cr9_3,-236.573855099417, 210.63394372784,Ni40Fe49Cr9,"# generated using pymatgen
 data_Cr3Fe13Ni11
_symmetry_space_group_name_H-M   'P 1'
_cell_length_a   7.42641914
_cell_length_b   7.42641914
_cell_length_c   10.50254267
_cell_angle_alpha   90.00000000
_cell_angle_beta   90.00000000
_cell_angle_gamma   90.00000000
_symmetry_Int_Tables_number   1
_chemical_formula_structural   Cr3Fe13Ni11
_chemical_formula_sum   'Cr6 Fe26 Ni22'
_cell_volume   579.23309537
_cell_formula_units_Z   2
loop_
 _symmetry_equiv_pos_site_id
 _symmetry_equiv_pos_as_xyz
  1  'x, y, z'
loop_
 _atom_site_type_symbol
 _atom_site_label
 _atom_site_symmetry_multiplicity
 _atom_site_fract_x
 _atom_site_fract_y
 _atom_site_fract_z
 _atom_site_occupancy
  Fe  Fe0  1  1.00243416  1.00148117  0.00455871  1
  Ni  Ni1  1  0.16817309  0.16877975  0.16978289  1
  Fe  Fe2  1  0.00339106  1.00234621  0.33644978  1
  Ni  Ni3  1  0.99932929  0.33588278  1.00204071  1
  Cr  Cr4  1  0.16495122  0.50090529  0.17112584  1
  Ni  Ni5  1  0.99957481  0.33328058  0.33826953  1
  Ni  Ni6  1  1.00188864  0.66964235  0.00325101  1
  Ni  Ni7  1  0.17155493  0.83829410  0.16918053  1
  Fe  Fe8  1  0.00357141  0.67019328  0.33775269  1
  Fe  Fe9  1  0.33524073  0.00443225  0.00408504  1
  Fe  Fe10  1  0.50250472  0.16939547  0.16824477  1
  Fe  Fe11  1  0.33488266  1.00239064  0.33659142  1
  Fe  Fe12  1  0.33557392  0.33603364  0.00282833  1
  Fe  Fe13  1  0.50366395  0.50279553  0.17227740  1
  Fe  Fe14  1  0.33547457  0.33666702  0.33768661  1
  Cr  Cr15  1  0.33574947  0.66998292  1.00198153  1
  Ni  Ni16  1  0.50413469  0.83741918  0.17079328  1
  Ni  Ni17  1  0.33792099  0.67215876  0.33750678  1
  Fe  Fe18  1  0.67120697  0.00290797  0.00419258  1
  Ni  Ni19  1  0.83661538  0.17137400  0.16803521  1
  Fe  Fe20  1  0.67027761  0.00329503  0.33622454  1
  Fe  Fe21  1  0.66998835  0.33794677  1.00194548  1
  Ni  Ni22  1  0.83503473  0.50140730  0.17064333  1
  Fe  Fe23  1  0.66973507  0.33687333  0.33723297  1
  Fe  Fe24  1  0.67263677  0.66800120  0.00420774  1
  Fe  Fe25  1  0.83814974  0.83603512  0.17027995  1
  Fe  Fe26  1  0.66956232  0.66856376  0.33701191  1
  Fe  Fe27  1  0.16933745  0.17029728  0.50172477  1
  Cr  Cr28  1  0.00276660  1.00254010  0.66827973  1
  Cr  Cr29  1  0.16934628  0.17144098  0.83642870  1
  Ni  Ni30  1  0.16839258  0.50181509  0.50332584  1
  Ni  Ni31  1  1.00064584  0.33831896  0.66797967  1
  Ni  Ni32  1  0.16557375  0.50235407  0.83434374  1
  Ni  Ni33  1  0.17105321  0.83453558  0.50274773  1
  Ni  Ni34  1  0.00302774  0.66822008  0.66826392  1
  Fe  Fe35  1  0.16759084  0.83425217  0.83501142  1
  Fe  Fe36  1  0.50239402  0.16885961  0.50309492  1
  Ni  Ni37  1  0.33779331  1.00148679  0.66700155  1
  Ni  Ni38  1  0.50316498  0.16690235  0.83718403  1
  Ni  Ni39  1  0.50164537  0.50503503  0.50293003  1
  Fe  Fe40  1  0.33411041  0.33632527  0.66863632  1
  Fe  Fe41  1  0.50203562  0.49960247  0.83510167  1
  Ni  Ni42  1  0.50326210  0.83692452  0.50365813  1
  Fe  Fe43  1  0.33330636  0.66738121  0.66708230  1
  Cr  Cr44  1  0.50456556  0.83733554  0.83196706  1
  Ni  Ni45  1  0.83603240  0.16949911  0.50242157  1
  Fe  Fe46  1  0.67099118  0.00307565  0.66701554  1
  Fe  Fe47  1  0.83440600  0.17080604  0.83771747  1
  Ni  Ni48  1  0.83770774  0.50290765  0.50153078  1
  Cr  Cr49  1  0.67118948  0.33590014  0.66883676  1
  Ni  Ni50  1  0.83877991  0.50410062  0.83643501  1
  Ni  Ni51  1  0.83410559  0.83576693  0.50184769  1
  Fe  Fe52  1  0.67321140  0.66938925  0.66684526  1
  Fe  Fe53  1  0.83805470  0.83415375  0.83611950  1
" 