7608,Ni40Cr60_16,-223.917199094224, 145.672328619233,Ni40Cr60,"# generated using pymatgen
 data_Cr7Ni11
_symmetry_space_group_name_H-M   'P 1'
_cell_length_a   7.49844757
_cell_length_b   7.49844757
_cell_length_c   10.60440624
_cell_angle_alpha   90.00000000
_cell_angle_beta   90.00000000
_cell_angle_gamma   90.00000000
_symmetry_Int_Tables_number   1
_chemical_formula_structural   Cr7Ni11
_chemical_formula_sum   'Cr21 Ni33'
_cell_volume   596.25093700
_cell_formula_units_Z   3
loop_
 _symmetry_equiv_pos_site_id
 _symmetry_equiv_pos_as_xyz
  1  'x, y, z'
loop_
 _atom_site_type_symbol
 _atom_site_label
 _atom_site_symmetry_multiplicity
 _atom_site_fract_x
 _atom_site_fract_y
 _atom_site_fract_z
 _atom_site_occupancy
  Cr  Cr0  1  0.99728513  0.99715785  -0.00178233  1
  Ni  Ni1  1  0.16501914  0.16453746  0.16588386  1
  Ni  Ni2  1  -0.00081240  0.99772566  0.32947335  1
  Ni  Ni3  1  -0.00117596  0.33062103  0.99712826  1
  Cr  Cr4  1  0.16657156  0.49582583  0.16472063  1
  Ni  Ni5  1  0.00042828  0.33068372  0.33193896  1
  Cr  Cr6  1  0.99618380  0.66505244  -0.00176740  1
  Ni  Ni7  1  0.16520037  0.83261735  0.16682933  1
  Ni  Ni8  1  0.99755979  0.66534168  0.33044950  1
  Cr  Cr9  1  0.33195525  0.99654646  0.99772124  1
  Cr  Cr10  1  0.49602578  0.16651607  0.16317287  1
  Ni  Ni11  1  0.33058336  -0.00166831  0.33035698  1
  Ni  Ni12  1  0.33226634  0.33209595  0.99714784  1
  Ni  Ni13  1  0.49784974  0.49959326  0.16270272  1
  Ni  Ni14  1  0.33047896  0.33086021  0.33205403  1
  Ni  Ni15  1  0.33566951  0.66353360  -0.00155257  1
  Ni  Ni16  1  0.49868564  0.82910823  0.16362786  1
  Cr  Cr17  1  0.33370779  0.66408669  0.33103284  1
  Ni  Ni18  1  0.66359230  0.99481913  0.99692301  1
  Cr  Cr19  1  0.83169377  0.16502507  0.16452591  1
  Cr  Cr20  1  0.66305805  0.99547408  0.33186785  1
  Ni  Ni21  1  0.66259369  0.33359310  0.99525416  1
  Cr  Cr22  1  0.82839292  0.49827207  0.16423223  1
  Cr  Cr23  1  0.66235856  0.33365717  0.33486306  1
  Ni  Ni24  1  0.66219788  0.66531922  0.99750431  1
  Ni  Ni25  1  0.82979763  0.83034423  0.16539375  1
  Ni  Ni26  1  0.66368392  0.66534481  0.33004411  1
  Cr  Cr27  1  0.16396285  0.16350025  0.49561667  1
  Ni  Ni28  1  0.99648005  0.99733025  0.66573183  1
  Ni  Ni29  1  0.16564501  0.16545728  0.83284761  1
  Ni  Ni30  1  0.16568957  0.49880577  0.49708857  1
  Cr  Cr31  1  0.99647233  0.33161594  0.66509593  1
  Cr  Cr32  1  0.16650097  0.49839584  0.83153984  1
  Cr  Cr33  1  0.16483458  0.82924421  0.49932821  1
  Ni  Ni34  1  0.99645854  0.66456022  0.66538547  1
  Cr  Cr35  1  0.16572848  0.83019862  0.82747811  1
  Ni  Ni36  1  0.49837807  0.16540245  0.49717582  1
  Cr  Cr37  1  0.33345359  -0.00173426  0.66547372  1
  Ni  Ni38  1  0.49837319  0.16638013  0.83290938  1
  Ni  Ni39  1  0.49738153  0.49912663  0.49875181  1
  Cr  Cr40  1  0.33437481  0.33263371  0.66398808  1
  Ni  Ni41  1  0.50046166  0.49876247  0.83217064  1
  Ni  Ni42  1  0.49787846  0.82929572  0.49797982  1
  Ni  Ni43  1  0.33455533  0.66329008  0.66380890  1
  Ni  Ni44  1  0.50052897  0.82847783  0.83194301  1
  Ni  Ni45  1  0.83116718  0.16465856  0.49793362  1
  Cr  Cr46  1  0.66368954  -0.00105144  0.66439662  1
  Cr  Cr47  1  0.82942359  0.16548178  0.83190163  1
  Cr  Cr48  1  0.83163992  0.49916972  0.49814357  1
  Ni  Ni49  1  0.66295623  0.33345782  0.66442828  1
  Ni  Ni50  1  0.82740710  0.49963067  0.83132809  1
  Cr  Cr51  1  0.83177029  0.83106851  0.49833516  1
  Ni  Ni52  1  0.66269550  0.66305796  0.66613064  1
  Ni  Ni53  1  0.82817859  0.82863595  0.83027935  1
" 