84,Ni40Fe51Cr7_7,-236.038661308399, 211.128046078245,Ni40Fe51Cr7,"# generated using pymatgen
 data_Cr2Fe9Ni7
_symmetry_space_group_name_H-M   'P 1'
_cell_length_a   7.42253989
_cell_length_b   7.42253989
_cell_length_c   10.49705658
_cell_angle_alpha   90.00000000
_cell_angle_beta   90.00000000
_cell_angle_gamma   90.00000000
_symmetry_Int_Tables_number   1
_chemical_formula_structural   Cr2Fe9Ni7
_chemical_formula_sum   'Cr6 Fe27 Ni21'
_cell_volume   578.32586874
_cell_formula_units_Z   3
loop_
 _symmetry_equiv_pos_site_id
 _symmetry_equiv_pos_as_xyz
  1  'x, y, z'
loop_
 _atom_site_type_symbol
 _atom_site_label
 _atom_site_symmetry_multiplicity
 _atom_site_fract_x
 _atom_site_fract_y
 _atom_site_fract_z
 _atom_site_occupancy
  Fe  Fe0  1  1.00289901  0.00464597  0.00346360  1
  Fe  Fe1  1  0.16781710  0.16983280  0.17162017  1
  Fe  Fe2  1  1.00214602  1.00265965  0.33714932  1
  Ni  Ni3  1  0.00457447  0.33660079  0.00492201  1
  Fe  Fe4  1  0.16948439  0.50359510  0.16977494  1
  Fe  Fe5  1  1.00065538  0.33653925  0.33622352  1
  Fe  Fe6  1  0.00435014  0.66634703  1.00244310  1
  Ni  Ni7  1  0.17117158  0.83504518  0.17011473  1
  Fe  Fe8  1  1.00078181  0.66980725  0.33661794  1
  Cr  Cr9  1  0.33546460  0.00345471  0.00342652  1
  Fe  Fe10  1  0.50419542  0.16954010  0.17248483  1
  Fe  Fe11  1  0.33747454  1.00267004  0.33720102  1
  Ni  Ni12  1  0.33411744  0.33537489  0.00339505  1
  Fe  Fe13  1  0.50343563  0.50519727  0.17153382  1
  Fe  Fe14  1  0.33928744  0.33579794  0.33682055  1
  Fe  Fe15  1  0.33765485  0.66654961  0.00337605  1
  Ni  Ni16  1  0.50179968  0.83541646  0.17077841  1
  Fe  Fe17  1  0.33817052  0.67008374  0.33629309  1
  Fe  Fe18  1  0.66826189  0.00385493  1.00273102  1
  Ni  Ni19  1  0.83649752  0.17110291  0.17068069  1
  Fe  Fe20  1  0.66928362  0.00363434  0.33713184  1
  Cr  Cr21  1  0.66942582  0.34090157  0.00428457  1
  Ni  Ni22  1  0.83742001  0.50204282  0.17019914  1
  Ni  Ni23  1  0.67078704  0.33860222  0.33714968  1
  Ni  Ni24  1  0.66984293  0.67022866  1.00285900  1
  Cr  Cr25  1  0.83507589  0.83609922  0.16645870  1
  Ni  Ni26  1  0.67056123  0.66842480  0.33725966  1
  Ni  Ni27  1  0.16995664  0.16968299  0.50197269  1
  Fe  Fe28  1  1.00135657  0.00312603  0.66739735  1
  Fe  Fe29  1  0.16907031  0.17297843  0.83554908  1
  Cr  Cr30  1  0.17062963  0.50239743  0.50360824  1
  Ni  Ni31  1  1.00259705  0.33620128  0.66787068  1
  Fe  Fe32  1  0.16952191  0.50146599  0.83594222  1
  Ni  Ni33  1  0.16866022  0.83650150  0.50222741  1
  Fe  Fe34  1  1.00184591  0.66881281  0.66956427  1
  Fe  Fe35  1  0.16725837  0.83399661  0.83625346  1
  Ni  Ni36  1  0.50379627  0.17155293  0.50326385  1
  Cr  Cr37  1  0.33443495  1.00189557  0.66784212  1
  Fe  Fe38  1  0.50300908  0.17176238  0.83458484  1
  Ni  Ni39  1  0.50378842  0.50159357  0.50425041  1
  Ni  Ni40  1  0.33626172  0.33440209  0.67056904  1
  Fe  Fe41  1  0.50378066  0.50392463  0.83454071  1
  Fe  Fe42  1  0.50401828  0.83423572  0.50215111  1
  Fe  Fe43  1  0.33817053  0.66742049  0.67028995  1
  Ni  Ni44  1  0.50310524  0.83461255  0.83615899  1
  Fe  Fe45  1  0.83645061  0.17097543  0.50262787  1
  Fe  Fe46  1  0.66927597  0.00354678  0.66841008  1
  Cr  Cr47  1  0.83644289  0.17087912  0.83496079  1
  Ni  Ni48  1  0.83510996  0.50334774  0.50315175  1
  Ni  Ni49  1  0.67036035  0.34000354  0.66764703  1
  Ni  Ni50  1  0.83819674  0.50324350  0.83566492  1
  Ni  Ni51  1  0.83634156  0.83607503  0.50453692  1
  Ni  Ni52  1  0.67113548  0.66948445  0.66868062  1
  Fe  Fe53  1  0.83468860  0.83373204  0.83579051  1
" 