5947,Ni40Fe17Cr42_1,-222.926277659842, 172.754911701605,Ni40Fe17Cr42,"# generated using pymatgen
 data_Cr8Fe3Ni7
_symmetry_space_group_name_H-M   'P 1'
_cell_length_a   7.49119093
_cell_length_b   7.49119093
_cell_length_c   10.59414381
_cell_angle_alpha   90.00000000
_cell_angle_beta   90.00000000
_cell_angle_gamma   90.00000000
_symmetry_Int_Tables_number   1
_chemical_formula_structural   Cr8Fe3Ni7
_chemical_formula_sum   'Cr24 Fe9 Ni21'
_cell_volume   594.52154333
_cell_formula_units_Z   3
loop_
 _symmetry_equiv_pos_site_id
 _symmetry_equiv_pos_as_xyz
  1  'x, y, z'
loop_
 _atom_site_type_symbol
 _atom_site_label
 _atom_site_symmetry_multiplicity
 _atom_site_fract_x
 _atom_site_fract_y
 _atom_site_fract_z
 _atom_site_occupancy
  Ni  Ni0  1  0.99833679  -0.00076445  0.00009364  1
  Ni  Ni1  1  0.16361236  0.16530369  0.16475572  1
  Cr  Cr2  1  0.99723355  -0.00042502  0.33105645  1
  Cr  Cr3  1  0.99808873  0.33327838  0.99727074  1
  Cr  Cr4  1  0.16479901  0.50003015  0.16741920  1
  Ni  Ni5  1  0.99763270  0.33142582  0.33145419  1
  Ni  Ni6  1  0.99627075  0.66478352  -0.00139198  1
  Ni  Ni7  1  0.16453473  0.83407167  0.16443257  1
  Cr  Cr8  1  0.99794731  0.66452542  0.33292279  1
  Cr  Cr9  1  0.33101106  0.00103966  0.99823475  1
  Fe  Fe10  1  0.49905330  0.16773108  0.16714093  1
  Cr  Cr11  1  0.33201471  -0.00007745  0.33149062  1
  Cr  Cr12  1  0.33368987  0.33220334  0.99815529  1
  Ni  Ni13  1  0.50197037  0.49565837  0.16768190  1
  Fe  Fe14  1  0.33084538  0.33236889  0.33087004  1
  Cr  Cr15  1  0.33177407  0.66257942  0.99692617  1
  Cr  Cr16  1  0.49721134  0.82812492  0.16594744  1
  Ni  Ni17  1  0.33303165  0.66355242  0.33151324  1
  Cr  Cr18  1  0.66630214  -0.00017657  -0.00087373  1
  Fe  Fe19  1  0.83271284  0.16797725  0.16557171  1
  Fe  Fe20  1  0.66569607  0.99776007  0.33248495  1
  Fe  Fe21  1  0.66594472  0.33339259  0.99805452  1
  Ni  Ni22  1  0.82862115  0.49557712  0.16582983  1
  Fe  Fe23  1  0.66515360  0.33128864  0.33084252  1
  Cr  Cr24  1  0.66676729  0.66230677  0.99378788  1
  Cr  Cr25  1  0.83283322  0.82966373  0.16415947  1
  Ni  Ni26  1  0.66488965  0.66328862  0.33172157  1
  Cr  Cr27  1  0.16445482  0.16704591  0.50226282  1
  Ni  Ni28  1  -0.00072490  0.99726707  0.66525145  1
  Ni  Ni29  1  0.16304605  0.16513937  0.82988558  1
  Fe  Fe30  1  0.16555301  0.49834327  0.49677809  1
  Fe  Fe31  1  0.99740924  0.33243405  0.66688542  1
  Ni  Ni32  1  0.16279841  0.49684196  0.83089147  1
  Fe  Fe33  1  0.16513134  0.83244833  0.49857453  1
  Cr  Cr34  1  0.99617690  0.66520121  0.66404895  1
  Cr  Cr35  1  0.16361424  0.83449677  0.83441409  1
  Ni  Ni36  1  0.49763032  0.16602572  0.49682488  1
  Ni  Ni37  1  0.33007704  -0.00038886  0.66547239  1
  Cr  Cr38  1  0.49778313  0.16451181  0.82968037  1
  Cr  Cr39  1  0.49901429  0.49779088  0.49670996  1
  Cr  Cr40  1  0.33201004  0.33222453  0.66624522  1
  Ni  Ni41  1  0.50111850  0.49885457  0.83061858  1
  Cr  Cr42  1  0.49915079  0.83039680  0.49880299  1
  Cr  Cr43  1  0.33206457  0.66477874  0.66652002  1
  Ni  Ni44  1  0.50010180  0.82995336  0.82908765  1
  Cr  Cr45  1  0.83137261  0.16615319  0.49961451  1
  Cr  Cr46  1  0.66521066  0.99636997  0.66314240  1
  Cr  Cr47  1  0.83480398  0.16481003  0.83029543  1
  Cr  Cr48  1  0.83069845  0.49789334  0.49907336  1
  Ni  Ni49  1  0.66457283  0.33383000  0.66631879  1
  Ni  Ni50  1  0.83122144  0.49906510  0.83038513  1
  Ni  Ni51  1  0.83117417  0.83111161  0.49852881  1
  Ni  Ni52  1  0.66681844  0.66335140  0.66775551  1
  Ni  Ni53  1  0.83272130  0.83054363  0.83136102  1
" 