5231,Ni40Fe49Cr9_8,-236.297562613702, 210.714882174762,Ni40Fe49Cr9,"# generated using pymatgen
 data_Cr3Fe13Ni11
_symmetry_space_group_name_H-M   'P 1'
_cell_length_a   7.42636745
_cell_length_b   7.42636745
_cell_length_c   10.50246957
_cell_angle_alpha   90.00000000
_cell_angle_beta   90.00000000
_cell_angle_gamma   90.00000000
_symmetry_Int_Tables_number   1
_chemical_formula_structural   Cr3Fe13Ni11
_chemical_formula_sum   'Cr6 Fe26 Ni22'
_cell_volume   579.22100088
_cell_formula_units_Z   2
loop_
 _symmetry_equiv_pos_site_id
 _symmetry_equiv_pos_as_xyz
  1  'x, y, z'
loop_
 _atom_site_type_symbol
 _atom_site_label
 _atom_site_symmetry_multiplicity
 _atom_site_fract_x
 _atom_site_fract_y
 _atom_site_fract_z
 _atom_site_occupancy
  Cr  Cr0  1  0.99986334  1.00199511  0.00310019  1
  Fe  Fe1  1  0.16890365  0.17126819  0.16999612  1
  Fe  Fe2  1  0.00377350  1.00170135  0.33526971  1
  Ni  Ni3  1  0.00355887  0.33704989  1.00262524  1
  Fe  Fe4  1  0.16836062  0.50308377  0.17050102  1
  Ni  Ni5  1  0.00377103  0.33770629  0.33568312  1
  Ni  Ni6  1  0.00579590  0.66902422  0.00386212  1
  Fe  Fe7  1  0.16890218  0.83385370  0.17062544  1
  Ni  Ni8  1  0.00461415  0.66829182  0.33661570  1
  Fe  Fe9  1  0.33500213  0.00540893  1.00093677  1
  Ni  Ni10  1  0.50070779  0.16895946  0.17002102  1
  Fe  Fe11  1  0.33299983  0.00441744  0.33609217  1
  Fe  Fe12  1  0.33500202  0.33386504  1.00175640  1
  Cr  Cr13  1  0.50400529  0.50151659  0.17006108  1
  Fe  Fe14  1  0.33446784  0.33542847  0.33752835  1
  Fe  Fe15  1  0.33467093  0.66874557  1.00157135  1
  Cr  Cr16  1  0.50223152  0.83810426  0.16775754  1
  Ni  Ni17  1  0.33307646  0.66791197  0.33787698  1
  Ni  Ni18  1  0.66775011  0.00445413  1.00078532  1
  Fe  Fe19  1  0.83325194  0.17054371  0.16943386  1
  Ni  Ni20  1  0.66900626  0.00497589  0.33555813  1
  Ni  Ni21  1  0.66813477  0.33252718  0.00332602  1
  Ni  Ni22  1  0.83885036  0.50257144  0.16875700  1
  Fe  Fe23  1  0.67048277  0.33711990  0.33564782  1
  Fe  Fe24  1  0.67366801  0.67025369  1.00257808  1
  Ni  Ni25  1  0.83671505  0.83379242  0.17102914  1
  Fe  Fe26  1  0.67298480  0.66889380  0.33652398  1
  Ni  Ni27  1  0.17053937  0.16911956  0.50284755  1
  Fe  Fe28  1  0.00491918  1.00144724  0.67123026  1
  Ni  Ni29  1  0.17004635  0.16960334  0.83509927  1
  Ni  Ni30  1  0.16748255  0.50265466  0.50301228  1
  Fe  Fe31  1  0.00497639  0.33676749  0.66914724  1
  Fe  Fe32  1  0.16958512  0.50237436  0.83534081  1
  Ni  Ni33  1  0.16913028  0.83607232  0.50186776  1
  Ni  Ni34  1  0.00454018  0.67030035  0.66783456  1
  Ni  Ni35  1  0.17055616  0.83493082  0.83638158  1
  Ni  Ni36  1  0.50143532  0.16985158  0.50191734  1
  Fe  Fe37  1  0.33388372  0.00355672  0.66982105  1
  Ni  Ni38  1  0.50183561  0.16955767  0.83613301  1
  Fe  Fe39  1  0.50115249  0.50054233  0.50234990  1
  Fe  Fe40  1  0.33546387  0.33585780  0.66891735  1
  Fe  Fe41  1  0.50120106  0.50184973  0.83691863  1
  Cr  Cr42  1  0.50206661  0.83703906  0.50165536  1
  Fe  Fe43  1  0.33395434  0.66872089  0.66905984  1
  Fe  Fe44  1  0.50310910  0.83761197  0.83617707  1
  Cr  Cr45  1  0.83732397  0.17098869  0.50344964  1
  Fe  Fe46  1  0.66948103  0.00304799  0.67107636  1
  Ni  Ni47  1  0.83594956  0.17005524  0.83626720  1
  Ni  Ni48  1  0.83690936  0.50405572  0.50184153  1
  Fe  Fe49  1  0.66773869  0.33680715  0.67017106  1
  Cr  Cr50  1  0.83758955  0.50210251  0.83782622  1
  Fe  Fe51  1  0.83890236  0.83580550  0.50218427  1
  Fe  Fe52  1  0.67077233  0.66880397  0.66902267  1
  Ni  Ni53  1  0.83680494  0.83491173  0.83483112  1
" 