2459,Ni40Fe57Cr2_16,-237.99651335815, 213.826378568733,Ni40Fe57Cr2,"# generated using pymatgen
 data_CrFe15Ni11
_symmetry_space_group_name_H-M   'P 1'
_cell_length_a   7.40638551
_cell_length_b   7.40638551
_cell_length_c   10.47421084
_cell_angle_alpha   90.00000000
_cell_angle_beta   90.00000000
_cell_angle_gamma   90.00000000
_symmetry_Int_Tables_number   1
_chemical_formula_structural   CrFe15Ni11
_chemical_formula_sum   'Cr2 Fe30 Ni22'
_cell_volume   574.55808376
_cell_formula_units_Z   2
loop_
 _symmetry_equiv_pos_site_id
 _symmetry_equiv_pos_as_xyz
  1  'x, y, z'
loop_
 _atom_site_type_symbol
 _atom_site_label
 _atom_site_symmetry_multiplicity
 _atom_site_fract_x
 _atom_site_fract_y
 _atom_site_fract_z
 _atom_site_occupancy
  Ni  Ni0  1  0.00593280  1.00353207  0.00473468  1
  Ni  Ni1  1  0.16961737  0.17057897  0.17105561  1
  Ni  Ni2  1  0.00489068  1.00393932  0.33710892  1
  Fe  Fe3  1  0.00430044  0.33783184  0.00437336  1
  Ni  Ni4  1  0.16881364  0.50446199  0.17068864  1
  Fe  Fe5  1  0.00457288  0.33659757  0.33714445  1
  Ni  Ni6  1  1.00407334  0.67075097  0.00505845  1
  Ni  Ni7  1  0.17097468  0.83724802  0.17085223  1
  Fe  Fe8  1  0.00444369  0.67146228  0.33688851  1
  Ni  Ni9  1  0.33530831  1.00372429  1.00376325  1
  Cr  Cr10  1  0.50398150  0.16836206  0.17052051  1
  Ni  Ni11  1  0.33606904  1.00335422  0.33838221  1
  Fe  Fe12  1  0.33594104  0.33801538  1.00305764  1
  Fe  Fe13  1  0.50380319  0.50603820  0.17041840  1
  Fe  Fe14  1  0.33590846  0.33708965  0.33811637  1
  Fe  Fe15  1  0.33707705  0.67111332  1.00406611  1
  Ni  Ni16  1  0.50466681  0.83725462  0.17077413  1
  Fe  Fe17  1  0.33707751  0.67200765  0.33772321  1
  Fe  Fe18  1  0.67149769  1.00274422  1.00325723  1
  Fe  Fe19  1  0.83982513  0.17045112  0.17102432  1
  Ni  Ni20  1  0.67133304  1.00398656  0.33719360  1
  Ni  Ni21  1  0.67107114  0.33963719  0.00426404  1
  Ni  Ni22  1  0.83833128  0.50477681  0.17106701  1
  Fe  Fe23  1  0.67180241  0.33702817  0.33811685  1
  Ni  Ni24  1  0.67126582  0.66830388  0.00411764  1
  Fe  Fe25  1  0.83841197  0.83727808  0.17061701  1
  Fe  Fe26  1  0.67076401  0.67220495  0.33656264  1
  Fe  Fe27  1  0.17063079  0.17034418  0.50396374  1
  Ni  Ni28  1  0.00487216  0.00532481  0.67044043  1
  Ni  Ni29  1  0.17141539  0.17122123  0.83650655  1
  Ni  Ni30  1  0.17086909  0.50345297  0.50353027  1
  Fe  Fe31  1  0.00480957  0.33537466  0.67076731  1
  Ni  Ni32  1  0.17058692  0.50316355  0.83807012  1
  Fe  Fe33  1  0.17167085  0.83826909  0.50315661  1
  Cr  Cr34  1  0.00556624  0.67100033  0.67100304  1
  Fe  Fe35  1  0.17191144  0.83912473  0.83850886  1
  Fe  Fe36  1  0.50405266  0.17078444  0.50456147  1
  Ni  Ni37  1  0.33709060  1.00396961  0.67013617  1
  Ni  Ni38  1  0.50436661  0.16955408  0.83646083  1
  Fe  Fe39  1  0.50374807  0.50409531  0.50457628  1
  Fe  Fe40  1  0.33717526  0.33685047  0.67110854  1
  Fe  Fe41  1  0.50377969  0.50309203  0.83729157  1
  Fe  Fe42  1  0.50344143  0.83740849  0.50379323  1
  Ni  Ni43  1  0.33798349  0.67048342  0.67105828  1
  Fe  Fe44  1  0.50292360  0.83798691  0.83753593  1
  Fe  Fe45  1  0.83760229  0.17065416  0.50430496  1
  Ni  Ni46  1  0.67032335  0.00611723  0.67126030  1
  Fe  Fe47  1  0.83760225  0.17107192  0.83695580  1
  Fe  Fe48  1  0.83673377  0.50305649  0.50302078  1
  Ni  Ni49  1  0.67032176  0.33737508  0.67024942  1
  Fe  Fe50  1  0.83646457  0.50236509  0.83918489  1
  Fe  Fe51  1  0.83717538  0.83857893  0.50339986  1
  Fe  Fe52  1  0.66881934  0.67179968  0.67108120  1
  Fe  Fe53  1  0.83745238  0.83885153  0.83827040  1
" 