6026,Ni40Fe57Cr2_10,-238.271693286596, 216.452801403343,Ni40Fe57Cr2,"# generated using pymatgen
 data_CrFe15Ni11
_symmetry_space_group_name_H-M   'P 1'
_cell_length_a   7.40819380
_cell_length_b   7.40819380
_cell_length_c   10.47676815
_cell_angle_alpha   90.00000000
_cell_angle_beta   90.00000000
_cell_angle_gamma   90.00000000
_symmetry_Int_Tables_number   1
_chemical_formula_structural   CrFe15Ni11
_chemical_formula_sum   'Cr2 Fe30 Ni22'
_cell_volume   574.97902667
_cell_formula_units_Z   2
loop_
 _symmetry_equiv_pos_site_id
 _symmetry_equiv_pos_as_xyz
  1  'x, y, z'
loop_
 _atom_site_type_symbol
 _atom_site_label
 _atom_site_symmetry_multiplicity
 _atom_site_fract_x
 _atom_site_fract_y
 _atom_site_fract_z
 _atom_site_occupancy
  Fe  Fe0  1  1.00340633  0.00510823  1.00337489  1
  Fe  Fe1  1  0.17125739  0.16946226  0.17006148  1
  Ni  Ni2  1  1.00382872  1.00277819  0.33694541  1
  Ni  Ni3  1  1.00390497  0.33621219  1.00322719  1
  Cr  Cr4  1  0.17120338  0.50379364  0.17083935  1
  Fe  Fe5  1  1.00203168  0.33632675  0.33776201  1
  Fe  Fe6  1  1.00267317  0.67023629  1.00309963  1
  Fe  Fe7  1  0.17067023  0.83928384  0.17118655  1
  Ni  Ni8  1  1.00295542  0.67265047  0.33784383  1
  Fe  Fe9  1  0.33766016  0.00509666  1.00371959  1
  Ni  Ni10  1  0.50458546  0.17073871  0.17088349  1
  Fe  Fe11  1  0.33787110  1.00392661  0.33728257  1
  Ni  Ni12  1  0.33804597  0.33646067  1.00245563  1
  Fe  Fe13  1  0.50585320  0.50313460  0.17057334  1
  Ni  Ni14  1  0.33889210  0.33673785  0.33795492  1
  Fe  Fe15  1  0.33876105  0.66988174  1.00287259  1
  Fe  Fe16  1  0.50434627  0.83745304  0.17078346  1
  Fe  Fe17  1  0.33866226  0.67129409  0.33846916  1
  Fe  Fe18  1  0.67085214  0.00501430  1.00382892  1
  Fe  Fe19  1  0.83686722  0.17097310  0.17091798  1
  Ni  Ni20  1  0.67140883  1.00386686  0.33674657  1
  Ni  Ni21  1  0.66996439  0.33811472  0.00417576  1
  Fe  Fe22  1  0.83503992  0.50372098  0.17057562  1
  Ni  Ni23  1  0.66893980  0.33760990  0.33647869  1
  Ni  Ni24  1  0.67067293  0.67033844  1.00368756  1
  Fe  Fe25  1  0.83690170  0.83722377  0.17088155  1
  Ni  Ni26  1  0.67115688  0.67044013  0.33765265  1
  Fe  Fe27  1  0.17103146  0.17097095  0.50469356  1
  Ni  Ni28  1  1.00323126  1.00313869  0.67116939  1
  Ni  Ni29  1  0.17011947  0.17083669  0.83737679  1
  Fe  Fe30  1  0.16984063  0.50282178  0.50295039  1
  Fe  Fe31  1  0.00443535  0.33583208  0.67136343  1
  Fe  Fe32  1  0.16932924  0.50237113  0.83832651  1
  Fe  Fe33  1  0.16918036  0.83812220  0.50332430  1
  Ni  Ni34  1  1.00232624  0.67151276  0.67146771  1
  Fe  Fe35  1  0.16918054  0.83867101  0.83740884  1
  Fe  Fe36  1  0.50430731  0.17112080  0.50341789  1
  Ni  Ni37  1  0.33730950  0.00649414  0.67065287  1
  Fe  Fe38  1  0.50406046  0.17075236  0.83758310  1
  Ni  Ni39  1  0.50379343  0.50377022  0.50152710  1
  Ni  Ni40  1  0.33765160  0.33564944  0.67150629  1
  Ni  Ni41  1  0.50372215  0.50362598  0.83920891  1
  Fe  Fe42  1  0.50560806  0.83852302  0.50320927  1
  Cr  Cr43  1  0.33672246  0.66960927  0.67109837  1
  Fe  Fe44  1  0.50543360  0.83876039  0.83792563  1
  Ni  Ni45  1  0.83776075  0.16950414  0.50348391  1
  Ni  Ni46  1  0.67137861  0.00419652  0.67115762  1
  Ni  Ni47  1  0.83835008  0.16920015  0.83777450  1
  Fe  Fe48  1  0.83697903  0.50412597  0.50335482  1
  Fe  Fe49  1  0.67048039  0.33663012  0.67050906  1
  Fe  Fe50  1  0.83742479  0.50374613  0.83798693  1
  Fe  Fe51  1  0.83712776  0.83733262  0.50417578  1
  Fe  Fe52  1  0.67172000  0.67135960  0.67098134  1
  Ni  Ni53  1  0.83758219  0.83794319  0.83658466  1
" 