3016,Ni40Fe60_4,-242.478200818865, 219.470996822445,Ni40Fe60,"# generated using pymatgen
 data_Fe7Ni11
_symmetry_space_group_name_H-M   'P 1'
_cell_length_a   7.40569220
_cell_length_b   7.40569220
_cell_length_c   10.47323034
_cell_angle_alpha   90.00000000
_cell_angle_beta   90.00000000
_cell_angle_gamma   90.00000000
_symmetry_Int_Tables_number   1
_chemical_formula_structural   Fe7Ni11
_chemical_formula_sum   'Fe21 Ni33'
_cell_volume   574.39674494
_cell_formula_units_Z   3
loop_
 _symmetry_equiv_pos_site_id
 _symmetry_equiv_pos_as_xyz
  1  'x, y, z'
loop_
 _atom_site_type_symbol
 _atom_site_label
 _atom_site_symmetry_multiplicity
 _atom_site_fract_x
 _atom_site_fract_y
 _atom_site_fract_z
 _atom_site_occupancy
  Ni  Ni0  1  1.00412378  1.00405194  1.00388649  1
  Ni  Ni1  1  0.17044237  0.17089175  0.16998294  1
  Ni  Ni2  1  0.00457190  1.00394561  0.33701744  1
  Ni  Ni3  1  1.00308745  0.33823967  0.00423036  1
  Ni  Ni4  1  0.17162957  0.50496584  0.17134435  1
  Ni  Ni5  1  1.00268427  0.33790568  0.33782470  1
  Ni  Ni6  1  0.00415305  0.67013256  1.00396876  1
  Ni  Ni7  1  0.17093213  0.83656846  0.17044291  1
  Ni  Ni8  1  0.00456812  0.67057527  0.33772669  1
  Ni  Ni9  1  0.33851364  1.00369506  0.00423234  1
  Fe  Fe10  1  0.50293227  0.17051159  0.17081089  1
  Ni  Ni11  1  0.33766403  1.00358892  0.33736733  1
  Fe  Fe12  1  0.33615371  0.33668280  0.00455825  1
  Fe  Fe13  1  0.50313015  0.50357316  0.17197153  1
  Ni  Ni14  1  0.33885017  0.33756935  0.33808303  1
  Fe  Fe15  1  0.33600892  0.67137511  0.00436538  1
  Fe  Fe16  1  0.50261120  0.83834296  0.17058522  1
  Ni  Ni17  1  0.33733002  0.67127096  0.33725283  1
  Ni  Ni18  1  0.66978498  0.00475469  1.00386843  1
  Ni  Ni19  1  0.83724333  0.16983696  0.17078218  1
  Fe  Fe20  1  0.67125873  0.00489301  0.33727964  1
  Fe  Fe21  1  0.67182677  0.33578701  1.00384659  1
  Fe  Fe22  1  0.83944029  0.50346808  0.17137756  1
  Ni  Ni23  1  0.67089400  0.33757166  0.33702597  1
  Fe  Fe24  1  0.67190158  0.67219574  1.00392253  1
  Fe  Fe25  1  0.83951209  0.83799988  0.17035761  1
  Fe  Fe26  1  0.67088497  0.67021000  0.33807323  1
  Ni  Ni27  1  0.17136484  0.17148298  0.50425773  1
  Ni  Ni28  1  0.00447959  1.00412867  0.67151925  1
  Fe  Fe29  1  0.17001078  0.17025278  0.83755174  1
  Ni  Ni30  1  0.17172216  0.50435928  0.50335002  1
  Ni  Ni31  1  1.00178028  0.33792625  0.67037040  1
  Ni  Ni32  1  0.17153385  0.50506794  0.83773497  1
  Fe  Fe33  1  0.17050373  0.83755131  0.50372360  1
  Ni  Ni34  1  0.00449891  0.67037282  0.67073101  1
  Fe  Fe35  1  0.17035210  0.83816114  0.83774916  1
  Ni  Ni36  1  0.50403580  0.17115297  0.50349380  1
  Ni  Ni37  1  0.33796923  1.00297558  0.67082308  1
  Ni  Ni38  1  0.50503470  0.17044443  0.83804736  1
  Ni  Ni39  1  0.50298315  0.50398721  0.50440172  1
  Fe  Fe40  1  0.33656016  0.33762083  0.67009456  1
  Fe  Fe41  1  0.50482763  0.50376570  0.83660928  1
  Fe  Fe42  1  0.50362195  0.83740377  0.50414044  1
  Ni  Ni43  1  0.33759150  0.67188566  0.67094213  1
  Fe  Fe44  1  0.50407053  0.83837187  0.83770130  1
  Ni  Ni45  1  0.83702655  0.16962632  0.50440609  1
  Fe  Fe46  1  0.67174918  0.00440070  0.67159503  1
  Ni  Ni47  1  0.83619455  0.16891969  0.83723886  1
  Ni  Ni48  1  0.83771930  0.50515769  0.50440550  1
  Ni  Ni49  1  0.67149587  0.33755329  0.67127471  1
  Fe  Fe50  1  0.83796576  0.50342450  0.83690869  1
  Ni  Ni51  1  0.83739940  0.83764524  0.50359167  1
  Fe  Fe52  1  0.67168174  0.67100563  0.67043476  1
  Ni  Ni53  1  0.83738556  0.83844431  0.83841021  1
" 