5371,Ni40Cr60_1,-223.851782965507, 140.411708582388,Ni40Cr60,"# generated using pymatgen
 data_Cr7Ni11
_symmetry_space_group_name_H-M   'P 1'
_cell_length_a   7.49907073
_cell_length_b   7.49907073
_cell_length_c   10.60528753
_cell_angle_alpha   90.00000000
_cell_angle_beta   90.00000000
_cell_angle_gamma   90.00000000
_symmetry_Int_Tables_number   1
_chemical_formula_structural   Cr7Ni11
_chemical_formula_sum   'Cr21 Ni33'
_cell_volume   596.39960512
_cell_formula_units_Z   3
loop_
 _symmetry_equiv_pos_site_id
 _symmetry_equiv_pos_as_xyz
  1  'x, y, z'
loop_
 _atom_site_type_symbol
 _atom_site_label
 _atom_site_symmetry_multiplicity
 _atom_site_fract_x
 _atom_site_fract_y
 _atom_site_fract_z
 _atom_site_occupancy
  Cr  Cr0  1  0.99756963  0.99783576  -0.00075944  1
  Cr  Cr1  1  0.16205184  0.16611191  0.16578859  1
  Ni  Ni2  1  0.99471436  0.99740626  0.33119146  1
  Ni  Ni3  1  0.99597614  0.33268613  0.99580352  1
  Ni  Ni4  1  0.16505458  0.49845852  0.16528468  1
  Ni  Ni5  1  -0.00164969  0.33045001  0.33204248  1
  Ni  Ni6  1  0.99714911  0.66258767  -0.00173884  1
  Ni  Ni7  1  0.16325609  0.82980614  0.16447395  1
  Cr  Cr8  1  -0.00100307  0.66624870  0.33168645  1
  Ni  Ni9  1  0.33202700  -0.00158130  0.99639020  1
  Cr  Cr10  1  0.49935900  0.16495160  0.16385245  1
  Cr  Cr11  1  0.33014610  0.99674325  0.33128710  1
  Cr  Cr12  1  0.33178718  0.33076308  0.99715771  1
  Ni  Ni13  1  0.49708993  0.49930994  0.16579760  1
  Ni  Ni14  1  0.33100950  0.33539993  0.33239282  1
  Cr  Cr15  1  0.32890376  0.66456657  0.00002064  1
  Cr  Cr16  1  0.49986558  0.82972743  0.16362935  1
  Ni  Ni17  1  0.33076258  0.66137624  0.33104714  1
  Ni  Ni18  1  0.66481798  -0.00022634  0.99759594  1
  Ni  Ni19  1  0.83164447  0.16289041  0.16463550  1
  Ni  Ni20  1  0.66859343  0.99762347  0.33216919  1
  Ni  Ni21  1  0.66670771  0.33021256  0.99707378  1
  Cr  Cr22  1  0.83125085  0.49745013  0.16198003  1
  Cr  Cr23  1  0.66400966  0.33083273  0.33206824  1
  Ni  Ni24  1  0.66689091  0.66360965  -0.00151275  1
  Ni  Ni25  1  0.83087263  0.83239159  0.16468310  1
  Ni  Ni26  1  0.66362121  0.66505154  0.33214950  1
  Cr  Cr27  1  0.16349598  0.16727473  0.49707308  1
  Cr  Cr28  1  0.99583163  -0.00095553  0.66302705  1
  Ni  Ni29  1  0.16460404  0.16811695  0.83109631  1
  Ni  Ni30  1  0.16521945  0.49661091  0.49726955  1
  Ni  Ni31  1  -0.00168328  0.33209181  0.66577514  1
  Ni  Ni32  1  0.16121966  0.49385633  0.83110832  1
  Ni  Ni33  1  0.16316313  0.82980869  0.49602034  1
  Cr  Cr34  1  0.99696833  0.66246459  0.66368246  1
  Cr  Cr35  1  0.16493842  0.83147114  0.83251029  1
  Ni  Ni36  1  0.49906646  0.16576825  0.49840933  1
  Cr  Cr37  1  0.33225852  0.00045893  0.66609117  1
  Ni  Ni38  1  0.49818397  0.16359328  0.83183887  1
  Ni  Ni39  1  0.49705998  0.49766717  0.49662097  1
  Ni  Ni40  1  0.33028878  0.33125743  0.66435977  1
  Cr  Cr41  1  0.49998876  0.49784524  0.83118579  1
  Cr  Cr42  1  0.50044879  0.83029417  0.49826186  1
  Cr  Cr43  1  0.33028854  0.66194329  0.66271230  1
  Cr  Cr44  1  0.50041392  0.83300217  0.83178076  1
  Ni  Ni45  1  0.83087287  0.16365750  0.49678961  1
  Ni  Ni46  1  0.66524187  -0.00081620  0.66381963  1
  Ni  Ni47  1  0.83087225  0.16699164  0.83215322  1
  Ni  Ni48  1  0.83128316  0.49815088  0.49869825  1
  Cr  Cr49  1  0.66497991  0.33020915  0.66397666  1
  Ni  Ni50  1  0.83313256  0.49607849  0.83273743  1
  Ni  Ni51  1  0.82975362  0.83181260  0.49706295  1
  Ni  Ni52  1  0.66615198  0.66414056  0.66292366  1
  Cr  Cr53  1  0.82818070  0.82922476  0.83152731  1
" 