2321,Ni40Fe51Cr7_16,-235.34026432944, 211.828582198973,Ni40Fe51Cr7,"# generated using pymatgen
 data_Cr2Fe9Ni7
_symmetry_space_group_name_H-M   'P 1'
_cell_length_a   7.41896743
_cell_length_b   7.41896743
_cell_length_c   10.49200436
_cell_angle_alpha   90.00000000
_cell_angle_beta   90.00000000
_cell_angle_gamma   90.00000000
_symmetry_Int_Tables_number   1
_chemical_formula_structural   Cr2Fe9Ni7
_chemical_formula_sum   'Cr6 Fe27 Ni21'
_cell_volume   577.49122826
_cell_formula_units_Z   3
loop_
 _symmetry_equiv_pos_site_id
 _symmetry_equiv_pos_as_xyz
  1  'x, y, z'
loop_
 _atom_site_type_symbol
 _atom_site_label
 _atom_site_symmetry_multiplicity
 _atom_site_fract_x
 _atom_site_fract_y
 _atom_site_fract_z
 _atom_site_occupancy
  Fe  Fe0  1  0.00472263  0.00452518  1.00114449  1
  Fe  Fe1  1  0.16742655  0.17069244  0.17052128  1
  Fe  Fe2  1  0.00402556  0.00516000  0.33851630  1
  Ni  Ni3  1  0.00455124  0.33551408  0.00336847  1
  Fe  Fe4  1  0.16916439  0.50364652  0.17090033  1
  Ni  Ni5  1  0.00417534  0.33816673  0.33680745  1
  Fe  Fe6  1  0.00639247  0.66925629  0.00324834  1
  Ni  Ni7  1  0.17057569  0.83786816  0.17102591  1
  Ni  Ni8  1  0.00535996  0.66918306  0.33707902  1
  Fe  Fe9  1  0.33461297  1.00231168  1.00296596  1
  Cr  Cr10  1  0.50164461  0.17063022  0.16891141  1
  Ni  Ni11  1  0.33518444  1.00164906  0.33682446  1
  Ni  Ni12  1  0.33403625  0.33544905  1.00295911  1
  Ni  Ni13  1  0.50227573  0.50240089  0.17187793  1
  Fe  Fe14  1  0.33372734  0.33646155  0.33742841  1
  Fe  Fe15  1  0.33430143  0.66824294  0.00440975  1
  Fe  Fe16  1  0.50152891  0.83487844  0.17307278  1
  Fe  Fe17  1  0.33540773  0.66963007  0.33763599  1
  Fe  Fe18  1  0.67100211  0.00590180  1.00245744  1
  Fe  Fe19  1  0.83843576  0.17168632  0.16929266  1
  Ni  Ni20  1  0.66780700  1.00282745  0.33836091  1
  Ni  Ni21  1  0.67011051  0.33594250  0.00416455  1
  Ni  Ni22  1  0.83650220  0.50286166  0.16995589  1
  Cr  Cr23  1  0.67181022  0.33690541  0.33837754  1
  Cr  Cr24  1  0.66931457  0.67251009  0.00530590  1
  Cr  Cr25  1  0.83983256  0.83837545  0.17259855  1
  Fe  Fe26  1  0.67059271  0.67025490  0.33784433  1
  Ni  Ni27  1  0.16966075  0.17011619  0.50171190  1
  Fe  Fe28  1  0.00352121  0.00377267  0.67043102  1
  Ni  Ni29  1  0.17059995  0.16875830  0.83580869  1
  Ni  Ni30  1  0.16948587  0.50276146  0.50425573  1
  Fe  Fe31  1  1.00276564  0.33567133  0.66881642  1
  Fe  Fe32  1  0.16814611  0.50259020  0.83531675  1
  Ni  Ni33  1  0.17007534  0.83704161  0.50269673  1
  Ni  Ni34  1  0.00506696  0.67185696  0.67105514  1
  Ni  Ni35  1  0.17051194  0.83749945  0.83597424  1
  Fe  Fe36  1  0.49962587  0.16797093  0.50322914  1
  Fe  Fe37  1  0.33590601  1.00225027  0.66773111  1
  Fe  Fe38  1  0.50353618  0.16750062  0.83702573  1
  Fe  Fe39  1  0.50048914  0.50340653  0.50487269  1
  Fe  Fe40  1  0.33442166  0.33567317  0.66908864  1
  Cr  Cr41  1  0.50163508  0.50193327  0.83461622  1
  Ni  Ni42  1  0.50401869  0.83619015  0.50128968  1
  Fe  Fe43  1  0.33665624  0.67139796  0.66812420  1
  Fe  Fe44  1  0.50378403  0.83871669  0.83354356  1
  Fe  Fe45  1  0.83865896  0.16831335  0.50416793  1
  Fe  Fe46  1  0.67138582  1.00222036  0.66829771  1
  Ni  Ni47  1  0.83668251  0.16908593  0.83728040  1
  Fe  Fe48  1  0.84019776  0.50497333  0.50463204  1
  Ni  Ni49  1  0.66887366  0.33406972  0.66809788  1
  Cr  Cr50  1  0.83578156  0.50308464  0.83560849  1
  Fe  Fe51  1  0.83946222  0.83627814  0.50291696  1
  Ni  Ni52  1  0.67156462  0.67047112  0.66629804  1
  Ni  Ni53  1  0.83794448  0.83844288  0.83503700  1
" 