5122,Ni40Fe6Cr53_8,-217.433528945692, 141.750603105757,Ni40Fe6Cr53,"# generated using pymatgen
 data_Cr10FeNi7
_symmetry_space_group_name_H-M   'P 1'
_cell_length_a   7.52820160
_cell_length_b   7.52820160
_cell_length_c   10.64648480
_cell_angle_alpha   90.00000000
_cell_angle_beta   90.00000000
_cell_angle_gamma   90.00000000
_symmetry_Int_Tables_number   1
_chemical_formula_structural   Cr10FeNi7
_chemical_formula_sum   'Cr30 Fe3 Ni21'
_cell_volume   603.37695655
_cell_formula_units_Z   3
loop_
 _symmetry_equiv_pos_site_id
 _symmetry_equiv_pos_as_xyz
  1  'x, y, z'
loop_
 _atom_site_type_symbol
 _atom_site_label
 _atom_site_symmetry_multiplicity
 _atom_site_fract_x
 _atom_site_fract_y
 _atom_site_fract_z
 _atom_site_occupancy
  Cr  Cr0  1  -0.00400819  -0.00354909  0.99295962  1
  Cr  Cr1  1  0.15887614  0.16832164  0.16150950  1
  Ni  Ni2  1  0.99380394  -0.00012515  0.33277206  1
  Ni  Ni3  1  0.99569416  0.33200362  0.99471026  1
  Ni  Ni4  1  0.16218672  0.49418180  0.16125526  1
  Ni  Ni5  1  0.99417338  0.32780264  0.32995524  1
  Ni  Ni6  1  0.99165447  0.65750882  0.99533670  1
  Cr  Cr7  1  0.15949818  0.82694288  0.16354485  1
  Cr  Cr8  1  -0.00314775  0.65981780  0.32803154  1
  Cr  Cr9  1  0.32934287  0.00027126  -0.00394811  1
  Cr  Cr10  1  0.49919462  0.16618149  0.16191892  1
  Cr  Cr11  1  0.32696228  0.99518095  0.32704058  1
  Ni  Ni12  1  0.32790157  0.33082510  0.99409159  1
  Ni  Ni13  1  0.49612125  0.49633432  0.16448993  1
  Cr  Cr14  1  0.32979456  0.33118525  0.32973556  1
  Cr  Cr15  1  0.33076142  0.66106112  0.00074031  1
  Cr  Cr16  1  0.50057043  0.82822980  0.16488740  1
  Ni  Ni17  1  0.33274208  0.65835074  0.32869204  1
  Cr  Cr18  1  0.66265388  -0.00339037  0.99053277  1
  Cr  Cr19  1  0.82952699  0.16432892  0.16763992  1
  Ni  Ni20  1  0.66496423  -0.00243957  0.33266354  1
  Cr  Cr21  1  0.66282375  0.33211988  -0.00403404  1
  Fe  Fe22  1  0.82971331  0.49541721  0.16252314  1
  Ni  Ni23  1  0.66415980  0.33197812  0.32969022  1
  Ni  Ni24  1  0.66637939  0.65948782  -0.00392314  1
  Cr  Cr25  1  0.82777775  0.82989496  0.16327451  1
  Ni  Ni26  1  0.66003649  0.65857185  0.32790049  1
  Ni  Ni27  1  0.15984345  0.16434009  0.49426968  1
  Cr  Cr28  1  0.99533717  -0.00213068  0.66223568  1
  Ni  Ni29  1  0.16233184  0.16645921  0.83044576  1
  Cr  Cr30  1  0.16539853  0.49426650  0.49892181  1
  Cr  Cr31  1  0.99306656  0.32702794  0.66228528  1
  Cr  Cr32  1  0.16172552  0.49396035  0.82872027  1
  Cr  Cr33  1  0.16294816  0.82780909  0.49445173  1
  Cr  Cr34  1  0.99364452  0.66196985  0.66574821  1
  Cr  Cr35  1  0.16187391  0.82548820  0.83050026  1
  Cr  Cr36  1  0.49951271  0.16478913  0.49599537  1
  Cr  Cr37  1  0.32785895  -0.00160715  0.66424502  1
  Ni  Ni38  1  0.49559653  0.16491344  0.82824715  1
  Ni  Ni39  1  0.49568933  0.49625450  0.49476075  1
  Fe  Fe40  1  0.32906723  0.32858026  0.66253963  1
  Cr  Cr41  1  0.49386804  0.49480678  0.82784048  1
  Cr  Cr42  1  0.49725503  0.82651966  0.49457423  1
  Ni  Ni43  1  0.33233362  0.66175451  0.65973732  1
  Cr  Cr44  1  0.49802691  0.82870591  0.82840037  1
  Ni  Ni45  1  0.83049153  0.16291360  0.49237590  1
  Fe  Fe46  1  0.66453213  -0.00286380  0.66422028  1
  Ni  Ni47  1  0.82956962  0.16339960  0.82868232  1
  Cr  Cr48  1  0.82750056  0.49325166  0.49214327  1
  Cr  Cr49  1  0.66382748  0.32864248  0.66272963  1
  Ni  Ni50  1  0.82956512  0.49544735  0.83395541  1
  Cr  Cr51  1  0.82707675  0.83201721  0.49445905  1
  Cr  Cr52  1  0.66425174  0.65917039  0.66373976  1
  Ni  Ni53  1  0.82831969  0.82829046  0.83045505  1
" 