4233,Ni40Fe60_14,-243.344234680391, 225.776700102611,Ni40Fe60,"# generated using pymatgen
 data_Fe7Ni11
_symmetry_space_group_name_H-M   'P 1'
_cell_length_a   7.41338395
_cell_length_b   7.41338395
_cell_length_c   10.48410812
_cell_angle_alpha   90.00000000
_cell_angle_beta   90.00000000
_cell_angle_gamma   90.00000000
_symmetry_Int_Tables_number   1
_chemical_formula_structural   Fe7Ni11
_chemical_formula_sum   'Fe21 Ni33'
_cell_volume   576.18835682
_cell_formula_units_Z   3
loop_
 _symmetry_equiv_pos_site_id
 _symmetry_equiv_pos_as_xyz
  1  'x, y, z'
loop_
 _atom_site_type_symbol
 _atom_site_label
 _atom_site_symmetry_multiplicity
 _atom_site_fract_x
 _atom_site_fract_y
 _atom_site_fract_z
 _atom_site_occupancy
  Ni  Ni0  1  0.00445846  0.00443990  0.00380656  1
  Ni  Ni1  1  0.16998139  0.16894936  0.16994452  1
  Fe  Fe2  1  0.00439807  0.00426153  0.33642140  1
  Ni  Ni3  1  0.00404282  0.33618429  0.00405384  1
  Fe  Fe4  1  0.17061017  0.50241777  0.17075192  1
  Ni  Ni5  1  0.00364695  0.33725959  0.33638827  1
  Fe  Fe6  1  1.00321471  0.66950473  1.00312744  1
  Ni  Ni7  1  0.17116631  0.83757978  0.17062136  1
  Fe  Fe8  1  0.00424637  0.67030545  0.33805280  1
  Fe  Fe9  1  0.33653262  0.00467719  0.00392462  1
  Ni  Ni10  1  0.50360021  0.17045879  0.16953064  1
  Ni  Ni11  1  0.33742814  1.00329269  0.33648274  1
  Ni  Ni12  1  0.33666753  0.33636802  0.00446657  1
  Ni  Ni13  1  0.50513887  0.50402818  0.17044765  1
  Fe  Fe14  1  0.33654834  0.33607294  0.33646045  1
  Fe  Fe15  1  0.33716372  0.66955406  0.00399213  1
  Ni  Ni16  1  0.50211780  0.83637331  0.16933636  1
  Fe  Fe17  1  0.33639373  0.67080586  0.33681637  1
  Fe  Fe18  1  0.67066336  0.00538290  1.00343307  1
  Ni  Ni19  1  0.83727829  0.17197688  0.16983752  1
  Fe  Fe20  1  0.66999940  0.00441504  0.33781792  1
  Ni  Ni21  1  0.67014862  0.33824580  0.00380718  1
  Ni  Ni22  1  0.83606803  0.50284382  0.16975905  1
  Fe  Fe23  1  0.67050310  0.33622610  0.33608868  1
  Ni  Ni24  1  0.66979495  0.66999146  0.00403919  1
  Fe  Fe25  1  0.83631945  0.83737789  0.17023813  1
  Fe  Fe26  1  0.67021690  0.67021830  0.33681644  1
  Ni  Ni27  1  0.17042991  0.16975834  0.50401652  1
  Fe  Fe28  1  1.00336293  1.00315569  0.67074571  1
  Ni  Ni29  1  0.17012039  0.16866830  0.83689898  1
  Ni  Ni30  1  0.16919331  0.50437107  0.50403616  1
  Ni  Ni31  1  0.00407204  0.33788281  0.67041622  1
  Fe  Fe32  1  0.16988349  0.50208707  0.83632311  1
  Ni  Ni33  1  0.17078272  0.83672910  0.50378881  1
  Ni  Ni34  1  1.00258479  0.66882848  0.66998763  1
  Ni  Ni35  1  0.17044887  0.83748033  0.83644784  1
  Ni  Ni36  1  0.50359348  0.16951694  0.50370583  1
  Ni  Ni37  1  0.33795161  0.00381569  0.67021925  1
  Ni  Ni38  1  0.50376669  0.17099360  0.83762477  1
  Fe  Fe39  1  0.50378809  0.50399170  0.50378508  1
  Fe  Fe40  1  0.33711187  0.33656872  0.67084530  1
  Ni  Ni41  1  0.50530777  0.50357740  0.83662669  1
  Ni  Ni42  1  0.50295021  0.83725647  0.50434683  1
  Fe  Fe43  1  0.33664811  0.67106313  0.67004897  1
  Fe  Fe44  1  0.50418198  0.83737510  0.83634686  1
  Ni  Ni45  1  0.83683612  0.17110632  0.50411955  1
  Ni  Ni46  1  0.66846495  1.00233277  0.67006417  1
  Ni  Ni47  1  0.83697192  0.17167073  0.83690265  1
  Ni  Ni48  1  0.83736269  0.50372744  0.50413370  1
  Fe  Fe49  1  0.67092696  0.33671834  0.67107788  1
  Ni  Ni50  1  0.83578059  0.50324726  0.83696455  1
  Ni  Ni51  1  0.83712462  0.83602347  0.50382524  1
  Ni  Ni52  1  0.67082688  0.67114884  0.66945811  1
  Fe  Fe53  1  0.83662505  0.83713959  0.83622713  1
" 