2366,Ni40Fe51Cr7_12,-235.398901049996, 211.712977856062,Ni40Fe51Cr7,"# generated using pymatgen
 data_Cr2Fe9Ni7
_symmetry_space_group_name_H-M   'P 1'
_cell_length_a   7.41830917
_cell_length_b   7.41830917
_cell_length_c   10.49107344
_cell_angle_alpha   90.00000000
_cell_angle_beta   90.00000000
_cell_angle_gamma   90.00000000
_symmetry_Int_Tables_number   1
_chemical_formula_structural   Cr2Fe9Ni7
_chemical_formula_sum   'Cr6 Fe27 Ni21'
_cell_volume   577.33752488
_cell_formula_units_Z   3
loop_
 _symmetry_equiv_pos_site_id
 _symmetry_equiv_pos_as_xyz
  1  'x, y, z'
loop_
 _atom_site_type_symbol
 _atom_site_label
 _atom_site_symmetry_multiplicity
 _atom_site_fract_x
 _atom_site_fract_y
 _atom_site_fract_z
 _atom_site_occupancy
  Fe  Fe0  1  0.00329363  0.00363945  0.00370643  1
  Fe  Fe1  1  0.16946286  0.17105498  0.16828788  1
  Fe  Fe2  1  0.00624885  1.00243595  0.33621074  1
  Fe  Fe3  1  1.00247298  0.33887029  0.00470901  1
  Ni  Ni4  1  0.17025007  0.50551104  0.16976130  1
  Cr  Cr5  1  0.00448880  0.33763614  0.33676540  1
  Fe  Fe6  1  0.00440902  0.66783529  0.00404833  1
  Ni  Ni7  1  0.16886667  0.83722460  0.16880310  1
  Ni  Ni8  1  1.00093405  0.67180057  0.33564993  1
  Fe  Fe9  1  0.33562633  1.00138767  1.00265019  1
  Cr  Cr10  1  0.50378200  0.17096527  0.16976854  1
  Ni  Ni11  1  0.33660307  1.00321985  0.33698451  1
  Ni  Ni12  1  0.33424713  0.33754851  0.00382652  1
  Ni  Ni13  1  0.50257572  0.50163037  0.16987447  1
  Ni  Ni14  1  0.33626239  0.33471990  0.33777919  1
  Fe  Fe15  1  0.33669202  0.66876416  0.00371367  1
  Fe  Fe16  1  0.50293092  0.83620849  0.16923402  1
  Cr  Cr17  1  0.33524470  0.67009143  0.33595265  1
  Fe  Fe18  1  0.67032819  1.00296888  1.00207616  1
  Ni  Ni19  1  0.83559358  0.16881521  0.16944810  1
  Fe  Fe20  1  0.67094960  1.00225914  0.33846200  1
  Ni  Ni21  1  0.67117040  0.33923881  0.00382032  1
  Ni  Ni22  1  0.83622837  0.50244291  0.17195494  1
  Fe  Fe23  1  0.66881064  0.33832062  0.33756045  1
  Cr  Cr24  1  0.67175504  0.66984530  1.00299437  1
  Fe  Fe25  1  0.83759796  0.83623357  0.17119394  1
  Fe  Fe26  1  0.66913008  0.66873596  0.33698477  1
  Fe  Fe27  1  0.17210406  0.16854424  0.50493282  1
  Fe  Fe28  1  0.00377942  0.00428994  0.66960264  1
  Ni  Ni29  1  0.17054266  0.17032769  0.83739112  1
  Fe  Fe30  1  0.16976020  0.50609619  0.50354172  1
  Fe  Fe31  1  0.00471678  0.33561523  0.66877668  1
  Fe  Fe32  1  0.16999661  0.50301579  0.83673702  1
  Ni  Ni33  1  0.16874108  0.83781247  0.50467097  1
  Fe  Fe34  1  1.00307637  0.67068756  0.66876089  1
  Fe  Fe35  1  0.16877671  0.83709288  0.83616852  1
  Fe  Fe36  1  0.50291964  0.16747803  0.50473585  1
  Ni  Ni37  1  0.33574839  1.00255827  0.67050313  1
  Cr  Cr38  1  0.50223121  0.17121444  0.83629257  1
  Ni  Ni39  1  0.50326347  0.49977998  0.50385300  1
  Ni  Ni40  1  0.33515186  0.33682692  0.66882647  1
  Fe  Fe41  1  0.50341446  0.50274816  0.83557951  1
  Fe  Fe42  1  0.50348217  0.83636008  0.50499034  1
  Fe  Fe43  1  0.33844167  0.66959203  0.66874461  1
  Ni  Ni44  1  0.50172002  0.83564405  0.83520548  1
  Fe  Fe45  1  0.83498721  0.16862036  0.50398035  1
  Ni  Ni46  1  0.67075764  1.00081316  0.67027979  1
  Cr  Cr47  1  0.83709240  0.17131475  0.83645156  1
  Fe  Fe48  1  0.83633487  0.50692526  0.50416652  1
  Ni  Ni49  1  0.67068327  0.33774415  0.66850804  1
  Ni  Ni50  1  0.83842507  0.50447232  0.83392960  1
  Ni  Ni51  1  0.83880645  0.83708517  0.50261233  1
  Fe  Fe52  1  0.66841704  0.67027991  0.67010581  1
  Ni  Ni53  1  0.83806472  0.83504715  0.83582227  1
" 