8,Ni40Fe60_0,-243.108182561611, 227.798870767668,Ni40Fe60,"# generated using pymatgen
 data_Fe7Ni11
_symmetry_space_group_name_H-M   'P 1'
_cell_length_a   7.40569142
_cell_length_b   7.40569142
_cell_length_c   10.47322924
_cell_angle_alpha   90.00000000
_cell_angle_beta   90.00000000
_cell_angle_gamma   90.00000000
_symmetry_Int_Tables_number   1
_chemical_formula_structural   Fe7Ni11
_chemical_formula_sum   'Fe21 Ni33'
_cell_volume   574.39656358
_cell_formula_units_Z   3
loop_
 _symmetry_equiv_pos_site_id
 _symmetry_equiv_pos_as_xyz
  1  'x, y, z'
loop_
 _atom_site_type_symbol
 _atom_site_label
 _atom_site_symmetry_multiplicity
 _atom_site_fract_x
 _atom_site_fract_y
 _atom_site_fract_z
 _atom_site_occupancy
  Ni  Ni0  1  1.00270902  1.00351861  0.00421641  1
  Fe  Fe1  1  0.17225008  0.17032853  0.17025535  1
  Fe  Fe2  1  0.00470042  0.00462489  0.33706507  1
  Fe  Fe3  1  0.00521474  0.33714519  1.00333981  1
  Ni  Ni4  1  0.17030616  0.50503266  0.17102294  1
  Ni  Ni5  1  1.00383977  0.33864128  0.33693507  1
  Ni  Ni6  1  0.00455486  0.67078670  1.00281326  1
  Ni  Ni7  1  0.17147288  0.83664718  0.17036828  1
  Ni  Ni8  1  0.00467283  0.66985375  0.33835803  1
  Ni  Ni9  1  0.33827258  0.00434133  1.00335757  1
  Ni  Ni10  1  0.50438130  0.16958741  0.17095427  1
  Ni  Ni11  1  0.33925622  1.00392947  0.33758466  1
  Ni  Ni12  1  0.33723650  0.33811284  0.00422505  1
  Fe  Fe13  1  0.50248572  0.50432932  0.17088989  1
  Ni  Ni14  1  0.33740367  0.33780624  0.33781280  1
  Ni  Ni15  1  0.33641480  0.66997295  1.00390004  1
  Ni  Ni16  1  0.50320467  0.83865523  0.17085180  1
  Ni  Ni17  1  0.33656581  0.67069168  0.33737209  1
  Ni  Ni18  1  0.67144869  0.00434225  1.00379836  1
  Fe  Fe19  1  0.83715325  0.17003624  0.17110415  1
  Ni  Ni20  1  0.67035300  0.00476170  0.33757712  1
  Fe  Fe21  1  0.67037067  0.33703548  0.00433101  1
  Fe  Fe22  1  0.83801404  0.50470035  0.17146544  1
  Ni  Ni23  1  0.67118655  0.33595367  0.33861127  1
  Fe  Fe24  1  0.67039498  0.67173692  1.00300410  1
  Fe  Fe25  1  0.83776578  0.83768918  0.16989469  1
  Fe  Fe26  1  0.67002931  0.67018816  0.33853982  1
  Fe  Fe27  1  0.17143631  0.17195224  0.50461684  1
  Fe  Fe28  1  1.00381997  0.00461360  0.67187537  1
  Ni  Ni29  1  0.17030953  0.17096991  0.83825740  1
  Fe  Fe30  1  0.17143675  0.50343993  0.50384949  1
  Ni  Ni31  1  0.00459701  0.33768955  0.67146930  1
  Ni  Ni32  1  0.17113774  0.50386255  0.83726941  1
  Fe  Fe33  1  0.17168718  0.83703574  0.50307613  1
  Fe  Fe34  1  1.00363342  0.67000051  0.67125007  1
  Fe  Fe35  1  0.16989360  0.83677099  0.83868898  1
  Ni  Ni36  1  0.50456636  0.17025404  0.50442301  1
  Fe  Fe37  1  0.33799305  0.00428930  0.67037684  1
  Fe  Fe38  1  0.50440860  0.17158937  0.83790814  1
  Ni  Ni39  1  0.50420551  0.50452373  0.50291184  1
  Ni  Ni40  1  0.33628811  0.33852403  0.67039097  1
  Ni  Ni41  1  0.50349347  0.50469737  0.83792315  1
  Ni  Ni42  1  0.50339679  0.83765061  0.50366608  1
  Ni  Ni43  1  0.33793404  0.66958762  0.67114969  1
  Fe  Fe44  1  0.50479715  0.83696748  0.83733203  1
  Ni  Ni45  1  0.83735819  0.17142518  0.50392776  1
  Ni  Ni46  1  0.67154587  1.00350499  0.67105285  1
  Ni  Ni47  1  0.83826952  0.17012819  0.83768208  1
  Ni  Ni48  1  0.83771095  0.50334688  0.50436026  1
  Fe  Fe49  1  0.67061808  0.33832414  0.67003843  1
  Ni  Ni50  1  0.83779366  0.50435411  0.83758266  1
  Fe  Fe51  1  0.83555776  0.83755205  0.50476516  1
  Ni  Ni52  1  0.67070862  0.67224496  0.67071859  1
  Ni  Ni53  1  0.83743962  0.83794681  0.83748424  1
" 