4913,Ni40Fe51Cr7_17,-235.568754955615, 208.883930280661,Ni40Fe51Cr7,"# generated using pymatgen
 data_Cr2Fe9Ni7
_symmetry_space_group_name_H-M   'P 1'
_cell_length_a   7.41856305
_cell_length_b   7.41856305
_cell_length_c   10.49143248
_cell_angle_alpha   90.00000000
_cell_angle_beta   90.00000000
_cell_angle_gamma   90.00000000
_symmetry_Int_Tables_number   1
_chemical_formula_structural   Cr2Fe9Ni7
_chemical_formula_sum   'Cr6 Fe27 Ni21'
_cell_volume   577.39680249
_cell_formula_units_Z   3
loop_
 _symmetry_equiv_pos_site_id
 _symmetry_equiv_pos_as_xyz
  1  'x, y, z'
loop_
 _atom_site_type_symbol
 _atom_site_label
 _atom_site_symmetry_multiplicity
 _atom_site_fract_x
 _atom_site_fract_y
 _atom_site_fract_z
 _atom_site_occupancy
  Fe  Fe0  1  1.00083108  1.00246879  0.00343167  1
  Fe  Fe1  1  0.16707018  0.17060402  0.17082020  1
  Fe  Fe2  1  1.00260463  0.00386381  0.33709140  1
  Ni  Ni3  1  1.00160284  0.33849405  1.00227475  1
  Fe  Fe4  1  0.16738535  0.50231373  0.17007547  1
  Ni  Ni5  1  1.00273822  0.33720231  0.33800244  1
  Fe  Fe6  1  0.00339722  0.66960210  0.00335529  1
  Ni  Ni7  1  0.16845778  0.83559794  0.17116981  1
  Fe  Fe8  1  1.00251347  0.67079360  0.33685411  1
  Cr  Cr9  1  0.33635851  1.00063941  0.00497269  1
  Ni  Ni10  1  0.50312310  0.17362130  0.17085502  1
  Ni  Ni11  1  0.33421514  1.00206917  0.33720065  1
  Fe  Fe12  1  0.33686004  0.33925929  0.00388929  1
  Fe  Fe13  1  0.50492536  0.50411271  0.16985445  1
  Fe  Fe14  1  0.33666204  0.33514218  0.33624796  1
  Fe  Fe15  1  0.33542242  0.66748526  0.00336533  1
  Fe  Fe16  1  0.50466411  0.83570681  0.17136747  1
  Fe  Fe17  1  0.33609513  0.67138968  0.33582428  1
  Fe  Fe18  1  0.67229284  0.00422009  0.00507206  1
  Ni  Ni19  1  0.83675926  0.17135962  0.16823353  1
  Cr  Cr20  1  0.66909703  1.00251435  0.33682908  1
  Ni  Ni21  1  0.67184849  0.33808315  0.00464707  1
  Ni  Ni22  1  0.83635675  0.50313591  0.17114134  1
  Ni  Ni23  1  0.67263844  0.33733830  0.33569574  1
  Fe  Fe24  1  0.67075839  0.66934189  0.00372537  1
  Ni  Ni25  1  0.83953093  0.83539863  0.16931515  1
  Ni  Ni26  1  0.67130570  0.66972720  0.33574165  1
  Fe  Fe27  1  0.16968505  0.16861037  0.50378017  1
  Ni  Ni28  1  0.00400417  1.00157357  0.66951575  1
  Cr  Cr29  1  0.16774123  0.16901609  0.83605602  1
  Fe  Fe30  1  0.16771517  0.50436481  0.50371113  1
  Fe  Fe31  1  0.00354649  0.33832471  0.66862606  1
  Fe  Fe32  1  0.17047083  0.50445014  0.83615358  1
  Ni  Ni33  1  0.16915169  0.83625106  0.50323011  1
  Ni  Ni34  1  1.00292010  0.67059115  0.66991221  1
  Ni  Ni35  1  0.16790346  0.83456231  0.83569096  1
  Fe  Fe36  1  0.50200067  0.16734079  0.50274647  1
  Fe  Fe37  1  0.33589666  1.00058567  0.66827855  1
  Cr  Cr38  1  0.50523066  0.17154641  0.83486596  1
  Cr  Cr39  1  0.50345917  0.50363685  0.50097693  1
  Ni  Ni40  1  0.33496658  0.33681496  0.66930382  1
  Ni  Ni41  1  0.50373904  0.50434084  0.83808331  1
  Ni  Ni42  1  0.50232127  0.83453604  0.50492034  1
  Fe  Fe43  1  0.33569909  0.66970819  0.67085489  1
  Fe  Fe44  1  0.50298195  0.83460508  0.83537430  1
  Ni  Ni45  1  0.83861471  0.17015258  0.50403565  1
  Fe  Fe46  1  0.67217224  1.00100707  0.66798057  1
  Fe  Fe47  1  0.83725680  0.16918870  0.83733861  1
  Fe  Fe48  1  0.83852220  0.50670881  0.50153273  1
  Cr  Cr49  1  0.67166096  0.33866272  0.66793420  1
  Fe  Fe50  1  0.83720733  0.50462137  0.83792188  1
  Ni  Ni51  1  0.83810517  0.83634205  0.50367044  1
  Ni  Ni52  1  0.67134494  0.67091933  0.67090935  1
  Fe  Fe53  1  0.83662836  0.83651350  0.83600321  1
" 