8516,Ni40Fe60_19,-243.030934045511, 226.27888208722,Ni40Fe60,"# generated using pymatgen
 data_Fe7Ni11
_symmetry_space_group_name_H-M   'P 1'
_cell_length_a   7.40687452
_cell_length_b   7.40687452
_cell_length_c   10.47490240
_cell_angle_alpha   90.00000000
_cell_angle_beta   90.00000000
_cell_angle_gamma   90.00000000
_symmetry_Int_Tables_number   1
_chemical_formula_structural   Fe7Ni11
_chemical_formula_sum   'Fe21 Ni33'
_cell_volume   574.67189716
_cell_formula_units_Z   3
loop_
 _symmetry_equiv_pos_site_id
 _symmetry_equiv_pos_as_xyz
  1  'x, y, z'
loop_
 _atom_site_type_symbol
 _atom_site_label
 _atom_site_symmetry_multiplicity
 _atom_site_fract_x
 _atom_site_fract_y
 _atom_site_fract_z
 _atom_site_occupancy
  Ni  Ni0  1  0.00408580  1.00395864  0.00533938  1
  Ni  Ni1  1  0.17027796  0.17224704  0.17026524  1
  Ni  Ni2  1  1.00300298  1.00330422  0.33628068  1
  Ni  Ni3  1  1.00359884  0.33707727  0.00461357  1
  Ni  Ni4  1  0.17099933  0.50323971  0.17042231  1
  Ni  Ni5  1  0.00512839  0.33780084  0.33747820  1
  Fe  Fe6  1  1.00362508  0.67155413  0.00460740  1
  Ni  Ni7  1  0.17100212  0.83669763  0.17035979  1
  Ni  Ni8  1  0.00425416  0.67108019  0.33735641  1
  Ni  Ni9  1  0.33786419  1.00307753  0.00498855  1
  Ni  Ni10  1  0.50427865  0.17028024  0.17016146  1
  Fe  Fe11  1  0.33675951  0.00429787  0.33602482  1
  Fe  Fe12  1  0.33715814  0.33574681  0.00483872  1
  Fe  Fe13  1  0.50351903  0.50352421  0.17108802  1
  Ni  Ni14  1  0.33740889  0.33817124  0.33652961  1
  Fe  Fe15  1  0.33747120  0.67165694  1.00394260  1
  Ni  Ni16  1  0.50427806  0.83793891  0.17025697  1
  Fe  Fe17  1  0.33641457  0.67069583  0.33782849  1
  Ni  Ni18  1  0.67023604  1.00395192  1.00393334  1
  Ni  Ni19  1  0.83762936  0.17028764  0.17025463  1
  Ni  Ni20  1  0.67088251  1.00329376  0.33696729  1
  Ni  Ni21  1  0.67074194  0.33706432  0.00509060  1
  Fe  Fe22  1  0.83833525  0.50367215  0.17101286  1
  Fe  Fe23  1  0.67191381  0.33661241  0.33762954  1
  Fe  Fe24  1  0.67108846  0.67217845  1.00340037  1
  Ni  Ni25  1  0.83690412  0.83866284  0.17017766  1
  Fe  Fe26  1  0.67163290  0.67130707  0.33845216  1
  Fe  Fe27  1  0.16994707  0.17166434  0.50370520  1
  Ni  Ni28  1  1.00359298  1.00343405  0.67056370  1
  Fe  Fe29  1  0.16986379  0.16955492  0.83783087  1
  Ni  Ni30  1  0.17123005  0.50320619  0.50494099  1
  Ni  Ni31  1  1.00397225  0.33723927  0.67009425  1
  Fe  Fe32  1  0.17005775  0.50441472  0.83669104  1
  Fe  Fe33  1  0.16951254  0.83617956  0.50393988  1
  Ni  Ni34  1  1.00396854  0.67151226  0.67066933  1
  Fe  Fe35  1  0.17005863  0.83821500  0.83767108  1
  Fe  Fe36  1  0.50496491  0.17186011  0.50347272  1
  Fe  Fe37  1  0.33739381  1.00351908  0.67146784  1
  Fe  Fe38  1  0.50520494  0.17005868  0.83829458  1
  Ni  Ni39  1  0.50243387  0.50479744  0.50464054  1
  Ni  Ni40  1  0.33824291  0.33848862  0.67139199  1
  Fe  Fe41  1  0.50539476  0.50429602  0.83610637  1
  Ni  Ni42  1  0.50440448  0.83658223  0.50462225  1
  Ni  Ni43  1  0.33826320  0.67028670  0.67009315  1
  Ni  Ni44  1  0.50447677  0.83698469  0.83730593  1
  Ni  Ni45  1  0.83816600  0.17078105  0.50451543  1
  Fe  Fe46  1  0.67158933  1.00352325  0.67072877  1
  Ni  Ni47  1  0.83797712  0.17049606  0.83741567  1
  Ni  Ni48  1  0.83852383  0.50322735  0.50499564  1
  Ni  Ni49  1  0.66997374  0.33811341  0.66986987  1
  Fe  Fe50  1  0.83673302  0.50410080  0.83656431  1
  Ni  Ni51  1  0.83657141  0.83817614  0.50497342  1
  Ni  Ni52  1  0.66995117  0.67066182  0.67044675  1
  Ni  Ni53  1  0.83638653  0.83859313  0.83703444  1
" 