189,Ni40Cr60_19,-223.707963359528, 136.521940437387,Ni40Cr60,"# generated using pymatgen
 data_Cr7Ni11
_symmetry_space_group_name_H-M   'P 1'
_cell_length_a   7.50303813
_cell_length_b   7.50303813
_cell_length_c   10.61089828
_cell_angle_alpha   90.00000000
_cell_angle_beta   90.00000000
_cell_angle_gamma   90.00000000
_symmetry_Int_Tables_number   1
_chemical_formula_structural   Cr7Ni11
_chemical_formula_sum   'Cr21 Ni33'
_cell_volume   597.34668468
_cell_formula_units_Z   3
loop_
 _symmetry_equiv_pos_site_id
 _symmetry_equiv_pos_as_xyz
  1  'x, y, z'
loop_
 _atom_site_type_symbol
 _atom_site_label
 _atom_site_symmetry_multiplicity
 _atom_site_fract_x
 _atom_site_fract_y
 _atom_site_fract_z
 _atom_site_occupancy
  Ni  Ni0  1  -0.00168902  -0.00082377  -0.00225115  1
  Ni  Ni1  1  0.16221458  0.16203574  0.16295146  1
  Ni  Ni2  1  0.99663508  -0.00164356  0.32999761  1
  Ni  Ni3  1  0.99491322  0.32978882  0.99679606  1
  Cr  Cr4  1  0.16315218  0.49645796  0.16166468  1
  Cr  Cr5  1  0.99715544  0.32795278  0.32882064  1
  Ni  Ni6  1  0.99585344  0.66387917  0.99651651  1
  Cr  Cr7  1  0.16400853  0.83259583  0.16154394  1
  Cr  Cr8  1  0.99464140  0.66710226  0.33032748  1
  Ni  Ni9  1  0.32981947  -0.00210747  0.99722114  1
  Ni  Ni10  1  0.49843433  0.16161114  0.16317632  1
  Cr  Cr11  1  0.33241277  -0.00127390  0.33122074  1
  Cr  Cr12  1  0.33106562  0.32654687  0.99711685  1
  Cr  Cr13  1  0.49844018  0.49946380  0.16275222  1
  Cr  Cr14  1  0.33210875  0.32751133  0.33235427  1
  Ni  Ni15  1  0.32974381  0.66688476  0.99644775  1
  Ni  Ni16  1  0.49996873  0.83184947  0.16354285  1
  Cr  Cr17  1  0.33319992  0.66639264  0.33396081  1
  Cr  Cr18  1  0.66491976  0.00034448  -0.00033100  1
  Ni  Ni19  1  0.83215769  0.16294391  0.16343156  1
  Ni  Ni20  1  0.66421679  0.99598644  0.32939128  1
  Ni  Ni21  1  0.66811859  0.33016994  0.99741699  1
  Ni  Ni22  1  0.82960237  0.49819388  0.16129187  1
  Cr  Cr23  1  0.66343243  0.32892306  0.32905485  1
  Ni  Ni24  1  0.66713575  0.66341292  -0.00017747  1
  Ni  Ni25  1  0.82961858  0.83167019  0.16480951  1
  Ni  Ni26  1  0.66358606  0.66702756  0.33016723  1
  Ni  Ni27  1  0.16410828  0.16003503  0.49889070  1
  Ni  Ni28  1  0.00019655  0.00002882  0.66498383  1
  Ni  Ni29  1  0.16241861  0.16236934  0.83096320  1
  Cr  Cr30  1  0.16400339  0.49503600  0.49723377  1
  Ni  Ni31  1  0.99696367  0.32824419  0.66722199  1
  Ni  Ni32  1  0.16129000  0.49690257  0.83328299  1
  Ni  Ni33  1  0.16517374  0.83665666  0.49896333  1
  Cr  Cr34  1  -0.00198421  0.66444745  0.66625076  1
  Ni  Ni35  1  0.16401113  0.83375318  0.83264069  1
  Ni  Ni36  1  0.49815829  0.16209002  0.49935160  1
  Ni  Ni37  1  0.33039420  -0.00134104  0.66387552  1
  Ni  Ni38  1  0.49835956  0.16347984  0.82990258  1
  Ni  Ni39  1  0.50057345  0.49813854  0.49825980  1
  Cr  Cr40  1  0.33082600  0.32816905  0.66317558  1
  Cr  Cr41  1  0.50014718  0.49739589  0.83212196  1
  Ni  Ni42  1  0.49895312  0.83261413  0.49828564  1
  Cr  Cr43  1  0.33012013  0.66708738  0.66306632  1
  Cr  Cr44  1  0.49628246  0.83267649  0.83170283  1
  Cr  Cr45  1  0.83182027  0.16242524  0.49986483  1
  Ni  Ni46  1  0.66240724  -0.00033372  0.66394271  1
  Ni  Ni47  1  0.83208329  0.16651147  0.82979262  1
  Cr  Cr48  1  0.82845625  0.49615818  0.49930111  1
  Ni  Ni49  1  0.66485679  0.32943517  0.66567040  1
  Ni  Ni50  1  0.83142427  0.49494275  0.83193452  1
  Cr  Cr51  1  0.82976413  0.83416496  0.49753118  1
  Ni  Ni52  1  0.66364267  0.66369086  0.66281448  1
  Cr  Cr53  1  0.83116969  0.83281191  0.83024672  1
" 