2326,Ni40Fe49Cr9_9,-235.681680527213, 212.3198496623,Ni40Fe49Cr9,"# generated using pymatgen
 data_Cr3Fe13Ni11
_symmetry_space_group_name_H-M   'P 1'
_cell_length_a   7.41646838
_cell_length_b   7.41646838
_cell_length_c   10.48847017
_cell_angle_alpha   90.00000000
_cell_angle_beta   90.00000000
_cell_angle_gamma   90.00000000
_symmetry_Int_Tables_number   1
_chemical_formula_structural   Cr3Fe13Ni11
_chemical_formula_sum   'Cr6 Fe26 Ni22'
_cell_volume   576.90784707
_cell_formula_units_Z   2
loop_
 _symmetry_equiv_pos_site_id
 _symmetry_equiv_pos_as_xyz
  1  'x, y, z'
loop_
 _atom_site_type_symbol
 _atom_site_label
 _atom_site_symmetry_multiplicity
 _atom_site_fract_x
 _atom_site_fract_y
 _atom_site_fract_z
 _atom_site_occupancy
  Fe  Fe0  1  1.00330298  0.00618545  0.00380365  1
  Ni  Ni1  1  0.17120735  0.17053478  0.17015647  1
  Cr  Cr2  1  1.00222111  1.00186813  0.33788677  1
  Fe  Fe3  1  1.00322705  0.33480155  1.00279976  1
  Fe  Fe4  1  0.16978434  0.50179794  0.17047965  1
  Fe  Fe5  1  0.00436965  0.33813789  0.33629226  1
  Cr  Cr6  1  0.00448583  0.67037242  1.00266356  1
  Fe  Fe7  1  0.16990235  0.83679160  0.17013808  1
  Ni  Ni8  1  0.00350356  0.67058597  0.33769427  1
  Fe  Fe9  1  0.33730090  0.00457136  1.00298173  1
  Fe  Fe10  1  0.50409476  0.17125606  0.16996075  1
  Fe  Fe11  1  0.33810775  0.00531505  0.33728549  1
  Ni  Ni12  1  0.33770964  0.33750359  1.00277440  1
  Ni  Ni13  1  0.50545017  0.50292089  0.16942418  1
  Ni  Ni14  1  0.33804968  0.33651876  0.33796397  1
  Fe  Fe15  1  0.33979318  0.66928739  1.00301951  1
  Fe  Fe16  1  0.50491104  0.83727894  0.16902361  1
  Cr  Cr17  1  0.33553214  0.66845888  0.33586408  1
  Ni  Ni18  1  0.67057132  0.00430025  1.00335529  1
  Fe  Fe19  1  0.83531003  0.17137143  0.16962279  1
  Fe  Fe20  1  0.66840727  0.00360235  0.33743833  1
  Ni  Ni21  1  0.66859422  0.33560877  1.00201079  1
  Ni  Ni22  1  0.83559665  0.50378642  0.17146488  1
  Ni  Ni23  1  0.66806567  0.33537304  0.33667739  1
  Fe  Fe24  1  0.66805937  0.66921321  0.00349957  1
  Ni  Ni25  1  0.83497272  0.83538124  0.17132297  1
  Fe  Fe26  1  0.67101684  0.67004480  0.33530727  1
  Fe  Fe27  1  0.17290243  0.17072161  0.50232253  1
  Cr  Cr28  1  1.00202270  1.00167148  0.67070383  1
  Ni  Ni29  1  0.17182016  0.17011026  0.83784239  1
  Ni  Ni30  1  0.16988738  0.50408159  0.50246790  1
  Cr  Cr31  1  0.00474221  0.33713633  0.67088710  1
  Ni  Ni32  1  0.17016879  0.50260150  0.83726911  1
  Ni  Ni33  1  0.17149081  0.83574327  0.50428864  1
  Fe  Fe34  1  0.00417997  0.67081721  0.67045140  1
  Fe  Fe35  1  0.17244568  0.83613815  0.83619045  1
  Ni  Ni36  1  0.50350597  0.16816766  0.50294781  1
  Fe  Fe37  1  0.33896801  1.00339027  0.66996432  1
  Ni  Ni38  1  0.50272918  0.16898288  0.83686547  1
  Fe  Fe39  1  0.50206734  0.50210454  0.50355160  1
  Fe  Fe40  1  0.33837248  0.33613126  0.67054394  1
  Ni  Ni41  1  0.50433182  0.50367840  0.83598997  1
  Ni  Ni42  1  0.50336733  0.83965010  0.50339202  1
  Fe  Fe43  1  0.33681217  0.67070810  0.66982866  1
  Ni  Ni44  1  0.50383895  0.83756810  0.83752352  1
  Ni  Ni45  1  0.83370286  0.16977143  0.50199478  1
  Ni  Ni46  1  0.66898345  1.00321561  0.66921930  1
  Fe  Fe47  1  0.83407538  0.17073311  0.83784003  1
  Cr  Cr48  1  0.83745498  0.50390342  0.50144317  1
  Fe  Fe49  1  0.66799762  0.33510120  0.67094076  1
  Ni  Ni50  1  0.83573060  0.50370962  0.83715972  1
  Fe  Fe51  1  0.83535931  0.83729106  0.50293796  1
  Fe  Fe52  1  0.66923991  0.67142390  0.67142278  1
  Fe  Fe53  1  0.83439097  0.83671582  0.83723541  1
" 