714,Ni40Fe5Cr53_5,-217.227716268224, 140.972875304447,Ni40Fe5Cr53,"# generated using pymatgen
 data_Cr10FeNi7
_symmetry_space_group_name_H-M   'P 1'
_cell_length_a   7.52593737
_cell_length_b   7.52593737
_cell_length_c   10.64328270
_cell_angle_alpha   90.00000000
_cell_angle_beta   90.00000000
_cell_angle_gamma   90.00000000
_symmetry_Int_Tables_number   1
_chemical_formula_structural   Cr10FeNi7
_chemical_formula_sum   'Cr30 Fe3 Ni21'
_cell_volume   602.83269377
_cell_formula_units_Z   3
loop_
 _symmetry_equiv_pos_site_id
 _symmetry_equiv_pos_as_xyz
  1  'x, y, z'
loop_
 _atom_site_type_symbol
 _atom_site_label
 _atom_site_symmetry_multiplicity
 _atom_site_fract_x
 _atom_site_fract_y
 _atom_site_fract_z
 _atom_site_occupancy
  Fe  Fe0  1  0.99439317  0.99606257  0.99465182  1
  Cr  Cr1  1  0.16113875  0.16323134  0.16051054  1
  Cr  Cr2  1  0.99513541  0.99496707  0.32981553  1
  Cr  Cr3  1  0.99539342  0.33086409  0.99490824  1
  Ni  Ni4  1  0.15808466  0.49679387  0.16367244  1
  Cr  Cr5  1  0.99567806  0.33072667  0.32920490  1
  Ni  Ni6  1  0.99501100  0.66086492  0.99508955  1
  Cr  Cr7  1  0.16169109  0.82913765  0.16178534  1
  Ni  Ni8  1  -0.00185137  0.66096183  0.33018838  1
  Cr  Cr9  1  0.33283564  0.99584676  0.99267150  1
  Cr  Cr10  1  0.49527765  0.16187051  0.16360763  1
  Cr  Cr11  1  0.33049773  0.99565810  0.33246176  1
  Cr  Cr12  1  0.32739638  0.32918983  0.99339595  1
  Cr  Cr13  1  0.49370047  0.49698835  0.16394737  1
  Ni  Ni14  1  0.32698188  0.32965767  0.33063129  1
  Cr  Cr15  1  0.32772126  0.66340080  -0.00267068  1
  Ni  Ni16  1  0.49876427  0.83255930  0.16217613  1
  Cr  Cr17  1  0.32649149  0.66341852  0.32805438  1
  Ni  Ni18  1  0.66339921  0.99510161  0.99507018  1
  Ni  Ni19  1  0.82842317  0.16088844  0.16148670  1
  Ni  Ni20  1  0.66141431  -0.00312974  0.32815206  1
  Cr  Cr21  1  0.66508686  0.32710491  -0.00270881  1
  Ni  Ni22  1  0.83356758  0.49743843  0.16237823  1
  Cr  Cr23  1  0.66362805  0.32649642  0.32634951  1
  Cr  Cr24  1  0.66334365  0.66353817  0.99314393  1
  Cr  Cr25  1  0.83021315  0.83031667  0.16077334  1
  Cr  Cr26  1  0.66481944  0.66368388  0.32838777  1
  Cr  Cr27  1  0.16525525  0.16452229  0.49961711  1
  Cr  Cr28  1  -0.00282706  -0.00309147  0.66313029  1
  Ni  Ni29  1  0.16415695  0.16406909  0.82745490  1
  Ni  Ni30  1  0.16313272  0.49578453  0.49631354  1
  Ni  Ni31  1  0.00082060  0.33066909  0.66495861  1
  Ni  Ni32  1  0.15943639  0.49524322  0.82838587  1
  Ni  Ni33  1  0.16252549  0.82722285  0.49555642  1
  Cr  Cr34  1  -0.00359363  0.66179269  0.66216781  1
  Cr  Cr35  1  0.16117904  0.83062516  0.83149017  1
  Ni  Ni36  1  0.49519042  0.16136880  0.49811601  1
  Fe  Fe37  1  0.33083719  -0.00292462  0.66403651  1
  Ni  Ni38  1  0.49579168  0.15858902  0.82643692  1
  Cr  Cr39  1  0.49430456  0.49254133  0.49759029  1
  Ni  Ni40  1  0.32728238  0.32713357  0.66467979  1
  Cr  Cr41  1  0.49578538  0.49555181  0.82714155  1
  Cr  Cr42  1  0.49793396  0.82991359  0.49782355  1
  Cr  Cr43  1  0.32813272  0.66473037  0.66316558  1
  Ni  Ni44  1  0.49862943  0.83318639  0.82809574  1
  Cr  Cr45  1  0.82727371  0.16142983  0.49597892  1
  Ni  Ni46  1  0.65979045  0.99561134  0.66438286  1
  Cr  Cr47  1  0.83089766  0.16137672  0.82974102  1
  Cr  Cr48  1  0.82984996  0.49690128  0.49868365  1
  Cr  Cr49  1  0.66472695  0.32811787  0.66445358  1
  Ni  Ni50  1  0.83277774  0.49826426  0.82774513  1
  Cr  Cr51  1  0.82932438  0.82926280  0.49741714  1
  Ni  Ni52  1  0.66336675  0.66751116  0.66757148  1
  Fe  Fe53  1  0.82851003  0.82968591  0.82945809  1
" 