6417,Ni40Fe49Cr9_18,-235.830391925746, 207.792389427512,Ni40Fe49Cr9,"# generated using pymatgen
 data_Cr3Fe13Ni11
_symmetry_space_group_name_H-M   'P 1'
_cell_length_a   7.41933578
_cell_length_b   7.41933578
_cell_length_c   10.49252528
_cell_angle_alpha   90.00000000
_cell_angle_beta   90.00000000
_cell_angle_gamma   90.00000000
_symmetry_Int_Tables_number   1
_chemical_formula_structural   Cr3Fe13Ni11
_chemical_formula_sum   'Cr6 Fe26 Ni22'
_cell_volume   577.57724782
_cell_formula_units_Z   2
loop_
 _symmetry_equiv_pos_site_id
 _symmetry_equiv_pos_as_xyz
  1  'x, y, z'
loop_
 _atom_site_type_symbol
 _atom_site_label
 _atom_site_symmetry_multiplicity
 _atom_site_fract_x
 _atom_site_fract_y
 _atom_site_fract_z
 _atom_site_occupancy
  Fe  Fe0  1  1.00003643  1.00274425  1.00201026  1
  Fe  Fe1  1  0.16951472  0.17020498  0.16741714  1
  Cr  Cr2  1  1.00321323  1.00248711  0.33680227  1
  Fe  Fe3  1  0.99961516  0.33728333  0.00347164  1
  Fe  Fe4  1  0.16900876  0.50471815  0.16686341  1
  Ni  Ni5  1  1.00149522  0.33494527  0.33558112  1
  Ni  Ni6  1  0.00388213  0.67067699  0.00380314  1
  Ni  Ni7  1  0.17126641  0.83856676  0.16640657  1
  Cr  Cr8  1  1.00085150  0.66878238  0.33641835  1
  Fe  Fe9  1  0.33827068  1.00198553  1.00238120  1
  Fe  Fe10  1  0.50507439  0.16858455  0.16877215  1
  Fe  Fe11  1  0.33719233  1.00252315  0.33556157  1
  Fe  Fe12  1  0.33784230  0.33774520  0.00364352  1
  Ni  Ni13  1  0.50650931  0.50320547  0.16884081  1
  Cr  Cr14  1  0.33635429  0.33697061  0.33677877  1
  Fe  Fe15  1  0.33933457  0.66994134  1.00310695  1
  Ni  Ni16  1  0.50333769  0.83646086  0.16954495  1
  Cr  Cr17  1  0.33713314  0.67023100  0.33587969  1
  Ni  Ni18  1  0.66906104  0.00353080  1.00215167  1
  Fe  Fe19  1  0.83435863  0.16869503  0.16846014  1
  Fe  Fe20  1  0.67034451  1.00153146  0.33464030  1
  Ni  Ni21  1  0.66839074  0.33612063  1.00295044  1
  Ni  Ni22  1  0.83558886  0.50050221  0.16877674  1
  Ni  Ni23  1  0.67091139  0.33694283  0.33468539  1
  Ni  Ni24  1  0.67086970  0.66979147  0.00328977  1
  Ni  Ni25  1  0.83538789  0.83446895  0.16774456  1
  Ni  Ni26  1  0.66963778  0.66866121  0.33655650  1
  Fe  Fe27  1  0.16703393  0.17005732  0.50446436  1
  Ni  Ni28  1  1.00150335  0.00326289  0.67124550  1
  Fe  Fe29  1  0.16839796  0.16924939  0.83826407  1
  Fe  Fe30  1  0.16848112  0.50266916  0.50599680  1
  Fe  Fe31  1  0.00333161  0.33698493  0.66995657  1
  Fe  Fe32  1  0.16878609  0.50480762  0.83667014  1
  Ni  Ni33  1  0.17112285  0.83578904  0.50487669  1
  Ni  Ni34  1  0.00343873  0.67181294  0.66948755  1
  Ni  Ni35  1  0.17042334  0.83528307  0.83808654  1
  Cr  Cr36  1  0.50707135  0.16867819  0.50327838  1
  Cr  Cr37  1  0.33554030  1.00283084  0.67052077  1
  Fe  Fe38  1  0.50420257  0.16918896  0.83750719  1
  Fe  Fe39  1  0.50705966  0.50486773  0.50440902  1
  Fe  Fe40  1  0.33491771  0.33876440  0.67119032  1
  Fe  Fe41  1  0.50374789  0.50378600  0.83761537  1
  Ni  Ni42  1  0.50205692  0.83561903  0.50214894  1
  Ni  Ni43  1  0.33699939  0.66873415  0.67042314  1
  Ni  Ni44  1  0.50216264  0.83507901  0.83754667  1
  Ni  Ni45  1  0.83698303  0.17313928  0.50327122  1
  Fe  Fe46  1  0.67239912  1.00061504  0.67234266  1
  Ni  Ni47  1  0.83642983  0.17326350  0.83648798  1
  Ni  Ni48  1  0.83685566  0.50050757  0.50358952  1
  Fe  Fe49  1  0.67216571  0.33807125  0.67165844  1
  Fe  Fe50  1  0.83703563  0.50623337  0.83732860  1
  Fe  Fe51  1  0.83393413  0.83703980  0.50467422  1
  Fe  Fe52  1  0.66998910  0.67165284  0.66988848  1
  Fe  Fe53  1  0.83707763  0.83734119  0.83816189  1
" 