7771,Ni40Fe5Cr53_11,-217.350734161616, 143.273235144059,Ni40Fe5Cr53,"# generated using pymatgen
 data_Cr10FeNi7
_symmetry_space_group_name_H-M   'P 1'
_cell_length_a   7.52904522
_cell_length_b   7.52904522
_cell_length_c   10.64767787
_cell_angle_alpha   90.00000000
_cell_angle_beta   90.00000000
_cell_angle_gamma   90.00000000
_symmetry_Int_Tables_number   1
_chemical_formula_structural   Cr10FeNi7
_chemical_formula_sum   'Cr30 Fe3 Ni21'
_cell_volume   603.57982574
_cell_formula_units_Z   3
loop_
 _symmetry_equiv_pos_site_id
 _symmetry_equiv_pos_as_xyz
  1  'x, y, z'
loop_
 _atom_site_type_symbol
 _atom_site_label
 _atom_site_symmetry_multiplicity
 _atom_site_fract_x
 _atom_site_fract_y
 _atom_site_fract_z
 _atom_site_occupancy
  Ni  Ni0  1  0.99577245  0.99405374  0.99325496  1
  Cr  Cr1  1  0.15977375  0.16297111  0.16239160  1
  Fe  Fe2  1  0.99349632  -0.00315640  0.33205244  1
  Cr  Cr3  1  0.99358096  0.33074848  -0.00369182  1
  Cr  Cr4  1  0.16220863  0.49544409  0.16659954  1
  Ni  Ni5  1  0.99541447  0.33151085  0.33099454  1
  Cr  Cr6  1  0.99274584  0.66255632  0.99383685  1
  Cr  Cr7  1  0.16057967  0.82951533  0.16300912  1
  Cr  Cr8  1  0.99393664  0.66135850  0.33249065  1
  Cr  Cr9  1  0.32780761  -0.00262002  0.99368679  1
  Ni  Ni10  1  0.49610479  0.16383470  0.16517033  1
  Cr  Cr11  1  0.33000511  -0.00250140  0.32941637  1
  Cr  Cr12  1  0.33202263  0.32771610  -0.00298045  1
  Ni  Ni13  1  0.49778970  0.49595871  0.16423455  1
  Ni  Ni14  1  0.32860013  0.33041495  0.32768842  1
  Cr  Cr15  1  0.32848565  0.66166235  0.99539560  1
  Cr  Cr16  1  0.49755586  0.82655420  0.16462105  1
  Fe  Fe17  1  0.32986321  0.66017240  0.33049677  1
  Cr  Cr18  1  0.66275674  -0.00267944  -0.00300799  1
  Cr  Cr19  1  0.83140289  0.16139101  0.16506686  1
  Ni  Ni20  1  0.66441847  0.99460709  0.33031218  1
  Cr  Cr21  1  0.66241933  0.33142750  -0.00258595  1
  Ni  Ni22  1  0.82646237  0.49674040  0.16357700  1
  Cr  Cr23  1  0.66422531  0.32848688  0.32882940  1
  Fe  Fe24  1  0.66359237  0.66063610  0.99578282  1
  Cr  Cr25  1  0.82911286  0.82914031  0.16207159  1
  Ni  Ni26  1  0.66554430  0.66207353  0.32817162  1
  Cr  Cr27  1  0.15874440  0.16527442  0.49647865  1
  Ni  Ni28  1  0.99529029  0.99496803  0.66187289  1
  Ni  Ni29  1  0.15822499  0.16012787  0.82875696  1
  Ni  Ni30  1  0.16039041  0.49534561  0.49388580  1
  Ni  Ni31  1  0.99281787  0.32963067  0.66111820  1
  Cr  Cr32  1  0.16142468  0.49349878  0.82735581  1
  Ni  Ni33  1  0.15929524  0.82914403  0.49489305  1
  Cr  Cr34  1  0.99480408  0.66350887  0.66104746  1
  Ni  Ni35  1  0.15808292  0.83220689  0.82903482  1
  Cr  Cr36  1  0.49891037  0.16366610  0.49664570  1
  Cr  Cr37  1  0.32535193  0.99427483  0.66467046  1
  Cr  Cr38  1  0.49727509  0.16454022  0.82638553  1
  Cr  Cr39  1  0.49576177  0.49631737  0.49606802  1
  Cr  Cr40  1  0.32924818  0.32922251  0.66376563  1
  Ni  Ni41  1  0.49962401  0.49615229  0.82934332  1
  Cr  Cr42  1  0.49755428  0.82692453  0.49331438  1
  Cr  Cr43  1  0.32513356  0.66392684  0.66090692  1
  Cr  Cr44  1  0.49810087  0.82587075  0.82914742  1
  Ni  Ni45  1  0.83187554  0.16301617  0.49579937  1
  Cr  Cr46  1  0.66617525  -0.00372840  0.65939844  1
  Cr  Cr47  1  0.83252559  0.16276095  0.82647622  1
  Ni  Ni48  1  0.83063064  0.49411253  0.49600647  1
  Ni  Ni49  1  0.66753497  0.33156340  0.66214206  1
  Ni  Ni50  1  0.82671854  0.49639941  0.82847021  1
  Ni  Ni51  1  0.83087953  0.83083759  0.49391478  1
  Cr  Cr52  1  0.66738298  0.66100789  0.66361757  1
  Ni  Ni53  1  0.83223360  0.82908205  0.83026859  1
" 