3450,Ni40Fe5Cr53_8,-217.390854769176, 146.610706473608,Ni40Fe5Cr53,"# generated using pymatgen
 data_Cr10FeNi7
_symmetry_space_group_name_H-M   'P 1'
_cell_length_a   7.52764018
_cell_length_b   7.52764018
_cell_length_c   10.64569084
_cell_angle_alpha   90.00000000
_cell_angle_beta   90.00000000
_cell_angle_gamma   90.00000000
_symmetry_Int_Tables_number   1
_chemical_formula_structural   Cr10FeNi7
_chemical_formula_sum   'Cr30 Fe3 Ni21'
_cell_volume   603.24197584
_cell_formula_units_Z   3
loop_
 _symmetry_equiv_pos_site_id
 _symmetry_equiv_pos_as_xyz
  1  'x, y, z'
loop_
 _atom_site_type_symbol
 _atom_site_label
 _atom_site_symmetry_multiplicity
 _atom_site_fract_x
 _atom_site_fract_y
 _atom_site_fract_z
 _atom_site_occupancy
  Cr  Cr0  1  0.99533091  0.99445205  0.99474454  1
  Cr  Cr1  1  0.16286203  0.16310699  0.15891546  1
  Ni  Ni2  1  -0.00367120  -0.00031290  0.33081676  1
  Ni  Ni3  1  -0.00288487  0.33172698  -0.00205020  1
  Ni  Ni4  1  0.16150253  0.49362725  0.15975604  1
  Cr  Cr5  1  0.99521891  0.32820057  0.32684665  1
  Cr  Cr6  1  -0.00353397  0.66054395  0.99516116  1
  Cr  Cr7  1  0.16482958  0.83303884  0.16441072  1
  Cr  Cr8  1  -0.00356785  0.66176565  0.32486332  1
  Ni  Ni9  1  0.33293743  0.99387831  0.99413604  1
  Cr  Cr10  1  0.49542381  0.16078371  0.15855610  1
  Fe  Fe11  1  0.32866712  -0.00184878  0.32917371  1
  Fe  Fe12  1  0.32929437  0.33127715  0.99337726  1
  Cr  Cr13  1  0.49617181  0.49628182  0.16157530  1
  Cr  Cr14  1  0.32758569  0.32818551  0.33039748  1
  Cr  Cr15  1  0.32790194  0.66512606  0.99498400  1
  Ni  Ni16  1  0.49651185  0.83122284  0.15965864  1
  Cr  Cr17  1  0.32837776  0.66431716  0.32683552  1
  Ni  Ni18  1  0.65940204  0.99371989  0.99442511  1
  Ni  Ni19  1  0.82977079  0.16335663  0.16174977  1
  Cr  Cr20  1  0.66280260  -0.00185155  0.32939308  1
  Cr  Cr21  1  0.66546232  0.32946508  0.99472968  1
  Ni  Ni22  1  0.82988903  0.49377275  0.15891859  1
  Cr  Cr23  1  0.66469119  0.32687605  0.33258918  1
  Ni  Ni24  1  0.66111862  0.66434636  0.99475341  1
  Cr  Cr25  1  0.82654543  0.83152704  0.16090111  1
  Cr  Cr26  1  0.66313718  0.66288227  0.32473312  1
  Ni  Ni27  1  0.16118394  0.15985264  0.49500704  1
  Ni  Ni28  1  -0.00331571  0.99432671  0.66287876  1
  Cr  Cr29  1  0.16350212  0.16244174  0.83300863  1
  Cr  Cr30  1  0.16304450  0.49796803  0.49862677  1
  Cr  Cr31  1  -0.00381601  0.32769364  0.66293991  1
  Ni  Ni32  1  0.16338176  0.49715929  0.82974978  1
  Cr  Cr33  1  0.16074198  0.83007810  0.49737984  1
  Ni  Ni34  1  -0.00103813  0.66449462  0.66851261  1
  Ni  Ni35  1  0.16249735  0.82777095  0.82656216  1
  Ni  Ni36  1  0.49424668  0.16077995  0.49539723  1
  Cr  Cr37  1  0.32996913  0.99515147  0.66379012  1
  Ni  Ni38  1  0.49574615  0.16269199  0.83280654  1
  Cr  Cr39  1  0.49505789  0.49707469  0.49752652  1
  Cr  Cr40  1  0.33025013  0.32842621  0.66442379  1
  Ni  Ni41  1  0.49423036  0.49703934  0.82981355  1
  Cr  Cr42  1  0.49475365  0.82752992  0.49416720  1
  Ni  Ni43  1  0.32733424  0.66365937  0.66712722  1
  Ni  Ni44  1  0.49646450  0.82869053  0.83263282  1
  Ni  Ni45  1  0.83235404  0.15972318  0.49595289  1
  Cr  Cr46  1  0.66201159  -0.00252871  0.66452344  1
  Cr  Cr47  1  0.82958956  0.16016352  0.83088953  1
  Cr  Cr48  1  0.82977565  0.49869509  0.49800463  1
  Cr  Cr49  1  0.66130501  0.32594980  0.66072442  1
  Fe  Fe50  1  0.82938560  0.49727936  0.83060593  1
  Cr  Cr51  1  0.83215102  0.82930087  0.49833647  1
  Cr  Cr52  1  0.66098545  0.66399965  0.66755066  1
  Ni  Ni53  1  0.82909820  0.82778805  0.82937768  1
" 