1913,Ni40Fe5Cr53_9,-217.335627418867, 145.589323639722,Ni40Fe5Cr53,"# generated using pymatgen
 data_Cr10FeNi7
_symmetry_space_group_name_H-M   'P 1'
_cell_length_a   7.53114689
_cell_length_b   7.53114689
_cell_length_c   10.65065008
_cell_angle_alpha   90.00000000
_cell_angle_beta   90.00000000
_cell_angle_gamma   90.00000000
_symmetry_Int_Tables_number   1
_chemical_formula_structural   Cr10FeNi7
_chemical_formula_sum   'Cr30 Fe3 Ni21'
_cell_volume   604.08541930
_cell_formula_units_Z   3
loop_
 _symmetry_equiv_pos_site_id
 _symmetry_equiv_pos_as_xyz
  1  'x, y, z'
loop_
 _atom_site_type_symbol
 _atom_site_label
 _atom_site_symmetry_multiplicity
 _atom_site_fract_x
 _atom_site_fract_y
 _atom_site_fract_z
 _atom_site_occupancy
  Cr  Cr0  1  -0.00342362  0.99347898  -0.00322410  1
  Ni  Ni1  1  0.16554494  0.16380855  0.16509080  1
  Cr  Cr2  1  0.99457652  0.99530902  0.32756191  1
  Cr  Cr3  1  -0.00243396  0.33084638  -0.00185099  1
  Ni  Ni4  1  0.16497114  0.49514955  0.16525913  1
  Cr  Cr5  1  -0.00307918  0.32928068  0.32587510  1
  Cr  Cr6  1  -0.00376046  0.66324905  0.99558046  1
  Cr  Cr7  1  0.16467915  0.82964084  0.16651082  1
  Cr  Cr8  1  -0.00322718  0.66338943  0.32661103  1
  Cr  Cr9  1  0.32673352  0.99499691  0.99410824  1
  Cr  Cr10  1  0.49537595  0.16133717  0.16057712  1
  Ni  Ni11  1  0.33201208  0.99455280  0.33092238  1
  Cr  Cr12  1  0.32650828  0.32988449  -0.00415652  1
  Cr  Cr13  1  0.49534800  0.49731394  0.16275930  1
  Ni  Ni14  1  0.33106210  0.33028933  0.32856001  1
  Cr  Cr15  1  0.32562536  0.66217040  0.99452843  1
  Cr  Cr16  1  0.49821376  0.82910547  0.16271535  1
  Ni  Ni17  1  0.33052340  0.66283538  0.33159032  1
  Ni  Ni18  1  0.66569450  0.99323553  0.99554088  1
  Cr  Cr19  1  0.82686311  0.16051633  0.16221338  1
  Ni  Ni20  1  0.65999697  0.99325317  0.33120050  1
  Ni  Ni21  1  0.66449188  0.32999995  0.99371113  1
  Cr  Cr22  1  0.82655455  0.49866098  0.16152942  1
  Cr  Cr23  1  0.66089405  0.32801837  0.33514047  1
  Fe  Fe24  1  0.66496047  0.66359305  0.99453392  1
  Ni  Ni25  1  0.82548059  0.82900675  0.16207016  1
  Fe  Fe26  1  0.65958208  0.66469222  0.33092671  1
  Cr  Cr27  1  0.16146483  0.16025622  0.49464390  1
  Ni  Ni28  1  -0.00377190  0.99195543  0.66352934  1
  Ni  Ni29  1  0.16003010  0.16156538  0.82869818  1
  Cr  Cr30  1  0.16407330  0.49900072  0.49536160  1
  Cr  Cr31  1  0.99464185  0.32832176  0.66390012  1
  Ni  Ni32  1  0.16038625  0.49812603  0.82659111  1
  Ni  Ni33  1  0.16589629  0.82890964  0.49709298  1
  Fe  Fe34  1  -0.00310605  0.66460965  0.66451591  1
  Ni  Ni35  1  0.15937235  0.82762553  0.82444096  1
  Ni  Ni36  1  0.49471837  0.16085689  0.49239434  1
  Cr  Cr37  1  0.32878995  0.99283246  0.66280497  1
  Cr  Cr38  1  0.49611965  0.16207601  0.83268517  1
  Ni  Ni39  1  0.49292819  0.49856669  0.49394846  1
  Cr  Cr40  1  0.33062341  0.33052545  0.66293546  1
  Cr  Cr41  1  0.49671067  0.49647317  0.83053163  1
  Ni  Ni42  1  0.49327069  0.82802488  0.49245876  1
  Ni  Ni43  1  0.32655763  0.66378179  0.66138101  1
  Cr  Cr44  1  0.49643213  0.82875442  0.83171521  1
  Ni  Ni45  1  0.82754343  0.15934881  0.49589703  1
  Cr  Cr46  1  0.66228776  0.99508722  0.65896214  1
  Cr  Cr47  1  0.82894014  0.16148860  0.82870620  1
  Cr  Cr48  1  0.83026017  0.49623050  0.49645001  1
  Cr  Cr49  1  0.66138606  0.32918494  0.65828502  1
  Ni  Ni50  1  0.83109752  0.49873899  0.83000194  1
  Cr  Cr51  1  0.83215842  0.82997394  0.49526870  1
  Cr  Cr52  1  0.65994857  0.66293922  0.66158996  1
  Ni  Ni53  1  0.83166918  0.82732788  0.82952145  1
" 