1347,Ni40Fe51Cr7_18,-235.351834649852, 204.257139439645,Ni40Fe51Cr7,"# generated using pymatgen
 data_Cr2Fe9Ni7
_symmetry_space_group_name_H-M   'P 1'
_cell_length_a   7.42522473
_cell_length_b   7.42522473
_cell_length_c   10.50085351
_cell_angle_alpha   90.00000000
_cell_angle_beta   90.00000000
_cell_angle_gamma   90.00000000
_symmetry_Int_Tables_number   1
_chemical_formula_structural   Cr2Fe9Ni7
_chemical_formula_sum   'Cr6 Fe27 Ni21'
_cell_volume   578.95366088
_cell_formula_units_Z   3
loop_
 _symmetry_equiv_pos_site_id
 _symmetry_equiv_pos_as_xyz
  1  'x, y, z'
loop_
 _atom_site_type_symbol
 _atom_site_label
 _atom_site_symmetry_multiplicity
 _atom_site_fract_x
 _atom_site_fract_y
 _atom_site_fract_z
 _atom_site_occupancy
  Cr  Cr0  1  0.00429643  0.00341180  1.00237472  1
  Ni  Ni1  1  0.17100411  0.17021205  0.17076089  1
  Ni  Ni2  1  0.00298081  0.00303922  0.33660833  1
  Fe  Fe3  1  0.00299957  0.33794786  1.00228215  1
  Fe  Fe4  1  0.16982296  0.50220724  0.16950638  1
  Fe  Fe5  1  0.00438449  0.33590767  0.33602090  1
  Ni  Ni6  1  0.00424908  0.66773184  1.00099261  1
  Fe  Fe7  1  0.17146162  0.83643919  0.17068636  1
  Ni  Ni8  1  0.00357606  0.67011363  0.33738422  1
  Fe  Fe9  1  0.33633885  0.00365094  0.00327705  1
  Ni  Ni10  1  0.50146238  0.17020669  0.17019447  1
  Ni  Ni11  1  0.33569999  0.00331791  0.33488025  1
  Ni  Ni12  1  0.33742000  0.33625061  0.00290169  1
  Fe  Fe13  1  0.50244307  0.50134752  0.16911684  1
  Ni  Ni14  1  0.33779623  0.33607987  0.33666360  1
  Ni  Ni15  1  0.33475264  0.66884611  0.00371018  1
  Fe  Fe16  1  0.50008898  0.83658824  0.17042507  1
  Ni  Ni17  1  0.33588955  0.66905063  0.33625884  1
  Cr  Cr18  1  0.66858828  0.00624494  1.00067466  1
  Ni  Ni19  1  0.83598499  0.17155842  0.17147743  1
  Fe  Fe20  1  0.66828731  0.00340170  0.33629686  1
  Ni  Ni21  1  0.66917323  0.33600486  0.00379175  1
  Fe  Fe22  1  0.83618777  0.50035096  0.16873542  1
  Fe  Fe23  1  0.66909827  0.33569798  0.33546119  1
  Fe  Fe24  1  0.66943686  0.66717448  1.00244649  1
  Cr  Cr25  1  0.83643076  0.83486431  0.17123674  1
  Fe  Fe26  1  0.66832455  0.66934994  0.33715103  1
  Fe  Fe27  1  0.16948664  0.16945205  0.50231833  1
  Ni  Ni28  1  1.00258473  1.00250040  0.66968290  1
  Ni  Ni29  1  0.17028834  0.17017667  0.83490274  1
  Ni  Ni30  1  0.16996269  0.50369034  0.50343510  1
  Fe  Fe31  1  0.00465980  0.33701862  0.67015079  1
  Ni  Ni32  1  0.16763616  0.50346148  0.83575917  1
  Fe  Fe33  1  0.16917083  0.83538560  0.50257643  1
  Ni  Ni34  1  0.00503523  0.67072977  0.67007232  1
  Fe  Fe35  1  0.16960409  0.83504072  0.83518341  1
  Fe  Fe36  1  0.50133784  0.16937681  0.50170317  1
  Fe  Fe37  1  0.33579447  1.00230363  0.66955213  1
  Ni  Ni38  1  0.50158138  0.16726389  0.83598460  1
  Fe  Fe39  1  0.50032333  0.50304005  0.50131032  1
  Fe  Fe40  1  0.33281088  0.33603987  0.66911982  1
  Cr  Cr41  1  0.50093549  0.50290824  0.83761487  1
  Fe  Fe42  1  0.50107698  0.83603000  0.50196171  1
  Ni  Ni43  1  0.33325571  0.66969427  0.66847876  1
  Fe  Fe44  1  0.50099642  0.83755955  0.83605692  1
  Fe  Fe45  1  0.83762498  0.16869349  0.50217592  1
  Fe  Fe46  1  0.66988703  1.00224371  0.67010434  1
  Ni  Ni47  1  0.83657861  0.16939144  0.83535649  1
  Fe  Fe48  1  0.83827408  0.50335560  0.50187227  1
  Cr  Cr49  1  0.66926342  0.33406635  0.66978031  1
  Ni  Ni50  1  0.83957610  0.50389903  0.83822491  1
  Fe  Fe51  1  0.83819913  0.83639986  0.50195808  1
  Cr  Cr52  1  0.67010782  0.66980252  0.67016723  1
  Fe  Fe53  1  0.83784761  0.83555803  0.83525947  1
" 