2749,Ni40Fe17Cr42_15,-222.251723746703, 162.623991904318,Ni40Fe17Cr42,"# generated using pymatgen
 data_Cr8Fe3Ni7
_symmetry_space_group_name_H-M   'P 1'
_cell_length_a   7.49820768
_cell_length_b   7.49820768
_cell_length_c   10.60406699
_cell_angle_alpha   90.00000000
_cell_angle_beta   90.00000000
_cell_angle_gamma   90.00000000
_symmetry_Int_Tables_number   1
_chemical_formula_structural   Cr8Fe3Ni7
_chemical_formula_sum   'Cr24 Fe9 Ni21'
_cell_volume   596.19371401
_cell_formula_units_Z   3
loop_
 _symmetry_equiv_pos_site_id
 _symmetry_equiv_pos_as_xyz
  1  'x, y, z'
loop_
 _atom_site_type_symbol
 _atom_site_label
 _atom_site_symmetry_multiplicity
 _atom_site_fract_x
 _atom_site_fract_y
 _atom_site_fract_z
 _atom_site_occupancy
  Fe  Fe0  1  -0.00024670  -0.00181044  -0.00193175  1
  Ni  Ni1  1  0.16475541  0.16198269  0.16266201  1
  Cr  Cr2  1  -0.00193999  -0.00090042  0.33071331  1
  Fe  Fe3  1  -0.00005833  0.32989301  0.00022788  1
  Ni  Ni4  1  0.15932185  0.49792820  0.16513775  1
  Cr  Cr5  1  -0.00073798  0.32986662  0.33014336  1
  Cr  Cr6  1  0.00022711  0.66621028  -0.00204381  1
  Ni  Ni7  1  0.16696646  0.83355981  0.16522548  1
  Ni  Ni8  1  -0.00183718  0.66390943  0.32871739  1
  Ni  Ni9  1  0.32891799  -0.00109106  -0.00081232  1
  Ni  Ni10  1  0.49656375  0.15802741  0.16444511  1
  Ni  Ni11  1  0.33048035  0.00053235  0.32999580  1
  Cr  Cr12  1  0.32890226  0.33136859  -0.00074284  1
  Cr  Cr13  1  0.49946781  0.50006648  0.16508205  1
  Cr  Cr14  1  0.33072445  0.32856287  0.33105331  1
  Cr  Cr15  1  0.32788210  0.66475327  0.99686921  1
  Ni  Ni16  1  0.49700068  0.83578312  0.16455886  1
  Cr  Cr17  1  0.32845397  0.66328602  0.32822596  1
  Ni  Ni18  1  0.66613904  -0.00179290  0.00070931  1
  Ni  Ni19  1  0.83260512  0.16525498  0.16138921  1
  Cr  Cr20  1  0.66494560  0.00077308  0.32956820  1
  Cr  Cr21  1  0.66416718  0.32877397  0.00138638  1
  Ni  Ni22  1  0.83422781  0.49826936  0.16628374  1
  Cr  Cr23  1  0.66387247  0.32839728  0.33029410  1
  Cr  Cr24  1  0.66553423  0.66694434  0.99727768  1
  Fe  Fe25  1  0.83205073  0.83141465  0.16441331  1
  Ni  Ni26  1  0.66643839  0.66493060  0.32904149  1
  Ni  Ni27  1  0.16693201  0.16712476  0.50055619  1
  Cr  Cr28  1  -0.00082977  -0.00093433  0.66548462  1
  Ni  Ni29  1  0.16531451  0.16535777  0.83107331  1
  Ni  Ni30  1  0.16462904  0.49472296  0.49818816  1
  Fe  Fe31  1  -0.00054203  0.33135340  0.66358280  1
  Ni  Ni32  1  0.16324484  0.49435897  0.83040477  1
  Cr  Cr33  1  0.16731132  0.83206493  0.49537887  1
  Cr  Cr34  1  -0.00011906  0.66685079  0.66603250  1
  Ni  Ni35  1  0.16525077  0.83412795  0.83216475  1
  Fe  Fe36  1  0.49567952  0.16586076  0.49881509  1
  Fe  Fe37  1  0.33061551  -0.00026782  0.66484764  1
  Cr  Cr38  1  0.49621419  0.16373571  0.83191577  1
  Fe  Fe39  1  0.49758652  0.49701524  0.49887955  1
  Fe  Fe40  1  0.32992951  0.33054391  0.66425732  1
  Fe  Fe41  1  0.49706065  0.49572946  0.82984056  1
  Cr  Cr42  1  0.49687939  0.83100292  0.49632951  1
  Cr  Cr43  1  0.32958731  0.66116528  0.66809818  1
  Cr  Cr44  1  0.49791714  0.83314248  0.83231781  1
  Ni  Ni45  1  0.83178388  0.16877748  0.50041267  1
  Cr  Cr46  1  0.66774525  -0.00075902  0.66331247  1
  Cr  Cr47  1  0.83342046  0.16621926  0.83318497  1
  Cr  Cr48  1  0.83177624  0.49791752  0.49720631  1
  Ni  Ni49  1  0.66075847  0.33174829  0.66258019  1
  Cr  Cr50  1  0.83123563  0.49579209  0.82996306  1
  Cr  Cr51  1  0.82976039  0.82808147  0.49639238  1
  Ni  Ni52  1  0.66277250  0.66090799  0.66635419  1
  Ni  Ni53  1  0.83105815  0.83126312  0.83233311  1
" 