5478,Ni40Fe51Cr7_15,-235.580491429268, 210.609071786772,Ni40Fe51Cr7,"# generated using pymatgen
 data_Cr2Fe9Ni7
_symmetry_space_group_name_H-M   'P 1'
_cell_length_a   7.41917888
_cell_length_b   7.41917888
_cell_length_c   10.49230340
_cell_angle_alpha   90.00000000
_cell_angle_beta   90.00000000
_cell_angle_gamma   90.00000000
_symmetry_Int_Tables_number   1
_chemical_formula_structural   Cr2Fe9Ni7
_chemical_formula_sum   'Cr6 Fe27 Ni21'
_cell_volume   577.54060693
_cell_formula_units_Z   3
loop_
 _symmetry_equiv_pos_site_id
 _symmetry_equiv_pos_as_xyz
  1  'x, y, z'
loop_
 _atom_site_type_symbol
 _atom_site_label
 _atom_site_symmetry_multiplicity
 _atom_site_fract_x
 _atom_site_fract_y
 _atom_site_fract_z
 _atom_site_occupancy
  Fe  Fe0  1  1.00204958  1.00304261  1.00306371  1
  Fe  Fe1  1  0.16792428  0.17199082  0.16890288  1
  Fe  Fe2  1  1.00022885  0.00481916  0.33715486  1
  Fe  Fe3  1  1.00299470  0.33763187  0.00401178  1
  Fe  Fe4  1  0.17019556  0.50106429  0.16977954  1
  Fe  Fe5  1  1.00305744  0.33586616  0.33642710  1
  Fe  Fe6  1  1.00320079  0.66900284  1.00144956  1
  Cr  Cr7  1  0.16906886  0.83552702  0.16912362  1
  Fe  Fe8  1  1.00231097  0.66899190  0.33809095  1
  Ni  Ni9  1  0.33645674  1.00251783  1.00164511  1
  Cr  Cr10  1  0.50453017  0.17165740  0.16862278  1
  Cr  Cr11  1  0.33678412  0.00360257  0.33899945  1
  Ni  Ni12  1  0.33592527  0.33668126  0.00410966  1
  Fe  Fe13  1  0.50356984  0.50395836  0.16970060  1
  Ni  Ni14  1  0.33611403  0.33847871  0.33735352  1
  Ni  Ni15  1  0.33634223  0.67047611  0.00334537  1
  Fe  Fe16  1  0.50560287  0.83490140  0.16921390  1
  Fe  Fe17  1  0.33824646  0.66715073  0.33776939  1
  Fe  Fe18  1  0.66954895  1.00276233  1.00280424  1
  Ni  Ni19  1  0.83696183  0.16972535  0.16982297  1
  Ni  Ni20  1  0.67260586  1.00284927  0.33735469  1
  Ni  Ni21  1  0.67172149  0.33682131  1.00316029  1
  Fe  Fe22  1  0.83591647  0.50255067  0.16961176  1
  Ni  Ni23  1  0.67084161  0.33717234  0.33740467  1
  Ni  Ni24  1  0.67100222  0.67003387  0.00434548  1
  Fe  Fe25  1  0.83474849  0.83716734  0.17003142  1
  Fe  Fe26  1  0.66912025  0.66997905  0.33665439  1
  Fe  Fe27  1  0.17115880  0.17121133  0.50324325  1
  Cr  Cr28  1  0.00369054  1.00151270  0.66843533  1
  Cr  Cr29  1  0.17227096  0.17066350  0.83846520  1
  Ni  Ni30  1  0.17055683  0.50330049  0.50323304  1
  Fe  Fe31  1  0.00386982  0.33946739  0.66924645  1
  Ni  Ni32  1  0.16868870  0.50551293  0.83727075  1
  Fe  Fe33  1  0.17093339  0.83460571  0.50411600  1
  Ni  Ni34  1  0.00361852  0.66847093  0.67075482  1
  Ni  Ni35  1  0.16899608  0.83375214  0.83664826  1
  Ni  Ni36  1  0.50401663  0.17098852  0.50432352  1
  Ni  Ni37  1  0.33853141  1.00206858  0.66933534  1
  Ni  Ni38  1  0.50470227  0.16911137  0.83655973  1
  Ni  Ni39  1  0.50192948  0.50222413  0.50197826  1
  Fe  Fe40  1  0.33606170  0.33700086  0.66821026  1
  Cr  Cr41  1  0.50181738  0.50190573  0.83652996  1
  Ni  Ni42  1  0.50471237  0.83646291  0.50394310  1
  Ni  Ni43  1  0.33492016  0.67116041  0.66903501  1
  Fe  Fe44  1  0.50194012  0.83793576  0.83648045  1
  Fe  Fe45  1  0.83464239  0.17060648  0.50153205  1
  Fe  Fe46  1  0.66801858  1.00219364  0.66917577  1
  Fe  Fe47  1  0.83464539  0.17063631  0.83793144  1
  Fe  Fe48  1  0.83571279  0.50364593  0.50327781  1
  Fe  Fe49  1  0.66974729  0.33580573  0.66909671  1
  Fe  Fe50  1  0.83828046  0.50361648  0.83679541  1
  Ni  Ni51  1  0.83616414  0.83644797  0.50096605  1
  Fe  Fe52  1  0.67047905  0.67167540  0.66917803  1
  Ni  Ni53  1  0.83702949  0.83579875  0.83848899  1
" 