8587,Ni40Fe17Cr42_12,-222.736360843775, 163.4326768555,Ni40Fe17Cr42,"# generated using pymatgen
 data_Cr8Fe3Ni7
_symmetry_space_group_name_H-M   'P 1'
_cell_length_a   7.49988495
_cell_length_b   7.49988495
_cell_length_c   10.60643901
_cell_angle_alpha   90.00000000
_cell_angle_beta   90.00000000
_cell_angle_gamma   90.00000000
_symmetry_Int_Tables_number   1
_chemical_formula_structural   Cr8Fe3Ni7
_chemical_formula_sum   'Cr24 Fe9 Ni21'
_cell_volume   596.59389020
_cell_formula_units_Z   3
loop_
 _symmetry_equiv_pos_site_id
 _symmetry_equiv_pos_as_xyz
  1  'x, y, z'
loop_
 _atom_site_type_symbol
 _atom_site_label
 _atom_site_symmetry_multiplicity
 _atom_site_fract_x
 _atom_site_fract_y
 _atom_site_fract_z
 _atom_site_occupancy
  Fe  Fe0  1  0.99707589  -0.00151346  -0.00044411  1
  Ni  Ni1  1  0.15877581  0.16460954  0.16577638  1
  Ni  Ni2  1  -0.00208815  0.00007477  0.32695156  1
  Fe  Fe3  1  0.99536220  0.33147826  0.99693491  1
  Fe  Fe4  1  0.16233725  0.49854383  0.16328219  1
  Fe  Fe5  1  -0.00060292  0.32850791  0.32872988  1
  Ni  Ni6  1  -0.00136201  0.66247085  -0.00190296  1
  Ni  Ni7  1  0.16086384  0.83061608  0.16279746  1
  Cr  Cr8  1  -0.00207451  0.66216402  0.32933398  1
  Cr  Cr9  1  0.32564660  0.99727149  0.99557589  1
  Cr  Cr10  1  0.49838376  0.16748610  0.16467107  1
  Cr  Cr11  1  0.32828398  -0.00120931  0.33014928  1
  Cr  Cr12  1  0.32838880  0.33126802  0.00107998  1
  Ni  Ni13  1  0.49834552  0.49953796  0.16499083  1
  Fe  Fe14  1  0.32826447  0.33271724  0.32848934  1
  Fe  Fe15  1  0.33012931  0.66267607  -0.00108041  1
  Cr  Cr16  1  0.49816913  0.82833852  0.16313244  1
  Ni  Ni17  1  0.33053002  0.65995710  0.32702995  1
  Cr  Cr18  1  0.66719095  0.00103078  -0.00177029  1
  Ni  Ni19  1  0.83589541  0.16537943  0.16347643  1
  Ni  Ni20  1  0.66854761  -0.00044456  0.32844971  1
  Ni  Ni21  1  0.66882740  0.33476667  -0.00153033  1
  Ni  Ni22  1  0.83097376  0.49785732  0.16113354  1
  Cr  Cr23  1  0.66591799  0.33355164  0.32801101  1
  Ni  Ni24  1  0.66927806  0.66025085  0.00066739  1
  Ni  Ni25  1  0.83446154  0.83044976  0.16552266  1
  Fe  Fe26  1  0.66384359  0.66434097  0.32768006  1
  Ni  Ni27  1  0.16369769  0.16783636  0.49741792  1
  Cr  Cr28  1  0.00019815  -0.00073175  0.66595590  1
  Ni  Ni29  1  0.16066531  0.16612430  0.83050459  1
  Cr  Cr30  1  0.16668330  0.49327308  0.49760737  1
  Ni  Ni31  1  -0.00176041  0.33042873  0.66805054  1
  Ni  Ni32  1  0.16185482  0.49727681  0.83341485  1
  Cr  Cr33  1  0.16263617  0.83251680  0.49590677  1
  Cr  Cr34  1  -0.00103571  0.66044856  0.66660000  1
  Ni  Ni35  1  0.16367125  0.82982635  0.83542797  1
  Cr  Cr36  1  0.49587697  0.16885750  0.49841968  1
  Cr  Cr37  1  0.32925954  -0.00151596  0.66799216  1
  Cr  Cr38  1  0.49928589  0.16768896  0.83074868  1
  Ni  Ni39  1  0.49588381  0.49641759  0.49592942  1
  Fe  Fe40  1  0.32856213  0.33211505  0.66587903  1
  Cr  Cr41  1  0.49928070  0.49755733  0.83319667  1
  Cr  Cr42  1  0.49882323  0.82857985  0.49471999  1
  Cr  Cr43  1  0.32932065  0.66473783  0.66759486  1
  Fe  Fe44  1  0.49763952  0.82867039  0.83464685  1
  Cr  Cr45  1  0.83472363  0.16449669  0.49774500  1
  Cr  Cr46  1  0.66409272  -0.00012448  0.66600891  1
  Ni  Ni47  1  0.83424203  0.16933571  0.83230550  1
  Cr  Cr48  1  0.83051121  0.49601499  0.50000849  1
  Ni  Ni49  1  0.66669013  0.33249156  0.66639372  1
  Ni  Ni50  1  0.83273786  0.49467290  0.83271077  1
  Cr  Cr51  1  0.83132994  0.83246045  0.49287070  1
  Cr  Cr52  1  0.66489240  0.66106958  0.66323250  1
  Cr  Cr53  1  0.83265554  0.82908077  0.83335707  1
" 