1086,Ni40Fe51Cr7_1,-235.30921434028, 205.249277854977,Ni40Fe51Cr7,"# generated using pymatgen
 data_Cr2Fe9Ni7
_symmetry_space_group_name_H-M   'P 1'
_cell_length_a   7.41940925
_cell_length_b   7.41940925
_cell_length_c   10.49262919
_cell_angle_alpha   90.00000000
_cell_angle_beta   90.00000000
_cell_angle_gamma   90.00000000
_symmetry_Int_Tables_number   1
_chemical_formula_structural   Cr2Fe9Ni7
_chemical_formula_sum   'Cr6 Fe27 Ni21'
_cell_volume   577.59440810
_cell_formula_units_Z   3
loop_
 _symmetry_equiv_pos_site_id
 _symmetry_equiv_pos_as_xyz
  1  'x, y, z'
loop_
 _atom_site_type_symbol
 _atom_site_label
 _atom_site_symmetry_multiplicity
 _atom_site_fract_x
 _atom_site_fract_y
 _atom_site_fract_z
 _atom_site_occupancy
  Ni  Ni0  1  1.00212434  0.00343699  1.00225521  1
  Fe  Fe1  1  0.17019147  0.16995442  0.17169685  1
  Ni  Ni2  1  0.00388081  1.00316772  0.33587536  1
  Cr  Cr3  1  0.00367055  0.33465724  0.00349156  1
  Ni  Ni4  1  0.17379292  0.50351382  0.17104265  1
  Ni  Ni5  1  0.00346237  0.33555940  0.33658115  1
  Cr  Cr6  1  0.00615020  0.67241753  1.00293307  1
  Ni  Ni7  1  0.16905667  0.83591832  0.17135054  1
  Fe  Fe8  1  0.00676480  0.66872289  0.33694373  1
  Cr  Cr9  1  0.33269593  1.00221691  1.00282369  1
  Fe  Fe10  1  0.50044233  0.17149309  0.17050439  1
  Ni  Ni11  1  0.33432872  1.00273700  0.33879891  1
  Ni  Ni12  1  0.33839204  0.33762243  1.00220438  1
  Ni  Ni13  1  0.50010315  0.50179043  0.16971862  1
  Ni  Ni14  1  0.33518332  0.33681564  0.33782216  1
  Ni  Ni15  1  0.33696179  0.66857357  1.00150869  1
  Cr  Cr16  1  0.50122875  0.83638880  0.17163922  1
  Ni  Ni17  1  0.33674534  0.66995784  0.33631920  1
  Fe  Fe18  1  0.67142264  0.00545336  1.00205521  1
  Ni  Ni19  1  0.83573130  0.16767586  0.16846227  1
  Fe  Fe20  1  0.67025496  0.00422598  0.33800849  1
  Fe  Fe21  1  0.66775665  0.33457368  1.00272695  1
  Fe  Fe22  1  0.83800258  0.50388041  0.17102114  1
  Cr  Cr23  1  0.67040942  0.33849656  0.33610870  1
  Cr  Cr24  1  0.66913484  0.66869636  1.00235649  1
  Fe  Fe25  1  0.83846888  0.83810997  0.17112101  1
  Fe  Fe26  1  0.67054018  0.67058453  0.33740539  1
  Fe  Fe27  1  0.16880945  0.17037520  0.50334509  1
  Fe  Fe28  1  0.00423094  1.00264129  0.67020311  1
  Ni  Ni29  1  0.17050799  0.16996763  0.83430318  1
  Ni  Ni30  1  0.17051406  0.50352873  0.50431537  1
  Ni  Ni31  1  1.00147156  0.33500078  0.66950397  1
  Fe  Fe32  1  0.16998023  0.50301497  0.83435177  1
  Ni  Ni33  1  0.17025058  0.83555799  0.50349494  1
  Fe  Fe34  1  0.00406413  0.66877599  0.67064347  1
  Ni  Ni35  1  0.16956289  0.83777510  0.83497946  1
  Fe  Fe36  1  0.50067757  0.16983171  0.50434039  1
  Fe  Fe37  1  0.33570523  0.00423964  0.66924681  1
  Fe  Fe38  1  0.50406149  0.17056810  0.83499448  1
  Fe  Fe39  1  0.50009729  0.50516962  0.50401692  1
  Fe  Fe40  1  0.33609601  0.33767633  0.66968799  1
  Fe  Fe41  1  0.50095352  0.50241589  0.83552411  1
  Fe  Fe42  1  0.50087684  0.83502578  0.50292829  1
  Ni  Ni43  1  0.33722510  0.67269817  0.67184903  1
  Fe  Fe44  1  0.50282634  0.83659357  0.83440121  1
  Fe  Fe45  1  0.83985092  0.16937193  0.50309762  1
  Fe  Fe46  1  0.66981263  0.00368478  0.66941321  1
  Fe  Fe47  1  0.83786738  0.16820486  0.83544952  1
  Fe  Fe48  1  0.83953278  0.50384562  0.50562768  1
  Ni  Ni49  1  0.67129523  0.33602288  0.67072206  1
  Ni  Ni50  1  0.83425242  0.50200880  0.83449746  1
  Fe  Fe51  1  0.83870548  0.83618496  0.50371544  1
  Fe  Fe52  1  0.67048139  0.66856882  0.67066758  1
  Ni  Ni53  1  0.83675448  0.83797104  0.83526575  1
" 