1339,Ni40Fe49Cr9_4,-235.863632883838, 213.110769959616,Ni40Fe49Cr9,"# generated using pymatgen
 data_Cr3Fe13Ni11
_symmetry_space_group_name_H-M   'P 1'
_cell_length_a   7.42226957
_cell_length_b   7.42226957
_cell_length_c   10.49667429
_cell_angle_alpha   90.00000000
_cell_angle_beta   90.00000000
_cell_angle_gamma   90.00000000
_symmetry_Int_Tables_number   1
_chemical_formula_structural   Cr3Fe13Ni11
_chemical_formula_sum   'Cr6 Fe26 Ni22'
_cell_volume   578.26268440
_cell_formula_units_Z   2
loop_
 _symmetry_equiv_pos_site_id
 _symmetry_equiv_pos_as_xyz
  1  'x, y, z'
loop_
 _atom_site_type_symbol
 _atom_site_label
 _atom_site_symmetry_multiplicity
 _atom_site_fract_x
 _atom_site_fract_y
 _atom_site_fract_z
 _atom_site_occupancy
  Ni  Ni0  1  1.00153513  1.00160622  0.00379726  1
  Fe  Fe1  1  0.16961011  0.16767875  0.17059089  1
  Ni  Ni2  1  1.00270252  0.00336343  0.33597097  1
  Cr  Cr3  1  0.00315757  0.33509345  0.00420572  1
  Fe  Fe4  1  0.17127132  0.50361138  0.16957083  1
  Fe  Fe5  1  0.00357045  0.33554185  0.33585799  1
  Fe  Fe6  1  0.00302425  0.67052251  0.00450902  1
  Ni  Ni7  1  0.17144300  0.83652653  0.16939785  1
  Cr  Cr8  1  0.00366991  0.67082009  0.33606588  1
  Fe  Fe9  1  0.33716177  0.00466844  0.00383146  1
  Ni  Ni10  1  0.50379991  0.16875731  0.16969415  1
  Fe  Fe11  1  0.33580180  0.00333674  0.33600492  1
  Ni  Ni12  1  0.33870223  0.33715483  1.00200095  1
  Fe  Fe13  1  0.50372513  0.50332971  0.16927742  1
  Fe  Fe14  1  0.33604281  0.33552881  0.33642858  1
  Fe  Fe15  1  0.33662647  0.66847916  0.00390127  1
  Ni  Ni16  1  0.50168500  0.83706879  0.16901394  1
  Ni  Ni17  1  0.33660368  0.66850835  0.33556221  1
  Fe  Fe18  1  0.67004816  0.00432593  0.00405389  1
  Ni  Ni19  1  0.83482707  0.16997248  0.17043106  1
  Ni  Ni20  1  0.67026270  0.00424226  0.33452960  1
  Ni  Ni21  1  0.66695003  0.33543686  0.00453459  1
  Ni  Ni22  1  0.83536875  0.50220154  0.16958488  1
  Fe  Fe23  1  0.66943490  0.33656971  0.33547121  1
  Fe  Fe24  1  0.66940463  0.67000567  0.00441334  1
  Ni  Ni25  1  0.83592166  0.83687834  0.16823074  1
  Fe  Fe26  1  0.66951373  0.67001568  0.33514076  1
  Ni  Ni27  1  0.17141189  0.16998507  0.50352552  1
  Fe  Fe28  1  0.00344508  1.00293833  0.66986304  1
  Fe  Fe29  1  0.16988893  0.17067673  0.83544297  1
  Ni  Ni30  1  0.16929818  0.50288626  0.50471425  1
  Fe  Fe31  1  0.00515368  0.33722413  0.66957895  1
  Ni  Ni32  1  0.17173679  0.50327599  0.83562859  1
  Fe  Fe33  1  0.16901675  0.83702386  0.50380116  1
  Ni  Ni34  1  0.00369954  0.66978308  0.66803412  1
  Cr  Cr35  1  0.17094361  0.83503136  0.83609116  1
  Ni  Ni36  1  0.50134845  0.16973978  0.50350284  1
  Ni  Ni37  1  0.33631666  0.00420827  0.66896402  1
  Fe  Fe38  1  0.50309297  0.17071311  0.83626369  1
  Fe  Fe39  1  0.50253886  0.50068477  0.50330030  1
  Fe  Fe40  1  0.33581060  0.33674658  0.66971175  1
  Fe  Fe41  1  0.50142024  0.50229500  0.83646959  1
  Cr  Cr42  1  0.50182441  0.83729551  0.50246993  1
  Ni  Ni43  1  0.33497603  0.66835577  0.66980417  1
  Fe  Fe44  1  0.50411178  0.83604061  0.83598831  1
  Cr  Cr45  1  0.83600476  0.17087192  0.50244574  1
  Fe  Fe46  1  0.66906781  1.00286319  0.67075351  1
  Ni  Ni47  1  0.83447543  0.16848619  0.83570279  1
  Ni  Ni48  1  0.83688808  0.50335005  0.50420908  1
  Ni  Ni49  1  0.66821358  0.33587352  0.66951643  1
  Cr  Cr50  1  0.83700531  0.50198042  0.83567658  1
  Fe  Fe51  1  0.83781955  0.83585978  0.50315032  1
  Fe  Fe52  1  0.66954958  0.66960657  0.66948582  1
  Fe  Fe53  1  0.83596590  0.83784845  0.83672312  1
" 