1616,Ni40Cr60_12,-223.885880214749, 139.996715082396,Ni40Cr60,"# generated using pymatgen
 data_Cr7Ni11
_symmetry_space_group_name_H-M   'P 1'
_cell_length_a   7.50037182
_cell_length_b   7.50037182
_cell_length_c   10.60712756
_cell_angle_alpha   90.00000000
_cell_angle_beta   90.00000000
_cell_angle_gamma   90.00000000
_symmetry_Int_Tables_number   1
_chemical_formula_structural   Cr7Ni11
_chemical_formula_sum   'Cr21 Ni33'
_cell_volume   596.71008637
_cell_formula_units_Z   3
loop_
 _symmetry_equiv_pos_site_id
 _symmetry_equiv_pos_as_xyz
  1  'x, y, z'
loop_
 _atom_site_type_symbol
 _atom_site_label
 _atom_site_symmetry_multiplicity
 _atom_site_fract_x
 _atom_site_fract_y
 _atom_site_fract_z
 _atom_site_occupancy
  Cr  Cr0  1  0.99238286  -0.00124464  0.99726070  1
  Cr  Cr1  1  0.16464248  0.16644344  0.16376320  1
  Ni  Ni2  1  0.99429931  -0.00061174  0.33041954  1
  Ni  Ni3  1  0.99426357  0.33543358  0.99746030  1
  Ni  Ni4  1  0.16429737  0.49734341  0.16231933  1
  Cr  Cr5  1  -0.00207258  0.33159357  0.32997254  1
  Ni  Ni6  1  0.99744832  0.66053282  0.99772083  1
  Cr  Cr7  1  0.16511509  0.83130288  0.16221713  1
  Cr  Cr8  1  -0.00174829  0.66347784  0.32898433  1
  Ni  Ni9  1  0.33667039  -0.00209883  -0.00140886  1
  Ni  Ni10  1  0.50096650  0.16636094  0.16352733  1
  Cr  Cr11  1  0.33350859  0.00041407  0.33080165  1
  Cr  Cr12  1  0.33335532  0.33419548  -0.00213439  1
  Ni  Ni13  1  0.49895969  0.49484219  0.16485733  1
  Ni  Ni14  1  0.33488905  0.33314690  0.33144559  1
  Ni  Ni15  1  0.33062866  0.66197174  -0.00098971  1
  Ni  Ni16  1  0.49905460  0.83186682  0.16132090  1
  Cr  Cr17  1  0.33210030  0.65833678  0.32973481  1
  Ni  Ni18  1  0.66378910  0.00038665  -0.00129034  1
  Ni  Ni19  1  0.82790002  0.16661806  0.16398601  1
  Cr  Cr20  1  0.66569017  0.00038746  0.32970052  1
  Ni  Ni21  1  0.66562522  0.32955071  -0.00213188  1
  Ni  Ni22  1  0.83005359  0.49500312  0.16251569  1
  Ni  Ni23  1  0.66139841  0.32992278  0.33012689  1
  Cr  Cr24  1  0.66495798  0.66271767  -0.00132374  1
  Ni  Ni25  1  0.83006465  0.83173091  0.16343853  1
  Cr  Cr26  1  0.66261660  0.66155418  0.32844150  1
  Cr  Cr27  1  0.16503910  0.16711703  0.49799896  1
  Cr  Cr28  1  0.99530064  0.00020588  0.66449671  1
  Cr  Cr29  1  0.16639847  0.16766771  0.83106304  1
  Ni  Ni30  1  0.16673869  0.49606947  0.50069093  1
  Ni  Ni31  1  0.99728897  0.33403562  0.66578513  1
  Ni  Ni32  1  0.16338956  0.49845425  0.83026067  1
  Cr  Cr33  1  0.16455335  0.82955767  0.49964804  1
  Ni  Ni34  1  -0.00175086  0.66040935  0.66666447  1
  Cr  Cr35  1  0.16613961  0.82837861  0.83124346  1
  Ni  Ni36  1  0.49892539  0.17003041  0.49889654  1
  Ni  Ni37  1  0.33346375  0.00071766  0.66463373  1
  Ni  Ni38  1  0.50010205  0.16695835  0.83122421  1
  Ni  Ni39  1  0.49684194  0.49298970  0.49934859  1
  Ni  Ni40  1  0.33275633  0.33350103  0.66380939  1
  Ni  Ni41  1  0.49873334  0.49572637  0.82884987  1
  Cr  Cr42  1  0.49776252  0.82826773  0.50109112  1
  Ni  Ni43  1  0.33101825  0.65917959  0.66450470  1
  Cr  Cr44  1  0.49720933  0.83050232  0.83150018  1
  Ni  Ni45  1  0.82864577  0.16794234  0.49734115  1
  Cr  Cr46  1  0.66463673  0.00129048  0.66634746  1
  Ni  Ni47  1  0.82806194  0.16910587  0.83206659  1
  Cr  Cr48  1  0.82784787  0.49515776  0.50037655  1
  Ni  Ni49  1  0.66311342  0.33172962  0.66525799  1
  Ni  Ni50  1  0.83103831  0.49608688  0.83043934  1
  Cr  Cr51  1  0.83113193  0.82930285  0.49844081  1
  Ni  Ni52  1  0.66404565  0.66034422  0.66629524  1
  Ni  Ni53  1  0.83074975  0.82813118  0.83102819  1
" 