1096,Ni40Fe57Cr2_13,-238.261907546327, 217.035281284164,Ni40Fe57Cr2,"# generated using pymatgen
 data_CrFe15Ni11
_symmetry_space_group_name_H-M   'P 1'
_cell_length_a   7.40481156
_cell_length_b   7.40481156
_cell_length_c   10.47198493
_cell_angle_alpha   90.00000000
_cell_angle_beta   90.00000000
_cell_angle_gamma   90.00000000
_symmetry_Int_Tables_number   1
_chemical_formula_structural   CrFe15Ni11
_chemical_formula_sum   'Cr2 Fe30 Ni22'
_cell_volume   574.19185850
_cell_formula_units_Z   2
loop_
 _symmetry_equiv_pos_site_id
 _symmetry_equiv_pos_as_xyz
  1  'x, y, z'
loop_
 _atom_site_type_symbol
 _atom_site_label
 _atom_site_symmetry_multiplicity
 _atom_site_fract_x
 _atom_site_fract_y
 _atom_site_fract_z
 _atom_site_occupancy
  Fe  Fe0  1  0.00499947  1.00159347  0.00580886  1
  Fe  Fe1  1  0.17091091  0.17093723  0.17172010  1
  Ni  Ni2  1  1.00348639  1.00378833  0.33756342  1
  Fe  Fe3  1  0.00499299  0.33972759  0.00508140  1
  Ni  Ni4  1  0.17218553  0.50560063  0.17072803  1
  Fe  Fe5  1  1.00360008  0.33630779  0.33794448  1
  Ni  Ni6  1  0.00479757  0.67104727  1.00386890  1
  Ni  Ni7  1  0.17029018  0.83646039  0.17092378  1
  Fe  Fe8  1  1.00383886  0.67089442  0.33668698  1
  Fe  Fe9  1  0.33725915  1.00258900  1.00348923  1
  Ni  Ni10  1  0.50575376  0.17198378  0.17099881  1
  Fe  Fe11  1  0.33785477  0.00505470  0.33815671  1
  Fe  Fe12  1  0.33774582  0.33921393  0.00523196  1
  Ni  Ni13  1  0.50329318  0.50371974  0.17053918  1
  Ni  Ni14  1  0.33812266  0.33854832  0.33822906  1
  Ni  Ni15  1  0.33669940  0.67070584  0.00483615  1
  Fe  Fe16  1  0.50447913  0.83739256  0.17098270  1
  Fe  Fe17  1  0.33820287  0.67063399  0.33713051  1
  Fe  Fe18  1  0.67035060  1.00228742  0.00556001  1
  Ni  Ni19  1  0.83668419  0.17008631  0.17107772  1
  Ni  Ni20  1  0.67211502  0.00521914  0.33745427  1
  Fe  Fe21  1  0.66986979  0.33952050  0.00542112  1
  Fe  Fe22  1  0.83739508  0.50445397  0.17081286  1
  Ni  Ni23  1  0.67022118  0.33685897  0.33713877  1
  Ni  Ni24  1  0.67111344  0.67070506  1.00363020  1
  Ni  Ni25  1  0.83856606  0.83892107  0.17015534  1
  Fe  Fe26  1  0.67056555  0.67065811  0.33751209  1
  Ni  Ni27  1  0.16985089  0.17026335  0.50510965  1
  Fe  Fe28  1  0.00507800  1.00400525  0.66954343  1
  Fe  Fe29  1  0.17276231  0.17024320  0.83663498  1
  Fe  Fe30  1  0.17021316  0.50278572  0.50280563  1
  Fe  Fe31  1  0.00450192  0.33734098  0.66958412  1
  Fe  Fe32  1  0.16974251  0.50404432  0.83934480  1
  Fe  Fe33  1  0.17003046  0.83863273  0.50360829  1
  Fe  Fe34  1  1.00212390  0.67126002  0.67156149  1
  Ni  Ni35  1  0.17071679  0.83768245  0.83798532  1
  Fe  Fe36  1  0.50501527  0.17132916  0.50400486  1
  Ni  Ni37  1  0.33751032  0.00554084  0.67059747  1
  Fe  Fe38  1  0.50226701  0.17013800  0.83734148  1
  Ni  Ni39  1  0.50554046  0.50431350  0.50397692  1
  Fe  Fe40  1  0.33834724  0.33498539  0.67015877  1
  Fe  Fe41  1  0.50494193  0.50380805  0.83860596  1
  Ni  Ni42  1  0.50443882  0.83737183  0.50338390  1
  Cr  Cr43  1  0.33665988  0.67113171  0.67069917  1
  Fe  Fe44  1  0.50470538  0.83866316  0.83766622  1
  Ni  Ni45  1  0.83824371  0.17136663  0.50433172  1
  Ni  Ni46  1  0.67028932  0.00486585  0.66985612  1
  Cr  Cr47  1  0.83703848  0.17068803  0.83722007  1
  Ni  Ni48  1  0.83637528  0.50303103  0.50470969  1
  Ni  Ni49  1  0.67075293  0.33732084  0.66977052  1
  Fe  Fe50  1  0.83792087  0.50648471  0.83711424  1
  Fe  Fe51  1  0.83690921  0.83802617  0.50359295  1
  Fe  Fe52  1  0.67174572  0.67105272  0.67073137  1
  Fe  Fe53  1  0.83781457  0.83564479  0.83830815  1
" 