3803,Ni40Fe49Cr9_1,-235.70449152285, 210.675570291834,Ni40Fe49Cr9,"# generated using pymatgen
 data_Cr3Fe13Ni11
_symmetry_space_group_name_H-M   'P 1'
_cell_length_a   7.41888163
_cell_length_b   7.41888163
_cell_length_c   10.49188302
_cell_angle_alpha   90.00000000
_cell_angle_beta   90.00000000
_cell_angle_gamma   90.00000000
_symmetry_Int_Tables_number   1
_chemical_formula_structural   Cr3Fe13Ni11
_chemical_formula_sum   'Cr6 Fe26 Ni22'
_cell_volume   577.47119225
_cell_formula_units_Z   2
loop_
 _symmetry_equiv_pos_site_id
 _symmetry_equiv_pos_as_xyz
  1  'x, y, z'
loop_
 _atom_site_type_symbol
 _atom_site_label
 _atom_site_symmetry_multiplicity
 _atom_site_fract_x
 _atom_site_fract_y
 _atom_site_fract_z
 _atom_site_occupancy
  Fe  Fe0  1  0.00431464  1.00313597  1.00238397  1
  Fe  Fe1  1  0.17067462  0.16983771  0.16940046  1
  Fe  Fe2  1  0.00417937  1.00160745  0.33754328  1
  Fe  Fe3  1  0.00475803  0.33706721  1.00247683  1
  Fe  Fe4  1  0.16980256  0.50286852  0.17072192  1
  Ni  Ni5  1  0.00428388  0.33651472  0.33810875  1
  Fe  Fe6  1  0.00360444  0.66953270  1.00298445  1
  Fe  Fe7  1  0.16979969  0.83702975  0.17113500  1
  Ni  Ni8  1  1.00189515  0.67064575  0.33612705  1
  Ni  Ni9  1  0.33542116  0.00519391  1.00177901  1
  Cr  Cr10  1  0.50166137  0.17120126  0.16889905  1
  Fe  Fe11  1  0.33572435  1.00168252  0.33725563  1
  Ni  Ni12  1  0.33559024  0.33359532  0.00353274  1
  Ni  Ni13  1  0.50238778  0.50323903  0.17148019  1
  Ni  Ni14  1  0.33582701  0.33695356  0.33653088  1
  Cr  Cr15  1  0.33577740  0.67029250  0.00437123  1
  Ni  Ni16  1  0.50341679  0.83564139  0.17112597  1
  Ni  Ni17  1  0.33784482  0.66983566  0.33671893  1
  Fe  Fe18  1  0.66871755  0.00370570  1.00194381  1
  Cr  Cr19  1  0.83748736  0.16947580  0.16994759  1
  Fe  Fe20  1  0.66983667  1.00075669  0.33820690  1
  Ni  Ni21  1  0.67035616  0.33566925  1.00258833  1
  Fe  Fe22  1  0.83622405  0.50464885  0.17132878  1
  Fe  Fe23  1  0.66960122  0.33974359  0.33795693  1
  Cr  Cr24  1  0.67153187  0.67002716  0.00492136  1
  Ni  Ni25  1  0.83805946  0.83551829  0.17065574  1
  Ni  Ni26  1  0.66999873  0.67086778  0.33639883  1
  Fe  Fe27  1  0.17126105  0.17076139  0.50266472  1
  Cr  Cr28  1  1.00322082  1.00276287  0.66878235  1
  Ni  Ni29  1  0.17106389  0.17102823  0.83845281  1
  Fe  Fe30  1  0.17029658  0.50412489  0.50336548  1
  Fe  Fe31  1  0.00383265  0.33862921  0.66988141  1
  Ni  Ni32  1  0.16732104  0.50224801  0.83561887  1
  Ni  Ni33  1  0.16956779  0.83576766  0.50249603  1
  Ni  Ni34  1  1.00243744  0.66930843  0.67044227  1
  Fe  Fe35  1  0.17040238  0.83681656  0.83615032  1
  Ni  Ni36  1  0.50293037  0.17055187  0.50343976  1
  Fe  Fe37  1  0.33776940  0.00343209  0.67029949  1
  Ni  Ni38  1  0.50276183  0.16868586  0.83772320  1
  Ni  Ni39  1  0.50345777  0.50234622  0.50282697  1
  Ni  Ni40  1  0.33668849  0.33561761  0.66967685  1
  Cr  Cr41  1  0.50210673  0.50073347  0.83522174  1
  Ni  Ni42  1  0.50304335  0.83684302  0.50350239  1
  Fe  Fe43  1  0.33523116  0.67042295  0.66865625  1
  Fe  Fe44  1  0.50215813  0.84018268  0.83549861  1
  Fe  Fe45  1  0.83513651  0.17032356  0.50212459  1
  Fe  Fe46  1  0.66812688  1.00322259  0.66958470  1
  Fe  Fe47  1  0.83588473  0.17143661  0.83783235  1
  Ni  Ni48  1  0.83695438  0.50370615  0.50324194  1
  Fe  Fe49  1  0.67044020  0.33609174  0.66935253  1
  Fe  Fe50  1  0.83924760  0.50166777  0.83545673  1
  Ni  Ni51  1  0.83712368  0.83524815  0.50190102  1
  Fe  Fe52  1  0.67087605  0.67041560  0.66816880  1
  Fe  Fe53  1  0.83717618  0.83663024  0.83640766  1
" 