7768,Ni40Cr60_17,-223.763264770284, 140.582749984851,Ni40Cr60,"# generated using pymatgen
 data_Cr7Ni11
_symmetry_space_group_name_H-M   'P 1'
_cell_length_a   7.49973686
_cell_length_b   7.49973686
_cell_length_c   10.60622958
_cell_angle_alpha   90.00000000
_cell_angle_beta   90.00000000
_cell_angle_gamma   90.00000000
_symmetry_Int_Tables_number   1
_chemical_formula_structural   Cr7Ni11
_chemical_formula_sum   'Cr21 Ni33'
_cell_volume   596.55854988
_cell_formula_units_Z   3
loop_
 _symmetry_equiv_pos_site_id
 _symmetry_equiv_pos_as_xyz
  1  'x, y, z'
loop_
 _atom_site_type_symbol
 _atom_site_label
 _atom_site_symmetry_multiplicity
 _atom_site_fract_x
 _atom_site_fract_y
 _atom_site_fract_z
 _atom_site_occupancy
  Cr  Cr0  1  0.99685086  0.99729625  0.99684920  1
  Cr  Cr1  1  0.16352651  0.16803990  0.16383460  1
  Cr  Cr2  1  -0.00149156  0.99541707  0.33179161  1
  Ni  Ni3  1  0.99581947  0.33439678  0.99458951  1
  Ni  Ni4  1  0.16537807  0.49966633  0.16533084  1
  Cr  Cr5  1  0.99686753  0.33382138  0.33391533  1
  Cr  Cr6  1  -0.00184522  0.66154826  -0.00204982  1
  Ni  Ni7  1  0.16765221  0.82582261  0.16607558  1
  Ni  Ni8  1  -0.00154166  0.65994812  0.33037572  1
  Cr  Cr9  1  0.33324191  0.99671040  -0.00097957  1
  Ni  Ni10  1  0.49960981  0.16724868  0.16437125  1
  Cr  Cr11  1  0.33224989  -0.00135087  0.33006403  1
  Cr  Cr12  1  0.33147935  0.33392663  0.99702331  1
  Ni  Ni13  1  0.49883028  0.49825243  0.16520238  1
  Ni  Ni14  1  0.33290977  0.33365619  0.33140764  1
  Ni  Ni15  1  0.33231745  0.66295698  0.00070339  1
  Ni  Ni16  1  0.49799014  0.82753429  0.16348023  1
  Ni  Ni17  1  0.33080158  0.66122731  0.32797647  1
  Ni  Ni18  1  0.66310976  -0.00183199  0.99626509  1
  Cr  Cr19  1  0.82902512  0.16941126  0.16223559  1
  Cr  Cr20  1  0.66275742  -0.00057330  0.33223140  1
  Ni  Ni21  1  0.66560293  0.33228441  -0.00192042  1
  Ni  Ni22  1  0.82942604  0.49800854  0.16449874  1
  Ni  Ni23  1  0.66256152  0.33393070  0.33123754  1
  Ni  Ni24  1  0.66432236  0.66321947  -0.00148894  1
  Cr  Cr25  1  0.83022219  0.82947559  0.16487813  1
  Ni  Ni26  1  0.66463521  0.66050671  0.32938626  1
  Ni  Ni27  1  0.16515469  0.16759317  0.49901040  1
  Cr  Cr28  1  0.99616030  0.00057224  0.66472572  1
  Ni  Ni29  1  0.16283144  0.16739174  0.83014756  1
  Ni  Ni30  1  0.16297852  0.49732484  0.49815732  1
  Ni  Ni31  1  0.99753283  0.33413505  0.66506777  1
  Ni  Ni32  1  0.16164633  0.49680627  0.82997454  1
  Cr  Cr33  1  0.16558002  0.82770821  0.49829082  1
  Ni  Ni34  1  0.99622675  0.66014945  0.66497359  1
  Cr  Cr35  1  0.16564041  0.82886487  0.82899137  1
  Ni  Ni36  1  0.49796425  0.16534533  0.49770008  1
  Ni  Ni37  1  0.33271950  0.00040517  0.66431873  1
  Ni  Ni38  1  0.50005579  0.16315907  0.83137137  1
  Cr  Cr39  1  0.49778674  0.49915140  0.49635784  1
  Cr  Cr40  1  0.32942848  0.33040475  0.66449864  1
  Cr  Cr41  1  0.49857254  0.49923112  0.83186804  1
  Cr  Cr42  1  0.49791824  0.82900227  0.50213480  1
  Ni  Ni43  1  0.32866060  0.66311972  0.66493027  1
  Cr  Cr44  1  0.49934277  0.82972352  0.82828866  1
  Ni  Ni45  1  0.83040142  0.16766882  0.49865561  1
  Ni  Ni46  1  0.66386177  -0.00063788  0.66568749  1
  Ni  Ni47  1  0.83043748  0.16618614  0.83267415  1
  Ni  Ni48  1  0.83255808  0.49741303  0.49754042  1
  Cr  Cr49  1  0.66726384  0.33117611  0.66387122  1
  Ni  Ni50  1  0.83228681  0.49730952  0.83143844  1
  Cr  Cr51  1  0.83010463  0.82775405  0.49865132  1
  Ni  Ni52  1  0.66828237  0.66448458  0.66571757  1
  Ni  Ni53  1  0.82860903  0.83032191  0.82998576  1
" 