8424,Ni40Fe60_3,-242.746078946694, 225.745381617225,Ni40Fe60,"# generated using pymatgen
 data_Fe7Ni11
_symmetry_space_group_name_H-M   'P 1'
_cell_length_a   7.40396113
_cell_length_b   7.40396113
_cell_length_c   10.47078225
_cell_angle_alpha   90.00000000
_cell_angle_beta   90.00000000
_cell_angle_gamma   90.00000000
_symmetry_Int_Tables_number   1
_chemical_formula_structural   Fe7Ni11
_chemical_formula_sum   'Fe21 Ni33'
_cell_volume   573.99404781
_cell_formula_units_Z   3
loop_
 _symmetry_equiv_pos_site_id
 _symmetry_equiv_pos_as_xyz
  1  'x, y, z'
loop_
 _atom_site_type_symbol
 _atom_site_label
 _atom_site_symmetry_multiplicity
 _atom_site_fract_x
 _atom_site_fract_y
 _atom_site_fract_z
 _atom_site_occupancy
  Fe  Fe0  1  1.00395742  1.00373548  1.00383468  1
  Fe  Fe1  1  0.17058009  0.17195829  0.17122438  1
  Fe  Fe2  1  1.00337573  0.00439017  0.33794675  1
  Fe  Fe3  1  1.00405418  0.33862599  1.00411050  1
  Ni  Ni4  1  0.17158787  0.50371399  0.17093397  1
  Ni  Ni5  1  0.00584228  0.33868039  0.33772276  1
  Fe  Fe6  1  1.00352894  0.67042491  0.00456662  1
  Ni  Ni7  1  0.16967086  0.83817855  0.17163655  1
  Ni  Ni8  1  0.00464392  0.67113606  0.33710037  1
  Fe  Fe9  1  0.33874853  0.00448840  1.00411334  1
  Fe  Fe10  1  0.50478209  0.17167497  0.17035232  1
  Fe  Fe11  1  0.33774879  0.00456517  0.33782112  1
  Ni  Ni12  1  0.33728138  0.33866701  1.00416031  1
  Ni  Ni13  1  0.50444107  0.50321884  0.17091866  1
  Ni  Ni14  1  0.33685111  0.33782945  0.33732808  1
  Ni  Ni15  1  0.33690768  0.67001739  0.00453889  1
  Fe  Fe16  1  0.50478732  0.83606100  0.17119728  1
  Fe  Fe17  1  0.33817304  0.66958981  0.33709513  1
  Ni  Ni18  1  0.67152799  1.00372757  1.00416458  1
  Fe  Fe19  1  0.83741535  0.17158034  0.17123115  1
  Ni  Ni20  1  0.67080860  1.00332762  0.33732451  1
  Ni  Ni21  1  0.66995007  0.33712967  0.00441978  1
  Ni  Ni22  1  0.83674997  0.50514446  0.17151392  1
  Ni  Ni23  1  0.67008766  0.33712624  0.33741583  1
  Ni  Ni24  1  0.67068251  0.67192526  1.00405888  1
  Ni  Ni25  1  0.83759028  0.83783028  0.17128827  1
  Ni  Ni26  1  0.67165473  0.67232592  0.33744177  1
  Ni  Ni27  1  0.17080256  0.17194774  0.50388371  1
  Ni  Ni28  1  1.00371737  1.00305014  0.67057486  1
  Ni  Ni29  1  0.17212479  0.17143092  0.83796708  1
  Ni  Ni30  1  0.17164118  0.50204690  0.50399330  1
  Ni  Ni31  1  0.00565638  0.33805635  0.67124520  1
  Ni  Ni32  1  0.17129852  0.50255568  0.83785597  1
  Fe  Fe33  1  0.17089924  0.83685783  0.50398462  1
  Ni  Ni34  1  0.00527283  0.67167301  0.67140219  1
  Fe  Fe35  1  0.17074449  0.83686429  0.83801949  1
  Fe  Fe36  1  0.50425303  0.17115461  0.50468110  1
  Fe  Fe37  1  0.33694184  0.00573927  0.67084630  1
  Ni  Ni38  1  0.50315189  0.17143860  0.83689822  1
  Ni  Ni39  1  0.50380015  0.50407959  0.50423923  1
  Ni  Ni40  1  0.33734062  0.33806089  0.67128918  1
  Ni  Ni41  1  0.50433669  0.50290149  0.83762131  1
  Ni  Ni42  1  0.50656906  0.83760027  0.50398933  1
  Fe  Fe43  1  0.33737324  0.66986606  0.67112414  1
  Fe  Fe44  1  0.50459061  0.83723981  0.83761980  1
  Fe  Fe45  1  0.83724905  0.17105392  0.50441105  1
  Ni  Ni46  1  0.67135108  1.00421750  0.67128786  1
  Fe  Fe47  1  0.83706859  0.17185101  0.83713808  1
  Fe  Fe48  1  0.83790343  0.50449616  0.50395807  1
  Ni  Ni49  1  0.66978233  0.33651142  0.67094147  1
  Ni  Ni50  1  0.83714311  0.50567057  0.83728562  1
  Ni  Ni51  1  0.83650191  0.83843356  0.50363719  1
  Fe  Fe52  1  0.67196132  0.67057626  0.67085022  1
  Ni  Ni53  1  0.83715246  0.83761017  0.83785225  1
" 