5812,Ni40Fe49Cr9_15,-236.199126405477, 213.533973324771,Ni40Fe49Cr9,"# generated using pymatgen
 data_Cr3Fe13Ni11
_symmetry_space_group_name_H-M   'P 1'
_cell_length_a   7.41985826
_cell_length_b   7.41985826
_cell_length_c   10.49326419
_cell_angle_alpha   90.00000000
_cell_angle_beta   90.00000000
_cell_angle_gamma   90.00000000
_symmetry_Int_Tables_number   1
_chemical_formula_structural   Cr3Fe13Ni11
_chemical_formula_sum   'Cr6 Fe26 Ni22'
_cell_volume   577.69927947
_cell_formula_units_Z   2
loop_
 _symmetry_equiv_pos_site_id
 _symmetry_equiv_pos_as_xyz
  1  'x, y, z'
loop_
 _atom_site_type_symbol
 _atom_site_label
 _atom_site_symmetry_multiplicity
 _atom_site_fract_x
 _atom_site_fract_y
 _atom_site_fract_z
 _atom_site_occupancy
  Ni  Ni0  1  0.00406598  0.00381821  0.00460148  1
  Ni  Ni1  1  0.16781187  0.16844783  0.17094659  1
  Fe  Fe2  1  1.00315730  1.00173942  0.33581124  1
  Fe  Fe3  1  0.00364838  0.33506904  0.00332919  1
  Cr  Cr4  1  0.16864473  0.50486040  0.17112726  1
  Ni  Ni5  1  1.00040074  0.33275942  0.33613187  1
  Fe  Fe6  1  0.00327605  0.67253369  1.00193861  1
  Ni  Ni7  1  0.17260076  0.83710959  0.16975455  1
  Fe  Fe8  1  0.00320979  0.67198892  0.33732637  1
  Ni  Ni9  1  0.33225749  1.00135333  1.00166749  1
  Fe  Fe10  1  0.50165640  0.16606288  0.17200100  1
  Ni  Ni11  1  0.33354754  1.00136739  0.33657559  1
  Cr  Cr12  1  0.33678094  0.33462640  0.00338719  1
  Fe  Fe13  1  0.50290659  0.50479626  0.17052316  1
  Fe  Fe14  1  0.33832140  0.33498001  0.33597948  1
  Ni  Ni15  1  0.33769937  0.67220137  1.00241843  1
  Ni  Ni16  1  0.50295550  0.83802863  0.16744696  1
  Ni  Ni17  1  0.33768963  0.67392736  0.33578972  1
  Fe  Fe18  1  0.66926138  1.00131714  1.00214536  1
  Ni  Ni19  1  0.83568519  0.16964133  0.16986043  1
  Fe  Fe20  1  0.66761969  0.00398308  0.33717387  1
  Cr  Cr21  1  0.67194765  0.33756543  0.00428100  1
  Fe  Fe22  1  0.83743355  0.50418725  0.17077750  1
  Ni  Ni23  1  0.67166570  0.33627186  0.33663022  1
  Ni  Ni24  1  0.67016511  0.66926798  1.00290275  1
  Fe  Fe25  1  0.83785996  0.83826753  0.16737295  1
  Cr  Cr26  1  0.66884667  0.67020141  0.33789520  1
  Fe  Fe27  1  0.16944296  0.16779541  0.50192091  1
  Ni  Ni28  1  0.00504975  0.00410813  0.66811129  1
  Fe  Fe29  1  0.16603388  0.16773561  0.83646566  1
  Cr  Cr30  1  0.16894671  0.50350108  0.50275927  1
  Fe  Fe31  1  1.00314482  0.33601699  0.67034638  1
  Fe  Fe32  1  0.16819439  0.50504409  0.83565945  1
  Ni  Ni33  1  0.17254538  0.83650844  0.50298106  1
  Fe  Fe34  1  1.00072193  0.67257042  0.67033193  1
  Fe  Fe35  1  0.16694019  0.83698505  0.83607296  1
  Fe  Fe36  1  0.50257491  0.16885038  0.50204174  1
  Fe  Fe37  1  0.33765024  1.00185719  0.66962071  1
  Fe  Fe38  1  0.50497000  0.16616713  0.83569195  1
  Fe  Fe39  1  0.50181199  0.50544343  0.50329430  1
  Fe  Fe40  1  0.33619959  0.33502645  0.67196340  1
  Fe  Fe41  1  0.50455278  0.50695676  0.83631236  1
  Ni  Ni42  1  0.50261058  0.83891489  0.50547726  1
  Ni  Ni43  1  0.33684621  0.67054537  0.67121370  1
  Fe  Fe44  1  0.50538339  0.83627496  0.83630956  1
  Fe  Fe45  1  0.83750860  0.16742840  0.50224975  1
  Ni  Ni46  1  0.67276633  1.00268964  0.66976294  1
  Ni  Ni47  1  0.83749739  0.16846239  0.83645834  1
  Ni  Ni48  1  0.83761544  0.50137619  0.50316264  1
  Cr  Cr49  1  0.67116592  0.33810399  0.66908526  1
  Ni  Ni50  1  0.83889665  0.50409019  0.83715023  1
  Fe  Fe51  1  0.83764015  0.83582713  0.50594577  1
  Ni  Ni52  1  0.66905792  0.66981245  0.66936608  1
  Ni  Ni53  1  0.83483309  0.83725123  0.83616614  1
" 