4033,Ni40Fe57Cr2_18,-237.802380037098, 214.145057235684,Ni40Fe57Cr2,"# generated using pymatgen
 data_CrFe15Ni11
_symmetry_space_group_name_H-M   'P 1'
_cell_length_a   7.40351551
_cell_length_b   7.40351551
_cell_length_c   10.47015205
_cell_angle_alpha   90.00000000
_cell_angle_beta   90.00000000
_cell_angle_gamma   90.00000000
_symmetry_Int_Tables_number   1
_chemical_formula_structural   CrFe15Ni11
_chemical_formula_sum   'Cr2 Fe30 Ni22'
_cell_volume   573.89041329
_cell_formula_units_Z   2
loop_
 _symmetry_equiv_pos_site_id
 _symmetry_equiv_pos_as_xyz
  1  'x, y, z'
loop_
 _atom_site_type_symbol
 _atom_site_label
 _atom_site_symmetry_multiplicity
 _atom_site_fract_x
 _atom_site_fract_y
 _atom_site_fract_z
 _atom_site_occupancy
  Ni  Ni0  1  0.00583441  1.00295255  1.00400818  1
  Fe  Fe1  1  0.17102384  0.17004379  0.17063045  1
  Ni  Ni2  1  0.00583264  1.00396581  0.33801130  1
  Fe  Fe3  1  1.00383158  0.33814710  1.00421714  1
  Fe  Fe4  1  0.17107182  0.50434900  0.17010233  1
  Fe  Fe5  1  1.00304899  0.33661651  0.33762059  1
  Ni  Ni6  1  1.00356008  0.67275391  0.00431158  1
  Ni  Ni7  1  0.17205109  0.83747890  0.17096476  1
  Fe  Fe8  1  0.00533583  0.67155330  0.33764736  1
  Fe  Fe9  1  0.33772591  1.00376735  0.00460938  1
  Ni  Ni10  1  0.50566156  0.16996906  0.17151668  1
  Ni  Ni11  1  0.33625235  0.00495129  0.33724951  1
  Ni  Ni12  1  0.33861995  0.33683047  1.00419602  1
  Fe  Fe13  1  0.50432254  0.50292804  0.17019400  1
  Fe  Fe14  1  0.33851304  0.33640909  0.33736182  1
  Fe  Fe15  1  0.33753650  0.67116044  1.00400538  1
  Ni  Ni16  1  0.50226828  0.83942906  0.17077630  1
  Fe  Fe17  1  0.33671948  0.67225557  0.33765357  1
  Fe  Fe18  1  0.67089975  1.00416734  0.00503457  1
  Ni  Ni19  1  0.83658303  0.17249576  0.17175051  1
  Ni  Ni20  1  0.67078798  0.00611415  0.33782799  1
  Ni  Ni21  1  0.66908597  0.33910735  1.00421836  1
  Ni  Ni22  1  0.83853297  0.50204876  0.17026654  1
  Ni  Ni23  1  0.67013911  0.33694309  0.33792315  1
  Ni  Ni24  1  0.67161591  0.66988941  1.00396922  1
  Fe  Fe25  1  0.83831897  0.83910702  0.16994590  1
  Cr  Cr26  1  0.67151714  0.66966986  0.33728680  1
  Fe  Fe27  1  0.17102900  0.17145872  0.50440611  1
  Fe  Fe28  1  1.00405493  1.00428179  0.67137984  1
  Ni  Ni29  1  0.17035671  0.17098470  0.83802824  1
  Fe  Fe30  1  0.17081985  0.50462807  0.50509695  1
  Fe  Fe31  1  1.00387537  0.33844655  0.67103605  1
  Ni  Ni32  1  0.17001247  0.50456296  0.83676073  1
  Fe  Fe33  1  0.17061453  0.83678497  0.50400894  1
  Ni  Ni34  1  0.00588224  0.67172817  0.67063330  1
  Ni  Ni35  1  0.17177730  0.83732714  0.83688121  1
  Fe  Fe36  1  0.50521957  0.17203918  0.50347911  1
  Fe  Fe37  1  0.33767624  1.00382115  0.67112324  1
  Fe  Fe38  1  0.50304674  0.17123710  0.83805716  1
  Ni  Ni39  1  0.50400436  0.50267336  0.50413977  1
  Fe  Fe40  1  0.33742370  0.33848544  0.67163564  1
  Fe  Fe41  1  0.50241824  0.50335056  0.83824690  1
  Fe  Fe42  1  0.50313988  0.83870345  0.50394047  1
  Fe  Fe43  1  0.33617212  0.67056561  0.67120506  1
  Ni  Ni44  1  0.50305128  0.83850299  0.83806030  1
  Fe  Fe45  1  0.83661742  0.17183244  0.50347966  1
  Fe  Fe46  1  0.67114074  0.00553894  0.67067663  1
  Fe  Fe47  1  0.83825646  0.17050224  0.83806413  1
  Ni  Ni48  1  0.83856838  0.50201347  0.50467058  1
  Ni  Ni49  1  0.66985531  0.33702806  0.67073429  1
  Fe  Fe50  1  0.83909917  0.50429161  0.83849918  1
  Fe  Fe51  1  0.83912326  0.83848976  0.50428859  1
  Cr  Cr52  1  0.67185927  0.66923564  0.67122708  1
  Fe  Fe53  1  0.83991096  0.83807821  0.83863773  1
" 