9001,Ni40Fe51Cr7_9,-235.992976573145, 206.312746276945,Ni40Fe51Cr7,"# generated using pymatgen
 data_Cr2Fe9Ni7
_symmetry_space_group_name_H-M   'P 1'
_cell_length_a   7.42630524
_cell_length_b   7.42630524
_cell_length_c   10.50238159
_cell_angle_alpha   90.00000000
_cell_angle_beta   90.00000000
_cell_angle_gamma   90.00000000
_symmetry_Int_Tables_number   1
_chemical_formula_structural   Cr2Fe9Ni7
_chemical_formula_sum   'Cr6 Fe27 Ni21'
_cell_volume   579.20644548
_cell_formula_units_Z   3
loop_
 _symmetry_equiv_pos_site_id
 _symmetry_equiv_pos_as_xyz
  1  'x, y, z'
loop_
 _atom_site_type_symbol
 _atom_site_label
 _atom_site_symmetry_multiplicity
 _atom_site_fract_x
 _atom_site_fract_y
 _atom_site_fract_z
 _atom_site_occupancy
  Cr  Cr0  1  0.00329191  0.00348220  0.00307933  1
  Fe  Fe1  1  0.17002907  0.17159198  0.16958339  1
  Fe  Fe2  1  1.00197191  1.00225010  0.33668726  1
  Ni  Ni3  1  0.00398875  0.33656352  0.00329437  1
  Ni  Ni4  1  0.17139628  0.50353489  0.16861805  1
  Fe  Fe5  1  0.00331422  0.33590216  0.33643799  1
  Ni  Ni6  1  1.00252503  0.66863823  1.00245959  1
  Fe  Fe7  1  0.16945985  0.83438713  0.17057139  1
  Ni  Ni8  1  0.00457897  0.67005384  0.33739416  1
  Fe  Fe9  1  0.33768237  0.00343292  1.00206179  1
  Fe  Fe10  1  0.50283467  0.17095788  0.16852146  1
  Fe  Fe11  1  0.33585819  1.00159518  0.33686911  1
  Ni  Ni12  1  0.33653332  0.33574843  0.00317029  1
  Ni  Ni13  1  0.49965208  0.50216984  0.16718801  1
  Fe  Fe14  1  0.33479806  0.33683824  0.33452601  1
  Fe  Fe15  1  0.33599636  0.66769361  0.00288308  1
  Fe  Fe16  1  0.50245547  0.83596589  0.16899276  1
  Fe  Fe17  1  0.33339105  0.66979870  0.33606008  1
  Fe  Fe18  1  0.66856507  0.00354659  1.00242755  1
  Ni  Ni19  1  0.83498016  0.16839783  0.16889205  1
  Fe  Fe20  1  0.67039745  0.00366397  0.33692469  1
  Ni  Ni21  1  0.66770896  0.33641145  0.00288182  1
  Cr  Cr22  1  0.83735367  0.50110179  0.16847364  1
  Fe  Fe23  1  0.67011346  0.33343168  0.33589134  1
  Ni  Ni24  1  0.66854382  0.66941436  1.00262156  1
  Fe  Fe25  1  0.83631287  0.83627041  0.16956283  1
  Cr  Cr26  1  0.67002075  0.67046335  0.33703070  1
  Fe  Fe27  1  0.16988391  0.16747865  0.50239609  1
  Ni  Ni28  1  0.00366752  1.00137047  0.66811233  1
  Fe  Fe29  1  0.17142520  0.16929064  0.83624860  1
  Ni  Ni30  1  0.16910514  0.50496658  0.50230965  1
  Cr  Cr31  1  1.00245983  0.33587188  0.66915138  1
  Fe  Fe32  1  0.17024471  0.50322995  0.83705402  1
  Ni  Ni33  1  0.16884798  0.83481192  0.50372331  1
  Ni  Ni34  1  0.00456453  0.67125822  0.66837790  1
  Fe  Fe35  1  0.17029729  0.83571092  0.83420274  1
  Fe  Fe36  1  0.50301303  0.16690847  0.50390248  1
  Ni  Ni37  1  0.33614844  1.00249817  0.66871921  1
  Ni  Ni38  1  0.50352391  0.16963289  0.83562745  1
  Cr  Cr39  1  0.50039430  0.50182080  0.50403958  1
  Fe  Fe40  1  0.33693474  0.33516292  0.67062045  1
  Fe  Fe41  1  0.50241479  0.50122440  0.83738445  1
  Ni  Ni42  1  0.50104168  0.83889071  0.50374805  1
  Ni  Ni43  1  0.33412901  0.67125715  0.66905658  1
  Fe  Fe44  1  0.50199196  0.83734758  0.83591275  1
  Ni  Ni45  1  0.83479391  0.16765578  0.50293253  1
  Ni  Ni46  1  0.66841483  0.00440979  0.66853073  1
  Fe  Fe47  1  0.83393364  0.16971410  0.83585237  1
  Fe  Fe48  1  0.83884763  0.50316983  0.50210434  1
  Ni  Ni49  1  0.66841089  0.33357764  0.66922832  1
  Fe  Fe50  1  0.83556867  0.50234477  0.83821433  1
  Ni  Ni51  1  0.83833992  0.83912394  0.50325989  1
  Cr  Cr52  1  0.67003756  0.66992188  0.66874349  1
  Fe  Fe53  1  0.83593921  0.83617177  0.83557070  1
" 