6256,Ni40Fe5Cr53_1,-217.546552303859, 149.166341588668,Ni40Fe5Cr53,"# generated using pymatgen
 data_Cr10FeNi7
_symmetry_space_group_name_H-M   'P 1'
_cell_length_a   7.52381540
_cell_length_b   7.52381540
_cell_length_c   10.64028178
_cell_angle_alpha   90.00000000
_cell_angle_beta   90.00000000
_cell_angle_gamma   90.00000000
_symmetry_Int_Tables_number   1
_chemical_formula_structural   Cr10FeNi7
_chemical_formula_sum   'Cr30 Fe3 Ni21'
_cell_volume   602.32292320
_cell_formula_units_Z   3
loop_
 _symmetry_equiv_pos_site_id
 _symmetry_equiv_pos_as_xyz
  1  'x, y, z'
loop_
 _atom_site_type_symbol
 _atom_site_label
 _atom_site_symmetry_multiplicity
 _atom_site_fract_x
 _atom_site_fract_y
 _atom_site_fract_z
 _atom_site_occupancy
  Ni  Ni0  1  -0.00346030  0.00004611  -0.00273337  1
  Cr  Cr1  1  0.16368211  0.16470426  0.16110092  1
  Cr  Cr2  1  -0.00170897  -0.00140412  0.32843778  1
  Ni  Ni3  1  0.99423708  0.32638256  -0.00327626  1
  Cr  Cr4  1  0.16398155  0.49340055  0.16085814  1
  Cr  Cr5  1  0.99525754  0.32830550  0.33074337  1
  Cr  Cr6  1  -0.00193038  0.66276620  -0.00169222  1
  Ni  Ni7  1  0.16538913  0.83173233  0.16086303  1
  Cr  Cr8  1  0.99443509  0.66143670  0.32750195  1
  Cr  Cr9  1  0.33027397  0.99518285  0.99549940  1
  Cr  Cr10  1  0.49855998  0.16246311  0.16267758  1
  Ni  Ni11  1  0.33074867  -0.00209865  0.32953741  1
  Ni  Ni12  1  0.33064037  0.32904065  0.99264075  1
  Cr  Cr13  1  0.49546515  0.49341677  0.16308621  1
  Ni  Ni14  1  0.32893633  0.32533773  0.33086805  1
  Ni  Ni15  1  0.33103072  0.66213255  -0.00249320  1
  Ni  Ni16  1  0.49691761  0.83067198  0.16418755  1
  Cr  Cr17  1  0.32964227  0.66706936  0.32475793  1
  Ni  Ni18  1  0.66319206  -0.00020339  -0.00217120  1
  Ni  Ni19  1  0.82902713  0.16412360  0.16059019  1
  Ni  Ni20  1  0.66178159  0.99579300  0.32768488  1
  Ni  Ni21  1  0.66316819  0.32773722  0.99474180  1
  Ni  Ni22  1  0.82815376  0.49347582  0.16043826  1
  Cr  Cr23  1  0.66661515  0.32891876  0.32978028  1
  Cr  Cr24  1  0.65984262  0.66099628  0.99513055  1
  Cr  Cr25  1  0.82746701  0.83356067  0.16146582  1
  Ni  Ni26  1  0.66384448  0.66357914  0.32832502  1
  Ni  Ni27  1  0.16416541  0.16205661  0.49831576  1
  Ni  Ni28  1  -0.00151947  0.00056858  0.66242068  1
  Ni  Ni29  1  0.16358282  0.16469017  0.82885402  1
  Cr  Cr30  1  0.16502996  0.49222300  0.49476362  1
  Cr  Cr31  1  0.99537266  0.32741088  0.66051371  1
  Cr  Cr32  1  0.16427610  0.49253716  0.83279911  1
  Cr  Cr33  1  0.16250945  0.83259725  0.49858985  1
  Cr  Cr34  1  0.99509562  0.66122798  0.66247703  1
  Cr  Cr35  1  0.15960717  0.83281505  0.82892435  1
  Cr  Cr36  1  0.49322542  0.16326983  0.49513072  1
  Fe  Fe37  1  0.32774112  0.00095002  0.66427053  1
  Ni  Ni38  1  0.49436379  0.16764377  0.83124059  1
  Cr  Cr39  1  0.49551679  0.49527235  0.49404243  1
  Ni  Ni40  1  0.32886113  0.32527112  0.66532860  1
  Ni  Ni41  1  0.49467959  0.49180090  0.83186213  1
  Cr  Cr42  1  0.49790714  0.83123724  0.49363349  1
  Cr  Cr43  1  0.33113451  0.66145432  0.66617772  1
  Cr  Cr44  1  0.49749765  0.83179175  0.83005776  1
  Fe  Fe45  1  0.83022100  0.16191875  0.49560690  1
  Cr  Cr46  1  0.66155354  -0.00022066  0.66383409  1
  Cr  Cr47  1  0.83050407  0.16078183  0.83391833  1
  Ni  Ni48  1  0.82807049  0.49633783  0.49570104  1
  Cr  Cr49  1  0.66115079  0.33010114  0.66503594  1
  Fe  Fe50  1  0.82893335  0.49281432  0.83230077  1
  Cr  Cr51  1  0.82812815  0.83047239  0.49750323  1
  Cr  Cr52  1  0.66264838  0.65901120  0.66463389  1
  Cr  Cr53  1  0.83083627  0.83168050  0.82979594  1
" 