7140,Ni40Fe17Cr42_8,-222.384481887305, 161.673007065498,Ni40Fe17Cr42,"# generated using pymatgen
 data_Cr8Fe3Ni7
_symmetry_space_group_name_H-M   'P 1'
_cell_length_a   7.50437413
_cell_length_b   7.50437413
_cell_length_c   10.61278767
_cell_angle_alpha   90.00000000
_cell_angle_beta   90.00000000
_cell_angle_gamma   90.00000000
_symmetry_Int_Tables_number   1
_chemical_formula_structural   Cr8Fe3Ni7
_chemical_formula_sum   'Cr24 Fe9 Ni21'
_cell_volume   597.66583557
_cell_formula_units_Z   3
loop_
 _symmetry_equiv_pos_site_id
 _symmetry_equiv_pos_as_xyz
  1  'x, y, z'
loop_
 _atom_site_type_symbol
 _atom_site_label
 _atom_site_symmetry_multiplicity
 _atom_site_fract_x
 _atom_site_fract_y
 _atom_site_fract_z
 _atom_site_occupancy
  Fe  Fe0  1  0.99559704  -0.00227995  -0.00204924  1
  Fe  Fe1  1  0.16514568  0.16301955  0.16391845  1
  Ni  Ni2  1  -0.00242248  0.99676574  0.32745947  1
  Cr  Cr3  1  -0.00153488  0.32557234  -0.00212596  1
  Cr  Cr4  1  0.16444624  0.49622143  0.16316278  1
  Cr  Cr5  1  0.99662405  0.32877347  0.33144268  1
  Cr  Cr6  1  -0.00179669  0.66892796  0.99685883  1
  Ni  Ni7  1  0.15908628  0.83332426  0.16624975  1
  Fe  Fe8  1  -0.00177871  0.66502795  0.33203921  1
  Cr  Cr9  1  0.33068787  -0.00229634  -0.00195414  1
  Ni  Ni10  1  0.49784005  0.16361405  0.16312760  1
  Cr  Cr11  1  0.32788348  -0.00240343  0.32897846  1
  Ni  Ni12  1  0.33207417  0.32687865  0.99618213  1
  Cr  Cr13  1  0.49747356  0.49596953  0.16283061  1
  Ni  Ni14  1  0.32989376  0.33157666  0.33036829  1
  Cr  Cr15  1  0.33260603  0.66539739  0.99520765  1
  Cr  Cr16  1  0.50093895  0.83172918  0.16410232  1
  Cr  Cr17  1  0.33013916  0.66367572  0.33276723  1
  Ni  Ni18  1  0.66602713  0.99712454  0.99618884  1
  Ni  Ni19  1  0.83143149  0.15920904  0.16363824  1
  Cr  Cr20  1  0.66666728  -0.00053982  0.32994516  1
  Cr  Cr21  1  0.66299123  0.32833577  0.99544028  1
  Cr  Cr22  1  0.83062107  0.50083496  0.16401670  1
  Cr  Cr23  1  0.66454993  0.33130317  0.33388277  1
  Ni  Ni24  1  0.66429433  0.66909908  0.99511825  1
  Fe  Fe25  1  0.83127735  0.83278352  0.16399272  1
  Ni  Ni26  1  0.66621189  0.66252716  0.33117802  1
  Cr  Cr27  1  0.16570500  0.16420954  0.49760734  1
  Cr  Cr28  1  -0.00115705  0.99746626  0.66658813  1
  Ni  Ni29  1  0.16598179  0.16162971  0.83244232  1
  Ni  Ni30  1  0.16418637  0.49964570  0.49828286  1
  Cr  Cr31  1  0.99294210  0.33086465  0.66371276  1
  Cr  Cr32  1  0.16542085  0.49559567  0.83013026  1
  Fe  Fe33  1  0.16207507  0.83042898  0.49814739  1
  Ni  Ni34  1  0.00194774  0.66448523  0.66159276  1
  Fe  Fe35  1  0.16616971  0.83209541  0.82934328  1
  Cr  Cr36  1  0.49585739  0.16376096  0.50010565  1
  Ni  Ni37  1  0.32922207  0.99454127  0.66734287  1
  Ni  Ni38  1  0.49619218  0.16278545  0.82993029  1
  Fe  Fe39  1  0.49708615  0.49617672  0.49927499  1
  Fe  Fe40  1  0.33203530  0.33173534  0.66608995  1
  Ni  Ni41  1  0.49615263  0.49764262  0.82962979  1
  Cr  Cr42  1  0.49586113  0.83155556  0.49833976  1
  Ni  Ni43  1  0.32870753  0.66572692  0.66447740  1
  Ni  Ni44  1  0.49755807  0.83219624  0.83098447  1
  Ni  Ni45  1  0.83216644  0.16567062  0.49800199  1
  Cr  Cr46  1  0.66314044  0.00150499  0.66649387  1
  Ni  Ni47  1  0.83016213  0.16097123  0.83114738  1
  Ni  Ni48  1  0.83359185  0.49931245  0.49771659  1
  Ni  Ni49  1  0.66329108  0.33114455  0.66399795  1
  Cr  Cr50  1  0.83074818  0.49894574  0.83079568  1
  Cr  Cr51  1  0.83198748  0.83117471  0.49488599  1
  Cr  Cr52  1  0.66268882  0.66147425  0.66524178  1
  Fe  Fe53  1  0.82900711  0.83279047  0.83143225  1
" 