479,Ni40Fe57Cr2_19,-237.866267045234, 216.980225753973,Ni40Fe57Cr2,"# generated using pymatgen
 data_CrFe15Ni11
_symmetry_space_group_name_H-M   'P 1'
_cell_length_a   7.40413762
_cell_length_b   7.40413762
_cell_length_c   10.47103184
_cell_angle_alpha   90.00000000
_cell_angle_beta   90.00000000
_cell_angle_gamma   90.00000000
_symmetry_Int_Tables_number   1
_chemical_formula_structural   CrFe15Ni11
_chemical_formula_sum   'Cr2 Fe30 Ni22'
_cell_volume   574.03509477
_cell_formula_units_Z   2
loop_
 _symmetry_equiv_pos_site_id
 _symmetry_equiv_pos_as_xyz
  1  'x, y, z'
loop_
 _atom_site_type_symbol
 _atom_site_label
 _atom_site_symmetry_multiplicity
 _atom_site_fract_x
 _atom_site_fract_y
 _atom_site_fract_z
 _atom_site_occupancy
  Ni  Ni0  1  1.00305272  0.00459404  1.00357955  1
  Fe  Fe1  1  0.17043869  0.17002410  0.17124571  1
  Fe  Fe2  1  0.00500938  1.00422527  0.33662512  1
  Fe  Fe3  1  0.00522028  0.33649704  0.00517364  1
  Ni  Ni4  1  0.17079265  0.50506590  0.17084102  1
  Ni  Ni5  1  1.00348288  0.33815124  0.33706862  1
  Fe  Fe6  1  0.00571597  0.67238033  0.00563772  1
  Ni  Ni7  1  0.17159624  0.83613489  0.17164055  1
  Ni  Ni8  1  1.00380959  0.67047109  0.33693665  1
  Fe  Fe9  1  0.33757478  1.00336851  1.00404776  1
  Fe  Fe10  1  0.50380901  0.16997051  0.17140940  1
  Ni  Ni11  1  0.33813472  0.00494571  0.33556232  1
  Fe  Fe12  1  0.33740710  0.33796930  0.00433072  1
  Fe  Fe13  1  0.50378169  0.50539345  0.17097919  1
  Ni  Ni14  1  0.33819001  0.33708837  0.33794634  1
  Ni  Ni15  1  0.33848986  0.67085227  1.00361918  1
  Ni  Ni16  1  0.50323549  0.83721081  0.17116134  1
  Ni  Ni17  1  0.33703592  0.67070426  0.33721455  1
  Fe  Fe18  1  0.67109496  1.00387215  1.00421934  1
  Ni  Ni19  1  0.83816109  0.17103083  0.17082105  1
  Fe  Fe20  1  0.67157769  0.00530890  0.33659380  1
  Fe  Fe21  1  0.67011861  0.33631713  0.00442683  1
  Fe  Fe22  1  0.83845284  0.50520591  0.17111432  1
  Fe  Fe23  1  0.67038045  0.33755606  0.33814421  1
  Fe  Fe24  1  0.66963180  0.67255282  0.00489553  1
  Ni  Ni25  1  0.83791679  0.83838753  0.17098674  1
  Fe  Fe26  1  0.67098154  0.66988289  0.33665620  1
  Fe  Fe27  1  0.17189919  0.17136009  0.50417740  1
  Fe  Fe28  1  1.00416326  0.00455079  0.67149789  1
  Fe  Fe29  1  0.17148027  0.17091663  0.83731749  1
  Fe  Fe30  1  0.17085958  0.50348354  0.50342161  1
  Ni  Ni31  1  1.00380034  0.33746745  0.67072044  1
  Fe  Fe32  1  0.17305350  0.50392815  0.83783311  1
  Fe  Fe33  1  0.16998946  0.83790577  0.50380074  1
  Ni  Ni34  1  1.00412273  0.67090628  0.67076491  1
  Fe  Fe35  1  0.17165895  0.83789980  0.83786634  1
  Ni  Ni36  1  0.50477194  0.17273059  0.50425290  1
  Ni  Ni37  1  0.33847116  0.00519977  0.67269402  1
  Ni  Ni38  1  0.50461131  0.17017337  0.83693324  1
  Ni  Ni39  1  0.50329808  0.50295060  0.50449986  1
  Fe  Fe40  1  0.33755827  0.33772181  0.67053963  1
  Ni  Ni41  1  0.50196499  0.50511508  0.83708294  1
  Cr  Cr42  1  0.50254439  0.83710003  0.50364946  1
  Fe  Fe43  1  0.33646432  0.66985983  0.67213393  1
  Ni  Ni44  1  0.50288189  0.83745690  0.83745843  1
  Ni  Ni45  1  0.83840113  0.17164595  0.50477843  1
  Fe  Fe46  1  0.67215601  0.00563160  0.67192660  1
  Ni  Ni47  1  0.83815548  0.16980860  0.83714199  1
  Fe  Fe48  1  0.83734247  0.50366249  0.50464215  1
  Fe  Fe49  1  0.67016622  0.33639482  0.67017864  1
  Cr  Cr50  1  0.83856100  0.50290295  0.83813552  1
  Fe  Fe51  1  0.83858635  0.83735336  0.50396144  1
  Fe  Fe52  1  0.67077397  0.67071660  0.67119052  1
  Fe  Fe53  1  0.83657918  0.83940403  0.83793116  1
" 