444,Ni40Fe60_17,-242.486487542027, 223.592413332906,Ni40Fe60,"# generated using pymatgen
 data_Fe7Ni11
_symmetry_space_group_name_H-M   'P 1'
_cell_length_a   7.40714975
_cell_length_b   7.40714975
_cell_length_c   10.47529163
_cell_angle_alpha   90.00000000
_cell_angle_beta   90.00000000
_cell_angle_gamma   90.00000000
_symmetry_Int_Tables_number   1
_chemical_formula_structural   Fe7Ni11
_chemical_formula_sum   'Fe21 Ni33'
_cell_volume   574.73596093
_cell_formula_units_Z   3
loop_
 _symmetry_equiv_pos_site_id
 _symmetry_equiv_pos_as_xyz
  1  'x, y, z'
loop_
 _atom_site_type_symbol
 _atom_site_label
 _atom_site_symmetry_multiplicity
 _atom_site_fract_x
 _atom_site_fract_y
 _atom_site_fract_z
 _atom_site_occupancy
  Ni  Ni0  1  0.00419289  1.00360853  1.00332555  1
  Fe  Fe1  1  0.17102376  0.17102291  0.17010900  1
  Fe  Fe2  1  1.00381701  1.00389438  0.33718931  1
  Fe  Fe3  1  0.00449053  0.33707640  0.00412378  1
  Ni  Ni4  1  0.17039394  0.50404906  0.17081055  1
  Fe  Fe5  1  1.00388384  0.33912129  0.33775035  1
  Fe  Fe6  1  1.00381454  0.67086871  0.00404947  1
  Fe  Fe7  1  0.17072130  0.83676638  0.17111839  1
  Ni  Ni8  1  0.00422766  0.67189283  0.33745279  1
  Ni  Ni9  1  0.33637583  0.00431877  1.00400101  1
  Ni  Ni10  1  0.50445699  0.16991786  0.17024745  1
  Fe  Fe11  1  0.33839653  1.00347597  0.33777758  1
  Ni  Ni12  1  0.33820809  0.33714454  1.00354945  1
  Ni  Ni13  1  0.50327950  0.50439044  0.17045577  1
  Ni  Ni14  1  0.33833284  0.33714581  0.33830552  1
  Ni  Ni15  1  0.33718566  0.67066726  1.00381135  1
  Ni  Ni16  1  0.50480819  0.83781842  0.16999319  1
  Ni  Ni17  1  0.33646020  0.67038813  0.33821848  1
  Ni  Ni18  1  0.67156060  0.00462947  1.00377012  1
  Ni  Ni19  1  0.83661200  0.17057758  0.16978536  1
  Fe  Fe20  1  0.66991790  1.00370950  0.33680550  1
  Ni  Ni21  1  0.67002566  0.33712979  0.00413776  1
  Ni  Ni22  1  0.83845735  0.50440016  0.16991273  1
  Ni  Ni23  1  0.66993933  0.33713360  0.33755778  1
  Ni  Ni24  1  0.67073320  0.67036852  1.00366181  1
  Ni  Ni25  1  0.83627079  0.83715320  0.17124757  1
  Ni  Ni26  1  0.67144347  0.67003108  0.33844765  1
  Ni  Ni27  1  0.17079922  0.17165011  0.50384799  1
  Fe  Fe28  1  1.00370904  0.00438422  0.67097386  1
  Ni  Ni29  1  0.17151016  0.17242816  0.83759637  1
  Ni  Ni30  1  0.16925483  0.50427955  0.50396139  1
  Fe  Fe31  1  1.00404151  0.33798387  0.67025219  1
  Ni  Ni32  1  0.16998079  0.50313898  0.83736017  1
  Ni  Ni33  1  0.17161295  0.83620495  0.50465956  1
  Ni  Ni34  1  0.00469304  0.67185931  0.67056602  1
  Fe  Fe35  1  0.17105915  0.83794244  0.83712041  1
  Ni  Ni36  1  0.50434515  0.16945902  0.50397456  1
  Fe  Fe37  1  0.33775016  0.00427302  0.67082853  1
  Ni  Ni38  1  0.50350721  0.16939608  0.83790909  1
  Fe  Fe39  1  0.50385102  0.50317279  0.50294352  1
  Fe  Fe40  1  0.33666927  0.33734109  0.67085029  1
  Fe  Fe41  1  0.50381183  0.50373953  0.83847984  1
  Ni  Ni42  1  0.50384051  0.83808304  0.50396322  1
  Fe  Fe43  1  0.33711676  0.67051431  0.67048326  1
  Ni  Ni44  1  0.50551133  0.83844040  0.83817639  1
  Ni  Ni45  1  0.83698370  0.17181797  0.50462476  1
  Fe  Fe46  1  0.67067264  1.00393423  0.67120086  1
  Fe  Fe47  1  0.83699082  0.17018142  0.83768823  1
  Ni  Ni48  1  0.83887302  0.50377183  0.50384402  1
  Ni  Ni49  1  0.67025101  0.33653671  0.67042968  1
  Fe  Fe50  1  0.83681087  0.50407686  0.83693949  1
  Fe  Fe51  1  0.83839190  0.83726215  0.50403501  1
  Fe  Fe52  1  0.67131112  0.67084988  0.67084960  1
  Ni  Ni53  1  0.83595671  0.83691280  0.83716175  1
" 