5739,Ni40Fe60_15,-242.474081219994, 221.121714717916,Ni40Fe60,"# generated using pymatgen
 data_Fe7Ni11
_symmetry_space_group_name_H-M   'P 1'
_cell_length_a   7.40412768
_cell_length_b   7.40412768
_cell_length_c   10.47101778
_cell_angle_alpha   90.00000000
_cell_angle_beta   90.00000000
_cell_angle_gamma   90.00000000
_symmetry_Int_Tables_number   1
_chemical_formula_structural   Fe7Ni11
_chemical_formula_sum   'Fe21 Ni33'
_cell_volume   574.03278258
_cell_formula_units_Z   3
loop_
 _symmetry_equiv_pos_site_id
 _symmetry_equiv_pos_as_xyz
  1  'x, y, z'
loop_
 _atom_site_type_symbol
 _atom_site_label
 _atom_site_symmetry_multiplicity
 _atom_site_fract_x
 _atom_site_fract_y
 _atom_site_fract_z
 _atom_site_occupancy
  Fe  Fe0  1  0.00426550  0.00442944  0.00487324  1
  Ni  Ni1  1  0.17142187  0.16807647  0.17039469  1
  Ni  Ni2  1  0.00534056  1.00424087  0.33852914  1
  Ni  Ni3  1  1.00344812  0.33805288  0.00613774  1
  Fe  Fe4  1  0.17098917  0.50344757  0.17197041  1
  Fe  Fe5  1  0.00480046  0.33789570  0.33817967  1
  Ni  Ni6  1  0.00494731  0.66955968  1.00364402  1
  Ni  Ni7  1  0.17126758  0.83685054  0.17088158  1
  Ni  Ni8  1  1.00381114  0.67104733  0.33841770  1
  Ni  Ni9  1  0.33835437  1.00338827  1.00419141  1
  Ni  Ni10  1  0.50491440  0.17283653  0.16976193  1
  Ni  Ni11  1  0.33713287  0.00460259  0.33802934  1
  Fe  Fe12  1  0.33738542  0.33749816  0.00529217  1
  Ni  Ni13  1  0.50563356  0.50444548  0.17065374  1
  Ni  Ni14  1  0.33843845  0.33635243  0.33705085  1
  Ni  Ni15  1  0.33611246  0.67232044  1.00411058  1
  Fe  Fe16  1  0.50378054  0.83831807  0.17101908  1
  Ni  Ni17  1  0.33744480  0.67185448  0.33840943  1
  Ni  Ni18  1  0.67002171  0.00540590  0.00486516  1
  Ni  Ni19  1  0.83658537  0.17253279  0.17190828  1
  Fe  Fe20  1  0.67030394  0.00441232  0.33796276  1
  Ni  Ni21  1  0.67273323  0.33646736  1.00201793  1
  Ni  Ni22  1  0.83525609  0.50446177  0.17047405  1
  Ni  Ni23  1  0.67126728  0.33774708  0.33918774  1
  Fe  Fe24  1  0.67077680  0.67081579  1.00408229  1
  Fe  Fe25  1  0.83812548  0.83823749  0.17183601  1
  Ni  Ni26  1  0.67148379  0.66975192  0.33673916  1
  Ni  Ni27  1  0.17196005  0.17010565  0.50440024  1
  Fe  Fe28  1  1.00335286  0.00517761  0.66982860  1
  Ni  Ni29  1  0.17023358  0.16934799  0.83802959  1
  Ni  Ni30  1  0.17123252  0.50578657  0.50394858  1
  Ni  Ni31  1  0.00456480  0.33798797  0.66897140  1
  Fe  Fe32  1  0.16956477  0.50245125  0.83701958  1
  Ni  Ni33  1  0.17134701  0.83721423  0.50541325  1
  Fe  Fe34  1  1.00396413  0.67203829  0.67038093  1
  Ni  Ni35  1  0.17144972  0.83760496  0.83673578  1
  Ni  Ni36  1  0.50436841  0.17129001  0.50461676  1
  Ni  Ni37  1  0.33765610  0.00429795  0.67032991  1
  Fe  Fe38  1  0.50343262  0.16894875  0.83745342  1
  Fe  Fe39  1  0.50443283  0.50464014  0.50291177  1
  Fe  Fe40  1  0.33771170  0.33667581  0.66963829  1
  Fe  Fe41  1  0.50340665  0.50406519  0.83880705  1
  Fe  Fe42  1  0.50474905  0.83775121  0.50445487  1
  Fe  Fe43  1  0.33801133  0.67125038  0.67131054  1
  Fe  Fe44  1  0.50406459  0.83970615  0.83739418  1
  Ni  Ni45  1  0.83640387  0.17094256  0.50389052  1
  Ni  Ni46  1  0.66966972  1.00371593  0.66959350  1
  Ni  Ni47  1  0.83742493  0.17118918  0.83702499  1
  Ni  Ni48  1  0.83642033  0.50527548  0.50511627  1
  Fe  Fe49  1  0.67118583  0.33663047  0.67084730  1
  Fe  Fe50  1  0.83990055  0.50349921  0.83732731  1
  Ni  Ni51  1  0.83769885  0.83654760  0.50423204  1
  Ni  Ni52  1  0.67107190  0.67069507  0.67217547  1
  Fe  Fe53  1  0.83812377  0.83955977  0.83697252  1
" 