6138,Ni40Fe6Cr53_4,-217.29812955942, 145.38678154811,Ni40Fe6Cr53,"# generated using pymatgen
 data_Cr10FeNi7
_symmetry_space_group_name_H-M   'P 1'
_cell_length_a   7.52312337
_cell_length_b   7.52312337
_cell_length_c   10.63930310
_cell_angle_alpha   90.00000000
_cell_angle_beta   90.00000000
_cell_angle_gamma   90.00000000
_symmetry_Int_Tables_number   1
_chemical_formula_structural   Cr10FeNi7
_chemical_formula_sum   'Cr30 Fe3 Ni21'
_cell_volume   602.15673555
_cell_formula_units_Z   3
loop_
 _symmetry_equiv_pos_site_id
 _symmetry_equiv_pos_as_xyz
  1  'x, y, z'
loop_
 _atom_site_type_symbol
 _atom_site_label
 _atom_site_symmetry_multiplicity
 _atom_site_fract_x
 _atom_site_fract_y
 _atom_site_fract_z
 _atom_site_occupancy
  Cr  Cr0  1  -0.00215641  -0.00022147  -0.00279536  1
  Ni  Ni1  1  0.16030145  0.16448791  0.16352456  1
  Fe  Fe2  1  -0.00185910  -0.00074257  0.32658677  1
  Ni  Ni3  1  0.99614017  0.32741260  0.99604741  1
  Ni  Ni4  1  0.16309910  0.49277761  0.16554933  1
  Ni  Ni5  1  -0.00237468  0.33025039  0.32792622  1
  Cr  Cr6  1  -0.00298888  0.65798053  0.99627037  1
  Ni  Ni7  1  0.16445981  0.83169744  0.16415709  1
  Cr  Cr8  1  -0.00023318  0.66036291  0.33062825  1
  Ni  Ni9  1  0.32737796  -0.00154809  -0.00232751  1
  Fe  Fe10  1  0.49436612  0.16470646  0.16411419  1
  Cr  Cr11  1  0.32963306  -0.00311181  0.32702909  1
  Cr  Cr12  1  0.32606819  0.32653219  -0.00090510  1
  Cr  Cr13  1  0.49624837  0.49588755  0.16523443  1
  Ni  Ni14  1  0.32684034  0.33133852  0.32784023  1
  Cr  Cr15  1  0.32771745  0.66364438  -0.00048329  1
  Cr  Cr16  1  0.49636767  0.82651412  0.16153263  1
  Ni  Ni17  1  0.32774883  0.66028070  0.32877190  1
  Cr  Cr18  1  0.66042905  -0.00089437  -0.00274799  1
  Ni  Ni19  1  0.83370440  0.16536155  0.16496565  1
  Cr  Cr20  1  0.66247162  -0.00128645  0.32758540  1
  Cr  Cr21  1  0.66581724  0.32833203  0.99556703  1
  Cr  Cr22  1  0.82950501  0.49386807  0.16273995  1
  Ni  Ni23  1  0.66444199  0.32995024  0.32873236  1
  Ni  Ni24  1  0.66437783  0.66197598  0.99468723  1
  Cr  Cr25  1  0.83067982  0.83008136  0.16369921  1
  Ni  Ni26  1  0.66264088  0.66027393  0.33081249  1
  Cr  Cr27  1  0.16279203  0.16618449  0.49685832  1
  Cr  Cr28  1  -0.00363201  -0.00246640  0.66373210  1
  Ni  Ni29  1  0.16211285  0.16345437  0.82940058  1
  Ni  Ni30  1  0.16556848  0.49451391  0.49461294  1
  Cr  Cr31  1  0.99534618  0.33163088  0.66498088  1
  Cr  Cr32  1  0.16379890  0.49256143  0.82993006  1
  Cr  Cr33  1  0.16438031  0.82981720  0.49684193  1
  Cr  Cr34  1  0.99618097  0.65944078  0.66193847  1
  Cr  Cr35  1  0.16557816  0.83303776  0.82863684  1
  Cr  Cr36  1  0.49489764  0.16759365  0.49727065  1
  Ni  Ni37  1  0.32909687  -0.00249597  0.66489705  1
  Cr  Cr38  1  0.49252680  0.16437201  0.82718909  1
  Cr  Cr39  1  0.49547774  0.49541021  0.49593514  1
  Ni  Ni40  1  0.32930309  0.32996993  0.66247218  1
  Cr  Cr41  1  0.49790280  0.49742359  0.82785448  1
  Cr  Cr42  1  0.49583623  0.82607899  0.49860455  1
  Ni  Ni43  1  0.33002658  0.66138384  0.66113239  1
  Cr  Cr44  1  0.49508759  0.82726900  0.82888446  1
  Cr  Cr45  1  0.83129032  0.16590923  0.49340471  1
  Cr  Cr46  1  0.66241277  -0.00133574  0.66357459  1
  Ni  Ni47  1  0.83202521  0.16747427  0.82988829  1
  Fe  Fe48  1  0.82874389  0.49453088  0.49543665  1
  Ni  Ni49  1  0.66372998  0.33256212  0.66359341  1
  Ni  Ni50  1  0.82716059  0.49327591  0.82908785  1
  Cr  Cr51  1  0.82896888  0.82885395  0.49401386  1
  Ni  Ni52  1  0.66317480  0.65877808  0.66312738  1
  Cr  Cr53  1  0.82813603  0.82760763  0.83070641  1
" 