7910,Ni40Fe51Cr7_6,-235.969856192912, 212.767391638894,Ni40Fe51Cr7,"# generated using pymatgen
 data_Cr2Fe9Ni7
_symmetry_space_group_name_H-M   'P 1'
_cell_length_a   7.42134539
_cell_length_b   7.42134539
_cell_length_c   10.49536730
_cell_angle_alpha   90.00000000
_cell_angle_beta   90.00000000
_cell_angle_gamma   90.00000000
_symmetry_Int_Tables_number   1
_chemical_formula_structural   Cr2Fe9Ni7
_chemical_formula_sum   'Cr6 Fe27 Ni21'
_cell_volume   578.04670545
_cell_formula_units_Z   3
loop_
 _symmetry_equiv_pos_site_id
 _symmetry_equiv_pos_as_xyz
  1  'x, y, z'
loop_
 _atom_site_type_symbol
 _atom_site_label
 _atom_site_symmetry_multiplicity
 _atom_site_fract_x
 _atom_site_fract_y
 _atom_site_fract_z
 _atom_site_occupancy
  Fe  Fe0  1  0.00436799  1.00239065  1.00287244  1
  Cr  Cr1  1  0.17196740  0.16975519  0.16989160  1
  Ni  Ni2  1  1.00065119  1.00286925  0.33491473  1
  Fe  Fe3  1  0.00494336  0.33769822  0.00376321  1
  Ni  Ni4  1  0.16991725  0.50128521  0.17055727  1
  Fe  Fe5  1  0.00345733  0.33583903  0.33686273  1
  Cr  Cr6  1  0.00406211  0.67106570  0.00318092  1
  Fe  Fe7  1  0.16862669  0.83568136  0.17038303  1
  Fe  Fe8  1  1.00061876  0.67013089  0.33538767  1
  Fe  Fe9  1  0.33676868  1.00211124  1.00253278  1
  Fe  Fe10  1  0.50551892  0.17067015  0.16958412  1
  Ni  Ni11  1  0.33786993  0.00470440  0.33573469  1
  Ni  Ni12  1  0.33784974  0.33733640  1.00268552  1
  Fe  Fe13  1  0.50370090  0.50213733  0.16805170  1
  Ni  Ni14  1  0.33812548  0.33660161  0.33722700  1
  Ni  Ni15  1  0.33636497  0.66848354  0.00361207  1
  Fe  Fe16  1  0.50356835  0.83671115  0.16940707  1
  Cr  Cr17  1  0.33544633  0.66803251  0.33445220  1
  Fe  Fe18  1  0.66810897  1.00135010  0.00339200  1
  Fe  Fe19  1  0.83562555  0.17054826  0.16925276  1
  Ni  Ni20  1  0.67133555  0.00411917  0.33638778  1
  Fe  Fe21  1  0.66838538  0.33825721  1.00307190  1
  Ni  Ni22  1  0.83476972  0.50424533  0.17052144  1
  Fe  Fe23  1  0.66921318  0.33555011  0.33664974  1
  Fe  Fe24  1  0.66819089  0.66972073  1.00262008  1
  Ni  Ni25  1  0.83406706  0.83619946  0.17075420  1
  Fe  Fe26  1  0.67031811  0.67102317  0.33710559  1
  Ni  Ni27  1  0.17093779  0.17123227  0.50343681  1
  Ni  Ni28  1  1.00185714  1.00237838  0.67045215  1
  Ni  Ni29  1  0.17197532  0.17033594  0.83543009  1
  Fe  Fe30  1  0.16884260  0.50229301  0.50365371  1
  Fe  Fe31  1  0.00475499  0.33706344  0.66907552  1
  Fe  Fe32  1  0.17107914  0.50179486  0.83646796  1
  Cr  Cr33  1  0.16776733  0.83912683  0.50278687  1
  Ni  Ni34  1  1.00290308  0.67026924  0.67047515  1
  Fe  Fe35  1  0.17115083  0.83754529  0.83495360  1
  Fe  Fe36  1  0.50201579  0.16750692  0.50249204  1
  Fe  Fe37  1  0.33734094  0.00360122  0.66990588  1
  Ni  Ni38  1  0.50031592  0.17059438  0.83681446  1
  Fe  Fe39  1  0.50200927  0.50427343  0.50451157  1
  Ni  Ni40  1  0.33575151  0.33704722  0.66972187  1
  Ni  Ni41  1  0.50211793  0.50435438  0.83731416  1
  Fe  Fe42  1  0.50386450  0.83747584  0.50360500  1
  Ni  Ni43  1  0.33620579  0.66741089  0.67159558  1
  Fe  Fe44  1  0.50308210  0.83713709  0.83598570  1
  Fe  Fe45  1  0.83871563  0.16681228  0.50266207  1
  Ni  Ni46  1  0.67079470  1.00198530  0.66920776  1
  Cr  Cr47  1  0.83778376  0.16796150  0.83774023  1
  Fe  Fe48  1  0.83791622  0.50439812  0.50244461  1
  Cr  Cr49  1  0.66765404  0.33460024  0.66941459  1
  Fe  Fe50  1  0.83544721  0.50349336  0.83651633  1
  Ni  Ni51  1  0.83448886  0.83534125  0.50318834  1
  Ni  Ni52  1  0.67024840  0.67084352  0.67051933  1
  Ni  Ni53  1  0.83541113  0.83487817  0.83504412  1
" 