2560,Ni40Fe17Cr42_0,-222.505749183521, 166.649156854131,Ni40Fe17Cr42,"# generated using pymatgen
 data_Cr8Fe3Ni7
_symmetry_space_group_name_H-M   'P 1'
_cell_length_a   7.49332200
_cell_length_b   7.49332200
_cell_length_c   10.59715759
_cell_angle_alpha   90.00000000
_cell_angle_beta   90.00000000
_cell_angle_gamma   90.00000000
_symmetry_Int_Tables_number   1
_chemical_formula_structural   Cr8Fe3Ni7
_chemical_formula_sum   'Cr24 Fe9 Ni21'
_cell_volume   595.02906940
_cell_formula_units_Z   3
loop_
 _symmetry_equiv_pos_site_id
 _symmetry_equiv_pos_as_xyz
  1  'x, y, z'
loop_
 _atom_site_type_symbol
 _atom_site_label
 _atom_site_symmetry_multiplicity
 _atom_site_fract_x
 _atom_site_fract_y
 _atom_site_fract_z
 _atom_site_occupancy
  Cr  Cr0  1  -0.00030071  -0.00163970  -0.00127833  1
  Ni  Ni1  1  0.16708671  0.17004965  0.16422679  1
  Cr  Cr2  1  -0.00168430  0.00025559  0.32923319  1
  Fe  Fe3  1  0.00110622  0.33190550  -0.00145428  1
  Ni  Ni4  1  0.16626993  0.49530094  0.16648301  1
  Ni  Ni5  1  0.00112916  0.33487574  0.33291733  1
  Cr  Cr6  1  0.99463911  0.66497753  0.99712969  1
  Cr  Cr7  1  0.16675060  0.82790545  0.16649673  1
  Fe  Fe8  1  -0.00166251  0.66079086  0.33187491  1
  Cr  Cr9  1  0.33154214  0.00173626  0.99582672  1
  Ni  Ni10  1  0.49626811  0.16616821  0.16216682  1
  Cr  Cr11  1  0.33370895  0.00188496  0.33141317  1
  Ni  Ni12  1  0.33225869  0.33118108  -0.00054392  1
  Fe  Fe13  1  0.49676522  0.49775506  0.16241418  1
  Cr  Cr14  1  0.33183185  0.33187888  0.33234808  1
  Cr  Cr15  1  0.33418697  0.66324848  0.99688564  1
  Ni  Ni16  1  0.49910225  0.82989916  0.16564260  1
  Fe  Fe17  1  0.33208664  0.66248229  0.33145477  1
  Cr  Cr18  1  0.66342641  0.99561306  0.00110193  1
  Cr  Cr19  1  0.83119560  0.16728888  0.16465099  1
  Cr  Cr20  1  0.66282992  -0.00169699  0.32973342  1
  Fe  Fe21  1  0.66143519  0.33340748  0.99659762  1
  Cr  Cr22  1  0.83254128  0.49717117  0.16296871  1
  Cr  Cr23  1  0.66318244  0.33279647  0.33246111  1
  Ni  Ni24  1  0.66385643  0.66242658  0.99743808  1
  Ni  Ni25  1  0.82821243  0.82841511  0.16511126  1
  Cr  Cr26  1  0.66494424  0.66350869  0.33185028  1
  Ni  Ni27  1  0.16512308  0.16751783  0.49908462  1
  Ni  Ni28  1  -0.00064002  0.00040753  0.66605518  1
  Ni  Ni29  1  0.16442875  0.16651729  0.83149640  1
  Ni  Ni30  1  0.16362319  0.49699742  0.49557238  1
  Fe  Fe31  1  0.99766909  0.33196845  0.66345680  1
  Cr  Cr32  1  0.16527589  0.49571821  0.83285676  1
  Cr  Cr33  1  0.16687239  0.83014232  0.49777767  1
  Cr  Cr34  1  0.99654766  0.66273504  0.66641697  1
  Ni  Ni35  1  0.16741850  0.83414635  0.83034125  1
  Ni  Ni36  1  0.49872251  0.16470959  0.50101608  1
  Cr  Cr37  1  0.33079019  0.00065669  0.66738733  1
  Fe  Fe38  1  0.49892210  0.16731764  0.83129331  1
  Fe  Fe39  1  0.49954030  0.49753409  0.50036943  1
  Cr  Cr40  1  0.33194169  0.33148487  0.66377596  1
  Ni  Ni41  1  0.50214332  0.49780324  0.83276676  1
  Fe  Fe42  1  0.49899743  0.83144238  0.50011358  1
  Cr  Cr43  1  0.33366399  0.66262895  0.66563541  1
  Ni  Ni44  1  0.49994086  0.82995301  0.82946651  1
  Cr  Cr45  1  0.83083224  0.16704520  0.50058067  1
  Ni  Ni46  1  0.66359681  -0.00128549  0.66413112  1
  Cr  Cr47  1  0.83069176  0.16856284  0.82904446  1
  Ni  Ni48  1  0.83200280  0.49712765  0.50035889  1
  Ni  Ni49  1  0.66406282  0.33440743  0.66507557  1
  Ni  Ni50  1  0.82648077  0.49580540  0.83098097  1
  Cr  Cr51  1  0.83028153  0.83132563  0.49952757  1
  Ni  Ni52  1  0.66476075  0.66168879  0.66568494  1
  Cr  Cr53  1  0.82892851  0.83138319  0.82991084  1
" 