3922,Ni40Fe17Cr42_14,-222.550627085783, 164.441918365678,Ni40Fe17Cr42,"# generated using pymatgen
 data_Cr8Fe3Ni7
_symmetry_space_group_name_H-M   'P 1'
_cell_length_a   7.49572391
_cell_length_b   7.49572391
_cell_length_c   10.60055441
_cell_angle_alpha   90.00000000
_cell_angle_beta   90.00000000
_cell_angle_gamma   90.00000000
_symmetry_Int_Tables_number   1
_chemical_formula_structural   Cr8Fe3Ni7
_chemical_formula_sum   'Cr24 Fe9 Ni21'
_cell_volume   595.60144489
_cell_formula_units_Z   3
loop_
 _symmetry_equiv_pos_site_id
 _symmetry_equiv_pos_as_xyz
  1  'x, y, z'
loop_
 _atom_site_type_symbol
 _atom_site_label
 _atom_site_symmetry_multiplicity
 _atom_site_fract_x
 _atom_site_fract_y
 _atom_site_fract_z
 _atom_site_occupancy
  Cr  Cr0  1  -0.00096692  -0.00142209  -0.00074445  1
  Ni  Ni1  1  0.16174785  0.16885627  0.16684640  1
  Fe  Fe2  1  -0.00100435  -0.00055085  0.33313857  1
  Fe  Fe3  1  0.00057082  0.33323980  -0.00069224  1
  Ni  Ni4  1  0.16289217  0.49551194  0.16344620  1
  Ni  Ni5  1  0.00165281  0.33108172  0.33038234  1
  Ni  Ni6  1  -0.00096265  0.66325808  -0.00145359  1
  Cr  Cr7  1  0.16314851  0.83070576  0.16547299  1
  Cr  Cr8  1  0.99734701  0.66416230  0.33426502  1
  Cr  Cr9  1  0.33155313  -0.00048125  0.99406420  1
  Cr  Cr10  1  0.49688511  0.16567754  0.16540676  1
  Cr  Cr11  1  0.32781057  0.00115234  0.33366525  1
  Cr  Cr12  1  0.32993472  0.33184418  0.99793646  1
  Ni  Ni13  1  0.49684321  0.49787862  0.16612316  1
  Fe  Fe14  1  0.32859877  0.33289740  0.33286075  1
  Cr  Cr15  1  0.32996679  0.66289120  0.99635805  1
  Cr  Cr16  1  0.49934793  0.83046991  0.16245184  1
  Cr  Cr17  1  0.33117881  0.66112969  0.33166007  1
  Ni  Ni18  1  0.66474525  0.99789449  0.99684128  1
  Cr  Cr19  1  0.83408346  0.16458366  0.16338434  1
  Cr  Cr20  1  0.66696603  0.99741039  0.33175608  1
  Cr  Cr21  1  0.66383190  0.33138575  -0.00185813  1
  Fe  Fe22  1  0.83501596  0.49791836  0.16468784  1
  Cr  Cr23  1  0.66396987  0.33433576  0.33313779  1
  Cr  Cr24  1  0.66493707  0.66438369  0.00110811  1
  Fe  Fe25  1  0.83269844  0.83026701  0.16382367  1
  Cr  Cr26  1  0.66589088  0.66243179  0.33099804  1
  Ni  Ni27  1  0.16709012  0.16598215  0.49577939  1
  Cr  Cr28  1  0.00145877  0.99597701  0.66172309  1
  Ni  Ni29  1  0.16835523  0.16435964  0.83149042  1
  Ni  Ni30  1  0.16438200  0.49687232  0.49854521  1
  Cr  Cr31  1  0.00020040  0.33278926  0.66523737  1
  Fe  Fe32  1  0.16528656  0.49767985  0.83085668  1
  Ni  Ni33  1  0.16155514  0.83163129  0.49877291  1
  Ni  Ni34  1  0.99768352  0.66617750  0.66253829  1
  Ni  Ni35  1  0.16508401  0.83062576  0.83077168  1
  Ni  Ni36  1  0.49556789  0.16790843  0.50086770  1
  Fe  Fe37  1  0.33128618  0.00099873  0.66531893  1
  Ni  Ni38  1  0.49678859  0.16490080  0.82887830  1
  Ni  Ni39  1  0.49834139  0.49489140  0.49923756  1
  Ni  Ni40  1  0.33451594  0.32912795  0.66337615  1
  Ni  Ni41  1  0.49770782  0.49657203  0.82899798  1
  Cr  Cr42  1  0.49824487  0.83135441  0.50086966  1
  Cr  Cr43  1  0.32984020  0.66366539  0.66611748  1
  Fe  Fe44  1  0.49824108  0.83295426  0.83011113  1
  Cr  Cr45  1  0.83104263  0.16580305  0.49903044  1
  Fe  Fe46  1  0.66233634  -0.00151475  0.66487293  1
  Cr  Cr47  1  0.82939352  0.16573928  0.83186753  1
  Ni  Ni48  1  0.83145574  0.50023304  0.49979405  1
  Ni  Ni49  1  0.65941238  0.33276263  0.66352292  1
  Cr  Cr50  1  0.83236486  0.49869649  0.83027508  1
  Ni  Ni51  1  0.83338607  0.82886016  0.49901164  1
  Ni  Ni52  1  0.66536336  0.66282224  0.66285389  1
  Cr  Cr53  1  0.83163865  0.82992268  0.83092124  1
" 