6029,Ni40Fe6Cr53_2,-217.214207841129, 138.874908456294,Ni40Fe6Cr53,"# generated using pymatgen
 data_Cr10FeNi7
_symmetry_space_group_name_H-M   'P 1'
_cell_length_a   7.52657614
_cell_length_b   7.52657614
_cell_length_c   10.64418606
_cell_angle_alpha   90.00000000
_cell_angle_beta   90.00000000
_cell_angle_gamma   90.00000000
_symmetry_Int_Tables_number   1
_chemical_formula_structural   Cr10FeNi7
_chemical_formula_sum   'Cr30 Fe3 Ni21'
_cell_volume   602.98620452
_cell_formula_units_Z   3
loop_
 _symmetry_equiv_pos_site_id
 _symmetry_equiv_pos_as_xyz
  1  'x, y, z'
loop_
 _atom_site_type_symbol
 _atom_site_label
 _atom_site_symmetry_multiplicity
 _atom_site_fract_x
 _atom_site_fract_y
 _atom_site_fract_z
 _atom_site_occupancy
  Ni  Ni0  1  -0.00290349  0.99382754  -0.00107304  1
  Ni  Ni1  1  0.16367812  0.15920791  0.16199060  1
  Ni  Ni2  1  -0.00246658  0.99368838  0.32660021  1
  Fe  Fe3  1  -0.00169811  0.32645253  -0.00276729  1
  Cr  Cr4  1  0.16386069  0.49431637  0.16023964  1
  Cr  Cr5  1  -0.00044901  0.32656771  0.32889139  1
  Cr  Cr6  1  0.99538065  0.66504302  -0.00250858  1
  Ni  Ni7  1  0.15996447  0.83312530  0.16273681  1
  Ni  Ni8  1  0.99593946  0.66648751  0.32867439  1
  Ni  Ni9  1  0.32759902  -0.00034692  -0.00138268  1
  Cr  Cr10  1  0.49465295  0.16261579  0.16369549  1
  Fe  Fe11  1  0.32784040  -0.00150516  0.32831754  1
  Ni  Ni12  1  0.32636682  0.32667675  0.99518402  1
  Cr  Cr13  1  0.49561242  0.49543756  0.16409824  1
  Ni  Ni14  1  0.32911186  0.32594272  0.33130896  1
  Fe  Fe15  1  0.32755470  0.66553037  -0.00271026  1
  Cr  Cr16  1  0.49492407  0.83201661  0.16285238  1
  Cr  Cr17  1  0.32693790  0.66274752  0.32749200  1
  Ni  Ni18  1  0.66337319  0.99511613  0.99422999  1
  Cr  Cr19  1  0.83136753  0.15981980  0.16172698  1
  Ni  Ni20  1  0.66440181  -0.00386869  0.32907148  1
  Cr  Cr21  1  0.66094855  0.32781357  0.99587415  1
  Cr  Cr22  1  0.82868287  0.49557403  0.16786814  1
  Ni  Ni23  1  0.65903513  0.32688803  0.33029164  1
  Cr  Cr24  1  0.66450089  0.66579077  -0.00182442  1
  Ni  Ni25  1  0.83096743  0.83218105  0.16514272  1
  Ni  Ni26  1  0.66539722  0.66585503  0.32717921  1
  Ni  Ni27  1  0.16569135  0.16354442  0.49133048  1
  Cr  Cr28  1  0.99538271  0.99491918  0.66228300  1
  Cr  Cr29  1  0.16332745  0.16294602  0.83354221  1
  Ni  Ni30  1  0.16203406  0.49531550  0.49527539  1
  Cr  Cr31  1  0.00021568  0.33050376  0.66181524  1
  Ni  Ni32  1  0.16248844  0.49579470  0.83185891  1
  Cr  Cr33  1  0.16136348  0.82966611  0.49473634  1
  Ni  Ni34  1  -0.00250403  0.66194594  0.66337796  1
  Cr  Cr35  1  0.16240093  0.82890512  0.83019135  1
  Ni  Ni36  1  0.49536660  0.16143028  0.49220065  1
  Cr  Cr37  1  0.33148796  0.00036156  0.65890714  1
  Ni  Ni38  1  0.49540670  0.16068269  0.83127246  1
  Cr  Cr39  1  0.49661360  0.49609062  0.49107660  1
  Cr  Cr40  1  0.32911794  0.32843147  0.65996826  1
  Cr  Cr41  1  0.49222935  0.49555607  0.83326172  1
  Cr  Cr42  1  0.49706526  0.83237336  0.49455552  1
  Cr  Cr43  1  0.32623634  0.66065452  0.66382537  1
  Cr  Cr44  1  0.49504988  0.83349552  0.83067101  1
  Cr  Cr45  1  0.82869027  0.16087520  0.49488831  1
  Ni  Ni46  1  0.66166157  -0.00287027  0.66513661  1
  Cr  Cr47  1  0.82911780  0.15953049  0.83168134  1
  Cr  Cr48  1  0.83104276  0.49687846  0.49301908  1
  Cr  Cr49  1  0.65942112  0.32539875  0.66228039  1
  Cr  Cr50  1  0.83305834  0.49506690  0.82809921  1
  Cr  Cr51  1  0.82957125  0.82951164  0.49591983  1
  Cr  Cr52  1  0.66464193  0.66521873  0.66483078  1
  Ni  Ni53  1  0.82969427  0.83122604  0.82924911  1
" 