6546,Ni40Fe60_2,-242.364022818093, 222.238524428388,Ni40Fe60,"# generated using pymatgen
 data_Fe7Ni11
_symmetry_space_group_name_H-M   'P 1'
_cell_length_a   7.40707901
_cell_length_b   7.40707901
_cell_length_c   10.47519159
_cell_angle_alpha   90.00000000
_cell_angle_beta   90.00000000
_cell_angle_gamma   90.00000000
_symmetry_Int_Tables_number   1
_chemical_formula_structural   Fe7Ni11
_chemical_formula_sum   'Fe21 Ni33'
_cell_volume   574.71949520
_cell_formula_units_Z   3
loop_
 _symmetry_equiv_pos_site_id
 _symmetry_equiv_pos_as_xyz
  1  'x, y, z'
loop_
 _atom_site_type_symbol
 _atom_site_label
 _atom_site_symmetry_multiplicity
 _atom_site_fract_x
 _atom_site_fract_y
 _atom_site_fract_z
 _atom_site_occupancy
  Ni  Ni0  1  0.00502613  1.00291407  1.00397533  1
  Fe  Fe1  1  0.17102319  0.16932215  0.17055867  1
  Fe  Fe2  1  1.00386710  0.00501706  0.33702453  1
  Fe  Fe3  1  1.00369163  0.33688155  1.00358629  1
  Ni  Ni4  1  0.17079253  0.50503661  0.17099307  1
  Ni  Ni5  1  1.00355198  0.33777138  0.33728743  1
  Ni  Ni6  1  1.00314991  0.67135060  1.00374669  1
  Ni  Ni7  1  0.17045687  0.83562087  0.16998088  1
  Fe  Fe8  1  0.00496509  0.67048396  0.33707713  1
  Ni  Ni9  1  0.33729135  0.00497695  1.00375690  1
  Ni  Ni10  1  0.50560338  0.17028990  0.17064096  1
  Ni  Ni11  1  0.33729336  1.00377706  0.33762182  1
  Ni  Ni12  1  0.33810275  0.33595736  0.00456330  1
  Fe  Fe13  1  0.50470299  0.50415487  0.17047245  1
  Fe  Fe14  1  0.33745747  0.33712818  0.33748923  1
  Fe  Fe15  1  0.33781222  0.67106992  0.00426862  1
  Ni  Ni16  1  0.50438867  0.83803633  0.17102330  1
  Fe  Fe17  1  0.33684132  0.67010236  0.33752952  1
  Ni  Ni18  1  0.66982902  1.00376861  0.00423132  1
  Ni  Ni19  1  0.83607613  0.16995434  0.17019922  1
  Fe  Fe20  1  0.67082369  0.00563843  0.33649270  1
  Ni  Ni21  1  0.66967766  0.33783691  1.00319568  1
  Fe  Fe22  1  0.83711073  0.50446113  0.17027228  1
  Ni  Ni23  1  0.67129416  0.33774721  0.33833425  1
  Ni  Ni24  1  0.67174307  0.67054175  0.00416860  1
  Ni  Ni25  1  0.83729993  0.83836146  0.17083031  1
  Fe  Fe26  1  0.67033661  0.67048526  0.33730044  1
  Ni  Ni27  1  0.17005458  0.17103568  0.50284396  1
  Fe  Fe28  1  1.00340255  1.00394087  0.67099517  1
  Ni  Ni29  1  0.17028857  0.17171062  0.83795090  1
  Ni  Ni30  1  0.17123522  0.50490325  0.50421962  1
  Ni  Ni31  1  0.00454615  0.33805744  0.67099200  1
  Ni  Ni32  1  0.17061000  0.50403617  0.83692985  1
  Ni  Ni33  1  0.17006689  0.83620286  0.50416665  1
  Ni  Ni34  1  1.00332988  0.66980965  0.66995805  1
  Fe  Fe35  1  0.17024955  0.83752552  0.83769471  1
  Ni  Ni36  1  0.50516907  0.17152155  0.50410251  1
  Fe  Fe37  1  0.33687242  1.00387142  0.67041558  1
  Ni  Ni38  1  0.50461352  0.17050080  0.83740473  1
  Ni  Ni39  1  0.50328913  0.50372749  0.50364454  1
  Fe  Fe40  1  0.33684420  0.33860276  0.67121304  1
  Ni  Ni41  1  0.50359028  0.50453528  0.83821178  1
  Fe  Fe42  1  0.50292708  0.83789245  0.50404813  1
  Fe  Fe43  1  0.33688041  0.66967301  0.67034736  1
  Ni  Ni44  1  0.50515201  0.83710978  0.83760852  1
  Ni  Ni45  1  0.83692288  0.17035315  0.50420240  1
  Fe  Fe46  1  0.67186821  1.00390362  0.67153603  1
  Ni  Ni47  1  0.83724156  0.17014278  0.83774196  1
  Fe  Fe48  1  0.83804763  0.50283735  0.50470879  1
  Fe  Fe49  1  0.67145075  0.33812215  0.67065798  1
  Ni  Ni50  1  0.83794291  0.50456687  0.83761755  1
  Fe  Fe51  1  0.83784415  0.83723690  0.50465543  1
  Ni  Ni52  1  0.67120727  0.67065734  0.67032710  1
  Ni  Ni53  1  0.83673942  0.83743221  0.83777997  1
" 