6968,Ni40Fe60_9,-242.346322660498, 227.56979680827,Ni40Fe60,"# generated using pymatgen
 data_Fe7Ni11
_symmetry_space_group_name_H-M   'P 1'
_cell_length_a   7.40302566
_cell_length_b   7.40302566
_cell_length_c   10.46945929
_cell_angle_alpha   90.00000000
_cell_angle_beta   90.00000000
_cell_angle_gamma   90.00000000
_symmetry_Int_Tables_number   1
_chemical_formula_structural   Fe7Ni11
_chemical_formula_sum   'Fe21 Ni33'
_cell_volume   573.77650665
_cell_formula_units_Z   3
loop_
 _symmetry_equiv_pos_site_id
 _symmetry_equiv_pos_as_xyz
  1  'x, y, z'
loop_
 _atom_site_type_symbol
 _atom_site_label
 _atom_site_symmetry_multiplicity
 _atom_site_fract_x
 _atom_site_fract_y
 _atom_site_fract_z
 _atom_site_occupancy
  Ni  Ni0  1  0.00438742  1.00394265  1.00326735  1
  Ni  Ni1  1  0.17131564  0.17054564  0.17098331  1
  Ni  Ni2  1  0.00514513  1.00317980  0.33800370  1
  Fe  Fe3  1  0.00454598  0.33661668  1.00360322  1
  Fe  Fe4  1  0.16995987  0.50431453  0.17146566  1
  Fe  Fe5  1  1.00418186  0.33676525  0.33804845  1
  Ni  Ni6  1  0.00489703  0.67042630  1.00349755  1
  Fe  Fe7  1  0.16969453  0.83766907  0.17040255  1
  Ni  Ni8  1  1.00382777  0.67099080  0.33789653  1
  Ni  Ni9  1  0.33758708  0.00434483  0.00442122  1
  Fe  Fe10  1  0.50551725  0.17125522  0.17093433  1
  Ni  Ni11  1  0.33703315  0.00545064  0.33696784  1
  Fe  Fe12  1  0.33710556  0.33679296  0.00505261  1
  Ni  Ni13  1  0.50486864  0.50475561  0.17149234  1
  Ni  Ni14  1  0.33795975  0.33705868  0.33804650  1
  Ni  Ni15  1  0.33626651  0.67083592  0.00441799  1
  Fe  Fe16  1  0.50535587  0.83812954  0.17145509  1
  Fe  Fe17  1  0.33838150  0.67129699  0.33767403  1
  Ni  Ni18  1  0.67100559  0.00529919  1.00401343  1
  Ni  Ni19  1  0.83851249  0.17054317  0.17104660  1
  Ni  Ni20  1  0.67079898  0.00451219  0.33794906  1
  Fe  Fe21  1  0.67131365  0.33735195  0.00432990  1
  Ni  Ni22  1  0.83584491  0.50515156  0.17171948  1
  Ni  Ni23  1  0.67025650  0.33838124  0.33812151  1
  Fe  Fe24  1  0.67154213  0.67226149  0.00465452  1
  Ni  Ni25  1  0.83718750  0.83727318  0.17097871  1
  Ni  Ni26  1  0.67251956  0.67008225  0.33702858  1
  Ni  Ni27  1  0.17179062  0.17153644  0.50462748  1
  Fe  Fe28  1  1.00346528  0.00474422  0.67123009  1
  Ni  Ni29  1  0.17223714  0.17019069  0.83736016  1
  Ni  Ni30  1  0.17178947  0.50336600  0.50381969  1
  Ni  Ni31  1  1.00416137  0.33859094  0.67101145  1
  Fe  Fe32  1  0.16961992  0.50409756  0.83734230  1
  Ni  Ni33  1  0.17139381  0.83806557  0.50359200  1
  Fe  Fe34  1  1.00321389  0.67129780  0.67098163  1
  Ni  Ni35  1  0.17092493  0.83852445  0.83720378  1
  Fe  Fe36  1  0.50336722  0.16961780  0.50471617  1
  Ni  Ni37  1  0.33762119  1.00428008  0.67157266  1
  Ni  Ni38  1  0.50350227  0.17152868  0.83794318  1
  Fe  Fe39  1  0.50386794  0.50520730  0.50344842  1
  Fe  Fe40  1  0.33828206  0.33676732  0.67035766  1
  Fe  Fe41  1  0.50504195  0.50399830  0.83806084  1
  Ni  Ni42  1  0.50518915  0.83725150  0.50410529  1
  Fe  Fe43  1  0.33837557  0.67124875  0.67104872  1
  Fe  Fe44  1  0.50469770  0.83927362  0.83703399  1
  Fe  Fe45  1  0.83820931  0.17003445  0.50441105  1
  Ni  Ni46  1  0.66984276  1.00429915  0.67101209  1
  Ni  Ni47  1  0.83723209  0.17112261  0.83769928  1
  Fe  Fe48  1  0.83837951  0.50544611  0.50458086  1
  Ni  Ni49  1  0.67211701  0.33817487  0.67112430  1
  Ni  Ni50  1  0.83643416  0.50503941  0.83782954  1
  Ni  Ni51  1  0.83638959  0.83724879  0.50432885  1
  Ni  Ni52  1  0.67157949  0.67050178  0.67192368  1
  Ni  Ni53  1  0.83776086  0.83681661  0.83766092  1
" 