1193,Ni40Cr60_13,-223.621625359912, 137.277424604533,Ni40Cr60,"# generated using pymatgen
 data_Cr7Ni11
_symmetry_space_group_name_H-M   'P 1'
_cell_length_a   7.50171579
_cell_length_b   7.50171579
_cell_length_c   10.60902822
_cell_angle_alpha   90.00000000
_cell_angle_beta   90.00000000
_cell_angle_gamma   90.00000000
_symmetry_Int_Tables_number   1
_chemical_formula_structural   Cr7Ni11
_chemical_formula_sum   'Cr21 Ni33'
_cell_volume   597.03091193
_cell_formula_units_Z   3
loop_
 _symmetry_equiv_pos_site_id
 _symmetry_equiv_pos_as_xyz
  1  'x, y, z'
loop_
 _atom_site_type_symbol
 _atom_site_label
 _atom_site_symmetry_multiplicity
 _atom_site_fract_x
 _atom_site_fract_y
 _atom_site_fract_z
 _atom_site_occupancy
  Cr  Cr0  1  0.00151950  -0.00047399  0.99703237  1
  Ni  Ni1  1  0.16625782  0.16685997  0.16452306  1
  Cr  Cr2  1  0.00187788  0.99743367  0.33206158  1
  Ni  Ni3  1  -0.00031456  0.33256341  -0.00214094  1
  Ni  Ni4  1  0.16562035  0.49663239  0.16362863  1
  Ni  Ni5  1  -0.00068571  0.33179320  0.32990414  1
  Ni  Ni6  1  0.00077528  0.66178449  -0.00110446  1
  Ni  Ni7  1  0.16768671  0.82957441  0.16295249  1
  Cr  Cr8  1  -0.00086551  0.66316810  0.33009785  1
  Ni  Ni9  1  0.32743062  -0.00050639  0.99694221  1
  Cr  Cr10  1  0.49568314  0.16458033  0.16664595  1
  Ni  Ni11  1  0.33028500  -0.00172090  0.33238575  1
  Ni  Ni12  1  0.32929528  0.33077715  -0.00212449  1
  Ni  Ni13  1  0.49404423  0.49677565  0.16509846  1
  Ni  Ni14  1  0.33093593  0.33078239  0.33073951  1
  Ni  Ni15  1  0.32831878  0.66277782  -0.00156006  1
  Cr  Cr16  1  0.49462603  0.83139576  0.16447646  1
  Ni  Ni17  1  0.33110917  0.66405727  0.33124805  1
  Cr  Cr18  1  0.66267735  0.00080456  0.99588399  1
  Cr  Cr19  1  0.83159173  0.16678995  0.16675607  1
  Ni  Ni20  1  0.66160700  -0.00171451  0.33426835  1
  Cr  Cr21  1  0.66319153  0.33244732  0.99569804  1
  Ni  Ni22  1  0.83345896  0.49504309  0.16420418  1
  Ni  Ni23  1  0.66279021  0.33288085  0.33218016  1
  Cr  Cr24  1  0.66502767  0.65971645  -0.00180883  1
  Cr  Cr25  1  0.83099931  0.83133770  0.16403046  1
  Cr  Cr26  1  0.66386467  0.66201458  0.33229118  1
  Ni  Ni27  1  0.16492678  0.16422117  0.49663813  1
  Ni  Ni28  1  -0.00012705  -0.00044700  0.66444084  1
  Ni  Ni29  1  0.16318978  0.16474617  0.83188793  1
  Cr  Cr30  1  0.16528698  0.49546816  0.49729006  1
  Ni  Ni31  1  0.99582029  0.32824500  0.66527702  1
  Cr  Cr32  1  0.16480170  0.49860428  0.83151412  1
  Ni  Ni33  1  0.16695270  0.83184576  0.49810939  1
  Cr  Cr34  1  -0.00195419  0.66593419  0.66258987  1
  Ni  Ni35  1  0.16538384  0.83136750  0.83182622  1
  Ni  Ni36  1  0.49735313  0.16552345  0.49492741  1
  Cr  Cr37  1  0.32797114  -0.00124473  0.66378117  1
  Ni  Ni38  1  0.49646255  0.16696988  0.83213123  1
  Ni  Ni39  1  0.49756422  0.49666114  0.49699737  1
  Cr  Cr40  1  0.33376063  0.32955558  0.66454471  1
  Ni  Ni41  1  0.49661351  0.49602072  0.83087564  1
  Ni  Ni42  1  0.49548140  0.83107624  0.49568471  1
  Ni  Ni43  1  0.33207186  0.66526581  0.66329992  1
  Cr  Cr44  1  0.49314815  0.82913082  0.83307027  1
  Cr  Cr45  1  0.83154980  0.16643120  0.49728526  1
  Cr  Cr46  1  0.66337882  0.00027328  0.66423330  1
  Ni  Ni47  1  0.83313412  0.16829078  0.82916277  1
  Ni  Ni48  1  0.82992039  0.49498975  0.49769241  1
  Ni  Ni49  1  0.66455734  0.33199631  0.66528883  1
  Ni  Ni50  1  0.83220338  0.49370541  0.83088199  1
  Ni  Ni51  1  0.83073112  0.83193522  0.49765446  1
  Cr  Cr52  1  0.66238055  0.66005214  0.66251530  1
  Cr  Cr53  1  0.83385178  0.83103014  0.83131258  1
" 