6693,Ni40Fe17Cr42_3,-222.496625591786, 162.943468277719,Ni40Fe17Cr42,"# generated using pymatgen
 data_Cr8Fe3Ni7
_symmetry_space_group_name_H-M   'P 1'
_cell_length_a   7.49714627
_cell_length_b   7.49714627
_cell_length_c   10.60256594
_cell_angle_alpha   90.00000000
_cell_angle_beta   90.00000000
_cell_angle_gamma   90.00000000
_symmetry_Int_Tables_number   1
_chemical_formula_structural   Cr8Fe3Ni7
_chemical_formula_sum   'Cr24 Fe9 Ni21'
_cell_volume   595.94056796
_cell_formula_units_Z   3
loop_
 _symmetry_equiv_pos_site_id
 _symmetry_equiv_pos_as_xyz
  1  'x, y, z'
loop_
 _atom_site_type_symbol
 _atom_site_label
 _atom_site_symmetry_multiplicity
 _atom_site_fract_x
 _atom_site_fract_y
 _atom_site_fract_z
 _atom_site_occupancy
  Ni  Ni0  1  0.00026685  0.99788602  -0.00196919  1
  Cr  Cr1  1  0.16203071  0.16747218  0.16541389  1
  Cr  Cr2  1  -0.00080467  0.99541173  0.33077399  1
  Ni  Ni3  1  -0.00181610  0.33152699  0.99454952  1
  Cr  Cr4  1  0.16684562  0.49995229  0.16478619  1
  Cr  Cr5  1  0.99249684  0.33264264  0.33128126  1
  Ni  Ni6  1  0.00002389  0.66408198  0.99472084  1
  Fe  Fe7  1  0.16464580  0.82977869  0.16238605  1
  Cr  Cr8  1  -0.00076040  0.66722610  0.33498446  1
  Cr  Cr9  1  0.33046597  0.99750031  0.99553034  1
  Cr  Cr10  1  0.50020961  0.16517180  0.16619913  1
  Cr  Cr11  1  0.33083849  0.99343563  0.33309219  1
  Cr  Cr12  1  0.32946083  0.33000108  0.99269379  1
  Cr  Cr13  1  0.49523030  0.49956578  0.16631987  1
  Fe  Fe14  1  0.33336275  0.33177430  0.33422733  1
  Ni  Ni15  1  0.32748540  0.66515487  0.99642029  1
  Cr  Cr16  1  0.49827917  0.82765010  0.15936469  1
  Ni  Ni17  1  0.33198982  0.66568424  0.33412084  1
  Ni  Ni18  1  0.66574133  -0.00063245  0.99636379  1
  Ni  Ni19  1  0.83227760  0.16454115  0.16209160  1
  Cr  Cr20  1  0.66419406  -0.00193556  0.33395437  1
  Cr  Cr21  1  0.66555023  0.33133165  0.99637822  1
  Cr  Cr22  1  0.83169945  0.49826839  0.16194467  1
  Ni  Ni23  1  0.66266567  0.33218249  0.33411289  1
  Ni  Ni24  1  0.66532953  0.66441474  0.99554903  1
  Cr  Cr25  1  0.83165239  0.83364415  0.15895970  1
  Cr  Cr26  1  0.66507231  0.66345854  0.33650651  1
  Cr  Cr27  1  0.16580581  0.16484134  0.50106507  1
  Ni  Ni28  1  0.00187514  0.99725341  0.66409114  1
  Fe  Fe29  1  0.16447997  0.16121225  0.82802782  1
  Cr  Cr30  1  0.16678865  0.49746683  0.50016714  1
  Ni  Ni31  1  0.00022720  0.33367701  0.66848533  1
  Fe  Fe32  1  0.16205043  0.49944873  0.82990210  1
  Ni  Ni33  1  0.16474556  0.82915573  0.50068030  1
  Fe  Fe34  1  0.99734138  0.66667363  0.66525095  1
  Ni  Ni35  1  0.16345466  0.82928376  0.83097227  1
  Ni  Ni36  1  0.49811863  0.16599678  0.50007625  1
  Ni  Ni37  1  0.33051778  0.99609676  0.66484291  1
  Ni  Ni38  1  0.49793591  0.16436299  0.82755267  1
  Ni  Ni39  1  0.49636565  0.49850155  0.49778435  1
  Fe  Fe40  1  0.33269550  0.32923354  0.66649370  1
  Cr  Cr41  1  0.49501530  0.50214356  0.83157135  1
  Ni  Ni42  1  0.49710454  0.82946074  0.50229842  1
  Fe  Fe43  1  0.33058118  0.66668405  0.66440567  1
  Cr  Cr44  1  0.49937234  0.83263133  0.83103205  1
  Cr  Cr45  1  0.83230551  0.16237636  0.49955350  1
  Ni  Ni46  1  0.66167368  0.99656321  0.66226902  1
  Cr  Cr47  1  0.83306084  0.16111487  0.83137827  1
  Fe  Fe48  1  0.83057013  0.49873335  0.50150022  1
  Cr  Cr49  1  0.66557571  0.33378268  0.66475768  1
  Fe  Fe50  1  0.83223628  0.50010029  0.83084143  1
  Ni  Ni51  1  0.83186031  0.83101600  0.50397353  1
  Ni  Ni52  1  0.66382321  0.66474210  0.66160070  1
  Cr  Cr53  1  0.83158882  0.83186090  0.83027344  1
" 