2855,Ni40Fe17Cr42_6,-222.281400054243, 163.516188888933,Ni40Fe17Cr42,"# generated using pymatgen
 data_Cr8Fe3Ni7
_symmetry_space_group_name_H-M   'P 1'
_cell_length_a   7.49484251
_cell_length_b   7.49484251
_cell_length_c   10.59930793
_cell_angle_alpha   90.00000000
_cell_angle_beta   90.00000000
_cell_angle_gamma   90.00000000
_symmetry_Int_Tables_number   1
_chemical_formula_structural   Cr8Fe3Ni7
_chemical_formula_sum   'Cr24 Fe9 Ni21'
_cell_volume   595.39136595
_cell_formula_units_Z   3
loop_
 _symmetry_equiv_pos_site_id
 _symmetry_equiv_pos_as_xyz
  1  'x, y, z'
loop_
 _atom_site_type_symbol
 _atom_site_label
 _atom_site_symmetry_multiplicity
 _atom_site_fract_x
 _atom_site_fract_y
 _atom_site_fract_z
 _atom_site_occupancy
  Ni  Ni0  1  0.99694000  -0.00070977  0.99743183  1
  Cr  Cr1  1  0.16369254  0.16687860  0.16664323  1
  Fe  Fe2  1  0.99762608  0.00095613  0.32992642  1
  Ni  Ni3  1  0.99802291  0.33098047  0.99668965  1
  Ni  Ni4  1  0.16412131  0.49578334  0.16254656  1
  Ni  Ni5  1  0.99722399  0.33108442  0.33041856  1
  Fe  Fe6  1  0.99754186  0.66433723  0.99651352  1
  Cr  Cr7  1  0.16407847  0.83143796  0.16380557  1
  Cr  Cr8  1  0.99740586  0.66301885  0.33146093  1
  Fe  Fe9  1  0.33258796  -0.00092185  -0.00123831  1
  Ni  Ni10  1  0.49867096  0.16520936  0.16353720  1
  Ni  Ni11  1  0.33297189  0.00006783  0.32980755  1
  Fe  Fe12  1  0.33124745  0.33045534  -0.00076917  1
  Cr  Cr13  1  0.49813955  0.49612440  0.16504502  1
  Ni  Ni14  1  0.33231936  0.32995911  0.33008009  1
  Fe  Fe15  1  0.32899484  0.66474729  -0.00175251  1
  Ni  Ni16  1  0.49830272  0.83377370  0.16408287  1
  Cr  Cr17  1  0.33352424  0.66434799  0.33055652  1
  Ni  Ni18  1  0.66600823  0.00026097  -0.00184875  1
  Fe  Fe19  1  0.83088774  0.16684432  0.16216646  1
  Cr  Cr20  1  0.66317840  0.00000863  0.32760318  1
  Ni  Ni21  1  0.66711125  0.32775629  -0.00124648  1
  Cr  Cr22  1  0.83242011  0.49619243  0.16555190  1
  Ni  Ni23  1  0.66479653  0.33159876  0.33089733  1
  Cr  Cr24  1  0.66454832  0.66605280  -0.00133020  1
  Cr  Cr25  1  0.83111192  0.83268588  0.16491577  1
  Ni  Ni26  1  0.66374945  0.66298248  0.33254499  1
  Cr  Cr27  1  0.16444750  0.16500901  0.49641055  1
  Cr  Cr28  1  -0.00174297  -0.00099951  0.66616600  1
  Cr  Cr29  1  0.16380531  0.16594000  0.83081360  1
  Cr  Cr30  1  0.16403181  0.49467615  0.49658685  1
  Ni  Ni31  1  0.99379808  0.33246937  0.66691225  1
  Ni  Ni32  1  0.16224097  0.49817596  0.83542003  1
  Cr  Cr33  1  0.16452015  0.83508896  0.49676573  1
  Cr  Cr34  1  0.99708975  0.66286714  0.66821116  1
  Ni  Ni35  1  0.16284136  0.83077057  0.83443168  1
  Cr  Cr36  1  0.49806043  0.16676283  0.50030142  1
  Ni  Ni37  1  0.33135017  0.99679696  0.66644753  1
  Cr  Cr38  1  0.50103217  0.16575134  0.83101136  1
  Ni  Ni39  1  0.50281987  0.49652700  0.49661372  1
  Cr  Cr40  1  0.33043183  0.33220263  0.66460635  1
  Cr  Cr41  1  0.49906040  0.49640155  0.83226919  1
  Cr  Cr42  1  0.49995208  0.83057660  0.49981146  1
  Cr  Cr43  1  0.33069176  0.66465990  0.66530129  1
  Cr  Cr44  1  0.49943197  0.83232098  0.83069733  1
  Cr  Cr45  1  0.83235238  0.16689094  0.49716703  1
  Fe  Fe46  1  0.66696156  -0.00074645  0.66689907  1
  Ni  Ni47  1  0.83136766  0.16519888  0.83338280  1
  Fe  Fe48  1  0.82892672  0.49615931  0.49778116  1
  Ni  Ni49  1  0.66878432  0.33392780  0.66546136  1
  Fe  Fe50  1  0.83155936  0.49609847  0.83275289  1
  Cr  Cr51  1  0.83018372  0.82972262  0.49730039  1
  Ni  Ni52  1  0.66674239  0.66194340  0.66416135  1
  Ni  Ni53  1  0.83190479  0.83276414  0.83214623  1
" 