3789,Ni40Cr60_11,-223.834916463617, 139.177587374727,Ni40Cr60,"# generated using pymatgen
 data_Cr7Ni11
_symmetry_space_group_name_H-M   'P 1'
_cell_length_a   7.49959094
_cell_length_b   7.49959094
_cell_length_c   10.60602322
_cell_angle_alpha   90.00000000
_cell_angle_beta   90.00000000
_cell_angle_gamma   90.00000000
_symmetry_Int_Tables_number   1
_chemical_formula_structural   Cr7Ni11
_chemical_formula_sum   'Cr21 Ni33'
_cell_volume   596.52373060
_cell_formula_units_Z   3
loop_
 _symmetry_equiv_pos_site_id
 _symmetry_equiv_pos_as_xyz
  1  'x, y, z'
loop_
 _atom_site_type_symbol
 _atom_site_label
 _atom_site_symmetry_multiplicity
 _atom_site_fract_x
 _atom_site_fract_y
 _atom_site_fract_z
 _atom_site_occupancy
  Cr  Cr0  1  0.99581248  0.99642139  0.99747894  1
  Cr  Cr1  1  0.16491323  0.16518049  0.16364609  1
  Ni  Ni2  1  0.99716921  0.99406463  0.33378651  1
  Ni  Ni3  1  0.99733241  0.33355768  0.99678675  1
  Ni  Ni4  1  0.16222004  0.50091487  0.16315854  1
  Cr  Cr5  1  0.99558986  0.33190028  0.33157459  1
  Ni  Ni6  1  0.99473635  0.66213423  0.00138817  1
  Ni  Ni7  1  0.16336478  0.82845653  0.16776455  1
  Ni  Ni8  1  0.99712781  0.66837568  0.32886859  1
  Cr  Cr9  1  0.33458311  0.99723143  0.99712144  1
  Cr  Cr10  1  0.49916956  0.16137749  0.16632494  1
  Ni  Ni11  1  0.32955191  0.99342114  0.33053919  1
  Ni  Ni12  1  0.33031792  0.33174592  0.99561988  1
  Cr  Cr13  1  0.49869831  0.49868422  0.16695260  1
  Cr  Cr14  1  0.33120470  0.33214063  0.33222451  1
  Cr  Cr15  1  0.33374105  0.66560684  -0.00133052  1
  Ni  Ni16  1  0.50025656  0.83060163  0.16589748  1
  Ni  Ni17  1  0.33096932  0.66758749  0.33098528  1
  Ni  Ni18  1  0.66401187  0.99479633  0.99700198  1
  Cr  Cr19  1  0.82972370  0.16315724  0.16575219  1
  Ni  Ni20  1  0.66669314  0.99483481  0.33062464  1
  Cr  Cr21  1  0.66516809  0.33220826  0.99630915  1
  Ni  Ni22  1  0.83268387  0.50144481  0.16408628  1
  Ni  Ni23  1  0.66611377  0.33273272  0.33292326  1
  Ni  Ni24  1  0.66615225  0.66592153  -0.00215323  1
  Ni  Ni25  1  0.82994283  0.82874801  0.16554809  1
  Ni  Ni26  1  0.66555568  0.66582077  0.33036976  1
  Ni  Ni27  1  0.16226169  0.15978614  0.49695593  1
  Ni  Ni28  1  0.99551810  -0.00055693  0.66195142  1
  Ni  Ni29  1  0.16322243  0.16542916  0.83206240  1
  Cr  Cr30  1  0.16738722  0.50208174  0.49707618  1
  Cr  Cr31  1  0.99490619  0.32742301  0.66478388  1
  Cr  Cr32  1  0.16315226  0.49829831  0.83343965  1
  Ni  Ni33  1  0.16307845  0.83288732  0.49606239  1
  Cr  Cr34  1  0.99583060  0.66722774  0.66272512  1
  Cr  Cr35  1  0.16386036  0.83041133  0.82913726  1
  Cr  Cr36  1  0.50138517  0.16453288  0.49486963  1
  Cr  Cr37  1  0.33016570  0.99726480  0.66558241  1
  Ni  Ni38  1  0.50017201  0.16449889  0.83175223  1
  Ni  Ni39  1  0.50006697  0.49987756  0.49811194  1
  Cr  Cr40  1  0.33365758  0.33135255  0.66504858  1
  Ni  Ni41  1  0.50025288  0.49876533  0.82917584  1
  Cr  Cr42  1  0.49947257  0.82897467  0.49761251  1
  Ni  Ni43  1  0.33551062  0.66499315  0.66407727  1
  Ni  Ni44  1  0.50114355  0.83038726  0.83056190  1
  Ni  Ni45  1  0.83030259  0.16073731  0.49805315  1
  Ni  Ni46  1  0.66672885  -0.00141536  0.66586597  1
  Ni  Ni47  1  0.82984209  0.16483460  0.82984410  1
  Cr  Cr48  1  0.82674737  0.49977021  0.49762138  1
  Ni  Ni49  1  0.66441161  0.33116787  0.66530201  1
  Ni  Ni50  1  0.82825475  0.49721952  0.83252873  1
  Ni  Ni51  1  0.83150329  0.83377678  0.49694461  1
  Ni  Ni52  1  0.66222522  0.66374925  0.66584279  1
  Cr  Cr53  1  0.82897369  0.83029547  0.83059866  1
" 