8251,Ni40Fe57Cr2_6,-238.176525541389, 212.296444376777,Ni40Fe57Cr2,"# generated using pymatgen
 data_CrFe15Ni11
_symmetry_space_group_name_H-M   'P 1'
_cell_length_a   7.40535631
_cell_length_b   7.40535631
_cell_length_c   10.47275533
_cell_angle_alpha   90.00000000
_cell_angle_beta   90.00000000
_cell_angle_gamma   90.00000000
_symmetry_Int_Tables_number   1
_chemical_formula_structural   CrFe15Ni11
_chemical_formula_sum   'Cr2 Fe30 Ni22'
_cell_volume   574.31859394
_cell_formula_units_Z   2
loop_
 _symmetry_equiv_pos_site_id
 _symmetry_equiv_pos_as_xyz
  1  'x, y, z'
loop_
 _atom_site_type_symbol
 _atom_site_label
 _atom_site_symmetry_multiplicity
 _atom_site_fract_x
 _atom_site_fract_y
 _atom_site_fract_z
 _atom_site_occupancy
  Ni  Ni0  1  1.00272573  1.00348975  0.00465707  1
  Ni  Ni1  1  0.17154519  0.16953605  0.17108933  1
  Ni  Ni2  1  1.00254181  1.00386346  0.33702783  1
  Fe  Fe3  1  0.00466076  0.33659946  1.00262191  1
  Fe  Fe4  1  0.17223911  0.50499589  0.17039432  1
  Fe  Fe5  1  0.00515951  0.33536402  0.33877126  1
  Ni  Ni6  1  0.00654628  0.67242534  1.00283398  1
  Ni  Ni7  1  0.17110061  0.83889004  0.17114608  1
  Fe  Fe8  1  0.00473391  0.67223508  0.33738315  1
  Fe  Fe9  1  0.33696563  1.00389211  0.00449816  1
  Fe  Fe10  1  0.50441832  0.17021221  0.17096835  1
  Fe  Fe11  1  0.33696499  0.00483580  0.33729732  1
  Fe  Fe12  1  0.33703323  0.33742285  1.00396382  1
  Fe  Fe13  1  0.50187679  0.50433622  0.17039191  1
  Ni  Ni14  1  0.33752836  0.33906554  0.33755048  1
  Ni  Ni15  1  0.33642405  0.66956198  0.00506419  1
  Fe  Fe16  1  0.50411782  0.83794935  0.17076167  1
  Fe  Fe17  1  0.33749573  0.67148319  0.33733402  1
  Ni  Ni18  1  0.67263044  0.00534195  0.00438766  1
  Fe  Fe19  1  0.83794762  0.16775078  0.17069919  1
  Ni  Ni20  1  0.67281454  0.00423529  0.33729360  1
  Ni  Ni21  1  0.66976609  0.33586046  1.00352692  1
  Cr  Cr22  1  0.83653660  0.50481702  0.17020648  1
  Fe  Fe23  1  0.67033371  0.33589784  0.33854880  1
  Fe  Fe24  1  0.67070068  0.67183682  1.00333586  1
  Ni  Ni25  1  0.83725588  0.83845477  0.17098810  1
  Fe  Fe26  1  0.67026543  0.67219462  0.33819093  1
  Ni  Ni27  1  0.17139451  0.16964423  0.50351408  1
  Ni  Ni28  1  1.00335457  1.00264161  0.67081223  1
  Ni  Ni29  1  0.17130914  0.16981329  0.83789477  1
  Fe  Fe30  1  0.17185410  0.50401428  0.50388671  1
  Cr  Cr31  1  1.00408511  0.33622449  0.67154393  1
  Ni  Ni32  1  0.17215005  0.50465712  0.83867461  1
  Fe  Fe33  1  0.17010008  0.83840488  0.50402298  1
  Fe  Fe34  1  0.00450448  0.67140117  0.67153721  1
  Fe  Fe35  1  0.17017480  0.83666881  0.83803628  1
  Fe  Fe36  1  0.50429170  0.17132393  0.50399342  1
  Fe  Fe37  1  0.33694507  0.00505691  0.67070182  1
  Fe  Fe38  1  0.50476081  0.17266479  0.83753365  1
  Fe  Fe39  1  0.50372709  0.50286655  0.50493225  1
  Ni  Ni40  1  0.33982225  0.33925992  0.67140903  1
  Ni  Ni41  1  0.50474311  0.50488612  0.83733377  1
  Fe  Fe42  1  0.50422842  0.83830982  0.50416702  1
  Ni  Ni43  1  0.33757680  0.66971727  0.67041442  1
  Fe  Fe44  1  0.50389453  0.83683391  0.83756832  1
  Ni  Ni45  1  0.83729328  0.17017368  0.50238845  1
  Fe  Fe46  1  0.67081832  0.00495851  0.67063693  1
  Ni  Ni47  1  0.83727548  0.17037683  0.83895246  1
  Fe  Fe48  1  0.83691536  0.50395092  0.50372571  1
  Ni  Ni49  1  0.66869778  0.33727150  0.67010587  1
  Ni  Ni50  1  0.83560221  0.50493360  0.83757604  1
  Fe  Fe51  1  0.83816626  0.83897087  0.50333153  1
  Fe  Fe52  1  0.67048585  0.66984990  0.67096678  1
  Fe  Fe53  1  0.83842709  0.83750428  0.83833438  1
" 