3341,Ni40Fe6Cr53_7,-217.371436077966, 142.225060010725,Ni40Fe6Cr53,"# generated using pymatgen
 data_Cr10FeNi7
_symmetry_space_group_name_H-M   'P 1'
_cell_length_a   7.52767484
_cell_length_b   7.52767484
_cell_length_c   10.64573985
_cell_angle_alpha   90.00000000
_cell_angle_beta   90.00000000
_cell_angle_gamma   90.00000000
_symmetry_Int_Tables_number   1
_chemical_formula_structural   Cr10FeNi7
_chemical_formula_sum   'Cr30 Fe3 Ni21'
_cell_volume   603.25030779
_cell_formula_units_Z   3
loop_
 _symmetry_equiv_pos_site_id
 _symmetry_equiv_pos_as_xyz
  1  'x, y, z'
loop_
 _atom_site_type_symbol
 _atom_site_label
 _atom_site_symmetry_multiplicity
 _atom_site_fract_x
 _atom_site_fract_y
 _atom_site_fract_z
 _atom_site_occupancy
  Ni  Ni0  1  -0.00362687  -0.00159669  0.99429011  1
  Cr  Cr1  1  0.16384768  0.16382129  0.16486019  1
  Cr  Cr2  1  0.99365039  -0.00305603  0.33174545  1
  Cr  Cr3  1  0.99556660  0.32569888  0.99389528  1
  Fe  Fe4  1  0.16248644  0.49383209  0.16468198  1
  Ni  Ni5  1  0.99316866  0.32760323  0.32919693  1
  Cr  Cr6  1  -0.00172961  0.66364641  -0.00324752  1
  Cr  Cr7  1  0.16280928  0.83189238  0.16206438  1
  Cr  Cr8  1  -0.00280998  0.66249633  0.33072130  1
  Ni  Ni9  1  0.32785265  0.99558706  0.99504692  1
  Cr  Cr10  1  0.49551394  0.16183183  0.16441282  1
  Fe  Fe11  1  0.32958401  0.99506840  0.33159128  1
  Cr  Cr12  1  0.32935385  0.32915082  0.99350238  1
  Cr  Cr13  1  0.49714193  0.49418116  0.16215684  1
  Fe  Fe14  1  0.33113462  0.33103124  0.33041377  1
  Cr  Cr15  1  0.33060621  0.66209326  0.99449480  1
  Cr  Cr16  1  0.49682329  0.83184555  0.15952121  1
  Cr  Cr17  1  0.33066848  0.66376908  0.33089811  1
  Ni  Ni18  1  0.66419461  -0.00218730  -0.00320142  1
  Ni  Ni19  1  0.83043381  0.16395127  0.16247341  1
  Cr  Cr20  1  0.66271120  -0.00203328  0.33011934  1
  Cr  Cr21  1  0.66249512  0.32784660  0.99370123  1
  Cr  Cr22  1  0.83001653  0.49567847  0.16383276  1
  Ni  Ni23  1  0.66438445  0.32839597  0.33159799  1
  Ni  Ni24  1  0.66046180  0.66313318  0.99534927  1
  Cr  Cr25  1  0.82813214  0.83051090  0.15667449  1
  Cr  Cr26  1  0.66007826  0.66252914  0.33133333  1
  Cr  Cr27  1  0.16375702  0.16169287  0.49526569  1
  Cr  Cr28  1  0.99592256  -0.00293182  0.66386534  1
  Ni  Ni29  1  0.16253564  0.15676810  0.83052033  1
  Cr  Cr30  1  0.16148010  0.49458345  0.49433676  1
  Cr  Cr31  1  0.99218980  0.32559497  0.66451815  1
  Cr  Cr32  1  0.16349368  0.49692908  0.82844748  1
  Ni  Ni33  1  0.16818201  0.83013463  0.49752191  1
  Cr  Cr34  1  -0.00089501  0.66450930  0.66010446  1
  Ni  Ni35  1  0.16510308  0.83350717  0.82904937  1
  Cr  Cr36  1  0.49575188  0.16244322  0.49589877  1
  Ni  Ni37  1  0.32980166  0.99196338  0.66194271  1
  Cr  Cr38  1  0.49570766  0.16019302  0.82813881  1
  Ni  Ni39  1  0.49828112  0.49652421  0.49792407  1
  Cr  Cr40  1  0.33170252  0.33045886  0.66643062  1
  Ni  Ni41  1  0.49812277  0.49795691  0.82663426  1
  Ni  Ni42  1  0.49338711  0.82896170  0.49883191  1
  Ni  Ni43  1  0.33315494  0.66532407  0.66182894  1
  Cr  Cr44  1  0.49730606  0.82952238  0.82897707  1
  Ni  Ni45  1  0.82733048  0.16672226  0.49597054  1
  Ni  Ni46  1  0.66166453  -0.00277385  0.66114586  1
  Ni  Ni47  1  0.82824814  0.16011567  0.82920855  1
  Ni  Ni48  1  0.82525354  0.49208403  0.49577247  1
  Ni  Ni49  1  0.66237238  0.32920879  0.66122152  1
  Cr  Cr50  1  0.82498706  0.49782042  0.82605482  1
  Cr  Cr51  1  0.82709759  0.82769217  0.49903280  1
  Ni  Ni52  1  0.65753778  0.66126977  0.65948182  1
  Cr  Cr53  1  0.82811875  0.82954835  0.83229271  1
" 