8855,Ni40Cr60_2,-223.625762100244, 134.415647855666,Ni40Cr60,"# generated using pymatgen
 data_Cr7Ni11
_symmetry_space_group_name_H-M   'P 1'
_cell_length_a   7.50360154
_cell_length_b   7.50360154
_cell_length_c   10.61169506
_cell_angle_alpha   90.00000000
_cell_angle_beta   90.00000000
_cell_angle_gamma   90.00000000
_symmetry_Int_Tables_number   1
_chemical_formula_structural   Cr7Ni11
_chemical_formula_sum   'Cr21 Ni33'
_cell_volume   597.48126151
_cell_formula_units_Z   3
loop_
 _symmetry_equiv_pos_site_id
 _symmetry_equiv_pos_as_xyz
  1  'x, y, z'
loop_
 _atom_site_type_symbol
 _atom_site_label
 _atom_site_symmetry_multiplicity
 _atom_site_fract_x
 _atom_site_fract_y
 _atom_site_fract_z
 _atom_site_occupancy
  Cr  Cr0  1  0.99651002  -0.00238656  -0.00243369  1
  Cr  Cr1  1  0.16430653  0.16704244  0.16103166  1
  Cr  Cr2  1  -0.00051487  -0.00212929  0.33030229  1
  Ni  Ni3  1  -0.00231699  0.33242824  0.99511405  1
  Cr  Cr4  1  0.16335908  0.49881929  0.16115433  1
  Ni  Ni5  1  0.99693396  0.33234685  0.33291794  1
  Ni  Ni6  1  -0.00178028  0.66323168  0.99685547  1
  Ni  Ni7  1  0.16463008  0.82969965  0.16293066  1
  Ni  Ni8  1  -0.00155910  0.66311730  0.33153347  1
  Ni  Ni9  1  0.33368670  -0.00155832  -0.00241058  1
  Ni  Ni10  1  0.50018006  0.16386591  0.16132282  1
  Cr  Cr11  1  0.33054926  -0.00050577  0.33050076  1
  Ni  Ni12  1  0.33208886  0.32998991  0.99456578  1
  Cr  Cr13  1  0.49682077  0.49548877  0.16238031  1
  Cr  Cr14  1  0.33181553  0.32998916  0.33311547  1
  Ni  Ni15  1  0.33046221  0.66441889  0.99636005  1
  Ni  Ni16  1  0.49609118  0.83312641  0.16077386  1
  Cr  Cr17  1  0.32941280  0.66356513  0.33133072  1
  Ni  Ni18  1  0.66163482  -0.00148169  -0.00148892  1
  Ni  Ni19  1  0.82854882  0.16543631  0.16350965  1
  Cr  Cr20  1  0.66250695  -0.00048011  0.32714204  1
  Ni  Ni21  1  0.66301097  0.32866192  0.99670851  1
  Cr  Cr22  1  0.83259888  0.49451376  0.16490179  1
  Ni  Ni23  1  0.66441479  0.32995072  0.33197080  1
  Cr  Cr24  1  0.66419264  0.66454716  0.99464988  1
  Ni  Ni25  1  0.83180313  0.83107653  0.16301813  1
  Cr  Cr26  1  0.66406979  0.66217179  0.33164118  1
  Ni  Ni27  1  0.16584058  0.16659917  0.50011479  1
  Cr  Cr28  1  0.00123830  0.00014616  0.66447798  1
  Ni  Ni29  1  0.16801879  0.16790249  0.83041397  1
  Ni  Ni30  1  0.16347582  0.49681112  0.49844288  1
  Ni  Ni31  1  -0.00009493  0.33307010  0.66431154  1
  Ni  Ni32  1  0.16549964  0.49538552  0.83227733  1
  Ni  Ni33  1  0.16582524  0.82953661  0.49819792  1
  Cr  Cr34  1  -0.00217125  0.66113338  0.66553487  1
  Cr  Cr35  1  0.16771298  0.83030856  0.83116260  1
  Ni  Ni36  1  0.49600541  0.16782816  0.49946360  1
  Ni  Ni37  1  0.33096794  0.00044106  0.66402590  1
  Ni  Ni38  1  0.49533064  0.16515863  0.83166740  1
  Ni  Ni39  1  0.49735959  0.49387916  0.49963287  1
  Ni  Ni40  1  0.33076612  0.33122123  0.66445941  1
  Ni  Ni41  1  0.49534079  0.49563758  0.83052444  1
  Cr  Cr42  1  0.49497927  0.83114767  0.50073213  1
  Ni  Ni43  1  0.33064483  0.66122739  0.66428597  1
  Ni  Ni44  1  0.49559733  0.83184686  0.83173808  1
  Cr  Cr45  1  0.82991586  0.16748658  0.49759677  1
  Cr  Cr46  1  0.66215395  -0.00108890  0.66760772  1
  Cr  Cr47  1  0.83011829  0.16675028  0.83135590  1
  Ni  Ni48  1  0.83190492  0.49430973  0.49686759  1
  Ni  Ni49  1  0.66206818  0.33280552  0.66401936  1
  Ni  Ni50  1  0.83169161  0.49514343  0.83161139  1
  Cr  Cr51  1  0.83220685  0.82923093  0.49805516  1
  Cr  Cr52  1  0.66318616  0.66014094  0.66728751  1
  Ni  Ni53  1  0.82942953  0.82946362  0.83320548  1
" 