3556,Ni40Fe57Cr2_15,-237.726774598216, 216.930037902501,Ni40Fe57Cr2,"# generated using pymatgen
 data_CrFe15Ni11
_symmetry_space_group_name_H-M   'P 1'
_cell_length_a   7.40101463
_cell_length_b   7.40101463
_cell_length_c   10.46661527
_cell_angle_alpha   90.00000000
_cell_angle_beta   90.00000000
_cell_angle_gamma   90.00000000
_symmetry_Int_Tables_number   1
_chemical_formula_structural   CrFe15Ni11
_chemical_formula_sum   'Cr2 Fe30 Ni22'
_cell_volume   573.30903520
_cell_formula_units_Z   2
loop_
 _symmetry_equiv_pos_site_id
 _symmetry_equiv_pos_as_xyz
  1  'x, y, z'
loop_
 _atom_site_type_symbol
 _atom_site_label
 _atom_site_symmetry_multiplicity
 _atom_site_fract_x
 _atom_site_fract_y
 _atom_site_fract_z
 _atom_site_occupancy
  Cr  Cr0  1  1.00407222  0.00456681  1.00397579  1
  Fe  Fe1  1  0.17177594  0.17149150  0.17183336  1
  Fe  Fe2  1  1.00376640  0.00497928  0.33778416  1
  Fe  Fe3  1  0.00455269  0.33991968  1.00410263  1
  Fe  Fe4  1  0.17150004  0.50487228  0.17088978  1
  Fe  Fe5  1  1.00292038  0.33713801  0.33749124  1
  Fe  Fe6  1  1.00393518  0.66983999  1.00401809  1
  Fe  Fe7  1  0.17186467  0.83699361  0.17160352  1
  Fe  Fe8  1  1.00277438  0.67120381  0.33738485  1
  Fe  Fe9  1  0.33937665  1.00405117  1.00425904  1
  Ni  Ni10  1  0.50363560  0.17007405  0.17123380  1
  Fe  Fe11  1  0.33889901  0.00497443  0.33795541  1
  Fe  Fe12  1  0.33789462  0.33816210  0.00453674  1
  Fe  Fe13  1  0.50520129  0.50495963  0.17131883  1
  Ni  Ni14  1  0.33847695  0.33710745  0.33748216  1
  Ni  Ni15  1  0.33837502  0.67065017  1.00438052  1
  Ni  Ni16  1  0.50499703  0.83874668  0.17077992  1
  Fe  Fe17  1  0.33971523  0.67141526  0.33719966  1
  Fe  Fe18  1  0.66962669  1.00343296  0.00514253  1
  Fe  Fe19  1  0.83619520  0.17128584  0.17233040  1
  Ni  Ni20  1  0.67190443  0.00465944  0.33736899  1
  Fe  Fe21  1  0.67096149  0.33859525  0.00472905  1
  Ni  Ni22  1  0.83830755  0.50537566  0.17118321  1
  Ni  Ni23  1  0.67087508  0.33794360  0.33776813  1
  Ni  Ni24  1  0.67067151  0.67065191  1.00413584  1
  Ni  Ni25  1  0.83646673  0.83654150  0.17214890  1
  Ni  Ni26  1  0.67146034  0.67080640  0.33837282  1
  Ni  Ni27  1  0.17120903  0.16966951  0.50411428  1
  Fe  Fe28  1  0.00521478  1.00411727  0.67128818  1
  Ni  Ni29  1  0.17236726  0.17186541  0.83699031  1
  Cr  Cr30  1  0.17147080  0.50370155  0.50488737  1
  Fe  Fe31  1  0.00457067  0.33735921  0.67177774  1
  Ni  Ni32  1  0.17128840  0.50379216  0.83793631  1
  Fe  Fe33  1  0.17091377  0.83868872  0.50502487  1
  Ni  Ni34  1  1.00408691  0.67156524  0.67264938  1
  Fe  Fe35  1  0.17171774  0.83617917  0.83680926  1
  Fe  Fe36  1  0.50473178  0.17193793  0.50376597  1
  Ni  Ni37  1  0.33710815  0.00463754  0.67130771  1
  Fe  Fe38  1  0.50448259  0.17161517  0.83806575  1
  Ni  Ni39  1  0.50562104  0.50502615  0.50382361  1
  Fe  Fe40  1  0.33794048  0.33761514  0.67154617  1
  Ni  Ni41  1  0.50401082  0.50486413  0.83806361  1
  Fe  Fe42  1  0.50453893  0.83779303  0.50417145  1
  Ni  Ni43  1  0.33779199  0.67170472  0.67163154  1
  Fe  Fe44  1  0.50403837  0.83693973  0.83815546  1
  Ni  Ni45  1  0.83827053  0.17069550  0.50418714  1
  Fe  Fe46  1  0.67110308  1.00372627  0.67082481  1
  Fe  Fe47  1  0.83746221  0.17245601  0.83681682  1
  Ni  Ni48  1  0.83626463  0.50465969  0.50469978  1
  Fe  Fe49  1  0.67089514  0.33864861  0.67059410  1
  Ni  Ni50  1  0.83806789  0.50570212  0.83753098  1
  Fe  Fe51  1  0.83792946  0.83757609  0.50433621  1
  Fe  Fe52  1  0.67084485  0.67104366  0.67129862  1
  Ni  Ni53  1  0.83675452  0.83687988  0.83719128  1
" 