3887,Ni40Fe57Cr2_9,-238.046698412271, 215.982372692861,Ni40Fe57Cr2,"# generated using pymatgen
 data_CrFe15Ni11
_symmetry_space_group_name_H-M   'P 1'
_cell_length_a   7.40390566
_cell_length_b   7.40390566
_cell_length_c   10.47070380
_cell_angle_alpha   90.00000000
_cell_angle_beta   90.00000000
_cell_angle_gamma   90.00000000
_symmetry_Int_Tables_number   1
_chemical_formula_structural   CrFe15Ni11
_chemical_formula_sum   'Cr2 Fe30 Ni22'
_cell_volume   573.98114566
_cell_formula_units_Z   2
loop_
 _symmetry_equiv_pos_site_id
 _symmetry_equiv_pos_as_xyz
  1  'x, y, z'
loop_
 _atom_site_type_symbol
 _atom_site_label
 _atom_site_symmetry_multiplicity
 _atom_site_fract_x
 _atom_site_fract_y
 _atom_site_fract_z
 _atom_site_occupancy
  Fe  Fe0  1  0.00480557  0.00473279  1.00318758  1
  Fe  Fe1  1  0.17295613  0.17046411  0.17033650  1
  Fe  Fe2  1  0.00663143  1.00182749  0.33759645  1
  Ni  Ni3  1  1.00425420  0.34015462  1.00384863  1
  Fe  Fe4  1  0.17070282  0.50377681  0.17045866  1
  Fe  Fe5  1  0.00540071  0.33840360  0.33846086  1
  Fe  Fe6  1  0.00452508  0.67241660  1.00385574  1
  Ni  Ni7  1  0.17000608  0.83689183  0.17160025  1
  Ni  Ni8  1  1.00312113  0.66836673  0.33619143  1
  Ni  Ni9  1  0.33901159  1.00416100  0.00485636  1
  Ni  Ni10  1  0.50351543  0.17373865  0.17084979  1
  Ni  Ni11  1  0.33916154  0.00554144  0.33646645  1
  Fe  Fe12  1  0.33848120  0.33692053  1.00350104  1
  Ni  Ni13  1  0.50281908  0.50313628  0.17034302  1
  Fe  Fe14  1  0.33855355  0.33895806  0.33839491  1
  Fe  Fe15  1  0.33796264  0.67139195  1.00425419  1
  Fe  Fe16  1  0.50468254  0.83824892  0.17031121  1
  Fe  Fe17  1  0.33816786  0.67101526  0.33707097  1
  Ni  Ni18  1  0.66817068  1.00308218  1.00374290  1
  Cr  Cr19  1  0.83615760  0.16958543  0.17200538  1
  Fe  Fe20  1  0.66885431  1.00231612  0.33694008  1
  Fe  Fe21  1  0.66998936  0.33671013  1.00206472  1
  Fe  Fe22  1  0.83660906  0.50511844  0.16959372  1
  Fe  Fe23  1  0.66833375  0.33934586  0.33914157  1
  Fe  Fe24  1  0.66997768  0.67052552  0.00435293  1
  Ni  Ni25  1  0.84004354  0.83718956  0.16929613  1
  Ni  Ni26  1  0.67150715  0.67022335  0.33634009  1
  Fe  Fe27  1  0.17264046  0.17101217  0.50475102  1
  Fe  Fe28  1  0.00663914  0.00675855  0.67209617  1
  Fe  Fe29  1  0.17197136  0.17214084  0.83756595  1
  Fe  Fe30  1  0.17079218  0.50437184  0.50493171  1
  Ni  Ni31  1  1.00380421  0.33965390  0.66992911  1
  Fe  Fe32  1  0.17129978  0.50282272  0.83709174  1
  Fe  Fe33  1  0.17450591  0.83681185  0.50347663  1
  Ni  Ni34  1  1.00396356  0.66972945  0.67278046  1
  Fe  Fe35  1  0.17199072  0.83794376  0.83785448  1
  Ni  Ni36  1  0.50403801  0.17236478  0.50478183  1
  Ni  Ni37  1  0.33925983  0.00427449  0.67133221  1
  Ni  Ni38  1  0.50455644  0.17149085  0.83775911  1
  Ni  Ni39  1  0.50247230  0.50355952  0.50575691  1
  Ni  Ni40  1  0.33778577  0.33524439  0.67207359  1
  Ni  Ni41  1  0.50342400  0.50375728  0.83696211  1
  Fe  Fe42  1  0.50316038  0.83768572  0.50453740  1
  Fe  Fe43  1  0.33695561  0.66875115  0.67139096  1
  Ni  Ni44  1  0.50256065  0.83693569  0.83653072  1
  Fe  Fe45  1  0.83632982  0.17381961  0.50484121  1
  Fe  Fe46  1  0.66998916  0.00682602  0.67280086  1
  Ni  Ni47  1  0.83880093  0.17111836  0.83649397  1
  Fe  Fe48  1  0.83623943  0.50331086  0.50459747  1
  Ni  Ni49  1  0.67096049  0.33802405  0.67171682  1
  Ni  Ni50  1  0.83770252  0.50391610  0.83768689  1
  Cr  Cr51  1  0.83996319  0.83813033  0.50616019  1
  Fe  Fe52  1  0.66909403  0.66837926  0.67141469  1
  Fe  Fe53  1  0.83495969  0.83718445  0.83788548  1
" 