7188,Ni40Cr60_4,-223.63581305545, 136.306305474276,Ni40Cr60,"# generated using pymatgen
 data_Cr7Ni11
_symmetry_space_group_name_H-M   'P 1'
_cell_length_a   7.50524646
_cell_length_b   7.50524646
_cell_length_c   10.61402133
_cell_angle_alpha   90.00000000
_cell_angle_beta   90.00000000
_cell_angle_gamma   90.00000000
_symmetry_Int_Tables_number   1
_chemical_formula_structural   Cr7Ni11
_chemical_formula_sum   'Cr21 Ni33'
_cell_volume   597.87428240
_cell_formula_units_Z   3
loop_
 _symmetry_equiv_pos_site_id
 _symmetry_equiv_pos_as_xyz
  1  'x, y, z'
loop_
 _atom_site_type_symbol
 _atom_site_label
 _atom_site_symmetry_multiplicity
 _atom_site_fract_x
 _atom_site_fract_y
 _atom_site_fract_z
 _atom_site_occupancy
  Cr  Cr0  1  -0.00192030  0.00068468  -0.00055044  1
  Ni  Ni1  1  0.16468541  0.16692015  0.16429344  1
  Cr  Cr2  1  -0.00006313  -0.00239055  0.32663495  1
  Ni  Ni3  1  -0.00106606  0.32744241  0.99653037  1
  Cr  Cr4  1  0.16587506  0.49574241  0.16487407  1
  Ni  Ni5  1  -0.00171680  0.33146594  0.32912742  1
  Cr  Cr6  1  0.00035214  0.66360771  0.99707785  1
  Ni  Ni7  1  0.16594901  0.82903358  0.16591058  1
  Ni  Ni8  1  -0.00062892  0.66460675  0.33128098  1
  Cr  Cr9  1  0.32992718  0.00024005  -0.00038671  1
  Ni  Ni10  1  0.49728614  0.16421553  0.16226664  1
  Cr  Cr11  1  0.33130423  -0.00172911  0.33034771  1
  Ni  Ni12  1  0.33058035  0.32984882  0.99520281  1
  Cr  Cr13  1  0.49380371  0.49561531  0.16232198  1
  Ni  Ni14  1  0.33120618  0.33041595  0.33048648  1
  Ni  Ni15  1  0.33066253  0.66201592  0.99714105  1
  Ni  Ni16  1  0.49608815  0.83196221  0.16301463  1
  Ni  Ni17  1  0.33010849  0.66540412  0.33165359  1
  Ni  Ni18  1  0.66367316  0.00259181  0.00005151  1
  Ni  Ni19  1  0.83036232  0.16433923  0.16151176  1
  Cr  Cr20  1  0.66159884  -0.00190672  0.32871095  1
  Ni  Ni21  1  0.66270617  0.32566924  0.99592135  1
  Cr  Cr22  1  0.83257764  0.49472183  0.16551755  1
  Cr  Cr23  1  0.66230842  0.33010209  0.33404191  1
  Cr  Cr24  1  0.66211114  0.66391877  -0.00169999  1
  Ni  Ni25  1  0.83037387  0.83307005  0.16385587  1
  Cr  Cr26  1  0.66308547  0.66414493  0.33331376  1
  Cr  Cr27  1  0.16561298  0.16461788  0.49881644  1
  Ni  Ni28  1  -0.00029846  -0.00060698  0.66573199  1
  Ni  Ni29  1  0.16444004  0.16846458  0.82861166  1
  Cr  Cr30  1  0.16405195  0.49699750  0.49555205  1
  Ni  Ni31  1  -0.00225262  0.33095014  0.66646770  1
  Ni  Ni32  1  0.16770074  0.49375361  0.83018694  1
  Ni  Ni33  1  0.16679377  0.82849419  0.49948260  1
  Ni  Ni34  1  0.00072929  0.66206333  0.66255360  1
  Cr  Cr35  1  0.16598864  0.82966153  0.82619423  1
  Ni  Ni36  1  0.49615904  0.16520817  0.50065980  1
  Ni  Ni37  1  0.33138780  -0.00076467  0.66264446  1
  Ni  Ni38  1  0.49827138  0.16704047  0.82974782  1
  Ni  Ni39  1  0.49484550  0.49600157  0.49856707  1
  Ni  Ni40  1  0.33257572  0.33055080  0.66597274  1
  Ni  Ni41  1  0.49289035  0.49305977  0.83106671  1
  Ni  Ni42  1  0.49340666  0.83113662  0.49962984  1
  Ni  Ni43  1  0.32985237  0.66219967  0.66318302  1
  Cr  Cr44  1  0.49671338  0.83305725  0.83064175  1
  Cr  Cr45  1  0.83092883  0.16596563  0.50073676  1
  Ni  Ni46  1  0.66117334  0.00171200  0.66439933  1
  Ni  Ni47  1  0.82960002  0.16565850  0.83014036  1
  Ni  Ni48  1  0.83251067  0.49612061  0.49823298  1
  Ni  Ni49  1  0.66198818  0.32881629  0.66402527  1
  Cr  Cr50  1  0.83173031  0.49340023  0.83017058  1
  Cr  Cr51  1  0.83336423  0.83162980  0.50079643  1
  Cr  Cr52  1  0.66170071  0.65893890  0.66148429  1
  Cr  Cr53  1  0.82948510  0.83669977  0.82843176  1
" 