6077,Ni40Fe5Cr53_2,-217.291300175773, 142.3807208299,Ni40Fe5Cr53,"# generated using pymatgen
 data_Cr10FeNi7
_symmetry_space_group_name_H-M   'P 1'
_cell_length_a   7.52616079
_cell_length_b   7.52616079
_cell_length_c   10.64359866
_cell_angle_alpha   90.00000000
_cell_angle_beta   90.00000000
_cell_angle_gamma   90.00000000
_symmetry_Int_Tables_number   1
_chemical_formula_structural   Cr10FeNi7
_chemical_formula_sum   'Cr30 Fe3 Ni21'
_cell_volume   602.88638353
_cell_formula_units_Z   3
loop_
 _symmetry_equiv_pos_site_id
 _symmetry_equiv_pos_as_xyz
  1  'x, y, z'
loop_
 _atom_site_type_symbol
 _atom_site_label
 _atom_site_symmetry_multiplicity
 _atom_site_fract_x
 _atom_site_fract_y
 _atom_site_fract_z
 _atom_site_occupancy
  Ni  Ni0  1  0.99480743  -0.00098704  -0.00224785  1
  Cr  Cr1  1  0.15999542  0.16471618  0.16174484  1
  Ni  Ni2  1  0.99490396  -0.00005617  0.32880156  1
  Ni  Ni3  1  -0.00350583  0.33085717  -0.00295153  1
  Ni  Ni4  1  0.16234679  0.49314813  0.16004175  1
  Ni  Ni5  1  0.99479183  0.32859155  0.32874640  1
  Cr  Cr6  1  0.99580379  0.65937133  -0.00377155  1
  Cr  Cr7  1  0.16343671  0.82927409  0.16046147  1
  Cr  Cr8  1  0.99606129  0.65910974  0.32827733  1
  Cr  Cr9  1  0.33047960  -0.00273934  0.99405076  1
  Cr  Cr10  1  0.49767733  0.16546913  0.16226033  1
  Cr  Cr11  1  0.32888305  -0.00191536  0.33325688  1
  Ni  Ni12  1  0.32723951  0.33318061  -0.00349753  1
  Fe  Fe13  1  0.49631329  0.49504931  0.16333295  1
  Cr  Cr14  1  0.32875403  0.32985240  0.33090055  1
  Ni  Ni15  1  0.32918316  0.65875557  -0.00390905  1
  Cr  Cr16  1  0.49609679  0.82616745  0.16350763  1
  Cr  Cr17  1  0.32913693  0.66027349  0.32971367  1
  Cr  Cr18  1  0.66318280  -0.00261185  0.99387162  1
  Ni  Ni19  1  0.83060060  0.16636528  0.16422011  1
  Fe  Fe20  1  0.66238629  -0.00161039  0.32993753  1
  Cr  Cr21  1  0.66411344  0.33050312  -0.00355317  1
  Ni  Ni22  1  0.82974260  0.49199388  0.16438508  1
  Ni  Ni23  1  0.66356819  0.33093548  0.32868807  1
  Cr  Cr24  1  0.66415032  0.66089581  -0.00357199  1
  Cr  Cr25  1  0.82906404  0.83203119  0.16571906  1
  Ni  Ni26  1  0.66158882  0.65939531  0.32954663  1
  Ni  Ni27  1  0.16167643  0.16644695  0.49482772  1
  Cr  Cr28  1  -0.00241322  -0.00207585  0.66163536  1
  Cr  Cr29  1  0.16202469  0.16668022  0.83117637  1
  Ni  Ni30  1  0.16414577  0.49260909  0.49760406  1
  Ni  Ni31  1  -0.00165618  0.33126880  0.66266862  1
  Ni  Ni32  1  0.16319713  0.49415289  0.83008808  1
  Cr  Cr33  1  0.16311233  0.82862069  0.49634461  1
  Cr  Cr34  1  -0.00181498  0.65818568  0.66404060  1
  Cr  Cr35  1  0.16538717  0.82674300  0.83126735  1
  Ni  Ni36  1  0.49697043  0.16368541  0.49524431  1
  Cr  Cr37  1  0.33133301  -0.00304895  0.66101260  1
  Fe  Fe38  1  0.49425861  0.16461578  0.82988535  1
  Ni  Ni39  1  0.49529410  0.49690504  0.49410996  1
  Cr  Cr40  1  0.32853209  0.32933849  0.65962352  1
  Cr  Cr41  1  0.49269140  0.49711115  0.83073249  1
  Ni  Ni42  1  0.49676373  0.82763134  0.49578267  1
  Ni  Ni43  1  0.33065241  0.66149000  0.66163702  1
  Ni  Ni44  1  0.49360008  0.82740891  0.82902724  1
  Cr  Cr45  1  0.83053191  0.16457300  0.49383205  1
  Cr  Cr46  1  0.65947413  -0.00296321  0.66388961  1
  Cr  Cr47  1  0.83181585  0.16548333  0.82996017  1
  Cr  Cr48  1  0.82849014  0.49390983  0.49658343  1
  Cr  Cr49  1  0.66230297  0.32939681  0.66375417  1
  Ni  Ni50  1  0.83240692  0.49269327  0.82942359  1
  Cr  Cr51  1  0.82721509  0.82972157  0.49326000  1
  Cr  Cr52  1  0.66184966  0.66227588  0.66343274  1
  Cr  Cr53  1  0.82928843  0.82905705  0.82912702  1
" 