6368,Ni40Cr60_10,-223.440804473331, 131.385997874217,Ni40Cr60,"# generated using pymatgen
 data_Cr7Ni11
_symmetry_space_group_name_H-M   'P 1'
_cell_length_a   7.50221473
_cell_length_b   7.50221473
_cell_length_c   10.60973381
_cell_angle_alpha   90.00000000
_cell_angle_beta   90.00000000
_cell_angle_gamma   90.00000000
_symmetry_Int_Tables_number   1
_chemical_formula_structural   Cr7Ni11
_chemical_formula_sum   'Cr21 Ni33'
_cell_volume   597.15004366
_cell_formula_units_Z   3
loop_
 _symmetry_equiv_pos_site_id
 _symmetry_equiv_pos_as_xyz
  1  'x, y, z'
loop_
 _atom_site_type_symbol
 _atom_site_label
 _atom_site_symmetry_multiplicity
 _atom_site_fract_x
 _atom_site_fract_y
 _atom_site_fract_z
 _atom_site_occupancy
  Ni  Ni0  1  0.99515495  0.00069837  0.00028457  1
  Ni  Ni1  1  0.16338347  0.16540924  0.16259536  1
  Cr  Cr2  1  0.99705773  0.99713097  0.32911492  1
  Ni  Ni3  1  -0.00158585  0.32577316  -0.00173064  1
  Cr  Cr4  1  0.16670993  0.49465386  0.16477250  1
  Ni  Ni5  1  0.99626370  0.33035251  0.32938340  1
  Cr  Cr6  1  0.99759761  0.66622235  -0.00123183  1
  Ni  Ni7  1  0.16451226  0.83292004  0.16378950  1
  Cr  Cr8  1  0.99670726  0.66608167  0.33259215  1
  Cr  Cr9  1  0.33091227  -0.00103157  0.00084156  1
  Ni  Ni10  1  0.49846512  0.16476746  0.16489172  1
  Cr  Cr11  1  0.33250003  0.99700012  0.33091953  1
  Ni  Ni12  1  0.32997523  0.32969609  0.00046731  1
  Ni  Ni13  1  0.49611513  0.49703993  0.16663208  1
  Ni  Ni14  1  0.33455471  0.33196216  0.32921109  1
  Cr  Cr15  1  0.33198707  0.66369495  0.00004129  1
  Ni  Ni16  1  0.49979820  0.83120453  0.16556371  1
  Ni  Ni17  1  0.33489790  0.66418325  0.33044538  1
  Ni  Ni18  1  0.66749804  -0.00087720  0.00042530  1
  Ni  Ni19  1  0.83111839  0.16185956  0.16313398  1
  Ni  Ni20  1  0.66314267  0.99702015  0.32928225  1
  Cr  Cr21  1  0.66398196  0.32828816  -0.00209471  1
  Cr  Cr22  1  0.82974593  0.49627800  0.16679352  1
  Ni  Ni23  1  0.66212411  0.33150707  0.33103761  1
  Cr  Cr24  1  0.66340523  0.66574716  -0.00016334  1
  Ni  Ni25  1  0.82866373  0.83525525  0.16361679  1
  Ni  Ni26  1  0.66150918  0.66447140  0.33164217  1
  Cr  Cr27  1  0.16590209  0.16491649  0.49904554  1
  Ni  Ni28  1  0.99710061  0.99633399  0.66431841  1
  Cr  Cr29  1  0.16217032  0.16556777  0.83029566  1
  Cr  Cr30  1  0.16482862  0.49759046  0.49795768  1
  Ni  Ni31  1  0.99555384  0.33112378  0.66526531  1
  Cr  Cr32  1  0.16465138  0.49580897  0.83024809  1
  Ni  Ni33  1  0.16550317  0.82952215  0.50118577  1
  Ni  Ni34  1  0.99689105  0.66543983  0.66193579  1
  Cr  Cr35  1  0.16397279  0.83153113  0.82813963  1
  Ni  Ni36  1  0.49866169  0.16495650  0.49895453  1
  Ni  Ni37  1  0.33162225  0.99649780  0.66166682  1
  Cr  Cr38  1  0.49933340  0.16332971  0.82876950  1
  Ni  Ni39  1  0.49930990  0.49821100  0.49762851  1
  Ni  Ni40  1  0.33310395  0.33095648  0.66322815  1
  Cr  Cr41  1  0.49615776  0.49755810  0.82942998  1
  Ni  Ni42  1  0.49884895  0.82981680  0.49891368  1
  Ni  Ni43  1  0.33162851  0.66548546  0.66203657  1
  Cr  Cr44  1  0.49922623  0.83204161  0.82886828  1
  Cr  Cr45  1  0.82866895  0.16486272  0.49798549  1
  Ni  Ni46  1  0.66429449  -0.00216541  0.66326614  1
  Ni  Ni47  1  0.83223231  0.16332005  0.83082369  1
  Ni  Ni48  1  0.82823208  0.49893775  0.49901016  1
  Ni  Ni49  1  0.66433338  0.33113804  0.66292943  1
  Cr  Cr50  1  0.83217271  0.49574053  0.82832340  1
  Ni  Ni51  1  0.82860995  0.82893477  0.49975045  1
  Ni  Ni52  1  0.66443454  0.66399558  0.66095512  1
  Cr  Cr53  1  0.82979490  0.83467506  0.83024681  1
" 