4466,Ni40Fe49Cr9_19,-236.375511231425, 209.294162154867,Ni40Fe49Cr9,"# generated using pymatgen
 data_Cr3Fe13Ni11
_symmetry_space_group_name_H-M   'P 1'
_cell_length_a   7.42476221
_cell_length_b   7.42476221
_cell_length_c   10.50019941
_cell_angle_alpha   90.00000000
_cell_angle_beta   90.00000000
_cell_angle_gamma   90.00000000
_symmetry_Int_Tables_number   1
_chemical_formula_structural   Cr3Fe13Ni11
_chemical_formula_sum   'Cr6 Fe26 Ni22'
_cell_volume   578.84547820
_cell_formula_units_Z   2
loop_
 _symmetry_equiv_pos_site_id
 _symmetry_equiv_pos_as_xyz
  1  'x, y, z'
loop_
 _atom_site_type_symbol
 _atom_site_label
 _atom_site_symmetry_multiplicity
 _atom_site_fract_x
 _atom_site_fract_y
 _atom_site_fract_z
 _atom_site_occupancy
  Fe  Fe0  1  1.00275842  0.00322247  1.00214164  1
  Cr  Cr1  1  0.17126307  0.16967175  0.17005216  1
  Fe  Fe2  1  1.00126388  1.00190994  0.33778154  1
  Fe  Fe3  1  1.00068570  0.33785568  1.00215200  1
  Fe  Fe4  1  0.16949327  0.50227207  0.16906356  1
  Fe  Fe5  1  1.00176642  0.33720374  0.33705163  1
  Ni  Ni6  1  0.00357584  0.66692202  0.00392616  1
  Cr  Cr7  1  0.16879804  0.83639448  0.16877639  1
  Fe  Fe8  1  1.00024470  0.66943029  0.33760701  1
  Fe  Fe9  1  0.33636976  1.00148032  1.00238374  1
  Ni  Ni10  1  0.50280500  0.17017781  0.17020539  1
  Ni  Ni11  1  0.33841674  0.00464093  0.33752494  1
  Fe  Fe12  1  0.33731692  0.33846929  0.00310998  1
  Ni  Ni13  1  0.50565490  0.50139624  0.16840746  1
  Fe  Fe14  1  0.33803357  0.33502375  0.33678473  1
  Fe  Fe15  1  0.33828893  0.66859325  1.00226874  1
  Ni  Ni16  1  0.50434819  0.83696725  0.16884807  1
  Cr  Cr17  1  0.33661402  0.66916534  0.33715310  1
  Cr  Cr18  1  0.66839367  0.00319099  0.00525014  1
  Fe  Fe19  1  0.83403396  0.17043933  0.17004088  1
  Ni  Ni20  1  0.66875130  0.00307251  0.33570459  1
  Ni  Ni21  1  0.67033531  0.33810360  0.00373679  1
  Ni  Ni22  1  0.83544054  0.50342046  0.16888145  1
  Fe  Fe23  1  0.66874567  0.33604307  0.33537545  1
  Ni  Ni24  1  0.66906769  0.66691597  0.00345472  1
  Fe  Fe25  1  0.83405021  0.83482693  0.17042519  1
  Ni  Ni26  1  0.67123119  0.67011173  0.33586935  1
  Fe  Fe27  1  0.17000568  0.16873114  0.50264942  1
  Fe  Fe28  1  0.00355023  1.00276889  0.66861671  1
  Fe  Fe29  1  0.16865266  0.16950851  0.83629444  1
  Ni  Ni30  1  0.16714854  0.50223954  0.50283963  1
  Fe  Fe31  1  1.00265762  0.33632869  0.66933927  1
  Fe  Fe32  1  0.16951002  0.50366640  0.83573161  1
  Ni  Ni33  1  0.16828523  0.83721723  0.50416486  1
  Ni  Ni34  1  0.00407445  0.66755639  0.66792606  1
  Fe  Fe35  1  0.17118913  0.83536306  0.83585451  1
  Ni  Ni36  1  0.50184175  0.16849373  0.50205976  1
  Ni  Ni37  1  0.33656614  1.00215539  0.66881164  1
  Cr  Cr38  1  0.50185604  0.16983847  0.83643271  1
  Fe  Fe39  1  0.50363826  0.50312902  0.50332853  1
  Fe  Fe40  1  0.33561904  0.33659829  0.66864838  1
  Ni  Ni41  1  0.50381034  0.50366005  0.83616854  1
  Ni  Ni42  1  0.50338592  0.83904522  0.50396383  1
  Fe  Fe43  1  0.33630287  0.67062953  0.66926635  1
  Ni  Ni44  1  0.50042423  0.83470941  0.83573229  1
  Fe  Fe45  1  0.83578484  0.16861911  0.50292480  1
  Ni  Ni46  1  0.66829409  0.00338587  0.66776560  1
  Fe  Fe47  1  0.83696208  0.17197125  0.83557941  1
  Ni  Ni48  1  0.83746393  0.50378231  0.50324416  1
  Fe  Fe49  1  0.67026521  0.33672010  0.66948683  1
  Ni  Ni50  1  0.83646318  0.50188415  0.83641911  1
  Ni  Ni51  1  0.83687101  0.83513353  0.50192418  1
  Fe  Fe52  1  0.66881072  0.66973607  0.66896653  1
  Cr  Cr53  1  0.83658991  0.83397748  0.83565405  1
" 