5677,Ni40Fe17Cr42_9,-222.455393018204, 166.959158383318,Ni40Fe17Cr42,"# generated using pymatgen
 data_Cr8Fe3Ni7
_symmetry_space_group_name_H-M   'P 1'
_cell_length_a   7.49338651
_cell_length_b   7.49338651
_cell_length_c   10.59724883
_cell_angle_alpha   90.00000000
_cell_angle_beta   90.00000000
_cell_angle_gamma   90.00000000
_symmetry_Int_Tables_number   1
_chemical_formula_structural   Cr8Fe3Ni7
_chemical_formula_sum   'Cr24 Fe9 Ni21'
_cell_volume   595.04443866
_cell_formula_units_Z   3
loop_
 _symmetry_equiv_pos_site_id
 _symmetry_equiv_pos_as_xyz
  1  'x, y, z'
loop_
 _atom_site_type_symbol
 _atom_site_label
 _atom_site_symmetry_multiplicity
 _atom_site_fract_x
 _atom_site_fract_y
 _atom_site_fract_z
 _atom_site_occupancy
  Cr  Cr0  1  0.99778019  0.00007054  -0.00073453  1
  Fe  Fe1  1  0.16626448  0.16616630  0.16736533  1
  Fe  Fe2  1  0.99806814  0.00185587  0.33115603  1
  Cr  Cr3  1  0.99814219  0.33074641  -0.00166876  1
  Cr  Cr4  1  0.16792187  0.49750281  0.16557233  1
  Ni  Ni5  1  0.00093084  0.32738137  0.33146309  1
  Ni  Ni6  1  0.99794292  0.66379535  0.99571261  1
  Cr  Cr7  1  0.16613280  0.83293069  0.16619624  1
  Cr  Cr8  1  0.99760846  0.66319058  0.33336763  1
  Cr  Cr9  1  0.33374252  -0.00124604  -0.00084930  1
  Fe  Fe10  1  0.49787081  0.16661162  0.16627054  1
  Ni  Ni11  1  0.33386449  -0.00032363  0.33242837  1
  Ni  Ni12  1  0.33433364  0.33288813  -0.00128915  1
  Ni  Ni13  1  0.49785300  0.49647987  0.16413816  1
  Ni  Ni14  1  0.33116379  0.32790239  0.33111529  1
  Cr  Cr15  1  0.33478169  0.66391330  0.99789520  1
  Fe  Fe16  1  0.49930645  0.83051283  0.16710588  1
  Fe  Fe17  1  0.33625714  0.66477102  0.33130215  1
  Cr  Cr18  1  0.66355984  -0.00128083  -0.00172668  1
  Ni  Ni19  1  0.82951678  0.16460800  0.16625418  1
  Ni  Ni20  1  0.66107856  0.99717473  0.33186797  1
  Ni  Ni21  1  0.66238567  0.33232211  -0.00117268  1
  Cr  Cr22  1  0.82903652  0.49812109  0.16466057  1
  Cr  Cr23  1  0.66371171  0.33156792  0.33112647  1
  Ni  Ni24  1  0.66237048  0.66358895  -0.00147993  1
  Cr  Cr25  1  0.83095149  0.83188249  0.16515608  1
  Ni  Ni26  1  0.66047977  0.66818355  0.33063554  1
  Ni  Ni27  1  0.16903977  0.16475153  0.49562907  1
  Cr  Cr28  1  -0.00152695  -0.00033793  0.66498300  1
  Cr  Cr29  1  0.16881675  0.16691498  0.83183985  1
  Cr  Cr30  1  0.16784227  0.49642201  0.49784587  1
  Cr  Cr31  1  -0.00103004  0.33059003  0.66419640  1
  Ni  Ni32  1  0.16819705  0.49857857  0.83099422  1
  Cr  Cr33  1  0.16825399  0.83269299  0.49864452  1
  Fe  Fe34  1  -0.00092854  0.66251020  0.66569876  1
  Cr  Cr35  1  0.16691682  0.82910889  0.83062935  1
  Ni  Ni36  1  0.49557867  0.16329196  0.49886162  1
  Fe  Fe37  1  0.33533677  -0.00145454  0.66293958  1
  Cr  Cr38  1  0.49930968  0.16710067  0.82984401  1
  Cr  Cr39  1  0.49782104  0.49694400  0.49867795  1
  Ni  Ni40  1  0.33276512  0.33275187  0.66451920  1
  Fe  Fe41  1  0.49785503  0.49842827  0.83098215  1
  Ni  Ni42  1  0.49795894  0.83333643  0.49735414  1
  Ni  Ni43  1  0.33547570  0.66526601  0.66556955  1
  Ni  Ni44  1  0.49907293  0.83019471  0.82980990  1
  Cr  Cr45  1  0.82824002  0.16468318  0.49787712  1
  Fe  Fe46  1  0.66082621  -0.00168733  0.66420622  1
  Ni  Ni47  1  0.82793748  0.16625381  0.83136696  1
  Cr  Cr48  1  0.82939433  0.49880810  0.49803119  1
  Ni  Ni49  1  0.66226984  0.33209755  0.66553470  1
  Cr  Cr50  1  0.82899541  0.49782510  0.83210400  1
  Cr  Cr51  1  0.82818411  0.83131044  0.49845405  1
  Ni  Ni52  1  0.66009259  0.66629639  0.66526939  1
  Cr  Cr53  1  0.82934506  0.83110100  0.83136486  1
" 