2593,Ni40Fe5Cr53_12,-217.503035867233, 145.026583749467,Ni40Fe5Cr53,"# generated using pymatgen
 data_Cr10FeNi7
_symmetry_space_group_name_H-M   'P 1'
_cell_length_a   7.52602404
_cell_length_b   7.52602404
_cell_length_c   10.64340526
_cell_angle_alpha   90.00000000
_cell_angle_beta   90.00000000
_cell_angle_gamma   90.00000000
_symmetry_Int_Tables_number   1
_chemical_formula_structural   Cr10FeNi7
_chemical_formula_sum   'Cr30 Fe3 Ni21'
_cell_volume   602.85351975
_cell_formula_units_Z   3
loop_
 _symmetry_equiv_pos_site_id
 _symmetry_equiv_pos_as_xyz
  1  'x, y, z'
loop_
 _atom_site_type_symbol
 _atom_site_label
 _atom_site_symmetry_multiplicity
 _atom_site_fract_x
 _atom_site_fract_y
 _atom_site_fract_z
 _atom_site_occupancy
  Ni  Ni0  1  0.99363592  -0.00167048  -0.00232490  1
  Fe  Fe1  1  0.15765278  0.16118750  0.16132221  1
  Ni  Ni2  1  -0.00292931  -0.00297289  0.32797976  1
  Ni  Ni3  1  0.99182752  0.32577637  -0.00175439  1
  Cr  Cr4  1  0.15999294  0.49836971  0.16163903  1
  Ni  Ni5  1  0.99552393  0.32796772  0.32688854  1
  Cr  Cr6  1  0.99112137  0.66289266  0.99548854  1
  Cr  Cr7  1  0.16236710  0.82955934  0.16193531  1
  Ni  Ni8  1  -0.00273643  0.66294307  0.32847263  1
  Ni  Ni9  1  0.32905222  0.99329834  -0.00283462  1
  Cr  Cr10  1  0.49967746  0.16164546  0.16140250  1
  Cr  Cr11  1  0.32697141  -0.00367694  0.32860788  1
  Cr  Cr12  1  0.32799934  0.32953288  -0.00117244  1
  Fe  Fe13  1  0.49876220  0.49786035  0.16116312  1
  Cr  Cr14  1  0.32784835  0.32998318  0.32837678  1
  Ni  Ni15  1  0.33485548  0.66524485  -0.00288334  1
  Ni  Ni16  1  0.49485826  0.82758161  0.16019167  1
  Ni  Ni17  1  0.32803292  0.66305345  0.32846503  1
  Cr  Cr18  1  0.66395259  0.99294568  0.99497899  1
  Ni  Ni19  1  0.83120911  0.16441556  0.16267027  1
  Cr  Cr20  1  0.66329993  0.99510903  0.32744654  1
  Ni  Ni21  1  0.66638124  0.33133250  -0.00165729  1
  Ni  Ni22  1  0.83025108  0.49368690  0.16334108  1
  Ni  Ni23  1  0.66511063  0.33061621  0.32550916  1
  Ni  Ni24  1  0.66167637  0.66283558  -0.00200307  1
  Ni  Ni25  1  0.83061857  0.83027461  0.16283874  1
  Cr  Cr26  1  0.66267974  0.66197822  0.32456707  1
  Fe  Fe27  1  0.16053434  0.16226967  0.49450060  1
  Cr  Cr28  1  0.99569327  0.99576369  0.66362161  1
  Cr  Cr29  1  0.16177803  0.16234607  0.83401180  1
  Cr  Cr30  1  0.16199025  0.49983278  0.49707548  1
  Cr  Cr31  1  -0.00171869  0.32741597  0.66448386  1
  Cr  Cr32  1  0.16444017  0.49749824  0.82961716  1
  Ni  Ni33  1  0.16290925  0.82830795  0.49343770  1
  Cr  Cr34  1  0.99552916  0.66518996  0.66304510  1
  Cr  Cr35  1  0.16481917  0.82853971  0.83241832  1
  Cr  Cr36  1  0.49827291  0.16427601  0.49714907  1
  Cr  Cr37  1  0.32765273  -0.00337743  0.66175598  1
  Cr  Cr38  1  0.49742637  0.16200800  0.82942905  1
  Cr  Cr39  1  0.49630416  0.49574125  0.49551459  1
  Ni  Ni40  1  0.32764196  0.33057883  0.66146245  1
  Cr  Cr41  1  0.49458199  0.49707052  0.83072924  1
  Cr  Cr42  1  0.49360431  0.82827133  0.49590814  1
  Ni  Ni43  1  0.32963321  0.66360954  0.66267465  1
  Ni  Ni44  1  0.49484794  0.82797221  0.83156911  1
  Cr  Cr45  1  0.82854857  0.16346731  0.49334303  1
  Cr  Cr46  1  0.66488328  0.99338243  0.66600173  1
  Ni  Ni47  1  0.82982015  0.16169850  0.83320522  1
  Cr  Cr48  1  0.83060706  0.49483309  0.49236185  1
  Cr  Cr49  1  0.66392537  0.32933156  0.66375775  1
  Cr  Cr50  1  0.82925403  0.49359635  0.83174955  1
  Cr  Cr51  1  0.83383173  0.82957797  0.49285986  1
  Cr  Cr52  1  0.66368207  0.66538446  0.66559160  1
  Ni  Ni53  1  0.82823349  0.83206255  0.83248972  1
" 