5867,Ni40Fe51Cr7_14,-235.562690165847, 213.350963694466,Ni40Fe51Cr7,"# generated using pymatgen
 data_Cr2Fe9Ni7
_symmetry_space_group_name_H-M   'P 1'
_cell_length_a   7.41572225
_cell_length_b   7.41572225
_cell_length_c   10.48741497
_cell_angle_alpha   90.00000000
_cell_angle_beta   90.00000000
_cell_angle_gamma   90.00000000
_symmetry_Int_Tables_number   1
_chemical_formula_structural   Cr2Fe9Ni7
_chemical_formula_sum   'Cr6 Fe27 Ni21'
_cell_volume   576.73374488
_cell_formula_units_Z   3
loop_
 _symmetry_equiv_pos_site_id
 _symmetry_equiv_pos_as_xyz
  1  'x, y, z'
loop_
 _atom_site_type_symbol
 _atom_site_label
 _atom_site_symmetry_multiplicity
 _atom_site_fract_x
 _atom_site_fract_y
 _atom_site_fract_z
 _atom_site_occupancy
  Ni  Ni0  1  0.00354039  1.00219787  0.00372369  1
  Cr  Cr1  1  0.17120848  0.17164434  0.16982272  1
  Fe  Fe2  1  1.00324735  0.00470823  0.33843087  1
  Ni  Ni3  1  1.00319414  0.33748771  0.00387768  1
  Fe  Fe4  1  0.17094602  0.50187221  0.17092808  1
  Fe  Fe5  1  1.00332034  0.33756148  0.33741916  1
  Fe  Fe6  1  1.00187357  0.66806703  1.00217384  1
  Fe  Fe7  1  0.17076405  0.83658750  0.17032021  1
  Cr  Cr8  1  0.00389114  0.66965728  0.33673548  1
  Fe  Fe9  1  0.33888669  0.00521464  1.00170004  1
  Ni  Ni10  1  0.50378973  0.17124246  0.16733480  1
  Cr  Cr11  1  0.33781371  1.00286329  0.33772996  1
  Ni  Ni12  1  0.33754556  0.33755083  1.00129527  1
  Fe  Fe13  1  0.50473482  0.50149510  0.17080701  1
  Ni  Ni14  1  0.33883914  0.33806700  0.33880239  1
  Cr  Cr15  1  0.33675002  0.67008313  0.00513271  1
  Fe  Fe16  1  0.50441584  0.83679408  0.16945489  1
  Ni  Ni17  1  0.33773033  0.66893647  0.33732412  1
  Ni  Ni18  1  0.67033029  1.00325744  1.00337214  1
  Fe  Fe19  1  0.83502022  0.17193171  0.16985868  1
  Fe  Fe20  1  0.66892892  0.00500562  0.33686903  1
  Ni  Ni21  1  0.66974689  0.33743698  0.00454377  1
  Ni  Ni22  1  0.83598756  0.50263925  0.16784827  1
  Fe  Fe23  1  0.66918181  0.33732676  0.33699884  1
  Ni  Ni24  1  0.67011859  0.66971508  1.00218986  1
  Cr  Cr25  1  0.83573815  0.83653438  0.16899728  1
  Fe  Fe26  1  0.66780450  0.66794790  0.33672120  1
  Fe  Fe27  1  0.16974139  0.17174470  0.50453601  1
  Fe  Fe28  1  0.00401680  0.00387351  0.66960759  1
  Fe  Fe29  1  0.17134732  0.16929428  0.83782248  1
  Ni  Ni30  1  0.17117063  0.50371968  0.50327481  1
  Fe  Fe31  1  0.00471398  0.33723441  0.66934064  1
  Fe  Fe32  1  0.17023387  0.50307414  0.83516402  1
  Ni  Ni33  1  0.17111131  0.83584805  0.50464862  1
  Fe  Fe34  1  0.00434685  0.66908867  0.66908865  1
  Fe  Fe35  1  0.16919374  0.83775651  0.83502287  1
  Ni  Ni36  1  0.50372746  0.17022082  0.50570150  1
  Ni  Ni37  1  0.33614173  1.00324394  0.67089609  1
  Fe  Fe38  1  0.50286118  0.17004600  0.83646212  1
  Fe  Fe39  1  0.50324035  0.50274673  0.50422938  1
  Ni  Ni40  1  0.33785652  0.33659948  0.66974264  1
  Fe  Fe41  1  0.50485942  0.50340224  0.83579279  1
  Fe  Fe42  1  0.50400961  0.83540701  0.50532076  1
  Ni  Ni43  1  0.33610940  0.67044112  0.66804185  1
  Ni  Ni44  1  0.50361015  0.83702466  0.83699735  1
  Ni  Ni45  1  0.83540535  0.17071659  0.50132139  1
  Fe  Fe46  1  0.66783820  0.00388699  0.67010684  1
  Cr  Cr47  1  0.83587234  0.17075912  0.83926588  1
  Ni  Ni48  1  0.83656855  0.50294155  0.50539227  1
  Ni  Ni49  1  0.67106383  0.33679568  0.66958549  1
  Fe  Fe50  1  0.83539058  0.50489795  0.83702524  1
  Fe  Fe51  1  0.83656218  0.83732356  0.50480629  1
  Fe  Fe52  1  0.66835232  0.66955520  0.67137643  1
  Ni  Ni53  1  0.83617783  0.83540285  0.83588920  1
" 