1075,Ni40Cr60_9,-223.863525014326, 142.536658807721,Ni40Cr60,"# generated using pymatgen
 data_Cr7Ni11
_symmetry_space_group_name_H-M   'P 1'
_cell_length_a   7.50102002
_cell_length_b   7.50102002
_cell_length_c   10.60804424
_cell_angle_alpha   90.00000000
_cell_angle_beta   90.00000000
_cell_angle_gamma   90.00000000
_symmetry_Int_Tables_number   1
_chemical_formula_structural   Cr7Ni11
_chemical_formula_sum   'Cr21 Ni33'
_cell_volume   596.86480608
_cell_formula_units_Z   3
loop_
 _symmetry_equiv_pos_site_id
 _symmetry_equiv_pos_as_xyz
  1  'x, y, z'
loop_
 _atom_site_type_symbol
 _atom_site_label
 _atom_site_symmetry_multiplicity
 _atom_site_fract_x
 _atom_site_fract_y
 _atom_site_fract_z
 _atom_site_occupancy
  Cr  Cr0  1  0.00029236  -0.00068487  0.99735028  1
  Ni  Ni1  1  0.16549269  0.16410981  0.16673707  1
  Ni  Ni2  1  -0.00015079  -0.00032146  0.33122752  1
  Cr  Cr3  1  0.00131941  0.33029698  -0.00131179  1
  Ni  Ni4  1  0.16556686  0.49693973  0.16512604  1
  Ni  Ni5  1  -0.00180004  0.33090861  0.33091902  1
  Cr  Cr6  1  -0.00125294  0.66361356  -0.00084280  1
  Ni  Ni7  1  0.16641053  0.83234268  0.16506492  1
  Cr  Cr8  1  -0.00082687  0.66398985  0.33175608  1
  Ni  Ni9  1  0.33184701  0.99712591  0.99714812  1
  Cr  Cr10  1  0.49657010  0.16365185  0.16692322  1
  Ni  Ni11  1  0.32785074  -0.00106785  0.32979535  1
  Cr  Cr12  1  0.33048852  0.32949430  0.99688797  1
  Ni  Ni13  1  0.49718942  0.49785760  0.16458647  1
  Ni  Ni14  1  0.33029111  0.33193110  0.33001213  1
  Ni  Ni15  1  0.33285333  0.66395712  0.99768140  1
  Cr  Cr16  1  0.49646599  0.83123249  0.16307502  1
  Cr  Cr17  1  0.32987538  0.66309111  0.33244450  1
  Ni  Ni18  1  0.66142770  0.99552252  0.99444814  1
  Cr  Cr19  1  0.83123235  0.16550970  0.16752694  1
  Ni  Ni20  1  0.66551451  0.00053116  0.33215864  1
  Cr  Cr21  1  0.66145935  0.33112169  -0.00225823  1
  Ni  Ni22  1  0.83048591  0.49683926  0.16541387  1
  Ni  Ni23  1  0.66483053  0.33191658  0.33229867  1
  Ni  Ni24  1  0.66121829  0.66474191  0.99688680  1
  Cr  Cr25  1  0.82973987  0.83122495  0.16292668  1
  Cr  Cr26  1  0.66391507  0.66126769  0.33207449  1
  Cr  Cr27  1  0.16384879  0.16488953  0.49802496  1
  Ni  Ni28  1  -0.00200721  -0.00028944  0.66416310  1
  Ni  Ni29  1  0.16748909  0.16507685  0.82859018  1
  Ni  Ni30  1  0.16535415  0.49609165  0.49902265  1
  Ni  Ni31  1  -0.00097853  0.32995987  0.66362202  1
  Ni  Ni32  1  0.16819148  0.49613774  0.82923727  1
  Ni  Ni33  1  0.16550556  0.83224467  0.49834553  1
  Cr  Cr34  1  -0.00069116  0.66431782  0.66225963  1
  Cr  Cr35  1  0.16663104  0.83006718  0.82966687  1
  Cr  Cr36  1  0.49820577  0.16552255  0.49676256  1
  Ni  Ni37  1  0.33120251  -0.00192199  0.66626321  1
  Ni  Ni38  1  0.49573614  0.16270830  0.82919685  1
  Ni  Ni39  1  0.49611189  0.49456981  0.49859376  1
  Ni  Ni40  1  0.33165282  0.33214345  0.66629360  1
  Ni  Ni41  1  0.49515797  0.49893843  0.83018646  1
  Cr  Cr42  1  0.49430024  0.83299609  0.49820095  1
  Ni  Ni43  1  0.33135313  0.66275531  0.66405526  1
  Ni  Ni44  1  0.49758514  0.83137665  0.83207830  1
  Ni  Ni45  1  0.83150526  0.16677840  0.49769914  1
  Ni  Ni46  1  0.66388019  -0.00021167  0.66626621  1
  Cr  Cr47  1  0.83121656  0.16409990  0.82818500  1
  Ni  Ni48  1  0.83175685  0.49190424  0.49725673  1
  Ni  Ni49  1  0.66284646  0.32993547  0.66302998  1
  Cr  Cr50  1  0.83184296  0.49848053  0.83100572  1
  Cr  Cr51  1  0.83220682  0.83540398  0.49806052  1
  Cr  Cr52  1  0.66181241  0.66398957  0.66420744  1
  Ni  Ni53  1  0.82769321  0.83260709  0.83138552  1
" 