4380,Ni40Fe17Cr42_13,-222.533372062152, 165.508311526655,Ni40Fe17Cr42,"# generated using pymatgen
 data_Cr8Fe3Ni7
_symmetry_space_group_name_H-M   'P 1'
_cell_length_a   7.49884615
_cell_length_b   7.49884615
_cell_length_c   10.60496993
_cell_angle_alpha   90.00000000
_cell_angle_beta   90.00000000
_cell_angle_gamma   90.00000000
_symmetry_Int_Tables_number   1
_chemical_formula_structural   Cr8Fe3Ni7
_chemical_formula_sum   'Cr24 Fe9 Ni21'
_cell_volume   596.34602499
_cell_formula_units_Z   3
loop_
 _symmetry_equiv_pos_site_id
 _symmetry_equiv_pos_as_xyz
  1  'x, y, z'
loop_
 _atom_site_type_symbol
 _atom_site_label
 _atom_site_symmetry_multiplicity
 _atom_site_fract_x
 _atom_site_fract_y
 _atom_site_fract_z
 _atom_site_occupancy
  Cr  Cr0  1  0.99601225  0.99654720  -0.00119934  1
  Ni  Ni1  1  0.16246634  0.16588885  0.16690897  1
  Fe  Fe2  1  -0.00194219  0.00115021  0.32995349  1
  Fe  Fe3  1  0.99747109  0.33072985  -0.00087912  1
  Ni  Ni4  1  0.16542078  0.49669753  0.16495137  1
  Ni  Ni5  1  -0.00071397  0.32982566  0.32980424  1
  Cr  Cr6  1  -0.00120272  0.66165652  0.99666195  1
  Ni  Ni7  1  0.16652127  0.83075851  0.16370393  1
  Cr  Cr8  1  0.00037760  0.66371235  0.33247188  1
  Cr  Cr9  1  0.33182922  -0.00197837  0.00261339  1
  Ni  Ni10  1  0.49697714  0.16632867  0.16649571  1
  Cr  Cr11  1  0.33246368  -0.00156820  0.32853852  1
  Cr  Cr12  1  0.33076068  0.33233054  -0.00138426  1
  Cr  Cr13  1  0.49957308  0.49976819  0.16791612  1
  Ni  Ni14  1  0.32777265  0.33171287  0.33166484  1
  Fe  Fe15  1  0.33332583  0.66356457  -0.00046939  1
  Ni  Ni16  1  0.49666462  0.82778760  0.16429441  1
  Ni  Ni17  1  0.32994208  0.66453008  0.32944528  1
  Cr  Cr18  1  0.66424294  -0.00178446  0.00169207  1
  Ni  Ni19  1  0.83464944  0.16656243  0.16513164  1
  Cr  Cr20  1  0.66474148  -0.00080958  0.32898359  1
  Cr  Cr21  1  0.66581919  0.33038848  0.99757300  1
  Cr  Cr22  1  0.83098243  0.49682781  0.16676676  1
  Ni  Ni23  1  0.66621563  0.32824797  0.33050651  1
  Ni  Ni24  1  0.66595342  0.66464822  0.99540895  1
  Cr  Cr25  1  0.83076601  0.82869368  0.16717790  1
  Ni  Ni26  1  0.66253747  0.66732059  0.33340736  1
  Ni  Ni27  1  0.15925488  0.16599089  0.49582738  1
  Fe  Fe28  1  0.99479875  -0.00064576  0.66401624  1
  Cr  Cr29  1  0.16136873  0.16212555  0.83003549  1
  Ni  Ni30  1  0.16414729  0.49606606  0.49495506  1
  Cr  Cr31  1  0.99683005  0.33528606  0.66539963  1
  Fe  Fe32  1  0.16536587  0.49844767  0.83274707  1
  Cr  Cr33  1  0.16416726  0.83450484  0.49742409  1
  Cr  Cr34  1  0.99619133  0.66429270  0.66427558  1
  Fe  Fe35  1  0.16366905  0.82953555  0.83217551  1
  Cr  Cr36  1  0.49869244  0.16579457  0.49894743  1
  Cr  Cr37  1  0.33270073  0.99710090  0.66279494  1
  Cr  Cr38  1  0.49726515  0.16567500  0.82852630  1
  Cr  Cr39  1  0.49864163  0.49948991  0.49527302  1
  Cr  Cr40  1  0.33094445  0.33376737  0.66202720  1
  Ni  Ni41  1  0.50157132  0.49994719  0.83031251  1
  Ni  Ni42  1  0.50030662  0.82941909  0.49807941  1
  Cr  Cr43  1  0.32887792  0.66273875  0.66497697  1
  Cr  Cr44  1  0.49860512  0.83028350  0.83237129  1
  Ni  Ni45  1  0.83377351  0.16399606  0.49906803  1
  Ni  Ni46  1  0.66842459  0.99677871  0.66408957  1
  Fe  Fe47  1  0.82930842  0.16356710  0.82994475  1
  Cr  Cr48  1  0.82878272  0.49614224  0.49442497  1
  Ni  Ni49  1  0.66765187  0.32991426  0.66642004  1
  Ni  Ni50  1  0.82944632  0.49911257  0.83194099  1
  Fe  Fe51  1  0.82919316  0.83349721  0.49852201  1
  Fe  Fe52  1  0.66453786  0.66334542  0.66493030  1
  Ni  Ni53  1  0.83136315  0.82979647  0.82786208  1
" 