3938,Ni40Fe17Cr42_4,-222.476276811902, 168.077673025556,Ni40Fe17Cr42,"# generated using pymatgen
 data_Cr8Fe3Ni7
_symmetry_space_group_name_H-M   'P 1'
_cell_length_a   7.49727879
_cell_length_b   7.49727879
_cell_length_c   10.60275335
_cell_angle_alpha   90.00000000
_cell_angle_beta   90.00000000
_cell_angle_gamma   90.00000000
_symmetry_Int_Tables_number   1
_chemical_formula_structural   Cr8Fe3Ni7
_chemical_formula_sum   'Cr24 Fe9 Ni21'
_cell_volume   595.97216947
_cell_formula_units_Z   3
loop_
 _symmetry_equiv_pos_site_id
 _symmetry_equiv_pos_as_xyz
  1  'x, y, z'
loop_
 _atom_site_type_symbol
 _atom_site_label
 _atom_site_symmetry_multiplicity
 _atom_site_fract_x
 _atom_site_fract_y
 _atom_site_fract_z
 _atom_site_occupancy
  Ni  Ni0  1  0.99688771  -0.00060366  -0.00199896  1
  Ni  Ni1  1  0.16398165  0.16799769  0.16338208  1
  Cr  Cr2  1  -0.00182523  0.99673356  0.32987514  1
  Fe  Fe3  1  0.00080830  0.32759260  -0.00105002  1
  Ni  Ni4  1  0.16730785  0.49460053  0.16418433  1
  Cr  Cr5  1  0.99781646  0.33173230  0.32916213  1
  Fe  Fe6  1  0.99794513  0.66556723  -0.00062417  1
  Cr  Cr7  1  0.16350531  0.83193201  0.16477966  1
  Cr  Cr8  1  -0.00135889  0.66552658  0.33296680  1
  Cr  Cr9  1  0.32773803  -0.00186537  0.99592842  1
  Cr  Cr10  1  0.49446204  0.16597726  0.16725523  1
  Ni  Ni11  1  0.33148956  0.99692992  0.33339993  1
  Ni  Ni12  1  0.32890783  0.33385925  -0.00084552  1
  Ni  Ni13  1  0.49498171  0.49850394  0.16441824  1
  Ni  Ni14  1  0.33201802  0.33245996  0.32897275  1
  Cr  Cr15  1  0.33160691  0.66245122  0.99610373  1
  Cr  Cr16  1  0.50011532  0.82919127  0.16695446  1
  Ni  Ni17  1  0.33193556  0.66455947  0.33126429  1
  Cr  Cr18  1  0.66867500  -0.00166127  -0.00187287  1
  Ni  Ni19  1  0.83517440  0.16292494  0.16188077  1
  Cr  Cr20  1  0.66487554  0.99763561  0.33223814  1
  Cr  Cr21  1  0.66474985  0.33189075  -0.00188626  1
  Cr  Cr22  1  0.83159684  0.50039379  0.16353473  1
  Cr  Cr23  1  0.66423473  0.33175405  0.33166422  1
  Fe  Fe24  1  0.66396237  0.66515750  0.99770827  1
  Ni  Ni25  1  0.83122727  0.83127892  0.16272080  1
  Fe  Fe26  1  0.66312966  0.66545839  0.33276530  1
  Cr  Cr27  1  0.16845066  0.16486559  0.49795793  1
  Fe  Fe28  1  0.99687925  0.99739895  0.66574131  1
  Ni  Ni29  1  0.16260554  0.16598461  0.83190467  1
  Cr  Cr30  1  0.16363511  0.49766583  0.49790449  1
  Fe  Fe31  1  -0.00188811  0.33041650  0.66545828  1
  Cr  Cr32  1  0.16454381  0.49516219  0.83104755  1
  Ni  Ni33  1  0.16489643  0.83109081  0.49847678  1
  Fe  Fe34  1  0.99588125  0.66610710  0.66221478  1
  Fe  Fe35  1  0.16306759  0.83405462  0.83131157  1
  Ni  Ni36  1  0.49591957  0.16216875  0.49790733  1
  Cr  Cr37  1  0.33137871  0.99664413  0.66480821  1
  Cr  Cr38  1  0.49640297  0.16410246  0.82969272  1
  Cr  Cr39  1  0.49819382  0.49808418  0.49692017  1
  Ni  Ni40  1  0.33030784  0.33089775  0.66577300  1
  Fe  Fe41  1  0.49788964  0.49843421  0.83137316  1
  Ni  Ni42  1  0.49938085  0.83250754  0.49708086  1
  Cr  Cr43  1  0.33125026  0.66604171  0.66614184  1
  Ni  Ni44  1  0.49967745  0.82959462  0.83017741  1
  Cr  Cr45  1  0.83022718  0.16403087  0.50109600  1
  Ni  Ni46  1  0.66661529  0.99587660  0.66398536  1
  Ni  Ni47  1  0.83547161  0.16332391  0.83089681  1
  Ni  Ni48  1  0.83134997  0.50242313  0.50006595  1
  Cr  Cr49  1  0.66512710  0.33069094  0.66419767  1
  Cr  Cr50  1  0.83184043  0.49882775  0.83038886  1
  Ni  Ni51  1  0.82961290  0.82823567  0.50046094  1
  Ni  Ni52  1  0.66641022  0.66680888  0.66380707  1
  Cr  Cr53  1  0.83005195  0.83171054  0.83145590  1
" 