658,Ni40Fe5Cr53_0,-217.313161625721, 143.020915395585,Ni40Fe5Cr53,"# generated using pymatgen
 data_Cr10FeNi7
_symmetry_space_group_name_H-M   'P 1'
_cell_length_a   7.52803260
_cell_length_b   7.52803260
_cell_length_c   10.64624580
_cell_angle_alpha   90.00000000
_cell_angle_beta   90.00000000
_cell_angle_gamma   90.00000000
_symmetry_Int_Tables_number   1
_chemical_formula_structural   Cr10FeNi7
_chemical_formula_sum   'Cr30 Fe3 Ni21'
_cell_volume   603.33632162
_cell_formula_units_Z   3
loop_
 _symmetry_equiv_pos_site_id
 _symmetry_equiv_pos_as_xyz
  1  'x, y, z'
loop_
 _atom_site_type_symbol
 _atom_site_label
 _atom_site_symmetry_multiplicity
 _atom_site_fract_x
 _atom_site_fract_y
 _atom_site_fract_z
 _atom_site_occupancy
  Cr  Cr0  1  -0.00325579  0.99328591  -0.00350435  1
  Cr  Cr1  1  0.16398191  0.16213701  0.16022967  1
  Ni  Ni2  1  0.99387867  0.99242574  0.33024598  1
  Cr  Cr3  1  -0.00186040  0.33373104  0.99571701  1
  Ni  Ni4  1  0.15963766  0.49950393  0.16098258  1
  Cr  Cr5  1  0.99313119  0.33139088  0.32958248  1
  Ni  Ni6  1  -0.00260032  0.66098655  -0.00065460  1
  Ni  Ni7  1  0.15992769  0.82687502  0.16337156  1
  Ni  Ni8  1  0.99574437  0.66435547  0.32671924  1
  Ni  Ni9  1  0.33037210  0.99515015  -0.00311611  1
  Cr  Cr10  1  0.49572760  0.16221423  0.16310136  1
  Cr  Cr11  1  0.33010394  0.99404308  0.32931704  1
  Ni  Ni12  1  0.32777259  0.33041032  0.99474348  1
  Cr  Cr13  1  0.49559592  0.49473625  0.16301199  1
  Cr  Cr14  1  0.33018314  0.32865292  0.32907872  1
  Cr  Cr15  1  0.32892314  0.66329410  0.99487266  1
  Ni  Ni16  1  0.49617211  0.83086983  0.16223658  1
  Cr  Cr17  1  0.32632228  0.66506588  0.32908353  1
  Cr  Cr18  1  0.65970437  0.99212290  -0.00308952  1
  Cr  Cr19  1  0.82815435  0.16128537  0.16457729  1
  Ni  Ni20  1  0.66435711  -0.00220119  0.32940498  1
  Cr  Cr21  1  0.66228487  0.33120846  0.99550650  1
  Ni  Ni22  1  0.83232979  0.49948626  0.16442341  1
  Ni  Ni23  1  0.66491470  0.32724357  0.33254178  1
  Cr  Cr24  1  0.66389990  0.66440810  -0.00298273  1
  Ni  Ni25  1  0.83178452  0.82700615  0.16421929  1
  Cr  Cr26  1  0.66548614  0.66312345  0.32575803  1
  Cr  Cr27  1  0.16051303  0.15909498  0.49553552  1
  Ni  Ni28  1  0.99364939  0.99592527  0.66035833  1
  Cr  Cr29  1  0.16272211  0.16308740  0.83194357  1
  Cr  Cr30  1  0.16274891  0.50002192  0.49529301  1
  Cr  Cr31  1  0.99465266  0.32820517  0.66241921  1
  Ni  Ni32  1  0.16591190  0.49679775  0.83094089  1
  Ni  Ni33  1  0.15940496  0.82928571  0.49561476  1
  Cr  Cr34  1  -0.00365614  0.66234688  0.66188333  1
  Cr  Cr35  1  0.16254946  0.82838102  0.82804901  1
  Ni  Ni36  1  0.50238764  0.16337482  0.49545077  1
  Cr  Cr37  1  0.33022503  0.99414159  0.66142561  1
  Cr  Cr38  1  0.49584304  0.16304408  0.83097037  1
  Cr  Cr39  1  0.49823117  0.49457658  0.49754247  1
  Cr  Cr40  1  0.32980311  0.33076142  0.66371050  1
  Ni  Ni41  1  0.49372280  0.49779212  0.82711761  1
  Cr  Cr42  1  0.49631529  0.82934861  0.49766505  1
  Fe  Fe43  1  0.33089167  0.66364689  0.66435213  1
  Ni  Ni44  1  0.49618012  0.82694720  0.82733625  1
  Ni  Ni45  1  0.82563849  0.16144564  0.49632440  1
  Ni  Ni46  1  0.66274265  0.99524542  0.66181308  1
  Cr  Cr47  1  0.82919963  0.16038908  0.82671248  1
  Fe  Fe48  1  0.82778685  0.49504632  0.49509359  1
  Fe  Fe49  1  0.66286600  0.32812821  0.66078074  1
  Cr  Cr50  1  0.82828920  0.49759152  0.82870091  1
  Cr  Cr51  1  0.83154594  0.83134109  0.49609478  1
  Ni  Ni52  1  0.66015717  0.66271687  0.66452164  1
  Cr  Cr53  1  0.82827596  0.82977662  0.82824372  1
" 