4755,Ni40Cr60_15,-223.705511103105, 139.109200865978,Ni40Cr60,"# generated using pymatgen
 data_Cr7Ni11
_symmetry_space_group_name_H-M   'P 1'
_cell_length_a   7.49959398
_cell_length_b   7.49959398
_cell_length_c   10.60602752
_cell_angle_alpha   90.00000000
_cell_angle_beta   90.00000000
_cell_angle_gamma   90.00000000
_symmetry_Int_Tables_number   1
_chemical_formula_structural   Cr7Ni11
_chemical_formula_sum   'Cr21 Ni33'
_cell_volume   596.52445647
_cell_formula_units_Z   3
loop_
 _symmetry_equiv_pos_site_id
 _symmetry_equiv_pos_as_xyz
  1  'x, y, z'
loop_
 _atom_site_type_symbol
 _atom_site_label
 _atom_site_symmetry_multiplicity
 _atom_site_fract_x
 _atom_site_fract_y
 _atom_site_fract_z
 _atom_site_occupancy
  Cr  Cr0  1  0.99738670  -0.00035955  -0.00073103  1
  Ni  Ni1  1  0.16400672  0.16756220  0.16565506  1
  Cr  Cr2  1  -0.00179662  0.00061053  0.33064741  1
  Ni  Ni3  1  0.00164335  0.33066329  -0.00188531  1
  Ni  Ni4  1  0.16513320  0.49514333  0.16318339  1
  Ni  Ni5  1  -0.00210355  0.32885358  0.33072875  1
  Cr  Cr6  1  0.00016757  0.66430164  0.99730730  1
  Ni  Ni7  1  0.16636810  0.83098590  0.16449727  1
  Cr  Cr8  1  0.99614438  0.66427874  0.33069301  1
  Cr  Cr9  1  0.33059689  0.99767420  -0.00178373  1
  Cr  Cr10  1  0.49911686  0.16375458  0.16545743  1
  Ni  Ni11  1  0.33083888  0.00043527  0.32949732  1
  Ni  Ni12  1  0.32676729  0.33346467  0.99679863  1
  Cr  Cr13  1  0.49623984  0.49791227  0.16527966  1
  Ni  Ni14  1  0.32962505  0.32896760  0.33117556  1
  Ni  Ni15  1  0.33040708  0.66375622  0.99705066  1
  Ni  Ni16  1  0.49865949  0.83197051  0.16519575  1
  Cr  Cr17  1  0.33192011  0.66387216  0.32933819  1
  Ni  Ni18  1  0.66534776  0.99510454  -0.00064254  1
  Ni  Ni19  1  0.83213026  0.16385435  0.16529368  1
  Ni  Ni20  1  0.66581675  0.99780776  0.32939549  1
  Cr  Cr21  1  0.66502474  0.32983993  0.99598465  1
  Cr  Cr22  1  0.83327300  0.49593016  0.16555860  1
  Ni  Ni23  1  0.66610728  0.33053162  0.33366668  1
  Cr  Cr24  1  0.66267312  0.66626533  0.99531386  1
  Ni  Ni25  1  0.82853056  0.83325893  0.16554537  1
  Ni  Ni26  1  0.66513942  0.66502647  0.33262934  1
  Ni  Ni27  1  0.16336889  0.16584673  0.49900696  1
  Ni  Ni28  1  -0.00070443  0.00040624  0.66448088  1
  Ni  Ni29  1  0.16421305  0.16644593  0.82894107  1
  Cr  Cr30  1  0.16389890  0.49410311  0.49719831  1
  Ni  Ni31  1  -0.00204417  0.32927544  0.66451632  1
  Ni  Ni32  1  0.16483886  0.49555190  0.83270266  1
  Cr  Cr33  1  0.16409242  0.83551940  0.49986185  1
  Cr  Cr34  1  0.99597497  0.66468157  0.66535840  1
  Ni  Ni35  1  0.16514113  0.83176407  0.83009810  1
  Cr  Cr36  1  0.49609177  0.16538431  0.49749375  1
  Ni  Ni37  1  0.32748542  0.00031686  0.66624328  1
  Cr  Cr38  1  0.49594497  0.16470204  0.83051781  1
  Ni  Ni39  1  0.50039048  0.49471853  0.49694583  1
  Ni  Ni40  1  0.33031842  0.33022983  0.66533261  1
  Ni  Ni41  1  0.49567762  0.49736983  0.83063988  1
  Cr  Cr42  1  0.49758247  0.83209817  0.49561109  1
  Cr  Cr43  1  0.33285961  0.66273982  0.66723624  1
  Ni  Ni44  1  0.49645996  0.83064112  0.83261922  1
  Ni  Ni45  1  0.83259063  0.16635383  0.49754928  1
  Cr  Cr46  1  0.66615294  -0.00196604  0.66535780  1
  Cr  Cr47  1  0.83372305  0.16525420  0.83150594  1
  Ni  Ni48  1  0.82925672  0.49481635  0.49705494  1
  Ni  Ni49  1  0.66515785  0.33322526  0.66349449  1
  Ni  Ni50  1  0.83296834  0.49670417  0.82971076  1
  Ni  Ni51  1  0.83005290  0.83235769  0.49692633  1
  Cr  Cr52  1  0.66443448  0.66149358  0.66451348  1
  Ni  Ni53  1  0.83173521  0.83132657  0.83105899  1
" 