833,Ni40Fe49Cr9_17,-236.408168008183, 212.354723082867,Ni40Fe49Cr9,"# generated using pymatgen
 data_Cr3Fe13Ni11
_symmetry_space_group_name_H-M   'P 1'
_cell_length_a   7.42060493
_cell_length_b   7.42060493
_cell_length_c   10.49432013
_cell_angle_alpha   90.00000000
_cell_angle_beta   90.00000000
_cell_angle_gamma   90.00000000
_symmetry_Int_Tables_number   1
_chemical_formula_structural   Cr3Fe13Ni11
_chemical_formula_sum   'Cr6 Fe26 Ni22'
_cell_volume   577.87370014
_cell_formula_units_Z   2
loop_
 _symmetry_equiv_pos_site_id
 _symmetry_equiv_pos_as_xyz
  1  'x, y, z'
loop_
 _atom_site_type_symbol
 _atom_site_label
 _atom_site_symmetry_multiplicity
 _atom_site_fract_x
 _atom_site_fract_y
 _atom_site_fract_z
 _atom_site_occupancy
  Ni  Ni0  1  0.00345001  0.00403691  0.00343236  1
  Ni  Ni1  1  0.16994932  0.17181187  0.16826218  1
  Fe  Fe2  1  1.00277289  1.00182024  0.33477918  1
  Ni  Ni3  1  0.00428644  0.33565093  1.00101843  1
  Ni  Ni4  1  0.16790474  0.50159059  0.16474640  1
  Cr  Cr5  1  1.00192266  0.33597697  0.34045160  1
  Fe  Fe6  1  1.00060838  0.67193166  1.00145597  1
  Fe  Fe7  1  0.16896252  0.83741055  0.16843838  1
  Fe  Fe8  1  1.00174966  0.66829802  0.33620686  1
  Ni  Ni9  1  0.33536456  1.00195374  0.00358901  1
  Fe  Fe10  1  0.50283469  0.16662544  0.16905705  1
  Fe  Fe11  1  0.33736841  0.00463876  0.33377446  1
  Fe  Fe12  1  0.33585193  0.33398639  1.00170205  1
  Fe  Fe13  1  0.50342885  0.50519838  0.16857311  1
  Cr  Cr14  1  0.33661710  0.33802774  0.33615225  1
  Fe  Fe15  1  0.33617243  0.67076285  1.00269219  1
  Ni  Ni16  1  0.50683690  0.83724488  0.16763713  1
  Cr  Cr17  1  0.33631512  0.67060596  0.33529371  1
  Ni  Ni18  1  0.67068188  1.00126309  1.00269996  1
  Fe  Fe19  1  0.83903710  0.16732406  0.16947942  1
  Fe  Fe20  1  0.67037004  0.00381815  0.33596643  1
  Cr  Cr21  1  0.67143267  0.33481300  0.00495672  1
  Fe  Fe22  1  0.83848893  0.50460846  0.16839786  1
  Fe  Fe23  1  0.66933637  0.33692015  0.33717055  1
  Ni  Ni24  1  0.66837982  0.67024533  1.00196023  1
  Ni  Ni25  1  0.83537214  0.83550391  0.16959994  1
  Fe  Fe26  1  0.67141547  0.66855079  0.33509014  1
  Fe  Fe27  1  0.17131509  0.16899375  0.50608077  1
  Ni  Ni28  1  1.00034670  1.00274316  0.66953399  1
  Ni  Ni29  1  0.17038168  0.17186330  0.83543680  1
  Ni  Ni30  1  0.16886742  0.50175576  0.50713943  1
  Fe  Fe31  1  1.00265733  0.33607711  0.67093537  1
  Fe  Fe32  1  0.16944729  0.50362402  0.83582594  1
  Cr  Cr33  1  0.16780778  0.83687108  0.50335614  1
  Ni  Ni34  1  0.00349852  0.67071777  0.66966553  1
  Fe  Fe35  1  0.16863518  0.83984079  0.83518891  1
  Ni  Ni36  1  0.50320882  0.17086995  0.50297748  1
  Fe  Fe37  1  0.33662214  0.00567390  0.67287429  1
  Ni  Ni38  1  0.50212593  0.17023056  0.83704725  1
  Ni  Ni39  1  0.50391695  0.50200650  0.50470801  1
  Ni  Ni40  1  0.33778206  0.33816799  0.66889039  1
  Fe  Fe41  1  0.50369115  0.50248087  0.83471912  1
  Cr  Cr42  1  0.50683708  0.83805950  0.50770355  1
  Ni  Ni43  1  0.33615764  0.66825325  0.67164228  1
  Fe  Fe44  1  0.50245692  0.83858165  0.83729976  1
  Fe  Fe45  1  0.83427861  0.16770720  0.50496245  1
  Ni  Ni46  1  0.67159657  0.00461637  0.67247437  1
  Fe  Fe47  1  0.83719876  0.16765940  0.83626761  1
  Fe  Fe48  1  0.83413763  0.50532316  0.50585472  1
  Ni  Ni49  1  0.66854262  0.33436319  0.66824035  1
  Fe  Fe50  1  0.83674881  0.50140590  0.83569435  1
  Ni  Ni51  1  0.83622385  0.83612073  0.50240187  1
  Fe  Fe52  1  0.67179789  0.66896122  0.67277881  1
  Ni  Ni53  1  0.83579100  0.83539561  0.83669939  1
" 