1301,Ni40Cr60_18,-223.972360689013, 146.129290892922,Ni40Cr60,"# generated using pymatgen
 data_Cr7Ni11
_symmetry_space_group_name_H-M   'P 1'
_cell_length_a   7.49730976
_cell_length_b   7.49730976
_cell_length_c   10.60279715
_cell_angle_alpha   90.00000000
_cell_angle_beta   90.00000000
_cell_angle_gamma   90.00000000
_symmetry_Int_Tables_number   1
_chemical_formula_structural   Cr7Ni11
_chemical_formula_sum   'Cr21 Ni33'
_cell_volume   595.97955587
_cell_formula_units_Z   3
loop_
 _symmetry_equiv_pos_site_id
 _symmetry_equiv_pos_as_xyz
  1  'x, y, z'
loop_
 _atom_site_type_symbol
 _atom_site_label
 _atom_site_symmetry_multiplicity
 _atom_site_fract_x
 _atom_site_fract_y
 _atom_site_fract_z
 _atom_site_occupancy
  Ni  Ni0  1  0.99667671  0.99724843  -0.00044673  1
  Ni  Ni1  1  0.16599228  0.16331436  0.16342409  1
  Ni  Ni2  1  0.99561815  0.99782118  0.33130879  1
  Cr  Cr3  1  0.99768536  0.33231325  0.99682238  1
  Ni  Ni4  1  0.16689894  0.49807403  0.16507520  1
  Cr  Cr5  1  -0.00161093  0.32968472  0.33160065  1
  Ni  Ni6  1  0.99623801  0.66464407  0.99786938  1
  Cr  Cr7  1  0.16322551  0.83294865  0.16373044  1
  Cr  Cr8  1  -0.00021726  0.66620371  0.33150774  1
  Ni  Ni9  1  0.33343696  0.99791014  -0.00040872  1
  Ni  Ni10  1  0.49838423  0.16407667  0.16412953  1
  Cr  Cr11  1  0.33276717  0.99724375  0.33093467  1
  Cr  Cr12  1  0.33221677  0.33165372  0.00036628  1
  Ni  Ni13  1  0.49881732  0.49873258  0.16598743  1
  Cr  Cr14  1  0.33228766  0.33325732  0.32894594  1
  Cr  Cr15  1  0.33318225  0.66416859  0.99768992  1
  Ni  Ni16  1  0.50106931  0.83112775  0.16451726  1
  Ni  Ni17  1  0.33222095  0.66336662  0.33076301  1
  Ni  Ni18  1  0.66386158  0.99677437  -0.00084057  1
  Cr  Cr19  1  0.83026221  0.16186391  0.16491543  1
  Ni  Ni20  1  0.66557875  -0.00121520  0.33056774  1
  Ni  Ni21  1  0.66383452  0.33187450  0.99689787  1
  Cr  Cr22  1  0.82808751  0.50074420  0.16399413  1
  Ni  Ni23  1  0.66250001  0.32916237  0.33171749  1
  Ni  Ni24  1  0.66465811  0.66533772  -0.00188802  1
  Ni  Ni25  1  0.82880444  0.83214548  0.16396314  1
  Ni  Ni26  1  0.66166829  0.66597684  0.32797007  1
  Cr  Cr27  1  0.16335082  0.16236682  0.49983446  1
  Ni  Ni28  1  0.99669315  -0.00087906  0.66310495  1
  Cr  Cr29  1  0.16283917  0.16269388  0.83169795  1
  Ni  Ni30  1  0.16368684  0.50066845  0.49875802  1
  Ni  Ni31  1  0.99521636  0.33224509  0.66555939  1
  Ni  Ni32  1  0.16160199  0.49897946  0.83009713  1
  Ni  Ni33  1  0.16367316  0.83086929  0.49908731  1
  Ni  Ni34  1  -0.00159527  0.66258539  0.66454876  1
  Cr  Cr35  1  0.16490462  0.83263248  0.83079882  1
  Ni  Ni36  1  0.50218704  0.16385591  0.49872699  1
  Ni  Ni37  1  0.33241910  0.99688280  0.66384800  1
  Cr  Cr38  1  0.50013093  0.16303044  0.83103733  1
  Cr  Cr39  1  0.49972328  0.49704168  0.49603056  1
  Cr  Cr40  1  0.33118718  0.33189716  0.66465975  1
  Ni  Ni41  1  0.50232860  0.49966377  0.83148887  1
  Cr  Cr42  1  0.49760315  0.83230765  0.49851695  1
  Cr  Cr43  1  0.33054562  0.66548137  0.66505455  1
  Ni  Ni44  1  0.49971741  0.83092373  0.83125857  1
  Ni  Ni45  1  0.82904390  0.16382816  0.49907369  1
  Ni  Ni46  1  0.66486874  0.00004258  0.66421982  1
  Ni  Ni47  1  0.83037842  0.16630921  0.82972375  1
  Cr  Cr48  1  0.83021217  0.49634942  0.49957197  1
  Ni  Ni49  1  0.66786738  0.32981994  0.66528755  1
  Ni  Ni50  1  0.83001400  0.49722794  0.83013978  1
  Cr  Cr51  1  0.83232067  0.83295665  0.49760670  1
  Ni  Ni52  1  0.66563646  0.66406093  0.66782568  1
  Cr  Cr53  1  0.83031748  0.83072228  0.83234530  1
" 