2104,Ni40Fe6Cr53_1,-217.133333275357, 140.012219301282,Ni40Fe6Cr53,"# generated using pymatgen
 data_Cr10FeNi7
_symmetry_space_group_name_H-M   'P 1'
_cell_length_a   7.53413345
_cell_length_b   7.53413345
_cell_length_c   10.65487371
_cell_angle_alpha   90.00000000
_cell_angle_beta   90.00000000
_cell_angle_gamma   90.00000000
_symmetry_Int_Tables_number   1
_chemical_formula_structural   Cr10FeNi7
_chemical_formula_sum   'Cr30 Fe3 Ni21'
_cell_volume   604.80437476
_cell_formula_units_Z   3
loop_
 _symmetry_equiv_pos_site_id
 _symmetry_equiv_pos_as_xyz
  1  'x, y, z'
loop_
 _atom_site_type_symbol
 _atom_site_label
 _atom_site_symmetry_multiplicity
 _atom_site_fract_x
 _atom_site_fract_y
 _atom_site_fract_z
 _atom_site_occupancy
  Cr  Cr0  1  -0.00337906  0.99396657  -0.00388931  1
  Ni  Ni1  1  0.16180260  0.16449720  0.16429438  1
  Cr  Cr2  1  -0.00171246  -0.00389448  0.32998229  1
  Cr  Cr3  1  0.99436961  0.33043906  -0.00268020  1
  Ni  Ni4  1  0.16191746  0.49466652  0.16506847  1
  Fe  Fe5  1  -0.00255964  0.32806258  0.32832277  1
  Cr  Cr6  1  0.99300255  0.66172117  -0.00346820  1
  Ni  Ni7  1  0.16420494  0.82738949  0.16328889  1
  Cr  Cr8  1  -0.00341760  0.66280441  0.32634519  1
  Cr  Cr9  1  0.32969664  0.99339256  -0.00047907  1
  Cr  Cr10  1  0.49683198  0.15964958  0.16209592  1
  Cr  Cr11  1  0.32912229  0.99429297  0.32826242  1
  Cr  Cr12  1  0.32786448  0.32794897  -0.00240284  1
  Cr  Cr13  1  0.49563441  0.49772118  0.16377279  1
  Ni  Ni14  1  0.32667530  0.32794225  0.32935003  1
  Cr  Cr15  1  0.32983501  0.66501475  -0.00361757  1
  Ni  Ni16  1  0.49733449  0.82780837  0.16296513  1
  Ni  Ni17  1  0.32928644  0.66348681  0.32878491  1
  Ni  Ni18  1  0.66234124  0.99147160  0.99286383  1
  Cr  Cr19  1  0.82829913  0.15990670  0.16291447  1
  Ni  Ni20  1  0.66032758  0.99428858  0.33198769  1
  Cr  Cr21  1  0.66472980  0.33156308  0.99290479  1
  Ni  Ni22  1  0.82938989  0.49668802  0.16295062  1
  Cr  Cr23  1  0.66299123  0.32803200  0.33108798  1
  Ni  Ni24  1  0.66320374  0.66480804  0.99514635  1
  Cr  Cr25  1  0.82433329  0.82922776  0.16250978  1
  Ni  Ni26  1  0.65938214  0.66441527  0.32715765  1
  Ni  Ni27  1  0.16124179  0.16142393  0.49469026  1
  Ni  Ni28  1  0.99368396  -0.00370257  0.66119712  1
  Cr  Cr29  1  0.16115521  0.16133746  0.82910323  1
  Cr  Cr30  1  0.16424656  0.49666172  0.49585034  1
  Cr  Cr31  1  0.99208527  0.32710795  0.66166990  1
  Cr  Cr32  1  0.16295617  0.49576045  0.82643882  1
  Ni  Ni33  1  0.16435108  0.83029283  0.49694387  1
  Cr  Cr34  1  0.99426269  0.66512559  0.66315557  1
  Cr  Cr35  1  0.16149545  0.82953884  0.82623602  1
  Ni  Ni36  1  0.49623984  0.15947295  0.49424203  1
  Cr  Cr37  1  0.32977285  0.99391861  0.65914767  1
  Cr  Cr38  1  0.49663803  0.15888172  0.83057703  1
  Cr  Cr39  1  0.49353744  0.49762941  0.49414779  1
  Cr  Cr40  1  0.33133390  0.32659489  0.66055324  1
  Cr  Cr41  1  0.49418612  0.49806459  0.82848202  1
  Ni  Ni42  1  0.49510385  0.82990821  0.49401813  1
  Ni  Ni43  1  0.33113310  0.66720385  0.66074421  1
  Ni  Ni44  1  0.50026304  0.82947073  0.82904950  1
  Ni  Ni45  1  0.82878822  0.15914899  0.49690467  1
  Fe  Fe46  1  0.66238032  0.99435136  0.66141708  1
  Fe  Fe47  1  0.82844144  0.15823979  0.82808108  1
  Cr  Cr48  1  0.82933235  0.49624879  0.49199904  1
  Cr  Cr49  1  0.66335543  0.32694056  0.66247034  1
  Ni  Ni50  1  0.82766845  0.49836793  0.83050898  1
  Cr  Cr51  1  0.82779968  0.83107739  0.49461956  1
  Cr  Cr52  1  0.66129885  0.66263193  0.66296211  1
  Ni  Ni53  1  0.82532656  0.83057618  0.82885637  1
" 