9017,Ni40Fe5Cr53_14,-217.656998196367, 151.903906718467,Ni40Fe5Cr53,"# generated using pymatgen
 data_Cr10FeNi7
_symmetry_space_group_name_H-M   'P 1'
_cell_length_a   7.51770720
_cell_length_b   7.51770720
_cell_length_c   10.63164348
_cell_angle_alpha   90.00000000
_cell_angle_beta   90.00000000
_cell_angle_gamma   90.00000000
_symmetry_Int_Tables_number   1
_chemical_formula_structural   Cr10FeNi7
_chemical_formula_sum   'Cr30 Fe3 Ni21'
_cell_volume   600.85712956
_cell_formula_units_Z   3
loop_
 _symmetry_equiv_pos_site_id
 _symmetry_equiv_pos_as_xyz
  1  'x, y, z'
loop_
 _atom_site_type_symbol
 _atom_site_label
 _atom_site_symmetry_multiplicity
 _atom_site_fract_x
 _atom_site_fract_y
 _atom_site_fract_z
 _atom_site_occupancy
  Cr  Cr0  1  -0.00158794  0.99590074  0.99561785  1
  Cr  Cr1  1  0.16572072  0.16435394  0.16558610  1
  Cr  Cr2  1  0.00034209  0.99586210  0.33343822  1
  Fe  Fe3  1  -0.00124091  0.33245813  0.99637583  1
  Cr  Cr4  1  0.16547115  0.49722488  0.16407581  1
  Ni  Ni5  1  0.00026935  0.33278595  0.33209933  1
  Ni  Ni6  1  -0.00000023  0.66106629  0.99628272  1
  Cr  Cr7  1  0.16578590  0.82822129  0.16425387  1
  Fe  Fe8  1  0.00054812  0.66086820  0.33298548  1
  Ni  Ni9  1  0.33021562  -0.00245603  -0.00270574  1
  Ni  Ni10  1  0.49265318  0.16475306  0.16439875  1
  Ni  Ni11  1  0.32964410  -0.00295426  0.33220494  1
  Cr  Cr12  1  0.32996761  0.33047173  0.99576703  1
  Ni  Ni13  1  0.49296392  0.49573896  0.16464849  1
  Ni  Ni14  1  0.32858359  0.33100116  0.33212059  1
  Ni  Ni15  1  0.32638869  0.66194544  0.99620634  1
  Cr  Cr16  1  0.49112546  0.82860577  0.16340469  1
  Ni  Ni17  1  0.32925488  0.66169502  0.33294385  1
  Cr  Cr18  1  0.66139114  -0.00251951  -0.00192081  1
  Cr  Cr19  1  0.83181140  0.16572987  0.16432639  1
  Cr  Cr20  1  0.65989239  0.99610040  0.32908579  1
  Cr  Cr21  1  0.66103516  0.33050910  -0.00299802  1
  Cr  Cr22  1  0.83327808  0.49592967  0.16469819  1
  Cr  Cr23  1  0.66012887  0.33182451  0.33116288  1
  Cr  Cr24  1  0.66276978  0.66193972  -0.00122905  1
  Cr  Cr25  1  0.83303577  0.82820273  0.16410156  1
  Cr  Cr26  1  0.66174350  0.66196671  0.33119173  1
  Ni  Ni27  1  0.16594724  0.16433846  0.49411028  1
  Fe  Fe28  1  0.00010623  0.99530065  0.66077989  1
  Cr  Cr29  1  0.16468407  0.16414479  0.83062869  1
  Ni  Ni30  1  0.16439960  0.49760989  0.49518537  1
  Cr  Cr31  1  0.00140929  0.33259820  0.66261596  1
  Ni  Ni32  1  0.16253454  0.49962205  0.83092443  1
  Ni  Ni33  1  0.16661638  0.82763370  0.49659115  1
  Ni  Ni34  1  0.00098720  0.66176744  0.66069254  1
  Cr  Cr35  1  0.16504648  0.82696384  0.82937678  1
  Ni  Ni36  1  0.49373680  0.16457143  0.49534056  1
  Cr  Cr37  1  0.32861104  -0.00294257  0.66077339  1
  Ni  Ni38  1  0.49638471  0.16350062  0.83002547  1
  Ni  Ni39  1  0.49409793  0.49654281  0.49672651  1
  Cr  Cr40  1  0.32965587  0.33197924  0.66113440  1
  Cr  Cr41  1  0.49328419  0.49737561  0.82759898  1
  Ni  Ni42  1  0.49163213  0.82864171  0.49561841  1
  Ni  Ni43  1  0.32503514  0.66224872  0.66086288  1
  Cr  Cr44  1  0.49289683  0.82927675  0.83071580  1
  Cr  Cr45  1  0.83041873  0.16649142  0.49787027  1
  Cr  Cr46  1  0.66023021  -0.00263937  0.66257843  1
  Cr  Cr47  1  0.82904603  0.16509080  0.82768174  1
  Ni  Ni48  1  0.83194333  0.49591353  0.49665399  1
  Ni  Ni49  1  0.66188274  0.33016997  0.66076498  1
  Cr  Cr50  1  0.83190626  0.49648957  0.82909554  1
  Cr  Cr51  1  0.83118733  0.82836402  0.49747329  1
  Cr  Cr52  1  0.66135158  0.66100391  0.66000611  1
  Cr  Cr53  1  0.83183178  0.82877225  0.82810637  1
" 