4899,Ni40Fe49Cr9_16,-235.794912182268, 213.17590989875,Ni40Fe49Cr9,"# generated using pymatgen
 data_Cr3Fe13Ni11
_symmetry_space_group_name_H-M   'P 1'
_cell_length_a   7.41649580
_cell_length_b   7.41649580
_cell_length_c   10.48850895
_cell_angle_alpha   90.00000000
_cell_angle_beta   90.00000000
_cell_angle_gamma   90.00000000
_symmetry_Int_Tables_number   1
_chemical_formula_structural   Cr3Fe13Ni11
_chemical_formula_sum   'Cr6 Fe26 Ni22'
_cell_volume   576.91424601
_cell_formula_units_Z   2
loop_
 _symmetry_equiv_pos_site_id
 _symmetry_equiv_pos_as_xyz
  1  'x, y, z'
loop_
 _atom_site_type_symbol
 _atom_site_label
 _atom_site_symmetry_multiplicity
 _atom_site_fract_x
 _atom_site_fract_y
 _atom_site_fract_z
 _atom_site_occupancy
  Ni  Ni0  1  1.00250975  0.00489508  0.00362455  1
  Fe  Fe1  1  0.16752474  0.17044435  0.16981346  1
  Fe  Fe2  1  0.00341317  1.00331095  0.33777387  1
  Ni  Ni3  1  1.00305637  0.33483467  1.00260198  1
  Cr  Cr4  1  0.16938334  0.50314554  0.17029376  1
  Ni  Ni5  1  1.00174239  0.33492126  0.33662794  1
  Fe  Fe6  1  1.00041826  0.67005967  1.00240279  1
  Cr  Cr7  1  0.16931842  0.83687543  0.16999692  1
  Ni  Ni8  1  1.00202472  0.67009689  0.33792814  1
  Fe  Fe9  1  0.33701824  0.00427842  1.00212161  1
  Cr  Cr10  1  0.50429906  0.17038340  0.17030162  1
  Ni  Ni11  1  0.33614444  1.00299246  0.33866803  1
  Ni  Ni12  1  0.33612185  0.33676422  1.00224112  1
  Fe  Fe13  1  0.50477391  0.50478985  0.16917928  1
  Fe  Fe14  1  0.33696531  0.33671611  0.33758200  1
  Fe  Fe15  1  0.33856303  0.66982004  1.00160132  1
  Fe  Fe16  1  0.50492742  0.83542844  0.16990721  1
  Ni  Ni17  1  0.33842473  0.67191543  0.33790970  1
  Ni  Ni18  1  0.67162067  1.00109279  1.00274333  1
  Fe  Fe19  1  0.83878445  0.17029209  0.16988608  1
  Fe  Fe20  1  0.67084395  0.00350443  0.33724875  1
  Ni  Ni21  1  0.67104661  0.33865972  1.00336890  1
  Ni  Ni22  1  0.83647625  0.50248414  0.16880955  1
  Fe  Fe23  1  0.67130679  0.33695335  0.33765193  1
  Ni  Ni24  1  0.66969022  0.67047287  0.00415008  1
  Ni  Ni25  1  0.83651671  0.83729677  0.16939823  1
  Cr  Cr26  1  0.66997196  0.66955015  0.33645314  1
  Fe  Fe27  1  0.16930462  0.16942111  0.50259612  1
  Ni  Ni28  1  1.00186600  0.00343334  0.66882886  1
  Fe  Fe29  1  0.16867914  0.17021319  0.83781149  1
  Cr  Cr30  1  0.17050082  0.50545272  0.50332667  1
  Fe  Fe31  1  1.00325697  0.33575893  0.67024414  1
  Fe  Fe32  1  0.17026801  0.50383361  0.83673898  1
  Ni  Ni33  1  0.17038499  0.83683600  0.50242947  1
  Fe  Fe34  1  0.00379814  0.67149973  0.67045528  1
  Ni  Ni35  1  0.16891242  0.83566428  0.83777218  1
  Fe  Fe36  1  0.50411391  0.17099881  0.50245857  1
  Cr  Cr37  1  0.33544629  1.00297262  0.67012433  1
  Fe  Fe38  1  0.50409184  0.17039873  0.83823998  1
  Ni  Ni39  1  0.50345297  0.50213080  0.50361720  1
  Ni  Ni40  1  0.33770583  0.33808583  0.66977978  1
  Fe  Fe41  1  0.50292989  0.50407671  0.83644743  1
  Ni  Ni42  1  0.50181050  0.83734131  0.50321181  1
  Ni  Ni43  1  0.33851908  0.66903214  0.67006584  1
  Fe  Fe44  1  0.50441222  0.83574812  0.83729717  1
  Ni  Ni45  1  0.83554955  0.17042152  0.50309097  1
  Fe  Fe46  1  0.67129548  1.00328406  0.67028457  1
  Fe  Fe47  1  0.83745096  0.16873186  0.83682333  1
  Ni  Ni48  1  0.83605953  0.50108189  0.50439247  1
  Fe  Fe49  1  0.66960525  0.33681975  0.66963130  1
  Fe  Fe50  1  0.83702844  0.50415750  0.83746977  1
  Fe  Fe51  1  0.83755049  0.83698574  0.50428061  1
  Fe  Fe52  1  0.66938625  0.67011803  0.66993782  1
  Ni  Ni53  1  0.83776921  0.83755873  0.83639409  1
" 