2636,Ni40Fe49Cr9_5,-235.791966201062, 209.896342848689,Ni40Fe49Cr9,"# generated using pymatgen
 data_Cr3Fe13Ni11
_symmetry_space_group_name_H-M   'P 1'
_cell_length_a   7.42236073
_cell_length_b   7.42236073
_cell_length_c   10.49680321
_cell_angle_alpha   90.00000000
_cell_angle_beta   90.00000000
_cell_angle_gamma   90.00000000
_symmetry_Int_Tables_number   1
_chemical_formula_structural   Cr3Fe13Ni11
_chemical_formula_sum   'Cr6 Fe26 Ni22'
_cell_volume   578.28399117
_cell_formula_units_Z   2
loop_
 _symmetry_equiv_pos_site_id
 _symmetry_equiv_pos_as_xyz
  1  'x, y, z'
loop_
 _atom_site_type_symbol
 _atom_site_label
 _atom_site_symmetry_multiplicity
 _atom_site_fract_x
 _atom_site_fract_y
 _atom_site_fract_z
 _atom_site_occupancy
  Ni  Ni0  1  1.00155271  1.00280438  1.00214821  1
  Cr  Cr1  1  0.16852099  0.16849225  0.17153524  1
  Fe  Fe2  1  1.00070683  1.00014166  0.33571903  1
  Ni  Ni3  1  1.00108207  0.33482428  0.00359705  1
  Fe  Fe4  1  0.16769808  0.50456427  0.17057395  1
  Fe  Fe5  1  0.99984181  0.33789661  0.33691859  1
  Fe  Fe6  1  1.00026082  0.67117841  0.00350828  1
  Ni  Ni7  1  0.16991105  0.83447967  0.16807960  1
  Fe  Fe8  1  1.00194739  0.67063585  0.33634558  1
  Fe  Fe9  1  0.33679262  1.00069222  1.00256086  1
  Ni  Ni10  1  0.50548052  0.16884919  0.17053207  1
  Fe  Fe11  1  0.33777724  1.00099957  0.33628914  1
  Cr  Cr12  1  0.33741706  0.33653959  0.00309477  1
  Fe  Fe13  1  0.50569028  0.50492492  0.17108983  1
  Fe  Fe14  1  0.33947594  0.33739716  0.33716974  1
  Fe  Fe15  1  0.33641066  0.67244329  0.00392742  1
  Ni  Ni16  1  0.50314141  0.83690891  0.16903802  1
  Ni  Ni17  1  0.33626028  0.66848119  0.33470240  1
  Fe  Fe18  1  0.67112030  1.00276958  0.00420756  1
  Ni  Ni19  1  0.83480057  0.17079295  0.16875611  1
  Ni  Ni20  1  0.67143589  0.00389930  0.33478619  1
  Fe  Fe21  1  0.67219566  0.33645491  0.00349151  1
  Ni  Ni22  1  0.83683538  0.50283361  0.16904224  1
  Fe  Fe23  1  0.66964560  0.33690894  0.33621664  1
  Ni  Ni24  1  0.66921523  0.67077913  0.00307751  1
  Ni  Ni25  1  0.83586800  0.83567131  0.16987845  1
  Ni  Ni26  1  0.66958567  0.66970237  0.33693159  1
  Fe  Fe27  1  0.16931807  0.17093041  0.50171969  1
  Fe  Fe28  1  1.00172065  1.00158653  0.67005317  1
  Fe  Fe29  1  0.16653704  0.16714211  0.83716236  1
  Ni  Ni30  1  0.16888286  0.50280149  0.50174539  1
  Ni  Ni31  1  1.00170045  0.33543114  0.66923430  1
  Cr  Cr32  1  0.16668150  0.50311956  0.83749683  1
  Ni  Ni33  1  0.16699631  0.83466270  0.50207521  1
  Ni  Ni34  1  1.00090606  0.66904371  0.66862197  1
  Ni  Ni35  1  0.16814096  0.83618975  0.83843688  1
  Ni  Ni36  1  0.50564934  0.17189467  0.50248398  1
  Cr  Cr37  1  0.33577647  0.00412580  0.66995904  1
  Fe  Fe38  1  0.50505290  0.16819532  0.83628705  1
  Ni  Ni39  1  0.50296183  0.50103853  0.50349984  1
  Fe  Fe40  1  0.33553846  0.33671248  0.66857921  1
  Fe  Fe41  1  0.50663231  0.50529201  0.83611271  1
  Cr  Cr42  1  0.50483114  0.83604880  0.50153155  1
  Cr  Cr43  1  0.33680461  0.66991626  0.67039397  1
  Ni  Ni44  1  0.50525866  0.83732561  0.83834649  1
  Ni  Ni45  1  0.83619277  0.16981784  0.50263991  1
  Fe  Fe46  1  0.67279738  0.00389218  0.66938301  1
  Fe  Fe47  1  0.83745151  0.16880829  0.83622429  1
  Fe  Fe48  1  0.83574327  0.50292335  0.50256317  1
  Fe  Fe49  1  0.67032495  0.33662514  0.66904813  1
  Fe  Fe50  1  0.83508292  0.50488607  0.83720097  1
  Fe  Fe51  1  0.83671532  0.83647562  0.50246168  1
  Fe  Fe52  1  0.67221965  0.66872468  0.67073358  1
  Ni  Ni53  1  0.83596812  0.83687999  0.83534356  1
" 