6405,Ni40Fe57Cr2_7,-237.799514437695, 212.128248368928,Ni40Fe57Cr2,"# generated using pymatgen
 data_CrFe15Ni11
_symmetry_space_group_name_H-M   'P 1'
_cell_length_a   7.40450791
_cell_length_b   7.40450791
_cell_length_c   10.47155551
_cell_angle_alpha   90.00000000
_cell_angle_beta   90.00000000
_cell_angle_gamma   90.00000000
_symmetry_Int_Tables_number   1
_chemical_formula_structural   CrFe15Ni11
_chemical_formula_sum   'Cr2 Fe30 Ni22'
_cell_volume   574.12122451
_cell_formula_units_Z   2
loop_
 _symmetry_equiv_pos_site_id
 _symmetry_equiv_pos_as_xyz
  1  'x, y, z'
loop_
 _atom_site_type_symbol
 _atom_site_label
 _atom_site_symmetry_multiplicity
 _atom_site_fract_x
 _atom_site_fract_y
 _atom_site_fract_z
 _atom_site_occupancy
  Fe  Fe0  1  1.00151334  0.00597789  1.00357638  1
  Ni  Ni1  1  0.16999115  0.17261953  0.17225909  1
  Ni  Ni2  1  0.00585055  1.00410345  0.33670002  1
  Fe  Fe3  1  1.00310939  0.33809558  0.00430122  1
  Fe  Fe4  1  0.17189147  0.50420243  0.17002149  1
  Fe  Fe5  1  1.00103474  0.33755658  0.33765165  1
  Ni  Ni6  1  0.00451436  0.67215252  1.00340375  1
  Fe  Fe7  1  0.16963142  0.83773694  0.17150266  1
  Fe  Fe8  1  1.00158612  0.67054213  0.33682658  1
  Cr  Cr9  1  0.33467970  0.00711535  1.00145635  1
  Ni  Ni10  1  0.50407726  0.17034153  0.17206957  1
  Fe  Fe11  1  0.33940760  0.00535010  0.33830942  1
  Ni  Ni12  1  0.33757738  0.33787858  1.00407886  1
  Fe  Fe13  1  0.50548029  0.50125007  0.17078340  1
  Fe  Fe14  1  0.33782235  0.33681801  0.33691559  1
  Fe  Fe15  1  0.33895626  0.66921494  1.00228472  1
  Cr  Cr16  1  0.50722212  0.83784489  0.17066807  1
  Fe  Fe17  1  0.33791852  0.67105387  0.33893277  1
  Ni  Ni18  1  0.67160548  0.00489642  1.00247968  1
  Fe  Fe19  1  0.83546472  0.17137527  0.17105618  1
  Ni  Ni20  1  0.67360354  0.00460916  0.34014974  1
  Ni  Ni21  1  0.66881776  0.33735382  1.00380558  1
  Ni  Ni22  1  0.83859355  0.50497238  0.17030219  1
  Ni  Ni23  1  0.66983422  0.33861732  0.33824544  1
  Ni  Ni24  1  0.67343676  0.66879759  1.00336177  1
  Fe  Fe25  1  0.83920988  0.83888441  0.17013204  1
  Ni  Ni26  1  0.67163885  0.66942249  0.33834311  1
  Fe  Fe27  1  0.16936916  0.17145969  0.50452426  1
  Ni  Ni28  1  0.00600446  0.00481721  0.67252710  1
  Ni  Ni29  1  0.17000281  0.17437543  0.83586732  1
  Ni  Ni30  1  0.16893582  0.50387716  0.50254036  1
  Fe  Fe31  1  1.00361472  0.33876302  0.67088233  1
  Ni  Ni32  1  0.16995450  0.50422408  0.83845696  1
  Fe  Fe33  1  0.16913211  0.83695648  0.50416142  1
  Fe  Fe34  1  1.00373012  0.67060321  0.67195402  1
  Fe  Fe35  1  0.16932672  0.83835719  0.83630352  1
  Fe  Fe36  1  0.50469384  0.17279855  0.50425069  1
  Fe  Fe37  1  0.33869006  1.00363903  0.67154679  1
  Ni  Ni38  1  0.50493150  0.16958198  0.83631392  1
  Fe  Fe39  1  0.50437565  0.50408551  0.50465876  1
  Fe  Fe40  1  0.33656738  0.33850327  0.67149736  1
  Fe  Fe41  1  0.50432930  0.50264726  0.83729014  1
  Fe  Fe42  1  0.50546382  0.83533918  0.50477549  1
  Fe  Fe43  1  0.33609763  0.67075952  0.67065447  1
  Ni  Ni44  1  0.50613915  0.83638712  0.83650604  1
  Fe  Fe45  1  0.83944649  0.17140005  0.50497773  1
  Fe  Fe46  1  0.67259044  1.00296911  0.67144308  1
  Ni  Ni47  1  0.83742910  0.17038289  0.83832437  1
  Ni  Ni48  1  0.83839548  0.50502086  0.50536815  1
  Fe  Fe49  1  0.67227172  0.33619745  0.67075624  1
  Fe  Fe50  1  0.83677070  0.50332351  0.83801876  1
  Fe  Fe51  1  0.83916989  0.83680956  0.50548757  1
  Ni  Ni52  1  0.67069346  0.66885020  0.67113278  1
  Ni  Ni53  1  0.83545163  0.83713468  0.83820953  1
" 