6935,Ni40Fe51Cr7_4,-235.589326471595, 207.40350207975,Ni40Fe51Cr7,"# generated using pymatgen
 data_Cr2Fe9Ni7
_symmetry_space_group_name_H-M   'P 1'
_cell_length_a   7.42129396
_cell_length_b   7.42129396
_cell_length_c   10.49529457
_cell_angle_alpha   90.00000000
_cell_angle_beta   90.00000000
_cell_angle_gamma   90.00000000
_symmetry_Int_Tables_number   1
_chemical_formula_structural   Cr2Fe9Ni7
_chemical_formula_sum   'Cr6 Fe27 Ni21'
_cell_volume   578.03468881
_cell_formula_units_Z   3
loop_
 _symmetry_equiv_pos_site_id
 _symmetry_equiv_pos_as_xyz
  1  'x, y, z'
loop_
 _atom_site_type_symbol
 _atom_site_label
 _atom_site_symmetry_multiplicity
 _atom_site_fract_x
 _atom_site_fract_y
 _atom_site_fract_z
 _atom_site_occupancy
  Cr  Cr0  1  1.00245756  1.00157941  0.00331490  1
  Ni  Ni1  1  0.17210592  0.16946021  0.16821704  1
  Fe  Fe2  1  0.00333319  1.00233339  0.33613134  1
  Ni  Ni3  1  1.00278004  0.33908996  0.00353024  1
  Fe  Fe4  1  0.16894950  0.50405928  0.16900170  1
  Fe  Fe5  1  1.00275376  0.33414217  0.33544131  1
  Ni  Ni6  1  0.00357889  0.66805042  1.00202058  1
  Ni  Ni7  1  0.16962087  0.83658112  0.17040058  1
  Fe  Fe8  1  0.00447901  0.67227505  0.33533236  1
  Ni  Ni9  1  0.33730017  1.00112853  0.00524923  1
  Ni  Ni10  1  0.50174794  0.17076631  0.16957026  1
  Ni  Ni11  1  0.33726264  1.00293226  0.33647755  1
  Ni  Ni12  1  0.33573757  0.33978614  0.00332029  1
  Fe  Fe13  1  0.50289057  0.50462639  0.17013017  1
  Cr  Cr14  1  0.33442420  0.33735185  0.33841209  1
  Ni  Ni15  1  0.33571476  0.66929356  0.00370018  1
  Fe  Fe16  1  0.50160406  0.83710290  0.17077615  1
  Fe  Fe17  1  0.33784186  0.67171998  0.33754444  1
  Cr  Cr18  1  0.66972778  1.00147793  0.00338398  1
  Fe  Fe19  1  0.83700242  0.16947019  0.17167548  1
  Ni  Ni20  1  0.67046519  1.00158449  0.33784257  1
  Fe  Fe21  1  0.66953303  0.33897382  0.00385374  1
  Fe  Fe22  1  0.83728516  0.50300488  0.16953910  1
  Fe  Fe23  1  0.66828842  0.33505837  0.33539639  1
  Fe  Fe24  1  0.66952863  0.66783000  0.00362783  1
  Ni  Ni25  1  0.83657151  0.83245973  0.16999809  1
  Ni  Ni26  1  0.66982110  0.67151456  0.33584584  1
  Ni  Ni27  1  0.17040541  0.16788725  0.50369088  1
  Fe  Fe28  1  0.00435928  1.00111814  0.66889603  1
  Cr  Cr29  1  0.17185339  0.16896882  0.83823582  1
  Ni  Ni30  1  0.16937316  0.50304190  0.50378389  1
  Fe  Fe31  1  0.00468978  0.33708394  0.67011256  1
  Fe  Fe32  1  0.17027024  0.50551089  0.83623846  1
  Fe  Fe33  1  0.16997709  0.83511223  0.50313303  1
  Fe  Fe34  1  0.00472612  0.67089646  0.67098246  1
  Ni  Ni35  1  0.17179607  0.83538636  0.83605374  1
  Fe  Fe36  1  0.50387266  0.16854915  0.50330831  1
  Ni  Ni37  1  0.33693972  1.00093237  0.66786859  1
  Cr  Cr38  1  0.50018402  0.16976962  0.83638643  1
  Ni  Ni39  1  0.50377092  0.50389429  0.50397610  1
  Fe  Fe40  1  0.33610335  0.33756334  0.66734787  1
  Fe  Fe41  1  0.50179654  0.50594155  0.83565952  1
  Fe  Fe42  1  0.50260126  0.83526912  0.50323804  1
  Ni  Ni43  1  0.33633387  0.66939655  0.66835687  1
  Ni  Ni44  1  0.50134940  0.83487617  0.83688430  1
  Fe  Fe45  1  0.83736218  0.16932434  0.50329286  1
  Fe  Fe46  1  0.66905296  1.00071416  0.66889995  1
  Fe  Fe47  1  0.83649210  0.17159224  0.83450347  1
  Cr  Cr48  1  0.83571671  0.50626212  0.50054538  1
  Fe  Fe49  1  0.66852742  0.33752663  0.66997590  1
  Ni  Ni50  1  0.83555015  0.50432776  0.83673977  1
  Ni  Ni51  1  0.83621990  0.83658457  0.50401391  1
  Fe  Fe52  1  0.66774410  0.67118744  0.66991232  1
  Fe  Fe53  1  0.83658641  0.83408966  0.83469007  1
" 