4109,Ni40Fe17Cr42_17,-222.786745085275, 167.14005757715,Ni40Fe17Cr42,"# generated using pymatgen
 data_Cr8Fe3Ni7
_symmetry_space_group_name_H-M   'P 1'
_cell_length_a   7.49387055
_cell_length_b   7.49387055
_cell_length_c   10.59793336
_cell_angle_alpha   90.00000000
_cell_angle_beta   90.00000000
_cell_angle_gamma   90.00000000
_symmetry_Int_Tables_number   1
_chemical_formula_structural   Cr8Fe3Ni7
_chemical_formula_sum   'Cr24 Fe9 Ni21'
_cell_volume   595.15975701
_cell_formula_units_Z   3
loop_
 _symmetry_equiv_pos_site_id
 _symmetry_equiv_pos_as_xyz
  1  'x, y, z'
loop_
 _atom_site_type_symbol
 _atom_site_label
 _atom_site_symmetry_multiplicity
 _atom_site_fract_x
 _atom_site_fract_y
 _atom_site_fract_z
 _atom_site_occupancy
  Ni  Ni0  1  0.99767666  -0.00170489  0.99634749  1
  Cr  Cr1  1  0.16444474  0.16671468  0.16143058  1
  Ni  Ni2  1  0.99758428  0.99492277  0.33158895  1
  Ni  Ni3  1  0.99693789  0.33501877  0.99802741  1
  Fe  Fe4  1  0.16334578  0.50072381  0.16178730  1
  Cr  Cr5  1  0.99668959  0.33384501  0.32911038  1
  Ni  Ni6  1  -0.00144322  0.66222572  0.99680858  1
  Cr  Cr7  1  0.16484998  0.83110681  0.16132516  1
  Ni  Ni8  1  0.99704099  0.66569142  0.32951758  1
  Ni  Ni9  1  0.33461985  0.99803926  0.99793029  1
  Fe  Fe10  1  0.49958385  0.16318019  0.16143474  1
  Cr  Cr11  1  0.33398367  0.99656263  0.33010650  1
  Ni  Ni12  1  0.33257413  0.33293345  0.99809129  1
  Cr  Cr13  1  0.49862862  0.49824109  0.16323577  1
  Cr  Cr14  1  0.33364904  0.33317632  0.33020149  1
  Ni  Ni15  1  0.33116708  0.66382506  -0.00137876  1
  Ni  Ni16  1  0.49910706  0.82867555  0.16286532  1
  Fe  Fe17  1  0.33117894  0.66437920  0.32906713  1
  Ni  Ni18  1  0.66297616  -0.00060629  -0.00021111  1
  Cr  Cr19  1  0.83143069  0.16613134  0.16302357  1
  Fe  Fe20  1  0.66570148  -0.00076318  0.32847561  1
  Ni  Ni21  1  0.66456973  0.33170189  0.99620886  1
  Fe  Fe22  1  0.83129485  0.49962205  0.16269992  1
  Ni  Ni23  1  0.66368374  0.33376507  0.33091186  1
  Ni  Ni24  1  0.66470799  0.66287106  -0.00112279  1
  Cr  Cr25  1  0.83009147  0.83072018  0.16402215  1
  Fe  Fe26  1  0.66456488  0.66320939  0.32934919  1
  Cr  Cr27  1  0.16432107  0.16372270  0.49848431  1
  Cr  Cr28  1  -0.00127952  0.99632373  0.66645030  1
  Cr  Cr29  1  0.16595986  0.16491261  0.83409190  1
  Cr  Cr30  1  0.16632882  0.49969431  0.49654129  1
  Cr  Cr31  1  0.99477622  0.33394343  0.66748826  1
  Fe  Fe32  1  0.16550337  0.49908296  0.83506542  1
  Cr  Cr33  1  0.16386008  0.83130696  0.49991654  1
  Ni  Ni34  1  0.99683562  0.66379580  0.66816934  1
  Fe  Fe35  1  0.16596939  0.83074305  0.83476605  1
  Cr  Cr36  1  0.49969734  0.16791710  0.49941491  1
  Ni  Ni37  1  0.33329821  0.99747085  0.66747779  1
  Ni  Ni38  1  0.49943880  0.16851259  0.83553039  1
  Ni  Ni39  1  0.50077028  0.49912044  0.49758122  1
  Cr  Cr40  1  0.33468499  0.33148376  0.66520399  1
  Ni  Ni41  1  0.49921637  0.49715926  0.83239128  1
  Cr  Cr42  1  0.50020754  0.82690805  0.49734813  1
  Cr  Cr43  1  0.33178618  0.66470157  0.66622277  1
  Cr  Cr44  1  0.49858058  0.82871520  0.83481098  1
  Cr  Cr45  1  0.83143578  0.16530009  0.49705936  1
  Cr  Cr46  1  0.66320969  0.00007936  0.66746626  1
  Ni  Ni47  1  0.83044417  0.16726461  0.83509555  1
  Cr  Cr48  1  0.82801895  0.49971805  0.49898025  1
  Ni  Ni49  1  0.66322303  0.33489005  0.66792964  1
  Fe  Fe50  1  0.82807992  0.49709381  0.83352325  1
  Cr  Cr51  1  0.83128361  0.82963349  0.49653428  1
  Ni  Ni52  1  0.66549138  0.66041801  0.66503714  1
  Cr  Cr53  1  0.83157675  0.82923827  0.83392336  1
" 