953,Ni40Fe5Cr53_19,-217.342147778637, 145.129473169161,Ni40Fe5Cr53,"# generated using pymatgen
 data_Cr10FeNi7
_symmetry_space_group_name_H-M   'P 1'
_cell_length_a   7.53078187
_cell_length_b   7.53078187
_cell_length_c   10.65013385
_cell_angle_alpha   90.00000000
_cell_angle_beta   90.00000000
_cell_angle_gamma   90.00000000
_symmetry_Int_Tables_number   1
_chemical_formula_structural   Cr10FeNi7
_chemical_formula_sum   'Cr30 Fe3 Ni21'
_cell_volume   603.99758572
_cell_formula_units_Z   3
loop_
 _symmetry_equiv_pos_site_id
 _symmetry_equiv_pos_as_xyz
  1  'x, y, z'
loop_
 _atom_site_type_symbol
 _atom_site_label
 _atom_site_symmetry_multiplicity
 _atom_site_fract_x
 _atom_site_fract_y
 _atom_site_fract_z
 _atom_site_occupancy
  Fe  Fe0  1  0.99454447  -0.00111968  -0.00166601  1
  Cr  Cr1  1  0.16262462  0.16342838  0.16380235  1
  Ni  Ni2  1  -0.00358389  -0.00065905  0.32607697  1
  Ni  Ni3  1  0.99025980  0.32883684  -0.00116542  1
  Ni  Ni4  1  0.15855718  0.49316213  0.16350898  1
  Ni  Ni5  1  -0.00184033  0.32739332  0.32725785  1
  Cr  Cr6  1  -0.00118824  0.66068575  0.00007286  1
  Ni  Ni7  1  0.16033847  0.83083939  0.16360588  1
  Cr  Cr8  1  -0.00154587  0.65736090  0.32948648  1
  Cr  Cr9  1  0.33112333  0.99235517  -0.00405866  1
  Cr  Cr10  1  0.49546188  0.16309152  0.16764353  1
  Ni  Ni11  1  0.32632967  -0.00316077  0.32909761  1
  Cr  Cr12  1  0.33034673  0.33241898  -0.00248073  1
  Cr  Cr13  1  0.49927113  0.49388315  0.16186572  1
  Ni  Ni14  1  0.32478126  0.32981966  0.33148405  1
  Cr  Cr15  1  0.32959885  0.66280126  -0.00339920  1
  Cr  Cr16  1  0.49600924  0.82985192  0.16602420  1
  Cr  Cr17  1  0.32721279  0.65833960  0.32738678  1
  Cr  Cr18  1  0.66360547  0.00010311  0.99539295  1
  Ni  Ni19  1  0.83185234  0.16481759  0.16105484  1
  Ni  Ni20  1  0.66460545  -0.00397255  0.32765414  1
  Ni  Ni21  1  0.66793836  0.32947985  0.99525741  1
  Ni  Ni22  1  0.83075775  0.49260598  0.16197036  1
  Cr  Cr23  1  0.66500953  0.32818926  0.32798563  1
  Fe  Fe24  1  0.66222847  0.65975841  -0.00420075  1
  Cr  Cr25  1  0.82911253  0.82739422  0.16623734  1
  Ni  Ni26  1  0.66217487  0.66028111  0.32787549  1
  Ni  Ni27  1  0.16428412  0.16516965  0.49390594  1
  Cr  Cr28  1  0.99458048  -0.00171906  0.66343624  1
  Cr  Cr29  1  0.16123324  0.16402673  0.82916865  1
  Ni  Ni30  1  0.16583797  0.48830958  0.49425875  1
  Cr  Cr31  1  0.99481546  0.32863272  0.65928606  1
  Cr  Cr32  1  0.16298329  0.49158670  0.82873758  1
  Cr  Cr33  1  0.16280236  0.83547602  0.49489589  1
  Cr  Cr34  1  -0.00290356  0.66087793  0.65794768  1
  Cr  Cr35  1  0.16273327  0.83214942  0.82972075  1
  Cr  Cr36  1  0.49038264  0.16422707  0.49315844  1
  Ni  Ni37  1  0.33017545  -0.00195864  0.66270183  1
  Cr  Cr38  1  0.49297723  0.16713239  0.82743159  1
  Ni  Ni39  1  0.49486169  0.49418872  0.49779139  1
  Ni  Ni40  1  0.33158969  0.32932859  0.65970635  1
  Ni  Ni41  1  0.50000291  0.49587561  0.82818833  1
  Cr  Cr42  1  0.49807608  0.82799412  0.49317498  1
  Cr  Cr43  1  0.32964388  0.66065798  0.66323360  1
  Ni  Ni44  1  0.49823714  0.82684830  0.82777107  1
  Cr  Cr45  1  0.83104886  0.16223833  0.49353298  1
  Cr  Cr46  1  0.66090279  -0.00090028  0.66339137  1
  Fe  Fe47  1  0.82788661  0.16584436  0.83098089  1
  Cr  Cr48  1  0.82473381  0.49709849  0.49589572  1
  Ni  Ni49  1  0.65858640  0.33218713  0.66416538  1
  Cr  Cr50  1  0.82717117  0.49522114  0.82944140  1
  Cr  Cr51  1  0.82690699  0.82736286  0.49292892  1
  Ni  Ni52  1  0.65747345  0.65993747  0.66459497  1
  Cr  Cr53  1  0.82888521  0.82571573  0.82827710  1
" 