575,Ni40Cr60_7,-223.85864709759, 141.416153485389,Ni40Cr60,"# generated using pymatgen
 data_Cr7Ni11
_symmetry_space_group_name_H-M   'P 1'
_cell_length_a   7.50061047
_cell_length_b   7.50061047
_cell_length_c   10.60746506
_cell_angle_alpha   90.00000000
_cell_angle_beta   90.00000000
_cell_angle_gamma   90.00000000
_symmetry_Int_Tables_number   1
_chemical_formula_structural   Cr7Ni11
_chemical_formula_sum   'Cr21 Ni33'
_cell_volume   596.76704712
_cell_formula_units_Z   3
loop_
 _symmetry_equiv_pos_site_id
 _symmetry_equiv_pos_as_xyz
  1  'x, y, z'
loop_
 _atom_site_type_symbol
 _atom_site_label
 _atom_site_symmetry_multiplicity
 _atom_site_fract_x
 _atom_site_fract_y
 _atom_site_fract_z
 _atom_site_occupancy
  Cr  Cr0  1  -0.00221578  -0.00149852  -0.00162029  1
  Ni  Ni1  1  0.16780620  0.16278770  0.16441710  1
  Cr  Cr2  1  -0.00072457  -0.00222352  0.33107791  1
  Ni  Ni3  1  0.99653259  0.33076563  0.99546367  1
  Cr  Cr4  1  0.16487143  0.49889652  0.16520563  1
  Cr  Cr5  1  -0.00161700  0.32847691  0.33273154  1
  Cr  Cr6  1  -0.00217074  0.66530488  0.99690195  1
  Ni  Ni7  1  0.16624651  0.83179903  0.16583677  1
  Ni  Ni8  1  -0.00037533  0.66675075  0.33092249  1
  Ni  Ni9  1  0.33274245  0.99630993  -0.00035639  1
  Ni  Ni10  1  0.49598778  0.16191288  0.16466087  1
  Ni  Ni11  1  0.33187598  -0.00101563  0.33183102  1
  Cr  Cr12  1  0.33226724  0.33102888  -0.00177253  1
  Cr  Cr13  1  0.49652065  0.49632503  0.16482983  1
  Ni  Ni14  1  0.33208479  0.32799875  0.33205778  1
  Ni  Ni15  1  0.33133632  0.66599100  0.99592013  1
  Cr  Cr16  1  0.49750880  0.83353979  0.16423550  1
  Ni  Ni17  1  0.33028737  0.66626514  0.33251173  1
  Ni  Ni18  1  0.66353113  -0.00161239  0.99712160  1
  Cr  Cr19  1  0.82729316  0.16371398  0.16200100  1
  Ni  Ni20  1  0.66162303  -0.00125025  0.33172496  1
  Ni  Ni21  1  0.66516514  0.32949687  0.99612384  1
  Cr  Cr22  1  0.83201468  0.49829728  0.16497047  1
  Cr  Cr23  1  0.66050660  0.32855946  0.33320563  1
  Cr  Cr24  1  0.66315955  0.66401603  0.99462806  1
  Ni  Ni25  1  0.83145781  0.83254359  0.16532583  1
  Cr  Cr26  1  0.66371779  0.66461393  0.33362269  1
  Ni  Ni27  1  0.16749333  0.16417008  0.49890532  1
  Cr  Cr28  1  -0.00222832  -0.00011728  0.66315220  1
  Cr  Cr29  1  0.16448086  0.16643162  0.82931580  1
  Cr  Cr30  1  0.16450819  0.49778942  0.49726420  1
  Ni  Ni31  1  0.99596429  0.33087020  0.66486339  1
  Ni  Ni32  1  0.16426429  0.49593135  0.83149255  1
  Ni  Ni33  1  0.16833183  0.83273217  0.49530876  1
  Cr  Cr34  1  0.99572241  0.66372769  0.66544012  1
  Cr  Cr35  1  0.16845179  0.83206449  0.83092130  1
  Ni  Ni36  1  0.49714971  0.16322557  0.49795573  1
  Ni  Ni37  1  0.33424289  -0.00140512  0.66140473  1
  Cr  Cr38  1  0.49946548  0.16203152  0.83067886  1
  Ni  Ni39  1  0.49791733  0.49692591  0.49872147  1
  Ni  Ni40  1  0.33278682  0.33051259  0.66307849  1
  Ni  Ni41  1  0.49883598  0.49749384  0.83017664  1
  Ni  Ni42  1  0.49639672  0.83314238  0.49838941  1
  Cr  Cr43  1  0.33531333  0.66431175  0.66569370  1
  Ni  Ni44  1  0.49982799  0.83180301  0.83085043  1
  Ni  Ni45  1  0.82862943  0.16577630  0.50022882  1
  Ni  Ni46  1  0.66272879  -0.00201702  0.66446839  1
  Ni  Ni47  1  0.82882495  0.16617244  0.83090106  1
  Ni  Ni48  1  0.82963979  0.49616668  0.49953161  1
  Ni  Ni49  1  0.66435374  0.33192008  0.66372455  1
  Ni  Ni50  1  0.83002872  0.49480293  0.82993759  1
  Cr  Cr51  1  0.82918139  0.83112436  0.49731858  1
  Ni  Ni52  1  0.66314499  0.66335724  0.66526123  1
  Ni  Ni53  1  0.82629321  0.83244567  0.83061978  1
" 