2255,Ni40Cr60_6,-223.899381906025, 141.956723722356,Ni40Cr60,"# generated using pymatgen
 data_Cr7Ni11
_symmetry_space_group_name_H-M   'P 1'
_cell_length_a   7.50064141
_cell_length_b   7.50064141
_cell_length_c   10.60750881
_cell_angle_alpha   90.00000000
_cell_angle_beta   90.00000000
_cell_angle_gamma   90.00000000
_symmetry_Int_Tables_number   1
_chemical_formula_structural   Cr7Ni11
_chemical_formula_sum   'Cr21 Ni33'
_cell_volume   596.77443140
_cell_formula_units_Z   3
loop_
 _symmetry_equiv_pos_site_id
 _symmetry_equiv_pos_as_xyz
  1  'x, y, z'
loop_
 _atom_site_type_symbol
 _atom_site_label
 _atom_site_symmetry_multiplicity
 _atom_site_fract_x
 _atom_site_fract_y
 _atom_site_fract_z
 _atom_site_occupancy
  Cr  Cr0  1  -0.00034575  0.99746461  0.99726634  1
  Ni  Ni1  1  0.16684452  0.16580703  0.16654215  1
  Ni  Ni2  1  -0.00102217  0.99501658  0.33041882  1
  Ni  Ni3  1  0.00113190  0.33349493  0.99719762  1
  Ni  Ni4  1  0.16526884  0.49837030  0.16418650  1
  Cr  Cr5  1  0.00133666  0.33399817  0.33008404  1
  Ni  Ni6  1  0.00164568  0.66225128  -0.00151170  1
  Cr  Cr7  1  0.16821459  0.82848517  0.16663715  1
  Ni  Ni8  1  -0.00033958  0.66592066  0.33082057  1
  Cr  Cr9  1  0.33480883  -0.00199045  0.99603970  1
  Ni  Ni10  1  0.49740326  0.16263115  0.16702910  1
  Ni  Ni11  1  0.33290578  -0.00101214  0.32998273  1
  Cr  Cr12  1  0.33071088  0.33175152  -0.00129922  1
  Cr  Cr13  1  0.49424675  0.49863567  0.16670979  1
  Ni  Ni14  1  0.33339723  0.33160140  0.33118805  1
  Ni  Ni15  1  0.32918570  0.66379490  0.99508655  1
  Ni  Ni16  1  0.49872018  0.83273550  0.16585921  1
  Ni  Ni17  1  0.33046095  0.66258645  0.33220966  1
  Ni  Ni18  1  0.66131577  -0.00141014  -0.00106423  1
  Cr  Cr19  1  0.82953444  0.16439372  0.16339976  1
  Ni  Ni20  1  0.66180708  0.99772418  0.32823752  1
  Ni  Ni21  1  0.66202693  0.32844950  0.99641966  1
  Cr  Cr22  1  0.83178805  0.49910385  0.16250384  1
  Ni  Ni23  1  0.65901924  0.33050300  0.33243642  1
  Cr  Cr24  1  0.66058054  0.66655366  -0.00205347  1
  Ni  Ni25  1  0.82980595  0.83135598  0.16683153  1
  Ni  Ni26  1  0.66306022  0.66502298  0.33051890  1
  Cr  Cr27  1  0.16866078  0.16406041  0.49659432  1
  Cr  Cr28  1  0.00148997  0.99736190  0.66428095  1
  Ni  Ni29  1  0.16647010  0.16825074  0.83000107  1
  Ni  Ni30  1  0.16935597  0.49950975  0.49747417  1
  Ni  Ni31  1  0.00208793  0.33362618  0.66604750  1
  Ni  Ni32  1  0.16728716  0.49793468  0.83166607  1
  Ni  Ni33  1  0.16704781  0.82765554  0.49468550  1
  Cr  Cr34  1  0.00134191  0.66336382  0.66319331  1
  Ni  Ni35  1  0.16862699  0.82737644  0.83141013  1
  Ni  Ni36  1  0.49698412  0.16824261  0.49546714  1
  Cr  Cr37  1  0.33133886  0.99759224  0.66756742  1
  Ni  Ni38  1  0.49734418  0.16705513  0.83116477  1
  Ni  Ni39  1  0.49434566  0.49617367  0.49819441  1
  Ni  Ni40  1  0.33255256  0.33414259  0.66469913  1
  Ni  Ni41  1  0.49454986  0.49758397  0.82865945  1
  Cr  Cr42  1  0.49399706  0.82852431  0.49595860  1
  Ni  Ni43  1  0.33206348  0.66064005  0.66591428  1
  Ni  Ni44  1  0.49430598  0.82831021  0.83186470  1
  Cr  Cr45  1  0.82869517  0.16572028  0.49870737  1
  Cr  Cr46  1  0.66029544  0.99733608  0.66624390  1
  Cr  Cr47  1  0.83103997  0.16802253  0.83074439  1
  Cr  Cr48  1  0.82720578  0.49730912  0.49892411  1
  Ni  Ni49  1  0.65865662  0.33335670  0.66445194  1
  Cr  Cr50  1  0.83024689  0.49568802  0.83166022  1
  Cr  Cr51  1  0.83086242  0.83085713  0.49427522  1
  Ni  Ni52  1  0.65864485  0.66047101  0.66524920  1
  Cr  Cr53  1  0.83006271  0.82966806  0.83229637  1
" 