5354,Ni40Fe17Cr42_2,-222.747390618634, 168.092789885161,Ni40Fe17Cr42,"# generated using pymatgen
 data_Cr8Fe3Ni7
_symmetry_space_group_name_H-M   'P 1'
_cell_length_a   7.49503561
_cell_length_b   7.49503561
_cell_length_c   10.59958101
_cell_angle_alpha   90.00000000
_cell_angle_beta   90.00000000
_cell_angle_gamma   90.00000000
_symmetry_Int_Tables_number   1
_chemical_formula_structural   Cr8Fe3Ni7
_chemical_formula_sum   'Cr24 Fe9 Ni21'
_cell_volume   595.43738689
_cell_formula_units_Z   3
loop_
 _symmetry_equiv_pos_site_id
 _symmetry_equiv_pos_as_xyz
  1  'x, y, z'
loop_
 _atom_site_type_symbol
 _atom_site_label
 _atom_site_symmetry_multiplicity
 _atom_site_fract_x
 _atom_site_fract_y
 _atom_site_fract_z
 _atom_site_occupancy
  Ni  Ni0  1  -0.00031136  0.99794688  -0.00123382  1
  Ni  Ni1  1  0.16341454  0.16552836  0.16424627  1
  Cr  Cr2  1  -0.00029050  0.99479066  0.33044972  1
  Ni  Ni3  1  0.00006836  0.33123491  0.99806233  1
  Ni  Ni4  1  0.16479177  0.49790885  0.16578559  1
  Cr  Cr5  1  0.00076702  0.33306100  0.32972766  1
  Cr  Cr6  1  -0.00093125  0.66548320  0.00029859  1
  Ni  Ni7  1  0.16324698  0.83104911  0.16586520  1
  Fe  Fe8  1  -0.00106011  0.66485818  0.33044198  1
  Cr  Cr9  1  0.32672286  -0.00157568  -0.00025956  1
  Fe  Fe10  1  0.49530478  0.16467578  0.16724959  1
  Fe  Fe11  1  0.33060669  0.99688156  0.33064963  1
  Cr  Cr12  1  0.32872374  0.33376748  0.99766375  1
  Cr  Cr13  1  0.49767175  0.49973692  0.16613280  1
  Ni  Ni14  1  0.33150553  0.33398637  0.33066148  1
  Fe  Fe15  1  0.32770502  0.66374869  -0.00158145  1
  Cr  Cr16  1  0.49608135  0.82874990  0.16515396  1
  Ni  Ni17  1  0.32974093  0.66361096  0.33231916  1
  Cr  Cr18  1  0.66882871  0.99662024  -0.00152705  1
  Fe  Fe19  1  0.83453989  0.16508949  0.16412163  1
  Cr  Cr20  1  0.66644401  0.99605541  0.33227360  1
  Cr  Cr21  1  0.66572475  0.33339410  -0.00003842  1
  Fe  Fe22  1  0.83415316  0.49971772  0.16594927  1
  Ni  Ni23  1  0.66302828  0.33384357  0.32915574  1
  Cr  Cr24  1  0.66704602  0.66405138  0.99613805  1
  Ni  Ni25  1  0.83324045  0.83056480  0.16563558  1
  Ni  Ni26  1  0.66471830  0.66465725  0.33241436  1
  Cr  Cr27  1  0.16433263  0.16586735  0.49838761  1
  Cr  Cr28  1  -0.00086142  0.99394094  0.66531483  1
  Ni  Ni29  1  0.16151537  0.16513169  0.83233161  1
  Fe  Fe30  1  0.16679494  0.50228413  0.49681169  1
  Fe  Fe31  1  0.00009858  0.33610755  0.66695508  1
  Fe  Fe32  1  0.16251216  0.50044745  0.83169413  1
  Ni  Ni33  1  0.16582314  0.82776315  0.49635877  1
  Ni  Ni34  1  0.00085812  0.66478727  0.66396937  1
  Ni  Ni35  1  0.16278275  0.83055568  0.83246586  1
  Cr  Cr36  1  0.49747467  0.16629901  0.49481974  1
  Cr  Cr37  1  0.32977644  0.99551518  0.66320145  1
  Cr  Cr38  1  0.49655135  0.16493852  0.83199122  1
  Ni  Ni39  1  0.49659300  0.50142045  0.49582364  1
  Cr  Cr40  1  0.32976012  0.33612118  0.66540270  1
  Ni  Ni41  1  0.49687225  0.50049121  0.83186057  1
  Ni  Ni42  1  0.49555643  0.82589840  0.49659815  1
  Ni  Ni43  1  0.32806252  0.66315882  0.66520708  1
  Cr  Cr44  1  0.49458789  0.82813215  0.83231427  1
  Cr  Cr45  1  0.83308873  0.16672234  0.50022481  1
  Cr  Cr46  1  0.66566090  0.99423634  0.66368968  1
  Cr  Cr47  1  0.83551810  0.16597195  0.83093786  1
  Cr  Cr48  1  0.83240534  0.49890195  0.49625767  1
  Cr  Cr49  1  0.66308619  0.33497021  0.66534101  1
  Ni  Ni50  1  0.83390922  0.49881317  0.83158034  1
  Ni  Ni51  1  0.83326755  0.82764253  0.49751987  1
  Cr  Cr52  1  0.66526441  0.66495858  0.66514792  1
  Ni  Ni53  1  0.83640340  0.82866216  0.83121392  1
" 