1536,Ni40Fe17Cr42_16,-222.37681151801, 163.33831719904,Ni40Fe17Cr42,"# generated using pymatgen
 data_Cr8Fe3Ni7
_symmetry_space_group_name_H-M   'P 1'
_cell_length_a   7.49568701
_cell_length_b   7.49568701
_cell_length_c   10.60050223
_cell_angle_alpha   90.00000000
_cell_angle_beta   90.00000000
_cell_angle_gamma   90.00000000
_symmetry_Int_Tables_number   1
_chemical_formula_structural   Cr8Fe3Ni7
_chemical_formula_sum   'Cr24 Fe9 Ni21'
_cell_volume   595.59265018
_cell_formula_units_Z   3
loop_
 _symmetry_equiv_pos_site_id
 _symmetry_equiv_pos_as_xyz
  1  'x, y, z'
loop_
 _atom_site_type_symbol
 _atom_site_label
 _atom_site_symmetry_multiplicity
 _atom_site_fract_x
 _atom_site_fract_y
 _atom_site_fract_z
 _atom_site_occupancy
  Ni  Ni0  1  -0.00079944  0.00149368  0.99630245  1
  Ni  Ni1  1  0.16217399  0.16222533  0.16533940  1
  Ni  Ni2  1  -0.00071220  -0.00058273  0.33309408  1
  Ni  Ni3  1  0.99768090  0.32714414  -0.00075692  1
  Cr  Cr4  1  0.16418340  0.49589517  0.16212078  1
  Cr  Cr5  1  0.99770085  0.33193701  0.33041044  1
  Cr  Cr6  1  -0.00043003  0.66458614  -0.00023669  1
  Fe  Fe7  1  0.16309401  0.83429414  0.16550482  1
  Cr  Cr8  1  0.99541781  0.66372712  0.33400603  1
  Cr  Cr9  1  0.33016007  0.00018222  -0.00033312  1
  Ni  Ni10  1  0.49713016  0.16560115  0.16758476  1
  Ni  Ni11  1  0.32828093  0.00067822  0.32906714  1
  Cr  Cr12  1  0.33025282  0.32880495  0.99794806  1
  Cr  Cr13  1  0.49902231  0.49927083  0.16550323  1
  Fe  Fe14  1  0.33171936  0.33026214  0.33104978  1
  Ni  Ni15  1  0.33024125  0.66536273  0.99537837  1
  Cr  Cr16  1  0.49627882  0.83100643  0.16636912  1
  Cr  Cr17  1  0.32775058  0.66387442  0.33422338  1
  Cr  Cr18  1  0.66527484  0.00185287  0.99523379  1
  Ni  Ni19  1  0.83492136  0.16503357  0.16451572  1
  Cr  Cr20  1  0.66639681  0.00039221  0.33172643  1
  Cr  Cr21  1  0.66537238  0.32867737  -0.00147618  1
  Ni  Ni22  1  0.83098306  0.49478867  0.16516561  1
  Fe  Fe23  1  0.66610034  0.33167142  0.33109336  1
  Cr  Cr24  1  0.66560571  0.66399261  0.99779992  1
  Cr  Cr25  1  0.83202513  0.83269250  0.16464891  1
  Ni  Ni26  1  0.66634930  0.66118996  0.33376231  1
  Cr  Cr27  1  0.16308824  0.16432290  0.49812850  1
  Fe  Fe28  1  -0.00114181  -0.00085215  0.66484557  1
  Ni  Ni29  1  0.16022389  0.16412364  0.83073835  1
  Fe  Fe30  1  0.16477702  0.49628184  0.50018399  1
  Ni  Ni31  1  -0.00158623  0.33123284  0.66411778  1
  Cr  Cr32  1  0.16535714  0.49605252  0.83076379  1
  Ni  Ni33  1  0.16344328  0.83353218  0.49721977  1
  Cr  Cr34  1  -0.00138333  0.66508245  0.66066809  1
  Ni  Ni35  1  0.16409405  0.83402181  0.83254358  1
  Cr  Cr36  1  0.49796364  0.16734762  0.49713790  1
  Cr  Cr37  1  0.33034533  -0.00086478  0.66638782  1
  Fe  Fe38  1  0.49639284  0.16862109  0.82963786  1
  Ni  Ni39  1  0.49880943  0.49687168  0.49893873  1
  Ni  Ni40  1  0.33064032  0.33253630  0.66459183  1
  Ni  Ni41  1  0.49701169  0.49731501  0.82925433  1
  Cr  Cr42  1  0.49754770  0.83107179  0.49611105  1
  Fe  Fe43  1  0.32999946  0.66314068  0.66373066  1
  Cr  Cr44  1  0.49700358  0.82814333  0.83214676  1
  Ni  Ni45  1  0.83374650  0.16639694  0.49946540  1
  Cr  Cr46  1  0.66754864  0.00020802  0.66711155  1
  Ni  Ni47  1  0.83669740  0.16455255  0.82987306  1
  Ni  Ni48  1  0.82861811  0.49519311  0.49743953  1
  Fe  Fe49  1  0.66568651  0.33184719  0.66477300  1
  Cr  Cr50  1  0.83224871  0.49395721  0.83332508  1
  Ni  Ni51  1  0.83391806  0.83319537  0.49796229  1
  Cr  Cr52  1  0.66704257  0.66485554  0.66360563  1
  Fe  Fe53  1  0.83657155  0.83259788  0.83109200  1
" 