6285,Ni40Fe5Cr53_3,-217.296687804173, 140.589445253132,Ni40Fe5Cr53,"# generated using pymatgen
 data_Cr10FeNi7
_symmetry_space_group_name_H-M   'P 1'
_cell_length_a   7.52367139
_cell_length_b   7.52367139
_cell_length_c   10.64007812
_cell_angle_alpha   90.00000000
_cell_angle_beta   90.00000000
_cell_angle_gamma   90.00000000
_symmetry_Int_Tables_number   1
_chemical_formula_structural   Cr10FeNi7
_chemical_formula_sum   'Cr30 Fe3 Ni21'
_cell_volume   602.28833869
_cell_formula_units_Z   3
loop_
 _symmetry_equiv_pos_site_id
 _symmetry_equiv_pos_as_xyz
  1  'x, y, z'
loop_
 _atom_site_type_symbol
 _atom_site_label
 _atom_site_symmetry_multiplicity
 _atom_site_fract_x
 _atom_site_fract_y
 _atom_site_fract_z
 _atom_site_occupancy
  Cr  Cr0  1  0.99568510  -0.00368307  -0.00288522  1
  Cr  Cr1  1  0.16473697  0.16135197  0.16357325  1
  Cr  Cr2  1  -0.00285695  -0.00333060  0.32905355  1
  Ni  Ni3  1  0.99089331  0.32862317  -0.00262629  1
  Cr  Cr4  1  0.16333514  0.49622901  0.16192508  1
  Cr  Cr5  1  0.99262997  0.32961269  0.32910236  1
  Cr  Cr6  1  -0.00249669  0.66257961  -0.00176392  1
  Ni  Ni7  1  0.16698142  0.83018674  0.16210147  1
  Cr  Cr8  1  0.99553944  0.66240802  0.32669990  1
  Ni  Ni9  1  0.33259762  0.99402983  -0.00304485  1
  Ni  Ni10  1  0.49911398  0.16178614  0.16145547  1
  Ni  Ni11  1  0.33049569  0.99396763  0.32877350  1
  Cr  Cr12  1  0.33247528  0.32762045  0.99590250  1
  Cr  Cr13  1  0.49865287  0.49621607  0.16337562  1
  Cr  Cr14  1  0.33327187  0.32865106  0.33059434  1
  Ni  Ni15  1  0.32899382  0.66657810  0.99586629  1
  Cr  Cr16  1  0.49571598  0.83070206  0.16369028  1
  Ni  Ni17  1  0.33224481  0.66553085  0.33110462  1
  Ni  Ni18  1  0.66144746  0.00131735  0.99592780  1
  Ni  Ni19  1  0.82624220  0.16595094  0.16155520  1
  Cr  Cr20  1  0.66121317  -0.00158373  0.32937530  1
  Ni  Ni21  1  0.66498922  0.32537090  -0.00286710  1
  Ni  Ni22  1  0.82615713  0.49325437  0.16180359  1
  Ni  Ni23  1  0.66382098  0.33136282  0.32921630  1
  Fe  Fe24  1  0.66179662  0.66247860  -0.00211832  1
  Cr  Cr25  1  0.82607729  0.82930649  0.16261891  1
  Ni  Ni26  1  0.66109061  0.65949932  0.33089102  1
  Ni  Ni27  1  0.16143806  0.16087629  0.49633176  1
  Ni  Ni28  1  0.99621379  -0.00187992  0.66289207  1
  Cr  Cr29  1  0.16177286  0.16270015  0.82922839  1
  Cr  Cr30  1  0.16456699  0.49465488  0.49644194  1
  Cr  Cr31  1  0.99380252  0.32834453  0.66126575  1
  Cr  Cr32  1  0.16357773  0.49643868  0.83012726  1
  Cr  Cr33  1  0.16430245  0.83181700  0.49624225  1
  Cr  Cr34  1  -0.00286179  0.66459233  0.66390737  1
  Fe  Fe35  1  0.16449842  0.83090270  0.83051964  1
  Cr  Cr36  1  0.49436190  0.16192273  0.49415152  1
  Cr  Cr37  1  0.33085098  0.99549336  0.66380529  1
  Ni  Ni38  1  0.49858593  0.16114796  0.83318298  1
  Ni  Ni39  1  0.49855222  0.49905035  0.49461647  1
  Cr  Cr40  1  0.33307050  0.33065603  0.66227682  1
  Cr  Cr41  1  0.49655762  0.49650575  0.83055085  1
  Ni  Ni42  1  0.49500543  0.82672382  0.49428979  1
  Ni  Ni43  1  0.33061890  0.66450055  0.66179529  1
  Cr  Cr44  1  0.49684866  0.82979878  0.83131297  1
  Fe  Fe45  1  0.82952022  0.16399179  0.49554063  1
  Cr  Cr46  1  0.66315602  -0.00153730  0.66337878  1
  Ni  Ni47  1  0.82871434  0.16211203  0.83038545  1
  Ni  Ni48  1  0.82601556  0.49524274  0.49376635  1
  Cr  Cr49  1  0.66194356  0.32879800  0.66233779  1
  Cr  Cr50  1  0.82877675  0.49433641  0.83263377  1
  Cr  Cr51  1  0.82695700  0.82977929  0.49661445  1
  Cr  Cr52  1  0.66057837  0.66182894  0.66009423  1
  Cr  Cr53  1  0.82852643  0.83198111  0.82980521  1
" 