5988,Ni40Fe6Cr53_3,-217.432619833145, 141.295496728282,Ni40Fe6Cr53,"# generated using pymatgen
 data_Cr10FeNi7
_symmetry_space_group_name_H-M   'P 1'
_cell_length_a   7.52813438
_cell_length_b   7.52813438
_cell_length_c   10.64638973
_cell_angle_alpha   90.00000000
_cell_angle_beta   90.00000000
_cell_angle_gamma   90.00000000
_symmetry_Int_Tables_number   1
_chemical_formula_structural   Cr10FeNi7
_chemical_formula_sum   'Cr30 Fe3 Ni21'
_cell_volume   603.36079274
_cell_formula_units_Z   3
loop_
 _symmetry_equiv_pos_site_id
 _symmetry_equiv_pos_as_xyz
  1  'x, y, z'
loop_
 _atom_site_type_symbol
 _atom_site_label
 _atom_site_symmetry_multiplicity
 _atom_site_fract_x
 _atom_site_fract_y
 _atom_site_fract_z
 _atom_site_occupancy
  Ni  Ni0  1  -0.00348799  0.99590119  0.99402393  1
  Cr  Cr1  1  0.16177183  0.16296084  0.15717104  1
  Cr  Cr2  1  0.99575856  0.99525258  0.33153958  1
  Ni  Ni3  1  0.99296019  0.33009768  0.99473829  1
  Cr  Cr4  1  0.16114049  0.49595882  0.16147551  1
  Cr  Cr5  1  0.99479415  0.33279371  0.33287435  1
  Cr  Cr6  1  0.99135521  0.66244490  -0.00302888  1
  Cr  Cr7  1  0.16161399  0.82900796  0.16290885  1
  Ni  Ni8  1  0.99200490  0.65975030  0.33205126  1
  Ni  Ni9  1  0.32991882  -0.00096779  -0.00372986  1
  Ni  Ni10  1  0.49792381  0.16408362  0.16198616  1
  Cr  Cr11  1  0.33108503  -0.00032184  0.32842811  1
  Ni  Ni12  1  0.33083996  0.32583560  -0.00319927  1
  Cr  Cr13  1  0.49818415  0.49097423  0.16211025  1
  Cr  Cr14  1  0.32994323  0.32733017  0.33442820  1
  Cr  Cr15  1  0.33221750  0.66524852  0.99466792  1
  Cr  Cr16  1  0.49573872  0.83194857  0.16306929  1
  Cr  Cr17  1  0.32785210  0.66055707  0.33139274  1
  Cr  Cr18  1  0.66240281  0.99300335  0.99438311  1
  Cr  Cr19  1  0.82579458  0.16515004  0.16179933  1
  Ni  Ni20  1  0.66116151  -0.00137129  0.33222810  1
  Ni  Ni21  1  0.66402085  0.32996778  -0.00286735  1
  Ni  Ni22  1  0.82893629  0.49311647  0.16247732  1
  Ni  Ni23  1  0.66178433  0.32902602  0.33051139  1
  Cr  Cr24  1  0.66547985  0.66149894  0.99418367  1
  Cr  Cr25  1  0.83072183  0.83059515  0.16717671  1
  Cr  Cr26  1  0.66619314  0.66038835  0.32857628  1
  Ni  Ni27  1  0.16267825  0.16227178  0.49792102  1
  Ni  Ni28  1  0.99521880  0.99150637  0.66176336  1
  Cr  Cr29  1  0.16083469  0.16261324  0.83249898  1
  Ni  Ni30  1  0.16100545  0.49811449  0.49782133  1
  Cr  Cr31  1  0.99582557  0.33073931  0.66069595  1
  Cr  Cr32  1  0.16219500  0.49595823  0.82900428  1
  Cr  Cr33  1  0.15913061  0.82698283  0.49580175  1
  Ni  Ni34  1  0.98995727  0.66363372  0.66077355  1
  Cr  Cr35  1  0.16137050  0.82937390  0.82882970  1
  Ni  Ni36  1  0.49825389  0.16362752  0.49379275  1
  Cr  Cr37  1  0.33005215  -0.00197753  0.66192603  1
  Cr  Cr38  1  0.49760793  0.16409128  0.83099218  1
  Ni  Ni39  1  0.49796516  0.49511598  0.49688762  1
  Cr  Cr40  1  0.32885170  0.32824242  0.65639065  1
  Cr  Cr41  1  0.49664700  0.49598159  0.82840047  1
  Cr  Cr42  1  0.50037797  0.82796248  0.49808893  1
  Fe  Fe43  1  0.32856116  0.66143396  0.66081457  1
  Fe  Fe44  1  0.49849596  0.82935352  0.82660630  1
  Cr  Cr45  1  0.82729725  0.15925566  0.49659690  1
  Fe  Fe46  1  0.66583835  0.99382730  0.66203637  1
  Cr  Cr47  1  0.83006592  0.16236597  0.82970930  1
  Ni  Ni48  1  0.82803314  0.49931816  0.49577869  1
  Cr  Cr49  1  0.66321639  0.33278656  0.66065861  1
  Ni  Ni50  1  0.82833920  0.49859331  0.82987362  1
  Ni  Ni51  1  0.82913648  0.82662227  0.49751730  1
  Ni  Ni52  1  0.66601751  0.66422828  0.66344780  1
  Ni  Ni53  1  0.82982636  0.82865594  0.82490545  1
" 