4429,Ni40Fe60_7,-243.062355715086, 226.116910108162,Ni40Fe60,"# generated using pymatgen
 data_Fe7Ni11
_symmetry_space_group_name_H-M   'P 1'
_cell_length_a   7.41077931
_cell_length_b   7.41077931
_cell_length_c   10.48042461
_cell_angle_alpha   90.00000000
_cell_angle_beta   90.00000000
_cell_angle_gamma   90.00000000
_symmetry_Int_Tables_number   1
_chemical_formula_structural   Fe7Ni11
_chemical_formula_sum   'Fe21 Ni33'
_cell_volume   575.58125214
_cell_formula_units_Z   3
loop_
 _symmetry_equiv_pos_site_id
 _symmetry_equiv_pos_as_xyz
  1  'x, y, z'
loop_
 _atom_site_type_symbol
 _atom_site_label
 _atom_site_symmetry_multiplicity
 _atom_site_fract_x
 _atom_site_fract_y
 _atom_site_fract_z
 _atom_site_occupancy
  Ni  Ni0  1  1.00305686  1.00253846  1.00294393  1
  Ni  Ni1  1  0.17048984  0.16955874  0.17122782  1
  Ni  Ni2  1  1.00325223  1.00297852  0.33711717  1
  Fe  Fe3  1  1.00284034  0.33663516  1.00368908  1
  Fe  Fe4  1  0.16981489  0.50459575  0.17080142  1
  Ni  Ni5  1  1.00324996  0.33717887  0.33634522  1
  Ni  Ni6  1  0.00488225  0.67125158  1.00316008  1
  Ni  Ni7  1  0.16895984  0.83875622  0.17099927  1
  Ni  Ni8  1  0.00509447  0.67123519  0.33758090  1
  Fe  Fe9  1  0.33666374  0.00393852  1.00298670  1
  Fe  Fe10  1  0.50435922  0.17095488  0.17046875  1
  Fe  Fe11  1  0.33580283  0.00427529  0.33777993  1
  Fe  Fe12  1  0.33716103  0.33649531  0.00390375  1
  Ni  Ni13  1  0.50504775  0.50269384  0.17100857  1
  Ni  Ni14  1  0.33850460  0.33869923  0.33746271  1
  Fe  Fe15  1  0.33731289  0.67095598  1.00334038  1
  Fe  Fe16  1  0.50372344  0.83666838  0.17039259  1
  Ni  Ni17  1  0.33665042  0.66970283  0.33692493  1
  Ni  Ni18  1  0.67113775  0.00521774  1.00321643  1
  Fe  Fe19  1  0.83751701  0.17046018  0.17004318  1
  Fe  Fe20  1  0.67092357  1.00379542  0.33772686  1
  Ni  Ni21  1  0.66960822  0.33646199  1.00305558  1
  Ni  Ni22  1  0.83584119  0.50422831  0.17120910  1
  Ni  Ni23  1  0.66963416  0.33685758  0.33734338  1
  Fe  Fe24  1  0.67172067  0.67065379  1.00370694  1
  Ni  Ni25  1  0.83855559  0.83643134  0.17088711  1
  Fe  Fe26  1  0.67102754  0.66929718  0.33713324  1
  Fe  Fe27  1  0.17110552  0.16935577  0.50341963  1
  Ni  Ni28  1  1.00324442  1.00348767  0.67132932  1
  Ni  Ni29  1  0.17045210  0.16994271  0.83656668  1
  Fe  Fe30  1  0.17171509  0.50504959  0.50360099  1
  Fe  Fe31  1  0.00435877  0.33618297  0.67095850  1
  Ni  Ni32  1  0.17046680  0.50346035  0.83780623  1
  Ni  Ni33  1  0.16946158  0.83780815  0.50336496  1
  Fe  Fe34  1  0.00418704  0.67229072  0.67092579  1
  Ni  Ni35  1  0.16977975  0.83797842  0.83702796  1
  Ni  Ni36  1  0.50329029  0.17165484  0.50314845  1
  Ni  Ni37  1  0.33749263  1.00265019  0.67088321  1
  Ni  Ni38  1  0.50356169  0.17097056  0.83725391  1
  Ni  Ni39  1  0.50394946  0.50261276  0.50359112  1
  Fe  Fe40  1  0.33751511  0.33607264  0.67043205  1
  Ni  Ni41  1  0.50421441  0.50309829  0.83679157  1
  Ni  Ni42  1  0.50360161  0.83711909  0.50283423  1
  Ni  Ni43  1  0.33713967  0.67031740  0.67109995  1
  Ni  Ni44  1  0.50388267  0.83731991  0.83698002  1
  Fe  Fe45  1  0.83626752  0.16928419  0.50405617  1
  Ni  Ni46  1  0.67065028  0.00452109  0.67101522  1
  Ni  Ni47  1  0.83737070  0.17028794  0.83756692  1
  Fe  Fe48  1  0.83641186  0.50437233  0.50296653  1
  Fe  Fe49  1  0.66951446  0.33625224  0.67085277  1
  Ni  Ni50  1  0.83670839  0.50377628  0.83702536  1
  Ni  Ni51  1  0.83832671  0.83715248  0.50336222  1
  Fe  Fe52  1  0.66977340  0.67214004  0.67054632  1
  Ni  Ni53  1  0.83773042  0.83732974  0.83714353  1
" 