6129,Ni40Fe17Cr42_7,-222.57536240444, 168.916815118849,Ni40Fe17Cr42,"# generated using pymatgen
 data_Cr8Fe3Ni7
_symmetry_space_group_name_H-M   'P 1'
_cell_length_a   7.49224644
_cell_length_b   7.49224644
_cell_length_c   10.59563653
_cell_angle_alpha   90.00000000
_cell_angle_beta   90.00000000
_cell_angle_gamma   90.00000000
_symmetry_Int_Tables_number   1
_chemical_formula_structural   Cr8Fe3Ni7
_chemical_formula_sum   'Cr24 Fe9 Ni21'
_cell_volume   594.77288430
_cell_formula_units_Z   3
loop_
 _symmetry_equiv_pos_site_id
 _symmetry_equiv_pos_as_xyz
  1  'x, y, z'
loop_
 _atom_site_type_symbol
 _atom_site_label
 _atom_site_symmetry_multiplicity
 _atom_site_fract_x
 _atom_site_fract_y
 _atom_site_fract_z
 _atom_site_occupancy
  Fe  Fe0  1  0.99427077  -0.00162897  0.99491827  1
  Ni  Ni1  1  0.16500325  0.16717571  0.16034044  1
  Cr  Cr2  1  0.99824931  0.00189055  0.33333121  1
  Cr  Cr3  1  -0.00137736  0.32928220  0.99480589  1
  Cr  Cr4  1  0.16344549  0.50069263  0.16368844  1
  Cr  Cr5  1  0.99743821  0.32979369  0.33447954  1
  Ni  Ni6  1  0.99612557  0.66053845  0.99494837  1
  Cr  Cr7  1  0.15999353  0.83107339  0.16380306  1
  Ni  Ni8  1  0.99553661  0.66223842  0.33317792  1
  Cr  Cr9  1  0.33037465  0.00390098  -0.00033235  1
  Ni  Ni10  1  0.50098061  0.16965331  0.16361894  1
  Cr  Cr11  1  0.33170780  0.00249021  0.33085083  1
  Fe  Fe12  1  0.33410902  0.33365610  0.99692006  1
  Ni  Ni13  1  0.50152129  0.49346327  0.16296329  1
  Cr  Cr14  1  0.32833755  0.32951295  0.33010127  1
  Cr  Cr15  1  0.33411893  0.66438303  0.99617324  1
  Cr  Cr16  1  0.50078440  0.83425010  0.16478824  1
  Cr  Cr17  1  0.33205945  0.66316026  0.33279726  1
  Ni  Ni18  1  0.66459595  0.00050251  0.99491091  1
  Cr  Cr19  1  0.82841661  0.16397740  0.16370947  1
  Ni  Ni20  1  0.66720812  0.00122824  0.33395912  1
  Ni  Ni21  1  0.66638042  0.33138428  -0.00146720  1
  Fe  Fe22  1  0.83066072  0.49722058  0.16390449  1
  Fe  Fe23  1  0.66481566  0.32969443  0.33096610  1
  Cr  Cr24  1  0.66601502  0.66288440  0.99127059  1
  Cr  Cr25  1  0.83354531  0.83036253  0.16289442  1
  Cr  Cr26  1  0.66636645  0.66498588  0.33202827  1
  Ni  Ni27  1  0.16337732  0.16620333  0.50484525  1
  Ni  Ni28  1  0.99752362  0.00046735  0.66602063  1
  Ni  Ni29  1  0.16300941  0.16616214  0.83028515  1
  Ni  Ni30  1  0.16196243  0.49600446  0.50186181  1
  Fe  Fe31  1  0.99811341  0.32923310  0.66695800  1
  Ni  Ni32  1  0.16561062  0.49779273  0.82958336  1
  Cr  Cr33  1  0.16152430  0.82919513  0.49813118  1
  Ni  Ni34  1  0.99827990  0.66323964  0.66576759  1
  Cr  Cr35  1  0.16124172  0.83172500  0.83277235  1
  Cr  Cr36  1  0.50185863  0.16614945  0.50109898  1
  Ni  Ni37  1  0.32944171  0.00187237  0.66533162  1
  Cr  Cr38  1  0.50076091  0.16776840  0.83042622  1
  Cr  Cr39  1  0.49700012  0.49407028  0.50019593  1
  Fe  Fe40  1  0.32928247  0.33088431  0.66710235  1
  Ni  Ni41  1  0.49883046  0.49464225  0.83118306  1
  Cr  Cr42  1  0.50129044  0.83492829  0.50136157  1
  Cr  Cr43  1  0.33202808  0.66496051  0.66621724  1
  Fe  Fe44  1  0.49720803  0.83632330  0.83001682  1
  Ni  Ni45  1  0.83183107  0.16242939  0.50186784  1
  Ni  Ni46  1  0.66813505  0.00066720  0.66611344  1
  Ni  Ni47  1  0.83091133  0.16302428  0.83020484  1
  Cr  Cr48  1  0.83221414  0.49659894  0.49962593  1
  Ni  Ni49  1  0.66874202  0.33027650  0.66651679  1
  Fe  Fe50  1  0.83428479  0.49326658  0.83000674  1
  Ni  Ni51  1  0.83374938  0.83363519  0.50086752  1
  Cr  Cr52  1  0.66714461  0.66549543  0.67091394  1
  Fe  Fe53  1  0.83315099  0.83440823  0.83036408  1
" 