660,Ni40Fe60_6,-242.192351808169, 222.098646083667,Ni40Fe60,"# generated using pymatgen
 data_Fe7Ni11
_symmetry_space_group_name_H-M   'P 1'
_cell_length_a   7.40456151
_cell_length_b   7.40456151
_cell_length_c   10.47163132
_cell_angle_alpha   90.00000000
_cell_angle_beta   90.00000000
_cell_angle_gamma   90.00000000
_symmetry_Int_Tables_number   1
_chemical_formula_structural   Fe7Ni11
_chemical_formula_sum   'Fe21 Ni33'
_cell_volume   574.13369273
_cell_formula_units_Z   3
loop_
 _symmetry_equiv_pos_site_id
 _symmetry_equiv_pos_as_xyz
  1  'x, y, z'
loop_
 _atom_site_type_symbol
 _atom_site_label
 _atom_site_symmetry_multiplicity
 _atom_site_fract_x
 _atom_site_fract_y
 _atom_site_fract_z
 _atom_site_occupancy
  Ni  Ni0  1  1.00367027  1.00255719  1.00342987  1
  Ni  Ni1  1  0.17146473  0.17017193  0.17105391  1
  Ni  Ni2  1  1.00374648  0.00435639  0.33880139  1
  Fe  Fe3  1  0.00457102  0.33725807  0.00586648  1
  Ni  Ni4  1  0.17074150  0.50316131  0.17176126  1
  Ni  Ni5  1  1.00262899  0.33796477  0.33829434  1
  Ni  Ni6  1  0.00469610  0.67168556  0.00570955  1
  Fe  Fe7  1  0.16980426  0.83830363  0.17103728  1
  Fe  Fe8  1  1.00289530  0.67127391  0.33727226  1
  Ni  Ni9  1  0.33694484  1.00391170  1.00331000  1
  Ni  Ni10  1  0.50275591  0.16882941  0.17081910  1
  Ni  Ni11  1  0.33732661  1.00130986  0.33796926  1
  Ni  Ni12  1  0.33865424  0.33821469  0.00517612  1
  Fe  Fe13  1  0.50499545  0.50279669  0.17076348  1
  Fe  Fe14  1  0.33747771  0.33481771  0.33757457  1
  Ni  Ni15  1  0.33660584  0.67032151  1.00382656  1
  Fe  Fe16  1  0.50363253  0.83729840  0.17040637  1
  Ni  Ni17  1  0.33660813  0.66982379  0.33763898  1
  Ni  Ni18  1  0.67144809  0.00442493  0.00495623  1
  Ni  Ni19  1  0.83834587  0.17035255  0.17091363  1
  Ni  Ni20  1  0.67046877  0.00604850  0.33733695  1
  Ni  Ni21  1  0.67057039  0.33734266  0.00445610  1
  Ni  Ni22  1  0.83820239  0.50514559  0.17002558  1
  Ni  Ni23  1  0.67110607  0.33733776  0.33759884  1
  Ni  Ni24  1  0.67118425  0.67068458  1.00388320  1
  Ni  Ni25  1  0.83655362  0.83765309  0.17119792  1
  Fe  Fe26  1  0.67078219  0.67185267  0.33699657  1
  Ni  Ni27  1  0.17031949  0.16992567  0.50370661  1
  Fe  Fe28  1  1.00377547  0.00605626  0.67113548  1
  Fe  Fe29  1  0.17178234  0.17200198  0.83776000  1
  Fe  Fe30  1  0.17299382  0.50347647  0.50306638  1
  Fe  Fe31  1  1.00310103  0.33824616  0.66942294  1
  Fe  Fe32  1  0.17126613  0.50556322  0.83790591  1
  Fe  Fe33  1  0.17239496  0.83680386  0.50404412  1
  Ni  Ni34  1  0.00642462  0.67155650  0.66921349  1
  Fe  Fe35  1  0.17031120  0.83542529  0.83753982  1
  Ni  Ni36  1  0.50113339  0.16989960  0.50425298  1
  Fe  Fe37  1  0.33829061  0.00499773  0.67097727  1
  Fe  Fe38  1  0.50549495  0.17178721  0.83772780  1
  Ni  Ni39  1  0.50648611  0.50470847  0.50302607  1
  Ni  Ni40  1  0.33827945  0.33913413  0.66935198  1
  Ni  Ni41  1  0.50485834  0.50465990  0.83790726  1
  Ni  Ni42  1  0.50509925  0.83768381  0.50454593  1
  Fe  Fe43  1  0.34080637  0.67061607  0.67061535  1
  Ni  Ni44  1  0.50484896  0.83842148  0.83814180  1
  Fe  Fe45  1  0.83451694  0.17226531  0.50318856  1
  Ni  Ni46  1  0.67098175  0.00530473  0.67056627  1
  Fe  Fe47  1  0.83532338  0.17086509  0.83848197  1
  Ni  Ni48  1  0.83780094  0.50640119  0.50448780  1
  Ni  Ni49  1  0.66981939  0.33695921  0.67042448  1
  Ni  Ni50  1  0.83897153  0.50482042  0.83850709  1
  Fe  Fe51  1  0.83609555  0.83913983  0.50478868  1
  Fe  Fe52  1  0.67152145  0.66977587  0.67211054  1
  Ni  Ni53  1  0.83727037  0.83645508  0.83687697  1
" 