4709,Ni40Fe6Cr53_15,-217.51833950528, 149.336485926683,Ni40Fe6Cr53,"# generated using pymatgen
 data_Cr10FeNi7
_symmetry_space_group_name_H-M   'P 1'
_cell_length_a   7.52434831
_cell_length_b   7.52434831
_cell_length_c   10.64103543
_cell_angle_alpha   90.00000000
_cell_angle_beta   90.00000000
_cell_angle_gamma   90.00000000
_symmetry_Int_Tables_number   1
_chemical_formula_structural   Cr10FeNi7
_chemical_formula_sum   'Cr30 Fe3 Ni21'
_cell_volume   602.45092053
_cell_formula_units_Z   3
loop_
 _symmetry_equiv_pos_site_id
 _symmetry_equiv_pos_as_xyz
  1  'x, y, z'
loop_
 _atom_site_type_symbol
 _atom_site_label
 _atom_site_symmetry_multiplicity
 _atom_site_fract_x
 _atom_site_fract_y
 _atom_site_fract_z
 _atom_site_occupancy
  Ni  Ni0  1  -0.00283716  0.99404981  -0.00329428  1
  Fe  Fe1  1  0.16242798  0.15875882  0.16316856  1
  Cr  Cr2  1  0.99435555  0.99418593  0.32837378  1
  Cr  Cr3  1  -0.00275808  0.32666862  0.99508790  1
  Cr  Cr4  1  0.16040526  0.49705621  0.16369678  1
  Cr  Cr5  1  0.99296298  0.32975712  0.33050496  1
  Cr  Cr6  1  -0.00045297  0.66564741  0.99608114  1
  Ni  Ni7  1  0.16092765  0.83189629  0.16401315  1
  Ni  Ni8  1  0.99302163  0.66619418  0.33078699  1
  Cr  Cr9  1  0.32891673  0.99301435  -0.00144833  1
  Cr  Cr10  1  0.49535948  0.16237605  0.16453430  1
  Fe  Fe11  1  0.33053748  0.99253737  0.32917375  1
  Cr  Cr12  1  0.32744421  0.33072978  0.99367877  1
  Cr  Cr13  1  0.50055880  0.49697912  0.16299155  1
  Cr  Cr14  1  0.32957798  0.33112849  0.32973569  1
  Cr  Cr15  1  0.32919286  0.66431458  0.99612686  1
  Ni  Ni16  1  0.49746288  0.82962686  0.16452448  1
  Cr  Cr17  1  0.33093617  0.66572102  0.32886569  1
  Cr  Cr18  1  0.66534498  0.99461792  0.99445875  1
  Cr  Cr19  1  0.82892458  0.16237101  0.16169267  1
  Cr  Cr20  1  0.66392972  0.99292347  0.33211635  1
  Cr  Cr21  1  0.66342268  0.32703356  0.99284490  1
  Cr  Cr22  1  0.82748547  0.49994314  0.16464266  1
  Ni  Ni23  1  0.66354643  0.33144080  0.33385795  1
  Ni  Ni24  1  0.66291034  0.66682887  -0.00017518  1
  Ni  Ni25  1  0.83039317  0.82852463  0.16258794  1
  Ni  Ni26  1  0.66374270  0.66493022  0.33108085  1
  Cr  Cr27  1  0.16366780  0.15999941  0.49603673  1
  Ni  Ni28  1  0.99514245  0.99509728  0.66307308  1
  Cr  Cr29  1  0.16371007  0.15913163  0.82764396  1
  Cr  Cr30  1  0.16143318  0.49734687  0.49792795  1
  Cr  Cr31  1  0.99397178  0.32931907  0.66239061  1
  Ni  Ni32  1  0.16197259  0.49792368  0.82676556  1
  Cr  Cr33  1  0.16154511  0.83108382  0.49881533  1
  Fe  Fe34  1  0.99407408  0.66434225  0.66201573  1
  Ni  Ni35  1  0.16071131  0.83052931  0.82736408  1
  Cr  Cr36  1  0.49373202  0.16208196  0.49696738  1
  Ni  Ni37  1  0.32878773  0.99496665  0.66262892  1
  Ni  Ni38  1  0.49503296  0.16224588  0.82682228  1
  Ni  Ni39  1  0.49997896  0.49767737  0.49580243  1
  Ni  Ni40  1  0.32977357  0.32980603  0.66431635  1
  Cr  Cr41  1  0.49784536  0.49669638  0.82998021  1
  Ni  Ni42  1  0.49784049  0.82735725  0.49606179  1
  Cr  Cr43  1  0.33085540  0.66231738  0.66420669  1
  Cr  Cr44  1  0.49680609  0.83065739  0.82856279  1
  Ni  Ni45  1  0.82966974  0.16223913  0.49648505  1
  Cr  Cr46  1  0.66532018  0.99503923  0.66175452  1
  Ni  Ni47  1  0.83110301  0.16047752  0.82929195  1
  Ni  Ni48  1  0.82620525  0.49989257  0.49368783  1
  Cr  Cr49  1  0.66376732  0.32933620  0.66156276  1
  Cr  Cr50  1  0.82906006  0.50041303  0.83051211  1
  Ni  Ni51  1  0.82928988  0.82653605  0.49699960  1
  Ni  Ni52  1  0.66336620  0.66339100  0.65788806  1
  Cr  Cr53  1  0.83198292  0.82922499  0.82911258  1
" 