5595,Ni40Fe49Cr9_14,-235.776887094219, 210.320714454412,Ni40Fe49Cr9,"# generated using pymatgen
 data_Cr3Fe13Ni11
_symmetry_space_group_name_H-M   'P 1'
_cell_length_a   7.41991195
_cell_length_b   7.41991195
_cell_length_c   10.49334012
_cell_angle_alpha   90.00000000
_cell_angle_beta   90.00000000
_cell_angle_gamma   90.00000000
_symmetry_Int_Tables_number   1
_chemical_formula_structural   Cr3Fe13Ni11
_chemical_formula_sum   'Cr6 Fe26 Ni22'
_cell_volume   577.71182013
_cell_formula_units_Z   2
loop_
 _symmetry_equiv_pos_site_id
 _symmetry_equiv_pos_as_xyz
  1  'x, y, z'
loop_
 _atom_site_type_symbol
 _atom_site_label
 _atom_site_symmetry_multiplicity
 _atom_site_fract_x
 _atom_site_fract_y
 _atom_site_fract_z
 _atom_site_occupancy
  Fe  Fe0  1  1.00225986  0.00452478  1.00278071  1
  Fe  Fe1  1  0.17113818  0.17119535  0.16925416  1
  Cr  Cr2  1  0.00332683  0.00481473  0.33750657  1
  Ni  Ni3  1  1.00292808  0.33598688  1.00307890  1
  Cr  Cr4  1  0.16947178  0.50186853  0.17098626  1
  Ni  Ni5  1  1.00145153  0.33698253  0.33757205  1
  Fe  Fe6  1  1.00028685  0.67052904  0.00352166  1
  Cr  Cr7  1  0.17112009  0.83801310  0.17120999  1
  Ni  Ni8  1  1.00228846  0.66796267  0.33869798  1
  Ni  Ni9  1  0.33757196  1.00281590  1.00181866  1
  Fe  Fe10  1  0.50247469  0.16930276  0.17096636  1
  Ni  Ni11  1  0.33827103  0.00365040  0.33799795  1
  Fe  Fe12  1  0.33649915  0.33318792  1.00076768  1
  Fe  Fe13  1  0.50409402  0.50329608  0.17193772  1
  Fe  Fe14  1  0.33699812  0.33724008  0.33936932  1
  Cr  Cr15  1  0.33782818  0.66939634  0.99970467  1
  Fe  Fe16  1  0.50477562  0.83705968  0.17086111  1
  Ni  Ni17  1  0.33799033  0.67110744  0.33932795  1
  Ni  Ni18  1  0.67010851  1.00301168  0.00399360  1
  Fe  Fe19  1  0.83673807  0.17107470  0.16996706  1
  Fe  Fe20  1  0.66937442  1.00276654  0.33739208  1
  Cr  Cr21  1  0.67078671  0.33650288  1.00203644  1
  Ni  Ni22  1  0.83528336  0.50331543  0.17170792  1
  Ni  Ni23  1  0.67108670  0.33650201  0.33777464  1
  Fe  Fe24  1  0.67089742  0.67168009  0.00343130  1
  Fe  Fe25  1  0.83505201  0.83467395  0.17015596  1
  Ni  Ni26  1  0.66937914  0.66858302  0.33566040  1
  Ni  Ni27  1  0.16978102  0.16998867  0.50244716  1
  Fe  Fe28  1  0.00437535  0.00332485  0.66876091  1
  Ni  Ni29  1  0.16946641  0.16729384  0.83805046  1
  Ni  Ni30  1  0.17106702  0.50313535  0.50372275  1
  Fe  Fe31  1  0.00466645  0.33345954  0.66848855  1
  Fe  Fe32  1  0.16877647  0.50006085  0.83491103  1
  Fe  Fe33  1  0.17172750  0.83620654  0.50330625  1
  Fe  Fe34  1  0.00486866  0.67153935  0.66756896  1
  Fe  Fe35  1  0.16892868  0.83701695  0.83532895  1
  Fe  Fe36  1  0.50174139  0.17131539  0.50398148  1
  Ni  Ni37  1  0.33608705  0.00341847  0.66988834  1
  Fe  Fe38  1  0.50349490  0.16911672  0.83507465  1
  Ni  Ni39  1  0.50347027  0.50536212  0.50295237  1
  Ni  Ni40  1  0.33509046  0.33677781  0.67131458  1
  Ni  Ni41  1  0.50215374  0.50511112  0.83554768  1
  Fe  Fe42  1  0.50312992  0.83741550  0.50418807  1
  Ni  Ni43  1  0.33673154  0.66967622  0.67019368  1
  Fe  Fe44  1  0.50511845  0.83959191  0.83442856  1
  Ni  Ni45  1  0.83554270  0.16899598  0.50439203  1
  Ni  Ni46  1  0.67076906  0.00381815  0.66887973  1
  Ni  Ni47  1  0.83777699  0.16749906  0.83521133  1
  Fe  Fe48  1  0.83652433  0.50181902  0.50305852  1
  Fe  Fe49  1  0.66588968  0.33574731  0.66839376  1
  Cr  Cr50  1  0.83523169  0.50317055  0.83254366  1
  Fe  Fe51  1  0.83541678  0.83452259  0.50404694  1
  Ni  Ni52  1  0.66873106  0.67062936  0.66977343  1
  Fe  Fe53  1  0.83548124  0.83846217  0.83558698  1
" 