4628,Ni40Fe57Cr2_17,-238.237303060059, 218.860680825936,Ni40Fe57Cr2,"# generated using pymatgen
 data_CrFe15Ni11
_symmetry_space_group_name_H-M   'P 1'
_cell_length_a   7.40657185
_cell_length_b   7.40657185
_cell_length_c   10.47447437
_cell_angle_alpha   90.00000000
_cell_angle_beta   90.00000000
_cell_angle_gamma   90.00000000
_symmetry_Int_Tables_number   1
_chemical_formula_structural   CrFe15Ni11
_chemical_formula_sum   'Cr2 Fe30 Ni22'
_cell_volume   574.60145216
_cell_formula_units_Z   2
loop_
 _symmetry_equiv_pos_site_id
 _symmetry_equiv_pos_as_xyz
  1  'x, y, z'
loop_
 _atom_site_type_symbol
 _atom_site_label
 _atom_site_symmetry_multiplicity
 _atom_site_fract_x
 _atom_site_fract_y
 _atom_site_fract_z
 _atom_site_occupancy
  Ni  Ni0  1  1.00407734  0.00442804  1.00406383  1
  Ni  Ni1  1  0.17081567  0.16994677  0.17035713  1
  Fe  Fe2  1  1.00361254  1.00312330  0.33647387  1
  Fe  Fe3  1  0.00429717  0.33579315  0.00476925  1
  Fe  Fe4  1  0.17095382  0.50378105  0.17104781  1
  Fe  Fe5  1  1.00394555  0.33814183  0.33786957  1
  Fe  Fe6  1  0.00486544  0.67200305  0.00476682  1
  Ni  Ni7  1  0.17062902  0.83760865  0.17185478  1
  Fe  Fe8  1  1.00394524  0.67098050  0.33770935  1
  Fe  Fe9  1  0.33697482  0.00451266  0.00411832  1
  Ni  Ni10  1  0.50435197  0.17152286  0.17097693  1
  Fe  Fe11  1  0.33696599  0.00419568  0.33643601  1
  Fe  Fe12  1  0.33771840  0.33727535  1.00389182  1
  Ni  Ni13  1  0.50397586  0.50388082  0.17132380  1
  Fe  Fe14  1  0.33787833  0.33831549  0.33741041  1
  Fe  Fe15  1  0.33708923  0.67046103  1.00379755  1
  Fe  Fe16  1  0.50401542  0.83788655  0.17152968  1
  Ni  Ni17  1  0.33728108  0.66998736  0.33676772  1
  Fe  Fe18  1  0.67177710  0.00508090  0.00446167  1
  Ni  Ni19  1  0.83708092  0.17019736  0.17071569  1
  Fe  Fe20  1  0.67166769  0.00419228  0.33659599  1
  Ni  Ni21  1  0.67017975  0.33691223  0.00515447  1
  Fe  Fe22  1  0.83691923  0.50364183  0.17099452  1
  Fe  Fe23  1  0.67042576  0.33798393  0.33667637  1
  Fe  Fe24  1  0.67029419  0.67125897  0.00503198  1
  Ni  Ni25  1  0.83789129  0.83798507  0.17055652  1
  Ni  Ni26  1  0.67127790  0.66969767  0.33594642  1
  Fe  Fe27  1  0.16999913  0.17102869  0.50404500  1
  Fe  Fe28  1  0.00442123  1.00362229  0.67125136  1
  Fe  Fe29  1  0.17078797  0.17110629  0.83759132  1
  Ni  Ni30  1  0.17101043  0.50431663  0.50455696  1
  Fe  Fe31  1  0.00552876  0.33730454  0.66960954  1
  Ni  Ni32  1  0.17356883  0.50516073  0.83777712  1
  Fe  Fe33  1  0.16859723  0.83693976  0.50428299  1
  Fe  Fe34  1  0.00603466  0.67131872  0.66977520  1
  Ni  Ni35  1  0.17186035  0.83710268  0.83618989  1
  Fe  Fe36  1  0.50445191  0.17254243  0.50411154  1
  Ni  Ni37  1  0.33556094  0.00516569  0.67158669  1
  Fe  Fe38  1  0.50353497  0.17151307  0.83755983  1
  Fe  Fe39  1  0.50490860  0.50326123  0.50424755  1
  Ni  Ni40  1  0.33725845  0.33759839  0.67083401  1
  Ni  Ni41  1  0.50180722  0.50434895  0.83587694  1
  Cr  Cr42  1  0.50354063  0.83680102  0.50369751  1
  Ni  Ni43  1  0.33719766  0.66948867  0.67174486  1
  Fe  Fe44  1  0.50360139  0.83656555  0.83637202  1
  Ni  Ni45  1  0.83715223  0.17090644  0.50412590  1
  Fe  Fe46  1  0.67078339  0.00469406  0.67119234  1
  Ni  Ni47  1  0.83689226  0.16910182  0.83740585  1
  Ni  Ni48  1  0.83787688  0.50371981  0.50408267  1
  Fe  Fe49  1  0.66904005  0.33687296  0.67053537  1
  Cr  Cr50  1  0.83714114  0.50289898  0.83718629  1
  Ni  Ni51  1  0.83832083  0.83762146  0.50514353  1
  Ni  Ni52  1  0.67087643  0.67029245  0.67092299  1
  Fe  Fe53  1  0.83779871  0.83837132  0.83745548  1
" 