1187,Ni40Fe51Cr7_3,-235.685112871819, 211.315949395487,Ni40Fe51Cr7,"# generated using pymatgen
 data_Cr2Fe9Ni7
_symmetry_space_group_name_H-M   'P 1'
_cell_length_a   7.42146384
_cell_length_b   7.42146384
_cell_length_c   10.49553482
_cell_angle_alpha   90.00000000
_cell_angle_beta   90.00000000
_cell_angle_gamma   90.00000000
_symmetry_Int_Tables_number   1
_chemical_formula_structural   Cr2Fe9Ni7
_chemical_formula_sum   'Cr6 Fe27 Ni21'
_cell_volume   578.07438453
_cell_formula_units_Z   3
loop_
 _symmetry_equiv_pos_site_id
 _symmetry_equiv_pos_as_xyz
  1  'x, y, z'
loop_
 _atom_site_type_symbol
 _atom_site_label
 _atom_site_symmetry_multiplicity
 _atom_site_fract_x
 _atom_site_fract_y
 _atom_site_fract_z
 _atom_site_occupancy
  Cr  Cr0  1  0.00484184  0.00482465  1.00013437  1
  Fe  Fe1  1  0.16817946  0.16916611  0.16967251  1
  Ni  Ni2  1  0.00404906  0.00472928  0.33747782  1
  Ni  Ni3  1  1.00201451  0.33598716  0.00414325  1
  Fe  Fe4  1  0.16798010  0.50089436  0.17085125  1
  Fe  Fe5  1  0.00377674  0.33537570  0.33679757  1
  Fe  Fe6  1  1.00129428  0.66780979  0.00321736  1
  Ni  Ni7  1  0.16975205  0.83501034  0.17178767  1
  Fe  Fe8  1  1.00211949  0.66983244  0.33656017  1
  Ni  Ni9  1  0.33469951  1.00184017  1.00158430  1
  Cr  Cr10  1  0.50524279  0.16890249  0.16477047  1
  Fe  Fe11  1  0.33769352  1.00292874  0.33499395  1
  Fe  Fe12  1  0.33518639  0.33588674  1.00053688  1
  Fe  Fe13  1  0.50323182  0.50271029  0.16764226  1
  Fe  Fe14  1  0.33448996  0.33586768  0.33753628  1
  Cr  Cr15  1  0.33669824  0.67107078  1.00240015  1
  Fe  Fe16  1  0.50383948  0.83760938  0.16906806  1
  Fe  Fe17  1  0.33507268  0.66964462  0.33544452  1
  Fe  Fe18  1  0.67033442  1.00238656  1.00089802  1
  Ni  Ni19  1  0.83618700  0.17050764  0.17070134  1
  Ni  Ni20  1  0.67220321  1.00252055  0.33667274  1
  Ni  Ni21  1  0.67237547  0.33932354  1.00069998  1
  Fe  Fe22  1  0.83799243  0.50283816  0.16730923  1
  Cr  Cr23  1  0.67127194  0.33680387  0.34060626  1
  Ni  Ni24  1  0.66940581  0.66836235  1.00247080  1
  Fe  Fe25  1  0.83718026  0.83834938  0.17073471  1
  Cr  Cr26  1  0.66747102  0.66995817  0.33781769  1
  Fe  Fe27  1  0.16868907  0.17102241  0.50409113  1
  Fe  Fe28  1  1.00001100  0.00619171  0.67108355  1
  Ni  Ni29  1  0.16987724  0.17180002  0.83657372  1
  Ni  Ni30  1  0.16872249  0.50137121  0.50176979  1
  Ni  Ni31  1  0.00317383  0.33640685  0.66883003  1
  Ni  Ni32  1  0.16741443  0.50100153  0.83627451  1
  Cr  Cr33  1  0.16988456  0.83558827  0.50568760  1
  Fe  Fe34  1  1.00003528  0.66657226  0.67009844  1
  Fe  Fe35  1  0.16985301  0.83535837  0.83427566  1
  Fe  Fe36  1  0.50310778  0.16798320  0.50423596  1
  Fe  Fe37  1  0.33874061  0.00557469  0.67256384  1
  Fe  Fe38  1  0.50424034  0.17196153  0.83681645  1
  Fe  Fe39  1  0.50110073  0.50541699  0.50685641  1
  Fe  Fe40  1  0.33627502  0.33643456  0.67015977  1
  Ni  Ni41  1  0.50449640  0.50305864  0.83539825  1
  Ni  Ni42  1  0.50337776  0.83977567  0.50185683  1
  Fe  Fe43  1  0.33885806  0.66745330  0.67136066  1
  Ni  Ni44  1  0.50397882  0.83825231  0.83694791  1
  Fe  Fe45  1  0.83787200  0.16715182  0.50479079  1
  Ni  Ni46  1  0.66911767  1.00290692  0.66937987  1
  Ni  Ni47  1  0.83534513  0.17223537  0.83539180  1
  Ni  Ni48  1  0.83916281  0.50240464  0.50480521  1
  Ni  Ni49  1  0.67122366  0.33681211  0.66888744  1
  Ni  Ni50  1  0.83712174  0.50103199  0.83747125  1
  Ni  Ni51  1  0.83474534  0.83725934  0.50346413  1
  Fe  Fe52  1  0.67027948  0.66931841  0.66999469  1
  Fe  Fe53  1  0.83455038  0.83435305  0.83424286  1
" 