5172,Ni40Fe57Cr2_11,-238.555403944982, 212.341626081835,Ni40Fe57Cr2,"# generated using pymatgen
 data_CrFe15Ni11
_symmetry_space_group_name_H-M   'P 1'
_cell_length_a   7.40728146
_cell_length_b   7.40728146
_cell_length_c   10.47547790
_cell_angle_alpha   90.00000000
_cell_angle_beta   90.00000000
_cell_angle_gamma   90.00000000
_symmetry_Int_Tables_number   1
_chemical_formula_structural   CrFe15Ni11
_chemical_formula_sum   'Cr2 Fe30 Ni22'
_cell_volume   574.76662108
_cell_formula_units_Z   2
loop_
 _symmetry_equiv_pos_site_id
 _symmetry_equiv_pos_as_xyz
  1  'x, y, z'
loop_
 _atom_site_type_symbol
 _atom_site_label
 _atom_site_symmetry_multiplicity
 _atom_site_fract_x
 _atom_site_fract_y
 _atom_site_fract_z
 _atom_site_occupancy
  Fe  Fe0  1  1.00193098  1.00400327  0.00458484  1
  Fe  Fe1  1  0.17051405  0.17108137  0.17239318  1
  Ni  Ni2  1  0.00609757  0.00450048  0.33750606  1
  Ni  Ni3  1  1.00363255  0.33778770  1.00280891  1
  Fe  Fe4  1  0.17156708  0.50360775  0.17089379  1
  Ni  Ni5  1  1.00384620  0.33721157  0.33873990  1
  Fe  Fe6  1  1.00374124  0.66998159  1.00301928  1
  Fe  Fe7  1  0.17107382  0.83741302  0.17252906  1
  Fe  Fe8  1  0.00499335  0.67070870  0.33845533  1
  Cr  Cr9  1  0.33854811  1.00383133  0.00425062  1
  Ni  Ni10  1  0.50418599  0.17161671  0.17130707  1
  Ni  Ni11  1  0.33577565  1.00341016  0.33847031  1
  Fe  Fe12  1  0.33768013  0.33931140  1.00386394  1
  Fe  Fe13  1  0.50416712  0.50417368  0.17125652  1
  Ni  Ni14  1  0.33716491  0.33743274  0.33717505  1
  Fe  Fe15  1  0.33768647  0.66875753  0.00406539  1
  Ni  Ni16  1  0.50418941  0.83659770  0.17128051  1
  Ni  Ni17  1  0.33748582  0.67126030  0.33749177  1
  Fe  Fe18  1  0.67187485  1.00399874  0.00415686  1
  Fe  Fe19  1  0.83777086  0.17142460  0.17070343  1
  Cr  Cr20  1  0.66987718  0.00427958  0.33746076  1
  Fe  Fe21  1  0.67064683  0.33750401  1.00402485  1
  Fe  Fe22  1  0.83636879  0.50361118  0.16993728  1
  Ni  Ni23  1  0.67109272  0.33891772  0.33741344  1
  Ni  Ni24  1  0.67049901  0.67079425  1.00324914  1
  Fe  Fe25  1  0.83720826  0.83706829  0.17014716  1
  Fe  Fe26  1  0.67000871  0.66893592  0.33692723  1
  Ni  Ni27  1  0.16971661  0.17049096  0.50284321  1
  Fe  Fe28  1  1.00390603  1.00347908  0.66927020  1
  Fe  Fe29  1  0.17065796  0.17256795  0.83654512  1
  Ni  Ni30  1  0.17126523  0.50396412  0.50334635  1
  Fe  Fe31  1  0.00425139  0.33800735  0.67075861  1
  Ni  Ni32  1  0.17009477  0.50411245  0.83801954  1
  Ni  Ni33  1  0.16971060  0.83764774  0.50294998  1
  Ni  Ni34  1  1.00388293  0.67029570  0.67118380  1
  Fe  Fe35  1  0.17066075  0.83556961  0.83592320  1
  Fe  Fe36  1  0.50265379  0.17172789  0.50431622  1
  Fe  Fe37  1  0.33700459  1.00357986  0.67074273  1
  Ni  Ni38  1  0.50514003  0.17093501  0.83687634  1
  Ni  Ni39  1  0.50357412  0.50394640  0.50305314  1
  Fe  Fe40  1  0.33697675  0.33822354  0.67047921  1
  Ni  Ni41  1  0.50368972  0.50412443  0.83929838  1
  Fe  Fe42  1  0.50237780  0.83655176  0.50446145  1
  Fe  Fe43  1  0.33687557  0.67029937  0.67034415  1
  Ni  Ni44  1  0.50515245  0.83704320  0.83672582  1
  Ni  Ni45  1  0.83886459  0.17055612  0.50408465  1
  Fe  Fe46  1  0.67119297  1.00358020  0.67073371  1
  Fe  Fe47  1  0.83670419  0.17183011  0.83721767  1
  Fe  Fe48  1  0.83839435  0.50382620  0.50431897  1
  Fe  Fe49  1  0.67087681  0.33788043  0.67049494  1
  Ni  Ni50  1  0.83831683  0.50412475  0.83715526  1
  Ni  Ni51  1  0.83888184  0.83759403  0.50411567  1
  Fe  Fe52  1  0.67097601  0.67064256  0.67153934  1
  Fe  Fe53  1  0.83642498  0.83602924  0.83694204  1
" 