4560,Ni40Fe49Cr9_7,-236.166603281186, 213.138796513367,Ni40Fe49Cr9,"# generated using pymatgen
 data_Cr3Fe13Ni11
_symmetry_space_group_name_H-M   'P 1'
_cell_length_a   7.41885736
_cell_length_b   7.41885736
_cell_length_c   10.49184869
_cell_angle_alpha   90.00000000
_cell_angle_beta   90.00000000
_cell_angle_gamma   90.00000000
_symmetry_Int_Tables_number   1
_chemical_formula_structural   Cr3Fe13Ni11
_chemical_formula_sum   'Cr6 Fe26 Ni22'
_cell_volume   577.46552358
_cell_formula_units_Z   2
loop_
 _symmetry_equiv_pos_site_id
 _symmetry_equiv_pos_as_xyz
  1  'x, y, z'
loop_
 _atom_site_type_symbol
 _atom_site_label
 _atom_site_symmetry_multiplicity
 _atom_site_fract_x
 _atom_site_fract_y
 _atom_site_fract_z
 _atom_site_occupancy
  Fe  Fe0  1  0.00467029  1.00225392  0.00359867  1
  Fe  Fe1  1  0.16965489  0.17018120  0.17036522  1
  Ni  Ni2  1  1.00315942  0.00460790  0.33677062  1
  Fe  Fe3  1  0.00488288  0.33777201  0.00495633  1
  Ni  Ni4  1  0.16999023  0.50311543  0.16978488  1
  Ni  Ni5  1  1.00267401  0.33505958  0.33640575  1
  Ni  Ni6  1  0.00389345  0.67064649  1.00260363  1
  Fe  Fe7  1  0.16831504  0.83629767  0.16905804  1
  Fe  Fe8  1  1.00265538  0.66959696  0.33573247  1
  Ni  Ni9  1  0.33457213  0.00458094  1.00267264  1
  Fe  Fe10  1  0.50355127  0.17194522  0.16953984  1
  Fe  Fe11  1  0.33568263  1.00310186  0.33682868  1
  Ni  Ni12  1  0.33774961  0.33646617  1.00246437  1
  Fe  Fe13  1  0.50323828  0.50135341  0.16941294  1
  Fe  Fe14  1  0.33579109  0.33739652  0.33556953  1
  Ni  Ni15  1  0.33410076  0.66869872  1.00245732  1
  Cr  Cr16  1  0.50299008  0.83588818  0.16944887  1
  Ni  Ni17  1  0.33649246  0.66927534  0.33755415  1
  Fe  Fe18  1  0.67010772  0.00407590  0.00399823  1
  Ni  Ni19  1  0.83676114  0.17046927  0.17089549  1
  Ni  Ni20  1  0.67218842  0.00379441  0.33710591  1
  Ni  Ni21  1  0.66862040  0.33717445  0.00376090  1
  Fe  Fe22  1  0.83668802  0.50268945  0.17010943  1
  Ni  Ni23  1  0.67137828  0.33714570  0.33614517  1
  Fe  Fe24  1  0.67043425  0.66800156  1.00259982  1
  Fe  Fe25  1  0.83845651  0.83660212  0.16980302  1
  Ni  Ni26  1  0.66898448  0.66879872  0.33747486  1
  Ni  Ni27  1  0.16640512  0.17131382  0.50243091  1
  Ni  Ni28  1  1.00214341  0.00341540  0.66954066  1
  Fe  Fe29  1  0.17115067  0.16974265  0.83683934  1
  Fe  Fe30  1  0.16946669  0.50181292  0.50161350  1
  Fe  Fe31  1  0.00348003  0.33634333  0.66807306  1
  Fe  Fe32  1  0.16942475  0.50368416  0.83842461  1
  Fe  Fe33  1  0.16861907  0.83791500  0.50211128  1
  Fe  Fe34  1  1.00107251  0.67143487  0.67113574  1
  Ni  Ni35  1  0.16752839  0.83583019  0.83860853  1
  Cr  Cr36  1  0.50515098  0.16901949  0.50256042  1
  Cr  Cr37  1  0.33482088  0.00405235  0.67006296  1
  Fe  Fe38  1  0.50248792  0.17165762  0.83772201  1
  Fe  Fe39  1  0.50430743  0.50401744  0.50268805  1
  Fe  Fe40  1  0.33628226  0.33681894  0.67116795  1
  Ni  Ni41  1  0.50283922  0.50188052  0.83745670  1
  Ni  Ni42  1  0.50485519  0.83441373  0.50207035  1
  Cr  Cr43  1  0.33679579  0.66856299  0.67000979  1
  Cr  Cr44  1  0.50440842  0.83570844  0.83806847  1
  Ni  Ni45  1  0.83875541  0.16994117  0.50311834  1
  Ni  Ni46  1  0.67316945  1.00263115  0.66929483  1
  Cr  Cr47  1  0.83675484  0.16912739  0.83549569  1
  Fe  Fe48  1  0.83597351  0.50256001  0.50290753  1
  Fe  Fe49  1  0.66998162  0.33760108  0.67011833  1
  Fe  Fe50  1  0.83613190  0.50604918  0.83672779  1
  Fe  Fe51  1  0.83587648  0.83810451  0.50392639  1
  Ni  Ni52  1  0.67179042  0.66891112  0.66969048  1
  Ni  Ni53  1  0.83802692  0.83584382  0.83640191  1
" 