8994,Ni40Fe57Cr2_0,-237.870158436017, 215.202662307393,Ni40Fe57Cr2,"# generated using pymatgen
 data_CrFe15Ni11
_symmetry_space_group_name_H-M   'P 1'
_cell_length_a   7.40569449
_cell_length_b   7.40569449
_cell_length_c   10.47323359
_cell_angle_alpha   90.00000000
_cell_angle_beta   90.00000000
_cell_angle_gamma   90.00000000
_symmetry_Int_Tables_number   1
_chemical_formula_structural   CrFe15Ni11
_chemical_formula_sum   'Cr2 Fe30 Ni22'
_cell_volume   574.39727907
_cell_formula_units_Z   2
loop_
 _symmetry_equiv_pos_site_id
 _symmetry_equiv_pos_as_xyz
  1  'x, y, z'
loop_
 _atom_site_type_symbol
 _atom_site_label
 _atom_site_symmetry_multiplicity
 _atom_site_fract_x
 _atom_site_fract_y
 _atom_site_fract_z
 _atom_site_occupancy
  Ni  Ni0  1  0.00464194  0.00455156  0.00490407  1
  Fe  Fe1  1  0.16983148  0.16817846  0.17084222  1
  Fe  Fe2  1  1.00393418  0.00445242  0.33612783  1
  Ni  Ni3  1  1.00280325  0.33597376  1.00324889  1
  Cr  Cr4  1  0.17076974  0.50465252  0.17231927  1
  Ni  Ni5  1  1.00245679  0.33733065  0.33867599  1
  Fe  Fe6  1  1.00158095  0.67227787  1.00368508  1
  Ni  Ni7  1  0.16946742  0.83869653  0.17009097  1
  Ni  Ni8  1  0.00419432  0.67022674  0.33692304  1
  Fe  Fe9  1  0.33814314  0.00467812  0.00456442  1
  Fe  Fe10  1  0.50438203  0.17000077  0.17040344  1
  Ni  Ni11  1  0.33835062  1.00307921  0.33626631  1
  Fe  Fe12  1  0.33898227  0.33590228  1.00304058  1
  Fe  Fe13  1  0.50620882  0.50515319  0.17135087  1
  Fe  Fe14  1  0.33808131  0.33727852  0.33853993  1
  Fe  Fe15  1  0.33879088  0.67184916  1.00332612  1
  Fe  Fe16  1  0.50370413  0.83727424  0.17043007  1
  Ni  Ni17  1  0.33843606  0.67247102  0.33694505  1
  Ni  Ni18  1  0.67054232  1.00409294  0.00449482  1
  Fe  Fe19  1  0.83821343  0.17067946  0.17043968  1
  Fe  Fe20  1  0.67099709  1.00385941  0.33735986  1
  Ni  Ni21  1  0.67118701  0.33762410  0.00426744  1
  Fe  Fe22  1  0.83638525  0.50447472  0.17087302  1
  Ni  Ni23  1  0.67158530  0.33741242  0.33652776  1
  Ni  Ni24  1  0.66941518  0.67071154  0.00435210  1
  Ni  Ni25  1  0.83837768  0.83804914  0.17153965  1
  Fe  Fe26  1  0.67080924  0.67029856  0.33693325  1
  Fe  Fe27  1  0.17077756  0.17293432  0.50404088  1
  Ni  Ni28  1  1.00304823  0.00496261  0.67134916  1
  Fe  Fe29  1  0.17037315  0.16993059  0.83754370  1
  Fe  Fe30  1  0.17081462  0.50302542  0.50401318  1
  Ni  Ni31  1  1.00359704  0.33747665  0.67050376  1
  Fe  Fe32  1  0.17091721  0.50464464  0.83714435  1
  Cr  Cr33  1  0.16945654  0.83696337  0.50432804  1
  Ni  Ni34  1  0.00532577  0.66998875  0.67224667  1
  Fe  Fe35  1  0.17105799  0.83785207  0.83720507  1
  Fe  Fe36  1  0.50452229  0.17104047  0.50447533  1
  Fe  Fe37  1  0.33818153  0.00513341  0.67151477  1
  Ni  Ni38  1  0.50447614  0.17116028  0.83690126  1
  Ni  Ni39  1  0.50408337  0.50280741  0.50416715  1
  Fe  Fe40  1  0.33733884  0.33743963  0.67084983  1
  Fe  Fe41  1  0.50488477  0.50468380  0.83710381  1
  Fe  Fe42  1  0.50512209  0.83703730  0.50455117  1
  Ni  Ni43  1  0.33788146  0.67064836  0.67165774  1
  Ni  Ni44  1  0.50500982  0.83838126  0.83688592  1
  Fe  Fe45  1  0.83712616  0.17172269  0.50458197  1
  Ni  Ni46  1  0.67036209  0.00489483  0.67074730  1
  Fe  Fe47  1  0.83655550  0.16996213  0.83740713  1
  Fe  Fe48  1  0.83770232  0.50362835  0.50397782  1
  Ni  Ni49  1  0.67102029  0.33633944  0.67163008  1
  Fe  Fe50  1  0.83662544  0.50400067  0.83757790  1
  Fe  Fe51  1  0.83580770  0.83707320  0.50465296  1
  Fe  Fe52  1  0.67160931  0.67112356  0.67146821  1
  Ni  Ni53  1  0.83773478  0.83759930  0.83668696  1
" 