3595,Ni40Fe17Cr42_11,-222.394784826096, 159.218991588621,Ni40Fe17Cr42,"# generated using pymatgen
 data_Cr8Fe3Ni7
_symmetry_space_group_name_H-M   'P 1'
_cell_length_a   7.49797842
_cell_length_b   7.49797842
_cell_length_c   10.60374277
_cell_angle_alpha   90.00000000
_cell_angle_beta   90.00000000
_cell_angle_gamma   90.00000000
_symmetry_Int_Tables_number   1
_chemical_formula_structural   Cr8Fe3Ni7
_chemical_formula_sum   'Cr24 Fe9 Ni21'
_cell_volume   596.13902968
_cell_formula_units_Z   3
loop_
 _symmetry_equiv_pos_site_id
 _symmetry_equiv_pos_as_xyz
  1  'x, y, z'
loop_
 _atom_site_type_symbol
 _atom_site_label
 _atom_site_symmetry_multiplicity
 _atom_site_fract_x
 _atom_site_fract_y
 _atom_site_fract_z
 _atom_site_occupancy
  Fe  Fe0  1  0.99586750  -0.00192951  0.99775301  1
  Fe  Fe1  1  0.16314436  0.16447556  0.16775977  1
  Fe  Fe2  1  -0.00197189  0.99788679  0.32971098  1
  Cr  Cr3  1  0.00047227  0.32957807  -0.00165343  1
  Ni  Ni4  1  0.16310073  0.49882526  0.16661103  1
  Fe  Fe5  1  -0.00005876  0.33234767  0.33037849  1
  Ni  Ni6  1  0.99778560  0.66522417  0.99779714  1
  Cr  Cr7  1  0.16286169  0.82783427  0.16744679  1
  Ni  Ni8  1  0.99781472  0.66242580  0.33125967  1
  Cr  Cr9  1  0.33266014  -0.00164369  -0.00034343  1
  Cr  Cr10  1  0.49949579  0.16551077  0.16606526  1
  Ni  Ni11  1  0.33002332  -0.00149985  0.33073248  1
  Cr  Cr12  1  0.32766407  0.33199204  0.99680512  1
  Cr  Cr13  1  0.49641601  0.49869642  0.16674653  1
  Ni  Ni14  1  0.32849798  0.33234413  0.33024616  1
  Cr  Cr15  1  0.33032214  0.66303156  0.99687145  1
  Ni  Ni16  1  0.49913761  0.83208186  0.16855786  1
  Ni  Ni17  1  0.33057749  0.66298784  0.33216275  1
  Ni  Ni18  1  0.66860971  0.99594705  0.99732439  1
  Ni  Ni19  1  0.83335741  0.16176541  0.16618295  1
  Cr  Cr20  1  0.66510476  0.99686597  0.33040567  1
  Cr  Cr21  1  0.66598270  0.32758514  -0.00163686  1
  Cr  Cr22  1  0.83235577  0.49981730  0.16781029  1
  Ni  Ni23  1  0.66552539  0.33253894  0.33209372  1
  Cr  Cr24  1  0.66316711  0.66936851  0.99745334  1
  Ni  Ni25  1  0.83265834  0.83299572  0.16329116  1
  Ni  Ni26  1  0.66534327  0.66433399  0.33284960  1
  Cr  Cr27  1  0.16660788  0.16534561  0.49758090  1
  Cr  Cr28  1  0.99677808  -0.00078307  0.66672203  1
  Ni  Ni29  1  0.16303305  0.16573088  0.82880715  1
  Ni  Ni30  1  0.16488204  0.49675821  0.49641799  1
  Fe  Fe31  1  0.00108934  0.33060868  0.66571071  1
  Ni  Ni32  1  0.16426735  0.49646335  0.83023594  1
  Cr  Cr33  1  0.16633796  0.82976686  0.49504618  1
  Cr  Cr34  1  -0.00181994  0.66106699  0.66442531  1
  Cr  Cr35  1  0.16399621  0.83127520  0.83160603  1
  Cr  Cr36  1  0.49692467  0.16468290  0.49964941  1
  Ni  Ni37  1  0.33231209  -0.00037212  0.66479144  1
  Cr  Cr38  1  0.49828331  0.16466489  0.82934194  1
  Fe  Fe39  1  0.49495767  0.49666343  0.49484197  1
  Ni  Ni40  1  0.32793275  0.33220064  0.66649822  1
  Ni  Ni41  1  0.49592524  0.49938067  0.82949613  1
  Fe  Fe42  1  0.49604080  0.83188309  0.49632070  1
  Cr  Cr43  1  0.33166947  0.66301188  0.66413730  1
  Ni  Ni44  1  0.49944701  0.83355095  0.82845231  1
  Cr  Cr45  1  0.83090181  0.16721574  0.49810866  1
  Ni  Ni46  1  0.66393509  0.99738682  0.66692274  1
  Ni  Ni47  1  0.83220046  0.16160647  0.83093154  1
  Fe  Fe48  1  0.83341031  0.49744796  0.49402714  1
  Cr  Cr49  1  0.66577969  0.33310920  0.66417049  1
  Cr  Cr50  1  0.83185034  0.49813531  0.83174487  1
  Cr  Cr51  1  0.83215131  0.83051214  0.49724847  1
  Cr  Cr52  1  0.66354324  0.66677366  0.66194367  1
  Fe  Fe53  1  0.83026658  0.83314552  0.83275795  1
" 