5476,Ni40Fe49Cr9_0,-235.464205965852, 204.021509647173,Ni40Fe49Cr9,"# generated using pymatgen
 data_Cr3Fe13Ni11
_symmetry_space_group_name_H-M   'P 1'
_cell_length_a   7.42031131
_cell_length_b   7.42031131
_cell_length_c   10.49390490
_cell_angle_alpha   90.00000000
_cell_angle_beta   90.00000000
_cell_angle_gamma   90.00000000
_symmetry_Int_Tables_number   1
_chemical_formula_structural   Cr3Fe13Ni11
_chemical_formula_sum   'Cr6 Fe26 Ni22'
_cell_volume   577.80510746
_cell_formula_units_Z   2
loop_
 _symmetry_equiv_pos_site_id
 _symmetry_equiv_pos_as_xyz
  1  'x, y, z'
loop_
 _atom_site_type_symbol
 _atom_site_label
 _atom_site_symmetry_multiplicity
 _atom_site_fract_x
 _atom_site_fract_y
 _atom_site_fract_z
 _atom_site_occupancy
  Fe  Fe0  1  0.00448005  0.00322505  1.00278335  1
  Ni  Ni1  1  0.17111618  0.16896533  0.17003472  1
  Fe  Fe2  1  0.00463115  0.00534345  0.33673939  1
  Fe  Fe3  1  0.00612962  0.33470955  1.00224491  1
  Fe  Fe4  1  0.17144134  0.50019140  0.17062913  1
  Ni  Ni5  1  0.00370472  0.33437673  0.33678607  1
  Fe  Fe6  1  0.00317394  0.67182834  1.00232050  1
  Fe  Fe7  1  0.17047521  0.83860992  0.17028685  1
  Cr  Cr8  1  0.00336904  0.66983130  0.33809344  1
  Ni  Ni9  1  0.33602405  0.00335233  0.00354147  1
  Ni  Ni10  1  0.50042856  0.17038623  0.16934221  1
  Ni  Ni11  1  0.33484594  0.00423443  0.33522131  1
  Fe  Fe12  1  0.33507189  0.33506208  0.00382991  1
  Ni  Ni13  1  0.50324242  0.50178643  0.17195416  1
  Ni  Ni14  1  0.33619157  0.33598481  0.33562762  1
  Cr  Cr15  1  0.33688002  0.66983048  0.00375454  1
  Fe  Fe16  1  0.50272899  0.83681172  0.17048961  1
  Ni  Ni17  1  0.33702160  0.66907884  0.33570615  1
  Fe  Fe18  1  0.66953305  1.00218102  0.00489863  1
  Fe  Fe19  1  0.83710375  0.17042441  0.16974163  1
  Cr  Cr20  1  0.67060143  0.00484460  0.33532722  1
  Fe  Fe21  1  0.66745310  0.33560691  0.00449766  1
  Cr  Cr22  1  0.83667732  0.50405551  0.16991382  1
  Ni  Ni23  1  0.66981181  0.33676031  0.33809684  1
  Fe  Fe24  1  0.66983899  0.67166226  1.00244714  1
  Ni  Ni25  1  0.83729729  0.83666634  0.16906276  1
  Ni  Ni26  1  0.66871974  0.66852642  0.33525062  1
  Fe  Fe27  1  0.17009098  0.17127714  0.50362288  1
  Ni  Ni28  1  0.00352492  0.00443629  0.66939518  1
  Ni  Ni29  1  0.16991142  0.17033737  0.83564059  1
  Ni  Ni30  1  0.16931907  0.50228092  0.50288150  1
  Ni  Ni31  1  0.00379558  0.33590739  0.67042693  1
  Ni  Ni32  1  0.16761566  0.50269682  0.83692830  1
  Fe  Fe33  1  0.16922572  0.83846766  0.50396235  1
  Fe  Fe34  1  0.00446904  0.66901802  0.66955673  1
  Fe  Fe35  1  0.16959970  0.83897919  0.83539183  1
  Ni  Ni36  1  0.50115583  0.17027580  0.50382851  1
  Ni  Ni37  1  0.33396515  0.00379858  0.67046255  1
  Cr  Cr38  1  0.50161939  0.16796456  0.83513000  1
  Fe  Fe39  1  0.50360308  0.50086361  0.50211489  1
  Ni  Ni40  1  0.33452315  0.33709771  0.66984212  1
  Fe  Fe41  1  0.50250015  0.50284085  0.83582504  1
  Cr  Cr42  1  0.50163840  0.83697237  0.50303865  1
  Fe  Fe43  1  0.33386786  0.66788746  0.67041331  1
  Fe  Fe44  1  0.50198982  0.83565495  0.83448830  1
  Ni  Ni45  1  0.83752602  0.17164184  0.50334343  1
  Fe  Fe46  1  0.67188165  0.00448875  0.66883599  1
  Fe  Fe47  1  0.83969278  0.17054437  0.83550603  1
  Ni  Ni48  1  0.83753321  0.50278759  0.50443028  1
  Fe  Fe49  1  0.67036733  0.33598479  0.66753368  1
  Fe  Fe50  1  0.83705114  0.50175711  0.83587628  1
  Fe  Fe51  1  0.83706806  0.83605765  0.50485520  1
  Ni  Ni52  1  0.67080064  0.66869905  0.67144283  1
  Fe  Fe53  1  0.83772901  0.83700351  0.83666245  1
" 