8598,Ni40Fe57Cr2_4,-237.672919643323, 213.778114978725,Ni40Fe57Cr2,"# generated using pymatgen
 data_CrFe15Ni11
_symmetry_space_group_name_H-M   'P 1'
_cell_length_a   7.40079956
_cell_length_b   7.40079956
_cell_length_c   10.46631111
_cell_angle_alpha   90.00000000
_cell_angle_beta   90.00000000
_cell_angle_gamma   90.00000000
_symmetry_Int_Tables_number   1
_chemical_formula_structural   CrFe15Ni11
_chemical_formula_sum   'Cr2 Fe30 Ni22'
_cell_volume   573.25905655
_cell_formula_units_Z   2
loop_
 _symmetry_equiv_pos_site_id
 _symmetry_equiv_pos_as_xyz
  1  'x, y, z'
loop_
 _atom_site_type_symbol
 _atom_site_label
 _atom_site_symmetry_multiplicity
 _atom_site_fract_x
 _atom_site_fract_y
 _atom_site_fract_z
 _atom_site_occupancy
  Ni  Ni0  1  0.00461611  0.00535246  1.00412265  1
  Ni  Ni1  1  0.17170729  0.16927654  0.17186249  1
  Ni  Ni2  1  0.00471215  0.00506811  0.33813301  1
  Fe  Fe3  1  1.00366121  0.33590871  1.00438078  1
  Cr  Cr4  1  0.17058083  0.50475680  0.17062213  1
  Fe  Fe5  1  1.00335530  0.33762459  0.33890100  1
  Fe  Fe6  1  1.00319466  0.67363995  0.00472471  1
  Fe  Fe7  1  0.17091331  0.83887563  0.17194400  1
  Ni  Ni8  1  1.00438445  0.67156982  0.33815775  1
  Fe  Fe9  1  0.33797594  1.00435066  1.00410392  1
  Fe  Fe10  1  0.50463148  0.17180332  0.17149598  1
  Fe  Fe11  1  0.33763558  1.00332132  0.33842666  1
  Fe  Fe12  1  0.33903031  0.33649621  1.00416082  1
  Ni  Ni13  1  0.50636618  0.50459526  0.17067711  1
  Fe  Fe14  1  0.33860737  0.33752631  0.33828171  1
  Fe  Fe15  1  0.33905529  0.67255648  1.00426655  1
  Fe  Fe16  1  0.50473642  0.83703591  0.17120259  1
  Ni  Ni17  1  0.33842985  0.67073566  0.33840396  1
  Ni  Ni18  1  0.67192668  1.00401383  1.00405405  1
  Fe  Fe19  1  0.83813570  0.17154466  0.17145509  1
  Ni  Ni20  1  0.67163902  1.00439394  0.33769592  1
  Fe  Fe21  1  0.67074082  0.33700954  0.00520131  1
  Ni  Ni22  1  0.83587196  0.50527913  0.17151805  1
  Fe  Fe23  1  0.67147429  0.33822695  0.33814397  1
  Ni  Ni24  1  0.66990202  0.67151617  0.00590156  1
  Fe  Fe25  1  0.83780040  0.83753237  0.17116229  1
  Ni  Ni26  1  0.67062776  0.67088366  0.33764064  1
  Fe  Fe27  1  0.17053624  0.17055750  0.50425887  1
  Fe  Fe28  1  1.00331037  1.00446633  0.67096459  1
  Fe  Fe29  1  0.17035379  0.17081275  0.83836384  1
  Ni  Ni30  1  0.17144659  0.50524242  0.50486877  1
  Ni  Ni31  1  0.00566417  0.33708458  0.67026114  1
  Fe  Fe32  1  0.17198480  0.50469317  0.83730089  1
  Ni  Ni33  1  0.17059816  0.83683364  0.50429810  1
  Fe  Fe34  1  1.00443120  0.67219903  0.66974312  1
  Fe  Fe35  1  0.17068144  0.83795985  0.83746075  1
  Ni  Ni36  1  0.50513083  0.17103531  0.50439219  1
  Ni  Ni37  1  0.33759042  0.00455944  0.67094323  1
  Fe  Fe38  1  0.50537748  0.17044944  0.83689661  1
  Fe  Fe39  1  0.50482087  0.50486359  0.50402117  1
  Fe  Fe40  1  0.33883030  0.33740874  0.67095757  1
  Fe  Fe41  1  0.50392120  0.50527549  0.83827734  1
  Fe  Fe42  1  0.50471995  0.83836261  0.50450584  1
  Fe  Fe43  1  0.33813781  0.67096450  0.67047349  1
  Fe  Fe44  1  0.50557475  0.83770316  0.83771161  1
  Ni  Ni45  1  0.83625110  0.17021649  0.50530225  1
  Ni  Ni46  1  0.67065988  1.00422958  0.67169842  1
  Fe  Fe47  1  0.83774712  0.16929834  0.83715205  1
  Fe  Fe48  1  0.83817064  0.50453182  0.50453789  1
  Ni  Ni49  1  0.67119664  0.33747747  0.67065930  1
  Cr  Cr50  1  0.83736979  0.50551647  0.83747590  1
  Ni  Ni51  1  0.83796916  0.83822863  0.50491248  1
  Ni  Ni52  1  0.67008306  0.67173439  0.66988028  1
  Ni  Ni53  1  0.83741958  0.83909100  0.83773131  1
" 