2827,Ni40Fe57Cr2_8,-238.593836459248, 216.934184092668,Ni40Fe57Cr2,"# generated using pymatgen
 data_CrFe15Ni11
_symmetry_space_group_name_H-M   'P 1'
_cell_length_a   7.40454440
_cell_length_b   7.40454440
_cell_length_c   10.47160711
_cell_angle_alpha   90.00000000
_cell_angle_beta   90.00000000
_cell_angle_gamma   90.00000000
_symmetry_Int_Tables_number   1
_chemical_formula_structural   CrFe15Ni11
_chemical_formula_sum   'Cr2 Fe30 Ni22'
_cell_volume   574.12971101
_cell_formula_units_Z   2
loop_
 _symmetry_equiv_pos_site_id
 _symmetry_equiv_pos_as_xyz
  1  'x, y, z'
loop_
 _atom_site_type_symbol
 _atom_site_label
 _atom_site_symmetry_multiplicity
 _atom_site_fract_x
 _atom_site_fract_y
 _atom_site_fract_z
 _atom_site_occupancy
  Ni  Ni0  1  1.00375233  1.00280371  1.00380708  1
  Ni  Ni1  1  0.17000609  0.17244564  0.17107459  1
  Fe  Fe2  1  1.00166833  0.00577848  0.33571941  1
  Fe  Fe3  1  0.00463581  0.33643060  1.00341637  1
  Fe  Fe4  1  0.17151363  0.50326918  0.17007933  1
  Fe  Fe5  1  0.00443640  0.33614705  0.33844064  1
  Ni  Ni6  1  0.00480332  0.67117602  1.00408117  1
  Fe  Fe7  1  0.17093855  0.84006706  0.17095402  1
  Fe  Fe8  1  1.00253713  0.67049306  0.33555307  1
  Fe  Fe9  1  0.33705734  0.00485042  0.00563741  1
  Ni  Ni10  1  0.50465656  0.16873602  0.16990812  1
  Ni  Ni11  1  0.33827610  0.00505185  0.33635549  1
  Ni  Ni12  1  0.33794992  0.33775652  1.00415898  1
  Fe  Fe13  1  0.50385421  0.50357310  0.16958577  1
  Fe  Fe14  1  0.33733425  0.33653142  0.33651566  1
  Fe  Fe15  1  0.33695202  0.67209061  1.00385955  1
  Ni  Ni16  1  0.50439336  0.83689793  0.17071949  1
  Fe  Fe17  1  0.34113502  0.67090511  0.33679701  1
  Ni  Ni18  1  0.67084602  1.00396292  0.00510107  1
  Ni  Ni19  1  0.83771228  0.17062249  0.16908129  1
  Ni  Ni20  1  0.66979752  1.00246578  0.33765829  1
  Fe  Fe21  1  0.67160308  0.33620456  1.00405237  1
  Fe  Fe22  1  0.83748236  0.50456425  0.17016071  1
  Cr  Cr23  1  0.67013700  0.33595708  0.33729810  1
  Fe  Fe24  1  0.67171183  0.67214577  0.00499626  1
  Fe  Fe25  1  0.83666492  0.83938113  0.16963052  1
  Ni  Ni26  1  0.67133098  0.67262308  0.33815019  1
  Fe  Fe27  1  0.17183961  0.17198142  0.50319816  1
  Fe  Fe28  1  1.00153521  0.00703377  0.67276018  1
  Fe  Fe29  1  0.17022427  0.17153935  0.83900017  1
  Ni  Ni30  1  0.17036185  0.50378474  0.50292018  1
  Ni  Ni31  1  0.00502250  0.33848657  0.67136602  1
  Ni  Ni32  1  0.17102108  0.50565092  0.83829492  1
  Cr  Cr33  1  0.17107810  0.83562174  0.50435807  1
  Fe  Fe34  1  1.00251641  0.66905116  0.67299949  1
  Fe  Fe35  1  0.16996015  0.83892615  0.83744033  1
  Ni  Ni36  1  0.50536711  0.16962985  0.50390695  1
  Fe  Fe37  1  0.33960618  0.00690787  0.67062642  1
  Ni  Ni38  1  0.50593152  0.17008828  0.83878629  1
  Fe  Fe39  1  0.50341982  0.50452667  0.50543763  1
  Fe  Fe40  1  0.33822493  0.33696516  0.67201216  1
  Fe  Fe41  1  0.50540958  0.50296803  0.83803431  1
  Ni  Ni42  1  0.50481814  0.83805578  0.50466230  1
  Fe  Fe43  1  0.33907360  0.66859876  0.67174436  1
  Fe  Fe44  1  0.50573112  0.83874945  0.83734821  1
  Ni  Ni45  1  0.83708372  0.17059127  0.50509138  1
  Ni  Ni46  1  0.67005633  0.00448929  0.66963993  1
  Ni  Ni47  1  0.83571804  0.16998220  0.83856607  1
  Fe  Fe48  1  0.83771826  0.50465588  0.50534038  1
  Ni  Ni49  1  0.67142933  0.33655662  0.67149888  1
  Fe  Fe50  1  0.83749562  0.50341340  0.83759637  1
  Fe  Fe51  1  0.83588143  0.83808545  0.50499368  1
  Fe  Fe52  1  0.67151741  0.67059032  0.67033196  1
  Ni  Ni53  1  0.83668464  0.83805134  0.83716556  1
" 