8310,Ni40Fe6Cr53_14,-217.333048376209, 143.712943057499,Ni40Fe6Cr53,"# generated using pymatgen
 data_Cr10FeNi7
_symmetry_space_group_name_H-M   'P 1'
_cell_length_a   7.53202206
_cell_length_b   7.53202206
_cell_length_c   10.65188775
_cell_angle_alpha   90.00000000
_cell_angle_beta   90.00000000
_cell_angle_gamma   90.00000000
_symmetry_Int_Tables_number   1
_chemical_formula_structural   Cr10FeNi7
_chemical_formula_sum   'Cr30 Fe3 Ni21'
_cell_volume   604.29603936
_cell_formula_units_Z   3
loop_
 _symmetry_equiv_pos_site_id
 _symmetry_equiv_pos_as_xyz
  1  'x, y, z'
loop_
 _atom_site_type_symbol
 _atom_site_label
 _atom_site_symmetry_multiplicity
 _atom_site_fract_x
 _atom_site_fract_y
 _atom_site_fract_z
 _atom_site_occupancy
  Cr  Cr0  1  0.99501567  -0.00366731  0.99524351  1
  Cr  Cr1  1  0.16206271  0.15972753  0.16299956  1
  Ni  Ni2  1  -0.00373521  0.99274947  0.32800398  1
  Ni  Ni3  1  -0.00387175  0.32631894  0.98994404  1
  Cr  Cr4  1  0.16125971  0.49758243  0.16257416  1
  Cr  Cr5  1  -0.00331903  0.32828177  0.33408047  1
  Cr  Cr6  1  -0.00286472  0.66476901  -0.00359484  1
  Ni  Ni7  1  0.16357177  0.82967062  0.16569786  1
  Ni  Ni8  1  -0.00244625  0.66411629  0.32899710  1
  Fe  Fe9  1  0.32957109  0.99540007  -0.00320731  1
  Cr  Cr10  1  0.49530081  0.16273856  0.16422100  1
  Ni  Ni11  1  0.32841155  0.99318414  0.32868540  1
  Cr  Cr12  1  0.32819651  0.33012727  -0.00395641  1
  Ni  Ni13  1  0.49568569  0.49853960  0.16185805  1
  Cr  Cr14  1  0.32835908  0.33182189  0.33223159  1
  Cr  Cr15  1  0.33033389  0.66367421  -0.00364056  1
  Ni  Ni16  1  0.49295613  0.82976527  0.16484345  1
  Ni  Ni17  1  0.32781863  0.66454580  0.32727884  1
  Cr  Cr18  1  0.66332215  0.99410120  -0.00297804  1
  Cr  Cr19  1  0.82975866  0.16274020  0.16173465  1
  Ni  Ni20  1  0.66210992  0.99195353  0.32694323  1
  Ni  Ni21  1  0.66294265  0.32751328  -0.00418432  1
  Cr  Cr22  1  0.83004573  0.49492424  0.15936628  1
  Cr  Cr23  1  0.66150494  0.32877796  0.32803225  1
  Cr  Cr24  1  0.66019374  0.66557896  -0.00241333  1
  Ni  Ni25  1  0.83059091  0.82968566  0.16666756  1
  Cr  Cr26  1  0.66238488  0.66283514  0.32721563  1
  Ni  Ni27  1  0.16106085  0.16184633  0.49526084  1
  Cr  Cr28  1  0.99486833  -0.00010370  0.66319410  1
  Ni  Ni29  1  0.16116450  0.16401123  0.82867621  1
  Ni  Ni30  1  0.15946858  0.49609601  0.49463120  1
  Ni  Ni31  1  0.99478549  0.32803169  0.66266679  1
  Ni  Ni32  1  0.16098065  0.49203270  0.82915331  1
  Cr  Cr33  1  0.16338025  0.83027493  0.49116399  1
  Cr  Cr34  1  -0.00160735  0.65991526  0.66128872  1
  Cr  Cr35  1  0.16588131  0.83100356  0.82983010  1
  Cr  Cr36  1  0.49486167  0.15896928  0.49499088  1
  Fe  Fe37  1  0.32757622  -0.00168479  0.66250169  1
  Cr  Cr38  1  0.49539239  0.16099482  0.82852779  1
  Cr  Cr39  1  0.49814820  0.49692482  0.49615369  1
  Cr  Cr40  1  0.32431300  0.32926777  0.65917197  1
  Cr  Cr41  1  0.49814152  0.49590710  0.82887043  1
  Cr  Cr42  1  0.49512701  0.83113223  0.49882335  1
  Cr  Cr43  1  0.32911501  0.66122742  0.66376755  1
  Ni  Ni44  1  0.49505363  0.83195669  0.82576262  1
  Cr  Cr45  1  0.82728860  0.16122306  0.49517243  1
  Ni  Ni46  1  0.66115469  -0.00342207  0.66466779  1
  Ni  Ni47  1  0.82933140  0.16439275  0.82852265  1
  Ni  Ni48  1  0.83205636  0.49442563  0.49836498  1
  Ni  Ni49  1  0.66443381  0.32545767  0.66223862  1
  Cr  Cr50  1  0.83000854  0.49274375  0.82899028  1
  Cr  Cr51  1  0.82903177  0.82761668  0.49476462  1
  Fe  Fe52  1  0.66376384  0.66067854  0.66206651  1
  Cr  Cr53  1  0.82714634  0.82871137  0.82521954  1
" 