4234,Ni40Fe6Cr53_16,-217.58354068714, 148.476665402836,Ni40Fe6Cr53,"# generated using pymatgen
 data_Cr10FeNi7
_symmetry_space_group_name_H-M   'P 1'
_cell_length_a   7.52482556
_cell_length_b   7.52482556
_cell_length_c   10.64171036
_cell_angle_alpha   90.00000000
_cell_angle_beta   90.00000000
_cell_angle_gamma   90.00000000
_symmetry_Int_Tables_number   1
_chemical_formula_structural   Cr10FeNi7
_chemical_formula_sum   'Cr30 Fe3 Ni21'
_cell_volume   602.56556236
_cell_formula_units_Z   3
loop_
 _symmetry_equiv_pos_site_id
 _symmetry_equiv_pos_as_xyz
  1  'x, y, z'
loop_
 _atom_site_type_symbol
 _atom_site_label
 _atom_site_symmetry_multiplicity
 _atom_site_fract_x
 _atom_site_fract_y
 _atom_site_fract_z
 _atom_site_occupancy
  Ni  Ni0  1  0.98956803  0.99491322  -0.00383572  1
  Cr  Cr1  1  0.15949088  0.16498935  0.16494013  1
  Ni  Ni2  1  0.99117528  0.99517768  0.33110651  1
  Ni  Ni3  1  0.99214196  0.32978106  0.99337021  1
  Cr  Cr4  1  0.16022603  0.49360216  0.16289438  1
  Ni  Ni5  1  0.99356462  0.32851203  0.33315087  1
  Ni  Ni6  1  0.98993214  0.66430290  0.99309712  1
  Cr  Cr7  1  0.15480959  0.82773234  0.16025601  1
  Cr  Cr8  1  0.99316055  0.66483336  0.33265640  1
  Cr  Cr9  1  0.32771575  0.99398287  0.00021817  1
  Cr  Cr10  1  0.49968645  0.16149535  0.16626695  1
  Cr  Cr11  1  0.32820713  0.99208754  0.32743846  1
  Cr  Cr12  1  0.33126221  0.32944294  0.99589960  1
  Cr  Cr13  1  0.50062057  0.49754883  0.16382035  1
  Ni  Ni14  1  0.33007089  0.33065319  0.33108777  1
  Cr  Cr15  1  0.33310750  0.66375840  -0.00274011  1
  Ni  Ni16  1  0.50169027  0.82761827  0.16643690  1
  Cr  Cr17  1  0.33095372  0.66242908  0.33072974  1
  Cr  Cr18  1  0.66317822  0.99468182  0.99572870  1
  Cr  Cr19  1  0.83058457  0.16232645  0.16505086  1
  Ni  Ni20  1  0.66642368  0.99183457  0.33337000  1
  Cr  Cr21  1  0.66528667  0.33370344  0.98992119  1
  Cr  Cr22  1  0.83174483  0.50113457  0.16220892  1
  Cr  Cr23  1  0.66507264  0.33164356  0.33334668  1
  Ni  Ni24  1  0.66718240  0.66612341  -0.00352709  1
  Ni  Ni25  1  0.82512014  0.83072437  0.16347711  1
  Fe  Fe26  1  0.66417695  0.66540033  0.33178609  1
  Cr  Cr27  1  0.16149569  0.16219364  0.49197970  1
  Cr  Cr28  1  0.99360979  0.99493463  0.66083844  1
  Cr  Cr29  1  0.16113397  0.16172307  0.83218406  1
  Cr  Cr30  1  0.16264643  0.49766448  0.49737601  1
  Cr  Cr31  1  0.99127558  0.33099801  0.66205667  1
  Cr  Cr32  1  0.16161200  0.49933226  0.82846680  1
  Ni  Ni33  1  0.16072842  0.82791242  0.49707912  1
  Ni  Ni34  1  0.99535266  0.66575836  0.66177230  1
  Cr  Cr35  1  0.16022345  0.82776966  0.82846036  1
  Cr  Cr36  1  0.49869046  0.16156429  0.49600474  1
  Cr  Cr37  1  0.32844615  0.99212703  0.66015011  1
  Cr  Cr38  1  0.49855184  0.16046376  0.82702051  1
  Ni  Ni39  1  0.49760278  0.49813436  0.49601953  1
  Cr  Cr40  1  0.33246042  0.33213109  0.66352703  1
  Ni  Ni41  1  0.49886543  0.50037408  0.82870202  1
  Fe  Fe42  1  0.49844382  0.82735103  0.49522702  1
  Ni  Ni43  1  0.33109342  0.66435704  0.65958342  1
  Cr  Cr44  1  0.49968606  0.82764078  0.82680167  1
  Ni  Ni45  1  0.82836182  0.16014818  0.49497681  1
  Fe  Fe46  1  0.66650822  0.99355940  0.66067257  1
  Ni  Ni47  1  0.83068821  0.16060713  0.82890845  1
  Ni  Ni48  1  0.82810176  0.49762328  0.49606635  1
  Cr  Cr49  1  0.66562678  0.32904146  0.66487332  1
  Ni  Ni50  1  0.82947741  0.49958466  0.82981347  1
  Ni  Ni51  1  0.82989694  0.82957089  0.49572661  1
  Cr  Cr52  1  0.66583837  0.66090624  0.66053690  1
  Ni  Ni53  1  0.83011404  0.82878131  0.82970544  1
" 