569,Ni40Fe5Cr53_13,-217.055862990916, 134.991014621613,Ni40Fe5Cr53,"# generated using pymatgen
 data_Cr10FeNi7
_symmetry_space_group_name_H-M   'P 1'
_cell_length_a   7.53038715
_cell_length_b   7.53038715
_cell_length_c   10.64957563
_cell_angle_alpha   90.00000000
_cell_angle_beta   90.00000000
_cell_angle_gamma   90.00000000
_symmetry_Int_Tables_number   1
_chemical_formula_structural   Cr10FeNi7
_chemical_formula_sum   'Cr30 Fe3 Ni21'
_cell_volume   603.90261625
_cell_formula_units_Z   3
loop_
 _symmetry_equiv_pos_site_id
 _symmetry_equiv_pos_as_xyz
  1  'x, y, z'
loop_
 _atom_site_type_symbol
 _atom_site_label
 _atom_site_symmetry_multiplicity
 _atom_site_fract_x
 _atom_site_fract_y
 _atom_site_fract_z
 _atom_site_occupancy
  Cr  Cr0  1  0.99579003  -0.00219812  0.99481236  1
  Cr  Cr1  1  0.16204645  0.16563858  0.16092488  1
  Cr  Cr2  1  -0.00418794  -0.00230120  0.33108048  1
  Ni  Ni3  1  0.99564000  0.33130641  -0.00417811  1
  Cr  Cr4  1  0.16128888  0.49426461  0.15959263  1
  Ni  Ni5  1  0.99157288  0.32914507  0.33122633  1
  Ni  Ni6  1  0.99368299  0.65775164  -0.00410333  1
  Cr  Cr7  1  0.16263763  0.82749698  0.15893240  1
  Cr  Cr8  1  -0.00263809  0.65918657  0.32999098  1
  Ni  Ni9  1  0.33019078  -0.00076088  0.99465444  1
  Ni  Ni10  1  0.49718564  0.16575045  0.16102968  1
  Cr  Cr11  1  0.32961622  0.99449307  0.32903324  1
  Ni  Ni12  1  0.32802108  0.32552853  0.99409183  1
  Cr  Cr13  1  0.49556925  0.49380056  0.16140175  1
  Cr  Cr14  1  0.32919807  0.32962458  0.33188989  1
  Ni  Ni15  1  0.32874646  0.66254046  -0.00404077  1
  Cr  Cr16  1  0.49480376  0.82820370  0.16007540  1
  Cr  Cr17  1  0.32769193  0.66318910  0.33542752  1
  Cr  Cr18  1  0.66012328  -0.00187833  -0.00192444  1
  Ni  Ni19  1  0.82908501  0.16839829  0.16509223  1
  Cr  Cr20  1  0.66214083  -0.00028009  0.32572023  1
  Cr  Cr21  1  0.66340913  0.32758840  0.99533250  1
  Fe  Fe22  1  0.82944339  0.49207069  0.16166662  1
  Ni  Ni23  1  0.66691498  0.32894600  0.32932005  1
  Ni  Ni24  1  0.66495479  0.66001460  0.99480315  1
  Cr  Cr25  1  0.82982889  0.82733010  0.15974029  1
  Cr  Cr26  1  0.66195804  0.66013518  0.33098227  1
  Ni  Ni27  1  0.15937984  0.16089330  0.49723224  1
  Fe  Fe28  1  -0.00033874  -0.00262187  0.66064100  1
  Ni  Ni29  1  0.16547104  0.16203717  0.83046316  1
  Fe  Fe30  1  0.16051461  0.49298632  0.49502030  1
  Cr  Cr31  1  -0.00383520  0.32937196  0.66214913  1
  Cr  Cr32  1  0.16200224  0.49338924  0.83475797  1
  Ni  Ni33  1  0.16382698  0.83278793  0.49773659  1
  Cr  Cr34  1  0.99508292  0.65985831  0.66145020  1
  Cr  Cr35  1  0.16252837  0.83125481  0.83076038  1
  Cr  Cr36  1  0.49714623  0.16406917  0.49503734  1
  Ni  Ni37  1  0.32651536  -0.00337727  0.66176658  1
  Ni  Ni38  1  0.49011159  0.16163272  0.83112869  1
  Ni  Ni39  1  0.49986338  0.49733961  0.49592552  1
  Cr  Cr40  1  0.32790736  0.32663126  0.66321827  1
  Cr  Cr41  1  0.49706652  0.49610719  0.82976592  1
  Ni  Ni42  1  0.49370888  0.82680346  0.49801559  1
  Cr  Cr43  1  0.32937250  0.66307046  0.65609682  1
  Cr  Cr44  1  0.49581795  0.82836659  0.82926869  1
  Ni  Ni45  1  0.83327524  0.16726241  0.49402734  1
  Cr  Cr46  1  0.65978651  -0.00323755  0.66285430  1
  Cr  Cr47  1  0.83231879  0.16368788  0.82647231  1
  Ni  Ni48  1  0.82696769  0.49313474  0.49393724  1
  Cr  Cr49  1  0.66364689  0.33199365  0.66305187  1
  Ni  Ni50  1  0.82928901  0.49754196  0.83249161  1
  Cr  Cr51  1  0.82842731  0.83106762  0.49883793  1
  Ni  Ni52  1  0.66357505  0.66075742  0.66030440  1
  Cr  Cr53  1  0.82875513  0.82510436  0.82791192  1
" 