5340,Ni40Fe49Cr9_2,-236.444077770607, 210.875269318855,Ni40Fe49Cr9,"# generated using pymatgen
 data_Cr3Fe13Ni11
_symmetry_space_group_name_H-M   'P 1'
_cell_length_a   7.42566755
_cell_length_b   7.42566755
_cell_length_c   10.50147976
_cell_angle_alpha   90.00000000
_cell_angle_beta   90.00000000
_cell_angle_gamma   90.00000000
_symmetry_Int_Tables_number   1
_chemical_formula_structural   Cr3Fe13Ni11
_chemical_formula_sum   'Cr6 Fe26 Ni22'
_cell_volume   579.05724992
_cell_formula_units_Z   2
loop_
 _symmetry_equiv_pos_site_id
 _symmetry_equiv_pos_as_xyz
  1  'x, y, z'
loop_
 _atom_site_type_symbol
 _atom_site_label
 _atom_site_symmetry_multiplicity
 _atom_site_fract_x
 _atom_site_fract_y
 _atom_site_fract_z
 _atom_site_occupancy
  Cr  Cr0  1  0.00546217  0.00578457  0.00384276  1
  Ni  Ni1  1  0.17335452  0.17023418  0.17122274  1
  Fe  Fe2  1  1.00206154  1.00080950  0.33652905  1
  Cr  Cr3  1  1.00169197  0.33513064  1.00200831  1
  Ni  Ni4  1  0.16929943  0.50372623  0.16931609  1
  Cr  Cr5  1  1.00188157  0.33422352  0.33588940  1
  Fe  Fe6  1  0.00318514  0.66965620  1.00273120  1
  Fe  Fe7  1  0.17285298  0.83669611  0.17064870  1
  Fe  Fe8  1  0.00283545  0.67014679  0.33668946  1
  Ni  Ni9  1  0.33714425  1.00216860  1.00214283  1
  Ni  Ni10  1  0.50146699  0.16787532  0.17069099  1
  Ni  Ni11  1  0.33598656  1.00136204  0.33646166  1
  Fe  Fe12  1  0.33774054  0.33448409  1.00257203  1
  Fe  Fe13  1  0.50143854  0.50232182  0.17026122  1
  Fe  Fe14  1  0.33905085  0.33706663  0.33601613  1
  Fe  Fe15  1  0.33606467  0.67012210  0.00408616  1
  Ni  Ni16  1  0.50406611  0.83727258  0.16832540  1
  Ni  Ni17  1  0.33869044  0.67178942  0.33492762  1
  Fe  Fe18  1  0.66689405  0.00335051  1.00247384  1
  Fe  Fe19  1  0.83314690  0.16835133  0.17152930  1
  Fe  Fe20  1  0.66736341  1.00239992  0.33712243  1
  Fe  Fe21  1  0.66686554  0.33478361  0.00319798  1
  Fe  Fe22  1  0.83324988  0.50437877  0.16947073  1
  Ni  Ni23  1  0.67022779  0.33721455  0.33589369  1
  Ni  Ni24  1  0.66691684  0.66785491  0.00381916  1
  Fe  Fe25  1  0.83498736  0.83520226  0.16965272  1
  Ni  Ni26  1  0.66796315  0.66961570  0.33639017  1
  Fe  Fe27  1  0.17112861  0.16708833  0.50293842  1
  Ni  Ni28  1  0.00376669  0.00372547  0.66846486  1
  Ni  Ni29  1  0.17396865  0.16888956  0.83441067  1
  Fe  Fe30  1  0.17046918  0.50426181  0.50149407  1
  Cr  Cr31  1  1.00264917  0.33582569  0.67076283  1
  Fe  Fe32  1  0.17067285  0.50287340  0.83698007  1
  Fe  Fe33  1  0.16844517  0.83704523  0.50259898  1
  Ni  Ni34  1  1.00237580  0.66873250  0.66865361  1
  Fe  Fe35  1  0.17021029  0.83757755  0.83530663  1
  Fe  Fe36  1  0.50390636  0.16930423  0.50267270  1
  Ni  Ni37  1  0.33677999  0.00356189  0.66976190  1
  Ni  Ni38  1  0.50059921  0.16908677  0.83494645  1
  Fe  Fe39  1  0.50490326  0.50225923  0.50144719  1
  Ni  Ni40  1  0.33659695  0.33512900  0.66812167  1
  Fe  Fe41  1  0.50482916  0.50057258  0.83660645  1
  Ni  Ni42  1  0.50293202  0.83747498  0.50343237  1
  Cr  Cr43  1  0.33917307  0.67019815  0.67053083  1
  Fe  Fe44  1  0.50307331  0.83753222  0.83698673  1
  Ni  Ni45  1  0.83467328  0.16896274  0.50408083  1
  Ni  Ni46  1  0.66762106  1.00236764  0.66919874  1
  Fe  Fe47  1  0.83301146  0.16952184  0.83419591  1
  Ni  Ni48  1  0.83567380  0.50447582  0.50328594  1
  Fe  Fe49  1  0.66764870  0.33609099  0.66869101  1
  Ni  Ni50  1  0.83453379  0.50468009  0.83605944  1
  Fe  Fe51  1  0.83490993  0.83631969  0.50417145  1
  Ni  Ni52  1  0.66886367  0.66850740  0.66772175  1
  Cr  Cr53  1  0.83515534  0.83437272  0.83302614  1
" 