3995,Ni40Fe17Cr42_18,-222.723628885937, 165.898207287478,Ni40Fe17Cr42,"# generated using pymatgen
 data_Cr8Fe3Ni7
_symmetry_space_group_name_H-M   'P 1'
_cell_length_a   7.50142326
_cell_length_b   7.50142326
_cell_length_c   10.60861451
_cell_angle_alpha   90.00000000
_cell_angle_beta   90.00000000
_cell_angle_gamma   90.00000000
_symmetry_Int_Tables_number   1
_chemical_formula_structural   Cr8Fe3Ni7
_chemical_formula_sum   'Cr24 Fe9 Ni21'
_cell_volume   596.96107033
_cell_formula_units_Z   3
loop_
 _symmetry_equiv_pos_site_id
 _symmetry_equiv_pos_as_xyz
  1  'x, y, z'
loop_
 _atom_site_type_symbol
 _atom_site_label
 _atom_site_symmetry_multiplicity
 _atom_site_fract_x
 _atom_site_fract_y
 _atom_site_fract_z
 _atom_site_occupancy
  Cr  Cr0  1  0.99443446  0.00228441  -0.00109464  1
  Fe  Fe1  1  0.16471357  0.16732807  0.16282620  1
  Ni  Ni2  1  0.99292687  -0.00066744  0.33155682  1
  Ni  Ni3  1  0.00094153  0.33130327  0.99669483  1
  Ni  Ni4  1  0.16507708  0.49594927  0.16238140  1
  Cr  Cr5  1  0.99616504  0.32782721  0.32680777  1
  Fe  Fe6  1  0.99587863  0.66110677  0.00058382  1
  Cr  Cr7  1  0.15906808  0.83137896  0.16229021  1
  Cr  Cr8  1  0.99665894  0.66769903  0.32919062  1
  Fe  Fe9  1  0.33175210  -0.00043477  0.00124444  1
  Ni  Ni10  1  0.49951383  0.16317708  0.16345848  1
  Cr  Cr11  1  0.33014489  0.99564126  0.32818659  1
  Ni  Ni12  1  0.32938601  0.33102818  0.00034266  1
  Ni  Ni13  1  0.49661765  0.49048100  0.16521618  1
  Ni  Ni14  1  0.33263252  0.32894483  0.32572468  1
  Ni  Ni15  1  0.33080532  0.66320906  0.00264339  1
  Fe  Fe16  1  0.49767200  0.83010539  0.16380749  1
  Cr  Cr17  1  0.33168106  0.66343979  0.33196037  1
  Ni  Ni18  1  0.66318973  0.99631676  0.00043624  1
  Fe  Fe19  1  0.82959584  0.16524718  0.16309546  1
  Ni  Ni20  1  0.66760404  0.00009579  0.32911424  1
  Cr  Cr21  1  0.66806644  0.32888693  0.99569969  1
  Ni  Ni22  1  0.83210521  0.49744550  0.16204870  1
  Ni  Ni23  1  0.66500229  0.32784733  0.32685725  1
  Cr  Cr24  1  0.66208203  0.66369072  0.00170941  1
  Ni  Ni25  1  0.82847208  0.83441960  0.16458371  1
  Cr  Cr26  1  0.66338834  0.66578598  0.32799602  1
  Cr  Cr27  1  0.16516343  0.16355865  0.49484635  1
  Fe  Fe28  1  0.99761274  0.99574940  0.66498470  1
  Ni  Ni29  1  0.16430400  0.16265431  0.83517422  1
  Cr  Cr30  1  0.16229733  0.49809403  0.49478087  1
  Cr  Cr31  1  -0.00213290  0.32701312  0.66960420  1
  Cr  Cr32  1  0.16424323  0.49957259  0.83486342  1
  Ni  Ni33  1  0.16059543  0.83594742  0.49844557  1
  Ni  Ni34  1  0.99665581  0.66765630  0.66469915  1
  Cr  Cr35  1  0.16443059  0.83144555  0.83391204  1
  Cr  Cr36  1  0.50068679  0.16465650  0.49543683  1
  Fe  Fe37  1  0.32981247  0.99694932  0.66366123  1
  Cr  Cr38  1  0.49558510  0.16199820  0.83299463  1
  Cr  Cr39  1  0.49989277  0.49422186  0.49508713  1
  Cr  Cr40  1  0.32911672  0.32896910  0.66556736  1
  Cr  Cr41  1  0.49854277  0.49983482  0.83075886  1
  Ni  Ni42  1  0.50160536  0.83618624  0.49670084  1
  Cr  Cr43  1  0.33300656  0.66905552  0.65848909  1
  Cr  Cr44  1  0.49721158  0.83314445  0.83409833  1
  Fe  Fe45  1  0.83098572  0.16269836  0.49712784  1
  Fe  Fe46  1  0.66648886  0.99614525  0.66445204  1
  Ni  Ni47  1  0.83223084  0.16132561  0.83211903  1
  Cr  Cr48  1  0.83056412  0.49917866  0.49828642  1
  Cr  Cr49  1  0.66759434  0.33109781  0.66862638  1
  Ni  Ni50  1  0.83442806  0.49702803  0.83198510  1
  Ni  Ni51  1  0.83142863  0.83582347  0.49805326  1
  Ni  Ni52  1  0.66750745  0.66932695  0.66337484  1
  Cr  Cr53  1  0.83083778  0.82740247  0.83277937  1
" 