5391,Ni40Fe57Cr2_5,-238.596421125268, 216.606232719001,Ni40Fe57Cr2,"# generated using pymatgen
 data_CrFe15Ni11
_symmetry_space_group_name_H-M   'P 1'
_cell_length_a   7.40351122
_cell_length_b   7.40351122
_cell_length_c   10.47014598
_cell_angle_alpha   90.00000000
_cell_angle_beta   90.00000000
_cell_angle_gamma   90.00000000
_symmetry_Int_Tables_number   1
_chemical_formula_structural   CrFe15Ni11
_chemical_formula_sum   'Cr2 Fe30 Ni22'
_cell_volume   573.88941595
_cell_formula_units_Z   2
loop_
 _symmetry_equiv_pos_site_id
 _symmetry_equiv_pos_as_xyz
  1  'x, y, z'
loop_
 _atom_site_type_symbol
 _atom_site_label
 _atom_site_symmetry_multiplicity
 _atom_site_fract_x
 _atom_site_fract_y
 _atom_site_fract_z
 _atom_site_occupancy
  Ni  Ni0  1  0.00442861  1.00426584  0.00449481  1
  Ni  Ni1  1  0.17258321  0.17165963  0.17237141  1
  Fe  Fe2  1  0.00441663  0.00457388  0.33775941  1
  Fe  Fe3  1  0.00445083  0.33795355  0.00511462  1
  Ni  Ni4  1  0.16950493  0.50225433  0.16921863  1
  Ni  Ni5  1  0.00516441  0.33728201  0.33778256  1
  Fe  Fe6  1  1.00408008  0.67061907  1.00349057  1
  Fe  Fe7  1  0.17064681  0.83889354  0.16958716  1
  Fe  Fe8  1  1.00277522  0.67037703  0.33828298  1
  Fe  Fe9  1  0.33754418  0.00443445  0.00487669  1
  Ni  Ni10  1  0.50293487  0.17004886  0.17129740  1
  Ni  Ni11  1  0.33781940  0.00643335  0.33713659  1
  Ni  Ni12  1  0.33666587  0.33709458  0.00525702  1
  Fe  Fe13  1  0.50463302  0.50311790  0.16977350  1
  Ni  Ni14  1  0.33657768  0.33589230  0.33780586  1
  Fe  Fe15  1  0.33665866  0.67206144  0.00533756  1
  Ni  Ni16  1  0.50585173  0.83945133  0.17005925  1
  Cr  Cr17  1  0.33842197  0.67028684  0.33640723  1
  Fe  Fe18  1  0.67055854  1.00406360  0.00498001  1
  Fe  Fe19  1  0.83790374  0.17116517  0.17123919  1
  Ni  Ni20  1  0.67099616  1.00331992  0.33738295  1
  Fe  Fe21  1  0.67199894  0.33706964  0.00449296  1
  Ni  Ni22  1  0.83784671  0.50517767  0.17204048  1
  Fe  Fe23  1  0.67037877  0.33722963  0.33786608  1
  Ni  Ni24  1  0.67155382  0.67173952  0.00452222  1
  Fe  Fe25  1  0.83712638  0.83763738  0.17099139  1
  Ni  Ni26  1  0.67239037  0.67165212  0.33829976  1
  Fe  Fe27  1  0.17052934  0.17090611  0.50385018  1
  Ni  Ni28  1  0.00450888  1.00331003  0.67066667  1
  Ni  Ni29  1  0.17142349  0.17014309  0.83694519  1
  Ni  Ni30  1  0.17047902  0.50267109  0.50612223  1
  Fe  Fe31  1  1.00401388  0.33791640  0.67061225  1
  Fe  Fe32  1  0.16873602  0.50480797  0.83748808  1
  Fe  Fe33  1  0.16955251  0.83813484  0.50606599  1
  Ni  Ni34  1  0.00443482  0.67178501  0.67160881  1
  Ni  Ni35  1  0.16999837  0.83919347  0.83729287  1
  Fe  Fe36  1  0.50433010  0.17105151  0.50356105  1
  Fe  Fe37  1  0.33690098  1.00426226  0.67098483  1
  Fe  Fe38  1  0.50432976  0.16955110  0.83787122  1
  Fe  Fe39  1  0.50525334  0.50375132  0.50540463  1
  Fe  Fe40  1  0.33607352  0.33686251  0.67015165  1
  Cr  Cr41  1  0.50532076  0.50406232  0.83835848  1
  Fe  Fe42  1  0.50523975  0.83807049  0.50383222  1
  Fe  Fe43  1  0.33595457  0.67174589  0.66991878  1
  Fe  Fe44  1  0.50442971  0.83885154  0.83834801  1
  Fe  Fe45  1  0.83801248  0.17092060  0.50442104  1
  Fe  Fe46  1  0.67214315  1.00397071  0.67033394  1
  Fe  Fe47  1  0.83851013  0.17042001  0.83721203  1
  Fe  Fe48  1  0.83794386  0.50473442  0.50435902  1
  Ni  Ni49  1  0.67124132  0.33727688  0.67029836  1
  Ni  Ni50  1  0.83839389  0.50527566  0.83637239  1
  Ni  Ni51  1  0.83691622  0.83733616  0.50370213  1
  Fe  Fe52  1  0.67319486  0.67192828  0.67041778  1
  Ni  Ni53  1  0.83793574  0.83701776  0.83764388  1
" 