4969,Ni40Fe6Cr53_17,-217.427330767441, 145.221325509867,Ni40Fe6Cr53,"# generated using pymatgen
 data_Cr10FeNi7
_symmetry_space_group_name_H-M   'P 1'
_cell_length_a   7.53188708
_cell_length_b   7.53188708
_cell_length_c   10.65169686
_cell_angle_alpha   90.00000000
_cell_angle_beta   90.00000000
_cell_angle_gamma   90.00000000
_symmetry_Int_Tables_number   1
_chemical_formula_structural   Cr10FeNi7
_chemical_formula_sum   'Cr30 Fe3 Ni21'
_cell_volume   604.26355126
_cell_formula_units_Z   3
loop_
 _symmetry_equiv_pos_site_id
 _symmetry_equiv_pos_as_xyz
  1  'x, y, z'
loop_
 _atom_site_type_symbol
 _atom_site_label
 _atom_site_symmetry_multiplicity
 _atom_site_fract_x
 _atom_site_fract_y
 _atom_site_fract_z
 _atom_site_occupancy
  Cr  Cr0  1  -0.00349987  -0.00139142  -0.00352430  1
  Cr  Cr1  1  0.16538978  0.16491446  0.16530550  1
  Cr  Cr2  1  0.99446222  -0.00289540  0.32987239  1
  Cr  Cr3  1  0.99360365  0.32943605  -0.00328862  1
  Cr  Cr4  1  0.16249194  0.49811525  0.15965949  1
  Cr  Cr5  1  0.99478613  0.32973455  0.32712746  1
  Ni  Ni6  1  0.99119790  0.66353253  -0.00110173  1
  Cr  Cr7  1  0.16385110  0.82658562  0.16005514  1
  Cr  Cr8  1  0.99093301  0.66192658  0.32898912  1
  Cr  Cr9  1  0.33361452  -0.00334761  0.99508795  1
  Ni  Ni10  1  0.50174216  0.16196195  0.16195178  1
  Cr  Cr11  1  0.33142056  -0.00244941  0.32573232  1
  Cr  Cr12  1  0.33226643  0.32739841  0.99270223  1
  Cr  Cr13  1  0.49602594  0.49313093  0.16273993  1
  Ni  Ni14  1  0.33393114  0.32766279  0.33118604  1
  Ni  Ni15  1  0.33409805  0.66384502  0.99448423  1
  Ni  Ni16  1  0.50144510  0.82890318  0.15732730  1
  Cr  Cr17  1  0.33428281  0.66189213  0.32663421  1
  Fe  Fe18  1  0.66157498  0.99544796  -0.00369713  1
  Ni  Ni19  1  0.82408000  0.16348387  0.16069034  1
  Cr  Cr20  1  0.66246310  0.99240849  0.32387595  1
  Ni  Ni21  1  0.66008621  0.32956664  -0.00397296  1
  Ni  Ni22  1  0.82380776  0.49591532  0.16018823  1
  Ni  Ni23  1  0.66128449  0.32811208  0.32779583  1
  Ni  Ni24  1  0.65980772  0.66143268  -0.00419630  1
  Ni  Ni25  1  0.82651400  0.82832243  0.15951907  1
  Cr  Cr26  1  0.66340102  0.65904170  0.33216253  1
  Ni  Ni27  1  0.16430375  0.16419083  0.49737179  1
  Cr  Cr28  1  -0.00309031  -0.00211419  0.66133535  1
  Ni  Ni29  1  0.16622173  0.16277961  0.82569737  1
  Cr  Cr30  1  0.16790180  0.49621521  0.49431936  1
  Cr  Cr31  1  0.99551520  0.32923720  0.66438475  1
  Cr  Cr32  1  0.16403698  0.49925454  0.83303496  1
  Cr  Cr33  1  0.16348804  0.83104776  0.49662650  1
  Cr  Cr34  1  0.99335958  0.66053663  0.65925222  1
  Cr  Cr35  1  0.16253866  0.82813970  0.83019057  1
  Cr  Cr36  1  0.49519380  0.16417169  0.49543747  1
  Ni  Ni37  1  0.32864601  -0.00268935  0.66540784  1
  Ni  Ni38  1  0.49534811  0.16362860  0.82788455  1
  Ni  Ni39  1  0.49932377  0.49324917  0.49770556  1
  Fe  Fe40  1  0.33110615  0.33012626  0.66354436  1
  Ni  Ni41  1  0.49618759  0.49619109  0.82785376  1
  Cr  Cr42  1  0.49339156  0.82898957  0.49724847  1
  Ni  Ni43  1  0.33183889  0.66311907  0.66525118  1
  Ni  Ni44  1  0.49340866  0.82844159  0.83086583  1
  Cr  Cr45  1  0.82536638  0.16246718  0.49629673  1
  Cr  Cr46  1  0.65834903  0.99420614  0.66593621  1
  Cr  Cr47  1  0.82562249  0.16370223  0.83089567  1
  Ni  Ni48  1  0.82682231  0.48992260  0.49551380  1
  Ni  Ni49  1  0.65805846  0.32974542  0.66350490  1
  Cr  Cr50  1  0.82559846  0.49559665  0.83205389  1
  Fe  Fe51  1  0.82746770  0.82790319  0.49567963  1
  Cr  Cr52  1  0.66001653  0.65893416  0.65985255  1
  Cr  Cr53  1  0.82648296  0.82788682  0.83111489  1
" 