4237,Ni40Cr60_0,-223.718430096431, 136.583665958254,Ni40Cr60,"# generated using pymatgen
 data_Cr7Ni11
_symmetry_space_group_name_H-M   'P 1'
_cell_length_a   7.50461169
_cell_length_b   7.50461169
_cell_length_c   10.61312363
_cell_angle_alpha   90.00000000
_cell_angle_beta   90.00000000
_cell_angle_gamma   90.00000000
_symmetry_Int_Tables_number   1
_chemical_formula_structural   Cr7Ni11
_chemical_formula_sum   'Cr21 Ni33'
_cell_volume   597.72259622
_cell_formula_units_Z   3
loop_
 _symmetry_equiv_pos_site_id
 _symmetry_equiv_pos_as_xyz
  1  'x, y, z'
loop_
 _atom_site_type_symbol
 _atom_site_label
 _atom_site_symmetry_multiplicity
 _atom_site_fract_x
 _atom_site_fract_y
 _atom_site_fract_z
 _atom_site_occupancy
  Cr  Cr0  1  -0.00095727  0.99504076  -0.00132249  1
  Ni  Ni1  1  0.16375994  0.16645566  0.16167421  1
  Cr  Cr2  1  0.99659539  0.99528547  0.33085950  1
  Ni  Ni3  1  -0.00126594  0.33558719  -0.00188005  1
  Ni  Ni4  1  0.16216556  0.49851638  0.16297269  1
  Ni  Ni5  1  0.99680790  0.33325953  0.32982763  1
  Ni  Ni6  1  0.00012811  0.66092654  -0.00145508  1
  Ni  Ni7  1  0.16253527  0.82746743  0.16168557  1
  Ni  Ni8  1  -0.00171968  0.66321679  0.32965909  1
  Ni  Ni9  1  0.32829583  0.99502502  0.99736083  1
  Cr  Cr10  1  0.49615703  0.16541792  0.16318145  1
  Cr  Cr11  1  0.32957471  0.99510979  0.33075956  1
  Ni  Ni12  1  0.32979307  0.33462498  -0.00140224  1
  Ni  Ni13  1  0.49724546  0.49579828  0.16226077  1
  Cr  Cr14  1  0.33004012  0.33580225  0.33067404  1
  Ni  Ni15  1  0.32881003  0.66216844  0.99648775  1
  Cr  Cr16  1  0.49575509  0.82990901  0.16280264  1
  Cr  Cr17  1  0.32991676  0.66276262  0.33219533  1
  Cr  Cr18  1  0.66465342  0.99458444  0.99747593  1
  Cr  Cr19  1  0.83017610  0.16709440  0.16540244  1
  Ni  Ni20  1  0.66666465  0.99675371  0.33322138  1
  Ni  Ni21  1  0.66381396  0.33521344  0.99705386  1
  Ni  Ni22  1  0.83333273  0.49791385  0.16367856  1
  Ni  Ni23  1  0.66567545  0.33226551  0.33081465  1
  Cr  Cr24  1  0.66401516  0.66129016  -0.00199445  1
  Ni  Ni25  1  0.83430363  0.82696396  0.16610298  1
  Cr  Cr26  1  0.66403692  0.66421046  0.32901788  1
  Cr  Cr27  1  0.16296338  0.16575103  0.49716893  1
  Cr  Cr28  1  -0.00228837  0.99520681  0.66296443  1
  Cr  Cr29  1  0.16676173  0.16433153  0.83388730  1
  Ni  Ni30  1  0.16353740  0.50296186  0.49724962  1
  Cr  Cr31  1  0.99740896  0.33374018  0.66485964  1
  Ni  Ni32  1  0.16392221  0.50208455  0.83244014  1
  Ni  Ni33  1  0.16408890  0.82615715  0.49983080  1
  Ni  Ni34  1  -0.00080009  0.66417513  0.66440968  1
  Ni  Ni35  1  0.16790502  0.82566873  0.83112492  1
  Cr  Cr36  1  0.49997750  0.16366745  0.49780163  1
  Ni  Ni37  1  0.33218391  0.99210042  0.66456922  1
  Cr  Cr38  1  0.49714482  0.16313737  0.83162630  1
  Ni  Ni39  1  0.49840069  0.50024245  0.49920152  1
  Cr  Cr40  1  0.33161795  0.33690738  0.66343784  1
  Ni  Ni41  1  0.49733216  0.49952532  0.83094890  1
  Ni  Ni42  1  0.49831212  0.82934101  0.50079623  1
  Ni  Ni43  1  0.33134697  0.66560381  0.66396507  1
  Ni  Ni44  1  0.49380854  0.82809869  0.82870652  1
  Ni  Ni45  1  0.82764273  0.16418395  0.49659211  1
  Ni  Ni46  1  0.66275219  0.99490885  0.66175100  1
  Cr  Cr47  1  0.82891907  0.16820978  0.82981371  1
  Cr  Cr48  1  0.83226846  0.49872102  0.49731961  1
  Ni  Ni49  1  0.66373049  0.33363920  0.66441879  1
  Ni  Ni50  1  0.83120902  0.49833461  0.83120305  1
  Ni  Ni51  1  0.83030595  0.83019887  0.49791753  1
  Ni  Ni52  1  0.66228418  0.66388860  0.66470400  1
  Cr  Cr53  1  0.83180714  0.82540268  0.82902950  1
" 