3520,Ni40Fe5Cr53_15,-217.494189470416, 146.38974405172,Ni40Fe5Cr53,"# generated using pymatgen
 data_Cr10FeNi7
_symmetry_space_group_name_H-M   'P 1'
_cell_length_a   7.52831836
_cell_length_b   7.52831836
_cell_length_c   10.64664993
_cell_angle_alpha   90.00000000
_cell_angle_beta   90.00000000
_cell_angle_gamma   90.00000000
_symmetry_Int_Tables_number   1
_chemical_formula_structural   Cr10FeNi7
_chemical_formula_sum   'Cr30 Fe3 Ni21'
_cell_volume   603.40503192
_cell_formula_units_Z   3
loop_
 _symmetry_equiv_pos_site_id
 _symmetry_equiv_pos_as_xyz
  1  'x, y, z'
loop_
 _atom_site_type_symbol
 _atom_site_label
 _atom_site_symmetry_multiplicity
 _atom_site_fract_x
 _atom_site_fract_y
 _atom_site_fract_z
 _atom_site_occupancy
  Cr  Cr0  1  0.99240130  -0.00317037  -0.00357408  1
  Ni  Ni1  1  0.16028464  0.16233848  0.16586602  1
  Ni  Ni2  1  0.99197329  0.00035333  0.32688006  1
  Cr  Cr3  1  0.99544842  0.32793387  0.99553801  1
  Cr  Cr4  1  0.16287796  0.49393022  0.16371234  1
  Ni  Ni5  1  -0.00379760  0.32611965  0.33035124  1
  Cr  Cr6  1  -0.00253713  0.66307477  0.99362430  1
  Cr  Cr7  1  0.16220979  0.83164275  0.16267892  1
  Cr  Cr8  1  0.99384531  0.66102810  0.33067590  1
  Cr  Cr9  1  0.33214042  -0.00402992  -0.00016615  1
  Ni  Ni10  1  0.49907701  0.15995506  0.16249696  1
  Cr  Cr11  1  0.33334307  -0.00139135  0.32780739  1
  Cr  Cr12  1  0.32958828  0.32911097  -0.00189056  1
  Cr  Cr13  1  0.49765222  0.49609926  0.16064273  1
  Ni  Ni14  1  0.32738168  0.32663660  0.32888175  1
  Ni  Ni15  1  0.32945675  0.66287247  0.99524293  1
  Ni  Ni16  1  0.49937437  0.83117131  0.16288808  1
  Cr  Cr17  1  0.33220302  0.66250768  0.32919588  1
  Ni  Ni18  1  0.66412074  -0.00184145  -0.00218590  1
  Ni  Ni19  1  0.82833016  0.16037897  0.16337740  1
  Ni  Ni20  1  0.66325277  0.99544232  0.32837362  1
  Ni  Ni21  1  0.66374977  0.32390071  -0.00341489  1
  Cr  Cr22  1  0.82719576  0.49382452  0.16451871  1
  Cr  Cr23  1  0.66201242  0.32639686  0.33074771  1
  Cr  Cr24  1  0.66205151  0.66592461  -0.00248458  1
  Fe  Fe25  1  0.82563487  0.83371699  0.16494849  1
  Ni  Ni26  1  0.66263387  0.66660859  0.32962814  1
  Cr  Cr27  1  0.16260424  0.16225670  0.49459863  1
  Cr  Cr28  1  0.99363680  -0.00302883  0.66466413  1
  Cr  Cr29  1  0.16298402  0.16234663  0.82744209  1
  Fe  Fe30  1  0.16348418  0.49355036  0.49603551  1
  Cr  Cr31  1  0.99551100  0.33033318  0.66180638  1
  Ni  Ni32  1  0.16472757  0.49791669  0.82734101  1
  Cr  Cr33  1  0.16465451  0.83100032  0.49776797  1
  Cr  Cr34  1  -0.00352806  0.66023573  0.66347997  1
  Cr  Cr35  1  0.16456916  0.82866925  0.82749137  1
  Ni  Ni36  1  0.49565140  0.16099199  0.49639708  1
  Ni  Ni37  1  0.33166880  0.99590574  0.66025371  1
  Cr  Cr38  1  0.49784509  0.16307250  0.82873892  1
  Cr  Cr39  1  0.49628087  0.49601460  0.49618835  1
  Ni  Ni40  1  0.32822171  0.33024579  0.66160669  1
  Cr  Cr41  1  0.49426616  0.49554443  0.83113435  1
  Ni  Ni42  1  0.49562183  0.83044879  0.49595391  1
  Ni  Ni43  1  0.32833219  0.66149785  0.66238851  1
  Cr  Cr44  1  0.49445602  0.82936272  0.82814202  1
  Ni  Ni45  1  0.82883451  0.16430778  0.49323290  1
  Cr  Cr46  1  0.66155321  -0.00260799  0.66132934  1
  Ni  Ni47  1  0.82763590  0.16156689  0.83151371  1
  Ni  Ni48  1  0.83020265  0.49390632  0.49366282  1
  Cr  Cr49  1  0.66308945  0.32694584  0.66146714  1
  Cr  Cr50  1  0.82741153  0.49348682  0.83069039  1
  Cr  Cr51  1  0.82811350  0.83048818  0.49249097  1
  Cr  Cr52  1  0.66264992  0.66353192  0.65998105  1
  Fe  Fe53  1  0.82787215  0.83172982  0.83009564  1
" 