7606,Ni40Fe5Cr53_6,-217.173467130674, 140.467382450889,Ni40Fe5Cr53,"# generated using pymatgen
 data_Cr10FeNi7
_symmetry_space_group_name_H-M   'P 1'
_cell_length_a   7.53424482
_cell_length_b   7.53424482
_cell_length_c   10.65503121
_cell_angle_alpha   90.00000000
_cell_angle_beta   90.00000000
_cell_angle_gamma   90.00000000
_symmetry_Int_Tables_number   1
_chemical_formula_structural   Cr10FeNi7
_chemical_formula_sum   'Cr30 Fe3 Ni21'
_cell_volume   604.83119481
_cell_formula_units_Z   3
loop_
 _symmetry_equiv_pos_site_id
 _symmetry_equiv_pos_as_xyz
  1  'x, y, z'
loop_
 _atom_site_type_symbol
 _atom_site_label
 _atom_site_symmetry_multiplicity
 _atom_site_fract_x
 _atom_site_fract_y
 _atom_site_fract_z
 _atom_site_occupancy
  Cr  Cr0  1  -0.00261192  0.99329327  -0.00423879  1
  Ni  Ni1  1  0.16092153  0.16611483  0.16274122  1
  Ni  Ni2  1  -0.00280152  -0.00116471  0.32678878  1
  Ni  Ni3  1  0.99372609  0.33259887  -0.00294388  1
  Cr  Cr4  1  0.16263595  0.49161741  0.16040361  1
  Ni  Ni5  1  -0.00254439  0.32754100  0.32853049  1
  Ni  Ni6  1  0.99305029  0.66063666  0.99385715  1
  Cr  Cr7  1  0.16027502  0.82916714  0.16305278  1
  Cr  Cr8  1  0.99430393  0.66083579  0.32828224  1
  Cr  Cr9  1  0.32972015  -0.00391204  0.99342824  1
  Cr  Cr10  1  0.49431184  0.16364363  0.16020141  1
  Cr  Cr11  1  0.32622006  -0.00199357  0.32914670  1
  Fe  Fe12  1  0.32831303  0.32859709  0.99516150  1
  Ni  Ni13  1  0.49709428  0.49303064  0.16059446  1
  Ni  Ni14  1  0.32738815  0.32666577  0.32688390  1
  Cr  Cr15  1  0.32973153  0.66189663  0.99547668  1
  Cr  Cr16  1  0.50034182  0.82771657  0.16120293  1
  Cr  Cr17  1  0.33014709  0.65952854  0.32649684  1
  Ni  Ni18  1  0.66165931  0.99331830  0.99258423  1
  Cr  Cr19  1  0.83058485  0.16126549  0.16061360  1
  Cr  Cr20  1  0.66165017  -0.00312058  0.32817197  1
  Cr  Cr21  1  0.66012964  0.33121220  0.99287516  1
  Ni  Ni22  1  0.82945446  0.49606511  0.16013939  1
  Cr  Cr23  1  0.66093930  0.33074656  0.33166288  1
  Fe  Fe24  1  0.66427280  0.66212582  0.99470225  1
  Ni  Ni25  1  0.82970984  0.82662389  0.15920785  1
  Cr  Cr26  1  0.66357285  0.65896104  0.32574395  1
  Ni  Ni27  1  0.16490907  0.16468912  0.49380207  1
  Cr  Cr28  1  -0.00149225  0.99454658  0.66375262  1
  Cr  Cr29  1  0.16213530  0.16547055  0.83029049  1
  Cr  Cr30  1  0.16336536  0.49327632  0.49710026  1
  Cr  Cr31  1  0.99391787  0.32992279  0.66144749  1
  Cr  Cr32  1  0.16241201  0.49590394  0.83006218  1
  Cr  Cr33  1  0.16381790  0.82861108  0.49767998  1
  Cr  Cr34  1  0.99537483  0.66190524  0.66503012  1
  Ni  Ni35  1  0.16367482  0.82724716  0.82767607  1
  Ni  Ni36  1  0.48937064  0.16460609  0.49760822  1
  Fe  Fe37  1  0.32916584  -0.00266364  0.66462690  1
  Ni  Ni38  1  0.49337045  0.16225256  0.82855099  1
  Cr  Cr39  1  0.49248652  0.49613247  0.49615711  1
  Ni  Ni40  1  0.33088850  0.32823812  0.66403762  1
  Ni  Ni41  1  0.49513853  0.49609061  0.82904261  1
  Cr  Cr42  1  0.49464086  0.82991044  0.49743209  1
  Ni  Ni43  1  0.33060125  0.66210852  0.66643769  1
  Ni  Ni44  1  0.49612722  0.82803787  0.82841754  1
  Cr  Cr45  1  0.83038038  0.16213858  0.49364935  1
  Cr  Cr46  1  0.66023387  -0.00250688  0.66503335  1
  Cr  Cr47  1  0.82748166  0.16248132  0.83208933  1
  Ni  Ni48  1  0.83050979  0.49418107  0.49406721  1
  Cr  Cr49  1  0.66093142  0.33007382  0.66164094  1
  Ni  Ni50  1  0.82768308  0.49823855  0.83216637  1
  Cr  Cr51  1  0.82854504  0.82929306  0.49313473  1
  Cr  Cr52  1  0.66374734  0.65967132  0.66437583  1
  Ni  Ni53  1  0.82757614  0.82632155  0.83311288  1
" 