8558,Ni40Cr60_8,-223.780061263712, 140.006139762705,Ni40Cr60,"# generated using pymatgen
 data_Cr7Ni11
_symmetry_space_group_name_H-M   'P 1'
_cell_length_a   7.49975846
_cell_length_b   7.49975846
_cell_length_c   10.60626013
_cell_angle_alpha   90.00000000
_cell_angle_beta   90.00000000
_cell_angle_gamma   90.00000000
_symmetry_Int_Tables_number   1
_chemical_formula_structural   Cr7Ni11
_chemical_formula_sum   'Cr21 Ni33'
_cell_volume   596.56370491
_cell_formula_units_Z   3
loop_
 _symmetry_equiv_pos_site_id
 _symmetry_equiv_pos_as_xyz
  1  'x, y, z'
loop_
 _atom_site_type_symbol
 _atom_site_label
 _atom_site_symmetry_multiplicity
 _atom_site_fract_x
 _atom_site_fract_y
 _atom_site_fract_z
 _atom_site_occupancy
  Cr  Cr0  1  0.99625548  -0.00146892  0.00041039  1
  Ni  Ni1  1  0.16313583  0.16402551  0.16514403  1
  Cr  Cr2  1  0.99714383  0.99601899  0.33053944  1
  Ni  Ni3  1  0.99481580  0.33155152  0.99703599  1
  Cr  Cr4  1  0.16439252  0.49787254  0.16362068  1
  Cr  Cr5  1  0.99708176  0.33083977  0.33259058  1
  Ni  Ni6  1  0.00067519  0.66379370  0.99676918  1
  Ni  Ni7  1  0.16366550  0.83051297  0.16344934  1
  Ni  Ni8  1  0.99605898  0.66620985  0.33352611  1
  Cr  Cr9  1  0.33174035  0.99456180  -0.00074067  1
  Cr  Cr10  1  0.49893354  0.16621564  0.16525954  1
  Cr  Cr11  1  0.32891102  0.99734279  0.32905498  1
  Cr  Cr12  1  0.33225861  0.33450106  0.99717156  1
  Ni  Ni13  1  0.49853641  0.49875807  0.16580317  1
  Ni  Ni14  1  0.33211050  0.33248188  0.33032206  1
  Ni  Ni15  1  0.32926189  0.66451577  -0.00208248  1
  Ni  Ni16  1  0.49875917  0.82912237  0.16351531  1
  Cr  Cr17  1  0.33149115  0.66371757  0.32921718  1
  Ni  Ni18  1  0.66594935  0.00075616  -0.00113409  1
  Ni  Ni19  1  0.83090371  0.16390835  0.16228335  1
  Cr  Cr20  1  0.66744415  0.99635361  0.33005028  1
  Ni  Ni21  1  0.66674497  0.32931638  0.99591231  1
  Cr  Cr22  1  0.83020042  0.49824537  0.16449759  1
  Ni  Ni23  1  0.66450585  0.33327330  0.33107353  1
  Cr  Cr24  1  0.66212104  0.66324269  -0.00050611  1
  Ni  Ni25  1  0.83106848  0.83143734  0.16519166  1
  Ni  Ni26  1  0.66687250  0.66311714  0.33011673  1
  Cr  Cr27  1  0.16687539  0.16571471  0.49746533  1
  Cr  Cr28  1  0.99685069  0.99588661  0.66248589  1
  Cr  Cr29  1  0.16563082  0.16528452  0.83077224  1
  Ni  Ni30  1  0.16286871  0.50062744  0.49876050  1
  Cr  Cr31  1  0.99567568  0.33414274  0.66475338  1
  Ni  Ni32  1  0.16436770  0.50124651  0.83112968  1
  Ni  Ni33  1  0.16190531  0.82748496  0.49979830  1
  Ni  Ni34  1  -0.00080599  0.66399423  0.66314957  1
  Ni  Ni35  1  0.16567319  0.82618314  0.83021746  1
  Cr  Cr36  1  0.49842072  0.16578910  0.50012968  1
  Ni  Ni37  1  0.33218863  0.99651216  0.66523303  1
  Ni  Ni38  1  0.50145386  0.16645678  0.82874700  1
  Cr  Cr39  1  0.49866353  0.49645056  0.49713375  1
  Ni  Ni40  1  0.33338272  0.33303457  0.66570240  1
  Ni  Ni41  1  0.49762548  0.49555485  0.82962597  1
  Cr  Cr42  1  0.49917519  0.83120381  0.50081671  1
  Ni  Ni43  1  0.32868615  0.66388900  0.66591885  1
  Cr  Cr44  1  0.49657042  0.83222636  0.82904967  1
  Ni  Ni45  1  0.82856284  0.16526390  0.49853635  1
  Ni  Ni46  1  0.66414250  -0.00019117  0.66461536  1
  Ni  Ni47  1  0.82608991  0.16767215  0.83268724  1
  Ni  Ni48  1  0.83170723  0.50022444  0.49766537  1
  Ni  Ni49  1  0.66397698  0.33090685  0.66641970  1
  Ni  Ni50  1  0.83147966  0.49571865  0.83108558  1
  Ni  Ni51  1  0.83252192  0.82799983  0.49808741  1
  Ni  Ni52  1  0.66561195  0.66277097  0.66363325  1
  Cr  Cr53  1  0.83189798  0.82996625  0.83052584  1
" 