3962,Ni40Fe49Cr9_12,-235.433300113759, 208.95690065875,Ni40Fe49Cr9,"# generated using pymatgen
 data_Cr3Fe13Ni11
_symmetry_space_group_name_H-M   'P 1'
_cell_length_a   7.41895705
_cell_length_b   7.41895705
_cell_length_c   10.49198968
_cell_angle_alpha   90.00000000
_cell_angle_beta   90.00000000
_cell_angle_gamma   90.00000000
_symmetry_Int_Tables_number   1
_chemical_formula_structural   Cr3Fe13Ni11
_chemical_formula_sum   'Cr6 Fe26 Ni22'
_cell_volume   577.48880374
_cell_formula_units_Z   2
loop_
 _symmetry_equiv_pos_site_id
 _symmetry_equiv_pos_as_xyz
  1  'x, y, z'
loop_
 _atom_site_type_symbol
 _atom_site_label
 _atom_site_symmetry_multiplicity
 _atom_site_fract_x
 _atom_site_fract_y
 _atom_site_fract_z
 _atom_site_occupancy
  Ni  Ni0  1  1.00168625  0.00405415  0.00338415  1
  Fe  Fe1  1  0.16695092  0.17043303  0.17128432  1
  Fe  Fe2  1  0.00331192  1.00245504  0.33595978  1
  Ni  Ni3  1  1.00279750  0.33665871  0.00367793  1
  Ni  Ni4  1  0.17042953  0.50504859  0.17091066  1
  Fe  Fe5  1  0.00329514  0.33692851  0.33611380  1
  Fe  Fe6  1  1.00311048  0.67046995  1.00308511  1
  Ni  Ni7  1  0.16906347  0.83502809  0.17070767  1
  Fe  Fe8  1  0.00511341  0.67034214  0.33685740  1
  Cr  Cr9  1  0.33592962  1.00077221  0.00483649  1
  Fe  Fe10  1  0.50577161  0.16990969  0.17131354  1
  Fe  Fe11  1  0.33682465  1.00222947  0.33718254  1
  Cr  Cr12  1  0.33405586  0.33930458  0.00350210  1
  Ni  Ni13  1  0.50243533  0.50269850  0.16955678  1
  Fe  Fe14  1  0.33680547  0.33711118  0.33651143  1
  Ni  Ni15  1  0.33790270  0.66946746  1.00308264  1
  Fe  Fe16  1  0.50390877  0.83544506  0.17023646  1
  Ni  Ni17  1  0.33496821  0.66968009  0.33657166  1
  Ni  Ni18  1  0.67225187  1.00035837  0.00502028  1
  Ni  Ni19  1  0.83523490  0.16900504  0.16932657  1
  Ni  Ni20  1  0.66991617  0.00451722  0.33670666  1
  Fe  Fe21  1  0.67151916  0.33827216  0.00463605  1
  Ni  Ni22  1  0.83685993  0.50153277  0.16761031  1
  Fe  Fe23  1  0.66961836  0.33530619  0.33648428  1
  Ni  Ni24  1  0.66946946  0.67058795  1.00241698  1
  Ni  Ni25  1  0.83758729  0.83918776  0.16899624  1
  Cr  Cr26  1  0.66935688  0.67100101  0.33693659  1
  Ni  Ni27  1  0.17040801  0.16940642  0.50326006  1
  Fe  Fe28  1  0.00376561  1.00086518  0.66945394  1
  Fe  Fe29  1  0.16878610  0.16962034  0.83576043  1
  Ni  Ni30  1  0.17099654  0.50422492  0.50193764  1
  Cr  Cr31  1  0.00438059  0.33760389  0.66992313  1
  Ni  Ni32  1  0.17138438  0.50536580  0.83687372  1
  Ni  Ni33  1  0.17009505  0.83608548  0.50369487  1
  Ni  Ni34  1  0.00339078  0.67101019  0.66964111  1
  Fe  Fe35  1  0.16902030  0.83514463  0.83593968  1
  Fe  Fe36  1  0.50236723  0.16935808  0.50357403  1
  Fe  Fe37  1  0.33542034  1.00269984  0.66855152  1
  Cr  Cr38  1  0.50466156  0.17109369  0.83535494  1
  Fe  Fe39  1  0.50113671  0.50286653  0.50407144  1
  Fe  Fe40  1  0.33688283  0.33805046  0.66945714  1
  Ni  Ni41  1  0.50237241  0.50485888  0.83527817  1
  Ni  Ni42  1  0.50263657  0.83775606  0.50450745  1
  Fe  Fe43  1  0.33621476  0.66898404  0.66965764  1
  Fe  Fe44  1  0.50435633  0.83349739  0.83600864  1
  Fe  Fe45  1  0.83620093  0.16877980  0.50223560  1
  Fe  Fe46  1  0.67054230  1.00152763  0.66836880  1
  Cr  Cr47  1  0.83649535  0.16788979  0.83849531  1
  Fe  Fe48  1  0.83755135  0.50356288  0.50342890  1
  Ni  Ni49  1  0.66840934  0.33804688  0.66808854  1
  Fe  Fe50  1  0.83560053  0.50560791  0.83741608  1
  Fe  Fe51  1  0.83824905  0.83739114  0.50420068  1
  Fe  Fe52  1  0.67045338  0.66944377  0.67050303  1
  Ni  Ni53  1  0.83706401  0.83647066  0.83642627  1
" 