5828,Ni40Fe5Cr53_16,-217.473301296115, 150.772117677322,Ni40Fe5Cr53,"# generated using pymatgen
 data_Cr10FeNi7
_symmetry_space_group_name_H-M   'P 1'
_cell_length_a   7.52460136
_cell_length_b   7.52460136
_cell_length_c   10.64139330
_cell_angle_alpha   90.00000000
_cell_angle_beta   90.00000000
_cell_angle_gamma   90.00000000
_symmetry_Int_Tables_number   1
_chemical_formula_structural   Cr10FeNi7
_chemical_formula_sum   'Cr30 Fe3 Ni21'
_cell_volume   602.51170550
_cell_formula_units_Z   3
loop_
 _symmetry_equiv_pos_site_id
 _symmetry_equiv_pos_as_xyz
  1  'x, y, z'
loop_
 _atom_site_type_symbol
 _atom_site_label
 _atom_site_symmetry_multiplicity
 _atom_site_fract_x
 _atom_site_fract_y
 _atom_site_fract_z
 _atom_site_occupancy
  Ni  Ni0  1  0.99498334  0.99611335  -0.00192685  1
  Ni  Ni1  1  0.16038752  0.16213651  0.16294411  1
  Cr  Cr2  1  0.99593837  0.99538928  0.32916998  1
  Cr  Cr3  1  -0.00217294  0.32961347  -0.00050932  1
  Ni  Ni4  1  0.16135698  0.49749610  0.16270004  1
  Cr  Cr5  1  0.99533466  0.33007062  0.32621532  1
  Ni  Ni6  1  0.99505462  0.66369024  -0.00224367  1
  Cr  Cr7  1  0.16397105  0.82826934  0.16328891  1
  Cr  Cr8  1  0.99324257  0.66301352  0.32867335  1
  Cr  Cr9  1  0.32724185  -0.00271169  -0.00332922  1
  Cr  Cr10  1  0.49825570  0.16048262  0.16421687  1
  Ni  Ni11  1  0.33083058  0.99402385  0.32950091  1
  Cr  Cr12  1  0.32887316  0.33013392  0.99466137  1
  Cr  Cr13  1  0.49548650  0.49859247  0.16440936  1
  Cr  Cr14  1  0.32761535  0.32780116  0.32778824  1
  Cr  Cr15  1  0.32891344  0.66100909  0.99536868  1
  Ni  Ni16  1  0.49932863  0.82962382  0.16567016  1
  Ni  Ni17  1  0.33010178  0.66601845  0.32816027  1
  Fe  Fe18  1  0.66505230  0.99586318  -0.00045976  1
  Ni  Ni19  1  0.82918838  0.16023892  0.16101095  1
  Ni  Ni20  1  0.66262399  0.99361197  0.32785314  1
  Ni  Ni21  1  0.66392220  0.32984611  -0.00303989  1
  Fe  Fe22  1  0.82942872  0.49744346  0.16244091  1
  Cr  Cr23  1  0.66543155  0.33089320  0.33028345  1
  Cr  Cr24  1  0.66384339  0.66243887  -0.00203592  1
  Ni  Ni25  1  0.82789365  0.83138229  0.16265138  1
  Ni  Ni26  1  0.66385334  0.66587862  0.32883016  1
  Cr  Cr27  1  0.16371155  0.16217114  0.49548741  1
  Cr  Cr28  1  -0.00308020  0.99485773  0.66155109  1
  Ni  Ni29  1  0.15987595  0.16475860  0.82973757  1
  Cr  Cr30  1  0.16176430  0.49933771  0.49699628  1
  Ni  Ni31  1  -0.00294837  0.33209707  0.66373875  1
  Ni  Ni32  1  0.16171161  0.49681439  0.82779770  1
  Ni  Ni33  1  0.16351743  0.82685058  0.49622064  1
  Ni  Ni34  1  -0.00266615  0.66144234  0.66117565  1
  Cr  Cr35  1  0.16033664  0.82705539  0.82875133  1
  Ni  Ni36  1  0.49745789  0.16017946  0.49368082  1
  Cr  Cr37  1  0.32926379  0.99598918  0.66236891  1
  Cr  Cr38  1  0.49946180  0.16344708  0.83089908  1
  Cr  Cr39  1  0.49528064  0.49730078  0.49494634  1
  Cr  Cr40  1  0.32923184  0.32921830  0.66563751  1
  Ni  Ni41  1  0.49481870  0.49629378  0.82915568  1
  Cr  Cr42  1  0.49350607  0.82933886  0.49264329  1
  Ni  Ni43  1  0.32730925  0.66214170  0.66422313  1
  Cr  Cr44  1  0.49638767  0.82816125  0.83110705  1
  Cr  Cr45  1  0.82864462  0.16457752  0.49696156  1
  Cr  Cr46  1  0.66251573  0.99439199  0.66132731  1
  Cr  Cr47  1  0.83114756  0.16253253  0.83174934  1
  Ni  Ni48  1  0.83086911  0.49857217  0.49631499  1
  Cr  Cr49  1  0.66253499  0.33085983  0.66208138  1
  Cr  Cr50  1  0.83171249  0.49563782  0.82945442  1
  Fe  Fe51  1  0.82989377  0.82757512  0.49441548  1
  Cr  Cr52  1  0.66356204  0.66318420  0.66181920  1
  Cr  Cr53  1  0.83168251  0.83033464  0.83094904  1
" 