4919,Ni40Fe57Cr2_12,-237.694424387171, 216.349134620504,Ni40Fe57Cr2,"# generated using pymatgen
 data_CrFe15Ni11
_symmetry_space_group_name_H-M   'P 1'
_cell_length_a   7.40261515
_cell_length_b   7.40261515
_cell_length_c   10.46887874
_cell_angle_alpha   90.00000000
_cell_angle_beta   90.00000000
_cell_angle_gamma   90.00000000
_symmetry_Int_Tables_number   1
_chemical_formula_structural   CrFe15Ni11
_chemical_formula_sum   'Cr2 Fe30 Ni22'
_cell_volume   573.68106047
_cell_formula_units_Z   2
loop_
 _symmetry_equiv_pos_site_id
 _symmetry_equiv_pos_as_xyz
  1  'x, y, z'
loop_
 _atom_site_type_symbol
 _atom_site_label
 _atom_site_symmetry_multiplicity
 _atom_site_fract_x
 _atom_site_fract_y
 _atom_site_fract_z
 _atom_site_occupancy
  Ni  Ni0  1  1.00407356  1.00432691  0.00463535  1
  Fe  Fe1  1  0.17190039  0.16878901  0.17035371  1
  Fe  Fe2  1  1.00381842  1.00164896  0.33691481  1
  Fe  Fe3  1  1.00263074  0.33671562  1.00403350  1
  Fe  Fe4  1  0.17185554  0.50613842  0.17154759  1
  Cr  Cr5  1  0.00501985  0.33812244  0.33688644  1
  Fe  Fe6  1  0.00525046  0.67196736  0.00442001  1
  Ni  Ni7  1  0.17131464  0.83774044  0.17120166  1
  Ni  Ni8  1  1.00417604  0.67171074  0.33765017  1
  Ni  Ni9  1  0.33778643  1.00315112  1.00415824  1
  Ni  Ni10  1  0.50603946  0.17061569  0.17220441  1
  Fe  Fe11  1  0.33834968  1.00289292  0.33695174  1
  Cr  Cr12  1  0.33719774  0.33764653  0.00514200  1
  Ni  Ni13  1  0.50529662  0.50502508  0.17257148  1
  Fe  Fe14  1  0.34047991  0.33865311  0.33793826  1
  Fe  Fe15  1  0.33737676  0.67374660  0.00491562  1
  Ni  Ni16  1  0.50211765  0.83741812  0.17015370  1
  Ni  Ni17  1  0.33844752  0.67053757  0.33708142  1
  Fe  Fe18  1  0.67069425  0.00493915  0.00494101  1
  Ni  Ni19  1  0.83708996  0.17093955  0.16960048  1
  Ni  Ni20  1  0.67043601  1.00342333  0.33682864  1
  Fe  Fe21  1  0.67247643  0.33707301  0.00457765  1
  Fe  Fe22  1  0.83620051  0.50555145  0.17046344  1
  Fe  Fe23  1  0.66937563  0.33843170  0.33765473  1
  Fe  Fe24  1  0.67042928  0.67104222  0.00451977  1
  Fe  Fe25  1  0.83682927  0.83814896  0.17137413  1
  Ni  Ni26  1  0.67042610  0.67249532  0.33797302  1
  Fe  Fe27  1  0.17223988  0.17134118  0.50580073  1
  Fe  Fe28  1  0.00452979  0.00528379  0.67163206  1
  Fe  Fe29  1  0.17023845  0.17085469  0.83690572  1
  Fe  Fe30  1  0.17217490  0.50449459  0.50513391  1
  Ni  Ni31  1  0.00561331  0.33827620  0.67232527  1
  Fe  Fe32  1  0.17017322  0.50507643  0.83637383  1
  Fe  Fe33  1  0.17131624  0.83722184  0.50392582  1
  Fe  Fe34  1  1.00421955  0.67039909  0.67094993  1
  Ni  Ni35  1  0.17130013  0.83854642  0.83778997  1
  Ni  Ni36  1  0.50498514  0.17126673  0.50403108  1
  Fe  Fe37  1  0.33770811  0.00502009  0.67142836  1
  Fe  Fe38  1  0.50479908  0.17043645  0.83670438  1
  Ni  Ni39  1  0.50496623  0.50426069  0.50406480  1
  Ni  Ni40  1  0.33650289  0.33827129  0.67043466  1
  Ni  Ni41  1  0.50594941  0.50477516  0.83641963  1
  Ni  Ni42  1  0.50295831  0.83752718  0.50452672  1
  Fe  Fe43  1  0.33801359  0.67066605  0.67074507  1
  Fe  Fe44  1  0.50450025  0.83717529  0.83764779  1
  Ni  Ni45  1  0.83718384  0.17119653  0.50580828  1
  Ni  Ni46  1  0.67093661  1.00349475  0.67183041  1
  Fe  Fe47  1  0.83801759  0.17117437  0.83758616  1
  Ni  Ni48  1  0.83687950  0.50400916  0.50502207  1
  Fe  Fe49  1  0.67108615  0.33767771  0.67082648  1
  Ni  Ni50  1  0.83726387  0.50299987  0.83806952  1
  Fe  Fe51  1  0.83589748  0.83775835  0.50399613  1
  Fe  Fe52  1  0.67082157  0.66980913  0.67064926  1
  Fe  Fe53  1  0.83764444  0.83710400  0.83768735  1
" 