4210,Ni40Cr60_5,-223.711292917972, 137.556994948234,Ni40Cr60,"# generated using pymatgen
 data_Cr7Ni11
_symmetry_space_group_name_H-M   'P 1'
_cell_length_a   7.49931905
_cell_length_b   7.49931905
_cell_length_c   10.60563870
_cell_angle_alpha   90.00000000
_cell_angle_beta   90.00000000
_cell_angle_gamma   90.00000000
_symmetry_Int_Tables_number   1
_chemical_formula_structural   Cr7Ni11
_chemical_formula_sum   'Cr21 Ni33'
_cell_volume   596.45885297
_cell_formula_units_Z   3
loop_
 _symmetry_equiv_pos_site_id
 _symmetry_equiv_pos_as_xyz
  1  'x, y, z'
loop_
 _atom_site_type_symbol
 _atom_site_label
 _atom_site_symmetry_multiplicity
 _atom_site_fract_x
 _atom_site_fract_y
 _atom_site_fract_z
 _atom_site_occupancy
  Ni  Ni0  1  -0.00021243  -0.00045074  0.99774600  1
  Ni  Ni1  1  0.16177861  0.16488646  0.16346259  1
  Ni  Ni2  1  -0.00067183  0.00147445  0.33113360  1
  Ni  Ni3  1  0.00091373  0.32844658  -0.00090708  1
  Ni  Ni4  1  0.16602155  0.49455364  0.16241051  1
  Ni  Ni5  1  -0.00201315  0.32841033  0.33187252  1
  Cr  Cr6  1  0.99780068  0.66575182  0.99631559  1
  Cr  Cr7  1  0.16555425  0.83471990  0.16429613  1
  Cr  Cr8  1  -0.00092559  0.66328487  0.33243940  1
  Ni  Ni9  1  0.32880554  -0.00087340  0.99687164  1
  Cr  Cr10  1  0.49522030  0.16481357  0.16368980  1
  Ni  Ni11  1  0.32959387  -0.00156348  0.33326770  1
  Ni  Ni12  1  0.32826242  0.32956501  -0.00116993  1
  Ni  Ni13  1  0.49645517  0.49917589  0.16431785  1
  Cr  Cr14  1  0.32890872  0.33012089  0.33175388  1
  Ni  Ni15  1  0.33051391  0.66476919  -0.00021316  1
  Ni  Ni16  1  0.49669366  0.82966428  0.16487244  1
  Cr  Cr17  1  0.33227768  0.66437484  0.33217942  1
  Cr  Cr18  1  0.66572194  0.99669406  -0.00137798  1
  Ni  Ni19  1  0.83559111  0.16386727  0.16584364  1
  Cr  Cr20  1  0.66316913  -0.00208478  0.32961003  1
  Cr  Cr21  1  0.66393511  0.32977340  0.99672506  1
  Cr  Cr22  1  0.83147313  0.49470297  0.16668360  1
  Ni  Ni23  1  0.66526059  0.33189454  0.33381955  1
  Cr  Cr24  1  0.66509405  0.66670660  -0.00053847  1
  Ni  Ni25  1  0.83138502  0.83376532  0.16528703  1
  Ni  Ni26  1  0.66290772  0.66335317  0.33060562  1
  Ni  Ni27  1  0.16332330  0.16120160  0.49661968  1
  Ni  Ni28  1  0.00141316  -0.00177773  0.66478438  1
  Ni  Ni29  1  0.16593511  0.16064938  0.83341975  1
  Ni  Ni30  1  0.16446110  0.49770018  0.49752745  1
  Cr  Cr31  1  -0.00187026  0.33024773  0.66259536  1
  Cr  Cr32  1  0.16589181  0.49770335  0.83380084  1
  Ni  Ni33  1  0.16723280  0.83443506  0.49955715  1
  Cr  Cr34  1  0.00002877  0.66562804  0.66525886  1
  Ni  Ni35  1  0.16476574  0.83489580  0.83047115  1
  Ni  Ni36  1  0.49790776  0.16441233  0.49860921  1
  Ni  Ni37  1  0.32864992  -0.00212121  0.66341466  1
  Ni  Ni38  1  0.49382780  0.16436531  0.83067279  1
  Ni  Ni39  1  0.49974178  0.49798663  0.49773476  1
  Cr  Cr40  1  0.33173740  0.32828524  0.66239459  1
  Cr  Cr41  1  0.49712282  0.49615054  0.83140401  1
  Ni  Ni42  1  0.49442684  0.83131416  0.49741151  1
  Ni  Ni43  1  0.33006034  0.66653426  0.66160716  1
  Cr  Cr44  1  0.49295996  0.83195272  0.83095009  1
  Ni  Ni45  1  0.83220514  0.16713331  0.49656323  1
  Cr  Cr46  1  0.66318649  0.00092608  0.66503215  1
  Cr  Cr47  1  0.83342503  0.16541450  0.83075869  1
  Ni  Ni48  1  0.82918919  0.49432435  0.49650164  1
  Ni  Ni49  1  0.66411444  0.33078314  0.66254430  1
  Ni  Ni50  1  0.83127799  0.49700255  0.83069859  1
  Cr  Cr51  1  0.83282983  0.83313617  0.49650839  1
  Cr  Cr52  1  0.66540971  0.66337755  0.66427866  1
  Ni  Ni53  1  0.83504342  0.83235457  0.83169626  1
" 