6526,Ni40Fe60_13,-243.456871960451, 228.192211115141,Ni40Fe60,"# generated using pymatgen
 data_Fe7Ni11
_symmetry_space_group_name_H-M   'P 1'
_cell_length_a   7.41100930
_cell_length_b   7.41100930
_cell_length_c   10.48074987
_cell_angle_alpha   90.00000000
_cell_angle_beta   90.00000000
_cell_angle_gamma   90.00000000
_symmetry_Int_Tables_number   1
_chemical_formula_structural   Fe7Ni11
_chemical_formula_sum   'Fe21 Ni33'
_cell_volume   575.63484199
_cell_formula_units_Z   3
loop_
 _symmetry_equiv_pos_site_id
 _symmetry_equiv_pos_as_xyz
  1  'x, y, z'
loop_
 _atom_site_type_symbol
 _atom_site_label
 _atom_site_symmetry_multiplicity
 _atom_site_fract_x
 _atom_site_fract_y
 _atom_site_fract_z
 _atom_site_occupancy
  Fe  Fe0  1  0.00421322  1.00284996  0.00392043  1
  Ni  Ni1  1  0.17099603  0.17053513  0.17117200  1
  Ni  Ni2  1  0.00485527  0.00411037  0.33662802  1
  Fe  Fe3  1  0.00402688  0.33735804  0.00413546  1
  Ni  Ni4  1  0.17066775  0.50343434  0.17096810  1
  Ni  Ni5  1  0.00422011  0.33720375  0.33654638  1
  Fe  Fe6  1  0.00416753  0.67113589  0.00413731  1
  Ni  Ni7  1  0.17100155  0.83737547  0.17180203  1
  Ni  Ni8  1  1.00197072  0.67002597  0.33599347  1
  Ni  Ni9  1  0.33665330  0.00388883  0.00385271  1
  Fe  Fe10  1  0.50307490  0.17029468  0.17032878  1
  Ni  Ni11  1  0.33649620  0.00490026  0.33621698  1
  Fe  Fe12  1  0.33749593  0.33749919  0.00416131  1
  Fe  Fe13  1  0.50379156  0.50414587  0.16991874  1
  Ni  Ni14  1  0.33647790  0.33576181  0.33620602  1
  Ni  Ni15  1  0.33810901  0.67128451  0.00418068  1
  Fe  Fe16  1  0.50357618  0.83689988  0.17023656  1
  Fe  Fe17  1  0.33596991  0.67052986  0.33643477  1
  Fe  Fe18  1  0.66992191  1.00294650  1.00300842  1
  Ni  Ni19  1  0.83749057  0.17086569  0.17156882  1
  Fe  Fe20  1  0.67127948  1.00343890  0.33758325  1
  Fe  Fe21  1  0.66982289  0.33753989  1.00287738  1
  Ni  Ni22  1  0.83713684  0.50377728  0.17127927  1
  Fe  Fe23  1  0.67142512  0.33723197  0.33730062  1
  Ni  Ni24  1  0.67038706  0.66982294  1.00320472  1
  Ni  Ni25  1  0.83713516  0.83669588  0.17120476  1
  Ni  Ni26  1  0.67143205  0.67003901  0.33663632  1
  Fe  Fe27  1  0.16996366  0.16983093  0.50343007  1
  Ni  Ni28  1  0.00457966  0.00410873  0.67107531  1
  Ni  Ni29  1  0.17110910  0.16986165  0.83681816  1
  Fe  Fe30  1  0.16942212  0.50443149  0.50295690  1
  Ni  Ni31  1  1.00314510  0.33731837  0.67082273  1
  Fe  Fe32  1  0.17029609  0.50393179  0.83736974  1
  Fe  Fe33  1  0.16967208  0.83708182  0.50377996  1
  Ni  Ni34  1  1.00247603  0.66991321  0.67137295  1
  Ni  Ni35  1  0.17113149  0.83803857  0.83626647  1
  Fe  Fe36  1  0.50435754  0.16979647  0.50432936  1
  Ni  Ni37  1  0.33720818  0.00411263  0.67127125  1
  Ni  Ni38  1  0.50292266  0.17064211  0.83645399  1
  Fe  Fe39  1  0.50511502  0.50468651  0.50410649  1
  Fe  Fe40  1  0.33732170  0.33646782  0.67048820  1
  Ni  Ni41  1  0.50436992  0.50378551  0.83615440  1
  Ni  Ni42  1  0.50383896  0.83739950  0.50381342  1
  Fe  Fe43  1  0.33747508  0.67125086  0.67134430  1
  Ni  Ni44  1  0.50323906  0.83691723  0.83668302  1
  Fe  Fe45  1  0.83702489  0.17004380  0.50422125  1
  Ni  Ni46  1  0.66955167  1.00344848  0.67127235  1
  Ni  Ni47  1  0.83730882  0.17098969  0.83606256  1
  Ni  Ni48  1  0.83723694  0.50401180  0.50337474  1
  Ni  Ni49  1  0.67100155  0.33797074  0.67087067  1
  Ni  Ni50  1  0.83618956  0.50376392  0.83668775  1
  Ni  Ni51  1  0.83644056  0.83625512  0.50378647  1
  Ni  Ni52  1  0.67099429  0.66992352  0.67148811  1
  Ni  Ni53  1  0.83697359  0.83658618  0.83635643  1
" 