5792,Ni40Fe51Cr7_8,-235.464487967739, 215.062757096511,Ni40Fe51Cr7,"# generated using pymatgen
 data_Cr2Fe9Ni7
_symmetry_space_group_name_H-M   'P 1'
_cell_length_a   7.41829144
_cell_length_b   7.41829144
_cell_length_c   10.49104836
_cell_angle_alpha   90.00000000
_cell_angle_beta   90.00000000
_cell_angle_gamma   90.00000000
_symmetry_Int_Tables_number   1
_chemical_formula_structural   Cr2Fe9Ni7
_chemical_formula_sum   'Cr6 Fe27 Ni21'
_cell_volume   577.33338502
_cell_formula_units_Z   3
loop_
 _symmetry_equiv_pos_site_id
 _symmetry_equiv_pos_as_xyz
  1  'x, y, z'
loop_
 _atom_site_type_symbol
 _atom_site_label
 _atom_site_symmetry_multiplicity
 _atom_site_fract_x
 _atom_site_fract_y
 _atom_site_fract_z
 _atom_site_occupancy
  Ni  Ni0  1  0.00590256  1.00324022  0.00442116  1
  Ni  Ni1  1  0.16929849  0.16924987  0.16792800  1
  Fe  Fe2  1  1.00245264  1.00166463  0.33717497  1
  Fe  Fe3  1  0.00476908  0.33578403  0.00349663  1
  Cr  Cr4  1  0.17139664  0.50296039  0.16812782  1
  Cr  Cr5  1  1.00298975  0.33502923  0.33754695  1
  Fe  Fe6  1  1.00170058  0.67015145  1.00150692  1
  Cr  Cr7  1  0.17093352  0.83797901  0.17007695  1
  Fe  Fe8  1  1.00191241  0.67170197  0.33856024  1
  Ni  Ni9  1  0.33428311  0.00451564  1.00311489  1
  Fe  Fe10  1  0.50100342  0.16953715  0.17134936  1
  Fe  Fe11  1  0.33788269  1.00296558  0.33745709  1
  Ni  Ni12  1  0.33510245  0.33545571  1.00322734  1
  Fe  Fe13  1  0.50384497  0.50414802  0.17068140  1
  Fe  Fe14  1  0.33938080  0.33674495  0.33739019  1
  Fe  Fe15  1  0.33885931  0.67047113  1.00235027  1
  Ni  Ni16  1  0.50405363  0.83543029  0.17042197  1
  Ni  Ni17  1  0.33959973  0.67073103  0.33821727  1
  Cr  Cr18  1  0.66939745  1.00016078  0.00388701  1
  Ni  Ni19  1  0.83768994  0.16954089  0.17064110  1
  Fe  Fe20  1  0.66952419  1.00236025  0.33655648  1
  Cr  Cr21  1  0.66907074  0.34012607  0.00534184  1
  Fe  Fe22  1  0.83497305  0.50483398  0.16946739  1
  Fe  Fe23  1  0.66796763  0.33729183  0.33705673  1
  Ni  Ni24  1  0.67043782  0.66956851  0.00389348  1
  Fe  Fe25  1  0.83588854  0.83645837  0.17082501  1
  Ni  Ni26  1  0.66884684  0.67043929  0.33580201  1
  Fe  Fe27  1  0.17153952  0.16828311  0.50447042  1
  Ni  Ni28  1  0.00452722  1.00274085  0.66841632  1
  Fe  Fe29  1  0.17161147  0.17062887  0.83705406  1
  Fe  Fe30  1  0.17178140  0.50475662  0.50383579  1
  Ni  Ni31  1  0.00345452  0.33698138  0.66990550  1
  Fe  Fe32  1  0.16993389  0.50244478  0.83669110  1
  Ni  Ni33  1  0.16934564  0.83641433  0.50276919  1
  Fe  Fe34  1  0.00355704  0.66970286  0.66978542  1
  Fe  Fe35  1  0.16965145  0.83678342  0.83639750  1
  Ni  Ni36  1  0.50367935  0.17098033  0.50356635  1
  Ni  Ni37  1  0.33600820  0.00333241  0.66992237  1
  Fe  Fe38  1  0.50015006  0.17118424  0.83444732  1
  Ni  Ni39  1  0.50295848  0.50257478  0.50277377  1
  Ni  Ni40  1  0.33688522  0.33619095  0.66929511  1
  Ni  Ni41  1  0.50268357  0.50421305  0.83664449  1
  Ni  Ni42  1  0.50264542  0.83630560  0.50377009  1
  Fe  Fe43  1  0.33643113  0.66950673  0.66899801  1
  Fe  Fe44  1  0.50303314  0.83529934  0.83646188  1
  Fe  Fe45  1  0.83522897  0.16850449  0.50434281  1
  Fe  Fe46  1  0.66906612  0.00388297  0.66865612  1
  Cr  Cr47  1  0.83811622  0.17053464  0.83431279  1
  Fe  Fe48  1  0.83481328  0.50471334  0.50461033  1
  Ni  Ni49  1  0.66951970  0.33841746  0.66837032  1
  Ni  Ni50  1  0.83676017  0.50453575  0.83642693  1
  Ni  Ni51  1  0.83786790  0.83713553  0.50319832  1
  Fe  Fe52  1  0.66986979  0.66924474  0.66998115  1
  Fe  Fe53  1  0.83717465  0.83362267  0.83583158  1
" 