5202,Ni40Fe6Cr53_11,-217.391596892766, 144.407285887612,Ni40Fe6Cr53,"# generated using pymatgen
 data_Cr10FeNi7
_symmetry_space_group_name_H-M   'P 1'
_cell_length_a   7.52841148
_cell_length_b   7.52841148
_cell_length_c   10.64678163
_cell_angle_alpha   90.00000000
_cell_angle_beta   90.00000000
_cell_angle_gamma   90.00000000
_symmetry_Int_Tables_number   1
_chemical_formula_structural   Cr10FeNi7
_chemical_formula_sum   'Cr30 Fe3 Ni21'
_cell_volume   603.42742375
_cell_formula_units_Z   3
loop_
 _symmetry_equiv_pos_site_id
 _symmetry_equiv_pos_as_xyz
  1  'x, y, z'
loop_
 _atom_site_type_symbol
 _atom_site_label
 _atom_site_symmetry_multiplicity
 _atom_site_fract_x
 _atom_site_fract_y
 _atom_site_fract_z
 _atom_site_occupancy
  Cr  Cr0  1  0.99478213  -0.00266416  -0.00095383  1
  Cr  Cr1  1  0.16137913  0.16679519  0.16395361  1
  Ni  Ni2  1  0.99458989  -0.00023927  0.32792480  1
  Ni  Ni3  1  0.99166246  0.33209029  -0.00307507  1
  Ni  Ni4  1  0.15938466  0.49401378  0.16363169  1
  Ni  Ni5  1  -0.00334691  0.32765382  0.32799254  1
  Cr  Cr6  1  0.99551508  0.66162027  -0.00265862  1
  Ni  Ni7  1  0.16271237  0.82919659  0.16416253  1
  Cr  Cr8  1  0.99550714  0.66252669  0.32562829  1
  Cr  Cr9  1  0.32896580  0.99350553  -0.00265450  1
  Cr  Cr10  1  0.49957743  0.16067668  0.16133825  1
  Cr  Cr11  1  0.32836977  -0.00233833  0.33010052  1
  Cr  Cr12  1  0.33041920  0.33187964  0.99564655  1
  Cr  Cr13  1  0.49656383  0.49527850  0.16453143  1
  Ni  Ni14  1  0.32852088  0.32905792  0.33239697  1
  Cr  Cr15  1  0.32882424  0.66298803  0.00021300  1
  Ni  Ni16  1  0.49790412  0.82980824  0.16367205  1
  Cr  Cr17  1  0.33045147  0.66086706  0.32473937  1
  Ni  Ni18  1  0.66378634  -0.00329715  -0.00158311  1
  Ni  Ni19  1  0.83012822  0.16525974  0.16247084  1
  Ni  Ni20  1  0.66315820  -0.00333829  0.32860711  1
  Fe  Fe21  1  0.66593869  0.33018432  -0.00362562  1
  Ni  Ni22  1  0.83126220  0.49285552  0.16282163  1
  Cr  Cr23  1  0.66232062  0.32919148  0.32915684  1
  Cr  Cr24  1  0.66304020  0.65952262  0.99466632  1
  Cr  Cr25  1  0.82559123  0.83116536  0.16668767  1
  Ni  Ni26  1  0.66210699  0.66185891  0.32983169  1
  Ni  Ni27  1  0.16508290  0.16489371  0.49616189  1
  Cr  Cr28  1  -0.00343997  -0.00373754  0.66066214  1
  Cr  Cr29  1  0.16375985  0.16482908  0.82683839  1
  Cr  Cr30  1  0.16270355  0.49144018  0.49512686  1
  Fe  Fe31  1  -0.00349715  0.32843245  0.66186258  1
  Cr  Cr32  1  0.16147762  0.49321798  0.82852070  1
  Cr  Cr33  1  0.16078694  0.82961315  0.49684017  1
  Ni  Ni34  1  0.99256237  0.65848344  0.66465117  1
  Cr  Cr35  1  0.16267938  0.82919096  0.82762331  1
  Ni  Ni36  1  0.49386583  0.16349099  0.49641357  1
  Ni  Ni37  1  0.33235577  0.00030635  0.66050691  1
  Cr  Cr38  1  0.49660121  0.16249257  0.83159097  1
  Ni  Ni39  1  0.49544514  0.49337238  0.49545331  1
  Ni  Ni40  1  0.33235559  0.32823554  0.65972234  1
  Ni  Ni41  1  0.49836167  0.49510678  0.82796308  1
  Cr  Cr42  1  0.49932720  0.82921542  0.49513789  1
  Cr  Cr43  1  0.32923901  0.66061327  0.66306088  1
  Cr  Cr44  1  0.49768325  0.83067565  0.82904121  1
  Cr  Cr45  1  0.83002383  0.16178004  0.49235658  1
  Ni  Ni46  1  0.66048581  -0.00137687  0.66111924  1
  Cr  Cr47  1  0.82874199  0.16348694  0.83368321  1
  Cr  Cr48  1  0.82935516  0.49783157  0.49597024  1
  Cr  Cr49  1  0.66148598  0.32949489  0.66317542  1
  Ni  Ni50  1  0.82857106  0.49438027  0.82796022  1
  Cr  Cr51  1  0.82712360  0.82881607  0.49607513  1
  Fe  Fe52  1  0.66076179  0.66104389  0.66232635  1
  Cr  Cr53  1  0.82690900  0.82847563  0.82445703  1
" 