1969,Ni41Fe10Cr47_7,-220.059285295172, 156.076715035605,Ni41Fe10Cr47,"# generated using pymatgen
 data_Cr27Fe5Ni22
_symmetry_space_group_name_H-M   'P 1'
_cell_length_a   7.51212794
_cell_length_b   7.51212794
_cell_length_c   10.62375321
_cell_angle_alpha   90.00000000
_cell_angle_beta   90.00000000
_cell_angle_gamma   90.00000000
_symmetry_Int_Tables_number   1
_chemical_formula_structural   Cr27Fe5Ni22
_chemical_formula_sum   'Cr27 Fe5 Ni22'
_cell_volume   599.52034431
_cell_formula_units_Z   1
loop_
 _symmetry_equiv_pos_site_id
 _symmetry_equiv_pos_as_xyz
  1  'x, y, z'
loop_
 _atom_site_type_symbol
 _atom_site_label
 _atom_site_symmetry_multiplicity
 _atom_site_fract_x
 _atom_site_fract_y
 _atom_site_fract_z
 _atom_site_occupancy
  Cr  Cr0  1  -0.00024643  0.99420513  -0.00246961  1
  Ni  Ni1  1  0.16375952  0.16361371  0.16491848  1
  Ni  Ni2  1  -0.00256429  0.99431094  0.32817644  1
  Ni  Ni3  1  -0.00097313  0.33103426  0.00131009  1
  Ni  Ni4  1  0.16073859  0.49768728  0.16577560  1
  Ni  Ni5  1  0.99682895  0.33278215  0.32854354  1
  Cr  Cr6  1  -0.00242124  0.66601225  -0.00013618  1
  Ni  Ni7  1  0.16615888  0.83009515  0.16675358  1
  Ni  Ni8  1  -0.00262620  0.66446977  0.32774557  1
  Fe  Fe9  1  0.32990432  -0.00251434  -0.00055930  1
  Cr  Cr10  1  0.49714028  0.16020380  0.16263066  1
  Ni  Ni11  1  0.32989169  0.99333194  0.32701509  1
  Ni  Ni12  1  0.33044173  0.33042705  -0.00180629  1
  Fe  Fe13  1  0.49421804  0.49663037  0.16246559  1
  Cr  Cr14  1  0.32744971  0.33287602  0.32861468  1
  Cr  Cr15  1  0.32875727  0.66247153  0.00036836  1
  Ni  Ni16  1  0.49471501  0.82950724  0.16749895  1
  Ni  Ni17  1  0.32889931  0.66673634  0.32689243  1
  Cr  Cr18  1  0.66610984  0.99511416  -0.00267610  1
  Cr  Cr19  1  0.83226265  0.16576702  0.16495101  1
  Ni  Ni20  1  0.66487496  0.99172925  0.33021365  1
  Ni  Ni21  1  0.66089966  0.33189511  -0.00182035  1
  Ni  Ni22  1  0.83339894  0.49686525  0.16370305  1
  Cr  Cr23  1  0.66512058  0.33159445  0.32908246  1
  Cr  Cr24  1  0.66420509  0.66261009  0.00074549  1
  Fe  Fe25  1  0.83283138  0.83052324  0.16679304  1
  Cr  Cr26  1  0.66475230  0.66370637  0.32753615  1
  Cr  Cr27  1  0.16177579  0.16296352  0.49317910  1
  Cr  Cr28  1  0.99575895  0.99507948  0.66583490  1
  Cr  Cr29  1  0.16410172  0.16485903  0.83289285  1
  Cr  Cr30  1  0.15867417  0.49941115  0.49592000  1
  Ni  Ni31  1  0.99431825  0.33423281  0.66122933  1
  Cr  Cr32  1  0.16189231  0.49830003  0.82904401  1
  Cr  Cr33  1  0.16489819  0.82914169  0.49423698  1
  Ni  Ni34  1  0.99404193  0.66584827  0.66373875  1
  Ni  Ni35  1  0.16283649  0.82987458  0.83082675  1
  Cr  Cr36  1  0.49667266  0.15847250  0.49245866  1
  Cr  Cr37  1  0.33058515  -0.00222429  0.66555616  1
  Ni  Ni38  1  0.49639568  0.16482762  0.83499728  1
  Cr  Cr39  1  0.49729045  0.50171291  0.49568560  1
  Cr  Cr40  1  0.33039965  0.33016965  0.66379654  1
  Ni  Ni41  1  0.49788736  0.49465620  0.83356846  1
  Fe  Fe42  1  0.49884051  0.82978813  0.49291230  1
  Cr  Cr43  1  0.33040726  0.66347809  0.66408212  1
  Cr  Cr44  1  0.49680392  0.82918839  0.83039239  1
  Cr  Cr45  1  0.83227206  0.16446540  0.49255834  1
  Cr  Cr46  1  0.66524948  0.99514041  0.66214339  1
  Cr  Cr47  1  0.82927241  0.16652885  0.83333040  1
  Ni  Ni48  1  0.83219475  0.50144056  0.49752759  1
  Cr  Cr49  1  0.66151534  0.33098424  0.66296492  1
  Cr  Cr50  1  0.83020705  0.49766906  0.83010010  1
  Ni  Ni51  1  0.83067912  0.82689003  0.49435396  1
  Fe  Fe52  1  0.66700750  0.66355165  0.66308913  1
  Ni  Ni53  1  0.83146727  0.82783733  0.82928672  1
" 