7118,Ni41Fe10Cr47_18,-220.045890422267, 151.340222607556,Ni41Fe10Cr47,"# generated using pymatgen
 data_Cr27Fe5Ni22
_symmetry_space_group_name_H-M   'P 1'
_cell_length_a   7.51224905
_cell_length_b   7.51224905
_cell_length_c   10.62392449
_cell_angle_alpha   90.00000000
_cell_angle_beta   90.00000000
_cell_angle_gamma   90.00000000
_symmetry_Int_Tables_number   1
_chemical_formula_structural   Cr27Fe5Ni22
_chemical_formula_sum   'Cr27 Fe5 Ni22'
_cell_volume   599.54934060
_cell_formula_units_Z   1
loop_
 _symmetry_equiv_pos_site_id
 _symmetry_equiv_pos_as_xyz
  1  'x, y, z'
loop_
 _atom_site_type_symbol
 _atom_site_label
 _atom_site_symmetry_multiplicity
 _atom_site_fract_x
 _atom_site_fract_y
 _atom_site_fract_z
 _atom_site_occupancy
  Ni  Ni0  1  -0.00091488  0.99321287  0.99572033  1
  Ni  Ni1  1  0.16555648  0.16345162  0.16023326  1
  Cr  Cr2  1  -0.00179816  0.99677378  0.32950885  1
  Fe  Fe3  1  -0.00057314  0.32847513  0.99408010  1
  Cr  Cr4  1  0.16343885  0.49888526  0.16061485  1
  Cr  Cr5  1  -0.00104174  0.33048490  0.32906351  1
  Ni  Ni6  1  -0.00291346  0.66566804  0.99235222  1
  Cr  Cr7  1  0.16478984  0.82917966  0.16228575  1
  Ni  Ni8  1  0.99581068  0.66742800  0.33071007  1
  Cr  Cr9  1  0.32912412  0.00004955  0.99634444  1
  Ni  Ni10  1  0.49445861  0.16171311  0.16357517  1
  Ni  Ni11  1  0.33275303  -0.00276817  0.32708000  1
  Ni  Ni12  1  0.32744327  0.33022557  0.99482598  1
  Cr  Cr13  1  0.49347390  0.50072042  0.16246797  1
  Cr  Cr14  1  0.32973567  0.32541612  0.32908759  1
  Fe  Fe15  1  0.33028834  0.66554248  0.99276484  1
  Ni  Ni16  1  0.49699421  0.83334803  0.16545898  1
  Fe  Fe17  1  0.33009460  0.66679033  0.32901390  1
  Cr  Cr18  1  0.66168976  0.99375781  -0.00153699  1
  Cr  Cr19  1  0.83142822  0.16078851  0.16075134  1
  Ni  Ni20  1  0.66117485  0.99388552  0.32843305  1
  Cr  Cr21  1  0.65778520  0.33090813  0.99644027  1
  Cr  Cr22  1  0.83326669  0.49821401  0.15988230  1
  Cr  Cr23  1  0.66240401  0.32724619  0.32821583  1
  Cr  Cr24  1  0.66433740  0.66567236  0.99389217  1
  Ni  Ni25  1  0.83096071  0.83072987  0.16299732  1
  Cr  Cr26  1  0.66612636  0.66615501  0.32925180  1
  Cr  Cr27  1  0.16559352  0.16123993  0.50013656  1
  Ni  Ni28  1  -0.00110079  0.99489351  0.66612055  1
  Ni  Ni29  1  0.16427288  0.16289923  0.83044718  1
  Cr  Cr30  1  0.16622275  0.49968579  0.49488577  1
  Cr  Cr31  1  0.00022188  0.33131755  0.66513707  1
  Ni  Ni32  1  0.16535160  0.49605212  0.83358070  1
  Cr  Cr33  1  0.16511338  0.83169202  0.49692883  1
  Cr  Cr34  1  0.99560917  0.66657451  0.66457819  1
  Ni  Ni35  1  0.16354967  0.83158911  0.83076731  1
  Cr  Cr36  1  0.49812405  0.16200971  0.50159400  1
  Ni  Ni37  1  0.32953175  -0.00112402  0.66841410  1
  Fe  Fe38  1  0.49494438  0.16353120  0.82990746  1
  Cr  Cr39  1  0.49579382  0.49661086  0.49818939  1
  Ni  Ni40  1  0.33300504  0.32725788  0.66837121  1
  Ni  Ni41  1  0.49489013  0.49588354  0.83071070  1
  Cr  Cr42  1  0.49568071  0.83258047  0.49667498  1
  Cr  Cr43  1  0.32960191  0.66317616  0.66838869  1
  Ni  Ni44  1  0.49570764  0.83072145  0.82965948  1
  Cr  Cr45  1  0.82772397  0.16066214  0.50100623  1
  Fe  Fe46  1  0.66305583  0.99518276  0.66680707  1
  Cr  Cr47  1  0.83091447  0.16189616  0.82994869  1
  Cr  Cr48  1  0.82959608  0.49609299  0.49680328  1
  Ni  Ni49  1  0.66034618  0.33061362  0.66811630  1
  Ni  Ni50  1  0.83083590  0.49644680  0.83167974  1
  Ni  Ni51  1  0.82992604  0.83347831  0.49743218  1
  Cr  Cr52  1  0.66523325  0.66325248  0.66725727  1
  Ni  Ni53  1  0.83190152  0.83136977  0.83048233  1
" 