3264,Ni41Cr59_11,-222.772668555233, 134.243018257612,Ni41Cr59,"# generated using pymatgen
 data_Cr11Ni16
_symmetry_space_group_name_H-M   'P 1'
_cell_length_a   7.50802400
_cell_length_b   7.50802400
_cell_length_c   10.61794937
_cell_angle_alpha   90.00000000
_cell_angle_beta   90.00000000
_cell_angle_gamma   90.00000000
_symmetry_Int_Tables_number   1
_chemical_formula_structural   Cr11Ni16
_chemical_formula_sum   'Cr22 Ni32'
_cell_volume   598.53831223
_cell_formula_units_Z   2
loop_
 _symmetry_equiv_pos_site_id
 _symmetry_equiv_pos_as_xyz
  1  'x, y, z'
loop_
 _atom_site_type_symbol
 _atom_site_label
 _atom_site_symmetry_multiplicity
 _atom_site_fract_x
 _atom_site_fract_y
 _atom_site_fract_z
 _atom_site_occupancy
  Cr  Cr0  1  0.99492526  -0.00069219  0.99453148  1
  Cr  Cr1  1  0.16394559  0.16656114  0.16661014  1
  Ni  Ni2  1  -0.00240323  -0.00207014  0.33467312  1
  Ni  Ni3  1  -0.00194925  0.32971155  0.99618294  1
  Ni  Ni4  1  0.16805083  0.49461853  0.16416732  1
  Ni  Ni5  1  0.99726138  0.33148208  0.33303131  1
  Cr  Cr6  1  -0.00124340  0.66199451  -0.00224175  1
  Cr  Cr7  1  0.16675694  0.82903768  0.16663648  1
  Cr  Cr8  1  -0.00238844  0.66268824  0.33325311  1
  Cr  Cr9  1  0.33349120  -0.00092445  -0.00083376  1
  Ni  Ni10  1  0.49700916  0.16638353  0.16421065  1
  Ni  Ni11  1  0.33175782  0.99538286  0.33041081  1
  Ni  Ni12  1  0.33222202  0.33328600  -0.00223396  1
  Ni  Ni13  1  0.49610791  0.49734533  0.16326498  1
  Ni  Ni14  1  0.33134293  0.33303474  0.32849084  1
  Ni  Ni15  1  0.33545186  0.65937169  0.00003782  1
  Ni  Ni16  1  0.49742589  0.82815420  0.16435328  1
  Ni  Ni17  1  0.33246693  0.66308308  0.33038867  1
  Ni  Ni18  1  0.66311315  -0.00169401  0.99667233  1
  Cr  Cr19  1  0.82993529  0.16596538  0.16474692  1
  Cr  Cr20  1  0.66279552  -0.00195731  0.33084271  1
  Ni  Ni21  1  0.66151660  0.33018184  -0.00215237  1
  Cr  Cr22  1  0.82854595  0.49567512  0.16435619  1
  Ni  Ni23  1  0.66351261  0.33266379  0.33037099  1
  Ni  Ni24  1  0.65951284  0.66332243  0.99706150  1
  Cr  Cr25  1  0.82696231  0.82998842  0.16255245  1
  Ni  Ni26  1  0.66080389  0.66289312  0.33207861  1
  Cr  Cr27  1  0.16321416  0.16515760  0.49680190  1
  Ni  Ni28  1  0.99321397  -0.00081162  0.66385708  1
  Ni  Ni29  1  0.16070940  0.16736300  0.82937195  1
  Ni  Ni30  1  0.16352969  0.49565509  0.49575325  1
  Ni  Ni31  1  0.99720168  0.32796639  0.66299288  1
  Cr  Cr32  1  0.16702994  0.49392998  0.83165703  1
  Ni  Ni33  1  0.16398312  0.83116796  0.49489025  1
  Cr  Cr34  1  0.99530757  0.66376917  0.66035149  1
  Cr  Cr35  1  0.16280978  0.83223450  0.83064949  1
  Cr  Cr36  1  0.49733809  0.16360614  0.49589413  1
  Cr  Cr37  1  0.33054324  -0.00215545  0.66246997  1
  Cr  Cr38  1  0.49742655  0.16684409  0.82997914  1
  Cr  Cr39  1  0.49756549  0.49790955  0.49733389  1
  Ni  Ni40  1  0.32763699  0.33187960  0.66556479  1
  Ni  Ni41  1  0.49772830  0.49708001  0.83249679  1
  Ni  Ni42  1  0.49870806  0.82921606  0.49601587  1
  Cr  Cr43  1  0.33162012  0.66183842  0.66207671  1
  Cr  Cr44  1  0.50128910  0.82655055  0.83049828  1
  Ni  Ni45  1  0.83287828  0.16405619  0.49718320  1
  Ni  Ni46  1  0.66932645  0.99524843  0.66317550  1
  Ni  Ni47  1  0.83175504  0.16298307  0.83051122  1
  Ni  Ni48  1  0.83092984  0.49633922  0.49593427  1
  Cr  Cr49  1  0.66564682  0.33028759  0.66288761  1
  Cr  Cr50  1  0.82671780  0.49790623  0.83171359  1
  Ni  Ni51  1  0.82922249  0.83146118  0.49878918  1
  Ni  Ni52  1  0.66531317  0.66629310  0.66271423  1
  Ni  Ni53  1  0.82706793  0.83337941  0.82961613  1
" 