5186,Ni41Cr59_18,-222.835111728404, 135.853628829763,Ni41Cr59,"# generated using pymatgen
 data_Cr11Ni16
_symmetry_space_group_name_H-M   'P 1'
_cell_length_a   7.50675038
_cell_length_b   7.50675038
_cell_length_c   10.61614820
_cell_angle_alpha   90.00000000
_cell_angle_beta   90.00000000
_cell_angle_gamma   90.00000000
_symmetry_Int_Tables_number   1
_chemical_formula_structural   Cr11Ni16
_chemical_formula_sum   'Cr22 Ni32'
_cell_volume   598.23376603
_cell_formula_units_Z   2
loop_
 _symmetry_equiv_pos_site_id
 _symmetry_equiv_pos_as_xyz
  1  'x, y, z'
loop_
 _atom_site_type_symbol
 _atom_site_label
 _atom_site_symmetry_multiplicity
 _atom_site_fract_x
 _atom_site_fract_y
 _atom_site_fract_z
 _atom_site_occupancy
  Ni  Ni0  1  -0.00219248  -0.00166684  -0.00099623  1
  Cr  Cr1  1  0.16237169  0.16431805  0.16180019  1
  Ni  Ni2  1  0.99699970  0.99711028  0.33034133  1
  Cr  Cr3  1  0.99661269  0.33144313  0.99446793  1
  Ni  Ni4  1  0.16560666  0.49876314  0.16181553  1
  Cr  Cr5  1  0.99645391  0.33127993  0.33253359  1
  Cr  Cr6  1  0.99718012  0.66295517  -0.00131769  1
  Ni  Ni7  1  0.16346913  0.83117473  0.16224361  1
  Cr  Cr8  1  -0.00084105  0.66479555  0.33050607  1
  Ni  Ni9  1  0.33003028  0.99697005  0.99714184  1
  Cr  Cr10  1  0.49623718  0.16707590  0.16382173  1
  Cr  Cr11  1  0.32777586  0.99428091  0.33157896  1
  Ni  Ni12  1  0.33105446  0.33298867  0.99521303  1
  Ni  Ni13  1  0.49847819  0.50009947  0.16309698  1
  Cr  Cr14  1  0.33043008  0.33325730  0.33074413  1
  Ni  Ni15  1  0.33210278  0.66234897  -0.00090418  1
  Ni  Ni16  1  0.49760701  0.82711131  0.16199715  1
  Cr  Cr17  1  0.32991832  0.66472809  0.32932137  1
  Cr  Cr18  1  0.66413549  -0.00201805  0.99673382  1
  Ni  Ni19  1  0.83213763  0.16357064  0.16529640  1
  Cr  Cr20  1  0.66520378  -0.00208589  0.32958562  1
  Cr  Cr21  1  0.66314947  0.33214203  0.99651008  1
  Ni  Ni22  1  0.82841099  0.49838905  0.16526640  1
  Ni  Ni23  1  0.66728695  0.33330024  0.32934114  1
  Ni  Ni24  1  0.66207333  0.66230273  -0.00107443  1
  Ni  Ni25  1  0.83101456  0.83024101  0.16381364  1
  Ni  Ni26  1  0.66523558  0.66184941  0.32774909  1
  Ni  Ni27  1  0.16192315  0.16452745  0.49933806  1
  Cr  Cr28  1  -0.00248535  0.00062336  0.66359710  1
  Ni  Ni29  1  0.16560536  0.16598522  0.83070998  1
  Ni  Ni30  1  0.16360059  0.49569516  0.50048525  1
  Ni  Ni31  1  -0.00111739  0.33054045  0.66409121  1
  Ni  Ni32  1  0.16685763  0.49436894  0.82966161  1
  Ni  Ni33  1  0.16422243  0.83176868  0.49835437  1
  Cr  Cr34  1  -0.00084480  0.65895025  0.66323718  1
  Cr  Cr35  1  0.16553503  0.83126525  0.83220581  1
  Cr  Cr36  1  0.49695271  0.16563621  0.49836686  1
  Ni  Ni37  1  0.33041796  -0.00084456  0.66386710  1
  Ni  Ni38  1  0.49371808  0.16509846  0.82958656  1
  Cr  Cr39  1  0.49928810  0.49769863  0.49722377  1
  Ni  Ni40  1  0.32805176  0.33076563  0.66587877  1
  Ni  Ni41  1  0.49537765  0.49732533  0.83108318  1
  Cr  Cr42  1  0.49792934  0.82899397  0.50132512  1
  Ni  Ni43  1  0.33025709  0.66208829  0.66373625  1
  Cr  Cr44  1  0.49687225  0.82883618  0.82849494  1
  Ni  Ni45  1  0.83289593  0.16581728  0.49697755  1
  Ni  Ni46  1  0.66285317  -0.00079613  0.66509617  1
  Ni  Ni47  1  0.83259194  0.16468874  0.82972304  1
  Ni  Ni48  1  0.83069920  0.49544726  0.49754526  1
  Cr  Cr49  1  0.66606222  0.32930119  0.66634268  1
  Ni  Ni50  1  0.82963629  0.49653709  0.82928258  1
  Cr  Cr51  1  0.82955498  0.82918611  0.49834783  1
  Ni  Ni52  1  0.66313999  0.66161738  0.66532595  1
  Cr  Cr53  1  0.82966095  0.82935172  0.83068726  1
" 