181,Ni41Fe31Cr27_14,-228.723918597942, 183.772308572111,Ni41Fe31Cr27,"# generated using pymatgen
 data_Cr8Fe8Ni11
_symmetry_space_group_name_H-M   'P 1'
_cell_length_a   7.46378903
_cell_length_b   7.46378903
_cell_length_c   10.55539167
_cell_angle_alpha   90.00000000
_cell_angle_beta   90.00000000
_cell_angle_gamma   90.00000000
_symmetry_Int_Tables_number   1
_chemical_formula_structural   Cr8Fe8Ni11
_chemical_formula_sum   'Cr16 Fe16 Ni22'
_cell_volume   588.02130731
_cell_formula_units_Z   2
loop_
 _symmetry_equiv_pos_site_id
 _symmetry_equiv_pos_as_xyz
  1  'x, y, z'
loop_
 _atom_site_type_symbol
 _atom_site_label
 _atom_site_symmetry_multiplicity
 _atom_site_fract_x
 _atom_site_fract_y
 _atom_site_fract_z
 _atom_site_occupancy
  Fe  Fe0  1  0.00165525  0.99884687  0.99899951  1
  Cr  Cr1  1  0.16818432  0.16711456  0.16284939  1
  Cr  Cr2  1  0.99946278  0.99964008  0.33254604  1
  Fe  Fe3  1  0.99820593  0.33583447  0.99836597  1
  Cr  Cr4  1  0.16602653  0.50074026  0.16598576  1
  Cr  Cr5  1  0.00228234  0.33443080  0.33311298  1
  Ni  Ni6  1  0.00022947  0.66783558  0.99967598  1
  Ni  Ni7  1  0.16732818  0.83288989  0.16632962  1
  Fe  Fe8  1  0.00232950  0.66717874  0.33255726  1
  Fe  Fe9  1  0.33328334  0.99859555  0.99861452  1
  Cr  Cr10  1  0.49932655  0.16792408  0.16709078  1
  Cr  Cr11  1  0.33326513  0.99962420  0.33430356  1
  Ni  Ni12  1  0.33322061  0.33319682  0.99739638  1
  Fe  Fe13  1  0.49989721  0.50052947  0.16715304  1
  Ni  Ni14  1  0.33475318  0.33729258  0.33585548  1
  Cr  Cr15  1  0.33293925  0.66579839  0.99898642  1
  Ni  Ni16  1  0.50053520  0.83336415  0.16836542  1
  Ni  Ni17  1  0.33371454  0.66452759  0.33394272  1
  Cr  Cr18  1  0.66810918  0.99938084  0.99906357  1
  Fe  Fe19  1  0.83286142  0.16770649  0.16615504  1
  Ni  Ni20  1  0.66738480  1.00004205  0.33254647  1
  Ni  Ni21  1  0.66730646  0.33271144  0.99959838  1
  Ni  Ni22  1  0.83139605  0.50056208  0.16643693  1
  Fe  Fe23  1  0.66436284  0.33519051  0.33222162  1
  Cr  Cr24  1  0.66736415  0.66608964  0.99815614  1
  Fe  Fe25  1  0.83407780  0.83104140  0.16738431  1
  Ni  Ni26  1  0.66516310  0.66665237  0.33057710  1
  Cr  Cr27  1  0.16903630  0.16716994  0.50267476  1
  Fe  Fe28  1  0.00309020  0.99805717  0.66851975  1
  Ni  Ni29  1  0.16636783  0.16643808  0.83466261  1
  Ni  Ni30  1  0.16842868  0.50260730  0.50114920  1
  Fe  Fe31  1  0.00172627  0.33568842  0.66877033  1
  Ni  Ni32  1  0.16512047  0.49964319  0.83340434  1
  Ni  Ni33  1  0.16747415  0.83020662  0.50124031  1
  Ni  Ni34  1  0.00454048  0.66581461  0.66762915  1
  Ni  Ni35  1  0.16719641  0.83438051  0.83342435  1
  Ni  Ni36  1  0.50076130  0.16975308  0.50101398  1
  Fe  Fe37  1  0.33197989  0.99806992  0.66850215  1
  Fe  Fe38  1  0.49698322  0.16938240  0.83378422  1
  Ni  Ni39  1  0.49923054  0.49854082  0.49848854  1
  Fe  Fe40  1  0.33431000  0.33652050  0.66809112  1
  Ni  Ni41  1  0.50026178  0.49887804  0.83455372  1
  Cr  Cr42  1  0.49901879  0.83237161  0.49987072  1
  Ni  Ni43  1  0.33091091  0.66421695  0.66771794  1
  Ni  Ni44  1  0.49741250  0.83482669  0.83328150  1
  Cr  Cr45  1  0.83078815  0.16834376  0.50040783  1
  Cr  Cr46  1  0.66656784  0.00268857  0.66877451  1
  Fe  Fe47  1  0.83571607  0.16907640  0.83347180  1
  Cr  Cr48  1  0.83294183  0.50172438  0.50071049  1
  Fe  Fe49  1  0.66459446  0.33585439  0.66890307  1
  Ni  Ni50  1  0.83515858  0.49849944  0.83394735  1
  Cr  Cr51  1  0.83468910  0.83103381  0.49982112  1
  Cr  Cr52  1  0.66465740  0.66591910  0.67163572  1
  Fe  Fe53  1  0.83815953  0.83134118  0.83306685  1
" 