6979,Ni41Fe31Cr27_6,-229.056118116856, 184.669651649861,Ni41Fe31Cr27,"# generated using pymatgen
 data_Cr8Fe8Ni11
_symmetry_space_group_name_H-M   'P 1'
_cell_length_a   7.46411017
_cell_length_b   7.46411017
_cell_length_c   10.55584584
_cell_angle_alpha   90.00000000
_cell_angle_beta   90.00000000
_cell_angle_gamma   90.00000000
_symmetry_Int_Tables_number   1
_chemical_formula_structural   Cr8Fe8Ni11
_chemical_formula_sum   'Cr16 Fe16 Ni22'
_cell_volume   588.09721324
_cell_formula_units_Z   2
loop_
 _symmetry_equiv_pos_site_id
 _symmetry_equiv_pos_as_xyz
  1  'x, y, z'
loop_
 _atom_site_type_symbol
 _atom_site_label
 _atom_site_symmetry_multiplicity
 _atom_site_fract_x
 _atom_site_fract_y
 _atom_site_fract_z
 _atom_site_occupancy
  Cr  Cr0  1  0.00216706  0.00250311  0.00244303  1
  Ni  Ni1  1  0.16849078  0.16878281  0.16774812  1
  Ni  Ni2  1  0.99919067  0.99975111  0.33353743  1
  Fe  Fe3  1  0.00271923  0.33406160  0.00195028  1
  Ni  Ni4  1  0.16606063  0.49824405  0.16851154  1
  Ni  Ni5  1  0.00195967  0.33454043  0.33141583  1
  Cr  Cr6  1  0.00077448  0.66334884  0.00223397  1
  Ni  Ni7  1  0.16873657  0.83376039  0.16977632  1
  Ni  Ni8  1  0.00194523  0.66613379  0.33303494  1
  Ni  Ni9  1  0.33433192  0.00472881  0.99993074  1
  Fe  Fe10  1  0.49883028  0.16895363  0.16742754  1
  Fe  Fe11  1  0.33068494  0.99922243  0.33284803  1
  Fe  Fe12  1  0.33231051  0.33324980  0.00028401  1
  Fe  Fe13  1  0.49834342  0.49883217  0.16794665  1
  Ni  Ni14  1  0.33350554  0.33660979  0.33177822  1
  Cr  Cr15  1  0.33298686  0.66445378  0.99926787  1
  Cr  Cr16  1  0.49778894  0.83448117  0.16723899  1
  Ni  Ni17  1  0.33281879  0.66374427  0.33496880  1
  Fe  Fe18  1  0.66433093  0.00207297  0.00063646  1
  Fe  Fe19  1  0.83494947  0.16843585  0.16905615  1
  Ni  Ni20  1  0.66758976  0.00034081  0.33316501  1
  Fe  Fe21  1  0.66548711  0.33291546  0.00119266  1
  Ni  Ni22  1  0.83366541  0.49664504  0.16735162  1
  Fe  Fe23  1  0.66777993  0.33484153  0.33080263  1
  Cr  Cr24  1  0.66662754  0.66406085  0.99992867  1
  Cr  Cr25  1  0.83337835  0.83210964  0.16928928  1
  Fe  Fe26  1  0.66732939  0.66581190  0.33460763  1
  Cr  Cr27  1  0.16577112  0.16868755  0.49847269  1
  Ni  Ni28  1  0.00044191  0.99942784  0.66517094  1
  Ni  Ni29  1  0.16711029  0.17020743  0.83425342  1
  Ni  Ni30  1  0.16699824  0.50183943  0.49892144  1
  Fe  Fe31  1  0.00095321  0.33498218  0.66729395  1
  Ni  Ni32  1  0.16627999  0.49733442  0.83292204  1
  Ni  Ni33  1  0.16646867  0.83078131  0.49814787  1
  Fe  Fe34  1  0.00169590  0.66729515  0.66512549  1
  Cr  Cr35  1  0.16828478  0.83312997  0.83301596  1
  Cr  Cr36  1  0.50056108  0.16808285  0.49684472  1
  Cr  Cr37  1  0.33299716  0.00090342  0.66693168  1
  Ni  Ni38  1  0.49960668  0.16833068  0.83724937  1
  Fe  Fe39  1  0.49856666  0.50305299  0.49989807  1
  Cr  Cr40  1  0.33396652  0.33591073  0.66759675  1
  Ni  Ni41  1  0.50036787  0.49962880  0.83241424  1
  Ni  Ni42  1  0.50067156  0.83133926  0.49883924  1
  Fe  Fe43  1  0.33490724  0.66731511  0.66571940  1
  Ni  Ni44  1  0.50031371  0.83298771  0.83393099  1
  Cr  Cr45  1  0.83402043  0.16757825  0.49910486  1
  Cr  Cr46  1  0.66595336  0.99838760  0.66723560  1
  Cr  Cr47  1  0.83452789  0.16870132  0.83331236  1
  Cr  Cr48  1  0.83462155  0.49981445  0.50082049  1
  Fe  Fe49  1  0.66583095  0.33460063  0.66836355  1
  Fe  Fe50  1  0.83321866  0.49887425  0.83214753  1
  Ni  Ni51  1  0.83335579  0.83212185  0.49893806  1
  Ni  Ni52  1  0.66557509  0.66470564  0.66667330  1
  Cr  Cr53  1  0.83277594  0.83196877  0.83290919  1
" 