625,Ni41Fe31Cr27_16,-229.086386304775, 193.663797227068,Ni41Fe31Cr27,"# generated using pymatgen
 data_Cr8Fe8Ni11
_symmetry_space_group_name_H-M   'P 1'
_cell_length_a   7.45463482
_cell_length_b   7.45463482
_cell_length_c   10.54244566
_cell_angle_alpha   90.00000000
_cell_angle_beta   90.00000000
_cell_angle_gamma   90.00000000
_symmetry_Int_Tables_number   1
_chemical_formula_structural   Cr8Fe8Ni11
_chemical_formula_sum   'Cr16 Fe16 Ni22'
_cell_volume   585.86036533
_cell_formula_units_Z   2
loop_
 _symmetry_equiv_pos_site_id
 _symmetry_equiv_pos_as_xyz
  1  'x, y, z'
loop_
 _atom_site_type_symbol
 _atom_site_label
 _atom_site_symmetry_multiplicity
 _atom_site_fract_x
 _atom_site_fract_y
 _atom_site_fract_z
 _atom_site_occupancy
  Ni  Ni0  1  0.99979917  0.00145915  0.99896550  1
  Ni  Ni1  1  0.16585785  0.16530888  0.16713020  1
  Ni  Ni2  1  0.99852170  0.00145187  0.33494686  1
  Fe  Fe3  1  0.00130189  0.33444067  1.00081500  1
  Ni  Ni4  1  0.16332934  0.50193967  0.16612301  1
  Ni  Ni5  1  0.00091589  0.33526413  0.33246051  1
  Ni  Ni6  1  0.00193136  0.66768402  0.00116333  1
  Cr  Cr7  1  0.16745835  0.83601521  0.16776782  1
  Ni  Ni8  1  1.00008384  0.66581963  0.33533678  1
  Fe  Fe9  1  0.33318339  0.00119796  0.99901914  1
  Cr  Cr10  1  0.49940292  0.16764733  0.16910249  1
  Fe  Fe11  1  0.33295182  1.00029465  0.33429555  1
  Cr  Cr12  1  0.33179349  0.33613057  0.99977398  1
  Ni  Ni13  1  0.50502975  0.50123750  0.16509734  1
  Cr  Cr14  1  0.33159947  0.33914527  0.33400031  1
  Ni  Ni15  1  0.33458498  0.66584134  0.00093075  1
  Fe  Fe16  1  0.50011956  0.83186793  0.16538192  1
  Cr  Cr17  1  0.33404195  0.66403014  0.33480091  1
  Cr  Cr18  1  0.66933263  1.00022008  0.99958045  1
  Cr  Cr19  1  0.83545212  0.17231252  0.16770845  1
  Cr  Cr20  1  0.66997243  0.99886789  0.33523120  1
  Ni  Ni21  1  0.66668733  0.33385815  0.99955547  1
  Ni  Ni22  1  0.83406100  0.50200890  0.16713999  1
  Ni  Ni23  1  0.66976016  0.33566443  0.33606229  1
  Fe  Fe24  1  0.66736496  0.66668247  0.00101438  1
  Fe  Fe25  1  0.83719045  0.83228166  0.16656066  1
  Cr  Cr26  1  0.66775771  0.66726002  0.33316684  1
  Cr  Cr27  1  0.16699705  0.16637389  0.49997642  1
  Fe  Fe28  1  1.00063762  0.00201008  0.66864737  1
  Ni  Ni29  1  0.16735255  0.16617578  0.83389895  1
  Ni  Ni30  1  0.16253293  0.50056134  0.50254778  1
  Ni  Ni31  1  0.00218449  0.33326947  0.66841058  1
  Fe  Fe32  1  0.16741430  0.49998489  0.83396885  1
  Cr  Cr33  1  0.16702673  0.83500204  0.50114236  1
  Fe  Fe34  1  0.99800950  0.66623409  0.66678749  1
  Cr  Cr35  1  0.16730202  0.83400274  0.83353140  1
  Cr  Cr36  1  0.50102217  0.16834560  0.50054639  1
  Ni  Ni37  1  0.33585204  0.00139624  0.66920594  1
  Ni  Ni38  1  0.50004647  0.16766834  0.83297194  1
  Ni  Ni39  1  0.50555265  0.50093785  0.50338984  1
  Fe  Fe40  1  0.33369482  0.33341572  0.66868227  1
  Fe  Fe41  1  0.50084967  0.50115891  0.83435571  1
  Ni  Ni42  1  0.50062299  0.83407734  0.50102436  1
  Cr  Cr43  1  0.33548012  0.66450727  0.66650297  1
  Ni  Ni44  1  0.50017675  0.83383170  0.83572505  1
  Fe  Fe45  1  0.83590731  0.17113453  0.50053775  1
  Cr  Cr46  1  0.66959575  0.99937060  0.66780591  1
  Fe  Fe47  1  0.83556273  0.16797115  0.83434232  1
  Ni  Ni48  1  0.83427946  0.50022140  0.50041647  1
  Fe  Fe49  1  0.66784084  0.33588858  0.66794941  1
  Cr  Cr50  1  0.83319121  0.50153740  0.83577077  1
  Fe  Fe51  1  0.83484374  0.83125021  0.50152630  1
  Ni  Ni52  1  0.66714732  0.66888386  0.66777952  1
  Fe  Fe53  1  0.83434922  0.83381493  0.83438276  1
" 