3694,Ni41Fe10Cr47_9,-219.929981609022, 150.905730114084,Ni41Fe10Cr47,"# generated using pymatgen
 data_Cr27Fe5Ni22
_symmetry_space_group_name_H-M   'P 1'
_cell_length_a   7.51408638
_cell_length_b   7.51408638
_cell_length_c   10.62652287
_cell_angle_alpha   90.00000000
_cell_angle_beta   90.00000000
_cell_angle_gamma   90.00000000
_symmetry_Int_Tables_number   1
_chemical_formula_structural   Cr27Fe5Ni22
_chemical_formula_sum   'Cr27 Fe5 Ni22'
_cell_volume   599.98935939
_cell_formula_units_Z   1
loop_
 _symmetry_equiv_pos_site_id
 _symmetry_equiv_pos_as_xyz
  1  'x, y, z'
loop_
 _atom_site_type_symbol
 _atom_site_label
 _atom_site_symmetry_multiplicity
 _atom_site_fract_x
 _atom_site_fract_y
 _atom_site_fract_z
 _atom_site_occupancy
  Fe  Fe0  1  -0.00241981  -0.00015305  0.99457205  1
  Cr  Cr1  1  0.16352874  0.16384395  0.16357949  1
  Cr  Cr2  1  0.99631651  -0.00307309  0.33097355  1
  Ni  Ni3  1  0.99670771  0.32787251  0.99523240  1
  Cr  Cr4  1  0.16267906  0.49602215  0.16597927  1
  Ni  Ni5  1  -0.00214897  0.32926025  0.32953538  1
  Cr  Cr6  1  -0.00129218  0.66501452  0.99377009  1
  Cr  Cr7  1  0.16582752  0.83165077  0.16363847  1
  Ni  Ni8  1  -0.00102641  0.66336545  0.33094251  1
  Fe  Fe9  1  0.32825526  -0.00135032  0.99376296  1
  Cr  Cr10  1  0.49280641  0.16129421  0.16414647  1
  Ni  Ni11  1  0.32919376  0.99456222  0.33232184  1
  Cr  Cr12  1  0.33012430  0.33133077  0.99312788  1
  Cr  Cr13  1  0.49612622  0.49933695  0.16452102  1
  Fe  Fe14  1  0.32981988  0.33041186  0.33255060  1
  Cr  Cr15  1  0.32948579  0.66231058  0.99332809  1
  Cr  Cr16  1  0.49493177  0.82996668  0.16379596  1
  Ni  Ni17  1  0.33074405  0.66505798  0.33260886  1
  Cr  Cr18  1  0.66646040  -0.00121989  -0.00259836  1
  Ni  Ni19  1  0.83347670  0.16473582  0.16224093  1
  Cr  Cr20  1  0.66360748  -0.00281508  0.33061170  1
  Cr  Cr21  1  0.66357975  0.32812622  0.99668752  1
  Cr  Cr22  1  0.83211739  0.49685134  0.16482786  1
  Cr  Cr23  1  0.66314844  0.32875210  0.32922545  1
  Fe  Fe24  1  0.66388292  0.66190369  0.99492574  1
  Cr  Cr25  1  0.83016764  0.82830927  0.16237236  1
  Ni  Ni26  1  0.66087518  0.66333051  0.33075777  1
  Ni  Ni27  1  0.16464898  0.16204989  0.49625025  1
  Cr  Cr28  1  -0.00114291  -0.00302303  0.66437703  1
  Ni  Ni29  1  0.16238929  0.16244885  0.83060582  1
  Cr  Cr30  1  0.16161018  0.49460110  0.49435351  1
  Ni  Ni31  1  -0.00223832  0.32805001  0.66607223  1
  Ni  Ni32  1  0.16197034  0.49497875  0.83037706  1
  Ni  Ni33  1  0.16759882  0.83209655  0.49481998  1
  Cr  Cr34  1  0.00078558  0.66493949  0.66440621  1
  Ni  Ni35  1  0.16397796  0.83379630  0.83109814  1
  Cr  Cr36  1  0.49429858  0.16117243  0.49948319  1
  Ni  Ni37  1  0.32987936  0.99659429  0.66436276  1
  Ni  Ni38  1  0.49715380  0.16257104  0.82845030  1
  Ni  Ni39  1  0.49822607  0.49977724  0.49649206  1
  Cr  Cr40  1  0.33000952  0.33100217  0.66567846  1
  Ni  Ni41  1  0.49869083  0.49659602  0.82898234  1
  Ni  Ni42  1  0.49480044  0.82902447  0.49677767  1
  Cr  Cr43  1  0.32909239  0.66385708  0.66353620  1
  Cr  Cr44  1  0.49750337  0.83200065  0.82967492  1
  Cr  Cr45  1  0.83207907  0.16679812  0.50004387  1
  Ni  Ni46  1  0.66201626  -0.00235324  0.66479035  1
  Ni  Ni47  1  0.83085530  0.16372953  0.82948819  1
  Cr  Cr48  1  0.82934798  0.49653324  0.49792985  1
  Ni  Ni49  1  0.66252739  0.32944766  0.66602500  1
  Cr  Cr50  1  0.83004962  0.49607603  0.82760910  1
  Cr  Cr51  1  0.82735530  0.82749385  0.49867060  1
  Ni  Ni52  1  0.66066628  0.66372031  0.66435366  1
  Fe  Fe53  1  0.82985085  0.83230074  0.82883125  1
" 