3608,Ni41Fe10Cr47_5,-219.888747089134, 148.41110624069,Ni41Fe10Cr47,"# generated using pymatgen
 data_Cr27Fe5Ni22
_symmetry_space_group_name_H-M   'P 1'
_cell_length_a   7.51589894
_cell_length_b   7.51589894
_cell_length_c   10.62908622
_cell_angle_alpha   90.00000000
_cell_angle_beta   90.00000000
_cell_angle_gamma   90.00000000
_symmetry_Int_Tables_number   1
_chemical_formula_structural   Cr27Fe5Ni22
_chemical_formula_sum   'Cr27 Fe5 Ni22'
_cell_volume   600.42365481
_cell_formula_units_Z   1
loop_
 _symmetry_equiv_pos_site_id
 _symmetry_equiv_pos_as_xyz
  1  'x, y, z'
loop_
 _atom_site_type_symbol
 _atom_site_label
 _atom_site_symmetry_multiplicity
 _atom_site_fract_x
 _atom_site_fract_y
 _atom_site_fract_z
 _atom_site_occupancy
  Cr  Cr0  1  -0.00305506  -0.00082200  0.99259378  1
  Cr  Cr1  1  0.16321697  0.16522739  0.15926811  1
  Cr  Cr2  1  0.99526832  0.99629044  0.33035041  1
  Ni  Ni3  1  -0.00307774  0.33605086  0.99578329  1
  Ni  Ni4  1  0.16522022  0.49751022  0.15913324  1
  Cr  Cr5  1  0.99523955  0.33304262  0.32639275  1
  Ni  Ni6  1  0.99490435  0.65831031  0.99511150  1
  Cr  Cr7  1  0.16537966  0.82717808  0.15913769  1
  Cr  Cr8  1  0.99469397  0.66206675  0.32879924  1
  Ni  Ni9  1  0.33265839  -0.00195348  0.99543211  1
  Cr  Cr10  1  0.49866966  0.16542062  0.16133819  1
  Cr  Cr11  1  0.33266882  0.99610057  0.33055826  1
  Ni  Ni12  1  0.32985423  0.33199323  0.99458271  1
  Ni  Ni13  1  0.49668438  0.49669585  0.15970605  1
  Cr  Cr14  1  0.33202431  0.33155170  0.33032529  1
  Ni  Ni15  1  0.33149974  0.66050035  -0.00031360  1
  Ni  Ni16  1  0.49758242  0.82692568  0.16092080  1
  Cr  Cr17  1  0.33311112  0.66218917  0.32902814  1
  Cr  Cr18  1  0.66217679  0.99562141  0.99389066  1
  Cr  Cr19  1  0.82739790  0.16715309  0.16479518  1
  Fe  Fe20  1  0.66128664  0.99534661  0.33038158  1
  Ni  Ni21  1  0.66321439  0.33443625  -0.00290893  1
  Fe  Fe22  1  0.82798228  0.49704708  0.15909997  1
  Ni  Ni23  1  0.66117055  0.33085941  0.32846535  1
  Ni  Ni24  1  0.66406608  0.66004733  -0.00295346  1
  Cr  Cr25  1  0.82942410  0.83012732  0.16037601  1
  Cr  Cr26  1  0.66241789  0.66114720  0.32801025  1
  Cr  Cr27  1  0.16407617  0.16601594  0.49859068  1
  Cr  Cr28  1  0.99538775  0.99671878  0.66692880  1
  Fe  Fe29  1  0.16463707  0.16802246  0.83176170  1
  Cr  Cr30  1  0.16264822  0.49691153  0.50082833  1
  Ni  Ni31  1  0.99574095  0.33266074  0.66698632  1
  Ni  Ni32  1  0.16178822  0.49452868  0.82964463  1
  Cr  Cr33  1  0.16027397  0.82755523  0.49698291  1
  Ni  Ni34  1  0.99185391  0.66215235  0.66597960  1
  Cr  Cr35  1  0.16355670  0.82346293  0.83486258  1
  Ni  Ni36  1  0.50120570  0.16274332  0.49839517  1
  Cr  Cr37  1  0.33247420  -0.00056604  0.66563181  1
  Ni  Ni38  1  0.49552037  0.16653370  0.83090193  1
  Cr  Cr39  1  0.49894224  0.49285576  0.50088144  1
  Ni  Ni40  1  0.33183434  0.32748574  0.66555128  1
  Cr  Cr41  1  0.49782302  0.49466683  0.83051099  1
  Fe  Fe42  1  0.50111041  0.83110958  0.49817153  1
  Cr  Cr43  1  0.33231130  0.66215551  0.66211528  1
  Cr  Cr44  1  0.49874460  0.82773275  0.83253637  1
  Cr  Cr45  1  0.82623607  0.16427031  0.49476934  1
  Fe  Fe46  1  0.66345023  -0.00256762  0.66551556  1
  Cr  Cr47  1  0.82564299  0.16886256  0.83001970  1
  Cr  Cr48  1  0.82931460  0.49680175  0.50007110  1
  Ni  Ni49  1  0.66313123  0.33061749  0.66498343  1
  Ni  Ni50  1  0.83142728  0.49788844  0.83069614  1
  Ni  Ni51  1  0.82532039  0.83072665  0.49993612  1
  Ni  Ni52  1  0.66817101  0.66371696  0.66478765  1
  Ni  Ni53  1  0.83020435  0.82538084  0.82916224  1
" 