3247,Ni41Fe31Cr27_17,-229.161444752406, 197.105721311493,Ni41Fe31Cr27,"# generated using pymatgen
 data_Cr8Fe8Ni11
_symmetry_space_group_name_H-M   'P 1'
_cell_length_a   7.45511004
_cell_length_b   7.45511004
_cell_length_c   10.54311773
_cell_angle_alpha   90.00000000
_cell_angle_beta   90.00000000
_cell_angle_gamma   90.00000000
_symmetry_Int_Tables_number   1
_chemical_formula_structural   Cr8Fe8Ni11
_chemical_formula_sum   'Cr16 Fe16 Ni22'
_cell_volume   585.97241555
_cell_formula_units_Z   2
loop_
 _symmetry_equiv_pos_site_id
 _symmetry_equiv_pos_as_xyz
  1  'x, y, z'
loop_
 _atom_site_type_symbol
 _atom_site_label
 _atom_site_symmetry_multiplicity
 _atom_site_fract_x
 _atom_site_fract_y
 _atom_site_fract_z
 _atom_site_occupancy
  Fe  Fe0  1  0.99710645  0.99910047  0.00116906  1
  Ni  Ni1  1  0.16687817  0.16885815  0.16796877  1
  Ni  Ni2  1  0.00302017  0.00124757  0.33393737  1
  Fe  Fe3  1  0.99681116  0.33327156  0.00119407  1
  Cr  Cr4  1  0.16788111  0.50091906  0.16488181  1
  Ni  Ni5  1  0.00140303  0.33339405  0.33381892  1
  Ni  Ni6  1  0.99937947  0.66745551  0.00197055  1
  Fe  Fe7  1  0.16643730  0.83527799  0.16743641  1
  Cr  Cr8  1  0.99785100  0.66867640  0.33371707  1
  Cr  Cr9  1  0.33532755  0.00196992  0.00123972  1
  Ni  Ni10  1  0.50137349  0.16757026  0.16678459  1
  Cr  Cr11  1  0.33314406  0.00091720  0.33493341  1
  Fe  Fe12  1  0.33598462  0.33264194  0.00137234  1
  Cr  Cr13  1  0.50083200  0.50116794  0.16965629  1
  Fe  Fe14  1  0.33215135  0.33408868  0.33424538  1
  Fe  Fe15  1  0.33563688  0.66996825  0.00259208  1
  Ni  Ni16  1  0.50316497  0.83452541  0.16782734  1
  Ni  Ni17  1  0.33676247  0.66972453  0.33475020  1
  Ni  Ni18  1  0.66625077  0.00170114  0.00093355  1
  Cr  Cr19  1  0.83326950  0.16510548  0.16856651  1
  Fe  Fe20  1  0.66820107  0.99578290  0.33309595  1
  Ni  Ni21  1  0.66798880  0.33261583  0.99921138  1
  Ni  Ni22  1  0.83390081  0.50048427  0.16687586  1
  Fe  Fe23  1  0.66889095  0.33616872  0.33269515  1
  Cr  Cr24  1  0.67155436  0.66886886  0.00110509  1
  Ni  Ni25  1  0.83291561  0.83511999  0.16777753  1
  Ni  Ni26  1  0.66709233  0.66779631  0.33475476  1
  Ni  Ni27  1  0.16527157  0.16677902  0.50124369  1
  Ni  Ni28  1  0.00102641  1.00025794  0.66626993  1
  Cr  Cr29  1  0.16343841  0.16724150  0.83311574  1
  Cr  Cr30  1  0.16807627  0.50160976  0.50104555  1
  Ni  Ni31  1  0.99951562  0.33497042  0.66809247  1
  Cr  Cr32  1  0.16750837  0.50274238  0.83649249  1
  Ni  Ni33  1  0.16657384  0.83439429  0.50238250  1
  Ni  Ni34  1  0.99656872  0.66771093  0.66665684  1
  Cr  Cr35  1  0.16538467  0.83182759  0.83253953  1
  Cr  Cr36  1  0.50341093  0.16787421  0.49925369  1
  Fe  Fe37  1  0.33238066  0.99774769  0.66537098  1
  Fe  Fe38  1  0.50294752  0.16676200  0.83556276  1
  Fe  Fe39  1  0.50311054  0.50371522  0.50016183  1
  Cr  Cr40  1  0.33469153  0.33046848  0.66618538  1
  Cr  Cr41  1  0.50028575  0.50250662  0.83362915  1
  Ni  Ni42  1  0.50193112  0.83106993  0.50189142  1
  Fe  Fe43  1  0.33457217  0.66968652  0.66546188  1
  Fe  Fe44  1  0.50189791  0.83458327  0.83399061  1
  Cr  Cr45  1  0.83603450  0.16570554  0.49924438  1
  Cr  Cr46  1  0.66650877  0.99906564  0.66964190  1
  Ni  Ni47  1  0.83285821  0.16630039  0.83484476  1
  Fe  Fe48  1  0.83294321  0.50166122  0.50079900  1
  Fe  Fe49  1  0.67214493  0.33573003  0.66907280  1
  Fe  Fe50  1  0.83581658  0.50103034  0.83392300  1
  Ni  Ni51  1  0.83370108  0.83429781  0.50064527  1
  Ni  Ni52  1  0.66935258  0.66708429  0.66699374  1
  Ni  Ni53  1  0.83407268  0.83599260  0.83421154  1
" 