3785,Ni41Cr59_9,-222.647355686719, 132.3607490795,Ni41Cr59,"# generated using pymatgen
 data_Cr11Ni16
_symmetry_space_group_name_H-M   'P 1'
_cell_length_a   7.51092375
_cell_length_b   7.51092375
_cell_length_c   10.62205023
_cell_angle_alpha   90.00000000
_cell_angle_beta   90.00000000
_cell_angle_gamma   90.00000000
_symmetry_Int_Tables_number   1
_chemical_formula_structural   Cr11Ni16
_chemical_formula_sum   'Cr22 Ni32'
_cell_volume   599.23208177
_cell_formula_units_Z   2
loop_
 _symmetry_equiv_pos_site_id
 _symmetry_equiv_pos_as_xyz
  1  'x, y, z'
loop_
 _atom_site_type_symbol
 _atom_site_label
 _atom_site_symmetry_multiplicity
 _atom_site_fract_x
 _atom_site_fract_y
 _atom_site_fract_z
 _atom_site_occupancy
  Cr  Cr0  1  -0.00180063  -0.00284158  0.99451211  1
  Ni  Ni1  1  0.16583802  0.16358317  0.16551686  1
  Ni  Ni2  1  -0.00145674  0.99700027  0.33093724  1
  Cr  Cr3  1  0.99594512  0.32980514  0.99562511  1
  Cr  Cr4  1  0.16652854  0.49358876  0.16211078  1
  Ni  Ni5  1  -0.00163060  0.32987906  0.33107721  1
  Cr  Cr6  1  0.99293258  0.66497833  -0.00127595  1
  Cr  Cr7  1  0.16550168  0.83489068  0.16279126  1
  Cr  Cr8  1  0.99590042  0.66291909  0.33037311  1
  Ni  Ni9  1  0.33137417  -0.00288128  0.99516170  1
  Cr  Cr10  1  0.49653515  0.16372095  0.16552603  1
  Ni  Ni11  1  0.32975859  -0.00071888  0.33129546  1
  Ni  Ni12  1  0.33262087  0.32807215  -0.00256487  1
  Ni  Ni13  1  0.49874775  0.49642184  0.16092320  1
  Ni  Ni14  1  0.32973570  0.32786677  0.33143710  1
  Ni  Ni15  1  0.33410386  0.66597424  -0.00241168  1
  Ni  Ni16  1  0.49768866  0.83006243  0.16193362  1
  Cr  Cr17  1  0.33107149  0.66328431  0.32971391  1
  Cr  Cr18  1  0.66301560  0.99465480  0.99449961  1
  Cr  Cr19  1  0.83222984  0.16312714  0.16764815  1
  Ni  Ni20  1  0.66281547  0.99604316  0.33059226  1
  Ni  Ni21  1  0.66244213  0.33281061  0.99602962  1
  Ni  Ni22  1  0.82648853  0.49546159  0.16348084  1
  Ni  Ni23  1  0.66303862  0.33117207  0.33053063  1
  Ni  Ni24  1  0.66208576  0.66292202  -0.00152549  1
  Ni  Ni25  1  0.82737746  0.83050012  0.16528870  1
  Cr  Cr26  1  0.66451445  0.66359005  0.32672305  1
  Ni  Ni27  1  0.16397382  0.16324162  0.49189864  1
  Cr  Cr28  1  -0.00178240  0.99665137  0.66684962  1
  Ni  Ni29  1  0.16640010  0.16245889  0.83408726  1
  Ni  Ni30  1  0.16203161  0.49735386  0.49756050  1
  Cr  Cr31  1  -0.00247922  0.33125155  0.66479276  1
  Cr  Cr32  1  0.16477172  0.50068269  0.83033695  1
  Ni  Ni33  1  0.16216326  0.83089876  0.49798030  1
  Ni  Ni34  1  0.99608405  0.66496183  0.66250386  1
  Ni  Ni35  1  0.16559279  0.83049617  0.83046134  1
  Ni  Ni36  1  0.49544303  0.16362925  0.49240616  1
  Cr  Cr37  1  0.33045808  -0.00134215  0.66494854  1
  Ni  Ni38  1  0.49632158  0.16321983  0.83345070  1
  Cr  Cr39  1  0.49737866  0.49655104  0.49859190  1
  Cr  Cr40  1  0.32938984  0.32718855  0.66138570  1
  Cr  Cr41  1  0.49682311  0.49914301  0.83167114  1
  Cr  Cr42  1  0.49799481  0.83195145  0.49798717  1
  Ni  Ni43  1  0.32848905  0.66616653  0.66329857  1
  Ni  Ni44  1  0.49611926  0.82954864  0.83128432  1
  Cr  Cr45  1  0.82907124  0.16193455  0.49237063  1
  Cr  Cr46  1  0.66240820  0.99699581  0.66638960  1
  Ni  Ni47  1  0.82906054  0.16464590  0.83190384  1
  Ni  Ni48  1  0.83218849  0.49813129  0.49743309  1
  Cr  Cr49  1  0.66366870  0.32960653  0.66516264  1
  Ni  Ni50  1  0.82838448  0.49962119  0.83041319  1
  Ni  Ni51  1  0.83261519  0.82899578  0.49697189  1
  Ni  Ni52  1  0.66665808  0.66496645  0.66503568  1
  Ni  Ni53  1  0.82964506  0.82743821  0.82915004  1
" 