7595,Ni41Fe31Cr27_3,-229.369416791327, 190.801624150278,Ni41Fe31Cr27,"# generated using pymatgen
 data_Cr8Fe8Ni11
_symmetry_space_group_name_H-M   'P 1'
_cell_length_a   7.46052059
_cell_length_b   7.46052059
_cell_length_c   10.55076940
_cell_angle_alpha   90.00000000
_cell_angle_beta   90.00000000
_cell_angle_gamma   90.00000000
_symmetry_Int_Tables_number   1
_chemical_formula_structural   Cr8Fe8Ni11
_chemical_formula_sum   'Cr16 Fe16 Ni22'
_cell_volume   587.24915044
_cell_formula_units_Z   2
loop_
 _symmetry_equiv_pos_site_id
 _symmetry_equiv_pos_as_xyz
  1  'x, y, z'
loop_
 _atom_site_type_symbol
 _atom_site_label
 _atom_site_symmetry_multiplicity
 _atom_site_fract_x
 _atom_site_fract_y
 _atom_site_fract_z
 _atom_site_occupancy
  Ni  Ni0  1  0.00049870  0.99906022  0.00098123  1
  Fe  Fe1  1  0.16678612  0.16727313  0.16809464  1
  Ni  Ni2  1  0.00172365  0.00140412  0.33062112  1
  Cr  Cr3  1  0.99860088  0.33280111  0.00443698  1
  Ni  Ni4  1  0.16964550  0.50058745  0.16640557  1
  Fe  Fe5  1  0.00415217  0.33217359  0.33108609  1
  Ni  Ni6  1  0.00427979  0.66776029  0.99932988  1
  Ni  Ni7  1  0.16656719  0.82998916  0.16707436  1
  Cr  Cr8  1  0.00379875  0.66619304  0.33476171  1
  Cr  Cr9  1  0.33464158  0.99742105  0.00365753  1
  Ni  Ni10  1  0.50149265  0.16810166  0.16735435  1
  Cr  Cr11  1  0.33338616  0.99834038  0.32973111  1
  Fe  Fe12  1  0.33221601  0.33181122  0.00352620  1
  Ni  Ni13  1  0.49685751  0.50204710  0.16757497  1
  Ni  Ni14  1  0.33485608  0.33464353  0.33294858  1
  Ni  Ni15  1  0.33215200  0.66596152  0.00301748  1
  Ni  Ni16  1  0.50025499  0.83204570  0.16620884  1
  Ni  Ni17  1  0.33396946  0.66481017  0.33204135  1
  Ni  Ni18  1  0.66734983  0.00254268  0.99832636  1
  Ni  Ni19  1  0.83420491  0.16606565  0.16809003  1
  Ni  Ni20  1  0.66596924  0.00418550  0.33107446  1
  Cr  Cr21  1  0.66552837  0.33249796  0.00226839  1
  Ni  Ni22  1  0.83534727  0.50213129  0.16827538  1
  Cr  Cr23  1  0.66688176  0.33676114  0.33263308  1
  Fe  Fe24  1  0.66725491  0.67007058  0.00177125  1
  Cr  Cr25  1  0.83371434  0.83662156  0.16590543  1
  Fe  Fe26  1  0.66412552  0.66925514  0.33137082  1
  Fe  Fe27  1  0.16959516  0.16572425  0.49844716  1
  Cr  Cr28  1  0.00379992  0.00068130  0.66972491  1
  Fe  Fe29  1  0.16724483  0.16727061  0.83539455  1
  Fe  Fe30  1  0.17124717  0.49944496  0.49920287  1
  Cr  Cr31  1  0.99957264  0.33622118  0.66580356  1
  Fe  Fe32  1  0.16679291  0.50053427  0.83548628  1
  Fe  Fe33  1  0.16944005  0.83525397  0.49969410  1
  Fe  Fe34  1  0.00313091  0.66983382  0.66752542  1
  Fe  Fe35  1  0.16927182  0.83224731  0.83596870  1
  Ni  Ni36  1  0.49710359  0.16821660  0.50236153  1
  Ni  Ni37  1  0.33470127  0.99822721  0.66815020  1
  Ni  Ni38  1  0.49676695  0.16442146  0.83144495  1
  Fe  Fe39  1  0.49668481  0.50054229  0.49905203  1
  Fe  Fe40  1  0.33247106  0.33112283  0.66555803  1
  Cr  Cr41  1  0.49306200  0.49863072  0.83596966  1
  Cr  Cr42  1  0.50023660  0.83653415  0.49913847  1
  Ni  Ni43  1  0.32985483  0.66764191  0.66675296  1
  Fe  Fe44  1  0.50210954  0.83422248  0.83478944  1
  Cr  Cr45  1  0.83288836  0.16429743  0.49755124  1
  Ni  Ni46  1  0.66524926  0.00102678  0.67067052  1
  Ni  Ni47  1  0.83269618  0.16334710  0.83481872  1
  Fe  Fe48  1  0.83323944  0.50073886  0.49845373  1
  Cr  Cr49  1  0.66649173  0.33137813  0.66677958  1
  Cr  Cr50  1  0.83537087  0.50415919  0.83536256  1
  Cr  Cr51  1  0.83479646  0.83538807  0.49868968  1
  Cr  Cr52  1  0.66636574  0.66679347  0.66670388  1
  Ni  Ni53  1  0.83718219  0.83716531  0.83555969  1
" 