8858,Ni41Cr59_3,-222.78589035636, 133.504196064651,Ni41Cr59,"# generated using pymatgen
 data_Cr11Ni16
_symmetry_space_group_name_H-M   'P 1'
_cell_length_a   7.51058443
_cell_length_b   7.51058443
_cell_length_c   10.62157036
_cell_angle_alpha   90.00000000
_cell_angle_beta   90.00000000
_cell_angle_gamma   90.00000000
_symmetry_Int_Tables_number   1
_chemical_formula_structural   Cr11Ni16
_chemical_formula_sum   'Cr22 Ni32'
_cell_volume   599.15087110
_cell_formula_units_Z   2
loop_
 _symmetry_equiv_pos_site_id
 _symmetry_equiv_pos_as_xyz
  1  'x, y, z'
loop_
 _atom_site_type_symbol
 _atom_site_label
 _atom_site_symmetry_multiplicity
 _atom_site_fract_x
 _atom_site_fract_y
 _atom_site_fract_z
 _atom_site_occupancy
  Ni  Ni0  1  0.99413518  0.99561566  0.99485331  1
  Cr  Cr1  1  0.16445221  0.16181662  0.16119929  1
  Ni  Ni2  1  0.00036237  0.99237288  0.33125967  1
  Ni  Ni3  1  0.99241945  0.33041379  0.99373155  1
  Cr  Cr4  1  0.16151109  0.49861789  0.16250842  1
  Cr  Cr5  1  -0.00285356  0.32942243  0.33222513  1
  Ni  Ni6  1  0.99063011  0.66490829  0.99691164  1
  Cr  Cr7  1  0.16264136  0.83138409  0.16215224  1
  Ni  Ni8  1  0.99592016  0.66742730  0.32929887  1
  Ni  Ni9  1  0.33430594  -0.00218198  0.99581388  1
  Ni  Ni10  1  0.49674894  0.16231556  0.16239054  1
  Ni  Ni11  1  0.32970311  0.99534122  0.32973495  1
  Cr  Cr12  1  0.33436521  0.33046865  0.99576840  1
  Ni  Ni13  1  0.49980145  0.49854025  0.16486126  1
  Ni  Ni14  1  0.33123570  0.32975460  0.32888497  1
  Cr  Cr15  1  0.33793699  0.66685277  -0.00256801  1
  Ni  Ni16  1  0.49889338  0.83107784  0.16326963  1
  Ni  Ni17  1  0.33200476  0.66612318  0.32909614  1
  Ni  Ni18  1  0.66270705  0.99496258  0.99614029  1
  Cr  Cr19  1  0.83011272  0.16147222  0.15986439  1
  Cr  Cr20  1  0.66396228  0.99327160  0.32697770  1
  Ni  Ni21  1  0.66409789  0.33161883  0.99632186  1
  Ni  Ni22  1  0.82803234  0.50052738  0.16133865  1
  Cr  Cr23  1  0.66190029  0.33254101  0.32692660  1
  Ni  Ni24  1  0.66559487  0.66468648  -0.00244854  1
  Ni  Ni25  1  0.82914063  0.82800562  0.16217979  1
  Ni  Ni26  1  0.66346857  0.66497235  0.32584222  1
  Ni  Ni27  1  0.16709856  0.15958028  0.49484660  1
  Cr  Cr28  1  -0.00261504  0.99636977  0.66325853  1
  Ni  Ni29  1  0.16357328  0.16093868  0.83338067  1
  Cr  Cr30  1  0.16540054  0.50192399  0.49683265  1
  Cr  Cr31  1  0.99659381  0.32937701  0.66561244  1
  Cr  Cr32  1  0.16156988  0.49966445  0.83253615  1
  Ni  Ni33  1  0.16517078  0.83118200  0.49619775  1
  Ni  Ni34  1  0.99577934  0.66620664  0.66501374  1
  Cr  Cr35  1  0.16439445  0.83084664  0.83223260  1
  Cr  Cr36  1  0.49650594  0.16063656  0.49672404  1
  Ni  Ni37  1  0.33083045  0.99535816  0.66549379  1
  Ni  Ni38  1  0.49880113  0.16052306  0.83193692  1
  Cr  Cr39  1  0.49753256  0.50037247  0.49731505  1
  Cr  Cr40  1  0.33013429  0.32872835  0.66647191  1
  Ni  Ni41  1  0.50151000  0.49955769  0.82994396  1
  Cr  Cr42  1  0.49652171  0.82967951  0.50017175  1
  Ni  Ni43  1  0.33164523  0.66742721  0.66557749  1
  Ni  Ni44  1  0.50015182  0.83184132  0.82961500  1
  Cr  Cr45  1  0.82848209  0.16005712  0.49706118  1
  Ni  Ni46  1  0.66231271  0.99387145  0.66902796  1
  Ni  Ni47  1  0.82833596  0.16211466  0.83357568  1
  Cr  Cr48  1  0.82810601  0.50120797  0.49790821  1
  Cr  Cr49  1  0.66423764  0.32928537  0.66746400  1
  Ni  Ni50  1  0.82769215  0.49922758  0.83253870  1
  Cr  Cr51  1  0.82890751  0.82883577  0.49749348  1
  Ni  Ni52  1  0.66398723  0.66633947  0.66900596  1
  Ni  Ni53  1  0.82759781  0.83000604  0.83171725  1
" 