3748,Ni41Fe10Cr47_12,-220.159248060152, 154.593130198577,Ni41Fe10Cr47,"# generated using pymatgen
 data_Cr27Fe5Ni22
_symmetry_space_group_name_H-M   'P 1'
_cell_length_a   7.51263002
_cell_length_b   7.51263002
_cell_length_c   10.62446327
_cell_angle_alpha   90.00000000
_cell_angle_beta   90.00000000
_cell_angle_gamma   90.00000000
_symmetry_Int_Tables_number   1
_chemical_formula_structural   Cr27Fe5Ni22
_chemical_formula_sum   'Cr27 Fe5 Ni22'
_cell_volume   599.64056192
_cell_formula_units_Z   1
loop_
 _symmetry_equiv_pos_site_id
 _symmetry_equiv_pos_as_xyz
  1  'x, y, z'
loop_
 _atom_site_type_symbol
 _atom_site_label
 _atom_site_symmetry_multiplicity
 _atom_site_fract_x
 _atom_site_fract_y
 _atom_site_fract_z
 _atom_site_occupancy
  Cr  Cr0  1  -0.00096812  -0.00213280  0.00076852  1
  Ni  Ni1  1  0.16640525  0.16286284  0.16269000  1
  Cr  Cr2  1  -0.00096406  0.99531118  0.32785608  1
  Cr  Cr3  1  -0.00082671  0.33061163  0.99680134  1
  Cr  Cr4  1  0.17094136  0.49793015  0.16361861  1
  Cr  Cr5  1  -0.00297591  0.33054340  0.32861016  1
  Cr  Cr6  1  -0.00132449  0.66201710  -0.00118528  1
  Ni  Ni7  1  0.16794869  0.83133707  0.16403990  1
  Cr  Cr8  1  -0.00149553  0.66591341  0.33123142  1
  Ni  Ni9  1  0.32814641  -0.00286915  -0.00199777  1
  Cr  Cr10  1  0.49523414  0.16696846  0.16524196  1
  Fe  Fe11  1  0.33089046  0.99523745  0.33100254  1
  Ni  Ni12  1  0.32996292  0.33129142  0.99626130  1
  Ni  Ni13  1  0.49569669  0.49783860  0.16421528  1
  Ni  Ni14  1  0.33275266  0.33019328  0.32884561  1
  Ni  Ni15  1  0.33281023  0.66265815  0.99574438  1
  Cr  Cr16  1  0.49505876  0.82537777  0.16115292  1
  Ni  Ni17  1  0.33226961  0.66524633  0.33029888  1
  Cr  Cr18  1  0.66095134  0.99646751  0.99672220  1
  Ni  Ni19  1  0.83100333  0.16488595  0.16418995  1
  Cr  Cr20  1  0.66218022  0.99662336  0.33212738  1
  Cr  Cr21  1  0.66195137  0.33198722  -0.00184374  1
  Cr  Cr22  1  0.82445976  0.49791960  0.16559773  1
  Ni  Ni23  1  0.66062213  0.33136088  0.33004610  1
  Ni  Ni24  1  0.65916367  0.66128566  0.99465388  1
  Cr  Cr25  1  0.82882910  0.82954432  0.16225593  1
  Ni  Ni26  1  0.66053309  0.66303767  0.33205427  1
  Cr  Cr27  1  0.16485486  0.16379540  0.49793101  1
  Ni  Ni28  1  -0.00178654  0.99673170  0.66254680  1
  Ni  Ni29  1  0.16373025  0.16476892  0.83041354  1
  Cr  Cr30  1  0.16594612  0.49747570  0.49756233  1
  Ni  Ni31  1  -0.00265997  0.33073443  0.66625515  1
  Fe  Fe32  1  0.16623657  0.49641565  0.83032695  1
  Ni  Ni33  1  0.16509797  0.82942746  0.49653417  1
  Cr  Cr34  1  -0.00238903  0.66245538  0.66131927  1
  Cr  Cr35  1  0.16483956  0.83127130  0.83057134  1
  Ni  Ni36  1  0.49653233  0.16351681  0.49416029  1
  Cr  Cr37  1  0.33120756  0.99479032  0.66100506  1
  Cr  Cr38  1  0.49394453  0.16465906  0.83139246  1
  Cr  Cr39  1  0.49624790  0.49718167  0.49361748  1
  Cr  Cr40  1  0.33033734  0.33187853  0.66578645  1
  Ni  Ni41  1  0.49572805  0.50144584  0.83207626  1
  Ni  Ni42  1  0.49669189  0.82682039  0.49797462  1
  Ni  Ni43  1  0.33276504  0.66434855  0.66453588  1
  Fe  Fe44  1  0.49495825  0.82789420  0.83068833  1
  Cr  Cr45  1  0.83043900  0.16438387  0.49861212  1
  Cr  Cr46  1  0.66111377  0.99431529  0.66194727  1
  Cr  Cr47  1  0.83352052  0.16244712  0.82886081  1
  Fe  Fe48  1  0.82840614  0.49884349  0.49621219  1
  Cr  Cr49  1  0.66257973  0.33291270  0.66269882  1
  Fe  Fe50  1  0.82897970  0.49740235  0.82962595  1
  Ni  Ni51  1  0.82938594  0.82846004  0.49831563  1
  Ni  Ni52  1  0.66171820  0.66340016  0.66379807  1
  Cr  Cr53  1  0.82849712  0.82895440  0.83041138  1
" 