233,Ni41Cr59_15,-222.986503553901, 136.312498034612,Ni41Cr59,"# generated using pymatgen
 data_Cr11Ni16
_symmetry_space_group_name_H-M   'P 1'
_cell_length_a   7.50401221
_cell_length_b   7.50401221
_cell_length_c   10.61227584
_cell_angle_alpha   90.00000000
_cell_angle_beta   90.00000000
_cell_angle_gamma   90.00000000
_symmetry_Int_Tables_number   1
_chemical_formula_structural   Cr11Ni16
_chemical_formula_sum   'Cr22 Ni32'
_cell_volume   597.57936633
_cell_formula_units_Z   2
loop_
 _symmetry_equiv_pos_site_id
 _symmetry_equiv_pos_as_xyz
  1  'x, y, z'
loop_
 _atom_site_type_symbol
 _atom_site_label
 _atom_site_symmetry_multiplicity
 _atom_site_fract_x
 _atom_site_fract_y
 _atom_site_fract_z
 _atom_site_occupancy
  Ni  Ni0  1  -0.00214834  0.99699981  0.99726878  1
  Ni  Ni1  1  0.16468804  0.16459274  0.16131823  1
  Cr  Cr2  1  -0.00213480  0.99475872  0.32821359  1
  Ni  Ni3  1  0.00224509  0.33010267  0.99616219  1
  Ni  Ni4  1  0.16467398  0.49883645  0.16292150  1
  Ni  Ni5  1  -0.00009323  0.33470539  0.33123975  1
  Ni  Ni6  1  -0.00117806  0.66564732  -0.00127205  1
  Ni  Ni7  1  0.16464968  0.82931007  0.16291265  1
  Ni  Ni8  1  -0.00006162  0.66143386  0.32969934  1
  Ni  Ni9  1  0.33139669  -0.00190011  -0.00220685  1
  Ni  Ni10  1  0.49600353  0.16178861  0.16208608  1
  Cr  Cr11  1  0.33201049  0.99689667  0.32790038  1
  Ni  Ni12  1  0.32805068  0.33012738  -0.00118961  1
  Ni  Ni13  1  0.49409396  0.50007900  0.16177623  1
  Cr  Cr14  1  0.32940441  0.33313844  0.32630175  1
  Ni  Ni15  1  0.33049309  0.66427650  -0.00045253  1
  Ni  Ni16  1  0.49642639  0.83077078  0.16243177  1
  Ni  Ni17  1  0.32816687  0.66352335  0.32866190  1
  Ni  Ni18  1  0.66322614  0.99511434  0.99730167  1
  Cr  Cr19  1  0.83261515  0.16316865  0.16345583  1
  Ni  Ni20  1  0.66292794  0.99587040  0.32718613  1
  Cr  Cr21  1  0.66009619  0.32935081  -0.00229809  1
  Cr  Cr22  1  0.83357730  0.49863136  0.16197901  1
  Cr  Cr23  1  0.66243466  0.33116653  0.32969493  1
  Ni  Ni24  1  0.66288086  0.66899524  -0.00182497  1
  Ni  Ni25  1  0.83128720  0.83079125  0.16195876  1
  Cr  Cr26  1  0.66412272  0.66519397  0.32830815  1
  Cr  Cr27  1  0.16367558  0.16468796  0.49829170  1
  Cr  Cr28  1  -0.00118965  -0.00146189  0.66799632  1
  Ni  Ni29  1  0.16435705  0.16509525  0.83293648  1
  Ni  Ni30  1  0.16224482  0.49833067  0.49671373  1
  Ni  Ni31  1  0.99714732  0.33225240  0.66501735  1
  Ni  Ni32  1  0.16419766  0.49636471  0.83277075  1
  Cr  Cr33  1  0.16738543  0.82863468  0.49768050  1
  Cr  Cr34  1  0.99730450  0.66284931  0.66431470  1
  Cr  Cr35  1  0.16742214  0.82977219  0.83279024  1
  Cr  Cr36  1  0.49791613  0.16257986  0.49802414  1
  Ni  Ni37  1  0.33223520  0.99682080  0.66759353  1
  Ni  Ni38  1  0.49659963  0.16210704  0.83184563  1
  Cr  Cr39  1  0.49712823  0.49942332  0.49944573  1
  Cr  Cr40  1  0.32879100  0.33037425  0.66681136  1
  Cr  Cr41  1  0.49557181  0.50084643  0.83205111  1
  Cr  Cr42  1  0.49554343  0.83064459  0.49931784  1
  Ni  Ni43  1  0.33092223  0.66405822  0.66508805  1
  Ni  Ni44  1  0.49758716  0.83156036  0.83135793  1
  Cr  Cr45  1  0.83096036  0.16717592  0.49604292  1
  Cr  Cr46  1  0.66491365  0.99693764  0.66728789  1
  Ni  Ni47  1  0.83191513  0.16426953  0.83201067  1
  Ni  Ni48  1  0.83332203  0.49694110  0.49838390  1
  Ni  Ni49  1  0.66635733  0.33152838  0.66505891  1
  Cr  Cr50  1  0.83175541  0.49757682  0.83239208  1
  Cr  Cr51  1  0.83028769  0.82937939  0.49575257  1
  Ni  Ni52  1  0.66399818  0.66360415  0.66564193  1
  Ni  Ni53  1  0.82879414  0.83127530  0.83484614  1
" 