5211,Ni41Fe10Cr47_6,-219.785516817723, 150.338406592501,Ni41Fe10Cr47,"# generated using pymatgen
 data_Cr27Fe5Ni22
_symmetry_space_group_name_H-M   'P 1'
_cell_length_a   7.51226463
_cell_length_b   7.51226463
_cell_length_c   10.62394652
_cell_angle_alpha   90.00000000
_cell_angle_beta   90.00000000
_cell_angle_gamma   90.00000000
_symmetry_Int_Tables_number   1
_chemical_formula_structural   Cr27Fe5Ni22
_chemical_formula_sum   'Cr27 Fe5 Ni22'
_cell_volume   599.55307090
_cell_formula_units_Z   1
loop_
 _symmetry_equiv_pos_site_id
 _symmetry_equiv_pos_as_xyz
  1  'x, y, z'
loop_
 _atom_site_type_symbol
 _atom_site_label
 _atom_site_symmetry_multiplicity
 _atom_site_fract_x
 _atom_site_fract_y
 _atom_site_fract_z
 _atom_site_occupancy
  Cr  Cr0  1  -0.00261175  0.99582619  -0.00238036  1
  Cr  Cr1  1  0.16564336  0.16680622  0.16670600  1
  Cr  Cr2  1  0.99538546  -0.00124665  0.33238861  1
  Fe  Fe3  1  -0.00051591  0.33268283  -0.00174512  1
  Ni  Ni4  1  0.16508432  0.49751652  0.16383021  1
  Ni  Ni5  1  0.99652601  0.33348109  0.33109599  1
  Fe  Fe6  1  -0.00194661  0.66222047  -0.00244397  1
  Cr  Cr7  1  0.16378698  0.82894839  0.16709191  1
  Cr  Cr8  1  -0.00261104  0.66091632  0.33156548  1
  Cr  Cr9  1  0.33331067  -0.00224083  0.99590316  1
  Cr  Cr10  1  0.49712874  0.16718086  0.16399115  1
  Ni  Ni11  1  0.33179321  0.99368857  0.32862759  1
  Ni  Ni12  1  0.33104244  0.33384020  -0.00163875  1
  Ni  Ni13  1  0.49594462  0.49774612  0.16429654  1
  Fe  Fe14  1  0.33172047  0.33505462  0.32978999  1
  Cr  Cr15  1  0.33089824  0.66221079  -0.00262829  1
  Fe  Fe16  1  0.49696145  0.82828490  0.16286856  1
  Ni  Ni17  1  0.33047836  0.66000448  0.32969645  1
  Ni  Ni18  1  0.66306499  0.99535687  -0.00264599  1
  Cr  Cr19  1  0.82944498  0.16594398  0.16289789  1
  Cr  Cr20  1  0.66291447  -0.00264651  0.32831675  1
  Ni  Ni21  1  0.65949174  0.33084411  -0.00215461  1
  Cr  Cr22  1  0.82852056  0.49682508  0.16026522  1
  Ni  Ni23  1  0.66428583  0.33257986  0.33127975  1
  Ni  Ni24  1  0.66177176  0.66448839  -0.00075359  1
  Fe  Fe25  1  0.82810005  0.82845679  0.16165538  1
  Cr  Cr26  1  0.65931125  0.66025335  0.32971878  1
  Cr  Cr27  1  0.16711826  0.16440326  0.49340498  1
  Cr  Cr28  1  0.99459822  0.00098771  0.66094923  1
  Cr  Cr29  1  0.16830118  0.16715056  0.83087641  1
  Ni  Ni30  1  0.16712417  0.49567464  0.49537147  1
  Cr  Cr31  1  -0.00171387  0.33132755  0.66164443  1
  Ni  Ni32  1  0.16544321  0.49609858  0.83223482  1
  Cr  Cr33  1  0.16819841  0.82903574  0.49878609  1
  Cr  Cr34  1  -0.00220398  0.65850099  0.66226262  1
  Cr  Cr35  1  0.16659128  0.82785179  0.82477129  1
  Cr  Cr36  1  0.49614751  0.16448518  0.49606628  1
  Ni  Ni37  1  0.33514645  -0.00188037  0.66652607  1
  Ni  Ni38  1  0.49744884  0.16290454  0.83167158  1
  Ni  Ni39  1  0.49564426  0.49680643  0.49595304  1
  Ni  Ni40  1  0.33077738  0.33240175  0.66352430  1
  Cr  Cr41  1  0.49759694  0.49605691  0.82939472  1
  Cr  Cr42  1  0.49434622  0.82862816  0.49922485  1
  Ni  Ni43  1  0.33321729  0.65969069  0.66352741  1
  Ni  Ni44  1  0.49944543  0.83098544  0.82925651  1
  Ni  Ni45  1  0.82841135  0.16729228  0.49410959  1
  Ni  Ni46  1  0.65956055  -0.00281754  0.66598536  1
  Cr  Cr47  1  0.82635955  0.16536505  0.83270586  1
  Ni  Ni48  1  0.82878215  0.49424551  0.49546286  1
  Cr  Cr49  1  0.66313021  0.33010726  0.66032874  1
  Cr  Cr50  1  0.82972363  0.49790730  0.83452581  1
  Cr  Cr51  1  0.82635199  0.82874851  0.49973409  1
  Ni  Ni52  1  0.66003189  0.66288252  0.66283865  1
  Cr  Cr53  1  0.82698133  0.82762102  0.83075268  1
" 