2823,Ni41Fe31Cr27_5,-228.95935108661, 188.030906076167,Ni41Fe31Cr27,"# generated using pymatgen
 data_Cr8Fe8Ni11
_symmetry_space_group_name_H-M   'P 1'
_cell_length_a   7.46021443
_cell_length_b   7.46021443
_cell_length_c   10.55033642
_cell_angle_alpha   90.00000000
_cell_angle_beta   90.00000000
_cell_angle_gamma   90.00000000
_symmetry_Int_Tables_number   1
_chemical_formula_structural   Cr8Fe8Ni11
_chemical_formula_sum   'Cr16 Fe16 Ni22'
_cell_volume   587.17685565
_cell_formula_units_Z   2
loop_
 _symmetry_equiv_pos_site_id
 _symmetry_equiv_pos_as_xyz
  1  'x, y, z'
loop_
 _atom_site_type_symbol
 _atom_site_label
 _atom_site_symmetry_multiplicity
 _atom_site_fract_x
 _atom_site_fract_y
 _atom_site_fract_z
 _atom_site_occupancy
  Fe  Fe0  1  0.00121511  0.00197579  0.00125754  1
  Ni  Ni1  1  0.16517461  0.16577253  0.17066249  1
  Ni  Ni2  1  0.99951692  0.00272297  0.33347540  1
  Cr  Cr3  1  0.99812875  0.33105552  0.00234556  1
  Ni  Ni4  1  0.16818311  0.50168333  0.16904945  1
  Ni  Ni5  1  0.99766277  0.33094216  0.33539633  1
  Cr  Cr6  1  0.00471547  0.67065538  0.99987009  1
  Fe  Fe7  1  0.16837457  0.83662816  0.16915422  1
  Cr  Cr8  1  0.00261494  0.66803866  0.33701359  1
  Fe  Fe9  1  0.33429161  0.99983256  0.00096081  1
  Cr  Cr10  1  0.50112945  0.16375775  0.17001225  1
  Ni  Ni11  1  0.33043601  0.99719688  0.33670497  1
  Cr  Cr12  1  0.33471573  0.33529913  0.00351254  1
  Fe  Fe13  1  0.50142088  0.50073258  0.16793909  1
  Cr  Cr14  1  0.33215444  0.33576562  0.33306289  1
  Ni  Ni15  1  0.33562576  0.67272057  0.00239176  1
  Cr  Cr16  1  0.50119801  0.83249950  0.17206458  1
  Ni  Ni17  1  0.33445502  0.66776295  0.33427741  1
  Fe  Fe18  1  0.66587440  0.00073971  1.00015366  1
  Ni  Ni19  1  0.83510225  0.16611551  0.16824553  1
  Ni  Ni20  1  0.67037628  0.00181730  0.33731825  1
  Ni  Ni21  1  0.66688332  0.32948533  1.00026744  1
  Cr  Cr22  1  0.83238972  0.50077466  0.16895150  1
  Ni  Ni23  1  0.66977297  0.33270276  0.33387800  1
  Ni  Ni24  1  0.66417007  0.66756885  0.00110964  1
  Cr  Cr25  1  0.83253396  0.83623547  0.16932903  1
  Fe  Fe26  1  0.66686749  0.66630394  0.33805456  1
  Fe  Fe27  1  0.16301597  0.16656287  0.50049752  1
  Ni  Ni28  1  0.99957906  0.99956991  0.66592348  1
  Cr  Cr29  1  0.16917053  0.16772737  0.83008356  1
  Fe  Fe30  1  0.16614315  0.49837090  0.50050687  1
  Fe  Fe31  1  0.99863313  0.33244815  0.66229411  1
  Cr  Cr32  1  0.16580826  0.50139508  0.82942802  1
  Fe  Fe33  1  0.16659875  0.83654633  0.50042295  1
  Fe  Fe34  1  0.99909231  0.66806943  0.66216289  1
  Fe  Fe35  1  0.17090587  0.83634813  0.83220194  1
  Cr  Cr36  1  0.49807353  0.16626255  0.49980693  1
  Fe  Fe37  1  0.33543101  0.00066484  0.66546379  1
  Ni  Ni38  1  0.50013868  0.16348897  0.83229541  1
  Ni  Ni39  1  0.50140595  0.50044745  0.49812137  1
  Ni  Ni40  1  0.33584690  0.33350179  0.66445204  1
  Cr  Cr41  1  0.50122416  0.50016569  0.83612012  1
  Fe  Fe42  1  0.50396025  0.83210081  0.49810829  1
  Cr  Cr43  1  0.33648843  0.66825930  0.66477758  1
  Ni  Ni44  1  0.50109165  0.83697612  0.83293902  1
  Ni  Ni45  1  0.83439019  0.16631864  0.50039696  1
  Fe  Fe46  1  0.66693841  0.99990865  0.66518196  1
  Fe  Fe47  1  0.83019067  0.16595561  0.83169231  1
  Ni  Ni48  1  0.83236669  0.49985625  0.50164758  1
  Ni  Ni49  1  0.66569145  0.33251056  0.66691692  1
  Cr  Cr50  1  0.83341132  0.50060870  0.83004694  1
  Ni  Ni51  1  0.83460417  0.83425626  0.50054029  1
  Ni  Ni52  1  0.66682238  0.66710452  0.66353142  1
  Cr  Cr53  1  0.83272415  0.83252022  0.83271183  1
" 