603,Ni41Fe31Cr27_1,-229.516346011224, 189.376769125524,Ni41Fe31Cr27,"# generated using pymatgen
 data_Cr8Fe8Ni11
_symmetry_space_group_name_H-M   'P 1'
_cell_length_a   7.46458178
_cell_length_b   7.46458178
_cell_length_c   10.55651279
_cell_angle_alpha   90.00000000
_cell_angle_beta   90.00000000
_cell_angle_gamma   90.00000000
_symmetry_Int_Tables_number   1
_chemical_formula_structural   Cr8Fe8Ni11
_chemical_formula_sum   'Cr16 Fe16 Ni22'
_cell_volume   588.20869310
_cell_formula_units_Z   2
loop_
 _symmetry_equiv_pos_site_id
 _symmetry_equiv_pos_as_xyz
  1  'x, y, z'
loop_
 _atom_site_type_symbol
 _atom_site_label
 _atom_site_symmetry_multiplicity
 _atom_site_fract_x
 _atom_site_fract_y
 _atom_site_fract_z
 _atom_site_occupancy
  Ni  Ni0  1  0.99773053  0.00053655  0.99885634  1
  Fe  Fe1  1  0.16299008  0.16644781  0.16571114  1
  Cr  Cr2  1  0.99985482  0.00106033  0.33350064  1
  Ni  Ni3  1  0.99801673  0.33266872  1.00011300  1
  Cr  Cr4  1  0.16304646  0.50043907  0.16603937  1
  Ni  Ni5  1  0.99968340  0.33400590  0.33348457  1
  Cr  Cr6  1  0.99844059  0.66619636  1.00004811  1
  Fe  Fe7  1  0.16426541  0.83431978  0.16720112  1
  Fe  Fe8  1  0.99786773  0.66564081  0.33482075  1
  Cr  Cr9  1  0.33104816  0.00159916  0.00243060  1
  Ni  Ni10  1  0.50225999  0.16596704  0.16730285  1
  Fe  Fe11  1  0.33168424  0.99998623  0.33236632  1
  Cr  Cr12  1  0.33200765  0.33428773  0.99845120  1
  Cr  Cr13  1  0.50189517  0.50048302  0.16611831  1
  Cr  Cr14  1  0.33173853  0.33183877  0.33351928  1
  Fe  Fe15  1  0.33250884  0.66578875  0.99777953  1
  Cr  Cr16  1  0.50067690  0.83325049  0.16599200  1
  Fe  Fe17  1  0.33125352  0.66661861  0.33520797  1
  Ni  Ni18  1  0.67027633  0.00040416  0.00144979  1
  Ni  Ni19  1  0.83414630  0.16765962  0.16412368  1
  Cr  Cr20  1  0.66887458  0.99977814  0.33245362  1
  Ni  Ni21  1  0.66896972  0.33405479  0.00082630  1
  Ni  Ni22  1  0.83489065  0.49905591  0.16897874  1
  Fe  Fe23  1  0.67127528  0.33369502  0.33238988  1
  Fe  Fe24  1  0.67019758  0.66487097  0.99971487  1
  Ni  Ni25  1  0.83402494  0.83339072  0.16620824  1
  Ni  Ni26  1  0.66936950  0.66561237  0.33352189  1
  Fe  Fe27  1  0.16282228  0.16910331  0.50174660  1
  Fe  Fe28  1  0.00050410  0.99950749  0.66739568  1
  Ni  Ni29  1  0.16266337  0.16895297  0.83240399  1
  Ni  Ni30  1  0.16542104  0.50038816  0.50129637  1
  Ni  Ni31  1  0.00147072  0.33473415  0.66714282  1
  Ni  Ni32  1  0.16529854  0.49908920  0.83200233  1
  Fe  Fe33  1  0.16429202  0.83149121  0.50077915  1
  Ni  Ni34  1  0.00063527  0.66576933  0.66553953  1
  Fe  Fe35  1  0.16438180  0.83191058  0.83250119  1
  Cr  Cr36  1  0.50173898  0.16887381  0.50058082  1
  Cr  Cr37  1  0.33045376  0.00106811  0.66591403  1
  Cr  Cr38  1  0.50203656  0.16841874  0.83317406  1
  Fe  Fe39  1  0.50046547  0.50030710  0.50085118  1
  Ni  Ni40  1  0.33099108  0.33646430  0.66687455  1
  Ni  Ni41  1  0.49926416  0.50021559  0.83263180  1
  Cr  Cr42  1  0.49969508  0.83205067  0.49893730  1
  Ni  Ni43  1  0.33075942  0.66299835  0.66718102  1
  Cr  Cr44  1  0.50134855  0.83220113  0.83587618  1
  Ni  Ni45  1  0.83607942  0.16880038  0.50233452  1
  Cr  Cr46  1  0.67160309  0.99977510  0.66760706  1
  Fe  Fe47  1  0.83606391  0.16933821  0.83495405  1
  Fe  Fe48  1  0.83549157  0.49906611  0.49941081  1
  Fe  Fe49  1  0.66851094  0.33629264  0.66791281  1
  Ni  Ni50  1  0.83601560  0.49944073  0.83342263  1
  Ni  Ni51  1  0.83611385  0.83287540  0.50013784  1
  Cr  Cr52  1  0.66958516  0.66570052  0.66766835  1
  Ni  Ni53  1  0.83621976  0.83442901  0.83403236  1
" 