8302,Ni41Fe31Cr27_9,-229.406052411638, 195.751817713671,Ni41Fe31Cr27,"# generated using pymatgen
 data_Cr8Fe8Ni11
_symmetry_space_group_name_H-M   'P 1'
_cell_length_a   7.45499516
_cell_length_b   7.45499516
_cell_length_c   10.54295527
_cell_angle_alpha   90.00000000
_cell_angle_beta   90.00000000
_cell_angle_gamma   90.00000000
_symmetry_Int_Tables_number   1
_chemical_formula_structural   Cr8Fe8Ni11
_chemical_formula_sum   'Cr16 Fe16 Ni22'
_cell_volume   585.94532786
_cell_formula_units_Z   2
loop_
 _symmetry_equiv_pos_site_id
 _symmetry_equiv_pos_as_xyz
  1  'x, y, z'
loop_
 _atom_site_type_symbol
 _atom_site_label
 _atom_site_symmetry_multiplicity
 _atom_site_fract_x
 _atom_site_fract_y
 _atom_site_fract_z
 _atom_site_occupancy
  Cr  Cr0  1  0.00186219  0.99988984  0.00262387  1
  Fe  Fe1  1  0.16748667  0.16631213  0.16744737  1
  Fe  Fe2  1  1.00003872  1.00051856  0.33485374  1
  Fe  Fe3  1  0.99866998  0.33514548  0.99903533  1
  Cr  Cr4  1  0.16621128  0.50314750  0.16480368  1
  Cr  Cr5  1  0.99922173  0.33438172  0.33473590  1
  Ni  Ni6  1  0.99693610  0.66676109  0.00091918  1
  Ni  Ni7  1  0.16524978  0.83415538  0.16911591  1
  Fe  Fe8  1  0.99947269  0.66877647  0.33298550  1
  Ni  Ni9  1  0.33337027  0.00208422  0.00183227  1
  Ni  Ni10  1  0.50210002  0.16810295  0.16693860  1
  Cr  Cr11  1  0.33270011  0.00110217  0.33262568  1
  Cr  Cr12  1  0.33547190  0.33155125  1.00078051  1
  Ni  Ni13  1  0.50404606  0.49917047  0.16848083  1
  Cr  Cr14  1  0.33468086  0.33462145  0.33303425  1
  Cr  Cr15  1  0.33598428  0.66827350  0.99913128  1
  Cr  Cr16  1  0.50263871  0.83456068  0.16607239  1
  Fe  Fe17  1  0.33554842  0.66763166  0.33443594  1
  Cr  Cr18  1  0.66650193  0.99983754  0.99651296  1
  Cr  Cr19  1  0.83058502  0.16734943  0.16829544  1
  Ni  Ni20  1  0.66864804  0.99858968  0.33534507  1
  Ni  Ni21  1  0.66774810  0.33736674  0.00156383  1
  Ni  Ni22  1  0.83221922  0.50297736  0.16663864  1
  Fe  Fe23  1  0.66768777  0.33489389  0.33455011  1
  Fe  Fe24  1  0.66909723  0.66551466  0.99909723  1
  Ni  Ni25  1  0.83595852  0.83209736  0.16806157  1
  Fe  Fe26  1  0.66781229  0.66526829  0.33426872  1
  Ni  Ni27  1  0.16566999  0.16673793  0.50200850  1
  Ni  Ni28  1  0.99990723  0.00207664  0.66566895  1
  Fe  Fe29  1  0.16695942  0.16868222  0.83242361  1
  Cr  Cr30  1  0.16751685  0.50168193  0.50496845  1
  Ni  Ni31  1  0.99913362  0.33332924  0.66884467  1
  Fe  Fe32  1  0.16676458  0.49981932  0.83306330  1
  Fe  Fe33  1  0.16723326  0.83431603  0.50074591  1
  Fe  Fe34  1  0.99883630  0.66536868  0.66944363  1
  Cr  Cr35  1  0.16605958  0.83306366  0.83322189  1
  Cr  Cr36  1  0.50395814  0.16898332  0.50173316  1
  Cr  Cr37  1  0.33486766  1.00057509  0.66757124  1
  Ni  Ni38  1  0.50112940  0.16935833  0.83353682  1
  Ni  Ni39  1  0.50105862  0.50151205  0.50046432  1
  Ni  Ni40  1  0.33446459  0.33492371  0.66858914  1
  Ni  Ni41  1  0.50184432  0.49773599  0.83335810  1
  Fe  Fe42  1  0.50087332  0.83233203  0.50032403  1
  Fe  Fe43  1  0.33554423  0.66516841  0.66889694  1
  Ni  Ni44  1  0.50103736  0.83553039  0.83330970  1
  Ni  Ni45  1  0.83494617  0.16792316  0.50265596  1
  Fe  Fe46  1  0.66994679  0.00357422  0.66987591  1
  Fe  Fe47  1  0.83223273  0.16887574  0.83190207  1
  Ni  Ni48  1  0.83349086  0.49984090  0.50007741  1
  Ni  Ni49  1  0.66886321  0.33673604  0.66616446  1
  Ni  Ni50  1  0.83527656  0.49951330  0.83577077  1
  Cr  Cr51  1  0.83528201  0.83542955  0.50100044  1
  Cr  Cr52  1  0.66736629  0.66687203  0.66993737  1
  Ni  Ni53  1  0.83543973  0.83360937  0.83390819  1
" 