3681,Ni41Cr59_2,-222.856619182479, 133.405601154056,Ni41Cr59,"# generated using pymatgen
 data_Cr11Ni16
_symmetry_space_group_name_H-M   'P 1'
_cell_length_a   7.50756084
_cell_length_b   7.50756084
_cell_length_c   10.61729436
_cell_angle_alpha   90.00000000
_cell_angle_beta   90.00000000
_cell_angle_gamma   90.00000000
_symmetry_Int_Tables_number   1
_chemical_formula_structural   Cr11Ni16
_chemical_formula_sum   'Cr22 Ni32'
_cell_volume   598.42754879
_cell_formula_units_Z   2
loop_
 _symmetry_equiv_pos_site_id
 _symmetry_equiv_pos_as_xyz
  1  'x, y, z'
loop_
 _atom_site_type_symbol
 _atom_site_label
 _atom_site_symmetry_multiplicity
 _atom_site_fract_x
 _atom_site_fract_y
 _atom_site_fract_z
 _atom_site_occupancy
  Ni  Ni0  1  0.99231332  0.99700381  -0.00198186  1
  Cr  Cr1  1  0.16246008  0.15961980  0.16381596  1
  Ni  Ni2  1  0.99691310  0.99413381  0.33150740  1
  Ni  Ni3  1  0.99450578  0.32763974  -0.00143120  1
  Ni  Ni4  1  0.16184285  0.49577435  0.16555220  1
  Cr  Cr5  1  -0.00125962  0.33208983  0.33087296  1
  Cr  Cr6  1  0.99620564  0.66123918  -0.00006641  1
  Ni  Ni7  1  0.15853424  0.82927777  0.16481927  1
  Ni  Ni8  1  -0.00210266  0.66624089  0.33063656  1
  Cr  Cr9  1  0.33427338  -0.00231700  0.99522297  1
  Ni  Ni10  1  0.49997344  0.16637674  0.16577435  1
  Cr  Cr11  1  0.32891550  -0.00121720  0.33623669  1
  Cr  Cr12  1  0.32946688  0.33126420  -0.00074750  1
  Ni  Ni13  1  0.49799715  0.49432918  0.16669256  1
  Ni  Ni14  1  0.33160191  0.33006490  0.33121818  1
  Cr  Cr15  1  0.32957312  0.66305548  -0.00004671  1
  Cr  Cr16  1  0.49765883  0.83287410  0.16344074  1
  Cr  Cr17  1  0.32596289  0.66263850  0.32995553  1
  Ni  Ni18  1  0.66764797  -0.00125970  0.99558069  1
  Ni  Ni19  1  0.82996844  0.16277201  0.16319461  1
  Cr  Cr20  1  0.66548030  -0.00105157  0.33288869  1
  Cr  Cr21  1  0.66524707  0.32799770  -0.00250755  1
  Ni  Ni22  1  0.83108521  0.49605626  0.16563170  1
  Ni  Ni23  1  0.66217285  0.32941197  0.32801212  1
  Cr  Cr24  1  0.66520939  0.66647257  0.99610816  1
  Ni  Ni25  1  0.83405329  0.83260927  0.16433361  1
  Cr  Cr26  1  0.66821412  0.66475660  0.33092026  1
  Ni  Ni27  1  0.16480068  0.16343203  0.49968866  1
  Ni  Ni28  1  -0.00171985  0.99677280  0.66261745  1
  Cr  Cr29  1  0.16071104  0.16343379  0.82923764  1
  Ni  Ni30  1  0.16427877  0.49758294  0.49994232  1
  Ni  Ni31  1  -0.00155160  0.32909337  0.66328480  1
  Cr  Cr32  1  0.16330890  0.49582581  0.82717679  1
  Ni  Ni33  1  0.16147645  0.83117732  0.49888645  1
  Ni  Ni34  1  -0.00182909  0.66605467  0.66149974  1
  Cr  Cr35  1  0.16341511  0.83196790  0.83006451  1
  Ni  Ni36  1  0.49476344  0.16587122  0.49798749  1
  Ni  Ni37  1  0.33038728  -0.00231148  0.66185456  1
  Ni  Ni38  1  0.49876381  0.16294695  0.82800523  1
  Cr  Cr39  1  0.49815822  0.49666084  0.49835108  1
  Ni  Ni40  1  0.32996500  0.32859685  0.66108934  1
  Cr  Cr41  1  0.49674767  0.49958912  0.82527018  1
  Ni  Ni42  1  0.49617465  0.83127288  0.50116366  1
  Ni  Ni43  1  0.32986193  0.66649877  0.66196635  1
  Ni  Ni44  1  0.49956275  0.83341099  0.82787969  1
  Cr  Cr45  1  0.83219749  0.16437290  0.49697805  1
  Cr  Cr46  1  0.66425380  -0.00238525  0.66397406  1
  Ni  Ni47  1  0.83076182  0.16182484  0.83067272  1
  Cr  Cr48  1  0.83092709  0.49850399  0.50080648  1
  Ni  Ni49  1  0.66317565  0.32896673  0.66452006  1
  Cr  Cr50  1  0.83190241  0.49595118  0.82444405  1
  Ni  Ni51  1  0.83443366  0.83029473  0.49836253  1
  Ni  Ni52  1  0.66487171  0.66738248  0.66388390  1
  Ni  Ni53  1  0.83058596  0.83365771  0.82905750  1
" 