7937,Ni41Fe31Cr27_4,-229.06810462681, 185.081960195528,Ni41Fe31Cr27,"# generated using pymatgen
 data_Cr8Fe8Ni11
_symmetry_space_group_name_H-M   'P 1'
_cell_length_a   7.46296601
_cell_length_b   7.46296601
_cell_length_c   10.55422775
_cell_angle_alpha   90.00000000
_cell_angle_beta   90.00000000
_cell_angle_gamma   90.00000000
_symmetry_Int_Tables_number   1
_chemical_formula_structural   Cr8Fe8Ni11
_chemical_formula_sum   'Cr16 Fe16 Ni22'
_cell_volume   587.82680957
_cell_formula_units_Z   2
loop_
 _symmetry_equiv_pos_site_id
 _symmetry_equiv_pos_as_xyz
  1  'x, y, z'
loop_
 _atom_site_type_symbol
 _atom_site_label
 _atom_site_symmetry_multiplicity
 _atom_site_fract_x
 _atom_site_fract_y
 _atom_site_fract_z
 _atom_site_occupancy
  Fe  Fe0  1  0.00165611  0.00165476  0.99991896  1
  Ni  Ni1  1  0.16879388  0.16845213  0.16892959  1
  Ni  Ni2  1  0.00183466  0.00227659  0.33386722  1
  Cr  Cr3  1  0.00289583  0.33150147  0.00140823  1
  Ni  Ni4  1  0.16994411  0.49736516  0.16831959  1
  Ni  Ni5  1  0.00227160  0.33186402  0.33437251  1
  Cr  Cr6  1  0.00341922  0.66646109  0.99936740  1
  Fe  Fe7  1  0.16807729  0.83614006  0.16866386  1
  Cr  Cr8  1  0.00106994  0.66523383  0.33532479  1
  Cr  Cr9  1  0.33335990  0.00078938  0.99729363  1
  Cr  Cr10  1  0.49845227  0.16604191  0.16729896  1
  Ni  Ni11  1  0.33328262  0.99966478  0.33509300  1
  Ni  Ni12  1  0.33346065  0.33386397  0.99857906  1
  Fe  Fe13  1  0.49767447  0.49905730  0.16683356  1
  Ni  Ni14  1  0.33205141  0.33326657  0.33517451  1
  Cr  Cr15  1  0.33411908  0.66602000  0.00215486  1
  Fe  Fe16  1  0.49841532  0.83374436  0.16772643  1
  Fe  Fe17  1  0.33208008  0.66606342  0.33455123  1
  Ni  Ni18  1  0.66627912  0.00090103  1.00009896  1
  Fe  Fe19  1  0.83616042  0.16600590  0.16759480  1
  Fe  Fe20  1  0.66712977  0.00112796  0.33573434  1
  Fe  Fe21  1  0.66384604  0.33338422  0.99938156  1
  Cr  Cr22  1  0.83391805  0.49982404  0.16609020  1
  Cr  Cr23  1  0.66824003  0.33421391  0.33498301  1
  Ni  Ni24  1  0.66380810  0.66775531  0.99939005  1
  Cr  Cr25  1  0.83213352  0.83599293  0.16539252  1
  Cr  Cr26  1  0.66402875  0.66720950  0.33533054  1
  Fe  Fe27  1  0.16714314  0.16692147  0.49794305  1
  Cr  Cr28  1  0.00057277  0.00124351  0.66782588  1
  Ni  Ni29  1  0.16908056  0.16847284  0.83407106  1
  Ni  Ni30  1  0.16817891  0.49973907  0.50027962  1
  Cr  Cr31  1  0.99953002  0.33236666  0.66495796  1
  Fe  Fe32  1  0.17021271  0.49984882  0.83167520  1
  Fe  Fe33  1  0.16734005  0.83328825  0.50091223  1
  Ni  Ni34  1  0.00255342  0.66575480  0.66535835  1
  Ni  Ni35  1  0.16831920  0.83216245  0.83273974  1
  Ni  Ni36  1  0.49768225  0.16693703  0.49954520  1
  Cr  Cr37  1  0.33499250  0.99999234  0.66826438  1
  Ni  Ni38  1  0.49999686  0.16911539  0.83381555  1
  Fe  Fe39  1  0.49923128  0.49971136  0.50183900  1
  Fe  Fe40  1  0.33434701  0.33444332  0.66668835  1
  Fe  Fe41  1  0.49876677  0.49985131  0.83299621  1
  Ni  Ni42  1  0.49884101  0.83440183  0.49840469  1
  Ni  Ni43  1  0.33443888  0.66635395  0.66650735  1
  Ni  Ni44  1  0.50019365  0.83289983  0.83443544  1
  Ni  Ni45  1  0.83295160  0.16677051  0.49677976  1
  Cr  Cr46  1  0.66532960  0.00222964  0.66501427  1
  Ni  Ni47  1  0.83145762  0.16758615  0.83740694  1
  Ni  Ni48  1  0.83570122  0.50083558  0.50168805  1
  Fe  Fe49  1  0.66531477  0.33347479  0.66523956  1
  Cr  Cr50  1  0.83235327  0.50126987  0.83219817  1
  Ni  Ni51  1  0.83353366  0.83310665  0.50095245  1
  Fe  Fe52  1  0.66503947  0.66727989  0.66481257  1
  Cr  Cr53  1  0.83326222  0.83283376  0.83354225  1
" 