4558,Ni41Fe10Cr47_8,-219.9251608031, 153.660241892056,Ni41Fe10Cr47,"# generated using pymatgen
 data_Cr27Fe5Ni22
_symmetry_space_group_name_H-M   'P 1'
_cell_length_a   7.51113815
_cell_length_b   7.51113815
_cell_length_c   10.62235344
_cell_angle_alpha   90.00000000
_cell_angle_beta   90.00000000
_cell_angle_gamma   90.00000000
_symmetry_Int_Tables_number   1
_chemical_formula_structural   Cr27Fe5Ni22
_chemical_formula_sum   'Cr27 Fe5 Ni22'
_cell_volume   599.28340005
_cell_formula_units_Z   1
loop_
 _symmetry_equiv_pos_site_id
 _symmetry_equiv_pos_as_xyz
  1  'x, y, z'
loop_
 _atom_site_type_symbol
 _atom_site_label
 _atom_site_symmetry_multiplicity
 _atom_site_fract_x
 _atom_site_fract_y
 _atom_site_fract_z
 _atom_site_occupancy
  Cr  Cr0  1  -0.00098651  -0.00111862  0.99451864  1
  Fe  Fe1  1  0.16483606  0.16587901  0.16357307  1
  Cr  Cr2  1  -0.00090450  0.00003942  0.32998787  1
  Ni  Ni3  1  0.99693305  0.33213849  0.00009241  1
  Ni  Ni4  1  0.16174870  0.49650712  0.16317546  1
  Ni  Ni5  1  0.99489161  0.33330137  0.32955459  1
  Ni  Ni6  1  -0.00110801  0.66037351  -0.00243256  1
  Cr  Cr7  1  0.16628133  0.82588847  0.16280071  1
  Cr  Cr8  1  0.99511182  0.65962926  0.33096557  1
  Cr  Cr9  1  0.33220328  -0.00186315  0.99394944  1
  Ni  Ni10  1  0.49901698  0.16387670  0.16396260  1
  Ni  Ni11  1  0.33413899  -0.00247488  0.32983999  1
  Cr  Cr12  1  0.33101318  0.32973275  0.99567652  1
  Cr  Cr13  1  0.49497880  0.49568476  0.16236730  1
  Cr  Cr14  1  0.32869725  0.33081289  0.32885520  1
  Ni  Ni15  1  0.32986540  0.66365125  0.99520051  1
  Cr  Cr16  1  0.49510660  0.83215598  0.16628738  1
  Ni  Ni17  1  0.33037927  0.66412436  0.33162703  1
  Ni  Ni18  1  0.66021595  -0.00036094  0.99659964  1
  Cr  Cr19  1  0.82732125  0.16559309  0.16344794  1
  Fe  Fe20  1  0.66159466  -0.00143790  0.33011160  1
  Ni  Ni21  1  0.66339584  0.32917341  0.99647582  1
  Ni  Ni22  1  0.83295246  0.49219320  0.16203598  1
  Ni  Ni23  1  0.66562900  0.33104581  0.32996153  1
  Cr  Cr24  1  0.66220715  0.66231584  0.99678939  1
  Cr  Cr25  1  0.83014966  0.83072806  0.16054545  1
  Cr  Cr26  1  0.66442253  0.66097061  0.33204917  1
  Cr  Cr27  1  0.16558272  0.16630180  0.49586171  1
  Cr  Cr28  1  -0.00178624  0.99567810  0.66639921  1
  Ni  Ni29  1  0.16438713  0.16585292  0.83101798  1
  Ni  Ni30  1  0.16250764  0.49715015  0.49649339  1
  Cr  Cr31  1  -0.00025319  0.33180104  0.66109984  1
  Cr  Cr32  1  0.16450573  0.49818133  0.83135629  1
  Cr  Cr33  1  0.16724866  0.82789017  0.49658014  1
  Ni  Ni34  1  0.99504087  0.66145846  0.66260382  1
  Ni  Ni35  1  0.16576599  0.82850537  0.83153759  1
  Cr  Cr36  1  0.49812836  0.16320157  0.49708690  1
  Cr  Cr37  1  0.33162360  -0.00079120  0.66756533  1
  Fe  Fe38  1  0.49857226  0.16503615  0.83020100  1
  Cr  Cr39  1  0.49511225  0.49667940  0.49867604  1
  Ni  Ni40  1  0.33310988  0.33086025  0.66617869  1
  Ni  Ni41  1  0.49700723  0.49623524  0.82985084  1
  Ni  Ni42  1  0.49742010  0.83167247  0.49524840  1
  Cr  Cr43  1  0.33144220  0.66322092  0.66412968  1
  Ni  Ni44  1  0.49717748  0.82966839  0.83079442  1
  Cr  Cr45  1  0.82741867  0.16559647  0.49667321  1
  Ni  Ni46  1  0.65956462  0.99523360  0.66446967  1
  Cr  Cr47  1  0.82834674  0.16547216  0.83059787  1
  Ni  Ni48  1  0.83036395  0.49532768  0.49820569  1
  Fe  Fe49  1  0.66190160  0.33157432  0.66460538  1
  Cr  Cr50  1  0.82966992  0.49555442  0.83120357  1
  Cr  Cr51  1  0.82805718  0.83165284  0.49978427  1
  Fe  Fe52  1  0.66267862  0.66387261  0.66418420  1
  Cr  Cr53  1  0.83082363  0.83006292  0.83108603  1
" 