146,Ni41Fe31Cr27_0,-228.988151443523, 195.503642171689,Ni41Fe31Cr27,"# generated using pymatgen
 data_Cr8Fe8Ni11
_symmetry_space_group_name_H-M   'P 1'
_cell_length_a   7.45896352
_cell_length_b   7.45896352
_cell_length_c   10.54856737
_cell_angle_alpha   90.00000000
_cell_angle_beta   90.00000000
_cell_angle_gamma   90.00000000
_symmetry_Int_Tables_number   1
_chemical_formula_structural   Cr8Fe8Ni11
_chemical_formula_sum   'Cr16 Fe16 Ni22'
_cell_volume   586.88153639
_cell_formula_units_Z   2
loop_
 _symmetry_equiv_pos_site_id
 _symmetry_equiv_pos_as_xyz
  1  'x, y, z'
loop_
 _atom_site_type_symbol
 _atom_site_label
 _atom_site_symmetry_multiplicity
 _atom_site_fract_x
 _atom_site_fract_y
 _atom_site_fract_z
 _atom_site_occupancy
  Cr  Cr0  1  0.00156336  0.00329326  0.00156873  1
  Ni  Ni1  1  0.16788916  0.16756407  0.16573746  1
  Ni  Ni2  1  0.00057093  0.00205529  0.33575206  1
  Fe  Fe3  1  0.00195910  0.33583372  0.00233135  1
  Ni  Ni4  1  0.16539156  0.50069507  0.16599959  1
  Cr  Cr5  1  0.00173728  0.33025098  0.33170911  1
  Fe  Fe6  1  1.00025048  0.66405869  0.00181293  1
  Ni  Ni7  1  0.16818619  0.83343816  0.16833280  1
  Fe  Fe8  1  0.00175934  0.66951750  0.33381131  1
  Fe  Fe9  1  0.33574380  0.00205471  1.00049921  1
  Cr  Cr10  1  0.50073437  0.16544852  0.16801468  1
  Fe  Fe11  1  0.33255304  0.00113322  0.33465414  1
  Ni  Ni12  1  0.33180138  0.33259513  1.00040085  1
  Fe  Fe13  1  0.49911337  0.49971893  0.16763949  1
  Fe  Fe14  1  0.33404650  0.33232564  0.33478911  1
  Cr  Cr15  1  0.33668450  0.66684166  0.00158430  1
  Ni  Ni16  1  0.49854668  0.83648492  0.16680339  1
  Cr  Cr17  1  0.33432083  0.66672735  0.33488473  1
  Fe  Fe18  1  0.66402489  1.00033881  1.00035125  1
  Ni  Ni19  1  0.83369274  0.16852860  0.16872757  1
  Ni  Ni20  1  0.66892143  0.00113339  0.33526162  1
  Cr  Cr21  1  0.66765241  0.33592130  0.00089052  1
  Ni  Ni22  1  0.83679096  0.49915044  0.16634373  1
  Fe  Fe23  1  0.66670244  0.33151286  0.33403605  1
  Cr  Cr24  1  0.66645755  0.66773227  1.00005749  1
  Cr  Cr25  1  0.83468667  0.83430537  0.16754027  1
  Cr  Cr26  1  0.66545960  0.66733070  0.33262172  1
  Ni  Ni27  1  0.16709750  0.16587773  0.50048542  1
  Fe  Fe28  1  0.99989447  0.00059359  0.66436999  1
  Fe  Fe29  1  0.16901295  0.16892378  0.83464951  1
  Ni  Ni30  1  0.16858074  0.50266692  0.50203797  1
  Ni  Ni31  1  0.99987401  0.33160246  0.66781136  1
  Cr  Cr32  1  0.16545770  0.50063313  0.83311243  1
  Ni  Ni33  1  0.16521012  0.83306200  0.50006741  1
  Fe  Fe34  1  0.00207138  0.66721909  0.66599806  1
  Cr  Cr35  1  0.16740476  0.83267808  0.83321652  1
  Ni  Ni36  1  0.50269019  0.16756087  0.49905832  1
  Cr  Cr37  1  0.33336479  0.99985782  0.66669812  1
  Ni  Ni38  1  0.50111201  0.16585264  0.83510626  1
  Ni  Ni39  1  0.49831744  0.49783500  0.50065450  1
  Cr  Cr40  1  0.33316679  0.33504989  0.66629277  1
  Ni  Ni41  1  0.50131793  0.49943337  0.83335132  1
  Fe  Fe42  1  0.50034806  0.83549161  0.50048088  1
  Ni  Ni43  1  0.33569191  0.66713484  0.66556789  1
  Ni  Ni44  1  0.50129939  0.83638753  0.83399932  1
  Ni  Ni45  1  0.83179964  0.16423198  0.50097416  1
  Fe  Fe46  1  0.66720471  0.00166185  0.66578882  1
  Cr  Cr47  1  0.83205470  0.16817585  0.83189270  1
  Cr  Cr48  1  0.83507901  0.49972247  0.50151406  1
  Fe  Fe49  1  0.66640476  0.33304231  0.66742003  1
  Ni  Ni50  1  0.83483768  0.50066324  0.83343056  1
  Ni  Ni51  1  0.83654198  0.83749125  0.50131884  1
  Cr  Cr52  1  0.66437431  0.66784104  0.66891221  1
  Fe  Fe53  1  0.83181336  0.83258194  0.83289797  1
" 