8766,Ni41Fe10Cr47_17,-220.126131832138, 154.323409023726,Ni41Fe10Cr47,"# generated using pymatgen
 data_Cr27Fe5Ni22
_symmetry_space_group_name_H-M   'P 1'
_cell_length_a   7.51209234
_cell_length_b   7.51209234
_cell_length_c   10.62370287
_cell_angle_alpha   90.00000000
_cell_angle_beta   90.00000000
_cell_angle_gamma   90.00000000
_symmetry_Int_Tables_number   1
_chemical_formula_structural   Cr27Fe5Ni22
_chemical_formula_sum   'Cr27 Fe5 Ni22'
_cell_volume   599.51182095
_cell_formula_units_Z   1
loop_
 _symmetry_equiv_pos_site_id
 _symmetry_equiv_pos_as_xyz
  1  'x, y, z'
loop_
 _atom_site_type_symbol
 _atom_site_label
 _atom_site_symmetry_multiplicity
 _atom_site_fract_x
 _atom_site_fract_y
 _atom_site_fract_z
 _atom_site_occupancy
  Ni  Ni0  1  0.99628384  0.99498087  0.99636105  1
  Cr  Cr1  1  0.16395073  0.15893247  0.16385193  1
  Ni  Ni2  1  0.99464112  0.99439959  0.32956424  1
  Cr  Cr3  1  -0.00292265  0.32807724  -0.00255087  1
  Ni  Ni4  1  0.16167881  0.49969118  0.16288641  1
  Cr  Cr5  1  0.99696349  0.33131033  0.32956119  1
  Ni  Ni6  1  0.99487001  0.66650397  -0.00164270  1
  Cr  Cr7  1  0.16209482  0.83128450  0.16194410  1
  Ni  Ni8  1  -0.00294014  0.66601509  0.33029117  1
  Ni  Ni9  1  0.33021896  -0.00288486  0.99355148  1
  Cr  Cr10  1  0.49588814  0.16109468  0.16503007  1
  Ni  Ni11  1  0.32938499  0.99513373  0.33178148  1
  Cr  Cr12  1  0.32924766  0.33107185  0.99510331  1
  Cr  Cr13  1  0.49803417  0.49882270  0.16142758  1
  Cr  Cr14  1  0.32781149  0.33267961  0.33028692  1
  Fe  Fe15  1  0.33070620  0.66541334  0.99495199  1
  Cr  Cr16  1  0.49588480  0.83114400  0.16264487  1
  Cr  Cr17  1  0.32767879  0.66346411  0.33321761  1
  Cr  Cr18  1  0.66703785  0.99494319  0.99588323  1
  Ni  Ni19  1  0.83325371  0.15947322  0.16390022  1
  Cr  Cr20  1  0.66762773  0.99505353  0.33108462  1
  Cr  Cr21  1  0.66439186  0.32868942  -0.00289871  1
  Cr  Cr22  1  0.83100864  0.50073104  0.16201509  1
  Cr  Cr23  1  0.66660595  0.32796393  0.32790284  1
  Ni  Ni24  1  0.66502274  0.66626327  0.99463715  1
  Ni  Ni25  1  0.83329136  0.83124123  0.16232143  1
  Cr  Cr26  1  0.66687616  0.66765273  0.33111486  1
  Cr  Cr27  1  0.16147254  0.16126694  0.49700982  1
  Ni  Ni28  1  0.99208710  0.99668787  0.66529025  1
  Ni  Ni29  1  0.16155900  0.16127527  0.83047799  1
  Ni  Ni30  1  0.15871352  0.49708975  0.49827893  1
  Fe  Fe31  1  0.99484719  0.32827835  0.66434016  1
  Cr  Cr32  1  0.16023389  0.49842496  0.82971235  1
  Cr  Cr33  1  0.16024972  0.83190660  0.49635809  1
  Ni  Ni34  1  0.99411246  0.66624342  0.66225280  1
  Cr  Cr35  1  0.15992907  0.83302005  0.83267348  1
  Cr  Cr36  1  0.49844926  0.16157670  0.49596954  1
  Cr  Cr37  1  0.33192128  0.99552868  0.66547064  1
  Fe  Fe38  1  0.49815689  0.16201853  0.82938691  1
  Cr  Cr39  1  0.50097594  0.49699013  0.49862744  1
  Cr  Cr40  1  0.32887354  0.33127570  0.66525489  1
  Ni  Ni41  1  0.50025528  0.49861293  0.83022142  1
  Ni  Ni42  1  0.50102565  0.83247277  0.49851242  1
  Cr  Cr43  1  0.33081787  0.66416060  0.66289798  1
  Ni  Ni44  1  0.50060206  0.82979598  0.83044110  1
  Fe  Fe45  1  0.83106063  0.16102925  0.49884119  1
  Ni  Ni46  1  0.66770003  0.99570953  0.66417903  1
  Fe  Fe47  1  0.83129085  0.16116427  0.82912691  1
  Cr  Cr48  1  0.83075235  0.49817035  0.50067334  1
  Ni  Ni49  1  0.66463246  0.32773520  0.66610935  1
  Cr  Cr50  1  0.82827332  0.50005998  0.82824640  1
  Ni  Ni51  1  0.83097634  0.83106249  0.49901755  1
  Ni  Ni52  1  0.66525914  0.66668940  0.66485585  1
  Ni  Ni53  1  0.82928137  0.83070836  0.82965160  1
" 