6762,Ni41Fe10Cr47_11,-220.201055218494, 158.597826514387,Ni41Fe10Cr47,"# generated using pymatgen
 data_Cr27Fe5Ni22
_symmetry_space_group_name_H-M   'P 1'
_cell_length_a   7.51040798
_cell_length_b   7.51040798
_cell_length_c   10.62132082
_cell_angle_alpha   90.00000000
_cell_angle_beta   90.00000000
_cell_angle_gamma   90.00000000
_symmetry_Int_Tables_number   1
_chemical_formula_structural   Cr27Fe5Ni22
_chemical_formula_sum   'Cr27 Fe5 Ni22'
_cell_volume   599.10864331
_cell_formula_units_Z   1
loop_
 _symmetry_equiv_pos_site_id
 _symmetry_equiv_pos_as_xyz
  1  'x, y, z'
loop_
 _atom_site_type_symbol
 _atom_site_label
 _atom_site_symmetry_multiplicity
 _atom_site_fract_x
 _atom_site_fract_y
 _atom_site_fract_z
 _atom_site_occupancy
  Ni  Ni0  1  -0.00150770  0.00004102  0.00088827  1
  Fe  Fe1  1  0.16360031  0.16553140  0.16482875  1
  Cr  Cr2  1  -0.00019988  -0.00230321  0.33046126  1
  Fe  Fe3  1  0.99472183  0.33148589  0.00062881  1
  Cr  Cr4  1  0.16638628  0.49708030  0.16788167  1
  Ni  Ni5  1  -0.00194845  0.33153653  0.32817873  1
  Cr  Cr6  1  0.99540157  0.66245345  0.99654785  1
  Cr  Cr7  1  0.16478666  0.82814000  0.16258935  1
  Ni  Ni8  1  0.99570596  0.66198950  0.33068840  1
  Fe  Fe9  1  0.33223455  -0.00249345  0.00077365  1
  Ni  Ni10  1  0.49753482  0.16575136  0.16292465  1
  Cr  Cr11  1  0.33140762  -0.00072533  0.32920334  1
  Cr  Cr12  1  0.33344681  0.33000141  0.00008163  1
  Ni  Ni13  1  0.49680122  0.49659489  0.16545057  1
  Ni  Ni14  1  0.33147041  0.33060598  0.33149972  1
  Ni  Ni15  1  0.33197734  0.66319358  -0.00045442  1
  Ni  Ni16  1  0.49693328  0.82808766  0.16491937  1
  Ni  Ni17  1  0.33334538  0.66287703  0.33058636  1
  Cr  Cr18  1  0.66233516  -0.00181652  0.00060311  1
  Ni  Ni19  1  0.83065983  0.16534268  0.16233333  1
  Cr  Cr20  1  0.66036943  0.99677038  0.32891791  1
  Ni  Ni21  1  0.66316347  0.32926768  -0.00137925  1
  Ni  Ni22  1  0.82961331  0.49519999  0.16575380  1
  Cr  Cr23  1  0.66117016  0.33188927  0.32825889  1
  Cr  Cr24  1  0.66339709  0.65879248  0.00088902  1
  Ni  Ni25  1  0.83030882  0.83048133  0.16557130  1
  Ni  Ni26  1  0.66228645  0.66115586  0.32801611  1
  Ni  Ni27  1  0.16775381  0.16555975  0.49387400  1
  Cr  Cr28  1  0.00105810  -0.00280617  0.66041030  1
  Cr  Cr29  1  0.16429806  0.16457682  0.83380676  1
  Cr  Cr30  1  0.16596572  0.49748855  0.49352128  1
  Cr  Cr31  1  -0.00189799  0.33233272  0.66295629  1
  Cr  Cr32  1  0.16695028  0.49739998  0.83050455  1
  Ni  Ni33  1  0.16723695  0.82806749  0.49558522  1
  Cr  Cr34  1  -0.00221667  0.66192809  0.66416185  1
  Cr  Cr35  1  0.16617836  0.82995063  0.83315979  1
  Ni  Ni36  1  0.49317337  0.16803746  0.49744748  1
  Cr  Cr37  1  0.33042494  -0.00119957  0.66103950  1
  Ni  Ni38  1  0.49540616  0.16540818  0.83094724  1
  Ni  Ni39  1  0.49590222  0.49707896  0.49538359  1
  Fe  Fe40  1  0.33097720  0.33129375  0.66108913  1
  Cr  Cr41  1  0.49536926  0.49623553  0.83084258  1
  Fe  Fe42  1  0.49465599  0.82660392  0.49422502  1
  Ni  Ni43  1  0.33174898  0.66406511  0.66094366  1
  Cr  Cr44  1  0.49542854  0.83067417  0.83189160  1
  Cr  Cr45  1  0.82979689  0.16683551  0.49502903  1
  Cr  Cr46  1  0.65906421  -0.00148135  0.66051029  1
  Cr  Cr47  1  0.82828843  0.16385955  0.83232106  1
  Ni  Ni48  1  0.82878749  0.49794765  0.49283800  1
  Cr  Cr49  1  0.66168050  0.33189382  0.66440423  1
  Ni  Ni50  1  0.82958264  0.49311234  0.83332419  1
  Cr  Cr51  1  0.82950376  0.82893884  0.49405908  1
  Cr  Cr52  1  0.66381196  0.66047739  0.66273752  1
  Cr  Cr53  1  0.82978811  0.83290872  0.83046359  1
" 