3907,Ni41Fe31Cr27_10,-228.76574066943, 189.110404478705,Ni41Fe31Cr27,"# generated using pymatgen
 data_Cr8Fe8Ni11
_symmetry_space_group_name_H-M   'P 1'
_cell_length_a   7.45703438
_cell_length_b   7.45703438
_cell_length_c   10.54583915
_cell_angle_alpha   90.00000000
_cell_angle_beta   90.00000000
_cell_angle_gamma   90.00000000
_symmetry_Int_Tables_number   1
_chemical_formula_structural   Cr8Fe8Ni11
_chemical_formula_sum   'Cr16 Fe16 Ni22'
_cell_volume   586.42629223
_cell_formula_units_Z   2
loop_
 _symmetry_equiv_pos_site_id
 _symmetry_equiv_pos_as_xyz
  1  'x, y, z'
loop_
 _atom_site_type_symbol
 _atom_site_label
 _atom_site_symmetry_multiplicity
 _atom_site_fract_x
 _atom_site_fract_y
 _atom_site_fract_z
 _atom_site_occupancy
  Ni  Ni0  1  0.99976907  0.99871810  0.00080366  1
  Ni  Ni1  1  0.16939529  0.16646304  0.16596269  1
  Fe  Fe2  1  0.00246094  0.99865095  0.33063787  1
  Fe  Fe3  1  0.00444390  0.33568052  0.99974547  1
  Fe  Fe4  1  0.16959323  0.49986078  0.16438084  1
  Cr  Cr5  1  0.00389566  0.33851079  0.33202414  1
  Ni  Ni6  1  0.99988779  0.66570299  1.00028676  1
  Fe  Fe7  1  0.16637984  0.83439555  0.16428687  1
  Cr  Cr8  1  0.99924960  0.66618634  0.33413885  1
  Cr  Cr9  1  0.33780787  0.00204387  1.00036084  1
  Fe  Fe10  1  0.50044374  0.16792863  0.16654870  1
  Ni  Ni11  1  0.33634628  0.00248601  0.33160493  1
  Ni  Ni12  1  0.33273096  0.33462370  1.00061502  1
  Ni  Ni13  1  0.49922641  0.50364392  0.16612173  1
  Ni  Ni14  1  0.33465060  0.33246546  0.33414051  1
  Ni  Ni15  1  0.33453231  0.66374737  0.00098778  1
  Ni  Ni16  1  0.50197248  0.83112637  0.16584367  1
  Cr  Cr17  1  0.33279066  0.66513165  0.33105550  1
  Ni  Ni18  1  0.66765268  0.99930247  0.00091055  1
  Cr  Cr19  1  0.83629431  0.16579655  0.16400739  1
  Ni  Ni20  1  0.66521166  0.99851760  0.33157513  1
  Fe  Fe21  1  0.66283413  0.33593448  0.99961929  1
  Cr  Cr22  1  0.82912831  0.50335724  0.16426421  1
  Cr  Cr23  1  0.66418207  0.33546740  0.33510860  1
  Ni  Ni24  1  0.66778850  0.66957864  0.99897831  1
  Ni  Ni25  1  0.83120054  0.83396687  0.16631664  1
  Ni  Ni26  1  0.66801259  0.67001537  0.33469496  1
  Cr  Cr27  1  0.16836525  0.16443320  0.50125038  1
  Fe  Fe28  1  0.00146588  0.99850515  0.66922214  1
  Ni  Ni29  1  0.16869036  0.16853826  0.83475868  1
  Ni  Ni30  1  0.16947233  0.49979368  0.50168570  1
  Cr  Cr31  1  0.00154633  0.33860767  0.66888369  1
  Fe  Fe32  1  0.16662842  0.49836540  0.83583886  1
  Fe  Fe33  1  0.16501692  0.83204830  0.50163080  1
  Ni  Ni34  1  0.99656777  0.66653542  0.66634455  1
  Cr  Cr35  1  0.16752286  0.83315073  0.83499583  1
  Fe  Fe36  1  0.50014797  0.17059034  0.50090760  1
  Cr  Cr37  1  0.33745115  0.00380752  0.66999882  1
  Ni  Ni38  1  0.50022685  0.17118553  0.83484362  1
  Ni  Ni39  1  0.50090565  0.50149065  0.50193286  1
  Ni  Ni40  1  0.33584571  0.33463851  0.66740468  1
  Fe  Fe41  1  0.49995868  0.49821311  0.83634504  1
  Cr  Cr42  1  0.49959307  0.83222300  0.49915274  1
  Cr  Cr43  1  0.33215488  0.66341251  0.66961931  1
  Fe  Fe44  1  0.50372458  0.83212790  0.83733822  1
  Cr  Cr45  1  0.83494916  0.16598903  0.49965044  1
  Cr  Cr46  1  0.66789671  1.00030371  0.67022848  1
  Cr  Cr47  1  0.83605954  0.16965564  0.83819755  1
  Ni  Ni48  1  0.83103838  0.50315896  0.50247297  1
  Fe  Fe49  1  0.66480268  0.33808674  0.66823093  1
  Ni  Ni50  1  0.83136346  0.50368562  0.83486499  1
  Fe  Fe51  1  0.83439084  0.83225724  0.50012453  1
  Fe  Fe52  1  0.66832123  0.66391991  0.66849653  1
  Fe  Fe53  1  0.83426724  0.83222894  0.83681447  1
" 