2137,Ni41Fe31Cr27_13,-229.169628306303, 190.167287413627,Ni41Fe31Cr27,"# generated using pymatgen
 data_Cr8Fe8Ni11
_symmetry_space_group_name_H-M   'P 1'
_cell_length_a   7.45889183
_cell_length_b   7.45889183
_cell_length_c   10.54846599
_cell_angle_alpha   90.00000000
_cell_angle_beta   90.00000000
_cell_angle_gamma   90.00000000
_symmetry_Int_Tables_number   1
_chemical_formula_structural   Cr8Fe8Ni11
_chemical_formula_sum   'Cr16 Fe16 Ni22'
_cell_volume   586.86461553
_cell_formula_units_Z   2
loop_
 _symmetry_equiv_pos_site_id
 _symmetry_equiv_pos_as_xyz
  1  'x, y, z'
loop_
 _atom_site_type_symbol
 _atom_site_label
 _atom_site_symmetry_multiplicity
 _atom_site_fract_x
 _atom_site_fract_y
 _atom_site_fract_z
 _atom_site_occupancy
  Ni  Ni0  1  0.99865127  0.99888729  0.00276801  1
  Ni  Ni1  1  0.16501748  0.16617196  0.16942306  1
  Fe  Fe2  1  0.00191524  0.99978558  0.33178426  1
  Cr  Cr3  1  0.00112685  0.33318819  0.00200596  1
  Fe  Fe4  1  0.16833751  0.50164960  0.16843102  1
  Ni  Ni5  1  0.00323973  0.33579056  0.33291438  1
  Cr  Cr6  1  0.00177201  0.66809307  0.00124540  1
  Ni  Ni7  1  0.16635914  0.83549228  0.16757335  1
  Ni  Ni8  1  0.00280179  0.66552588  0.33420750  1
  Cr  Cr9  1  0.33337646  0.99988181  0.99975460  1
  Cr  Cr10  1  0.49831347  0.16728426  0.16835476  1
  Fe  Fe11  1  0.33037753  0.99974578  0.33281198  1
  Ni  Ni12  1  0.33481937  0.33533880  0.00242297  1
  Ni  Ni13  1  0.49960643  0.50337035  0.16560413  1
  Fe  Fe14  1  0.33083016  0.33629229  0.33307898  1
  Fe  Fe15  1  0.33598601  0.66666548  0.00145102  1
  Ni  Ni16  1  0.50014170  0.83189945  0.16584038  1
  Ni  Ni17  1  0.33051676  0.66730158  0.32986424  1
  Ni  Ni18  1  0.66813355  0.99863677  0.99942808  1
  Fe  Fe19  1  0.83560049  0.16466133  0.16752540  1
  Cr  Cr20  1  0.66636892  0.99943070  0.33404782  1
  Cr  Cr21  1  0.66641300  0.33428921  1.00053358  1
  Ni  Ni22  1  0.83454660  0.50204368  0.16844207  1
  Cr  Cr23  1  0.66774227  0.33500185  0.33268131  1
  Fe  Fe24  1  0.66686849  0.66829278  0.00122891  1
  Ni  Ni25  1  0.83543373  0.83332314  0.16800818  1
  Cr  Cr26  1  0.66859197  0.66713024  0.33221238  1
  Fe  Fe27  1  0.16940977  0.17013906  0.49969404  1
  Cr  Cr28  1  1.00001795  0.99773900  0.66941922  1
  Cr  Cr29  1  0.16767653  0.16653683  0.83330008  1
  Fe  Fe30  1  0.16649941  0.50015388  0.50101670  1
  Fe  Fe31  1  0.00057157  0.33580863  0.66633614  1
  Cr  Cr32  1  0.16843931  0.50042290  0.83172028  1
  Cr  Cr33  1  0.16782720  0.83355762  0.50064955  1
  Ni  Ni34  1  0.00112719  0.66612522  0.66577987  1
  Fe  Fe35  1  0.16840915  0.83238276  0.83319982  1
  Fe  Fe36  1  0.49915978  0.16779925  0.50285910  1
  Ni  Ni37  1  0.33520216  0.00157872  0.66692790  1
  Ni  Ni38  1  0.50119313  0.16726333  0.83040083  1
  Cr  Cr39  1  0.49975404  0.50030886  0.50122899  1
  Ni  Ni40  1  0.33529525  0.33349846  0.66562222  1
  Ni  Ni41  1  0.50108453  0.50005348  0.83453463  1
  Cr  Cr42  1  0.49820782  0.83484714  0.50122439  1
  Ni  Ni43  1  0.33202835  0.66712007  0.67002530  1
  Fe  Fe44  1  0.50080668  0.83335503  0.83321344  1
  Cr  Cr45  1  0.83452308  0.16859694  0.50167340  1
  Ni  Ni46  1  0.66569445  0.00258687  0.66885572  1
  Fe  Fe47  1  0.83111045  0.16765549  0.83376662  1
  Ni  Ni48  1  0.83759051  0.49933977  0.50193033  1
  Ni  Ni49  1  0.66593337  0.33285585  0.66872914  1
  Ni  Ni50  1  0.83242215  0.50117494  0.83086655  1
  Fe  Fe51  1  0.83502528  0.83196298  0.50022201  1
  Cr  Cr52  1  0.66929832  0.66725816  0.66726201  1
  Fe  Fe53  1  0.83232728  0.83422746  0.83542061  1
" 