7638,Ni41Cr59_17,-223.055579454455, 143.315310304181,Ni41Cr59,"# generated using pymatgen
 data_Cr11Ni16
_symmetry_space_group_name_H-M   'P 1'
_cell_length_a   7.50248751
_cell_length_b   7.50248751
_cell_length_c   10.61011959
_cell_angle_alpha   90.00000000
_cell_angle_beta   90.00000000
_cell_angle_gamma   90.00000000
_symmetry_Int_Tables_number   1
_chemical_formula_structural   Cr11Ni16
_chemical_formula_sum   'Cr22 Ni32'
_cell_volume   597.21518374
_cell_formula_units_Z   2
loop_
 _symmetry_equiv_pos_site_id
 _symmetry_equiv_pos_as_xyz
  1  'x, y, z'
loop_
 _atom_site_type_symbol
 _atom_site_label
 _atom_site_symmetry_multiplicity
 _atom_site_fract_x
 _atom_site_fract_y
 _atom_site_fract_z
 _atom_site_occupancy
  Cr  Cr0  1  -0.00227860  -0.00224788  -0.00204088  1
  Ni  Ni1  1  0.16516290  0.16192544  0.16660147  1
  Ni  Ni2  1  0.00058692  0.99703383  0.33033595  1
  Cr  Cr3  1  -0.00216084  0.33168810  0.99577754  1
  Cr  Cr4  1  0.16396363  0.50043685  0.16440960  1
  Ni  Ni5  1  0.99680604  0.33161287  0.33208460  1
  Ni  Ni6  1  0.99639201  0.66362431  -0.00140345  1
  Ni  Ni7  1  0.16265955  0.83082923  0.16615089  1
  Ni  Ni8  1  -0.00110341  0.66426555  0.33089838  1
  Cr  Cr9  1  0.33111188  -0.00228829  -0.00094114  1
  Ni  Ni10  1  0.49813913  0.16426986  0.16606124  1
  Ni  Ni11  1  0.32901207  0.99631585  0.33102973  1
  Cr  Cr12  1  0.33055933  0.33123599  0.99736118  1
  Ni  Ni13  1  0.49908581  0.49724610  0.16377687  1
  Cr  Cr14  1  0.33038020  0.32930053  0.32974054  1
  Ni  Ni15  1  0.33226870  0.66378817  0.99633469  1
  Cr  Cr16  1  0.49741769  0.83117973  0.16365962  1
  Ni  Ni17  1  0.32858997  0.66707401  0.33209020  1
  Ni  Ni18  1  0.66411215  0.99509968  0.99711442  1
  Cr  Cr19  1  0.82953633  0.16327669  0.16664187  1
  Ni  Ni20  1  0.66330975  -0.00159782  0.33022313  1
  Cr  Cr21  1  0.66452102  0.33297372  -0.00150915  1
  Ni  Ni22  1  0.83019322  0.49976107  0.16526104  1
  Ni  Ni23  1  0.66616402  0.33121059  0.32937877  1
  Ni  Ni24  1  0.66426306  0.66433488  0.99717145  1
  Ni  Ni25  1  0.83255233  0.82984517  0.16376670  1
  Cr  Cr26  1  0.66529476  0.66309904  0.33084444  1
  Ni  Ni27  1  0.16350147  0.16343812  0.49724340  1
  Ni  Ni28  1  -0.00226509  0.00020500  0.66456299  1
  Ni  Ni29  1  0.16262696  0.16645822  0.82908549  1
  Ni  Ni30  1  0.16295264  0.49831388  0.49658563  1
  Cr  Cr31  1  -0.00158493  0.33018623  0.66555017  1
  Ni  Ni32  1  0.16543878  0.49669533  0.83155224  1
  Ni  Ni33  1  0.16503692  0.83117754  0.49488109  1
  Cr  Cr34  1  0.99755412  0.66331994  0.66288944  1
  Cr  Cr35  1  0.16445357  0.82930084  0.83238038  1
  Cr  Cr36  1  0.49871687  0.16335408  0.49743130  1
  Cr  Cr37  1  0.32993902  -0.00199904  0.66309517  1
  Cr  Cr38  1  0.49965979  0.16448924  0.82920582  1
  Cr  Cr39  1  0.49696389  0.49694375  0.49786749  1
  Ni  Ni40  1  0.33007845  0.33109714  0.66569769  1
  Ni  Ni41  1  0.49722430  0.49879060  0.83106503  1
  Ni  Ni42  1  0.49561602  0.83248077  0.49664942  1
  Cr  Cr43  1  0.33183340  0.66359684  0.66370324  1
  Ni  Ni44  1  0.49946690  0.82932211  0.83226667  1
  Cr  Cr45  1  0.83068871  0.16467573  0.49777497  1
  Ni  Ni46  1  0.66479105  -0.00137125  0.66556971  1
  Ni  Ni47  1  0.83066229  0.16425003  0.82884612  1
  Ni  Ni48  1  0.83296610  0.49618429  0.49588383  1
  Ni  Ni49  1  0.66456188  0.33085626  0.66587720  1
  Ni  Ni50  1  0.83024938  0.49655201  0.83177615  1
  Cr  Cr51  1  0.83198717  0.83246087  0.49730931  1
  Cr  Cr52  1  0.66352578  0.66374001  0.66471941  1
  Cr  Cr53  1  0.82927359  0.83264683  0.83216962  1
" 