3193,Ni41Cr59_1,-222.766347818298, 129.696809391723,Ni41Cr59,"# generated using pymatgen
 data_Cr11Ni16
_symmetry_space_group_name_H-M   'P 1'
_cell_length_a   7.50589110
_cell_length_b   7.50589110
_cell_length_c   10.61493299
_cell_angle_alpha   90.00000000
_cell_angle_beta   90.00000000
_cell_angle_gamma   90.00000000
_symmetry_Int_Tables_number   1
_chemical_formula_structural   Cr11Ni16
_chemical_formula_sum   'Cr22 Ni32'
_cell_volume   598.02835348
_cell_formula_units_Z   2
loop_
 _symmetry_equiv_pos_site_id
 _symmetry_equiv_pos_as_xyz
  1  'x, y, z'
loop_
 _atom_site_type_symbol
 _atom_site_label
 _atom_site_symmetry_multiplicity
 _atom_site_fract_x
 _atom_site_fract_y
 _atom_site_fract_z
 _atom_site_occupancy
  Cr  Cr0  1  -0.00183648  0.00106184  -0.00240840  1
  Ni  Ni1  1  0.16695403  0.16500283  0.16256674  1
  Cr  Cr2  1  -0.00056167  0.99726951  0.32939946  1
  Ni  Ni3  1  -0.00171551  0.33135493  -0.00165325  1
  Ni  Ni4  1  0.16236405  0.49560517  0.16389627  1
  Cr  Cr5  1  0.99572344  0.33227270  0.32772317  1
  Cr  Cr6  1  -0.00255960  0.66064316  0.99738812  1
  Ni  Ni7  1  0.16647092  0.83160808  0.16579800  1
  Ni  Ni8  1  -0.00155574  0.66284216  0.33013696  1
  Ni  Ni9  1  0.33177171  0.00050133  0.00049090  1
  Ni  Ni10  1  0.49734015  0.16243219  0.16451611  1
  Ni  Ni11  1  0.33354703  -0.00190428  0.33003864  1
  Ni  Ni12  1  0.32774273  0.32778253  -0.00214983  1
  Cr  Cr13  1  0.49686949  0.49369590  0.16341926  1
  Ni  Ni14  1  0.33245882  0.32701491  0.32908098  1
  Cr  Cr15  1  0.32997052  0.66476124  -0.00062953  1
  Ni  Ni16  1  0.49552943  0.83652661  0.16387861  1
  Cr  Cr17  1  0.32917386  0.66744441  0.32943921  1
  Ni  Ni18  1  0.66198395  -0.00048458  -0.00048521  1
  Ni  Ni19  1  0.82789584  0.16662893  0.16306375  1
  Ni  Ni20  1  0.65916491  0.00027874  0.32958619  1
  Ni  Ni21  1  0.66618661  0.32888794  -0.00050279  1
  Ni  Ni22  1  0.83275956  0.49390008  0.16441021  1
  Ni  Ni23  1  0.66347728  0.32808287  0.33012021  1
  Cr  Cr24  1  0.66477775  0.66455067  0.99638160  1
  Cr  Cr25  1  0.83031822  0.83206710  0.16436207  1
  Cr  Cr26  1  0.66463612  0.66389325  0.33100489  1
  Cr  Cr27  1  0.16808821  0.16190397  0.49912145  1
  Ni  Ni28  1  -0.00160836  0.99470966  0.66525238  1
  Ni  Ni29  1  0.16567130  0.16607708  0.83073915  1
  Cr  Cr30  1  0.16288056  0.49905188  0.49653484  1
  Cr  Cr31  1  0.99730587  0.33123019  0.66638505  1
  Ni  Ni32  1  0.16206947  0.49389770  0.83110184  1
  Ni  Ni33  1  0.16483431  0.83145591  0.49799183  1
  Ni  Ni34  1  0.99456129  0.66477718  0.66455859  1
  Cr  Cr35  1  0.16198263  0.83285336  0.82878304  1
  Ni  Ni36  1  0.49739041  0.16238712  0.49724068  1
  Ni  Ni37  1  0.33091374  -0.00101737  0.66191798  1
  Cr  Cr38  1  0.49565480  0.16466831  0.83083196  1
  Cr  Cr39  1  0.49916571  0.49356359  0.49858659  1
  Ni  Ni40  1  0.33158253  0.32771472  0.66526997  1
  Cr  Cr41  1  0.49754478  0.49432545  0.83012231  1
  Ni  Ni42  1  0.49680535  0.83524571  0.49822972  1
  Cr  Cr43  1  0.33110537  0.66488759  0.66355336  1
  Cr  Cr44  1  0.50027000  0.83320367  0.83120845  1
  Cr  Cr45  1  0.82663771  0.16421935  0.49753232  1
  Ni  Ni46  1  0.66296675  0.99624030  0.66316900  1
  Cr  Cr47  1  0.83038382  0.16256850  0.83127463  1
  Ni  Ni48  1  0.82950113  0.49888448  0.49821990  1
  Ni  Ni49  1  0.66357801  0.33172133  0.66261136  1
  Ni  Ni50  1  0.83180779  0.49840872  0.82955039  1
  Cr  Cr51  1  0.83223286  0.82971740  0.49964649  1
  Ni  Ni52  1  0.66772005  0.66429785  0.66443703  1
  Ni  Ni53  1  0.83033971  0.82955931  0.82753052  1
" 