672,Ni41Fe10Cr47_14,-220.152075483656, 160.610447585194,Ni41Fe10Cr47,"# generated using pymatgen
 data_Cr27Fe5Ni22
_symmetry_space_group_name_H-M   'P 1'
_cell_length_a   7.50610972
_cell_length_b   7.50610972
_cell_length_c   10.61524217
_cell_angle_alpha   90.00000000
_cell_angle_beta   90.00000000
_cell_angle_gamma   90.00000000
_symmetry_Int_Tables_number   1
_chemical_formula_structural   Cr27Fe5Ni22
_chemical_formula_sum   'Cr27 Fe5 Ni22'
_cell_volume   598.08061104
_cell_formula_units_Z   1
loop_
 _symmetry_equiv_pos_site_id
 _symmetry_equiv_pos_as_xyz
  1  'x, y, z'
loop_
 _atom_site_type_symbol
 _atom_site_label
 _atom_site_symmetry_multiplicity
 _atom_site_fract_x
 _atom_site_fract_y
 _atom_site_fract_z
 _atom_site_occupancy
  Ni  Ni0  1  0.99548798  -0.00231814  -0.00256087  1
  Cr  Cr1  1  0.16318846  0.16110350  0.16236225  1
  Fe  Fe2  1  0.99421577  0.99609679  0.32896125  1
  Fe  Fe3  1  0.99546316  0.32945353  -0.00240738  1
  Ni  Ni4  1  0.16117631  0.49775974  0.16480237  1
  Cr  Cr5  1  -0.00230682  0.33137738  0.32792970  1
  Cr  Cr6  1  0.99690898  0.66464561  0.99727845  1
  Cr  Cr7  1  0.16253659  0.83031414  0.16474114  1
  Ni  Ni8  1  0.99564050  0.66584066  0.33072328  1
  Ni  Ni9  1  0.32902834  -0.00042423  -0.00258140  1
  Ni  Ni10  1  0.50016633  0.16286883  0.16237762  1
  Fe  Fe11  1  0.33231055  -0.00219761  0.32953099  1
  Cr  Cr12  1  0.32956422  0.33152082  -0.00182532  1
  Cr  Cr13  1  0.50156649  0.49787342  0.16230195  1
  Cr  Cr14  1  0.33135856  0.33141291  0.32973656  1
  Cr  Cr15  1  0.32935715  0.66244744  0.99677026  1
  Cr  Cr16  1  0.49884886  0.83167253  0.16232246  1
  Cr  Cr17  1  0.32967817  0.66090342  0.33073259  1
  Ni  Ni18  1  0.66731273  -0.00192462  -0.00112864  1
  Ni  Ni19  1  0.82863429  0.16278044  0.16246483  1
  Cr  Cr20  1  0.66635992  -0.00213561  0.33148662  1
  Ni  Ni21  1  0.66531357  0.32962599  -0.00157021  1
  Cr  Cr22  1  0.82968538  0.49840407  0.16394140  1
  Ni  Ni23  1  0.66301218  0.33015695  0.32915028  1
  Ni  Ni24  1  0.66778572  0.66420762  0.99558113  1
  Ni  Ni25  1  0.83061498  0.83148745  0.16353203  1
  Ni  Ni26  1  0.66639896  0.66568541  0.33231373  1
  Cr  Cr27  1  0.16299655  0.16459152  0.49938367  1
  Cr  Cr28  1  0.99508744  0.99482528  0.66571054  1
  Ni  Ni29  1  0.16247303  0.16220492  0.83103272  1
  Ni  Ni30  1  0.16354671  0.49878391  0.49909642  1
  Ni  Ni31  1  0.00011357  0.33290453  0.66587478  1
  Cr  Cr32  1  0.16096796  0.49628780  0.82912518  1
  Cr  Cr33  1  0.16234997  0.83005000  0.49499427  1
  Ni  Ni34  1  0.99714868  0.66374443  0.66448483  1
  Ni  Ni35  1  0.16171380  0.83313920  0.83196169  1
  Cr  Cr36  1  0.49649633  0.16476780  0.49744097  1
  Cr  Cr37  1  0.33089493  0.99722842  0.66500081  1
  Cr  Cr38  1  0.49653501  0.16461734  0.83248586  1
  Ni  Ni39  1  0.49785010  0.49796347  0.49676771  1
  Ni  Ni40  1  0.32862439  0.33277824  0.66412346  1
  Ni  Ni41  1  0.50108340  0.49694475  0.83167215  1
  Fe  Fe42  1  0.49847960  0.82776683  0.49582403  1
  Cr  Cr43  1  0.33105031  0.66214046  0.66456713  1
  Cr  Cr44  1  0.49681465  0.83087322  0.83511455  1
  Cr  Cr45  1  0.83265665  0.16558237  0.49710951  1
  Cr  Cr46  1  0.66636291  0.99429084  0.66335353  1
  Cr  Cr47  1  0.83176177  0.16757058  0.83186373  1
  Cr  Cr48  1  0.83223076  0.49803236  0.49689895  1
  Cr  Cr49  1  0.66259488  0.33207289  0.66360658  1
  Ni  Ni50  1  0.82955992  0.49844081  0.83104865  1
  Ni  Ni51  1  0.83248889  0.82776386  0.49606944  1
  Cr  Cr52  1  0.66613297  0.66579554  0.66476028  1
  Fe  Fe53  1  0.83216835  0.82969106  0.83315237  1
" 