5705,Ni41Cr59_7,-222.9009241013, 137.433400506366,Ni41Cr59,"# generated using pymatgen
 data_Cr11Ni16
_symmetry_space_group_name_H-M   'P 1'
_cell_length_a   7.50579387
_cell_length_b   7.50579387
_cell_length_c   10.61479549
_cell_angle_alpha   90.00000000
_cell_angle_beta   90.00000000
_cell_angle_gamma   90.00000000
_symmetry_Int_Tables_number   1
_chemical_formula_structural   Cr11Ni16
_chemical_formula_sum   'Cr22 Ni32'
_cell_volume   598.00511338
_cell_formula_units_Z   2
loop_
 _symmetry_equiv_pos_site_id
 _symmetry_equiv_pos_as_xyz
  1  'x, y, z'
loop_
 _atom_site_type_symbol
 _atom_site_label
 _atom_site_symmetry_multiplicity
 _atom_site_fract_x
 _atom_site_fract_y
 _atom_site_fract_z
 _atom_site_occupancy
  Ni  Ni0  1  -0.00188241  -0.00131561  -0.00133699  1
  Ni  Ni1  1  0.16175757  0.16374540  0.16409342  1
  Ni  Ni2  1  0.99740232  0.99608595  0.33082858  1
  Ni  Ni3  1  0.99630849  0.33185471  0.99612457  1
  Ni  Ni4  1  0.16336465  0.49906528  0.16314034  1
  Cr  Cr5  1  -0.00031047  0.32955721  0.32834773  1
  Ni  Ni6  1  0.99690393  0.66175406  -0.00104458  1
  Ni  Ni7  1  0.16271019  0.82940771  0.16337509  1
  Cr  Cr8  1  -0.00140563  0.66665382  0.33003237  1
  Cr  Cr9  1  0.32870317  0.99504832  -0.00213389  1
  Cr  Cr10  1  0.49840825  0.16497487  0.16670377  1
  Cr  Cr11  1  0.32970116  0.99660210  0.33092403  1
  Cr  Cr12  1  0.32720505  0.33233824  0.99663110  1
  Cr  Cr13  1  0.49694672  0.49801657  0.16484129  1
  Ni  Ni14  1  0.33160898  0.33110643  0.33258762  1
  Ni  Ni15  1  0.33105590  0.66411475  -0.00230499  1
  Ni  Ni16  1  0.49716861  0.82857732  0.16359008  1
  Ni  Ni17  1  0.33130587  0.66409157  0.33047934  1
  Cr  Cr18  1  0.66453755  0.99504647  0.99718938  1
  Cr  Cr19  1  0.83095447  0.16390726  0.16401546  1
  Ni  Ni20  1  0.66457349  0.99636328  0.33212758  1
  Ni  Ni21  1  0.66840406  0.33492124  0.99535416  1
  Ni  Ni22  1  0.83178368  0.49843578  0.16088183  1
  Ni  Ni23  1  0.66133107  0.32992297  0.33198276  1
  Ni  Ni24  1  0.66429630  0.66236609  0.99699755  1
  Ni  Ni25  1  0.83238186  0.83016437  0.16380507  1
  Cr  Cr26  1  0.66289869  0.66588852  0.33126152  1
  Ni  Ni27  1  0.16823281  0.16184925  0.49776332  1
  Cr  Cr28  1  -0.00024200  -0.00243549  0.66258717  1
  Ni  Ni29  1  0.16236795  0.16606904  0.83034328  1
  Cr  Cr30  1  0.16736215  0.49843889  0.49772360  1
  Cr  Cr31  1  -0.00018882  0.33168521  0.66755918  1
  Ni  Ni32  1  0.16323993  0.49650789  0.83148452  1
  Ni  Ni33  1  0.16404363  0.83255792  0.49751958  1
  Ni  Ni34  1  -0.00250008  0.66399743  0.66373032  1
  Cr  Cr35  1  0.16468014  0.82956278  0.83084931  1
  Ni  Ni36  1  0.49487285  0.16489805  0.49660293  1
  Ni  Ni37  1  0.33054949  -0.00072984  0.66240288  1
  Cr  Cr38  1  0.49694876  0.16466331  0.82963863  1
  Ni  Ni39  1  0.49535473  0.49524238  0.49562939  1
  Ni  Ni40  1  0.33030807  0.32875407  0.66345728  1
  Ni  Ni41  1  0.49750906  0.49852840  0.83219926  1
  Ni  Ni42  1  0.49636378  0.83206177  0.49679603  1
  Cr  Cr43  1  0.33172833  0.66430860  0.66406400  1
  Ni  Ni44  1  0.49650340  0.82788499  0.83178154  1
  Cr  Cr45  1  0.82916779  0.16170091  0.49448746  1
  Cr  Cr46  1  0.66132192  0.99577675  0.66318696  1
  Ni  Ni47  1  0.83313034  0.16719849  0.83381070  1
  Cr  Cr48  1  0.82964846  0.49904265  0.49761748  1
  Cr  Cr49  1  0.66250356  0.33220078  0.66525118  1
  Ni  Ni50  1  0.83155097  0.49635269  0.83357597  1
  Ni  Ni51  1  0.83185616  0.83212710  0.49648479  1
  Cr  Cr52  1  0.66440245  0.66423064  0.66405903  1
  Cr  Cr53  1  0.83179176  0.82945183  0.83152115  1
" 