3190,Ni41Fe31Cr27_19,-229.136504314114, 186.230871673089,Ni41Fe31Cr27,"# generated using pymatgen
 data_Cr8Fe8Ni11
_symmetry_space_group_name_H-M   'P 1'
_cell_length_a   7.46363846
_cell_length_b   7.46363846
_cell_length_c   10.55517873
_cell_angle_alpha   90.00000000
_cell_angle_beta   90.00000000
_cell_angle_gamma   90.00000000
_symmetry_Int_Tables_number   1
_chemical_formula_structural   Cr8Fe8Ni11
_chemical_formula_sum   'Cr16 Fe16 Ni22'
_cell_volume   587.98572064
_cell_formula_units_Z   2
loop_
 _symmetry_equiv_pos_site_id
 _symmetry_equiv_pos_as_xyz
  1  'x, y, z'
loop_
 _atom_site_type_symbol
 _atom_site_label
 _atom_site_symmetry_multiplicity
 _atom_site_fract_x
 _atom_site_fract_y
 _atom_site_fract_z
 _atom_site_occupancy
  Ni  Ni0  1  0.99895557  0.00380551  0.00111480  1
  Fe  Fe1  1  0.16962622  0.16809417  0.16492963  1
  Fe  Fe2  1  0.00102529  0.00211876  0.33302646  1
  Fe  Fe3  1  1.00022186  0.33139417  0.00023378  1
  Ni  Ni4  1  0.16900029  0.49937320  0.16471394  1
  Cr  Cr5  1  0.00184143  0.33267833  0.33007544  1
  Cr  Cr6  1  0.99866113  0.66337830  0.99979158  1
  Cr  Cr7  1  0.16814780  0.83487417  0.16436051  1
  Cr  Cr8  1  0.99838615  0.66712742  0.33181045  1
  Ni  Ni9  1  0.33515281  0.00369598  0.99920677  1
  Ni  Ni10  1  0.50171501  0.16769964  0.16609423  1
  Ni  Ni11  1  0.33366476  0.00232447  0.33423846  1
  Fe  Fe12  1  0.33414685  0.33287856  0.00104960  1
  Ni  Ni13  1  0.49962747  0.49752195  0.16857437  1
  Ni  Ni14  1  0.33552371  0.33151922  0.33219505  1
  Ni  Ni15  1  0.33529365  0.66389081  1.00013179  1
  Cr  Cr16  1  0.49805400  0.83476553  0.16659445  1
  Fe  Fe17  1  0.33441409  0.66466612  0.33348399  1
  Ni  Ni18  1  0.66662862  0.00293680  0.99948439  1
  Ni  Ni19  1  0.83210804  0.16691474  0.16536412  1
  Fe  Fe20  1  0.66707805  0.00255003  0.33154251  1
  Fe  Fe21  1  0.66634643  0.33267421  0.00088701  1
  Ni  Ni22  1  0.83193008  0.49641968  0.16684804  1
  Ni  Ni23  1  0.66479080  0.33398661  0.33063358  1
  Cr  Cr24  1  0.66667418  0.66559355  0.99951676  1
  Fe  Fe25  1  0.83189727  0.83557517  0.16558750  1
  Fe  Fe26  1  0.66423921  0.66518255  0.33279850  1
  Fe  Fe27  1  0.16730410  0.16753729  0.50044718  1
  Ni  Ni28  1  0.00095095  0.00252104  0.66566700  1
  Ni  Ni29  1  0.16536033  0.16774569  0.83330419  1
  Cr  Cr30  1  0.16888077  0.49940213  0.50220660  1
  Ni  Ni31  1  0.00069574  0.33136918  0.67000842  1
  Fe  Fe32  1  0.16802222  0.49751056  0.83495073  1
  Ni  Ni33  1  0.16690351  0.83658017  0.49898106  1
  Cr  Cr34  1  0.99932154  0.66738147  0.66926298  1
  Cr  Cr35  1  0.16726020  0.83590124  0.83665113  1
  Cr  Cr36  1  0.50182167  0.17057383  0.49995593  1
  Cr  Cr37  1  0.33379011  0.00156417  0.66735922  1
  Fe  Fe38  1  0.50049480  0.16815464  0.83596828  1
  Ni  Ni39  1  0.50050098  0.49935044  0.49829573  1
  Fe  Fe40  1  0.33429429  0.33329568  0.66847172  1
  Ni  Ni41  1  0.50062193  0.49759466  0.83371568  1
  Fe  Fe42  1  0.49969194  0.83247958  0.49736869  1
  Cr  Cr43  1  0.33569381  0.66733724  0.66753748  1
  Ni  Ni44  1  0.50010187  0.83348007  0.83605487  1
  Cr  Cr45  1  0.83371497  0.16790508  0.50193338  1
  Cr  Cr46  1  0.66598382  0.99989575  0.67011905  1
  Fe  Fe47  1  0.83445925  0.16691432  0.83453910  1
  Cr  Cr48  1  0.82987309  0.49661109  0.50109439  1
  Ni  Ni49  1  0.66598967  0.33406119  0.66968674  1
  Ni  Ni50  1  0.83227885  0.49593612  0.83285729  1
  Fe  Fe51  1  0.83368538  0.83443377  0.49985222  1
  Cr  Cr52  1  0.66563801  0.66694988  0.66753921  1
  Ni  Ni53  1  0.83384818  0.83620681  0.83421675  1
" 