6059,Ni41Fe10Cr47_16,-219.919867854428, 149.416098111056,Ni41Fe10Cr47,"# generated using pymatgen
 data_Cr27Fe5Ni22
_symmetry_space_group_name_H-M   'P 1'
_cell_length_a   7.51318393
_cell_length_b   7.51318393
_cell_length_c   10.62524661
_cell_angle_alpha   90.00000000
_cell_angle_beta   90.00000000
_cell_angle_gamma   90.00000000
_symmetry_Int_Tables_number   1
_chemical_formula_structural   Cr27Fe5Ni22
_chemical_formula_sum   'Cr27 Fe5 Ni22'
_cell_volume   599.77320545
_cell_formula_units_Z   1
loop_
 _symmetry_equiv_pos_site_id
 _symmetry_equiv_pos_as_xyz
  1  'x, y, z'
loop_
 _atom_site_type_symbol
 _atom_site_label
 _atom_site_symmetry_multiplicity
 _atom_site_fract_x
 _atom_site_fract_y
 _atom_site_fract_z
 _atom_site_occupancy
  Cr  Cr0  1  0.99464305  0.00096377  -0.00137731  1
  Cr  Cr1  1  0.16415304  0.16640832  0.16366173  1
  Cr  Cr2  1  0.99641714  -0.00099979  0.33350517  1
  Ni  Ni3  1  0.99651057  0.33207253  -0.00036004  1
  Ni  Ni4  1  0.16445002  0.49208935  0.16380534  1
  Ni  Ni5  1  0.99600857  0.33166101  0.32885447  1
  Cr  Cr6  1  0.99667665  0.65885793  -0.00189875  1
  Cr  Cr7  1  0.16495335  0.83141507  0.16081549  1
  Cr  Cr8  1  -0.00255863  0.66242552  0.33026032  1
  Ni  Ni9  1  0.33596305  0.00060436  -0.00211781  1
  Ni  Ni10  1  0.49812673  0.16399955  0.16388535  1
  Cr  Cr11  1  0.33316418  -0.00151895  0.33299326  1
  Ni  Ni12  1  0.33140841  0.32742822  -0.00120913  1
  Fe  Fe13  1  0.49867385  0.49251296  0.16635370  1
  Ni  Ni14  1  0.33127074  0.32893147  0.32944994  1
  Cr  Cr15  1  0.33178250  0.66217458  0.00282935  1
  Fe  Fe16  1  0.49976351  0.83299704  0.16422261  1
  Cr  Cr17  1  0.33189205  0.66400300  0.32685618  1
  Ni  Ni18  1  0.65844168  -0.00111558  -0.00041386  1
  Ni  Ni19  1  0.82500035  0.16712201  0.16548023  1
  Ni  Ni20  1  0.66148945  -0.00279447  0.32951675  1
  Cr  Cr21  1  0.66405666  0.32805954  0.99684169  1
  Ni  Ni22  1  0.82924980  0.49499851  0.16682638  1
  Fe  Fe23  1  0.66250521  0.32979708  0.32888628  1
  Cr  Cr24  1  0.66339047  0.66161409  0.99658100  1
  Cr  Cr25  1  0.82649049  0.83259830  0.16427314  1
  Ni  Ni26  1  0.66393985  0.66412906  0.33148787  1
  Ni  Ni27  1  0.16715746  0.16223155  0.49752793  1
  Ni  Ni28  1  -0.00133308  0.99602488  0.65919018  1
  Cr  Cr29  1  0.16668048  0.16345010  0.82939413  1
  Cr  Cr30  1  0.16494444  0.49235233  0.49457040  1
  Cr  Cr31  1  0.99527474  0.32871722  0.66310092  1
  Cr  Cr32  1  0.16518340  0.49332880  0.83234354  1
  Ni  Ni33  1  0.16308628  0.83305401  0.49889037  1
  Cr  Cr34  1  0.99546333  0.66318648  0.66262473  1
  Cr  Cr35  1  0.16420952  0.83370224  0.83165692  1
  Ni  Ni36  1  0.49474087  0.16327641  0.49595483  1
  Ni  Ni37  1  0.33134450  -0.00034843  0.66026012  1
  Ni  Ni38  1  0.49423335  0.16295111  0.83120823  1
  Cr  Cr39  1  0.49851265  0.49428987  0.49550901  1
  Ni  Ni40  1  0.33243523  0.32509123  0.66216715  1
  Cr  Cr41  1  0.49564409  0.49412158  0.82743602  1
  Fe  Fe42  1  0.49880509  0.83190554  0.49577620  1
  Cr  Cr43  1  0.33049994  0.66564945  0.66080642  1
  Cr  Cr44  1  0.49680012  0.83250642  0.83112106  1
  Cr  Cr45  1  0.82917839  0.16460681  0.49178290  1
  Cr  Cr46  1  0.66198363  -0.00040832  0.66260791  1
  Cr  Cr47  1  0.82958331  0.16221485  0.83392792  1
  Ni  Ni48  1  0.82787182  0.50037296  0.49441842  1
  Cr  Cr49  1  0.66320438  0.33041294  0.66479024  1
  Ni  Ni50  1  0.82941314  0.49675853  0.82966249  1
  Ni  Ni51  1  0.82814513  0.82965995  0.49677947  1
  Fe  Fe52  1  0.66431968  0.66417556  0.66120119  1
  Cr  Cr53  1  0.82895610  0.83048215  0.82948265  1
" 