8225,Ni41Fe10Cr47_19,-220.17013095917, 155.180128704907,Ni41Fe10Cr47,"# generated using pymatgen
 data_Cr27Fe5Ni22
_symmetry_space_group_name_H-M   'P 1'
_cell_length_a   7.50772642
_cell_length_b   7.50772642
_cell_length_c   10.61752852
_cell_angle_alpha   90.00000000
_cell_angle_beta   90.00000000
_cell_angle_gamma   90.00000000
_symmetry_Int_Tables_number   1
_chemical_formula_structural   Cr27Fe5Ni22
_chemical_formula_sum   'Cr27 Fe5 Ni22'
_cell_volume   598.46714468
_cell_formula_units_Z   1
loop_
 _symmetry_equiv_pos_site_id
 _symmetry_equiv_pos_as_xyz
  1  'x, y, z'
loop_
 _atom_site_type_symbol
 _atom_site_label
 _atom_site_symmetry_multiplicity
 _atom_site_fract_x
 _atom_site_fract_y
 _atom_site_fract_z
 _atom_site_occupancy
  Cr  Cr0  1  -0.00173254  0.00109810  0.99602472  1
  Ni  Ni1  1  0.16425131  0.16280710  0.16207725  1
  Ni  Ni2  1  -0.00100053  0.99670757  0.33216695  1
  Ni  Ni3  1  0.00002707  0.32818835  0.99599848  1
  Cr  Cr4  1  0.16432562  0.49677196  0.16372466  1
  Cr  Cr5  1  -0.00164110  0.33074783  0.33200311  1
  Cr  Cr6  1  0.00118595  0.66134803  0.99534813  1
  Cr  Cr7  1  0.16408602  0.83342842  0.16654099  1
  Ni  Ni8  1  -0.00063026  0.66485896  0.33542329  1
  Ni  Ni9  1  0.33023656  -0.00135711  0.99630910  1
  Cr  Cr10  1  0.49331026  0.16500441  0.16414405  1
  Ni  Ni11  1  0.32809697  -0.00219276  0.33180879  1
  Ni  Ni12  1  0.32910981  0.33084571  0.99525682  1
  Cr  Cr13  1  0.49649496  0.49610239  0.16188258  1
  Cr  Cr14  1  0.32969358  0.33021804  0.33282248  1
  Ni  Ni15  1  0.33126383  0.66233698  0.99546173  1
  Cr  Cr16  1  0.49302586  0.83076737  0.16321945  1
  Fe  Fe17  1  0.32770470  0.66482389  0.33271695  1
  Cr  Cr18  1  0.66251091  -0.00155656  0.99722234  1
  Fe  Fe19  1  0.83389507  0.16499531  0.16347321  1
  Cr  Cr20  1  0.66383543  -0.00122813  0.33172688  1
  Ni  Ni21  1  0.66334038  0.32913906  0.99668960  1
  Cr  Cr22  1  0.83075084  0.49599649  0.16194157  1
  Cr  Cr23  1  0.66402826  0.32901652  0.33189072  1
  Cr  Cr24  1  0.65962330  0.66461360  0.99414259  1
  Cr  Cr25  1  0.83437737  0.82996354  0.16584918  1
  Cr  Cr26  1  0.66426212  0.66398376  0.33204243  1
  Cr  Cr27  1  0.16774344  0.16004844  0.49929062  1
  Cr  Cr28  1  -0.00251582  -0.00149406  0.66389175  1
  Ni  Ni29  1  0.16656268  0.16662889  0.83181883  1
  Fe  Fe30  1  0.16431944  0.49874579  0.49860264  1
  Cr  Cr31  1  -0.00070013  0.33069286  0.66500259  1
  Ni  Ni32  1  0.16914097  0.49448814  0.83096503  1
  Ni  Ni33  1  0.16339584  0.83002913  0.49500716  1
  Cr  Cr34  1  -0.00028895  0.66293662  0.66172345  1
  Cr  Cr35  1  0.16671195  0.83296361  0.83051164  1
  Ni  Ni36  1  0.49634058  0.16429880  0.49911110  1
  Ni  Ni37  1  0.33112214  0.99693717  0.66391469  1
  Cr  Cr38  1  0.49504506  0.16689695  0.82834620  1
  Cr  Cr39  1  0.49700249  0.49459781  0.49907093  1
  Ni  Ni40  1  0.33234633  0.33224043  0.66501559  1
  Ni  Ni41  1  0.49495557  0.49645911  0.83044793  1
  Cr  Cr42  1  0.49315350  0.83227595  0.49858180  1
  Ni  Ni43  1  0.33073014  0.66268732  0.66449948  1
  Fe  Fe44  1  0.49357698  0.82993374  0.82917844  1
  Ni  Ni45  1  0.83009643  0.16453362  0.49653241  1
  Cr  Cr46  1  0.66439642  -0.00177928  0.66272397  1
  Ni  Ni47  1  0.83032105  0.16753017  0.83246919  1
  Ni  Ni48  1  0.83015820  0.49802481  0.49818801  1
  Ni  Ni49  1  0.66309030  0.33040530  0.66230421  1
  Cr  Cr50  1  0.82793753  0.49423109  0.83054064  1
  Ni  Ni51  1  0.83363028  0.82966809  0.49598848  1
  Fe  Fe52  1  0.66150308  0.66189310  0.66343796  1
  Cr  Cr53  1  0.82949977  0.83040461  0.82863420  1
" 