7078,Ni41Fe10Cr47_4,-220.190097970365, 156.305599207668,Ni41Fe10Cr47,"# generated using pymatgen
 data_Cr27Fe5Ni22
_symmetry_space_group_name_H-M   'P 1'
_cell_length_a   7.51016256
_cell_length_b   7.51016256
_cell_length_c   10.62097374
_cell_angle_alpha   90.00000000
_cell_angle_beta   90.00000000
_cell_angle_gamma   90.00000000
_symmetry_Int_Tables_number   1
_chemical_formula_structural   Cr27Fe5Ni22
_chemical_formula_sum   'Cr27 Fe5 Ni22'
_cell_volume   599.04991388
_cell_formula_units_Z   1
loop_
 _symmetry_equiv_pos_site_id
 _symmetry_equiv_pos_as_xyz
  1  'x, y, z'
loop_
 _atom_site_type_symbol
 _atom_site_label
 _atom_site_symmetry_multiplicity
 _atom_site_fract_x
 _atom_site_fract_y
 _atom_site_fract_z
 _atom_site_occupancy
  Cr  Cr0  1  0.00030727  -0.00281736  -0.00109968  1
  Ni  Ni1  1  0.16578179  0.16601404  0.16481813  1
  Ni  Ni2  1  -0.00198451  -0.00076461  0.32797100  1
  Cr  Cr3  1  -0.00198013  0.32950705  -0.00184694  1
  Fe  Fe4  1  0.16696899  0.49458584  0.16581175  1
  Ni  Ni5  1  -0.00065568  0.32990251  0.33028241  1
  Fe  Fe6  1  0.99704717  0.66442489  -0.00228112  1
  Fe  Fe7  1  0.16569386  0.83088674  0.16507783  1
  Cr  Cr8  1  -0.00103396  0.66203941  0.32856357  1
  Cr  Cr9  1  0.33009668  -0.00102258  0.99610844  1
  Ni  Ni10  1  0.49462374  0.16799783  0.16441318  1
  Cr  Cr11  1  0.33161195  -0.00154964  0.32923525  1
  Fe  Fe12  1  0.33277527  0.32930234  -0.00018383  1
  Ni  Ni13  1  0.49548110  0.49535004  0.16434570  1
  Ni  Ni14  1  0.33148371  0.33238948  0.32862173  1
  Cr  Cr15  1  0.32944821  0.66501498  -0.00158901  1
  Cr  Cr16  1  0.49833213  0.82809604  0.16598740  1
  Ni  Ni17  1  0.33276065  0.66016249  0.33144763  1
  Cr  Cr18  1  0.66133673  -0.00050334  0.99691911  1
  Cr  Cr19  1  0.82888445  0.16422035  0.16826382  1
  Ni  Ni20  1  0.66200765  -0.00145291  0.33146159  1
  Ni  Ni21  1  0.66135391  0.33140519  -0.00166989  1
  Cr  Cr22  1  0.82675623  0.49732995  0.16216861  1
  Ni  Ni23  1  0.66091233  0.33098523  0.32999882  1
  Ni  Ni24  1  0.66177120  0.66190483  0.99694602  1
  Cr  Cr25  1  0.82952064  0.83012986  0.16478425  1
  Ni  Ni26  1  0.66011306  0.66187942  0.33128577  1
  Cr  Cr27  1  0.16341177  0.16551456  0.49764410  1
  Ni  Ni28  1  -0.00231026  -0.00135754  0.66630526  1
  Fe  Fe29  1  0.16457063  0.16301440  0.82990612  1
  Ni  Ni30  1  0.16648237  0.49476416  0.49450879  1
  Ni  Ni31  1  -0.00112883  0.32860889  0.66353647  1
  Cr  Cr32  1  0.16499047  0.49588302  0.83028359  1
  Cr  Cr33  1  0.16501305  0.83130813  0.49556901  1
  Cr  Cr34  1  -0.00136601  0.66234174  0.66426240  1
  Ni  Ni35  1  0.16415023  0.83126258  0.83126405  1
  Ni  Ni36  1  0.49781888  0.16383859  0.49475500  1
  Cr  Cr37  1  0.33333624  0.99659140  0.66655553  1
  Ni  Ni38  1  0.49620675  0.16338529  0.83213863  1
  Ni  Ni39  1  0.49440411  0.49668117  0.49260338  1
  Cr  Cr40  1  0.33159363  0.33014855  0.66305927  1
  Cr  Cr41  1  0.49660212  0.49628244  0.83359215  1
  Ni  Ni42  1  0.49827450  0.83091272  0.49545183  1
  Cr  Cr43  1  0.33186242  0.66435047  0.66038975  1
  Ni  Ni44  1  0.49598356  0.83175355  0.83010159  1
  Cr  Cr45  1  0.83116710  0.16238345  0.49544483  1
  Ni  Ni46  1  0.66181584  -0.00225866  0.66378800  1
  Cr  Cr47  1  0.83000373  0.16447227  0.82779958  1
  Cr  Cr48  1  0.83110822  0.49464966  0.49652508  1
  Cr  Cr49  1  0.66242387  0.32927104  0.66244629  1
  Cr  Cr50  1  0.82988733  0.49655165  0.83237829  1
  Cr  Cr51  1  0.82901573  0.83406804  0.49569253  1
  Cr  Cr52  1  0.66070406  0.66472594  0.66225712  1
  Cr  Cr53  1  0.82956024  0.83043064  0.83089602  1
" 