6643,Ni41Cr59_13,-223.201064664158, 143.449733078506,Ni41Cr59,"# generated using pymatgen
 data_Cr11Ni16
_symmetry_space_group_name_H-M   'P 1'
_cell_length_a   7.49974969
_cell_length_b   7.49974969
_cell_length_c   10.60624773
_cell_angle_alpha   90.00000000
_cell_angle_beta   90.00000000
_cell_angle_gamma   90.00000000
_symmetry_Int_Tables_number   1
_chemical_formula_structural   Cr11Ni16
_chemical_formula_sum   'Cr22 Ni32'
_cell_volume   596.56161319
_cell_formula_units_Z   2
loop_
 _symmetry_equiv_pos_site_id
 _symmetry_equiv_pos_as_xyz
  1  'x, y, z'
loop_
 _atom_site_type_symbol
 _atom_site_label
 _atom_site_symmetry_multiplicity
 _atom_site_fract_x
 _atom_site_fract_y
 _atom_site_fract_z
 _atom_site_occupancy
  Ni  Ni0  1  -0.00101943  -0.00073245  -0.00191759  1
  Ni  Ni1  1  0.16537381  0.16647026  0.16351461  1
  Cr  Cr2  1  0.99620061  0.99769946  0.33071297  1
  Ni  Ni3  1  0.99773162  0.33155305  0.99643899  1
  Ni  Ni4  1  0.16574097  0.49612447  0.16729825  1
  Cr  Cr5  1  -0.00035003  0.33239744  0.33426401  1
  Cr  Cr6  1  -0.00188783  0.66432375  -0.00150612  1
  Cr  Cr7  1  0.16476000  0.83332997  0.16453974  1
  Ni  Ni8  1  -0.00171133  0.66280233  0.33114569  1
  Ni  Ni9  1  0.32865910  -0.00084126  0.99653622  1
  Cr  Cr10  1  0.49544289  0.16602571  0.16495473  1
  Ni  Ni11  1  0.33205181  -0.00081283  0.33329977  1
  Cr  Cr12  1  0.33259058  0.33396467  -0.00176305  1
  Ni  Ni13  1  0.49700768  0.49896421  0.16518874  1
  Ni  Ni14  1  0.32968378  0.33181785  0.33105391  1
  Cr  Cr15  1  0.33205483  0.66369675  0.99552063  1
  Cr  Cr16  1  0.49910779  0.82955180  0.16746157  1
  Ni  Ni17  1  0.33090914  0.66275115  0.33120939  1
  Cr  Cr18  1  0.66506981  0.99695482  0.99663229  1
  Cr  Cr19  1  0.83263607  0.16435135  0.16088068  1
  Ni  Ni20  1  0.66251812  0.99579838  0.33415098  1
  Ni  Ni21  1  0.66537545  0.33405672  0.99423302  1
  Cr  Cr22  1  0.82941901  0.49888881  0.16408294  1
  Cr  Cr23  1  0.66319571  0.33045188  0.33335917  1
  Ni  Ni24  1  0.66478727  0.66063240  -0.00176128  1
  Ni  Ni25  1  0.83019781  0.82983172  0.16583288  1
  Ni  Ni26  1  0.66436731  0.66562728  0.33046120  1
  Ni  Ni27  1  0.16551171  0.16714338  0.49608103  1
  Cr  Cr28  1  0.99602389  -0.00024372  0.66414633  1
  Cr  Cr29  1  0.16276594  0.16501419  0.83379672  1
  Ni  Ni30  1  0.16288754  0.49724546  0.49792913  1
  Ni  Ni31  1  0.99671462  0.33433393  0.66303996  1
  Ni  Ni32  1  0.16250641  0.49868143  0.82831898  1
  Cr  Cr33  1  0.16749813  0.82725998  0.49928254  1
  Ni  Ni34  1  -0.00127969  0.65993796  0.66536886  1
  Ni  Ni35  1  0.16420150  0.82925366  0.83076594  1
  Ni  Ni36  1  0.49753080  0.16162094  0.49572251  1
  Cr  Cr37  1  0.33353537  -0.00195354  0.66412383  1
  Ni  Ni38  1  0.50034420  0.16556482  0.83231820  1
  Cr  Cr39  1  0.49687343  0.50166246  0.49630726  1
  Cr  Cr40  1  0.33068026  0.33266858  0.66367152  1
  Ni  Ni41  1  0.50008090  0.49801769  0.83142805  1
  Ni  Ni42  1  0.49866411  0.83182839  0.49721612  1
  Ni  Ni43  1  0.33037494  0.66287214  0.66615662  1
  Cr  Cr44  1  0.49689308  0.83021196  0.82842340  1
  Ni  Ni45  1  0.83020404  0.16522552  0.49973505  1
  Ni  Ni46  1  0.66390714  -0.00178641  0.66241404  1
  Ni  Ni47  1  0.83066978  0.16759876  0.83200738  1
  Ni  Ni48  1  0.83337742  0.49849328  0.49959893  1
  Cr  Cr49  1  0.66569917  0.32937765  0.66545626  1
  Ni  Ni50  1  0.83141119  0.49606083  0.83077035  1
  Cr  Cr51  1  0.82835171  0.82739056  0.49721864  1
  Ni  Ni52  1  0.66454493  0.66363227  0.66477215  1
  Cr  Cr53  1  0.83238351  0.82947674  0.83037447  1
" 