4884,Ni41Fe31Cr27_8,-229.326339856445, 188.563888146912,Ni41Fe31Cr27,"# generated using pymatgen
 data_Cr8Fe8Ni11
_symmetry_space_group_name_H-M   'P 1'
_cell_length_a   7.46278967
_cell_length_b   7.46278967
_cell_length_c   10.55397836
_cell_angle_alpha   90.00000000
_cell_angle_beta   90.00000000
_cell_angle_gamma   90.00000000
_symmetry_Int_Tables_number   1
_chemical_formula_structural   Cr8Fe8Ni11
_chemical_formula_sum   'Cr16 Fe16 Ni22'
_cell_volume   587.78514001
_cell_formula_units_Z   2
loop_
 _symmetry_equiv_pos_site_id
 _symmetry_equiv_pos_as_xyz
  1  'x, y, z'
loop_
 _atom_site_type_symbol
 _atom_site_label
 _atom_site_symmetry_multiplicity
 _atom_site_fract_x
 _atom_site_fract_y
 _atom_site_fract_z
 _atom_site_occupancy
  Fe  Fe0  1  0.00086129  0.00189216  0.00229339  1
  Fe  Fe1  1  0.16771663  0.16658012  0.16769218  1
  Fe  Fe2  1  0.00265015  0.99994979  0.33226491  1
  Ni  Ni3  1  0.00130779  0.33314213  0.00123163  1
  Cr  Cr4  1  0.16899565  0.50006420  0.16785080  1
  Fe  Fe5  1  0.00167802  0.33257538  0.33324177  1
  Fe  Fe6  1  0.99996743  0.66554266  0.00164425  1
  Ni  Ni7  1  0.16346027  0.83358294  0.16876551  1
  Ni  Ni8  1  0.00189993  0.66664612  0.33319484  1
  Cr  Cr9  1  0.33226064  0.00246184  0.00092001  1
  Ni  Ni10  1  0.49882984  0.17093688  0.16802911  1
  Ni  Ni11  1  0.33158410  0.00184599  0.33380045  1
  Ni  Ni12  1  0.33093061  0.33259889  0.99842497  1
  Ni  Ni13  1  0.49803174  0.49655794  0.16735645  1
  Ni  Ni14  1  0.33253237  0.33230942  0.33455342  1
  Cr  Cr15  1  0.33532666  0.66667368  0.99899547  1
  Cr  Cr16  1  0.49791105  0.83268745  0.16835209  1
  Ni  Ni17  1  0.33140118  0.66652161  0.33589278  1
  Cr  Cr18  1  0.66635619  0.99954914  0.00162942  1
  Ni  Ni19  1  0.83607979  0.16719824  0.16873006  1
  Cr  Cr20  1  0.66656495  0.00244291  0.33329843  1
  Cr  Cr21  1  0.66771475  0.33480838  0.00193770  1
  Fe  Fe22  1  0.83404175  0.50090956  0.16653630  1
  Fe  Fe23  1  0.66384993  0.33341247  0.33324130  1
  Ni  Ni24  1  0.66932848  0.66599885  0.00096020  1
  Ni  Ni25  1  0.83843330  0.83386936  0.16502913  1
  Cr  Cr26  1  0.66630312  0.66539635  0.33164914  1
  Fe  Fe27  1  0.16926250  0.16832442  0.49887340  1
  Fe  Fe28  1  0.00183205  0.00096374  0.66619027  1
  Fe  Fe29  1  0.16700840  0.16858059  0.83431350  1
  Ni  Ni30  1  0.16854084  0.49935807  0.49950158  1
  Cr  Cr31  1  0.00233729  0.33434461  0.66592962  1
  Fe  Fe32  1  0.16692930  0.49853366  0.83405998  1
  Fe  Fe33  1  0.16864707  0.83287754  0.49721591  1
  Fe  Fe34  1  0.00229643  0.66614322  0.66689272  1
  Fe  Fe35  1  0.16593445  0.83405413  0.83418193  1
  Ni  Ni36  1  0.49917290  0.16856900  0.50117736  1
  Cr  Cr37  1  0.33394456  0.00049252  0.66676489  1
  Ni  Ni38  1  0.49802603  0.16869527  0.83197245  1
  Ni  Ni39  1  0.49617293  0.49623967  0.50003964  1
  Ni  Ni40  1  0.33316789  0.33324316  0.66820005  1
  Fe  Fe41  1  0.50231261  0.49811709  0.83367371  1
  Ni  Ni42  1  0.49875792  0.83572703  0.49928893  1
  Cr  Cr43  1  0.33232143  0.66578820  0.66554833  1
  Ni  Ni44  1  0.50035781  0.83503268  0.83332052  1
  Fe  Fe45  1  0.83172266  0.16788140  0.50030124  1
  Ni  Ni46  1  0.66595800  0.00203364  0.66605039  1
  Cr  Cr47  1  0.83225545  0.16730620  0.83112730  1
  Cr  Cr48  1  0.83475573  0.49933268  0.49869117  1
  Ni  Ni49  1  0.66618879  0.33225735  0.66596597  1
  Ni  Ni50  1  0.83703345  0.50083010  0.83523185  1
  Cr  Cr51  1  0.83534430  0.83580735  0.50228767  1
  Cr  Cr52  1  0.66493357  0.66564969  0.66754176  1
  Cr  Cr53  1  0.83417307  0.83306753  0.83354716  1
" 