4978,Ni41Fe10Cr47_15,-220.026158586432, 153.591290569001,Ni41Fe10Cr47,"# generated using pymatgen
 data_Cr27Fe5Ni22
_symmetry_space_group_name_H-M   'P 1'
_cell_length_a   7.51274453
_cell_length_b   7.51274453
_cell_length_c   10.62462521
_cell_angle_alpha   90.00000000
_cell_angle_beta   90.00000000
_cell_angle_gamma   90.00000000
_symmetry_Int_Tables_number   1
_chemical_formula_structural   Cr27Fe5Ni22
_chemical_formula_sum   'Cr27 Fe5 Ni22'
_cell_volume   599.66798228
_cell_formula_units_Z   1
loop_
 _symmetry_equiv_pos_site_id
 _symmetry_equiv_pos_as_xyz
  1  'x, y, z'
loop_
 _atom_site_type_symbol
 _atom_site_label
 _atom_site_symmetry_multiplicity
 _atom_site_fract_x
 _atom_site_fract_y
 _atom_site_fract_z
 _atom_site_occupancy
  Cr  Cr0  1  -0.00142460  0.99580124  0.99473675  1
  Cr  Cr1  1  0.16431855  0.16195968  0.16448438  1
  Ni  Ni2  1  -0.00050987  -0.00023099  0.33148805  1
  Ni  Ni3  1  0.99682340  0.33471080  -0.00045181  1
  Fe  Fe4  1  0.16041561  0.49631415  0.16406192  1
  Ni  Ni5  1  0.99673210  0.33046905  0.32965541  1
  Ni  Ni6  1  0.99597558  0.66050397  -0.00276734  1
  Cr  Cr7  1  0.16570702  0.83152281  0.16373483  1
  Cr  Cr8  1  -0.00250626  0.66033338  0.32970479  1
  Ni  Ni9  1  0.33310269  0.99610305  0.99606447  1
  Ni  Ni10  1  0.49542076  0.16254150  0.16458173  1
  Ni  Ni11  1  0.33145331  0.99615282  0.33014640  1
  Cr  Cr12  1  0.32984682  0.32769103  0.99667630  1
  Cr  Cr13  1  0.49942434  0.49831738  0.16525231  1
  Cr  Cr14  1  0.32903498  0.33033743  0.33159052  1
  Cr  Cr15  1  0.32995887  0.66670080  0.99695561  1
  Fe  Fe16  1  0.49654307  0.83099227  0.16407886  1
  Ni  Ni17  1  0.33187287  0.66571630  0.33057446  1
  Cr  Cr18  1  0.65819538  0.99578420  0.99592090  1
  Cr  Cr19  1  0.83121062  0.16645017  0.16518421  1
  Cr  Cr20  1  0.66072075  0.99656106  0.33019113  1
  Cr  Cr21  1  0.66428016  0.33018869  -0.00220691  1
  Ni  Ni22  1  0.82999478  0.49713387  0.16378799  1
  Ni  Ni23  1  0.66488205  0.33082811  0.32895674  1
  Ni  Ni24  1  0.66536159  0.66467220  -0.00194697  1
  Cr  Cr25  1  0.83029085  0.82749594  0.16402827  1
  Ni  Ni26  1  0.66122251  0.66289599  0.32879807  1
  Fe  Fe27  1  0.16460100  0.16557311  0.49500062  1
  Cr  Cr28  1  0.99612485  0.99482121  0.66365622  1
  Cr  Cr29  1  0.16601115  0.16207290  0.83194696  1
  Ni  Ni30  1  0.16631234  0.49694521  0.49730228  1
  Cr  Cr31  1  -0.00099359  0.33274880  0.66188669  1
  Cr  Cr32  1  0.16436363  0.49945986  0.82972769  1
  Cr  Cr33  1  0.16527583  0.83010447  0.49619424  1
  Ni  Ni34  1  -0.00118495  0.66308584  0.66444896  1
  Ni  Ni35  1  0.16585889  0.82904936  0.83040084  1
  Fe  Fe36  1  0.49640988  0.16401580  0.49783275  1
  Cr  Cr37  1  0.33349920  -0.00292930  0.66489702  1
  Ni  Ni38  1  0.49646047  0.16168712  0.82813364  1
  Cr  Cr39  1  0.49624394  0.49772402  0.49916519  1
  Ni  Ni40  1  0.33247172  0.33079315  0.66217817  1
  Cr  Cr41  1  0.49791223  0.49709124  0.82645183  1
  Fe  Fe42  1  0.49671508  0.82863310  0.49749274  1
  Ni  Ni43  1  0.33010499  0.66327132  0.66365739  1
  Ni  Ni44  1  0.49552867  0.83124095  0.82976217  1
  Cr  Cr45  1  0.82971250  0.16347847  0.49571287  1
  Ni  Ni46  1  0.65985838  -0.00302886  0.66431704  1
  Cr  Cr47  1  0.82813415  0.16434720  0.82980391  1
  Cr  Cr48  1  0.82773796  0.49681964  0.49730122  1
  Ni  Ni49  1  0.65993652  0.32824484  0.66399464  1
  Cr  Cr50  1  0.82859135  0.49842154  0.83033797  1
  Cr  Cr51  1  0.82920377  0.83048650  0.49819384  1
  Ni  Ni52  1  0.66194303  0.66559743  0.66409775  1
  Cr  Cr53  1  0.83058922  0.82806829  0.82859442  1
" 