7996,Ni41Fe10Cr47_3,-219.958284904608, 154.590860459462,Ni41Fe10Cr47,"# generated using pymatgen
 data_Cr27Fe5Ni22
_symmetry_space_group_name_H-M   'P 1'
_cell_length_a   7.51356121
_cell_length_b   7.51356121
_cell_length_c   10.62578016
_cell_angle_alpha   90.00000000
_cell_angle_beta   90.00000000
_cell_angle_gamma   90.00000000
_symmetry_Int_Tables_number   1
_chemical_formula_structural   Cr27Fe5Ni22
_chemical_formula_sum   'Cr27 Fe5 Ni22'
_cell_volume   599.86356399
_cell_formula_units_Z   1
loop_
 _symmetry_equiv_pos_site_id
 _symmetry_equiv_pos_as_xyz
  1  'x, y, z'
loop_
 _atom_site_type_symbol
 _atom_site_label
 _atom_site_symmetry_multiplicity
 _atom_site_fract_x
 _atom_site_fract_y
 _atom_site_fract_z
 _atom_site_occupancy
  Cr  Cr0  1  0.00057707  0.99521111  -0.00050757  1
  Ni  Ni1  1  0.16826136  0.16101942  0.16476506  1
  Cr  Cr2  1  0.99591899  0.99468084  0.32903958  1
  Cr  Cr3  1  -0.00077587  0.32879452  -0.00249615  1
  Cr  Cr4  1  0.16664524  0.49480053  0.16698518  1
  Cr  Cr5  1  0.99464630  0.32953011  0.33052732  1
  Cr  Cr6  1  0.99627714  0.66706562  -0.00033437  1
  Fe  Fe7  1  0.16709297  0.83229608  0.16481313  1
  Cr  Cr8  1  0.99418764  0.66674746  0.32906337  1
  Ni  Ni9  1  0.33113391  -0.00168282  -0.00261654  1
  Ni  Ni10  1  0.49484308  0.16071337  0.16513607  1
  Ni  Ni11  1  0.33392058  -0.00266993  0.32869237  1
  Cr  Cr12  1  0.33185578  0.32562054  0.99606623  1
  Cr  Cr13  1  0.49684275  0.49805840  0.16556523  1
  Ni  Ni14  1  0.33563123  0.32843278  0.32996300  1
  Cr  Cr15  1  0.32952485  0.66549618  0.99438726  1
  Cr  Cr16  1  0.49852005  0.83173374  0.16432791  1
  Ni  Ni17  1  0.33249542  0.66477746  0.33302114  1
  Ni  Ni18  1  0.66061155  0.99623852  -0.00233526  1
  Cr  Cr19  1  0.82654185  0.16159933  0.16379194  1
  Ni  Ni20  1  0.66153650  -0.00244859  0.33238594  1
  Cr  Cr21  1  0.65903533  0.32949267  0.99541646  1
  Cr  Cr22  1  0.82659874  0.49793041  0.16291318  1
  Ni  Ni23  1  0.65965350  0.32886454  0.33293490  1
  Ni  Ni24  1  0.66310212  0.66558345  -0.00218361  1
  Ni  Ni25  1  0.82556500  0.83191696  0.16327046  1
  Fe  Fe26  1  0.66235144  0.66504313  0.33253021  1
  Cr  Cr27  1  0.16219267  0.16395561  0.49650963  1
  Ni  Ni28  1  0.99618526  -0.00257325  0.66331112  1
  Ni  Ni29  1  0.16381574  0.16083636  0.82954737  1
  Cr  Cr30  1  0.16588425  0.49525290  0.49705418  1
  Ni  Ni31  1  0.99603641  0.32807054  0.66232649  1
  Cr  Cr32  1  0.16405470  0.49606829  0.82682383  1
  Cr  Cr33  1  0.16758502  0.83172785  0.49746754  1
  Cr  Cr34  1  0.99598157  0.66639936  0.66245086  1
  Ni  Ni35  1  0.16567593  0.83462692  0.82981120  1
  Fe  Fe36  1  0.49861542  0.16205746  0.49404013  1
  Cr  Cr37  1  0.33275253  -0.00307812  0.66448479  1
  Fe  Fe38  1  0.49681699  0.16074889  0.83111242  1
  Ni  Ni39  1  0.49748778  0.49894212  0.49382312  1
  Cr  Cr40  1  0.33450113  0.32964726  0.66490308  1
  Ni  Ni41  1  0.49631806  0.49884329  0.83056305  1
  Ni  Ni42  1  0.49936005  0.83028797  0.49521358  1
  Fe  Fe43  1  0.33269983  0.66440010  0.66269932  1
  Cr  Cr44  1  0.49823522  0.83043765  0.83078081  1
  Ni  Ni45  1  0.82784184  0.16213097  0.49832411  1
  Ni  Ni46  1  0.66365659  -0.00282059  0.66042629  1
  Cr  Cr47  1  0.83139736  0.16144113  0.82784498  1
  Ni  Ni48  1  0.82707858  0.49497415  0.49565068  1
  Cr  Cr49  1  0.66140091  0.32916378  0.66206189  1
  Cr  Cr50  1  0.82892368  0.49611324  0.83210321  1
  Ni  Ni51  1  0.82582701  0.83370423  0.49690485  1
  Cr  Cr52  1  0.66208049  0.66313391  0.66052251  1
  Cr  Cr53  1  0.82785373  0.83351545  0.83096978  1
" 