4062,Ni41Fe10Cr47_13,-219.89629128721, 151.87059156775,Ni41Fe10Cr47,"# generated using pymatgen
 data_Cr27Fe5Ni22
_symmetry_space_group_name_H-M   'P 1'
_cell_length_a   7.51591921
_cell_length_b   7.51591921
_cell_length_c   10.62911488
_cell_angle_alpha   90.00000000
_cell_angle_beta   90.00000000
_cell_angle_gamma   90.00000000
_symmetry_Int_Tables_number   1
_chemical_formula_structural   Cr27Fe5Ni22
_chemical_formula_sum   'Cr27 Fe5 Ni22'
_cell_volume   600.42851297
_cell_formula_units_Z   1
loop_
 _symmetry_equiv_pos_site_id
 _symmetry_equiv_pos_as_xyz
  1  'x, y, z'
loop_
 _atom_site_type_symbol
 _atom_site_label
 _atom_site_symmetry_multiplicity
 _atom_site_fract_x
 _atom_site_fract_y
 _atom_site_fract_z
 _atom_site_occupancy
  Ni  Ni0  1  0.00013237  0.99458034  -0.00100868  1
  Ni  Ni1  1  0.16593742  0.15907372  0.16171838  1
  Ni  Ni2  1  -0.00312620  0.99425059  0.32919848  1
  Cr  Cr3  1  0.00005853  0.33003606  0.99477993  1
  Cr  Cr4  1  0.16746953  0.49508748  0.16220744  1
  Cr  Cr5  1  0.99631326  0.32853018  0.33054664  1
  Cr  Cr6  1  -0.00041388  0.66516628  0.99585468  1
  Ni  Ni7  1  0.16505087  0.83673386  0.16270423  1
  Cr  Cr8  1  -0.00150447  0.66729078  0.33104053  1
  Ni  Ni9  1  0.32993269  -0.00282494  0.99643380  1
  Fe  Fe10  1  0.49394413  0.16198030  0.16267962  1
  Cr  Cr11  1  0.33022501  0.99541871  0.33181662  1
  Ni  Ni12  1  0.33231573  0.32710382  0.99630160  1
  Ni  Ni13  1  0.49640191  0.49535117  0.16368208  1
  Cr  Cr14  1  0.33412499  0.32820752  0.32808419  1
  Cr  Cr15  1  0.33003276  0.66297618  0.99634136  1
  Ni  Ni16  1  0.49527881  0.82958613  0.16232597  1
  Cr  Cr17  1  0.33066669  0.66504955  0.32979457  1
  Cr  Cr18  1  0.65944706  0.99662952  -0.00297188  1
  Cr  Cr19  1  0.83237793  0.16227657  0.16323922  1
  Cr  Cr20  1  0.66111533  -0.00152996  0.32981822  1
  Cr  Cr21  1  0.65848947  0.32893971  -0.00261754  1
  Cr  Cr22  1  0.82642608  0.49827265  0.16550922  1
  Ni  Ni23  1  0.66002945  0.33060416  0.33154110  1
  Cr  Cr24  1  0.66061222  0.66394749  0.99661117  1
  Ni  Ni25  1  0.83005926  0.83388250  0.16338226  1
  Cr  Cr26  1  0.66161169  0.66417091  0.33114024  1
  Cr  Cr27  1  0.16441117  0.16252107  0.49867586  1
  Cr  Cr28  1  -0.00184606  0.99442969  0.66262880  1
  Cr  Cr29  1  0.16481752  0.16251233  0.82887263  1
  Cr  Cr30  1  0.16841078  0.49500423  0.49814141  1
  Ni  Ni31  1  0.99622725  0.33276050  0.66360994  1
  Ni  Ni32  1  0.16867503  0.49435139  0.82851734  1
  Ni  Ni33  1  0.16451102  0.83296169  0.49669232  1
  Cr  Cr34  1  -0.00180975  0.66358130  0.66346085  1
  Ni  Ni35  1  0.16803187  0.83224744  0.83128660  1
  Fe  Fe36  1  0.49602489  0.16363584  0.49885202  1
  Ni  Ni37  1  0.33291109  0.99674388  0.66300425  1
  Fe  Fe38  1  0.49331869  0.16381693  0.82884240  1
  Ni  Ni39  1  0.50047712  0.49564539  0.49806125  1
  Ni  Ni40  1  0.33406073  0.32976994  0.66482603  1
  Ni  Ni41  1  0.49390699  0.49577032  0.82845545  1
  Ni  Ni42  1  0.49704302  0.82761025  0.49916006  1
  Cr  Cr43  1  0.32969511  0.66546936  0.66388095  1
  Ni  Ni44  1  0.49278149  0.82933301  0.82910069  1
  Cr  Cr45  1  0.82983190  0.16448318  0.49719205  1
  Cr  Cr46  1  0.65847239  -0.00296649  0.66387905  1
  Cr  Cr47  1  0.83007948  0.16340988  0.82990730  1
  Fe  Fe48  1  0.82836631  0.49872062  0.49837112  1
  Ni  Ni49  1  0.65976704  0.33135892  0.66168927  1
  Cr  Cr50  1  0.82693061  0.49545511  0.82653815  1
  Ni  Ni51  1  0.82800521  0.83118867  0.49609441  1
  Fe  Fe52  1  0.66049412  0.66265857  0.66241707  1
  Cr  Cr53  1  0.82783120  0.83117058  0.83212413  1
" 