8863,Ni41Cr59_19,-222.907328816143, 132.411232960484,Ni41Cr59,"# generated using pymatgen
 data_Cr11Ni16
_symmetry_space_group_name_H-M   'P 1'
_cell_length_a   7.50519993
_cell_length_b   7.50519993
_cell_length_c   10.61395553
_cell_angle_alpha   90.00000000
_cell_angle_beta   90.00000000
_cell_angle_gamma   90.00000000
_symmetry_Int_Tables_number   1
_chemical_formula_structural   Cr11Ni16
_chemical_formula_sum   'Cr22 Ni32'
_cell_volume   597.86316296
_cell_formula_units_Z   2
loop_
 _symmetry_equiv_pos_site_id
 _symmetry_equiv_pos_as_xyz
  1  'x, y, z'
loop_
 _atom_site_type_symbol
 _atom_site_label
 _atom_site_symmetry_multiplicity
 _atom_site_fract_x
 _atom_site_fract_y
 _atom_site_fract_z
 _atom_site_occupancy
  Ni  Ni0  1  0.99359620  0.99473363  0.99562502  1
  Cr  Cr1  1  0.16399975  0.16374262  0.16285509  1
  Cr  Cr2  1  -0.00141315  -0.00039996  0.33136385  1
  Cr  Cr3  1  -0.00208326  0.33220040  0.99676675  1
  Cr  Cr4  1  0.16733278  0.49902704  0.16252723  1
  Cr  Cr5  1  -0.00227087  0.32903881  0.33594749  1
  Ni  Ni6  1  -0.00203256  0.66677943  0.99352506  1
  Cr  Cr7  1  0.16284819  0.82878892  0.16386244  1
  Cr  Cr8  1  -0.00186743  0.66306192  0.33359816  1
  Cr  Cr9  1  0.33019394  0.99426276  0.99576589  1
  Cr  Cr10  1  0.49816161  0.16656909  0.15978821  1
  Ni  Ni11  1  0.33085053  0.99515228  0.33598162  1
  Ni  Ni12  1  0.33419726  0.33640542  0.99526899  1
  Ni  Ni13  1  0.49738343  0.49885299  0.16273276  1
  Cr  Cr14  1  0.33048076  0.33042663  0.33272042  1
  Ni  Ni15  1  0.32905130  0.66036943  0.99482829  1
  Cr  Cr16  1  0.49754269  0.82809764  0.16713234  1
  Ni  Ni17  1  0.33360135  0.66378705  0.33419708  1
  Ni  Ni18  1  0.66964285  -0.00070355  0.99656966  1
  Ni  Ni19  1  0.82946696  0.16249629  0.16045793  1
  Cr  Cr20  1  0.66284046  0.99648708  0.33139810  1
  Ni  Ni21  1  0.66479838  0.33247586  0.99506474  1
  Cr  Cr22  1  0.82897347  0.49968617  0.16616858  1
  Cr  Cr23  1  0.66395377  0.33115946  0.33351996  1
  Cr  Cr24  1  0.66350883  0.66565336  0.99539346  1
  Ni  Ni25  1  0.83042846  0.83225311  0.16179625  1
  Ni  Ni26  1  0.66064062  0.66299553  0.33273851  1
  Ni  Ni27  1  0.16632721  0.16220163  0.50014253  1
  Ni  Ni28  1  -0.00069172  0.99597835  0.66480791  1
  Cr  Cr29  1  0.16521787  0.16388004  0.82889834  1
  Ni  Ni30  1  0.16632673  0.49943253  0.49992039  1
  Cr  Cr31  1  0.99738858  0.33263771  0.66141317  1
  Ni  Ni32  1  0.16579059  0.50113310  0.83024060  1
  Ni  Ni33  1  0.16722152  0.83033046  0.50031455  1
  Ni  Ni34  1  -0.00000419  0.66455322  0.66568221  1
  Ni  Ni35  1  0.16077556  0.82757869  0.82855835  1
  Ni  Ni36  1  0.49523174  0.16427339  0.50077621  1
  Ni  Ni37  1  0.32765812  0.99624129  0.66019056  1
  Cr  Cr38  1  0.49911993  0.16779721  0.83005135  1
  Ni  Ni39  1  0.49647433  0.49789472  0.49868080  1
  Ni  Ni40  1  0.33242370  0.33332485  0.66274737  1
  Ni  Ni41  1  0.49564715  0.49613920  0.83041230  1
  Ni  Ni42  1  0.49277415  0.82929864  0.49679916  1
  Ni  Ni43  1  0.32782898  0.66292245  0.66337167  1
  Cr  Cr44  1  0.49418815  0.83048854  0.82811040  1
  Ni  Ni45  1  0.83027081  0.16467840  0.50077522  1
  Cr  Cr46  1  0.66424877  -0.00154833  0.66441137  1
  Ni  Ni47  1  0.83107537  0.16422496  0.83151719  1
  Ni  Ni48  1  0.82918312  0.49628821  0.49915367  1
  Ni  Ni49  1  0.66321551  0.33171990  0.66380510  1
  Ni  Ni50  1  0.83146275  0.49779450  0.82933034  1
  Cr  Cr51  1  0.83148917  0.82776585  0.49908835  1
  Cr  Cr52  1  0.66293573  0.66085348  0.66444951  1
  Ni  Ni53  1  0.83534085  0.83146438  0.83150433  1
" 