647,Ni41Cr59_0,-222.8751971541, 132.267797696444,Ni41Cr59,"# generated using pymatgen
 data_Cr11Ni16
_symmetry_space_group_name_H-M   'P 1'
_cell_length_a   7.50702612
_cell_length_b   7.50702612
_cell_length_c   10.61653815
_cell_angle_alpha   90.00000000
_cell_angle_beta   90.00000000
_cell_angle_gamma   90.00000000
_symmetry_Int_Tables_number   1
_chemical_formula_structural   Cr11Ni16
_chemical_formula_sum   'Cr22 Ni32'
_cell_volume   598.29969171
_cell_formula_units_Z   2
loop_
 _symmetry_equiv_pos_site_id
 _symmetry_equiv_pos_as_xyz
  1  'x, y, z'
loop_
 _atom_site_type_symbol
 _atom_site_label
 _atom_site_symmetry_multiplicity
 _atom_site_fract_x
 _atom_site_fract_y
 _atom_site_fract_z
 _atom_site_occupancy
  Ni  Ni0  1  0.99589974  0.99473425  0.99667027  1
  Cr  Cr1  1  0.16413353  0.16668824  0.16497851  1
  Ni  Ni2  1  0.99568758  0.99469705  0.32788475  1
  Cr  Cr3  1  0.99634084  0.33215386  0.99520291  1
  Ni  Ni4  1  0.16499961  0.50007682  0.16501068  1
  Ni  Ni5  1  -0.00142089  0.33478021  0.32957660  1
  Ni  Ni6  1  0.99595242  0.66346648  -0.00142725  1
  Ni  Ni7  1  0.16012658  0.82601140  0.16347460  1
  Ni  Ni8  1  -0.00037622  0.66251465  0.32779586  1
  Cr  Cr9  1  0.32807113  0.00049961  -0.00183551  1
  Ni  Ni10  1  0.49823488  0.16961399  0.16495850  1
  Cr  Cr11  1  0.33159328  0.99429016  0.32859586  1
  Ni  Ni12  1  0.33231504  0.33403458  0.99616287  1
  Ni  Ni13  1  0.49644854  0.49470950  0.16267888  1
  Ni  Ni14  1  0.33103102  0.33532798  0.32951028  1
  Ni  Ni15  1  0.32924797  0.65876176  -0.00074098  1
  Cr  Cr16  1  0.49665354  0.82634477  0.16236157  1
  Ni  Ni17  1  0.32890490  0.65997653  0.33072313  1
  Cr  Cr18  1  0.66681716  -0.00177845  -0.00186827  1
  Cr  Cr19  1  0.82933706  0.16632603  0.16794658  1
  Ni  Ni20  1  0.66498197  0.99717731  0.32970142  1
  Ni  Ni21  1  0.66232967  0.33386223  0.99677701  1
  Ni  Ni22  1  0.83054382  0.49908307  0.16371374  1
  Ni  Ni23  1  0.66231805  0.33254663  0.32796069  1
  Ni  Ni24  1  0.66679848  0.66005037  0.99732106  1
  Ni  Ni25  1  0.83435151  0.82849563  0.16357286  1
  Cr  Cr26  1  0.66387178  0.66386483  0.32946032  1
  Cr  Cr27  1  0.16075086  0.16648035  0.49531760  1
  Ni  Ni28  1  0.99443630  0.99714200  0.66826974  1
  Ni  Ni29  1  0.16277327  0.16505351  0.83191090  1
  Ni  Ni30  1  0.16467762  0.49863667  0.49426233  1
  Cr  Cr31  1  -0.00158248  0.33306510  0.66736017  1
  Ni  Ni32  1  0.16438365  0.49782705  0.83241106  1
  Cr  Cr33  1  0.16177029  0.82815031  0.49684266  1
  Ni  Ni34  1  0.99729989  0.66329020  0.66632951  1
  Cr  Cr35  1  0.16184861  0.82786977  0.83280544  1
  Cr  Cr36  1  0.50030892  0.16541851  0.49462784  1
  Cr  Cr37  1  0.33183069  -0.00114340  0.66502818  1
  Ni  Ni38  1  0.49889481  0.16701057  0.83261375  1
  Ni  Ni39  1  0.49487408  0.49785852  0.49374659  1
  Cr  Cr40  1  0.32979564  0.33210088  0.66579422  1
  Ni  Ni41  1  0.49695113  0.49536816  0.83495331  1
  Ni  Ni42  1  0.49835561  0.82952462  0.49643401  1
  Cr  Cr43  1  0.33063597  0.66053756  0.66051928  1
  Cr  Cr44  1  0.49914309  0.82709079  0.83146418  1
  Cr  Cr45  1  0.83106462  0.16404148  0.49444243  1
  Ni  Ni46  1  0.66614124  0.99730083  0.66550917  1
  Ni  Ni47  1  0.83009861  0.16265710  0.83034365  1
  Cr  Cr48  1  0.83332137  0.49636350  0.49494839  1
  Cr  Cr49  1  0.66403373  0.33203166  0.66710016  1
  Ni  Ni50  1  0.83055991  0.49947344  0.83303163  1
  Cr  Cr51  1  0.83145552  0.83216902  0.49876666  1
  Cr  Cr52  1  0.66476554  0.66296234  0.66427255  1
  Ni  Ni53  1  0.83243058  0.82962202  0.83093979  1
" 