3731,Ni41Cr59_16,-222.927162700273, 137.053703826334,Ni41Cr59,"# generated using pymatgen
 data_Cr11Ni16
_symmetry_space_group_name_H-M   'P 1'
_cell_length_a   7.50360313
_cell_length_b   7.50360313
_cell_length_c   10.61169731
_cell_angle_alpha   90.00000000
_cell_angle_beta   90.00000000
_cell_angle_gamma   90.00000000
_symmetry_Int_Tables_number   1
_chemical_formula_structural   Cr11Ni16
_chemical_formula_sum   'Cr22 Ni32'
_cell_volume   597.48164118
_cell_formula_units_Z   2
loop_
 _symmetry_equiv_pos_site_id
 _symmetry_equiv_pos_as_xyz
  1  'x, y, z'
loop_
 _atom_site_type_symbol
 _atom_site_label
 _atom_site_symmetry_multiplicity
 _atom_site_fract_x
 _atom_site_fract_y
 _atom_site_fract_z
 _atom_site_occupancy
  Ni  Ni0  1  -0.00225490  -0.00090332  -0.00236213  1
  Ni  Ni1  1  0.16419335  0.16494768  0.16406368  1
  Ni  Ni2  1  -0.00008780  -0.00142815  0.33161312  1
  Cr  Cr3  1  -0.00101663  0.33128757  -0.00196718  1
  Ni  Ni4  1  0.16493539  0.49669010  0.16474316  1
  Ni  Ni5  1  0.99520231  0.33176196  0.32958296  1
  Cr  Cr6  1  0.99717205  0.66188838  0.99666932  1
  Cr  Cr7  1  0.16451469  0.83123859  0.16589363  1
  Ni  Ni8  1  -0.00220839  0.66250930  0.33123175  1
  Ni  Ni9  1  0.32942357  -0.00169664  -0.00124745  1
  Cr  Cr10  1  0.49567195  0.16541602  0.16295717  1
  Ni  Ni11  1  0.32815604  0.99666253  0.33220857  1
  Ni  Ni12  1  0.33027596  0.33387308  -0.00140793  1
  Ni  Ni13  1  0.49760238  0.49890817  0.16422700  1
  Cr  Cr14  1  0.33228784  0.33077870  0.32936108  1
  Ni  Ni15  1  0.33195863  0.66055757  0.99751679  1
  Cr  Cr16  1  0.49786239  0.82843065  0.16206298  1
  Ni  Ni17  1  0.33071751  0.66373576  0.33091740  1
  Ni  Ni18  1  0.66551141  0.99735411  0.99609011  1
  Cr  Cr19  1  0.83309357  0.16528156  0.16513604  1
  Cr  Cr20  1  0.66411687  -0.00000658  0.33290329  1
  Cr  Cr21  1  0.66520289  0.33286761  0.99707862  1
  Ni  Ni22  1  0.83014248  0.49822576  0.16748152  1
  Ni  Ni23  1  0.66604167  0.33450834  0.33345627  1
  Ni  Ni24  1  0.66276278  0.66160618  -0.00213340  1
  Cr  Cr25  1  0.83008138  0.82875498  0.16356410  1
  Ni  Ni26  1  0.66429896  0.65908097  0.33007417  1
  Cr  Cr27  1  0.16217163  0.16389629  0.49755184  1
  Ni  Ni28  1  0.99627192  -0.00149430  0.66321179  1
  Cr  Cr29  1  0.16311192  0.16553074  0.83144496  1
  Cr  Cr30  1  0.16017744  0.49923461  0.49730696  1
  Ni  Ni31  1  0.99303425  0.33170747  0.66570250  1
  Ni  Ni32  1  0.16394129  0.49718363  0.83092173  1
  Ni  Ni33  1  0.16302485  0.83156256  0.49680696  1
  Ni  Ni34  1  0.99710309  0.66267434  0.66417393  1
  Cr  Cr35  1  0.16430151  0.83101471  0.82914932  1
  Ni  Ni36  1  0.49998625  0.16561206  0.49879226  1
  Ni  Ni37  1  0.33083632  -0.00213559  0.66159424  1
  Cr  Cr38  1  0.49886678  0.16434894  0.83070914  1
  Ni  Ni39  1  0.50083978  0.49542649  0.49547874  1
  Cr  Cr40  1  0.33357670  0.33223100  0.66495414  1
  Ni  Ni41  1  0.49794788  0.49704603  0.83316347  1
  Cr  Cr42  1  0.49559937  0.83064703  0.49651980  1
  Cr  Cr43  1  0.32970103  0.66391357  0.66400472  1
  Cr  Cr44  1  0.49777022  0.83122894  0.83408810  1
  Ni  Ni45  1  0.83051380  0.16719195  0.49887805  1
  Ni  Ni46  1  0.66568185  0.00165378  0.66372795  1
  Ni  Ni47  1  0.83104725  0.16490860  0.82881938  1
  Ni  Ni48  1  0.83016302  0.49460722  0.49658601  1
  Ni  Ni49  1  0.66710155  0.32997196  0.66274692  1
  Ni  Ni50  1  0.83073251  0.49580101  0.82868683  1
  Cr  Cr51  1  0.83429476  0.82867710  0.49705557  1
  Cr  Cr52  1  0.66469909  0.66123358  0.66473454  1
  Cr  Cr53  1  0.83030895  0.83245869  0.83193883  1
" 