1720,Ni41Cr59_8,-222.652761205199, 131.147966388957,Ni41Cr59,"# generated using pymatgen
 data_Cr11Ni16
_symmetry_space_group_name_H-M   'P 1'
_cell_length_a   7.50796574
_cell_length_b   7.50796574
_cell_length_c   10.61786698
_cell_angle_alpha   90.00000000
_cell_angle_beta   90.00000000
_cell_angle_gamma   90.00000000
_symmetry_Int_Tables_number   1
_chemical_formula_structural   Cr11Ni16
_chemical_formula_sum   'Cr22 Ni32'
_cell_volume   598.52437876
_cell_formula_units_Z   2
loop_
 _symmetry_equiv_pos_site_id
 _symmetry_equiv_pos_as_xyz
  1  'x, y, z'
loop_
 _atom_site_type_symbol
 _atom_site_label
 _atom_site_symmetry_multiplicity
 _atom_site_fract_x
 _atom_site_fract_y
 _atom_site_fract_z
 _atom_site_occupancy
  Cr  Cr0  1  -0.00080622  -0.00241436  0.99561491  1
  Ni  Ni1  1  0.16389455  0.16245028  0.16572001  1
  Ni  Ni2  1  0.99649541  0.99624513  0.32988954  1
  Cr  Cr3  1  0.99494608  0.32865812  -0.00244169  1
  Cr  Cr4  1  0.16379636  0.49891360  0.16652642  1
  Ni  Ni5  1  -0.00182763  0.33144896  0.32955001  1
  Cr  Cr6  1  0.99652206  0.66563106  -0.00248799  1
  Ni  Ni7  1  0.16497382  0.83125397  0.16452784  1
  Ni  Ni8  1  0.99704248  0.66405792  0.33059673  1
  Ni  Ni9  1  0.32966439  0.99438834  0.99649851  1
  Cr  Cr10  1  0.49792460  0.16436067  0.16427808  1
  Cr  Cr11  1  0.32928445  -0.00217900  0.32835658  1
  Cr  Cr12  1  0.33220779  0.33008907  -0.00242508  1
  Ni  Ni13  1  0.49962833  0.49806530  0.16480020  1
  Ni  Ni14  1  0.33062540  0.33429544  0.33127765  1
  Ni  Ni15  1  0.33391964  0.66695438  0.99631765  1
  Cr  Cr16  1  0.49629790  0.82900594  0.16226641  1
  Ni  Ni17  1  0.33057908  0.66015410  0.33041953  1
  Ni  Ni18  1  0.66281555  0.99618017  0.99419917  1
  Cr  Cr19  1  0.82969393  0.16578534  0.16547054  1
  Ni  Ni20  1  0.66714232  0.99630633  0.33207316  1
  Ni  Ni21  1  0.66338117  0.33279913  -0.00243097  1
  Ni  Ni22  1  0.82740522  0.49699279  0.16547928  1
  Ni  Ni23  1  0.66303996  0.33367718  0.32920387  1
  Ni  Ni24  1  0.66076080  0.66287041  0.99616112  1
  Cr  Cr25  1  0.83013333  0.82872432  0.16644111  1
  Ni  Ni26  1  0.66421226  0.66184188  0.33079955  1
  Cr  Cr27  1  0.16249615  0.16764438  0.49783802  1
  Ni  Ni28  1  0.99427027  -0.00147205  0.66674127  1
  Ni  Ni29  1  0.16215209  0.16184731  0.82873089  1
  Ni  Ni30  1  0.16579882  0.49555573  0.49556118  1
  Ni  Ni31  1  -0.00189437  0.32743473  0.66506626  1
  Cr  Cr32  1  0.16572492  0.49668351  0.82858456  1
  Cr  Cr33  1  0.16075643  0.82835041  0.49488498  1
  Cr  Cr34  1  0.99542609  0.66615991  0.66374547  1
  Ni  Ni35  1  0.16499727  0.83343502  0.83226220  1
  Cr  Cr36  1  0.49917759  0.16632431  0.49697702  1
  Cr  Cr37  1  0.32990304  -0.00212170  0.66660890  1
  Cr  Cr38  1  0.49911129  0.16354021  0.83055748  1
  Ni  Ni39  1  0.49622550  0.49653171  0.49649170  1
  Ni  Ni40  1  0.33074948  0.33229680  0.66326576  1
  Ni  Ni41  1  0.49895733  0.49930515  0.83051670  1
  Cr  Cr42  1  0.50156605  0.82913176  0.49633637  1
  Cr  Cr43  1  0.33342880  0.66165852  0.66416264  1
  Ni  Ni44  1  0.49902100  0.82928278  0.83270994  1
  Cr  Cr45  1  0.83015290  0.16199606  0.49782677  1
  Ni  Ni46  1  0.66808896  0.99573318  0.66554344  1
  Ni  Ni47  1  0.83058760  0.16190726  0.82862909  1
  Cr  Cr48  1  0.83113037  0.49803519  0.49641966  1
  Ni  Ni49  1  0.66302058  0.33147366  0.66513434  1
  Cr  Cr50  1  0.82768923  0.49610130  0.83112220  1
  Ni  Ni51  1  0.82955483  0.83129267  0.49657178  1
  Ni  Ni52  1  0.66321773  0.66463529  0.66494223  1
  Ni  Ni53  1  0.82778806  0.83353144  0.82893800  1
" 