1304,Ni41Fe31Cr27_18,-229.424514453036, 184.657505887601,Ni41Fe31Cr27,"# generated using pymatgen
 data_Cr8Fe8Ni11
_symmetry_space_group_name_H-M   'P 1'
_cell_length_a   7.46407973
_cell_length_b   7.46407973
_cell_length_c   10.55580278
_cell_angle_alpha   90.00000000
_cell_angle_beta   90.00000000
_cell_angle_gamma   90.00000000
_symmetry_Int_Tables_number   1
_chemical_formula_structural   Cr8Fe8Ni11
_chemical_formula_sum   'Cr16 Fe16 Ni22'
_cell_volume   588.09001645
_cell_formula_units_Z   2
loop_
 _symmetry_equiv_pos_site_id
 _symmetry_equiv_pos_as_xyz
  1  'x, y, z'
loop_
 _atom_site_type_symbol
 _atom_site_label
 _atom_site_symmetry_multiplicity
 _atom_site_fract_x
 _atom_site_fract_y
 _atom_site_fract_z
 _atom_site_occupancy
  Cr  Cr0  1  0.00081198  0.99861074  0.00335600  1
  Ni  Ni1  1  0.16655267  0.16861271  0.16822690  1
  Fe  Fe2  1  0.99900043  1.00008554  0.33351790  1
  Ni  Ni3  1  0.00097124  0.33596373  0.00259939  1
  Cr  Cr4  1  0.16676663  0.50010954  0.16607757  1
  Fe  Fe5  1  0.99886395  0.33076937  0.33415443  1
  Ni  Ni6  1  0.99961405  0.66574326  0.99973395  1
  Fe  Fe7  1  0.16769213  0.83416397  0.16804157  1
  Cr  Cr8  1  0.99935443  0.66644688  0.33529791  1
  Cr  Cr9  1  0.33436682  0.99879672  0.99960051  1
  Cr  Cr10  1  0.49907887  0.16728441  0.16821974  1
  Ni  Ni11  1  0.33181723  0.00078093  0.33250385  1
  Fe  Fe12  1  0.33444384  0.33598860  0.99888659  1
  Fe  Fe13  1  0.50168344  0.50245792  0.16743737  1
  Fe  Fe14  1  0.33205287  0.33318169  0.33420392  1
  Fe  Fe15  1  0.33388345  0.66659141  0.99945910  1
  Ni  Ni16  1  0.50217427  0.83187403  0.16871677  1
  Fe  Fe17  1  0.33477462  0.66995811  0.33269228  1
  Cr  Cr18  1  0.66558513  0.99791926  0.99911657  1
  Fe  Fe19  1  0.83461224  0.16681187  0.16806667  1
  Ni  Ni20  1  0.66776712  0.99910056  0.33302791  1
  Fe  Fe21  1  0.66647870  0.33528333  0.00046353  1
  Fe  Fe22  1  0.83164714  0.50065707  0.16627595  1
  Fe  Fe23  1  0.66953113  0.33375980  0.33368551  1
  Ni  Ni24  1  0.66598089  0.66553642  0.00166988  1
  Ni  Ni25  1  0.83189136  0.83111766  0.16699550  1
  Ni  Ni26  1  0.66805274  0.66687180  0.33198341  1
  Ni  Ni27  1  0.16826755  0.16694329  0.49835566  1
  Cr  Cr28  1  0.00096381  0.99721846  0.66549576  1
  Cr  Cr29  1  0.16856927  0.16881885  0.83389499  1
  Fe  Fe30  1  0.16678759  0.50104967  0.50006381  1
  Cr  Cr31  1  0.00207239  0.33707294  0.66336040  1
  Ni  Ni32  1  0.16772604  0.50192098  0.83384296  1
  Ni  Ni33  1  0.16570626  0.83568106  0.49870641  1
  Ni  Ni34  1  0.99986173  0.66698170  0.66623938  1
  Ni  Ni35  1  0.16547040  0.82964712  0.83470639  1
  Cr  Cr36  1  0.49815875  0.16485172  0.50103570  1
  Ni  Ni37  1  0.33380676  0.00056769  0.66788050  1
  Ni  Ni38  1  0.49865672  0.16778401  0.83176497  1
  Cr  Cr39  1  0.50125123  0.50099855  0.49792974  1
  Ni  Ni40  1  0.33279236  0.33294886  0.66736382  1
  Fe  Fe41  1  0.49924549  0.50102597  0.83431331  1
  Cr  Cr42  1  0.50223539  0.83498045  0.49989232  1
  Cr  Cr43  1  0.33108283  0.66692809  0.66700594  1
  Fe  Fe44  1  0.50096505  0.83242003  0.83265591  1
  Fe  Fe45  1  0.83342824  0.16429244  0.49822211  1
  Ni  Ni46  1  0.66511910  0.99764916  0.66821723  1
  Cr  Cr47  1  0.83232007  0.16563921  0.83429892  1
  Ni  Ni48  1  0.83391207  0.50282415  0.49916481  1
  Cr  Cr49  1  0.66612704  0.33444626  0.66676308  1
  Cr  Cr50  1  0.83589161  0.50392010  0.83501781  1
  Ni  Ni51  1  0.83310696  0.83125948  0.50141991  1
  Ni  Ni52  1  0.66906860  0.66857805  0.66684049  1
  Ni  Ni53  1  0.83269316  0.82981019  0.83227278  1
" 