5587,Ni41Fe31Cr27_2,-228.850945368229, 185.176461712522,Ni41Fe31Cr27,"# generated using pymatgen
 data_Cr8Fe8Ni11
_symmetry_space_group_name_H-M   'P 1'
_cell_length_a   7.46006068
_cell_length_b   7.46006068
_cell_length_c   10.55011900
_cell_angle_alpha   90.00000000
_cell_angle_beta   90.00000000
_cell_angle_gamma   90.00000000
_symmetry_Int_Tables_number   1
_chemical_formula_structural   Cr8Fe8Ni11
_chemical_formula_sum   'Cr16 Fe16 Ni22'
_cell_volume   587.14055439
_cell_formula_units_Z   2
loop_
 _symmetry_equiv_pos_site_id
 _symmetry_equiv_pos_as_xyz
  1  'x, y, z'
loop_
 _atom_site_type_symbol
 _atom_site_label
 _atom_site_symmetry_multiplicity
 _atom_site_fract_x
 _atom_site_fract_y
 _atom_site_fract_z
 _atom_site_occupancy
  Cr  Cr0  1  0.99981480  0.00248377  1.00018310  1
  Fe  Fe1  1  0.16782052  0.17066308  0.16575541  1
  Fe  Fe2  1  0.00085508  0.99987406  0.33597587  1
  Ni  Ni3  1  0.00228568  0.33274182  0.00165698  1
  Ni  Ni4  1  0.16577135  0.49977133  0.16764650  1
  Cr  Cr5  1  0.00238893  0.33225604  0.33244874  1
  Fe  Fe6  1  0.99863718  0.66673923  0.00175152  1
  Cr  Cr7  1  0.16704693  0.83309952  0.16866460  1
  Ni  Ni8  1  0.00096268  0.66860850  0.33428268  1
  Ni  Ni9  1  0.33428745  1.00025757  0.99823935  1
  Cr  Cr10  1  0.49802989  0.16592901  0.16507122  1
  Cr  Cr11  1  0.33134377  1.00034298  0.33337878  1
  Ni  Ni12  1  0.32966762  0.33306216  0.00321156  1
  Ni  Ni13  1  0.50017521  0.50252996  0.17007311  1
  Ni  Ni14  1  0.33172938  0.33826802  0.33359521  1
  Cr  Cr15  1  0.33585088  0.66764584  1.00000771  1
  Ni  Ni16  1  0.50229507  0.83231787  0.16514652  1
  Ni  Ni17  1  0.33347777  0.66407344  0.33502246  1
  Ni  Ni18  1  0.66771460  0.99597496  0.99914273  1
  Fe  Fe19  1  0.83513233  0.16746858  0.16589289  1
  Cr  Cr20  1  0.67159246  0.99841590  0.33261594  1
  Cr  Cr21  1  0.66952112  0.33482556  0.00123637  1
  Ni  Ni22  1  0.83538089  0.50323870  0.16545100  1
  Cr  Cr23  1  0.66645320  0.33544917  0.33410656  1
  Ni  Ni24  1  0.66766429  0.67087206  0.00339589  1
  Fe  Fe25  1  0.83177524  0.83033114  0.16634459  1
  Fe  Fe26  1  0.66639928  0.66623123  0.33168723  1
  Ni  Ni27  1  0.16596157  0.16691729  0.50102157  1
  Ni  Ni28  1  1.00006258  0.00165598  0.66561014  1
  Ni  Ni29  1  0.16710691  0.16539382  0.83404232  1
  Fe  Fe30  1  0.16895477  0.49948493  0.50036477  1
  Ni  Ni31  1  0.00221434  0.32935360  0.66706642  1
  Cr  Cr32  1  0.16451803  0.49975550  0.83442402  1
  Fe  Fe33  1  0.16395015  0.83394113  0.50105580  1
  Fe  Fe34  1  0.00116187  0.66926746  0.66653164  1
  Ni  Ni35  1  0.16630735  0.83613583  0.83112611  1
  Cr  Cr36  1  0.49950887  0.16886768  0.50285643  1
  Fe  Fe37  1  0.32978834  0.00055184  0.66831274  1
  Cr  Cr38  1  0.49924551  0.16495023  0.83318402  1
  Fe  Fe39  1  0.49785587  0.50005125  0.50124333  1
  Ni  Ni40  1  0.33101609  0.33433130  0.66478607  1
  Cr  Cr41  1  0.50132785  0.50017752  0.83209635  1
  Cr  Cr42  1  0.49965252  0.83216864  0.50117629  1
  Fe  Fe43  1  0.33192567  0.66743090  0.66637345  1
  Fe  Fe44  1  0.50205222  0.83490824  0.83389584  1
  Ni  Ni45  1  0.83669727  0.16589744  0.50281367  1
  Fe  Fe46  1  0.67086549  0.00047776  0.66825803  1
  Ni  Ni47  1  0.83527538  0.16492634  0.83170688  1
  Cr  Cr48  1  0.83453756  0.50184446  0.50298656  1
  Fe  Fe49  1  0.66925563  0.33277430  0.66645160  1
  Cr  Cr50  1  0.83562998  0.50142270  0.83411100  1
  Fe  Fe51  1  0.83646789  0.83553786  0.50212684  1
  Ni  Ni52  1  0.66606037  0.66953598  0.66669988  1
  Ni  Ni53  1  0.83381390  0.83405615  0.83298130  1
" 