5004,Ni41Cr59_4,-222.735381714688, 132.451306614554,Ni41Cr59,"# generated using pymatgen
 data_Cr11Ni16
_symmetry_space_group_name_H-M   'P 1'
_cell_length_a   7.51213006
_cell_length_b   7.51213006
_cell_length_c   10.62375621
_cell_angle_alpha   90.00000000
_cell_angle_beta   90.00000000
_cell_angle_gamma   90.00000000
_symmetry_Int_Tables_number   1
_chemical_formula_structural   Cr11Ni16
_chemical_formula_sum   'Cr22 Ni32'
_cell_volume   599.52085138
_cell_formula_units_Z   2
loop_
 _symmetry_equiv_pos_site_id
 _symmetry_equiv_pos_as_xyz
  1  'x, y, z'
loop_
 _atom_site_type_symbol
 _atom_site_label
 _atom_site_symmetry_multiplicity
 _atom_site_fract_x
 _atom_site_fract_y
 _atom_site_fract_z
 _atom_site_occupancy
  Ni  Ni0  1  0.99671592  0.99448057  -0.00126996  1
  Ni  Ni1  1  0.16331506  0.16491595  0.16513426  1
  Cr  Cr2  1  -0.00083705  -0.00040705  0.33097786  1
  Cr  Cr3  1  -0.00141249  0.32819571  0.00295182  1
  Ni  Ni4  1  0.16601784  0.49666876  0.16666757  1
  Ni  Ni5  1  -0.00260526  0.33031830  0.32993734  1
  Cr  Cr6  1  -0.00149334  0.66278259  -0.00221884  1
  Ni  Ni7  1  0.16484611  0.82835025  0.16327064  1
  Cr  Cr8  1  -0.00005326  0.65988983  0.33224068  1
  Cr  Cr9  1  0.32924793  -0.00295760  -0.00210513  1
  Ni  Ni10  1  0.49863316  0.16632875  0.16612021  1
  Cr  Cr11  1  0.32932076  -0.00058509  0.33107077  1
  Cr  Cr12  1  0.33136831  0.33371889  0.00062002  1
  Ni  Ni13  1  0.49531697  0.49633462  0.16480130  1
  Ni  Ni14  1  0.33065824  0.33183432  0.33003450  1
  Ni  Ni15  1  0.33265666  0.66427214  -0.00229339  1
  Cr  Cr16  1  0.49674084  0.82972993  0.16591856  1
  Ni  Ni17  1  0.32826871  0.65953641  0.33013092  1
  Ni  Ni18  1  0.66393459  0.99599093  -0.00246699  1
  Ni  Ni19  1  0.82936924  0.16502461  0.16479799  1
  Ni  Ni20  1  0.66340282  0.00376877  0.33040251  1
  Cr  Cr21  1  0.66163409  0.33323170  -0.00187930  1
  Ni  Ni22  1  0.82922430  0.49397575  0.16537110  1
  Ni  Ni23  1  0.66287529  0.32919520  0.33086722  1
  Ni  Ni24  1  0.66079765  0.66441403  0.99604684  1
  Cr  Cr25  1  0.82862487  0.83124535  0.16387181  1
  Cr  Cr26  1  0.66153395  0.65671257  0.33098931  1
  Ni  Ni27  1  0.16583935  0.16663869  0.49743037  1
  Cr  Cr28  1  -0.00098454  0.99508435  0.66240654  1
  Cr  Cr29  1  0.16426352  0.16396768  0.82924021  1
  Ni  Ni30  1  0.16583177  0.49608681  0.49690814  1
  Cr  Cr31  1  0.99599018  0.33184517  0.65968809  1
  Cr  Cr32  1  0.16794241  0.49726163  0.82772834  1
  Ni  Ni33  1  0.16659968  0.82775529  0.49912192  1
  Ni  Ni34  1  0.00001986  0.66434742  0.66182448  1
  Ni  Ni35  1  0.16520515  0.82844307  0.82920095  1
  Ni  Ni36  1  0.49607011  0.16779721  0.49624862  1
  Ni  Ni37  1  0.32956483  0.99608614  0.66200430  1
  Cr  Cr38  1  0.49571501  0.16600369  0.82722655  1
  Ni  Ni39  1  0.49406022  0.49343275  0.49688006  1
  Ni  Ni40  1  0.33297527  0.33162489  0.66021194  1
  Ni  Ni41  1  0.49564024  0.50089977  0.82880568  1
  Cr  Cr42  1  0.49455137  0.82986302  0.49327558  1
  Ni  Ni43  1  0.33002120  0.66362805  0.66306592  1
  Ni  Ni44  1  0.49578118  0.82859461  0.83134790  1
  Ni  Ni45  1  0.82861686  0.16841432  0.49421852  1
  Cr  Cr46  1  0.66116070  -0.00161320  0.66175094  1
  Cr  Cr47  1  0.82994422  0.16216718  0.83217661  1
  Ni  Ni48  1  0.83061985  0.49276138  0.49677783  1
  Ni  Ni49  1  0.65969256  0.33199134  0.66002721  1
  Cr  Cr50  1  0.83025277  0.49717002  0.82895874  1
  Cr  Cr51  1  0.83063380  0.83010392  0.49462485  1
  Cr  Cr52  1  0.66359779  0.66099896  0.66414930  1
  Ni  Ni53  1  0.83025798  0.82964492  0.83267599  1
" 