3367,Ni41Fe10Cr47_10,-219.636378793927, 146.418738161445,Ni41Fe10Cr47,"# generated using pymatgen
 data_Cr27Fe5Ni22
_symmetry_space_group_name_H-M   'P 1'
_cell_length_a   7.51872361
_cell_length_b   7.51872361
_cell_length_c   10.63308090
_cell_angle_alpha   90.00000000
_cell_angle_beta   90.00000000
_cell_angle_gamma   90.00000000
_symmetry_Int_Tables_number   1
_chemical_formula_structural   Cr27Fe5Ni22
_chemical_formula_sum   'Cr27 Fe5 Ni22'
_cell_volume   601.10087384
_cell_formula_units_Z   1
loop_
 _symmetry_equiv_pos_site_id
 _symmetry_equiv_pos_as_xyz
  1  'x, y, z'
loop_
 _atom_site_type_symbol
 _atom_site_label
 _atom_site_symmetry_multiplicity
 _atom_site_fract_x
 _atom_site_fract_y
 _atom_site_fract_z
 _atom_site_occupancy
  Cr  Cr0  1  -0.00279205  0.99409143  -0.00301710  1
  Fe  Fe1  1  0.16572781  0.16523708  0.16147599  1
  Cr  Cr2  1  0.99378280  0.99562275  0.32705908  1
  Cr  Cr3  1  0.00111067  0.33247301  0.99565853  1
  Ni  Ni4  1  0.16434426  0.50056088  0.16231459  1
  Cr  Cr5  1  -0.00132427  0.33276212  0.33026647  1
  Ni  Ni6  1  0.99554496  0.66269061  -0.00342002  1
  Ni  Ni7  1  0.16376049  0.82739029  0.16334603  1
  Ni  Ni8  1  -0.00279641  0.66461736  0.32856357  1
  Cr  Cr9  1  0.32981401  -0.00131841  0.99556670  1
  Fe  Fe10  1  0.49648205  0.16608173  0.16015442  1
  Cr  Cr11  1  0.33319402  -0.00259534  0.32633461  1
  Ni  Ni12  1  0.33123650  0.33154912  0.99640413  1
  Ni  Ni13  1  0.49482073  0.49656208  0.15917787  1
  Cr  Cr14  1  0.32910057  0.33132131  0.32828563  1
  Cr  Cr15  1  0.33156216  0.66251930  0.99560342  1
  Ni  Ni16  1  0.49617747  0.82989176  0.16241429  1
  Cr  Cr17  1  0.32855408  0.66129094  0.32884577  1
  Cr  Cr18  1  0.66250901  0.99128289  -0.00317522  1
  Cr  Cr19  1  0.82679870  0.16394020  0.16238930  1
  Ni  Ni20  1  0.66318804  0.99654361  0.32944195  1
  Ni  Ni21  1  0.65965125  0.33219129  0.99400400  1
  Cr  Cr22  1  0.82777203  0.49497171  0.15917714  1
  Cr  Cr23  1  0.66223035  0.32726890  0.33215784  1
  Ni  Ni24  1  0.66378847  0.66145006  0.99462226  1
  Fe  Fe25  1  0.83005385  0.82571792  0.16169632  1
  Cr  Cr26  1  0.66462281  0.66672422  0.32690985  1
  Cr  Cr27  1  0.16170929  0.16011886  0.49886793  1
  Ni  Ni28  1  0.99288548  0.99452477  0.66386739  1
  Fe  Fe29  1  0.16446420  0.16602635  0.83001297  1
  Ni  Ni30  1  0.16068636  0.49796178  0.49612834  1
  Cr  Cr31  1  0.99536984  0.33185887  0.66382356  1
  Ni  Ni32  1  0.16228187  0.49806779  0.83089899  1
  Cr  Cr33  1  0.16169239  0.82725447  0.49909390  1
  Ni  Ni34  1  0.99400548  0.66339952  0.66371009  1
  Cr  Cr35  1  0.16112400  0.82924844  0.82662989  1
  Fe  Fe36  1  0.49845426  0.16298360  0.49817509  1
  Cr  Cr37  1  0.33223624  -0.00190454  0.66810929  1
  Ni  Ni38  1  0.49785844  0.16688508  0.83141300  1
  Cr  Cr39  1  0.49658630  0.49593272  0.49776764  1
  Cr  Cr40  1  0.33064743  0.33175277  0.66514294  1
  Ni  Ni41  1  0.49793535  0.49307712  0.83325469  1
  Cr  Cr42  1  0.49615833  0.83085409  0.49667272  1
  Cr  Cr43  1  0.33053777  0.65972504  0.66552608  1
  Ni  Ni44  1  0.49863564  0.82942492  0.83177135  1
  Ni  Ni45  1  0.82699413  0.16006531  0.49772305  1
  Cr  Cr46  1  0.66518572  0.99490270  0.66319830  1
  Cr  Cr47  1  0.82879031  0.16518729  0.82993956  1
  Cr  Cr48  1  0.83008040  0.49750194  0.49783959  1
  Ni  Ni49  1  0.66293660  0.32871842  0.66493791  1
  Ni  Ni50  1  0.82928821  0.49779530  0.83208000  1
  Ni  Ni51  1  0.83191995  0.83306720  0.49478723  1
  Cr  Cr52  1  0.66535537  0.66233737  0.66913783  1
  Ni  Ni53  1  0.83169590  0.82682365  0.83166294  1
" 