4760,Ni41Cr59_6,-223.133422388052, 139.63806796277,Ni41Cr59,"# generated using pymatgen
 data_Cr11Ni16
_symmetry_space_group_name_H-M   'P 1'
_cell_length_a   7.50215897
_cell_length_b   7.50215897
_cell_length_c   10.60965496
_cell_angle_alpha   90.00000000
_cell_angle_beta   90.00000000
_cell_angle_gamma   90.00000000
_symmetry_Int_Tables_number   1
_chemical_formula_structural   Cr11Ni16
_chemical_formula_sum   'Cr22 Ni32'
_cell_volume   597.13672985
_cell_formula_units_Z   2
loop_
 _symmetry_equiv_pos_site_id
 _symmetry_equiv_pos_as_xyz
  1  'x, y, z'
loop_
 _atom_site_type_symbol
 _atom_site_label
 _atom_site_symmetry_multiplicity
 _atom_site_fract_x
 _atom_site_fract_y
 _atom_site_fract_z
 _atom_site_occupancy
  Ni  Ni0  1  0.99753712  0.00012493  0.99703303  1
  Cr  Cr1  1  0.16336275  0.16498449  0.16188772  1
  Cr  Cr2  1  0.99559764  -0.00101686  0.33149066  1
  Ni  Ni3  1  0.99637836  0.33148047  0.99759753  1
  Ni  Ni4  1  0.16544689  0.49630326  0.16564990  1
  Cr  Cr5  1  -0.00188217  0.33239705  0.33065052  1
  Cr  Cr6  1  0.99514653  0.66086494  0.99750651  1
  Cr  Cr7  1  0.16582347  0.82917274  0.16342953  1
  Cr  Cr8  1  0.99638952  0.66110829  0.33191597  1
  Ni  Ni9  1  0.32951368  -0.00191119  0.99546801  1
  Cr  Cr10  1  0.50068600  0.16737186  0.16544034  1
  Cr  Cr11  1  0.33247748  -0.00041992  0.33297390  1
  Cr  Cr12  1  0.33107527  0.33284662  0.99680929  1
  Ni  Ni13  1  0.49989956  0.49756589  0.16600113  1
  Ni  Ni14  1  0.33292540  0.33476142  0.33312472  1
  Cr  Cr15  1  0.33424551  0.66245714  0.99725215  1
  Cr  Cr16  1  0.49764002  0.82790478  0.16513180  1
  Ni  Ni17  1  0.33406008  0.65940852  0.33175283  1
  Cr  Cr18  1  0.66404591  0.99620086  0.99576374  1
  Ni  Ni19  1  0.82968740  0.16746196  0.16325137  1
  Ni  Ni20  1  0.66384502  -0.00233731  0.33367872  1
  Ni  Ni21  1  0.66680226  0.33578498  -0.00094658  1
  Ni  Ni22  1  0.82791824  0.49492231  0.16337248  1
  Ni  Ni23  1  0.66284320  0.33322263  0.33040741  1
  Ni  Ni24  1  0.66448985  0.66053116  0.99605681  1
  Cr  Cr25  1  0.82944990  0.83075743  0.16496446  1
  Ni  Ni26  1  0.66268225  0.66200127  0.33219675  1
  Ni  Ni27  1  0.16692801  0.16919939  0.49913134  1
  Cr  Cr28  1  0.99581762  0.99762391  0.66333768  1
  Ni  Ni29  1  0.16326278  0.16740752  0.83181061  1
  Ni  Ni30  1  0.16625235  0.49606079  0.49942646  1
  Ni  Ni31  1  0.00081564  0.33486461  0.66476148  1
  Ni  Ni32  1  0.16344896  0.49539296  0.82812037  1
  Cr  Cr33  1  0.16514802  0.82593198  0.49739964  1
  Ni  Ni34  1  0.99702394  0.66055625  0.66404215  1
  Cr  Cr35  1  0.16419768  0.82971431  0.83181824  1
  Ni  Ni36  1  0.49731133  0.16598667  0.49668995  1
  Cr  Cr37  1  0.33428080  -0.00065509  0.66413905  1
  Cr  Cr38  1  0.49710449  0.16620944  0.83055522  1
  Ni  Ni39  1  0.49614623  0.49760681  0.49580416  1
  Ni  Ni40  1  0.32887024  0.33370763  0.66311436  1
  Ni  Ni41  1  0.49772272  0.49921265  0.83142672  1
  Ni  Ni42  1  0.49995973  0.82923050  0.49684956  1
  Ni  Ni43  1  0.33178193  0.66084840  0.66422169  1
  Ni  Ni44  1  0.49896701  0.82879724  0.83097960  1
  Cr  Cr45  1  0.82850750  0.16638371  0.49750336  1
  Ni  Ni46  1  0.66318616  0.99496238  0.66276861  1
  Cr  Cr47  1  0.83256801  0.16708123  0.83194844  1
  Ni  Ni48  1  0.83067291  0.49915777  0.49780997  1
  Cr  Cr49  1  0.66239718  0.33305718  0.66389482  1
  Ni  Ni50  1  0.83197161  0.49830638  0.83210594  1
  Ni  Ni51  1  0.82705494  0.82862822  0.49779100  1
  Cr  Cr52  1  0.66435870  0.66517271  0.66576451  1
  Ni  Ni53  1  0.82979183  0.82924020  0.83055983  1
" 