1530,Ni41Cr59_5,-222.8748404254, 135.666852216739,Ni41Cr59,"# generated using pymatgen
 data_Cr11Ni16
_symmetry_space_group_name_H-M   'P 1'
_cell_length_a   7.50509104
_cell_length_b   7.50509104
_cell_length_c   10.61380154
_cell_angle_alpha   90.00000000
_cell_angle_beta   90.00000000
_cell_angle_gamma   90.00000000
_symmetry_Int_Tables_number   1
_chemical_formula_structural   Cr11Ni16
_chemical_formula_sum   'Cr22 Ni32'
_cell_volume   597.83714088
_cell_formula_units_Z   2
loop_
 _symmetry_equiv_pos_site_id
 _symmetry_equiv_pos_as_xyz
  1  'x, y, z'
loop_
 _atom_site_type_symbol
 _atom_site_label
 _atom_site_symmetry_multiplicity
 _atom_site_fract_x
 _atom_site_fract_y
 _atom_site_fract_z
 _atom_site_occupancy
  Ni  Ni0  1  0.99480522  0.99361821  -0.00230331  1
  Cr  Cr1  1  0.15919551  0.16517116  0.16564904  1
  Ni  Ni2  1  0.99702833  -0.00104799  0.33104160  1
  Cr  Cr3  1  0.99177588  0.33433929  0.99678996  1
  Cr  Cr4  1  0.16487716  0.49839762  0.16232746  1
  Ni  Ni5  1  0.99640676  0.33000766  0.33116456  1
  Ni  Ni6  1  0.99632523  0.66599543  0.99544719  1
  Ni  Ni7  1  0.16128967  0.83024087  0.16101155  1
  Cr  Cr8  1  0.99725665  0.66433127  0.33059204  1
  Cr  Cr9  1  0.32969391  0.99519135  0.99701714  1
  Cr  Cr10  1  0.49995515  0.16582953  0.16378189  1
  Cr  Cr11  1  0.32845627  0.99709534  0.33101487  1
  Cr  Cr12  1  0.33553238  0.33260088  0.99472082  1
  Ni  Ni13  1  0.50071226  0.49756718  0.16427987  1
  Ni  Ni14  1  0.33164302  0.33299295  0.33338869  1
  Ni  Ni15  1  0.32992546  0.66292709  0.99627226  1
  Cr  Cr16  1  0.49878665  0.82639597  0.16302669  1
  Cr  Cr17  1  0.33025177  0.66340227  0.33188968  1
  Ni  Ni18  1  0.66738672  -0.00135640  0.99592631  1
  Ni  Ni19  1  0.82949987  0.16493982  0.16527447  1
  Ni  Ni20  1  0.66701210  -0.00106364  0.32983638  1
  Ni  Ni21  1  0.66457324  0.33311603  -0.00246604  1
  Ni  Ni22  1  0.82776473  0.49597625  0.16400212  1
  Ni  Ni23  1  0.66427073  0.33284761  0.32769066  1
  Ni  Ni24  1  0.66565103  0.66051809  0.99632826  1
  Cr  Cr25  1  0.82988266  0.83035059  0.16340888  1
  Ni  Ni26  1  0.66347616  0.65989283  0.33027682  1
  Ni  Ni27  1  0.16272031  0.16681672  0.49748912  1
  Ni  Ni28  1  -0.00158547  0.99659329  0.66399724  1
  Cr  Cr29  1  0.16365604  0.16695371  0.82887733  1
  Ni  Ni30  1  0.16655153  0.49443299  0.49890956  1
  Ni  Ni31  1  0.00060959  0.33179224  0.66382511  1
  Ni  Ni32  1  0.16501024  0.50070773  0.82961778  1
  Ni  Ni33  1  0.16317217  0.83125357  0.49866212  1
  Cr  Cr34  1  0.99741439  0.66338343  0.66587349  1
  Ni  Ni35  1  0.16166798  0.82793967  0.83254554  1
  Cr  Cr36  1  0.49842937  0.16605200  0.49784039  1
  Cr  Cr37  1  0.33038806  0.99725463  0.66402226  1
  Ni  Ni38  1  0.50012048  0.16607209  0.83085021  1
  Ni  Ni39  1  0.49552038  0.49735449  0.49736648  1
  Ni  Ni40  1  0.33027628  0.33479765  0.66408910  1
  Ni  Ni41  1  0.49703535  0.49881749  0.83103986  1
  Cr  Cr42  1  0.50116994  0.82652302  0.49847553  1
  Ni  Ni43  1  0.33017207  0.66086180  0.66398664  1
  Cr  Cr44  1  0.50005267  0.82874152  0.83099343  1
  Cr  Cr45  1  0.83352894  0.16397107  0.49714023  1
  Ni  Ni46  1  0.66646704  0.99598958  0.66700413  1
  Cr  Cr47  1  0.83150741  0.16222547  0.83019628  1
  Cr  Cr48  1  0.82958196  0.49669800  0.49648041  1
  Cr  Cr49  1  0.66363880  0.33329925  0.66823216  1
  Ni  Ni50  1  0.83015379  0.50047816  0.83202759  1
  Cr  Cr51  1  0.82876345  0.83195418  0.49902210  1
  Ni  Ni52  1  0.66234738  0.66274639  0.66603802  1
  Ni  Ni53  1  0.83133188  0.82914915  0.83114461  1
" 