8946,Ni41Fe31Cr27_15,-229.217890934947, 194.896338367983,Ni41Fe31Cr27,"# generated using pymatgen
 data_Cr8Fe8Ni11
_symmetry_space_group_name_H-M   'P 1'
_cell_length_a   7.45949181
_cell_length_b   7.45949181
_cell_length_c   10.54931449
_cell_angle_alpha   90.00000000
_cell_angle_beta   90.00000000
_cell_angle_gamma   90.00000000
_symmetry_Int_Tables_number   1
_chemical_formula_structural   Cr8Fe8Ni11
_chemical_formula_sum   'Cr16 Fe16 Ni22'
_cell_volume   587.00624673
_cell_formula_units_Z   2
loop_
 _symmetry_equiv_pos_site_id
 _symmetry_equiv_pos_as_xyz
  1  'x, y, z'
loop_
 _atom_site_type_symbol
 _atom_site_label
 _atom_site_symmetry_multiplicity
 _atom_site_fract_x
 _atom_site_fract_y
 _atom_site_fract_z
 _atom_site_occupancy
  Fe  Fe0  1  0.99977198  0.99894597  1.00036131  1
  Fe  Fe1  1  0.16684714  0.16906646  0.16943927  1
  Ni  Ni2  1  0.00114939  0.00189548  0.33305486  1
  Cr  Cr3  1  0.00300729  0.33564750  0.00225386  1
  Ni  Ni4  1  0.16739573  0.50064449  0.16858191  1
  Ni  Ni5  1  0.00348164  0.33462362  0.33413836  1
  Fe  Fe6  1  0.99896933  0.66514070  1.00040271  1
  Cr  Cr7  1  0.16763561  0.83172565  0.16773467  1
  Ni  Ni8  1  0.00152643  0.66500466  0.33454303  1
  Cr  Cr9  1  0.33352184  0.00059874  0.99952767  1
  Cr  Cr10  1  0.49943177  0.16740269  0.16862811  1
  Fe  Fe11  1  0.33355785  1.00013683  0.33255470  1
  Fe  Fe12  1  0.33450189  0.33752374  1.00043037  1
  Fe  Fe13  1  0.49864763  0.50362189  0.16653061  1
  Ni  Ni14  1  0.33019279  0.33567884  0.33180224  1
  Fe  Fe15  1  0.33639670  0.66404100  0.99963713  1
  Ni  Ni16  1  0.49897952  0.83235258  0.16878935  1
  Fe  Fe17  1  0.33223541  0.66426449  0.33451008  1
  Cr  Cr18  1  0.66613515  0.99656855  0.99847747  1
  Cr  Cr19  1  0.83525288  0.16791954  0.16967243  1
  Fe  Fe20  1  0.66833542  0.99964504  0.33556003  1
  Cr  Cr21  1  0.66570530  0.33871731  0.99992250  1
  Ni  Ni22  1  0.83651398  0.50173074  0.16720072  1
  Cr  Cr23  1  0.66875987  0.33622012  0.33406355  1
  Ni  Ni24  1  0.66588847  0.66653554  0.99944582  1
  Cr  Cr25  1  0.83414844  0.83217591  0.16598225  1
  Cr  Cr26  1  0.66624177  0.66741169  0.33477364  1
  Cr  Cr27  1  0.16548641  0.16822035  0.49999133  1
  Ni  Ni28  1  0.99841537  0.00064901  0.66756839  1
  Cr  Cr29  1  0.16892748  0.16791770  0.83236787  1
  Ni  Ni30  1  0.16664194  0.50204859  0.50030317  1
  Fe  Fe31  1  0.99822461  0.33687192  0.66587533  1
  Ni  Ni32  1  0.16792971  0.50247530  0.83261713  1
  Cr  Cr33  1  0.16733363  0.83121387  0.50014776  1
  Fe  Fe34  1  0.99807990  0.66522036  0.66659195  1
  Cr  Cr35  1  0.16625232  0.83088953  0.83355987  1
  Cr  Cr36  1  0.50296374  0.16706581  0.50224935  1
  Fe  Fe37  1  0.33762024  0.99886084  0.66876143  1
  Ni  Ni38  1  0.50081840  0.16760948  0.83108860  1
  Ni  Ni39  1  0.49966345  0.50183655  0.50146649  1
  Fe  Fe40  1  0.33601395  0.33706520  0.66759362  1
  Ni  Ni41  1  0.50050218  0.50143133  0.83420776  1
  Fe  Fe42  1  0.50185853  0.83172952  0.50217259  1
  Ni  Ni43  1  0.33583768  0.66521258  0.66709558  1
  Ni  Ni44  1  0.50162216  0.83248749  0.83211504  1
  Ni  Ni45  1  0.83371538  0.16655207  0.50058521  1
  Ni  Ni46  1  0.66774633  0.99916112  0.66712679  1
  Cr  Cr47  1  0.83127798  0.16705929  0.83158319  1
  Ni  Ni48  1  0.83511193  0.49985202  0.50162889  1
  Ni  Ni49  1  0.66713333  0.33555872  0.66777247  1
  Ni  Ni50  1  0.83306938  0.50349986  0.83279764  1
  Fe  Fe51  1  0.83370396  0.83423428  0.50128921  1
  Ni  Ni52  1  0.66552441  0.66668760  0.66807484  1
  Fe  Fe53  1  0.83164298  0.83069842  0.83269843  1
" 