8939,Ni41Cr59_14,-223.088092397557, 137.107510127662,Ni41Cr59,"# generated using pymatgen
 data_Cr11Ni16
_symmetry_space_group_name_H-M   'P 1'
_cell_length_a   7.50276781
_cell_length_b   7.50276781
_cell_length_c   10.61051599
_cell_angle_alpha   90.00000000
_cell_angle_beta   90.00000000
_cell_angle_gamma   90.00000000
_symmetry_Int_Tables_number   1
_chemical_formula_structural   Cr11Ni16
_chemical_formula_sum   'Cr22 Ni32'
_cell_volume   597.28212419
_cell_formula_units_Z   2
loop_
 _symmetry_equiv_pos_site_id
 _symmetry_equiv_pos_as_xyz
  1  'x, y, z'
loop_
 _atom_site_type_symbol
 _atom_site_label
 _atom_site_symmetry_multiplicity
 _atom_site_fract_x
 _atom_site_fract_y
 _atom_site_fract_z
 _atom_site_occupancy
  Ni  Ni0  1  -0.00218229  0.99537361  -0.00137528  1
  Ni  Ni1  1  0.16607773  0.16307414  0.16135452  1
  Ni  Ni2  1  0.99626212  0.99658191  0.33070993  1
  Cr  Cr3  1  -0.00187635  0.33251850  -0.00018960  1
  Ni  Ni4  1  0.16474412  0.49927394  0.16443393  1
  Cr  Cr5  1  -0.00168443  0.33178863  0.32976975  1
  Ni  Ni6  1  0.99326086  0.66469660  -0.00153334  1
  Cr  Cr7  1  0.16229872  0.83125401  0.16546809  1
  Ni  Ni8  1  -0.00006114  0.66430353  0.32964702  1
  Ni  Ni9  1  0.33182580  -0.00128287  -0.00085982  1
  Ni  Ni10  1  0.49753753  0.16535963  0.16325131  1
  Cr  Cr11  1  0.33320950  0.99705590  0.33104977  1
  Ni  Ni12  1  0.33203023  0.32937215  0.00225616  1
  Ni  Ni13  1  0.49890303  0.49700262  0.16375115  1
  Cr  Cr14  1  0.33099501  0.33324427  0.32911196  1
  Cr  Cr15  1  0.33294975  0.66432533  -0.00056144  1
  Ni  Ni16  1  0.49877068  0.83065320  0.16418906  1
  Ni  Ni17  1  0.33028113  0.66364527  0.33254826  1
  Cr  Cr18  1  0.66461236  0.99340454  -0.00148881  1
  Cr  Cr19  1  0.82912569  0.16253954  0.16731323  1
  Ni  Ni20  1  0.66385104  -0.00114146  0.33110438  1
  Ni  Ni21  1  0.66390714  0.33386928  -0.00031134  1
  Ni  Ni22  1  0.82919029  0.50023761  0.16306120  1
  Ni  Ni23  1  0.66257994  0.32949092  0.33130048  1
  Ni  Ni24  1  0.66711262  0.66383697  -0.00200719  1
  Ni  Ni25  1  0.83107004  0.82885646  0.16422434  1
  Cr  Cr26  1  0.66184343  0.66540572  0.32848269  1
  Cr  Cr27  1  0.16122833  0.16118890  0.49930961  1
  Ni  Ni28  1  0.99749698  0.99651095  0.66352049  1
  Cr  Cr29  1  0.16530499  0.16239659  0.83253584  1
  Ni  Ni30  1  0.16359358  0.50151603  0.49724548  1
  Ni  Ni31  1  0.99530777  0.33187529  0.66343639  1
  Cr  Cr32  1  0.16254312  0.49817695  0.83050645  1
  Ni  Ni33  1  0.16402739  0.82921509  0.49774525  1
  Ni  Ni34  1  0.99720449  0.66441352  0.66437022  1
  Cr  Cr35  1  0.16367449  0.83246494  0.83010583  1
  Ni  Ni36  1  0.50074239  0.16450655  0.49758449  1
  Ni  Ni37  1  0.33122137  0.99621821  0.66323711  1
  Cr  Cr38  1  0.49627427  0.16516349  0.83241302  1
  Ni  Ni39  1  0.49748170  0.49664104  0.49633651  1
  Cr  Cr40  1  0.33058474  0.33111316  0.66163327  1
  Cr  Cr41  1  0.50108709  0.49591448  0.83292687  1
  Ni  Ni42  1  0.49536568  0.83182381  0.49657120  1
  Cr  Cr43  1  0.33198966  0.66636175  0.66011937  1
  Ni  Ni44  1  0.49787789  0.83176447  0.83218035  1
  Ni  Ni45  1  0.82873143  0.16405335  0.49751124  1
  Cr  Cr46  1  0.66306642  0.99597577  0.66277266  1
  Cr  Cr47  1  0.83106565  0.16610882  0.82850313  1
  Cr  Cr48  1  0.83035783  0.49627507  0.49818268  1
  Ni  Ni49  1  0.66619520  0.33095993  0.66210042  1
  Ni  Ni50  1  0.83063906  0.49945721  0.83118909  1
  Cr  Cr51  1  0.83426712  0.83251639  0.49480117  1
  Cr  Cr52  1  0.66451484  0.66562218  0.66733747  1
  Ni  Ni53  1  0.83297673  0.82848085  0.83257871  1
" 