2793,Ni41Fe10Cr47_0,-220.020622017585, 154.631874114888,Ni41Fe10Cr47,"# generated using pymatgen
 data_Cr27Fe5Ni22
_symmetry_space_group_name_H-M   'P 1'
_cell_length_a   7.50666778
_cell_length_b   7.50666778
_cell_length_c   10.61603139
_cell_angle_alpha   90.00000000
_cell_angle_beta   90.00000000
_cell_angle_gamma   90.00000000
_symmetry_Int_Tables_number   1
_chemical_formula_structural   Cr27Fe5Ni22
_chemical_formula_sum   'Cr27 Fe5 Ni22'
_cell_volume   598.21401873
_cell_formula_units_Z   1
loop_
 _symmetry_equiv_pos_site_id
 _symmetry_equiv_pos_as_xyz
  1  'x, y, z'
loop_
 _atom_site_type_symbol
 _atom_site_label
 _atom_site_symmetry_multiplicity
 _atom_site_fract_x
 _atom_site_fract_y
 _atom_site_fract_z
 _atom_site_occupancy
  Ni  Ni0  1  0.99622186  -0.00259300  -0.00248319  1
  Cr  Cr1  1  0.16395314  0.16310461  0.16153766  1
  Cr  Cr2  1  -0.00106845  0.99568464  0.32991765  1
  Cr  Cr3  1  0.99628579  0.33071116  0.99692375  1
  Cr  Cr4  1  0.16603382  0.50025214  0.16306510  1
  Cr  Cr5  1  0.99439432  0.33399312  0.33117569  1
  Ni  Ni6  1  0.99664644  0.66482500  0.00053790  1
  Ni  Ni7  1  0.16437676  0.82887843  0.16332931  1
  Ni  Ni8  1  -0.00045727  0.66268321  0.33149421  1
  Cr  Cr9  1  0.33124898  -0.00207198  0.99669255  1
  Fe  Fe10  1  0.49837411  0.16547833  0.16285003  1
  Cr  Cr11  1  0.33100680  0.99624599  0.33447892  1
  Ni  Ni12  1  0.33262286  0.33288936  0.99694618  1
  Ni  Ni13  1  0.49845010  0.49663481  0.16135155  1
  Cr  Cr14  1  0.33324429  0.33039669  0.32973037  1
  Ni  Ni15  1  0.33304747  0.66301448  -0.00174541  1
  Cr  Cr16  1  0.49614221  0.82878061  0.16280287  1
  Fe  Fe17  1  0.33012219  0.66341626  0.33100602  1
  Ni  Ni18  1  0.66519869  0.99722371  -0.00246226  1
  Ni  Ni19  1  0.82806039  0.16486688  0.16187908  1
  Cr  Cr20  1  0.66175385  0.00066894  0.32975598  1
  Cr  Cr21  1  0.66373799  0.33255818  0.00014257  1
  Ni  Ni22  1  0.82851458  0.49749600  0.16523208  1
  Ni  Ni23  1  0.66330632  0.33203987  0.32835495  1
  Ni  Ni24  1  0.66241587  0.66371124  0.99651434  1
  Cr  Cr25  1  0.83219373  0.83071292  0.16119073  1
  Cr  Cr26  1  0.66596079  0.66081172  0.33061407  1
  Ni  Ni27  1  0.16435395  0.16580625  0.49919296  1
  Cr  Cr28  1  0.00009642  -0.00105729  0.66527993  1
  Ni  Ni29  1  0.16284029  0.16560934  0.83134213  1
  Ni  Ni30  1  0.16298476  0.49661933  0.49640269  1
  Ni  Ni31  1  0.99662958  0.33051880  0.66287301  1
  Cr  Cr32  1  0.16547754  0.49560062  0.83283895  1
  Ni  Ni33  1  0.16649967  0.82898388  0.49435008  1
  Cr  Cr34  1  -0.00252718  0.66182442  0.66025755  1
  Cr  Cr35  1  0.16424386  0.83029865  0.83480616  1
  Fe  Fe36  1  0.49754965  0.16589380  0.49791312  1
  Cr  Cr37  1  0.33003705  0.99612180  0.66130048  1
  Cr  Cr38  1  0.49774820  0.16534847  0.83101132  1
  Cr  Cr39  1  0.49899767  0.49689284  0.49850417  1
  Cr  Cr40  1  0.32855463  0.33051115  0.66519164  1
  Fe  Fe41  1  0.49770147  0.49934978  0.83217970  1
  Ni  Ni42  1  0.49607641  0.82956624  0.49808803  1
  Cr  Cr43  1  0.33218854  0.66581923  0.66393910  1
  Ni  Ni44  1  0.49965306  0.82867295  0.83204844  1
  Cr  Cr45  1  0.82942663  0.16697668  0.49884577  1
  Cr  Cr46  1  0.66143797  0.99519347  0.66433320  1
  Fe  Fe47  1  0.83118124  0.16391024  0.83120016  1
  Ni  Ni48  1  0.83028215  0.49531099  0.49776376  1
  Ni  Ni49  1  0.66560712  0.33287942  0.66336898  1
  Cr  Cr50  1  0.82925061  0.49778833  0.82800075  1
  Cr  Cr51  1  0.82907564  0.82828235  0.49758316  1
  Ni  Ni52  1  0.66214152  0.66177849  0.66455071  1
  Cr  Cr53  1  0.82819800  0.83058051  0.83349540  1
" 