2480,Ni41Fe31Cr27_7,-228.926158230549, 198.673388552706,Ni41Fe31Cr27,"# generated using pymatgen
 data_Cr8Fe8Ni11
_symmetry_space_group_name_H-M   'P 1'
_cell_length_a   7.45312247
_cell_length_b   7.45312247
_cell_length_c   10.54030689
_cell_angle_alpha   90.00000000
_cell_angle_beta   90.00000000
_cell_angle_gamma   90.00000000
_symmetry_Int_Tables_number   1
_chemical_formula_structural   Cr8Fe8Ni11
_chemical_formula_sum   'Cr16 Fe16 Ni22'
_cell_volume   585.50387213
_cell_formula_units_Z   2
loop_
 _symmetry_equiv_pos_site_id
 _symmetry_equiv_pos_as_xyz
  1  'x, y, z'
loop_
 _atom_site_type_symbol
 _atom_site_label
 _atom_site_symmetry_multiplicity
 _atom_site_fract_x
 _atom_site_fract_y
 _atom_site_fract_z
 _atom_site_occupancy
  Fe  Fe0  1  0.00163426  1.00091415  1.00032205  1
  Fe  Fe1  1  0.16878625  0.16523521  0.16804816  1
  Ni  Ni2  1  0.00216369  1.00002667  0.33375917  1
  Cr  Cr3  1  0.00272362  0.33508455  1.00001441  1
  Cr  Cr4  1  0.16779591  0.50209714  0.16772075  1
  Fe  Fe5  1  1.00010857  0.33432498  0.33433397  1
  Fe  Fe6  1  0.00353661  0.66852588  0.00115306  1
  Ni  Ni7  1  0.16910672  0.83554264  0.16736485  1
  Ni  Ni8  1  0.00108522  0.66717890  0.33342200  1
  Cr  Cr9  1  0.33387902  0.00163527  0.00350557  1
  Fe  Fe10  1  0.49949047  0.16733161  0.16763139  1
  Ni  Ni11  1  0.33426745  0.99941477  0.33234340  1
  Ni  Ni12  1  0.33499322  0.33507749  0.99911089  1
  Ni  Ni13  1  0.50169007  0.50211474  0.16769698  1
  Cr  Cr14  1  0.33608106  0.33419714  0.33445490  1
  Fe  Fe15  1  0.33391128  0.66569174  0.00166098  1
  Ni  Ni16  1  0.49823147  0.83361087  0.16842246  1
  Ni  Ni17  1  0.33473816  0.66839782  0.33397513  1
  Ni  Ni18  1  0.66723843  0.00201754  1.00001690  1
  Cr  Cr19  1  0.83532208  0.16853399  0.16763510  1
  Cr  Cr20  1  0.66566396  0.00112936  0.33663034  1
  Cr  Cr21  1  0.66466840  0.33360874  0.00157365  1
  Ni  Ni22  1  0.83315510  0.50090076  0.16974308  1
  Fe  Fe23  1  0.66750131  0.33580334  0.33450167  1
  Cr  Cr24  1  0.66715928  0.66703858  0.00307415  1
  Cr  Cr25  1  0.83525017  0.83339825  0.16725929  1
  Fe  Fe26  1  0.66539165  0.66676622  0.33369162  1
  Cr  Cr27  1  0.16635526  0.16788904  0.50017815  1
  Ni  Ni28  1  1.00004485  1.00046743  0.66903164  1
  Ni  Ni29  1  0.16720409  0.16850638  0.83329994  1
  Ni  Ni30  1  0.16793148  0.50155893  0.50238984  1
  Fe  Fe31  1  0.00322826  0.33268504  0.66845299  1
  Ni  Ni32  1  0.16993611  0.49966490  0.83328079  1
  Cr  Cr33  1  0.16872359  0.83376823  0.50076655  1
  Ni  Ni34  1  0.00290499  0.66750883  0.66826707  1
  Fe  Fe35  1  0.16687004  0.83324649  0.83321666  1
  Ni  Ni36  1  0.50238262  0.16567660  0.50192078  1
  Ni  Ni37  1  0.33525513  0.00169167  0.66752331  1
  Fe  Fe38  1  0.49961535  0.16871523  0.83332247  1
  Ni  Ni39  1  0.50002123  0.50305968  0.50099972  1
  Fe  Fe40  1  0.33314809  0.33446108  0.66873180  1
  Ni  Ni41  1  0.49663547  0.50011181  0.83410847  1
  Ni  Ni42  1  0.50168794  0.83407072  0.50143182  1
  Fe  Fe43  1  0.33420877  0.66688338  0.66692425  1
  Cr  Cr44  1  0.50097437  0.83429849  0.83275355  1
  Ni  Ni45  1  0.83423523  0.16612379  0.50180652  1
  Ni  Ni46  1  0.66750371  0.00170581  0.66648978  1
  Fe  Fe47  1  0.83497581  0.16568254  0.83315207  1
  Cr  Cr48  1  0.83548599  0.50099931  0.49872704  1
  Cr  Cr49  1  0.66562110  0.33249873  0.66817856  1
  Cr  Cr50  1  0.83537631  0.50104655  0.83420730  1
  Fe  Fe51  1  0.83361442  0.83535979  0.50203033  1
  Fe  Fe52  1  0.66613035  0.67005802  0.66639918  1
  Cr  Cr53  1  0.83480180  0.83710894  0.83378929  1
" 