464,Ni41Fe10Cr47_1,-220.445588851903, 159.882819229084,Ni41Fe10Cr47,"# generated using pymatgen
 data_Cr27Fe5Ni22
_symmetry_space_group_name_H-M   'P 1'
_cell_length_a   7.50655473
_cell_length_b   7.50655473
_cell_length_c   10.61587151
_cell_angle_alpha   90.00000000
_cell_angle_beta   90.00000000
_cell_angle_gamma   90.00000000
_symmetry_Int_Tables_number   1
_chemical_formula_structural   Cr27Fe5Ni22
_chemical_formula_sum   'Cr27 Fe5 Ni22'
_cell_volume   598.18699087
_cell_formula_units_Z   1
loop_
 _symmetry_equiv_pos_site_id
 _symmetry_equiv_pos_as_xyz
  1  'x, y, z'
loop_
 _atom_site_type_symbol
 _atom_site_label
 _atom_site_symmetry_multiplicity
 _atom_site_fract_x
 _atom_site_fract_y
 _atom_site_fract_z
 _atom_site_occupancy
  Cr  Cr0  1  0.99520779  0.00071843  -0.00068160  1
  Ni  Ni1  1  0.16781866  0.16475707  0.16484078  1
  Cr  Cr2  1  0.99271624  0.00021404  0.32946488  1
  Cr  Cr3  1  0.99619665  0.32870618  -0.00063699  1
  Cr  Cr4  1  0.16544774  0.49593013  0.16509790  1
  Cr  Cr5  1  -0.00135075  0.32986239  0.33100238  1
  Cr  Cr6  1  0.99539444  0.66254740  -0.00090880  1
  Cr  Cr7  1  0.16378202  0.83219859  0.16566964  1
  Cr  Cr8  1  0.99684990  0.66259498  0.33069803  1
  Fe  Fe9  1  0.33166404  -0.00092326  0.99730304  1
  Ni  Ni10  1  0.49678643  0.16586622  0.16444460  1
  Fe  Fe11  1  0.33199625  0.00024201  0.33072750  1
  Ni  Ni12  1  0.33313836  0.32813535  0.00096266  1
  Ni  Ni13  1  0.49809575  0.49310955  0.16451110  1
  Ni  Ni14  1  0.33185416  0.33275669  0.32994506  1
  Cr  Cr15  1  0.33421815  0.66148693  0.99628479  1
  Cr  Cr16  1  0.49745066  0.83217331  0.16714403  1
  Ni  Ni17  1  0.33236951  0.65862007  0.33197190  1
  Cr  Cr18  1  0.66436180  -0.00024671  0.99725743  1
  Ni  Ni19  1  0.82837905  0.16506017  0.16484801  1
  Ni  Ni20  1  0.66524657  -0.00172289  0.33004161  1
  Fe  Fe21  1  0.66471939  0.33074452  -0.00103561  1
  Ni  Ni22  1  0.82741171  0.49579610  0.16314778  1
  Cr  Cr23  1  0.66253816  0.32917169  0.32865871  1
  Cr  Cr24  1  0.66300678  0.66271552  -0.00170199  1
  Ni  Ni25  1  0.82888012  0.83152561  0.16580900  1
  Cr  Cr26  1  0.66246081  0.66308218  0.33072935  1
  Cr  Cr27  1  0.16601602  0.16707490  0.49868407  1
  Cr  Cr28  1  0.99596973  -0.00020382  0.66380269  1
  Cr  Cr29  1  0.16526510  0.16647368  0.82960296  1
  Ni  Ni30  1  0.16475386  0.49572802  0.49853200  1
  Ni  Ni31  1  0.99466200  0.33337572  0.66213666  1
  Cr  Cr32  1  0.16071013  0.49563135  0.82869559  1
  Cr  Cr33  1  0.16277747  0.82922864  0.49637918  1
  Ni  Ni34  1  0.99413847  0.66018714  0.66147833  1
  Cr  Cr35  1  0.16475117  0.83117265  0.83041299  1
  Cr  Cr36  1  0.49817117  0.16704714  0.49720804  1
  Ni  Ni37  1  0.33198067  -0.00103612  0.66590697  1
  Cr  Cr38  1  0.49764471  0.16550434  0.83028313  1
  Ni  Ni39  1  0.49715439  0.49551517  0.49798881  1
  Ni  Ni40  1  0.33094929  0.33191485  0.66213203  1
  Cr  Cr41  1  0.50102690  0.49477595  0.83035085  1
  Cr  Cr42  1  0.49950540  0.83129618  0.49605192  1
  Cr  Cr43  1  0.33325039  0.66323767  0.66354720  1
  Ni  Ni44  1  0.49858663  0.83171483  0.82841758  1
  Fe  Fe45  1  0.82938822  0.16581777  0.49808911  1
  Cr  Cr46  1  0.66432017  -0.00233047  0.66362758  1
  Ni  Ni47  1  0.82965801  0.16925726  0.82854715  1
  Fe  Fe48  1  0.82958681  0.49724127  0.49954049  1
  Ni  Ni49  1  0.66601609  0.33317514  0.66363586  1
  Ni  Ni50  1  0.82943675  0.49424018  0.82777693  1
  Ni  Ni51  1  0.82976721  0.82911953  0.49725493  1
  Ni  Ni52  1  0.66585763  0.66110839  0.66283502  1
  Cr  Cr53  1  0.82991378  0.82650893  0.82938532  1
" 