3342,Ni41Cr59_12,-222.839195674684, 135.526707509289,Ni41Cr59,"# generated using pymatgen
 data_Cr11Ni16
_symmetry_space_group_name_H-M   'P 1'
_cell_length_a   7.50755601
_cell_length_b   7.50755601
_cell_length_c   10.61728753
_cell_angle_alpha   90.00000000
_cell_angle_beta   90.00000000
_cell_angle_gamma   90.00000000
_symmetry_Int_Tables_number   1
_chemical_formula_structural   Cr11Ni16
_chemical_formula_sum   'Cr22 Ni32'
_cell_volume   598.42639540
_cell_formula_units_Z   2
loop_
 _symmetry_equiv_pos_site_id
 _symmetry_equiv_pos_as_xyz
  1  'x, y, z'
loop_
 _atom_site_type_symbol
 _atom_site_label
 _atom_site_symmetry_multiplicity
 _atom_site_fract_x
 _atom_site_fract_y
 _atom_site_fract_z
 _atom_site_occupancy
  Cr  Cr0  1  0.99667934  -0.00166309  -0.00115045  1
  Ni  Ni1  1  0.16182673  0.16411375  0.16389478  1
  Ni  Ni2  1  0.99508355  -0.00078154  0.33078302  1
  Cr  Cr3  1  -0.00223294  0.33094515  -0.00150060  1
  Ni  Ni4  1  0.16459488  0.49845706  0.16297900  1
  Cr  Cr5  1  -0.00265341  0.32835791  0.32934870  1
  Ni  Ni6  1  0.99624206  0.66299169  -0.00021165  1
  Cr  Cr7  1  0.16454346  0.83062256  0.16288402  1
  Cr  Cr8  1  0.99642826  0.66474360  0.33001175  1
  Ni  Ni9  1  0.33346683  0.99593097  0.99601398  1
  Cr  Cr10  1  0.49813212  0.16390148  0.16328852  1
  Cr  Cr11  1  0.33000540  0.99692941  0.33099972  1
  Cr  Cr12  1  0.32928463  0.32939962  -0.00186516  1
  Ni  Ni13  1  0.49844344  0.50153929  0.16518459  1
  Cr  Cr14  1  0.33016495  0.33194207  0.33043265  1
  Ni  Ni15  1  0.33255329  0.66588851  -0.00092170  1
  Ni  Ni16  1  0.49878097  0.82644458  0.16176264  1
  Ni  Ni17  1  0.33354170  0.66253897  0.32986057  1
  Ni  Ni18  1  0.66205941  0.99471979  0.99664145  1
  Ni  Ni19  1  0.83176987  0.16377404  0.16496769  1
  Cr  Cr20  1  0.66610008  0.99601538  0.33217760  1
  Cr  Cr21  1  0.66485447  0.32985405  -0.00206671  1
  Ni  Ni22  1  0.82887252  0.49892380  0.16353053  1
  Ni  Ni23  1  0.66497091  0.33183521  0.32956587  1
  Ni  Ni24  1  0.66311126  0.66696446  0.00022633  1
  Ni  Ni25  1  0.82867988  0.82921088  0.16320367  1
  Ni  Ni26  1  0.66234902  0.66391431  0.32856669  1
  Ni  Ni27  1  0.16282590  0.16451749  0.50006147  1
  Ni  Ni28  1  0.99661000  0.00213460  0.66260102  1
  Ni  Ni29  1  0.16496272  0.16310586  0.82794597  1
  Ni  Ni30  1  0.16589376  0.49589225  0.49950402  1
  Ni  Ni31  1  0.00058902  0.32636752  0.66340800  1
  Cr  Cr32  1  0.16434397  0.49733800  0.82909136  1
  Cr  Cr33  1  0.16434030  0.83140338  0.49792405  1
  Cr  Cr34  1  -0.00163915  0.66340764  0.66276111  1
  Cr  Cr35  1  0.16667306  0.83183492  0.83110293  1
  Ni  Ni36  1  0.49745016  0.16248698  0.49958665  1
  Ni  Ni37  1  0.33224869  -0.00049695  0.66455756  1
  Ni  Ni38  1  0.49659807  0.15971906  0.82956311  1
  Cr  Cr39  1  0.49541842  0.49751964  0.49575510  1
  Ni  Ni40  1  0.32721365  0.32793461  0.66303934  1
  Cr  Cr41  1  0.49629521  0.49830595  0.83063623  1
  Ni  Ni42  1  0.49792064  0.83119818  0.49851549  1
  Ni  Ni43  1  0.33104537  0.66446499  0.66296624  1
  Ni  Ni44  1  0.49630275  0.83355823  0.83162855  1
  Ni  Ni45  1  0.83162895  0.16127451  0.49829122  1
  Ni  Ni46  1  0.66304460  -0.00169463  0.66341742  1
  Ni  Ni47  1  0.83034680  0.16246699  0.82864579  1
  Cr  Cr48  1  0.83060608  0.49625962  0.49693023  1
  Cr  Cr49  1  0.66402174  0.32627001  0.66442624  1
  Cr  Cr50  1  0.83126426  0.49641159  0.83152775  1
  Ni  Ni51  1  0.82930465  0.83427118  0.49721628  1
  Cr  Cr52  1  0.66213087  0.66838568  0.66313590  1
  Cr  Cr53  1  0.82922333  0.83246533  0.83146999  1
" 