8036,Ni41Fe31Cr27_12,-229.011662129588, 183.29793235561,Ni41Fe31Cr27,"# generated using pymatgen
 data_Cr8Fe8Ni11
_symmetry_space_group_name_H-M   'P 1'
_cell_length_a   7.46246525
_cell_length_b   7.46246525
_cell_length_c   10.55351956
_cell_angle_alpha   90.00000000
_cell_angle_beta   90.00000000
_cell_angle_gamma   90.00000000
_symmetry_Int_Tables_number   1
_chemical_formula_structural   Cr8Fe8Ni11
_chemical_formula_sum   'Cr16 Fe16 Ni22'
_cell_volume   587.70848787
_cell_formula_units_Z   2
loop_
 _symmetry_equiv_pos_site_id
 _symmetry_equiv_pos_as_xyz
  1  'x, y, z'
loop_
 _atom_site_type_symbol
 _atom_site_label
 _atom_site_symmetry_multiplicity
 _atom_site_fract_x
 _atom_site_fract_y
 _atom_site_fract_z
 _atom_site_occupancy
  Ni  Ni0  1  0.00042156  0.00167438  0.00164100  1
  Fe  Fe1  1  0.16693032  0.16584791  0.16569835  1
  Cr  Cr2  1  0.00190374  0.99906921  0.33292843  1
  Cr  Cr3  1  0.99863690  0.33274793  0.00086237  1
  Ni  Ni4  1  0.16788297  0.50195711  0.16958916  1
  Fe  Fe5  1  0.99915985  0.33537475  0.33255765  1
  Cr  Cr6  1  0.99844544  0.66530295  0.00213971  1
  Ni  Ni7  1  0.16705029  0.83033920  0.16524840  1
  Fe  Fe8  1  0.99951322  0.66578952  0.33305470  1
  Ni  Ni9  1  0.33299965  0.99810470  0.00105011  1
  Cr  Cr10  1  0.50329129  0.16700734  0.16819053  1
  Cr  Cr11  1  0.33292390  0.99947750  0.33350338  1
  Cr  Cr12  1  0.33343725  0.33537186  0.99984593  1
  Ni  Ni13  1  0.49871757  0.50324312  0.16778721  1
  Fe  Fe14  1  0.33520665  0.33628213  0.33400883  1
  Ni  Ni15  1  0.33649235  0.66738462  0.00203909  1
  Ni  Ni16  1  0.50120703  0.83055077  0.16554995  1
  Fe  Fe17  1  0.33469697  0.66550893  0.33262745  1
  Ni  Ni18  1  0.66769027  0.99848779  0.00198416  1
  Ni  Ni19  1  0.83426367  0.16622359  0.16704766  1
  Fe  Fe20  1  0.66756494  0.99952327  0.33195442  1
  Cr  Cr21  1  0.66889788  0.33752301  0.00132481  1
  Fe  Fe22  1  0.83202384  0.50277493  0.16929402  1
  Ni  Ni23  1  0.66684776  0.33716343  0.33299022  1
  Ni  Ni24  1  0.66417907  0.66744484  0.00031984  1
  Ni  Ni25  1  0.83253604  0.83462936  0.16774365  1
  Ni  Ni26  1  0.66691030  0.66370256  0.33347139  1
  Fe  Fe27  1  0.16900239  0.17031437  0.50077726  1
  Cr  Cr28  1  0.00237150  0.00114287  0.66665883  1
  Ni  Ni29  1  0.16461933  0.17028516  0.83353316  1
  Fe  Fe30  1  0.16792873  0.49787176  0.49913710  1
  Ni  Ni31  1  0.99826575  0.33425139  0.66718693  1
  Ni  Ni32  1  0.16743157  0.49844226  0.83207825  1
  Ni  Ni33  1  0.16530587  0.82948144  0.49848029  1
  Cr  Cr34  1  0.99913611  0.66541032  0.66441460  1
  Cr  Cr35  1  0.16889006  0.83219277  0.83801090  1
  Ni  Ni36  1  0.50221515  0.17125303  0.50030508  1
  Cr  Cr37  1  0.33327185  0.00096870  0.66622730  1
  Cr  Cr38  1  0.50225345  0.16534317  0.83284612  1
  Ni  Ni39  1  0.49992198  0.49788801  0.50042918  1
  Fe  Fe40  1  0.33256960  0.33439459  0.66642302  1
  Fe  Fe41  1  0.50089669  0.50189190  0.83349997  1
  Cr  Cr42  1  0.50243700  0.83315034  0.49943724  1
  Cr  Cr43  1  0.33528388  0.66701407  0.66781375  1
  Ni  Ni44  1  0.50230573  0.83173681  0.83611445  1
  Cr  Cr45  1  0.83110569  0.16780100  0.50035101  1
  Fe  Fe46  1  0.66703709  0.00151525  0.66757435  1
  Ni  Ni47  1  0.83386711  0.16799281  0.83341989  1
  Fe  Fe48  1  0.83094079  0.50023964  0.49946205  1
  Ni  Ni49  1  0.66718075  0.33642987  0.66707934  1
  Fe  Fe50  1  0.83290083  0.49949065  0.83200605  1
  Fe  Fe51  1  0.83202894  0.83140557  0.49821563  1
  Fe  Fe52  1  0.66669564  0.66454952  0.66680944  1
  Cr  Cr53  1  0.83088528  0.83561544  0.83383588  1
" 