1028,Ni41Cr59_10,-222.640767171478, 131.743859132988,Ni41Cr59,"# generated using pymatgen
 data_Cr11Ni16
_symmetry_space_group_name_H-M   'P 1'
_cell_length_a   7.50894184
_cell_length_b   7.50894184
_cell_length_c   10.61924738
_cell_angle_alpha   90.00000000
_cell_angle_beta   90.00000000
_cell_angle_gamma   90.00000000
_symmetry_Int_Tables_number   1
_chemical_formula_structural   Cr11Ni16
_chemical_formula_sum   'Cr22 Ni32'
_cell_volume   598.75784815
_cell_formula_units_Z   2
loop_
 _symmetry_equiv_pos_site_id
 _symmetry_equiv_pos_as_xyz
  1  'x, y, z'
loop_
 _atom_site_type_symbol
 _atom_site_label
 _atom_site_symmetry_multiplicity
 _atom_site_fract_x
 _atom_site_fract_y
 _atom_site_fract_z
 _atom_site_occupancy
  Ni  Ni0  1  0.99424797  -0.00176295  0.99688874  1
  Cr  Cr1  1  0.16162009  0.16326651  0.16348430  1
  Cr  Cr2  1  0.99585205  0.99397656  0.33051487  1
  Ni  Ni3  1  0.99391442  0.32759955  0.99624681  1
  Cr  Cr4  1  0.16296745  0.49703256  0.16496489  1
  Cr  Cr5  1  0.99537241  0.33272588  0.33114764  1
  Cr  Cr6  1  0.99602483  0.66510159  -0.00276186  1
  Ni  Ni7  1  0.16202258  0.83038717  0.16454038  1
  Ni  Ni8  1  0.99701145  0.66496374  0.33177940  1
  Cr  Cr9  1  0.33002036  0.99550061  0.99578034  1
  Cr  Cr10  1  0.49860987  0.16446321  0.16428392  1
  Cr  Cr11  1  0.33036989  -0.00259925  0.32978496  1
  Cr  Cr12  1  0.33060348  0.33055343  0.99601152  1
  Ni  Ni13  1  0.50009759  0.49847821  0.16338727  1
  Ni  Ni14  1  0.33226834  0.33254070  0.33263718  1
  Cr  Cr15  1  0.33227603  0.66554812  0.99646375  1
  Ni  Ni16  1  0.49938458  0.82850799  0.16167886  1
  Cr  Cr17  1  0.32917197  0.66265959  0.33004358  1
  Ni  Ni18  1  0.66677395  0.99649174  0.99621280  1
  Ni  Ni19  1  0.83040216  0.16366070  0.16013409  1
  Cr  Cr20  1  0.66542551  -0.00198336  0.33158818  1
  Ni  Ni21  1  0.66693901  0.32954312  -0.00121924  1
  Ni  Ni22  1  0.82854230  0.49774777  0.16237006  1
  Cr  Cr23  1  0.66299888  0.33143115  0.33141417  1
  Ni  Ni24  1  0.66409278  0.66561975  -0.00013082  1
  Ni  Ni25  1  0.83023722  0.83021681  0.16254895  1
  Cr  Cr26  1  0.66656775  0.66223673  0.32889981  1
  Cr  Cr27  1  0.16501559  0.16615989  0.49657592  1
  Cr  Cr28  1  0.99482824  -0.00238378  0.66469769  1
  Ni  Ni29  1  0.16210994  0.16551813  0.83111734  1
  Ni  Ni30  1  0.16464144  0.49798017  0.49819712  1
  Ni  Ni31  1  -0.00271492  0.33068723  0.66413539  1
  Ni  Ni32  1  0.16415161  0.49518100  0.82813546  1
  Ni  Ni33  1  0.16188947  0.82659848  0.49643059  1
  Cr  Cr34  1  -0.00048414  0.66326652  0.66222140  1
  Ni  Ni35  1  0.16422067  0.83089102  0.83059203  1
  Ni  Ni36  1  0.49907594  0.16767810  0.49879463  1
  Cr  Cr37  1  0.33193494  0.99700931  0.66608172  1
  Ni  Ni38  1  0.49936565  0.16247841  0.82913785  1
  Ni  Ni39  1  0.49534368  0.49353458  0.49831840  1
  Ni  Ni40  1  0.33089216  0.33237308  0.66316229  1
  Cr  Cr41  1  0.49676059  0.49731244  0.82992887  1
  Cr  Cr42  1  0.49767713  0.83106248  0.49918760  1
  Ni  Ni43  1  0.32874590  0.66183726  0.66388843  1
  Ni  Ni44  1  0.49861356  0.83263229  0.83097827  1
  Ni  Ni45  1  0.82779594  0.16484614  0.49994289  1
  Ni  Ni46  1  0.66439066  0.00031255  0.66458180  1
  Ni  Ni47  1  0.83014690  0.16257706  0.83160979  1
  Ni  Ni48  1  0.83164548  0.49641586  0.49740393  1
  Ni  Ni49  1  0.66347521  0.32690089  0.66147900  1
  Cr  Cr50  1  0.83138716  0.49507847  0.83194437  1
  Ni  Ni51  1  0.83224690  0.83038370  0.49669267  1
  Cr  Cr52  1  0.66360960  0.66449480  0.66300883  1
  Ni  Ni53  1  0.82878015  0.83462669  0.83242157  1
" 