8809,Ni41Fe31Cr27_11,-229.129193556187, 190.809361051717,Ni41Fe31Cr27,"# generated using pymatgen
 data_Cr8Fe8Ni11
_symmetry_space_group_name_H-M   'P 1'
_cell_length_a   7.46348523
_cell_length_b   7.46348523
_cell_length_c   10.55496204
_cell_angle_alpha   90.00000000
_cell_angle_beta   90.00000000
_cell_angle_gamma   90.00000000
_symmetry_Int_Tables_number   1
_chemical_formula_structural   Cr8Fe8Ni11
_chemical_formula_sum   'Cr16 Fe16 Ni22'
_cell_volume   587.94950777
_cell_formula_units_Z   2
loop_
 _symmetry_equiv_pos_site_id
 _symmetry_equiv_pos_as_xyz
  1  'x, y, z'
loop_
 _atom_site_type_symbol
 _atom_site_label
 _atom_site_symmetry_multiplicity
 _atom_site_fract_x
 _atom_site_fract_y
 _atom_site_fract_z
 _atom_site_occupancy
  Ni  Ni0  1  0.99930209  0.00125557  0.00076925  1
  Ni  Ni1  1  0.16586381  0.16709588  0.16679929  1
  Cr  Cr2  1  0.99978125  0.99939112  0.33163141  1
  Fe  Fe3  1  0.00272698  0.33042452  1.00013507  1
  Ni  Ni4  1  0.16739970  0.50061944  0.16697352  1
  Cr  Cr5  1  0.00190218  0.33444965  0.33286876  1
  Cr  Cr6  1  0.00262259  0.66902790  0.00037664  1
  Ni  Ni7  1  0.16733068  0.83300045  0.16794622  1
  Ni  Ni8  1  0.99953926  0.66686229  0.33440006  1
  Cr  Cr9  1  0.33138840  0.99948352  1.00014630  1
  Cr  Cr10  1  0.49999316  0.16628949  0.16888802  1
  Ni  Ni11  1  0.33458324  0.00044040  0.33170486  1
  Ni  Ni12  1  0.33295362  0.33642515  0.99854887  1
  Cr  Cr13  1  0.49902975  0.50109297  0.16612298  1
  Ni  Ni14  1  0.33342916  0.33441277  0.33470465  1
  Ni  Ni15  1  0.33389207  0.66482670  1.00015990  1
  Ni  Ni16  1  0.50010082  0.83291828  0.16907400  1
  Fe  Fe17  1  0.33152481  0.66623935  0.33213276  1
  Cr  Cr18  1  0.66940358  1.00003314  1.00018406  1
  Ni  Ni19  1  0.83432929  0.16606142  0.16557406  1
  Fe  Fe20  1  0.66739061  0.99945189  0.33255363  1
  Ni  Ni21  1  0.66639631  0.33350956  0.99888841  1
  Cr  Cr22  1  0.83448022  0.49966913  0.16637474  1
  Fe  Fe23  1  0.66676810  0.33310783  0.33410751  1
  Fe  Fe24  1  0.66399514  0.66793128  0.99974903  1
  Ni  Ni25  1  0.83328141  0.83445621  0.16812143  1
  Fe  Fe26  1  0.66744270  0.66815680  0.33390656  1
  Fe  Fe27  1  0.16832565  0.16917955  0.50085429  1
  Cr  Cr28  1  0.99977926  0.00218906  0.66799054  1
  Ni  Ni29  1  0.16779501  0.16799199  0.83230752  1
  Ni  Ni30  1  0.16520916  0.49845983  0.49978398  1
  Ni  Ni31  1  0.00112771  0.33270999  0.66607246  1
  Ni  Ni32  1  0.16768930  0.49840259  0.83395864  1
  Cr  Cr33  1  0.16727406  0.83298717  0.49939113  1
  Cr  Cr34  1  0.00083567  0.66536579  0.66599747  1
  Ni  Ni35  1  0.16868086  0.83431952  0.83376921  1
  Cr  Cr36  1  0.50001453  0.16650475  0.50035796  1
  Ni  Ni37  1  0.33535058  0.00284972  0.66939738  1
  Ni  Ni38  1  0.50033865  0.16682927  0.83096496  1
  Fe  Fe39  1  0.49936284  0.49883300  0.49846048  1
  Fe  Fe40  1  0.33206017  0.33205782  0.66793172  1
  Fe  Fe41  1  0.49729407  0.49874787  0.83595094  1
  Cr  Cr42  1  0.50042716  0.83594423  0.49839854  1
  Cr  Cr43  1  0.33359154  0.66545745  0.66918349  1
  Ni  Ni44  1  0.49983301  0.83510128  0.83284196  1
  Fe  Fe45  1  0.83334430  0.16778354  0.50104312  1
  Ni  Ni46  1  0.66631000  0.00185442  0.66802475  1
  Fe  Fe47  1  0.83400130  0.16646368  0.83397840  1
  Fe  Fe48  1  0.83393374  0.49984911  0.49972132  1
  Fe  Fe49  1  0.66701641  0.33110015  0.66757078  1
  Cr  Cr50  1  0.83404786  0.49817481  0.83501463  1
  Fe  Fe51  1  0.83264680  0.83308398  0.49854458  1
  Cr  Cr52  1  0.66628533  0.66762165  0.66802185  1
  Fe  Fe53  1  0.83346141  0.83639236  0.83451319  1
" 