6236,Ni41Fe10Cr47_2,-220.112761233189, 152.259062714095,Ni41Fe10Cr47,"# generated using pymatgen
 data_Cr27Fe5Ni22
_symmetry_space_group_name_H-M   'P 1'
_cell_length_a   7.50880231
_cell_length_b   7.50880231
_cell_length_c   10.61905006
_cell_angle_alpha   90.00000000
_cell_angle_beta   90.00000000
_cell_angle_gamma   90.00000000
_symmetry_Int_Tables_number   1
_chemical_formula_structural   Cr27Fe5Ni22
_chemical_formula_sum   'Cr27 Fe5 Ni22'
_cell_volume   598.72447075
_cell_formula_units_Z   1
loop_
 _symmetry_equiv_pos_site_id
 _symmetry_equiv_pos_as_xyz
  1  'x, y, z'
loop_
 _atom_site_type_symbol
 _atom_site_label
 _atom_site_symmetry_multiplicity
 _atom_site_fract_x
 _atom_site_fract_y
 _atom_site_fract_z
 _atom_site_occupancy
  Ni  Ni0  1  0.99718610  0.99537471  0.99541296  1
  Cr  Cr1  1  0.16252997  0.16347324  0.16356594  1
  Cr  Cr2  1  0.99491150  0.99661089  0.33149443  1
  Ni  Ni3  1  0.99445740  0.33180047  0.99587370  1
  Cr  Cr4  1  0.16055977  0.49987566  0.16249465  1
  Fe  Fe5  1  0.99496198  0.33106200  0.33184367  1
  Ni  Ni6  1  -0.00071451  0.66459312  0.99487803  1
  Ni  Ni7  1  0.16377457  0.82888220  0.16140396  1
  Fe  Fe8  1  0.99515108  0.66431999  0.33104299  1
  Cr  Cr9  1  0.32991744  0.99323970  -0.00019369  1
  Ni  Ni10  1  0.49916433  0.16219275  0.16398443  1
  Cr  Cr11  1  0.33278212  0.99557717  0.32818536  1
  Cr  Cr12  1  0.33179221  0.33379498  -0.00233196  1
  Cr  Cr13  1  0.49924700  0.49809260  0.16217051  1
  Cr  Cr14  1  0.33046765  0.33169322  0.33041995  1
  Ni  Ni15  1  0.32850336  0.66536709  0.99568353  1
  Ni  Ni16  1  0.49612829  0.83144706  0.16503751  1
  Cr  Cr17  1  0.33235148  0.66444876  0.32937778  1
  Cr  Cr18  1  0.66510603  0.99655041  0.99628417  1
  Cr  Cr19  1  0.82915950  0.16473544  0.16114733  1
  Ni  Ni20  1  0.66475902  0.99510679  0.33181413  1
  Ni  Ni21  1  0.66655273  0.33145387  0.99472091  1
  Cr  Cr22  1  0.83169755  0.49817414  0.16382220  1
  Cr  Cr23  1  0.66474261  0.33159255  0.33202774  1
  Cr  Cr24  1  0.66265802  0.66342529  0.99585747  1
  Cr  Cr25  1  0.83115660  0.82883393  0.16438924  1
  Fe  Fe26  1  0.66385974  0.66651676  0.33291173  1
  Cr  Cr27  1  0.16289911  0.16413786  0.49675180  1
  Cr  Cr28  1  0.99397126  0.99554918  0.66530271  1
  Cr  Cr29  1  0.16203623  0.16257975  0.83146148  1
  Cr  Cr30  1  0.16266699  0.49907879  0.49765141  1
  Cr  Cr31  1  0.99275916  0.33183619  0.66331317  1
  Fe  Fe32  1  0.16273973  0.50090665  0.83160418  1
  Cr  Cr33  1  0.16345205  0.82854310  0.49926604  1
  Fe  Fe34  1  0.99563755  0.66342046  0.66606856  1
  Ni  Ni35  1  0.16294238  0.82602731  0.83186391  1
  Cr  Cr36  1  0.49919275  0.16320162  0.49872107  1
  Cr  Cr37  1  0.33060113  0.99251516  0.66399671  1
  Cr  Cr38  1  0.50041904  0.16563640  0.82994753  1
  Ni  Ni39  1  0.49998951  0.49997716  0.49867311  1
  Cr  Cr40  1  0.33252452  0.33606989  0.66370398  1
  Ni  Ni41  1  0.49832150  0.49930683  0.83026419  1
  Ni  Ni42  1  0.49980008  0.82749387  0.49613269  1
  Ni  Ni43  1  0.33143866  0.66342233  0.66594110  1
  Ni  Ni44  1  0.49486776  0.82602866  0.83045745  1
  Ni  Ni45  1  0.82889964  0.16491716  0.49688481  1
  Cr  Cr46  1  0.66736578  0.99583099  0.66403357  1
  Ni  Ni47  1  0.83121765  0.16644808  0.83252996  1
  Ni  Ni48  1  0.82944975  0.49847948  0.49567827  1
  Ni  Ni49  1  0.66676617  0.33381451  0.66417792  1
  Ni  Ni50  1  0.83051572  0.49655429  0.83198010  1
  Ni  Ni51  1  0.82877133  0.82857442  0.49544591  1
  Cr  Cr52  1  0.66392855  0.66252293  0.66305836  1
  Ni  Ni53  1  0.83382172  0.82875143  0.83163064  1
" 