6543,Ni42Fe32Cr25_13,-229.655737324249, 190.358127344011,Ni42Fe32Cr25,"# generated using pymatgen
 data_Cr15Fe17Ni22
_symmetry_space_group_name_H-M   'P 1'
_cell_length_a   7.45553187
_cell_length_b   7.45553187
_cell_length_c   10.54371428
_cell_angle_alpha   90.00000000
_cell_angle_beta   90.00000000
_cell_angle_gamma   90.00000000
_symmetry_Int_Tables_number   1
_chemical_formula_structural   Cr15Fe17Ni22
_chemical_formula_sum   'Cr15 Fe17 Ni22'
_cell_volume   586.07188846
_cell_formula_units_Z   1
loop_
 _symmetry_equiv_pos_site_id
 _symmetry_equiv_pos_as_xyz
  1  'x, y, z'
loop_
 _atom_site_type_symbol
 _atom_site_label
 _atom_site_symmetry_multiplicity
 _atom_site_fract_x
 _atom_site_fract_y
 _atom_site_fract_z
 _atom_site_occupancy
  Fe  Fe0  1  0.00227792  0.00198665  0.99830367  1
  Ni  Ni1  1  0.16966514  0.16912399  0.16798662  1
  Cr  Cr2  1  0.00333832  0.00115108  0.33817017  1
  Ni  Ni3  1  0.00246842  0.33413254  0.99925250  1
  Cr  Cr4  1  0.16389971  0.49957879  0.16523240  1
  Ni  Ni5  1  0.00206555  0.33480007  0.33629528  1
  Ni  Ni6  1  0.00122143  0.66631632  0.99834713  1
  Cr  Cr7  1  0.16811810  0.83576629  0.16429801  1
  Ni  Ni8  1  0.99914222  0.66487820  0.33655693  1
  Fe  Fe9  1  0.33415643  0.00207448  0.99936932  1
  Fe  Fe10  1  0.49783300  0.16611947  0.16916077  1
  Fe  Fe11  1  0.33389184  1.00022727  0.33562595  1
  Ni  Ni12  1  0.33242320  0.33127662  0.00296785  1
  Fe  Fe13  1  0.50018836  0.49995177  0.16935583  1
  Fe  Fe14  1  0.33098260  0.33439247  0.33548853  1
  Cr  Cr15  1  0.33457736  0.66649609  0.99778941  1
  Ni  Ni16  1  0.50084238  0.83538814  0.16935541  1
  Cr  Cr17  1  0.33261042  0.66648399  0.33751154  1
  Cr  Cr18  1  0.66682367  0.00078895  0.99742489  1
  Cr  Cr19  1  0.83665349  0.16969186  0.16814308  1
  Fe  Fe20  1  0.66683810  0.99870146  0.33495811  1
  Cr  Cr21  1  0.66609505  0.33352301  1.00035004  1
  Fe  Fe22  1  0.83487022  0.50090039  0.16905823  1
  Fe  Fe23  1  0.66850156  0.33833800  0.33520419  1
  Cr  Cr24  1  0.66731508  0.66754494  1.00057860  1
  Cr  Cr25  1  0.83467628  0.83062953  0.16916544  1
  Ni  Ni26  1  0.66586335  0.66680222  0.33519148  1
  Ni  Ni27  1  0.16835883  0.16798879  0.50147168  1
  Ni  Ni28  1  0.00294494  0.99992775  0.66727113  1
  Cr  Cr29  1  0.16836845  0.16836190  0.83219911  1
  Ni  Ni30  1  0.16464305  0.50090120  0.50400272  1
  Fe  Fe31  1  0.00119284  0.33745736  0.66680897  1
  Fe  Fe32  1  0.16720247  0.50088264  0.83233700  1
  Ni  Ni33  1  0.16808761  0.83348439  0.50351104  1
  Ni  Ni34  1  0.00109649  0.66771220  0.66632237  1
  Fe  Fe35  1  0.16718749  0.83241351  0.83102742  1
  Cr  Cr36  1  0.49935605  0.16732999  0.50104262  1
  Ni  Ni37  1  0.33273448  1.00009139  0.66646385  1
  Ni  Ni38  1  0.49840994  0.16676031  0.83337877  1
  Fe  Fe39  1  0.50040922  0.50087240  0.50388647  1
  Ni  Ni40  1  0.33342195  0.33421766  0.66516148  1
  Cr  Cr41  1  0.50074339  0.49964695  0.82869957  1
  Fe  Fe42  1  0.50044731  0.83153217  0.50237592  1
  Ni  Ni43  1  0.33279764  0.66746556  0.66613919  1
  Ni  Ni44  1  0.49900456  0.83521285  0.83065508  1
  Cr  Cr45  1  0.83493098  0.17116337  0.50413582  1
  Cr  Cr46  1  0.66863875  1.00009662  0.66972682  1
  Fe  Fe47  1  0.83413728  0.17021415  0.83200376  1
  Ni  Ni48  1  0.83387034  0.50364092  0.49970276  1
  Ni  Ni49  1  0.66781656  0.33568150  0.66903120  1
  Ni  Ni50  1  0.83720431  0.50200766  0.83341987  1
  Fe  Fe51  1  0.83639462  0.83140778  0.50116055  1
  Ni  Ni52  1  0.66890810  0.66626135  0.66625627  1
  Fe  Fe53  1  0.83605709  0.83190696  0.83237110  1
" 