3889,Ni42Fe58_6,-242.796647249008, 227.267640894384,Ni42Fe58,"# generated using pymatgen
 data_Fe11Ni16
_symmetry_space_group_name_H-M   'P 1'
_cell_length_a   7.40713871
_cell_length_b   7.40713871
_cell_length_c   10.47527603
_cell_angle_alpha   90.00000000
_cell_angle_beta   90.00000000
_cell_angle_gamma   90.00000000
_symmetry_Int_Tables_number   1
_chemical_formula_structural   Fe11Ni16
_chemical_formula_sum   'Fe22 Ni32'
_cell_volume   574.73339328
_cell_formula_units_Z   2
loop_
 _symmetry_equiv_pos_site_id
 _symmetry_equiv_pos_as_xyz
  1  'x, y, z'
loop_
 _atom_site_type_symbol
 _atom_site_label
 _atom_site_symmetry_multiplicity
 _atom_site_fract_x
 _atom_site_fract_y
 _atom_site_fract_z
 _atom_site_occupancy
  Ni  Ni0  1  1.00257186  1.00396009  0.00417442  1
  Ni  Ni1  1  0.16985814  0.17142480  0.16955741  1
  Ni  Ni2  1  1.00292408  0.00413640  0.33760990  1
  Ni  Ni3  1  0.00562009  0.33739338  0.00470013  1
  Ni  Ni4  1  0.17104611  0.50415696  0.17131678  1
  Fe  Fe5  1  1.00348740  0.33599358  0.33730794  1
  Ni  Ni6  1  0.00529228  0.67077919  0.00446692  1
  Fe  Fe7  1  0.17126810  0.83772050  0.17047739  1
  Fe  Fe8  1  1.00355788  0.67178526  0.33748208  1
  Fe  Fe9  1  0.33685972  1.00390023  0.00404589  1
  Ni  Ni10  1  0.50459989  0.17058849  0.17054369  1
  Fe  Fe11  1  0.33723210  0.00435255  0.33752043  1
  Ni  Ni12  1  0.33669657  0.33891044  0.00446155  1
  Ni  Ni13  1  0.50305557  0.50463368  0.16955947  1
  Fe  Fe14  1  0.33767265  0.33618410  0.33708032  1
  Ni  Ni15  1  0.33704262  0.66928191  0.00414486  1
  Ni  Ni16  1  0.50425501  0.83690866  0.17075178  1
  Fe  Fe17  1  0.33760275  0.67159711  0.33652694  1
  Ni  Ni18  1  0.67131510  1.00361196  0.00447392  1
  Ni  Ni19  1  0.83767309  0.17022483  0.17088530  1
  Ni  Ni20  1  0.67141580  1.00379008  0.33814879  1
  Fe  Fe21  1  0.67104857  0.33674019  1.00400015  1
  Fe  Fe22  1  0.83733975  0.50310867  0.17089252  1
  Fe  Fe23  1  0.67097033  0.33636365  0.33808427  1
  Fe  Fe24  1  0.67074933  0.67112264  1.00370088  1
  Fe  Fe25  1  0.83700891  0.83849714  0.17063016  1
  Fe  Fe26  1  0.67097006  0.67134529  0.33815970  1
  Ni  Ni27  1  0.17056707  0.17014726  0.50475352  1
  Fe  Fe28  1  1.00302787  0.00467870  0.67027162  1
  Fe  Fe29  1  0.17048735  0.17048733  0.83753131  1
  Fe  Fe30  1  0.17022754  0.50311268  0.50448616  1
  Ni  Ni31  1  0.00521035  0.33738537  0.66996210  1
  Ni  Ni32  1  0.17071189  0.50499274  0.83685436  1
  Ni  Ni33  1  0.16974436  0.83739237  0.50398078  1
  Fe  Fe34  1  1.00310919  0.67015676  0.67112188  1
  Ni  Ni35  1  0.17036298  0.83555165  0.83838784  1
  Ni  Ni36  1  0.50444486  0.17179679  0.50362965  1
  Fe  Fe37  1  0.33831120  0.00497917  0.67056576  1
  Ni  Ni38  1  0.50529801  0.17073109  0.83795825  1
  Ni  Ni39  1  0.50457988  0.50343230  0.50461354  1
  Ni  Ni40  1  0.33664500  0.33806299  0.67005336  1
  Fe  Fe41  1  0.50371206  0.50444613  0.83701022  1
  Fe  Fe42  1  0.50519919  0.83794432  0.50412250  1
  Fe  Fe43  1  0.33808388  0.67000270  0.67141509  1
  Ni  Ni44  1  0.50414613  0.83756026  0.83683375  1
  Ni  Ni45  1  0.83711969  0.17062014  0.50429864  1
  Ni  Ni46  1  0.67097186  1.00312949  0.66950952  1
  Ni  Ni47  1  0.83647145  0.17038249  0.83694783  1
  Ni  Ni48  1  0.83663002  0.50425383  0.50431868  1
  Ni  Ni49  1  0.67027602  0.33703250  0.67024638  1
  Fe  Fe50  1  0.83771094  0.50444576  0.83652570  1
  Ni  Ni51  1  0.83827793  0.83725734  0.50432900  1
  Ni  Ni52  1  0.67029376  0.67197356  0.67034665  1
  Ni  Ni53  1  0.83762159  0.83790839  0.83759813  1
" 