7493,Ni42Fe37Cr20_9,-231.68379265649, 198.366956192028,Ni42Fe37Cr20,"# generated using pymatgen
 data_Cr6Fe10Ni11
_symmetry_space_group_name_H-M   'P 1'
_cell_length_a   7.44319871
_cell_length_b   7.44319871
_cell_length_c   10.52627256
_cell_angle_alpha   90.00000000
_cell_angle_beta   90.00000000
_cell_angle_gamma   90.00000000
_symmetry_Int_Tables_number   1
_chemical_formula_structural   Cr6Fe10Ni11
_chemical_formula_sum   'Cr12 Fe20 Ni22'
_cell_volume   583.16820479
_cell_formula_units_Z   2
loop_
 _symmetry_equiv_pos_site_id
 _symmetry_equiv_pos_as_xyz
  1  'x, y, z'
loop_
 _atom_site_type_symbol
 _atom_site_label
 _atom_site_symmetry_multiplicity
 _atom_site_fract_x
 _atom_site_fract_y
 _atom_site_fract_z
 _atom_site_occupancy
  Fe  Fe0  1  1.00045799  1.00150439  0.00160383  1
  Fe  Fe1  1  0.16591065  0.16597028  0.16794813  1
  Fe  Fe2  1  1.00063519  1.00088848  0.33523295  1
  Ni  Ni3  1  1.00083159  0.33481354  0.00247215  1
  Fe  Fe4  1  0.16648594  0.50357253  0.16690494  1
  Cr  Cr5  1  0.99891863  0.33305191  0.33326263  1
  Ni  Ni6  1  1.00028217  0.66869806  0.00200646  1
  Fe  Fe7  1  0.16824833  0.83525490  0.16752970  1
  Fe  Fe8  1  1.00083587  0.67233439  0.33352252  1
  Ni  Ni9  1  0.33422253  0.99895681  1.00044996  1
  Cr  Cr10  1  0.50362484  0.16649759  0.16886758  1
  Ni  Ni11  1  0.33363903  0.99777856  0.33560762  1
  Cr  Cr12  1  0.33367198  0.33351559  1.00092607  1
  Ni  Ni13  1  0.50131585  0.50465097  0.16938934  1
  Cr  Cr14  1  0.33624473  0.33539670  0.33514571  1
  Fe  Fe15  1  0.33610327  0.67090350  0.00199733  1
  Fe  Fe16  1  0.50292915  0.83439632  0.16745161  1
  Fe  Fe17  1  0.33717355  0.66998745  0.33434385  1
  Ni  Ni18  1  0.66802314  0.99841852  0.99985950  1
  Ni  Ni19  1  0.83599621  0.16614586  0.16960479  1
  Ni  Ni20  1  0.66937532  0.99991210  0.33601821  1
  Cr  Cr21  1  0.67098570  0.33594657  0.00194162  1
  Fe  Fe22  1  0.83438406  0.50284191  0.16781713  1
  Ni  Ni23  1  0.66930737  0.33595998  0.33363932  1
  Ni  Ni24  1  0.66899634  0.67028323  1.00156172  1
  Ni  Ni25  1  0.83590021  0.83524070  0.16733174  1
  Fe  Fe26  1  0.66679974  0.66903258  0.33436007  1
  Ni  Ni27  1  0.16888058  0.16631155  0.50345982  1
  Cr  Cr28  1  0.00314965  0.00175349  0.66747851  1
  Fe  Fe29  1  0.16902176  0.16583615  0.83425548  1
  Cr  Cr30  1  0.16880703  0.50187423  0.50361483  1
  Ni  Ni31  1  0.00193214  0.33405035  0.66897862  1
  Cr  Cr32  1  0.16557772  0.50251648  0.83379857  1
  Fe  Fe33  1  0.16855377  0.83669799  0.50088832  1
  Ni  Ni34  1  0.99899673  0.66859099  0.66841171  1
  Ni  Ni35  1  0.16868653  0.83493752  0.83650022  1
  Cr  Cr36  1  0.50118737  0.16720009  0.50177659  1
  Ni  Ni37  1  0.33470561  0.00216154  0.66875544  1
  Ni  Ni38  1  0.50176421  0.16463302  0.83395343  1
  Ni  Ni39  1  0.50176981  0.50301738  0.50108033  1
  Fe  Fe40  1  0.33374898  0.33294958  0.66853189  1
  Fe  Fe41  1  0.50367833  0.50359065  0.83484730  1
  Fe  Fe42  1  0.50232795  0.83446156  0.50140071  1
  Cr  Cr43  1  0.33703104  0.67109225  0.66777927  1
  Ni  Ni44  1  0.50236181  0.83737904  0.83623222  1
  Fe  Fe45  1  0.83563890  0.16671092  0.50044493  1
  Fe  Fe46  1  0.66803391  0.99867873  0.66962019  1
  Ni  Ni47  1  0.83422516  0.16769933  0.83551192  1
  Cr  Cr48  1  0.83434339  0.50434355  0.50199106  1
  Cr  Cr49  1  0.66879816  0.33613551  0.66959558  1
  Fe  Fe50  1  0.83519655  0.50352540  0.83460250  1
  Ni  Ni51  1  0.83452154  0.83512714  0.50179368  1
  Ni  Ni52  1  0.66882382  0.66924835  0.66856732  1
  Fe  Fe53  1  0.83344940  0.83403501  0.83584424  1
" 