3160,Ni42Fe42Cr14_17,-234.23942336881, 204.181843191756,Ni42Fe42Cr14,"# generated using pymatgen
 data_Cr9Fe23Ni22
_symmetry_space_group_name_H-M   'P 1'
_cell_length_a   7.43543723
_cell_length_b   7.43543723
_cell_length_c   10.51529617
_cell_angle_alpha   90.00000000
_cell_angle_beta   90.00000000
_cell_angle_gamma   90.00000000
_symmetry_Int_Tables_number   1
_chemical_formula_structural   Cr9Fe23Ni22
_chemical_formula_sum   'Cr9 Fe23 Ni22'
_cell_volume   581.34579116
_cell_formula_units_Z   1
loop_
 _symmetry_equiv_pos_site_id
 _symmetry_equiv_pos_as_xyz
  1  'x, y, z'
loop_
 _atom_site_type_symbol
 _atom_site_label
 _atom_site_symmetry_multiplicity
 _atom_site_fract_x
 _atom_site_fract_y
 _atom_site_fract_z
 _atom_site_occupancy
  Fe  Fe0  1  0.00336741  0.00296268  0.00420465  1
  Fe  Fe1  1  0.16864003  0.16795896  0.16910284  1
  Ni  Ni2  1  0.00298861  0.00233192  0.33631470  1
  Cr  Cr3  1  1.00180018  0.33695987  0.00249968  1
  Fe  Fe4  1  0.16808338  0.50247148  0.16966066  1
  Ni  Ni5  1  1.00167954  0.33412543  0.33586650  1
  Ni  Ni6  1  0.00262211  0.66913443  0.00306900  1
  Fe  Fe7  1  0.16816910  0.83567146  0.16954102  1
  Fe  Fe8  1  0.00344281  0.66930376  0.33436992  1
  Ni  Ni9  1  0.33481269  0.00476040  0.00363986  1
  Fe  Fe10  1  0.50355751  0.16968724  0.16757706  1
  Ni  Ni11  1  0.33523046  1.00113964  0.33550824  1
  Ni  Ni12  1  0.33647332  0.33331990  0.00224745  1
  Ni  Ni13  1  0.50326130  0.50091957  0.16922146  1
  Cr  Cr14  1  0.33567204  0.33270288  0.33498932  1
  Cr  Cr15  1  0.33365126  0.66701776  1.00079063  1
  Fe  Fe16  1  0.50221863  0.83631320  0.16997894  1
  Fe  Fe17  1  0.33524553  0.66931520  0.33543936  1
  Ni  Ni18  1  0.66834300  0.00561775  0.00443241  1
  Fe  Fe19  1  0.83380800  0.17024713  0.17128107  1
  Fe  Fe20  1  0.66882559  0.00497951  0.33596945  1
  Ni  Ni21  1  0.66788957  0.33399727  1.00089336  1
  Ni  Ni22  1  0.83536420  0.50185261  0.17070685  1
  Ni  Ni23  1  0.66935525  0.33566717  0.33576696  1
  Cr  Cr24  1  0.67059513  0.66569174  1.00199793  1
  Fe  Fe25  1  0.83610970  0.83564033  0.16972233  1
  Fe  Fe26  1  0.66787675  0.67001562  0.33456988  1
  Fe  Fe27  1  0.16735603  0.16729794  0.50239093  1
  Fe  Fe28  1  1.00172829  0.00387144  0.66690295  1
  Ni  Ni29  1  0.17007611  0.16777975  0.83531618  1
  Ni  Ni30  1  0.17069644  0.50090177  0.50087921  1
  Fe  Fe31  1  0.00339405  0.33216602  0.66890936  1
  Ni  Ni32  1  0.16918704  0.49934429  0.83595543  1
  Fe  Fe33  1  0.16846522  0.83616740  0.50098394  1
  Cr  Cr34  1  0.00356161  0.66818188  0.66954546  1
  Fe  Fe35  1  0.16954050  0.83739679  0.83578115  1
  Fe  Fe36  1  0.50333595  0.16827244  0.50264080  1
  Ni  Ni37  1  0.33502551  0.00392261  0.66754913  1
  Ni  Ni38  1  0.50032624  0.16895861  0.83651207  1
  Fe  Fe39  1  0.50206611  0.50253945  0.50136291  1
  Fe  Fe40  1  0.33515865  0.33506158  0.66955433  1
  Ni  Ni41  1  0.50048908  0.49743247  0.83426425  1
  Ni  Ni42  1  0.50070428  0.83734769  0.49990584  1
  Fe  Fe43  1  0.33574055  0.66905596  0.66771288  1
  Cr  Cr44  1  0.50124274  0.83953831  0.83639024  1
  Ni  Ni45  1  0.83602902  0.16744576  0.50187998  1
  Ni  Ni46  1  0.66728857  0.00431016  0.66627600  1
  Fe  Fe47  1  0.83325981  0.17045561  0.83385688  1
  Cr  Cr48  1  0.83724267  0.49972361  0.50005752  1
  Fe  Fe49  1  0.66824134  0.33228827  0.66960747  1
  Ni  Ni50  1  0.83652695  0.49965942  0.83593526  1
  Ni  Ni51  1  0.83395593  0.83818535  0.49901794  1
  Cr  Cr52  1  0.66851965  0.66863036  0.66889415  1
  Cr  Cr53  1  0.83654404  0.83904562  0.83734171  1
" 