8677,Ni42Fe37Cr20_15,-231.886706850981, 200.386288159764,Ni42Fe37Cr20,"# generated using pymatgen
 data_Cr6Fe10Ni11
_symmetry_space_group_name_H-M   'P 1'
_cell_length_a   7.44271877
_cell_length_b   7.44271877
_cell_length_c   10.52559383
_cell_angle_alpha   90.00000000
_cell_angle_beta   90.00000000
_cell_angle_gamma   90.00000000
_symmetry_Int_Tables_number   1
_chemical_formula_structural   Cr6Fe10Ni11
_chemical_formula_sum   'Cr12 Fe20 Ni22'
_cell_volume   583.05540500
_cell_formula_units_Z   2
loop_
 _symmetry_equiv_pos_site_id
 _symmetry_equiv_pos_as_xyz
  1  'x, y, z'
loop_
 _atom_site_type_symbol
 _atom_site_label
 _atom_site_symmetry_multiplicity
 _atom_site_fract_x
 _atom_site_fract_y
 _atom_site_fract_z
 _atom_site_occupancy
  Ni  Ni0  1  0.99962764  1.00127804  1.00111237  1
  Ni  Ni1  1  0.16914320  0.16968472  0.16898058  1
  Ni  Ni2  1  0.00355316  0.00350732  0.33666047  1
  Fe  Fe3  1  0.00238792  0.33572200  0.00227406  1
  Fe  Fe4  1  0.16839517  0.49788925  0.16828983  1
  Ni  Ni5  1  0.00336568  0.33325233  0.33304991  1
  Fe  Fe6  1  0.99863915  0.66822889  1.00009422  1
  Cr  Cr7  1  0.16731281  0.83706837  0.16762844  1
  Cr  Cr8  1  0.00371715  0.66881903  0.33550535  1
  Fe  Fe9  1  0.33704377  0.00382557  1.00123974  1
  Ni  Ni10  1  0.50007763  0.16918957  0.16854430  1
  Fe  Fe11  1  0.33406507  0.00317578  0.33639257  1
  Ni  Ni12  1  0.33404462  0.33475180  1.00143242  1
  Fe  Fe13  1  0.50109617  0.50051361  0.16920136  1
  Fe  Fe14  1  0.33493479  0.33443405  0.33455777  1
  Cr  Cr15  1  0.33497468  0.66756317  1.00048084  1
  Fe  Fe16  1  0.50289642  0.83643081  0.16759218  1
  Fe  Fe17  1  0.33519737  0.66730013  0.33712332  1
  Ni  Ni18  1  0.66946320  1.00022986  1.00124349  1
  Fe  Fe19  1  0.83687507  0.16732266  0.16896418  1
  Cr  Cr20  1  0.66768254  0.00282119  0.33423538  1
  Cr  Cr21  1  0.66798665  0.33392951  0.00179780  1
  Fe  Fe22  1  0.83540949  0.50046585  0.16772078  1
  Ni  Ni23  1  0.66665605  0.33462201  0.33353037  1
  Ni  Ni24  1  0.66976806  0.67033620  1.00114418  1
  Ni  Ni25  1  0.83437459  0.83472939  0.16638247  1
  Cr  Cr26  1  0.66580068  0.66773317  0.33502247  1
  Fe  Fe27  1  0.17110614  0.16748518  0.50030987  1
  Fe  Fe28  1  0.00267291  0.99912596  0.66850906  1
  Cr  Cr29  1  0.17079168  0.16748117  0.83560091  1
  Ni  Ni30  1  0.17192574  0.50206963  0.50045786  1
  Cr  Cr31  1  0.00312516  0.33489421  0.66942470  1
  Ni  Ni32  1  0.16807090  0.50258083  0.83631744  1
  Ni  Ni33  1  0.17011645  0.83596834  0.50159832  1
  Cr  Cr34  1  0.00390160  0.67003248  0.66893520  1
  Ni  Ni35  1  0.16717894  0.83455324  0.83514064  1
  Ni  Ni36  1  0.49921842  0.16841617  0.50135598  1
  Ni  Ni37  1  0.33617318  0.99956116  0.66765231  1
  Ni  Ni38  1  0.50138962  0.16722473  0.83500096  1
  Ni  Ni39  1  0.49886449  0.50149464  0.50171915  1
  Fe  Fe40  1  0.33577865  0.33601205  0.66797641  1
  Fe  Fe41  1  0.50061883  0.50284501  0.83416339  1
  Ni  Ni42  1  0.49912387  0.83499278  0.50285619  1
  Ni  Ni43  1  0.33560531  0.66950873  0.66734306  1
  Fe  Fe44  1  0.50217502  0.83524708  0.83379931  1
  Cr  Cr45  1  0.83508642  0.16695689  0.50063888  1
  Fe  Fe46  1  0.66641202  0.99932214  0.66925307  1
  Fe  Fe47  1  0.83486062  0.16588849  0.83578241  1
  Cr  Cr48  1  0.83393236  0.50206510  0.50013402  1
  Cr  Cr49  1  0.66586092  0.33445184  0.66973331  1
  Ni  Ni50  1  0.83497425  0.50448446  0.83720350  1
  Fe  Fe51  1  0.83471713  0.83612116  0.50260608  1
  Fe  Fe52  1  0.66565648  0.67056465  0.66923704  1
  Ni  Ni53  1  0.83443201  0.83408549  0.83530790  1
" 