4324,Ni42Fe5Cr52_10,-217.129955716715, 138.323846345947,Ni42Fe5Cr52,"# generated using pymatgen
 data_Cr15FeNi11
_symmetry_space_group_name_H-M   'P 1'
_cell_length_a   7.53336656
_cell_length_b   7.53336656
_cell_length_c   10.65378916
_cell_angle_alpha   90.00000000
_cell_angle_beta   90.00000000
_cell_angle_gamma   90.00000000
_symmetry_Int_Tables_number   1
_chemical_formula_structural   Cr15FeNi11
_chemical_formula_sum   'Cr30 Fe2 Ni22'
_cell_volume   604.61970560
_cell_formula_units_Z   2
loop_
 _symmetry_equiv_pos_site_id
 _symmetry_equiv_pos_as_xyz
  1  'x, y, z'
loop_
 _atom_site_type_symbol
 _atom_site_label
 _atom_site_symmetry_multiplicity
 _atom_site_fract_x
 _atom_site_fract_y
 _atom_site_fract_z
 _atom_site_occupancy
  Fe  Fe0  1  -0.00066098  0.99554222  0.99527083  1
  Ni  Ni1  1  0.16446110  0.16110209  0.16032583  1
  Cr  Cr2  1  -0.00126895  -0.00252557  0.32978634  1
  Cr  Cr3  1  -0.00082116  0.32804327  0.99452405  1
  Cr  Cr4  1  0.16316681  0.49617497  0.16429984  1
  Ni  Ni5  1  -0.00412304  0.32955387  0.33129811  1
  Cr  Cr6  1  -0.00250971  0.66091755  0.99323915  1
  Cr  Cr7  1  0.16486212  0.82862312  0.16146649  1
  Ni  Ni8  1  0.99473044  0.65911250  0.33307907  1
  Ni  Ni9  1  0.32988007  0.99530998  -0.00392875  1
  Ni  Ni10  1  0.49466013  0.16118417  0.16204210  1
  Cr  Cr11  1  0.32871860  -0.00165887  0.33167769  1
  Cr  Cr12  1  0.32915778  0.33028938  -0.00285845  1
  Ni  Ni13  1  0.49571548  0.49673038  0.16283122  1
  Cr  Cr14  1  0.32836536  0.32602127  0.32727136  1
  Ni  Ni15  1  0.32994408  0.66482357  0.99342181  1
  Ni  Ni16  1  0.49484148  0.82918744  0.15966406  1
  Cr  Cr17  1  0.32930111  0.66200390  0.32916759  1
  Ni  Ni18  1  0.65737756  0.99502633  -0.00325433  1
  Cr  Cr19  1  0.82981057  0.16264864  0.16048611  1
  Cr  Cr20  1  0.65899993  -0.00356368  0.32774998  1
  Cr  Cr21  1  0.66006164  0.32969523  -0.00244246  1
  Cr  Cr22  1  0.83002609  0.49495114  0.16788585  1
  Ni  Ni23  1  0.66212904  0.33047512  0.32838725  1
  Cr  Cr24  1  0.65902320  0.66207879  0.99528083  1
  Cr  Cr25  1  0.82936522  0.82881760  0.16221093  1
  Ni  Ni26  1  0.66314285  0.65898519  0.32696049  1
  Ni  Ni27  1  0.16125148  0.16537332  0.49657337  1
  Cr  Cr28  1  -0.00106086  -0.00430875  0.66205757  1
  Fe  Fe29  1  0.16446557  0.16169724  0.82926556  1
  Ni  Ni30  1  0.15841737  0.49410716  0.49478166  1
  Ni  Ni31  1  -0.00312628  0.32988857  0.66144071  1
  Ni  Ni32  1  0.16459213  0.49691432  0.82844547  1
  Ni  Ni33  1  0.16104816  0.82727243  0.49435287  1
  Cr  Cr34  1  -0.00265631  0.66096763  0.66088021  1
  Ni  Ni35  1  0.16599957  0.82954731  0.83170505  1
  Ni  Ni36  1  0.49474901  0.16580560  0.49541685  1
  Cr  Cr37  1  0.32774010  -0.00433665  0.65772567  1
  Cr  Cr38  1  0.49659190  0.16231332  0.82674800  1
  Cr  Cr39  1  0.49684715  0.49362897  0.49560852  1
  Cr  Cr40  1  0.32681822  0.32942910  0.66194808  1
  Ni  Ni41  1  0.49152607  0.49675632  0.82924582  1
  Cr  Cr42  1  0.49414989  0.82812621  0.49512165  1
  Cr  Cr43  1  0.32703708  0.66262673  0.66505420  1
  Ni  Ni44  1  0.49039566  0.82965060  0.83240695  1
  Cr  Cr45  1  0.82697082  0.16616245  0.49745576  1
  Cr  Cr46  1  0.66043248  0.99518423  0.66101204  1
  Cr  Cr47  1  0.82968034  0.16231775  0.82894665  1
  Ni  Ni48  1  0.83073889  0.49226196  0.49377691  1
  Ni  Ni49  1  0.66295150  0.33037662  0.66121745  1
  Cr  Cr50  1  0.82899496  0.49203435  0.82557980  1
  Cr  Cr51  1  0.82917986  0.82523513  0.49258631  1
  Cr  Cr52  1  0.66169247  0.66124565  0.66521663  1
  Cr  Cr53  1  0.82852518  0.83248208  0.83189646  1
" 