6834,Ni42Fe22Cr34_0,-226.011054528562, 182.517915242411,Ni42Fe22Cr34,"# generated using pymatgen
 data_Cr10Fe6Ni11
_symmetry_space_group_name_H-M   'P 1'
_cell_length_a   7.47194196
_cell_length_b   7.47194196
_cell_length_c   10.56692166
_cell_angle_alpha   90.00000000
_cell_angle_beta   90.00000000
_cell_angle_gamma   90.00000000
_symmetry_Int_Tables_number   1
_chemical_formula_structural   Cr10Fe6Ni11
_chemical_formula_sum   'Cr20 Fe12 Ni22'
_cell_volume   589.95035518
_cell_formula_units_Z   2
loop_
 _symmetry_equiv_pos_site_id
 _symmetry_equiv_pos_as_xyz
  1  'x, y, z'
loop_
 _atom_site_type_symbol
 _atom_site_label
 _atom_site_symmetry_multiplicity
 _atom_site_fract_x
 _atom_site_fract_y
 _atom_site_fract_z
 _atom_site_occupancy
  Fe  Fe0  1  0.99715281  0.00302094  -0.00024480  1
  Cr  Cr1  1  0.16442034  0.16873442  0.16414802  1
  Ni  Ni2  1  0.00059115  0.00033989  0.33119825  1
  Ni  Ni3  1  0.99841445  0.33324065  0.99808770  1
  Cr  Cr4  1  0.17015695  0.49746354  0.16446873  1
  Fe  Fe5  1  0.00033534  0.33010255  0.33354259  1
  Cr  Cr6  1  0.99687465  0.66510891  0.99723926  1
  Cr  Cr7  1  0.16698244  0.83322732  0.16593275  1
  Cr  Cr8  1  0.99948956  0.66753264  0.33543219  1
  Ni  Ni9  1  0.33400718  0.00219139  0.99929944  1
  Ni  Ni10  1  0.50150167  0.16973453  0.16482656  1
  Cr  Cr11  1  0.33171843  0.00453120  0.33515695  1
  Ni  Ni12  1  0.33478863  0.33106656  0.99763770  1
  Cr  Cr13  1  0.49794986  0.49752808  0.16617976  1
  Ni  Ni14  1  0.33599899  0.33182866  0.33493408  1
  Fe  Fe15  1  0.33600592  0.66346083  0.99676857  1
  Cr  Cr16  1  0.49933018  0.83010651  0.16420070  1
  Ni  Ni17  1  0.33173443  0.66380359  0.33499593  1
  Cr  Cr18  1  0.66523924  0.00091985  0.99865523  1
  Ni  Ni19  1  0.83288769  0.16616006  0.16640038  1
  Cr  Cr20  1  0.66607197  0.00342313  0.33106929  1
  Ni  Ni21  1  0.66582710  0.33361443  0.99814802  1
  Cr  Cr22  1  0.83111656  0.49501876  0.16682576  1
  Ni  Ni23  1  0.66319124  0.33198943  0.33423319  1
  Ni  Ni24  1  0.66731804  0.66546333  0.99797548  1
  Ni  Ni25  1  0.83390010  0.83652093  0.16420519  1
  Cr  Cr26  1  0.66676536  0.66304268  0.33206023  1
  Ni  Ni27  1  0.16638472  0.16784230  0.49990378  1
  Cr  Cr28  1  0.00221311  0.00002063  0.66676041  1
  Cr  Cr29  1  0.16448562  0.16989664  0.83464202  1
  Cr  Cr30  1  0.16834179  0.49736585  0.50081078  1
  Ni  Ni31  1  0.99945231  0.33540887  0.66728418  1
  Ni  Ni32  1  0.16929901  0.49860179  0.83258463  1
  Fe  Fe33  1  0.16847853  0.83518302  0.50042515  1
  Fe  Fe34  1  0.00192561  0.66182468  0.66778329  1
  Cr  Cr35  1  0.16927776  0.83228106  0.83266592  1
  Ni  Ni36  1  0.49852918  0.17124205  0.50320514  1
  Ni  Ni37  1  0.33412219  0.00206530  0.66454441  1
  Fe  Fe38  1  0.49875515  0.16975260  0.83203626  1
  Ni  Ni39  1  0.49846170  0.49670466  0.49850538  1
  Ni  Ni40  1  0.33438915  0.33138126  0.66651942  1
  Ni  Ni41  1  0.49917112  0.50013525  0.83445811  1
  Cr  Cr42  1  0.49860613  0.83165077  0.50172562  1
  Fe  Fe43  1  0.33333188  0.66202081  0.66698774  1
  Fe  Fe44  1  0.49895563  0.83318315  0.83290915  1
  Cr  Cr45  1  0.83285091  0.16828890  0.49918485  1
  Fe  Fe46  1  0.66367473  0.00538356  0.66905813  1
  Ni  Ni47  1  0.83070233  0.16799133  0.83311573  1
  Fe  Fe48  1  0.83055928  0.49523171  0.50067815  1
  Ni  Ni49  1  0.66431972  0.33474657  0.66756284  1
  Fe  Fe50  1  0.83301861  0.49457764  0.83348740  1
  Cr  Cr51  1  0.83351038  0.83465258  0.50090743  1
  Cr  Cr52  1  0.66832000  0.66282577  0.66805895  1
  Fe  Fe53  1  0.83140735  0.83288061  0.83313213  1
" 