7256,Ni42Fe32Cr25_16,-229.483035600814, 189.915027103155,Ni42Fe32Cr25,"# generated using pymatgen
 data_Cr15Fe17Ni22
_symmetry_space_group_name_H-M   'P 1'
_cell_length_a   7.45332842
_cell_length_b   7.45332842
_cell_length_c   10.54059813
_cell_angle_alpha   90.00000000
_cell_angle_beta   90.00000000
_cell_angle_gamma   90.00000000
_symmetry_Int_Tables_number   1
_chemical_formula_structural   Cr15Fe17Ni22
_chemical_formula_sum   'Cr15 Fe17 Ni22'
_cell_volume   585.55240848
_cell_formula_units_Z   1
loop_
 _symmetry_equiv_pos_site_id
 _symmetry_equiv_pos_as_xyz
  1  'x, y, z'
loop_
 _atom_site_type_symbol
 _atom_site_label
 _atom_site_symmetry_multiplicity
 _atom_site_fract_x
 _atom_site_fract_y
 _atom_site_fract_z
 _atom_site_occupancy
  Cr  Cr0  1  1.00051655  0.99961152  0.00164892  1
  Ni  Ni1  1  0.16736263  0.16897377  0.17046100  1
  Ni  Ni2  1  0.00096227  0.99900448  0.33428219  1
  Fe  Fe3  1  1.00071227  0.33370842  1.00023967  1
  Cr  Cr4  1  0.16873424  0.50015099  0.16575348  1
  Ni  Ni5  1  0.00176452  0.33291412  0.33152503  1
  Ni  Ni6  1  0.99783709  0.66586634  0.99934501  1
  Cr  Cr7  1  0.16788273  0.83297593  0.16884087  1
  Fe  Fe8  1  0.99924255  0.66785461  0.33346146  1
  Cr  Cr9  1  0.33402280  0.00361919  0.00131180  1
  Fe  Fe10  1  0.49888114  0.16899915  0.16777635  1
  Fe  Fe11  1  0.33301376  0.00255640  0.33441478  1
  Ni  Ni12  1  0.33495716  0.33473121  0.99776988  1
  Cr  Cr13  1  0.50154196  0.50285418  0.16783103  1
  Ni  Ni14  1  0.33372106  0.33622962  0.33494299  1
  Fe  Fe15  1  0.33634714  0.66583253  0.99739325  1
  Fe  Fe16  1  0.50177001  0.83406622  0.16678233  1
  Fe  Fe17  1  0.33508785  0.66946644  0.33699892  1
  Cr  Cr18  1  0.66762389  1.00044355  1.00047348  1
  Ni  Ni19  1  0.83517695  0.16786283  0.16898962  1
  Cr  Cr20  1  0.66869310  0.99946627  0.33387825  1
  Ni  Ni21  1  0.66587402  0.33674004  0.00214475  1
  Fe  Fe22  1  0.83659218  0.50112097  0.16551188  1
  Cr  Cr23  1  0.66805661  0.33531610  0.33376053  1
  Ni  Ni24  1  0.66969669  0.66666074  1.00063230  1
  Ni  Ni25  1  0.83304929  0.83285153  0.16825682  1
  Fe  Fe26  1  0.66875944  0.66887737  0.33358306  1
  Cr  Cr27  1  0.16668681  0.16681912  0.50140004  1
  Ni  Ni28  1  1.00070473  0.99802656  0.66592110  1
  Ni  Ni29  1  0.16917831  0.17001189  0.83116032  1
  Cr  Cr30  1  0.16751522  0.50119229  0.50149435  1
  Ni  Ni31  1  0.00155967  0.33452133  0.66999131  1
  Ni  Ni32  1  0.16821378  0.49889202  0.83444513  1
  Ni  Ni33  1  0.16760474  0.83394144  0.50028442  1
  Fe  Fe34  1  0.00248470  0.66582105  0.66969431  1
  Cr  Cr35  1  0.16714138  0.83368014  0.83356458  1
  Cr  Cr36  1  0.49994228  0.16802349  0.50351245  1
  Ni  Ni37  1  0.33300585  0.99851661  0.66833382  1
  Fe  Fe38  1  0.49926076  0.16881469  0.83279309  1
  Fe  Fe39  1  0.49815030  0.50430215  0.50149735  1
  Ni  Ni40  1  0.33355378  0.33638556  0.66999824  1
  Ni  Ni41  1  0.50112153  0.50225545  0.83365164  1
  Fe  Fe42  1  0.49895913  0.83202569  0.50324514  1
  Ni  Ni43  1  0.33549449  0.66775033  0.66825963  1
  Ni  Ni44  1  0.50274400  0.83215483  0.83362952  1
  Fe  Fe45  1  0.83765944  0.16588550  0.50141847  1
  Fe  Fe46  1  0.66600421  0.99818472  0.66765668  1
  Cr  Cr47  1  0.83484944  0.16711469  0.83135365  1
  Cr  Cr48  1  0.83419289  0.50153631  0.49999127  1
  Cr  Cr49  1  0.66674786  0.33803257  0.66772972  1
  Ni  Ni50  1  0.83337532  0.50198266  0.83772700  1
  Fe  Fe51  1  0.83700242  0.83513045  0.50201576  1
  Fe  Fe52  1  0.66710130  0.66893379  0.66952788  1
  Ni  Ni53  1  0.83156412  0.83100855  0.83139185  1
" 