1549,Ni42Fe58_18,-242.562136100528, 226.581877193943,Ni42Fe58,"# generated using pymatgen
 data_Fe11Ni16
_symmetry_space_group_name_H-M   'P 1'
_cell_length_a   7.40488514
_cell_length_b   7.40488514
_cell_length_c   10.47208899
_cell_angle_alpha   90.00000000
_cell_angle_beta   90.00000000
_cell_angle_gamma   90.00000000
_symmetry_Int_Tables_number   1
_chemical_formula_structural   Fe11Ni16
_chemical_formula_sum   'Fe22 Ni32'
_cell_volume   574.20897624
_cell_formula_units_Z   2
loop_
 _symmetry_equiv_pos_site_id
 _symmetry_equiv_pos_as_xyz
  1  'x, y, z'
loop_
 _atom_site_type_symbol
 _atom_site_label
 _atom_site_symmetry_multiplicity
 _atom_site_fract_x
 _atom_site_fract_y
 _atom_site_fract_z
 _atom_site_occupancy
  Fe  Fe0  1  0.00547635  0.00469227  1.00419660  1
  Ni  Ni1  1  0.17052086  0.16898669  0.17158768  1
  Ni  Ni2  1  0.00476946  0.00461573  0.33703751  1
  Fe  Fe3  1  0.00475716  0.33723206  0.00456067  1
  Fe  Fe4  1  0.17155691  0.50463263  0.17043926  1
  Ni  Ni5  1  1.00371814  0.33744089  0.33759663  1
  Fe  Fe6  1  0.00471294  0.67066840  1.00337911  1
  Ni  Ni7  1  0.17127206  0.83958353  0.17087076  1
  Fe  Fe8  1  1.00389901  0.67149383  0.33782710  1
  Ni  Ni9  1  0.33711340  1.00370724  0.00420564  1
  Fe  Fe10  1  0.50412659  0.17054056  0.17097223  1
  Ni  Ni11  1  0.33680522  1.00315249  0.33699621  1
  Ni  Ni12  1  0.33742780  0.33832148  0.00498364  1
  Ni  Ni13  1  0.50632898  0.50444820  0.17109038  1
  Fe  Fe14  1  0.33829351  0.33710090  0.33772040  1
  Ni  Ni15  1  0.33640385  0.67056409  1.00340596  1
  Ni  Ni16  1  0.50363657  0.83720979  0.17170377  1
  Ni  Ni17  1  0.33754407  0.67126593  0.33770588  1
  Ni  Ni18  1  0.67098544  0.00473546  0.00428479  1
  Fe  Fe19  1  0.83716626  0.17082852  0.17132273  1
  Ni  Ni20  1  0.67101567  0.00419868  0.33752868  1
  Ni  Ni21  1  0.67099848  0.33762073  1.00419652  1
  Ni  Ni22  1  0.83573441  0.50369502  0.17136612  1
  Ni  Ni23  1  0.67174913  0.33817913  0.33722485  1
  Fe  Fe24  1  0.66941440  0.67021109  0.00445806  1
  Fe  Fe25  1  0.83707805  0.83759052  0.17125618  1
  Ni  Ni26  1  0.67028445  0.67021307  0.33680541  1
  Fe  Fe27  1  0.17168678  0.17057171  0.50413257  1
  Ni  Ni28  1  0.00484166  1.00322732  0.67135735  1
  Ni  Ni29  1  0.17072361  0.16935868  0.83650750  1
  Fe  Fe30  1  0.17168996  0.50416323  0.50462797  1
  Fe  Fe31  1  1.00389561  0.33729406  0.67108523  1
  Ni  Ni32  1  0.17071011  0.50419618  0.83752439  1
  Ni  Ni33  1  0.17010407  0.83869591  0.50419765  1
  Ni  Ni34  1  1.00411733  0.67110930  0.67065567  1
  Ni  Ni35  1  0.17069796  0.83903684  0.83751999  1
  Ni  Ni36  1  0.50484660  0.17158723  0.50381857  1
  Ni  Ni37  1  0.33665072  0.00470016  0.67138931  1
  Fe  Fe38  1  0.50343568  0.17168911  0.83703721  1
  Ni  Ni39  1  0.50577977  0.50324159  0.50419715  1
  Ni  Ni40  1  0.33770399  0.33752503  0.67099362  1
  Ni  Ni41  1  0.50577833  0.50387067  0.83730677  1
  Fe  Fe42  1  0.50406158  0.83778896  0.50344449  1
  Fe  Fe43  1  0.33770328  0.67110156  0.67099630  1
  Fe  Fe44  1  0.50350187  0.83716513  0.83815218  1
  Fe  Fe45  1  0.83688294  0.17060395  0.50387443  1
  Ni  Ni46  1  0.67109807  0.00428498  0.67077886  1
  Fe  Fe47  1  0.83776541  0.17142748  0.83739607  1
  Fe  Fe48  1  0.83681284  0.50419838  0.50413348  1
  Ni  Ni49  1  0.67035995  0.33824966  0.67116764  1
  Ni  Ni50  1  0.83610081  0.50389433  0.83672399  1
  Fe  Fe51  1  0.83686675  0.83778980  0.50458601  1
  Ni  Ni52  1  0.67183125  0.67005686  0.67158285  1
  Fe  Fe53  1  0.83822326  0.83690231  0.83674935  1
" 