8689,Ni42Fe5Cr52_9,-217.229962752945, 140.973577011389,Ni42Fe5Cr52,"# generated using pymatgen
 data_Cr15FeNi11
_symmetry_space_group_name_H-M   'P 1'
_cell_length_a   7.52538883
_cell_length_b   7.52538883
_cell_length_c   10.64250695
_cell_angle_alpha   90.00000000
_cell_angle_beta   90.00000000
_cell_angle_gamma   90.00000000
_symmetry_Int_Tables_number   1
_chemical_formula_structural   Cr15FeNi11
_chemical_formula_sum   'Cr30 Fe2 Ni22'
_cell_volume   602.70088830
_cell_formula_units_Z   2
loop_
 _symmetry_equiv_pos_site_id
 _symmetry_equiv_pos_as_xyz
  1  'x, y, z'
loop_
 _atom_site_type_symbol
 _atom_site_label
 _atom_site_symmetry_multiplicity
 _atom_site_fract_x
 _atom_site_fract_y
 _atom_site_fract_z
 _atom_site_occupancy
  Ni  Ni0  1  0.99585246  -0.00201017  0.99391330  1
  Cr  Cr1  1  0.15893239  0.16325212  0.16367879  1
  Ni  Ni2  1  0.99597136  -0.00143952  0.33259847  1
  Ni  Ni3  1  0.99311412  0.32599867  0.99457582  1
  Cr  Cr4  1  0.16272096  0.49623505  0.16232403  1
  Ni  Ni5  1  0.99473988  0.32691112  0.33161333  1
  Cr  Cr6  1  0.99559642  0.66376761  0.99346918  1
  Cr  Cr7  1  0.16065104  0.82809114  0.16360703  1
  Fe  Fe8  1  -0.00270248  0.66374174  0.33190187  1
  Cr  Cr9  1  0.32904740  0.99361019  0.99602200  1
  Cr  Cr10  1  0.49972658  0.15901919  0.16239810  1
  Cr  Cr11  1  0.32819723  0.99355398  0.33044676  1
  Cr  Cr12  1  0.32988397  0.32619899  0.99569798  1
  Cr  Cr13  1  0.49306875  0.49822021  0.16361064  1
  Cr  Cr14  1  0.32877539  0.32727166  0.33145261  1
  Ni  Ni15  1  0.33104336  0.66759515  0.99554323  1
  Ni  Ni16  1  0.49659286  0.82921744  0.16288654  1
  Ni  Ni17  1  0.33033883  0.66589747  0.33056144  1
  Fe  Fe18  1  0.66281570  0.99577722  0.99431834  1
  Cr  Cr19  1  0.83041458  0.15970871  0.16300760  1
  Ni  Ni20  1  0.66381583  0.99427150  0.32960092  1
  Cr  Cr21  1  0.66537542  0.32902724  0.99455664  1
  Cr  Cr22  1  0.83300574  0.49615501  0.16378228  1
  Cr  Cr23  1  0.66570008  0.32946760  0.33161865  1
  Cr  Cr24  1  0.66184113  0.66371191  0.99508609  1
  Cr  Cr25  1  0.82834062  0.83320697  0.16424562  1
  Cr  Cr26  1  0.66159809  0.66281719  0.33111174  1
  Ni  Ni27  1  0.15866827  0.16123992  0.49623312  1
  Ni  Ni28  1  0.99562210  -0.00240487  0.66187938  1
  Cr  Cr29  1  0.16212506  0.16259407  0.82813051  1
  Cr  Cr30  1  0.16467214  0.49556896  0.49534524  1
  Cr  Cr31  1  0.99355496  0.32759156  0.66258496  1
  Cr  Cr32  1  0.16385435  0.49641584  0.83128057  1
  Ni  Ni33  1  0.16194546  0.83122741  0.49446770  1
  Cr  Cr34  1  0.99538256  0.66489848  0.66297003  1
  Ni  Ni35  1  0.16314179  0.83137809  0.83032956  1
  Cr  Cr36  1  0.49817092  0.16124531  0.49812125  1
  Cr  Cr37  1  0.32649692  0.99515160  0.66194913  1
  Ni  Ni38  1  0.49940464  0.15968805  0.82822211  1
  Ni  Ni39  1  0.49539354  0.49820175  0.49625867  1
  Ni  Ni40  1  0.33012848  0.32752050  0.66125918  1
  Cr  Cr41  1  0.49361174  0.49498360  0.82764189  1
  Ni  Ni42  1  0.49639721  0.82936517  0.49489756  1
  Cr  Cr43  1  0.32954974  0.66761349  0.66253520  1
  Ni  Ni44  1  0.49611500  0.83256381  0.83065689  1
  Ni  Ni45  1  0.83148122  0.16061091  0.49525135  1
  Ni  Ni46  1  0.66332697  -0.00284232  0.66433087  1
  Ni  Ni47  1  0.82856414  0.16060515  0.83032537  1
  Ni  Ni48  1  0.83058821  0.49481723  0.49403121  1
  Cr  Cr49  1  0.66565098  0.32995934  0.66206755  1
  Ni  Ni50  1  0.83027526  0.49342998  0.83051752  1
  Cr  Cr51  1  0.82899832  0.83385879  0.49562228  1
  Cr  Cr52  1  0.66357520  0.66244600  0.66170278  1
  Cr  Cr53  1  0.82952729  0.83367698  0.82843927  1
" 