3800,Ni42Fe32Cr25_11,-230.282505832672, 195.411986901431,Ni42Fe32Cr25,"# generated using pymatgen
 data_Cr15Fe17Ni22
_symmetry_space_group_name_H-M   'P 1'
_cell_length_a   7.45371260
_cell_length_b   7.45371260
_cell_length_c   10.54114145
_cell_angle_alpha   90.00000000
_cell_angle_beta   90.00000000
_cell_angle_gamma   90.00000000
_symmetry_Int_Tables_number   1
_chemical_formula_structural   Cr15Fe17Ni22
_chemical_formula_sum   'Cr15 Fe17 Ni22'
_cell_volume   585.64296120
_cell_formula_units_Z   1
loop_
 _symmetry_equiv_pos_site_id
 _symmetry_equiv_pos_as_xyz
  1  'x, y, z'
loop_
 _atom_site_type_symbol
 _atom_site_label
 _atom_site_symmetry_multiplicity
 _atom_site_fract_x
 _atom_site_fract_y
 _atom_site_fract_z
 _atom_site_occupancy
  Cr  Cr0  1  0.00315595  0.99992387  0.00177431  1
  Ni  Ni1  1  0.16913946  0.17124416  0.16689971  1
  Cr  Cr2  1  0.00413117  0.00167681  0.33225931  1
  Fe  Fe3  1  0.00211447  0.33438305  0.00296910  1
  Ni  Ni4  1  0.16895807  0.50040272  0.16797351  1
  Fe  Fe5  1  0.00297324  0.33490648  0.33309516  1
  Fe  Fe6  1  1.00067576  0.66677203  0.00211314  1
  Ni  Ni7  1  0.16921673  0.83146047  0.16643260  1
  Cr  Cr8  1  0.00337112  0.66844301  0.33351832  1
  Fe  Fe9  1  0.33473142  0.00327532  0.00096623  1
  Ni  Ni10  1  0.50026660  0.16778285  0.16759771  1
  Fe  Fe11  1  0.33353606  0.99996467  0.33443443  1
  Ni  Ni12  1  0.33486858  0.33461217  0.00129895  1
  Ni  Ni13  1  0.49632410  0.50097042  0.16646236  1
  Fe  Fe14  1  0.33221803  0.33432468  0.33275014  1
  Ni  Ni15  1  0.33255258  0.66565275  0.00174118  1
  Cr  Cr16  1  0.50020405  0.83512774  0.16757109  1
  Ni  Ni17  1  0.33317683  0.66579752  0.33579577  1
  Ni  Ni18  1  0.67007263  0.00229559  0.00143638  1
  Ni  Ni19  1  0.83395877  0.16757503  0.16860983  1
  Ni  Ni20  1  0.66811091  0.00183763  0.33296451  1
  Cr  Cr21  1  0.66554156  0.33504737  0.00186143  1
  Fe  Fe22  1  0.83618714  0.50084486  0.16599891  1
  Cr  Cr23  1  0.66652649  0.33541330  0.33181614  1
  Fe  Fe24  1  0.66818583  0.66788131  0.00131059  1
  Ni  Ni25  1  0.83325526  0.83478499  0.16553561  1
  Cr  Cr26  1  0.66566342  0.66589871  0.33293910  1
  Ni  Ni27  1  0.16742312  0.17103652  0.50184001  1
  Ni  Ni28  1  0.00279458  0.99952952  0.66815520  1
  Fe  Fe29  1  0.16903491  0.16681652  0.83455739  1
  Fe  Fe30  1  0.16931866  0.50001457  0.50127184  1
  Fe  Fe31  1  0.00342071  0.33516479  0.66670852  1
  Cr  Cr32  1  0.16825850  0.50047610  0.83426677  1
  Ni  Ni33  1  0.16981023  0.83202922  0.50237039  1
  Fe  Fe34  1  0.00304428  0.66792202  0.66760566  1
  Ni  Ni35  1  0.16619061  0.83010744  0.83408636  1
  Cr  Cr36  1  0.50097921  0.16616821  0.50039367  1
  Cr  Cr37  1  0.32936736  1.00020520  0.66889415  1
  Ni  Ni38  1  0.50093634  0.17011808  0.83429793  1
  Fe  Fe39  1  0.49721267  0.50064684  0.50095388  1
  Ni  Ni40  1  0.33628277  0.33552261  0.66790257  1
  Fe  Fe41  1  0.49925094  0.50063047  0.83471571  1
  Ni  Ni42  1  0.49853553  0.83256416  0.49957576  1
  Ni  Ni43  1  0.33356039  0.66598656  0.66549142  1
  Cr  Cr44  1  0.50028425  0.83486111  0.83649213  1
  Cr  Cr45  1  0.83483912  0.16873778  0.50264362  1
  Fe  Fe46  1  0.66484367  1.00082844  0.66859015  1
  Cr  Cr47  1  0.83345713  0.16779474  0.83067464  1
  Fe  Fe48  1  0.83629616  0.49989053  0.50212939  1
  Ni  Ni49  1  0.66604257  0.33680672  0.66835874  1
  Fe  Fe50  1  0.83419388  0.50245082  0.83417499  1
  Cr  Cr51  1  0.83270679  0.83580587  0.50277674  1
  Cr  Cr52  1  0.66545065  0.66466891  0.66763803  1
  Ni  Ni53  1  0.83565290  0.83322088  0.83361299  1
" 