715,Ni42Fe26Cr30_8,-228.085508435526, 184.152159086261,Ni42Fe26Cr30,"# generated using pymatgen
 data_Cr17Fe14Ni23
_symmetry_space_group_name_H-M   'P 1'
_cell_length_a   7.45965303
_cell_length_b   7.45965303
_cell_length_c   10.54954249
_cell_angle_alpha   90.00000000
_cell_angle_beta   90.00000000
_cell_angle_gamma   90.00000000
_symmetry_Int_Tables_number   1
_chemical_formula_structural   Cr17Fe14Ni23
_chemical_formula_sum   'Cr17 Fe14 Ni23'
_cell_volume   587.04430796
_cell_formula_units_Z   1
loop_
 _symmetry_equiv_pos_site_id
 _symmetry_equiv_pos_as_xyz
  1  'x, y, z'
loop_
 _atom_site_type_symbol
 _atom_site_label
 _atom_site_symmetry_multiplicity
 _atom_site_fract_x
 _atom_site_fract_y
 _atom_site_fract_z
 _atom_site_occupancy
  Cr  Cr0  1  0.00118469  0.00212889  0.99714206  1
  Cr  Cr1  1  0.16860048  0.17044155  0.16822790  1
  Ni  Ni2  1  1.00035269  0.00100623  0.33585112  1
  Ni  Ni3  1  0.00160832  0.33615605  0.99819651  1
  Ni  Ni4  1  0.16586069  0.50106964  0.16569452  1
  Fe  Fe5  1  0.00199265  0.33478283  0.33398764  1
  Ni  Ni6  1  0.00142470  0.66454339  0.99944012  1
  Fe  Fe7  1  0.16681206  0.83309808  0.16695194  1
  Ni  Ni8  1  0.99950603  0.66859020  0.33236309  1
  Cr  Cr9  1  0.33288922  0.00321861  0.99786074  1
  Ni  Ni10  1  0.49986415  0.17075457  0.16788623  1
  Ni  Ni11  1  0.33082596  0.00372766  0.33351678  1
  Ni  Ni12  1  0.33515374  0.33631793  0.99883000  1
  Ni  Ni13  1  0.49818056  0.49593470  0.16662101  1
  Ni  Ni14  1  0.33618371  0.33267689  0.33413981  1
  Fe  Fe15  1  0.33102975  0.66344417  0.99948891  1
  Cr  Cr16  1  0.49906377  0.83712194  0.16727322  1
  Cr  Cr17  1  0.33359425  0.66267552  0.33127750  1
  Cr  Cr18  1  0.66761638  0.00350122  0.99774509  1
  Cr  Cr19  1  0.83244717  0.16930597  0.16847893  1
  Fe  Fe20  1  0.66767104  0.00260088  0.33466453  1
  Fe  Fe21  1  0.66648453  0.33430494  0.99903710  1
  Fe  Fe22  1  0.83560731  0.49832380  0.16633563  1
  Ni  Ni23  1  0.66546931  0.33367800  0.33203403  1
  Cr  Cr24  1  0.66602363  0.66294310  0.99926449  1
  Cr  Cr25  1  0.83599050  0.83273162  0.16819319  1
  Cr  Cr26  1  0.66713917  0.66248307  0.33514782  1
  Ni  Ni27  1  0.16738938  0.16881821  0.50022501  1
  Cr  Cr28  1  0.00087327  0.00202956  0.66921956  1
  Ni  Ni29  1  0.16848168  0.17077276  0.83214902  1
  Cr  Cr30  1  0.16632427  0.49611205  0.50197967  1
  Ni  Ni31  1  1.00013204  0.33138708  0.66878494  1
  Ni  Ni32  1  0.16584625  0.49935087  0.83416913  1
  Cr  Cr33  1  0.16615397  0.83438992  0.49820100  1
  Fe  Fe34  1  0.99936373  0.66489507  0.66987858  1
  Ni  Ni35  1  0.16731976  0.83097074  0.83505974  1
  Cr  Cr36  1  0.49943641  0.16831115  0.49995875  1
  Fe  Fe37  1  0.33295612  0.00445438  0.66954140  1
  Ni  Ni38  1  0.50070341  0.16909255  0.83358298  1
  Fe  Fe39  1  0.50096358  0.49738248  0.50178530  1
  Ni  Ni40  1  0.33444884  0.33315534  0.66855133  1
  Ni  Ni41  1  0.50064168  0.49786643  0.83294600  1
  Cr  Cr42  1  0.50268997  0.83614555  0.50218593  1
  Cr  Cr43  1  0.33509986  0.66454595  0.66911144  1
  Fe  Fe44  1  0.50000395  0.83368781  0.83197431  1
  Fe  Fe45  1  0.83475582  0.16721194  0.50031291  1
  Fe  Fe46  1  0.66733256  0.00363963  0.66990884  1
  Ni  Ni47  1  0.83240771  0.17135891  0.83271048  1
  Cr  Cr48  1  0.83505105  0.49952573  0.50128171  1
  Ni  Ni49  1  0.66689406  0.33472424  0.66984241  1
  Ni  Ni50  1  0.83521166  0.49898125  0.83452276  1
  Ni  Ni51  1  0.83303326  0.83435284  0.50170812  1
  Fe  Fe52  1  0.67001889  0.66463671  0.66942947  1
  Fe  Fe53  1  0.83465485  0.83140386  0.83209375  1
" 