846,Ni42Fe22Cr34_13,-226.063636706503, 180.680822862932,Ni42Fe22Cr34,"# generated using pymatgen
 data_Cr10Fe6Ni11
_symmetry_space_group_name_H-M   'P 1'
_cell_length_a   7.46913674
_cell_length_b   7.46913674
_cell_length_c   10.56295447
_cell_angle_alpha   90.00000000
_cell_angle_beta   90.00000000
_cell_angle_gamma   90.00000000
_symmetry_Int_Tables_number   1
_chemical_formula_structural   Cr10Fe6Ni11
_chemical_formula_sum   'Cr20 Fe12 Ni22'
_cell_volume   589.28614189
_cell_formula_units_Z   2
loop_
 _symmetry_equiv_pos_site_id
 _symmetry_equiv_pos_as_xyz
  1  'x, y, z'
loop_
 _atom_site_type_symbol
 _atom_site_label
 _atom_site_symmetry_multiplicity
 _atom_site_fract_x
 _atom_site_fract_y
 _atom_site_fract_z
 _atom_site_occupancy
  Cr  Cr0  1  0.99858076  0.99851304  0.00213220  1
  Cr  Cr1  1  0.16875099  0.16824153  0.16636090  1
  Cr  Cr2  1  0.99938864  0.99838901  0.33386944  1
  Fe  Fe3  1  0.99877428  0.33453067  0.00000644  1
  Cr  Cr4  1  0.16436292  0.49968414  0.16555785  1
  Ni  Ni5  1  0.99892714  0.33430501  0.33224196  1
  Ni  Ni6  1  0.00020551  0.66580073  -0.00006584  1
  Ni  Ni7  1  0.16599500  0.83142661  0.16570210  1
  Ni  Ni8  1  0.99725355  0.66665848  0.33233609  1
  Ni  Ni9  1  0.33577534  0.00005348  0.00002408  1
  Ni  Ni10  1  0.50040192  0.16632745  0.16503006  1
  Cr  Cr11  1  0.33260407  -0.00011124  0.33347597  1
  Ni  Ni12  1  0.33452186  0.33206231  0.99927763  1
  Fe  Fe13  1  0.50126592  0.49837269  0.16823333  1
  Ni  Ni14  1  0.33459776  0.33402442  0.33360944  1
  Cr  Cr15  1  0.33193800  0.66732771  0.99840097  1
  Ni  Ni16  1  0.50101515  0.83530060  0.16512552  1
  Cr  Cr17  1  0.33460696  0.66625640  0.33364548  1
  Ni  Ni18  1  0.66480778  0.00148147  0.00015236  1
  Ni  Ni19  1  0.83085983  0.16838699  0.16621335  1
  Cr  Cr20  1  0.66756316  0.99826463  0.33102895  1
  Cr  Cr21  1  0.66661222  0.33127795  0.99936677  1
  Ni  Ni22  1  0.83460324  0.50049674  0.16837440  1
  Fe  Fe23  1  0.66630527  0.33526028  0.33121439  1
  Cr  Cr24  1  0.66769215  0.66720292  0.00152807  1
  Ni  Ni25  1  0.83256954  0.83076466  0.16684168  1
  Fe  Fe26  1  0.66757267  0.66588628  0.33266264  1
  Fe  Fe27  1  0.16571397  0.16705318  0.49915956  1
  Fe  Fe28  1  0.00025739  0.99899859  0.66628424  1
  Cr  Cr29  1  0.16696437  0.16749003  0.83457162  1
  Cr  Cr30  1  0.16666955  0.49933099  0.49954653  1
  Fe  Fe31  1  0.99822117  0.33330346  0.66758728  1
  Fe  Fe32  1  0.16585593  0.50147464  0.83350836  1
  Fe  Fe33  1  0.16546762  0.83185121  0.50109916  1
  Fe  Fe34  1  0.00176200  0.66733537  0.66714218  1
  Ni  Ni35  1  0.16796463  0.82981633  0.83200920  1
  Cr  Cr36  1  0.49929158  0.16830969  0.49902843  1
  Cr  Cr37  1  0.33168038  0.99679309  0.66534698  1
  Ni  Ni38  1  0.50127875  0.16657539  0.83509851  1
  Ni  Ni39  1  0.49923609  0.50094187  0.49902617  1
  Cr  Cr40  1  0.33502477  0.33572482  0.66661344  1
  Fe  Fe41  1  0.49898533  0.49904939  0.83175546  1
  Ni  Ni42  1  0.49987133  0.83036102  0.50059092  1
  Ni  Ni43  1  0.33205075  0.66701769  0.66723006  1
  Ni  Ni44  1  0.49721879  0.83426268  0.83381975  1
  Cr  Cr45  1  0.83449191  0.16703563  0.50133887  1
  Cr  Cr46  1  0.66767569  0.00108070  0.66822046  1
  Ni  Ni47  1  0.83175023  0.16970602  0.83203436  1
  Cr  Cr48  1  0.83282848  0.50085916  0.49866042  1
  Ni  Ni49  1  0.66802069  0.33410696  0.66830691  1
  Fe  Fe50  1  0.83482184  0.49806907  0.83300770  1
  Ni  Ni51  1  0.83445098  0.83169274  0.49965929  1
  Cr  Cr52  1  0.66413527  0.66472352  0.66584976  1
  Cr  Cr53  1  0.83320695  0.83329986  0.83360621  1
" 