1671,Ni42Fe26Cr30_19,-228.106961214708, 184.426454062717,Ni42Fe26Cr30,"# generated using pymatgen
 data_Cr17Fe14Ni23
_symmetry_space_group_name_H-M   'P 1'
_cell_length_a   7.46208838
_cell_length_b   7.46208838
_cell_length_c   10.55298659
_cell_angle_alpha   90.00000000
_cell_angle_beta   90.00000000
_cell_angle_gamma   90.00000000
_symmetry_Int_Tables_number   1
_chemical_formula_structural   Cr17Fe14Ni23
_chemical_formula_sum   'Cr17 Fe14 Ni23'
_cell_volume   587.61945173
_cell_formula_units_Z   1
loop_
 _symmetry_equiv_pos_site_id
 _symmetry_equiv_pos_as_xyz
  1  'x, y, z'
loop_
 _atom_site_type_symbol
 _atom_site_label
 _atom_site_symmetry_multiplicity
 _atom_site_fract_x
 _atom_site_fract_y
 _atom_site_fract_z
 _atom_site_occupancy
  Ni  Ni0  1  0.00085108  0.00300146  0.00113000  1
  Fe  Fe1  1  0.16716536  0.16627173  0.16768758  1
  Ni  Ni2  1  0.99931955  0.00088410  0.33444734  1
  Ni  Ni3  1  0.00063663  0.33320819  0.99923789  1
  Cr  Cr4  1  0.16693711  0.50236746  0.16926676  1
  Fe  Fe5  1  0.00114689  0.33318017  0.33365148  1
  Fe  Fe6  1  0.00343352  0.66482725  0.99969368  1
  Cr  Cr7  1  0.16941846  0.83283141  0.16599839  1
  Ni  Ni8  1  0.99964795  0.66831654  0.33558719  1
  Ni  Ni9  1  0.33505673  0.00039365  0.00095115  1
  Ni  Ni10  1  0.50005557  0.16548520  0.16802957  1
  Ni  Ni11  1  0.33415388  0.00118648  0.33148915  1
  Cr  Cr12  1  0.33408389  0.33404141  0.00156841  1
  Fe  Fe13  1  0.50010268  0.50035993  0.16972517  1
  Ni  Ni14  1  0.33455051  0.33463297  0.33273075  1
  Ni  Ni15  1  0.33699476  0.66615835  0.99824196  1
  Fe  Fe16  1  0.49966094  0.83431418  0.16846641  1
  Ni  Ni17  1  0.33632978  0.66497053  0.33553368  1
  Fe  Fe18  1  0.66264129  0.00182789  0.00058658  1
  Cr  Cr19  1  0.83070065  0.16809824  0.16735536  1
  Ni  Ni20  1  0.66726279  0.99929952  0.33474299  1
  Fe  Fe21  1  0.66455035  0.33256211  0.00049629  1
  Cr  Cr22  1  0.83334986  0.49971844  0.16714567  1
  Ni  Ni23  1  0.66402744  0.33434984  0.33359082  1
  Cr  Cr24  1  0.66424742  0.66559422  0.00090611  1
  Cr  Cr25  1  0.83387948  0.83311061  0.16750448  1
  Ni  Ni26  1  0.66505574  0.66726366  0.33431027  1
  Cr  Cr27  1  0.16979870  0.16903414  0.49792119  1
  Cr  Cr28  1  0.99874774  0.00062565  0.66454336  1
  Cr  Cr29  1  0.17014591  0.16690715  0.83440095  1
  Ni  Ni30  1  0.16775731  0.50058770  0.50044913  1
  Fe  Fe31  1  0.00123182  0.33582282  0.66784489  1
  Ni  Ni32  1  0.16566811  0.50168196  0.83207867  1
  Cr  Cr33  1  0.17079110  0.83133625  0.50002141  1
  Fe  Fe34  1  0.00150939  0.66433982  0.66659159  1
  Cr  Cr35  1  0.17015060  0.83127475  0.83438486  1
  Cr  Cr36  1  0.50140611  0.16623103  0.50146459  1
  Ni  Ni37  1  0.33650021  0.00145908  0.66850916  1
  Ni  Ni38  1  0.50130142  0.16572295  0.83263145  1
  Ni  Ni39  1  0.49880138  0.50026948  0.49889162  1
  Ni  Ni40  1  0.33322878  0.33701880  0.66790008  1
  Fe  Fe41  1  0.49928660  0.49964298  0.83207656  1
  Ni  Ni42  1  0.50043978  0.83466176  0.49846379  1
  Fe  Fe43  1  0.33543791  0.66671761  0.66641293  1
  Ni  Ni44  1  0.49901289  0.83681616  0.83415394  1
  Fe  Fe45  1  0.83189201  0.16668230  0.49858562  1
  Ni  Ni46  1  0.66559550  0.99850798  0.66685325  1
  Cr  Cr47  1  0.82901120  0.16911232  0.83393890  1
  Cr  Cr48  1  0.83362770  0.49845249  0.49815192  1
  Fe  Fe49  1  0.66478279  0.33337078  0.66685564  1
  Ni  Ni50  1  0.83535112  0.49888190  0.83512355  1
  Fe  Fe51  1  0.83137583  0.83408369  0.49788710  1
  Cr  Cr52  1  0.66611351  0.66761955  0.66583613  1
  Cr  Cr53  1  0.83371820  0.83282730  0.83589648  1
" 