7181,Ni42Fe22Cr34_4,-226.293523528172, 182.154785259011,Ni42Fe22Cr34,"# generated using pymatgen
 data_Cr10Fe6Ni11
_symmetry_space_group_name_H-M   'P 1'
_cell_length_a   7.47971491
_cell_length_b   7.47971491
_cell_length_c   10.57791426
_cell_angle_alpha   90.00000000
_cell_angle_beta   90.00000000
_cell_angle_gamma   90.00000000
_symmetry_Int_Tables_number   1
_chemical_formula_structural   Cr10Fe6Ni11
_chemical_formula_sum   'Cr20 Fe12 Ni22'
_cell_volume   591.79342011
_cell_formula_units_Z   2
loop_
 _symmetry_equiv_pos_site_id
 _symmetry_equiv_pos_as_xyz
  1  'x, y, z'
loop_
 _atom_site_type_symbol
 _atom_site_label
 _atom_site_symmetry_multiplicity
 _atom_site_fract_x
 _atom_site_fract_y
 _atom_site_fract_z
 _atom_site_occupancy
  Ni  Ni0  1  0.99779351  0.99850358  -0.00084418  1
  Ni  Ni1  1  0.16598324  0.16389409  0.16586956  1
  Cr  Cr2  1  0.99700639  0.00256748  0.33138200  1
  Cr  Cr3  1  0.99806929  0.32928999  0.00180394  1
  Fe  Fe4  1  0.16417184  0.49883030  0.16640069  1
  Ni  Ni5  1  0.99782310  0.33297063  0.33257332  1
  Cr  Cr6  1  0.99883697  0.66770395  0.99748131  1
  Cr  Cr7  1  0.16725069  0.83277972  0.16374132  1
  Fe  Fe8  1  0.99650752  0.66492194  0.33373830  1
  Ni  Ni9  1  0.33243939  0.99796418  0.00174530  1
  Fe  Fe10  1  0.50167553  0.16405254  0.16508568  1
  Ni  Ni11  1  0.33357946  0.99867886  0.33061025  1
  Cr  Cr12  1  0.33375382  0.33374069  0.00154627  1
  Fe  Fe13  1  0.50134560  0.49914418  0.16690327  1
  Cr  Cr14  1  0.33089425  0.33121722  0.33148165  1
  Ni  Ni15  1  0.33404224  0.66663329  -0.00022713  1
  Fe  Fe16  1  0.50123132  0.83416121  0.16526661  1
  Cr  Cr17  1  0.33530182  0.66523153  0.33275765  1
  Ni  Ni18  1  0.66763463  -0.00033747  0.00270134  1
  Ni  Ni19  1  0.83161843  0.16630072  0.16431740  1
  Cr  Cr20  1  0.66600910  0.99812724  0.33220154  1
  Ni  Ni21  1  0.66491583  0.33148517  -0.00040345  1
  Cr  Cr22  1  0.83031652  0.49851340  0.16870615  1
  Ni  Ni23  1  0.66825021  0.33393721  0.33315912  1
  Cr  Cr24  1  0.66491615  0.66542532  0.99720404  1
  Ni  Ni25  1  0.83075521  0.83284945  0.16530714  1
  Ni  Ni26  1  0.66616950  0.66567537  0.33433763  1
  Cr  Cr27  1  0.16442410  0.16583453  0.50188228  1
  Fe  Fe28  1  0.99589481  0.99864019  0.66570536  1
  Cr  Cr29  1  0.16636019  0.16207406  0.82949472  1
  Fe  Fe30  1  0.16413524  0.49775589  0.50064363  1
  Ni  Ni31  1  0.99731378  0.33457266  0.66354157  1
  Cr  Cr32  1  0.16411746  0.50086098  0.83136894  1
  Cr  Cr33  1  0.16667854  0.83212580  0.50077979  1
  Ni  Ni34  1  0.99709019  0.66561313  0.66515087  1
  Fe  Fe35  1  0.16410266  0.83421615  0.83239188  1
  Cr  Cr36  1  0.50110658  0.16533595  0.50191919  1
  Ni  Ni37  1  0.33354997  0.99832740  0.66488725  1
  Cr  Cr38  1  0.50065739  0.16528274  0.83027866  1
  Ni  Ni39  1  0.50299149  0.49963908  0.50023257  1
  Ni  Ni40  1  0.33246543  0.33312614  0.66457896  1
  Fe  Fe41  1  0.50144253  0.49596412  0.83152653  1
  Ni  Ni42  1  0.49955697  0.83118680  0.49766970  1
  Cr  Cr43  1  0.33331183  0.66423998  0.66638817  1
  Cr  Cr44  1  0.49663513  0.83525130  0.83392301  1
  Ni  Ni45  1  0.83227411  0.17029934  0.50073755  1
  Ni  Ni46  1  0.66791482  0.99857104  0.66315273  1
  Cr  Cr47  1  0.83046797  0.16786506  0.83264689  1
  Fe  Fe48  1  0.83216912  0.49755322  0.49874985  1
  Ni  Ni49  1  0.66778272  0.33284486  0.66516070  1
  Ni  Ni50  1  0.83137145  0.49893406  0.83007031  1
  Fe  Fe51  1  0.83051721  0.83258843  0.49909570  1
  Cr  Cr52  1  0.66745999  0.66680575  0.66541491  1
  Fe  Fe53  1  0.83419081  0.83450365  0.83203562  1
" 