5942,Ni42Fe58_13,-242.145111688418, 223.545839738165,Ni42Fe58,"# generated using pymatgen
 data_Fe11Ni16
_symmetry_space_group_name_H-M   'P 1'
_cell_length_a   7.40368493
_cell_length_b   7.40368493
_cell_length_c   10.47039164
_cell_angle_alpha   90.00000000
_cell_angle_beta   90.00000000
_cell_angle_gamma   90.00000000
_symmetry_Int_Tables_number   1
_chemical_formula_structural   Fe11Ni16
_chemical_formula_sum   'Fe22 Ni32'
_cell_volume   573.92981224
_cell_formula_units_Z   2
loop_
 _symmetry_equiv_pos_site_id
 _symmetry_equiv_pos_as_xyz
  1  'x, y, z'
loop_
 _atom_site_type_symbol
 _atom_site_label
 _atom_site_symmetry_multiplicity
 _atom_site_fract_x
 _atom_site_fract_y
 _atom_site_fract_z
 _atom_site_occupancy
  Ni  Ni0  1  1.00383455  1.00300706  1.00339064  1
  Fe  Fe1  1  0.17010956  0.17146175  0.17058402  1
  Ni  Ni2  1  1.00303567  1.00330048  0.33771316  1
  Ni  Ni3  1  1.00420178  0.33854857  1.00384950  1
  Ni  Ni4  1  0.17080898  0.50448532  0.17105898  1
  Fe  Fe5  1  1.00314602  0.33794170  0.33697908  1
  Ni  Ni6  1  1.00385021  0.67127800  0.00456051  1
  Fe  Fe7  1  0.16965747  0.83788313  0.17073624  1
  Fe  Fe8  1  1.00350312  0.67075295  0.33761872  1
  Ni  Ni9  1  0.33764358  0.00488575  0.00467244  1
  Ni  Ni10  1  0.50480049  0.17029662  0.17095798  1
  Fe  Fe11  1  0.33895264  1.00391805  0.33796841  1
  Ni  Ni12  1  0.33833225  0.33773658  1.00401441  1
  Fe  Fe13  1  0.50510917  0.50325516  0.17168023  1
  Ni  Ni14  1  0.33864106  0.33886078  0.33769986  1
  Fe  Fe15  1  0.33666442  0.67108994  1.00426719  1
  Fe  Fe16  1  0.50549492  0.83770049  0.17116960  1
  Ni  Ni17  1  0.33794122  0.66959294  0.33839831  1
  Ni  Ni18  1  0.67135416  0.00453631  1.00389272  1
  Ni  Ni19  1  0.83606269  0.17135631  0.17110001  1
  Ni  Ni20  1  0.67269143  1.00401270  0.33836226  1
  Ni  Ni21  1  0.67030265  0.33771754  0.00435456  1
  Ni  Ni22  1  0.83878099  0.50341557  0.17094605  1
  Ni  Ni23  1  0.66996588  0.33804240  0.33780601  1
  Fe  Fe24  1  0.67174180  0.67101822  0.00461052  1
  Ni  Ni25  1  0.83724495  0.83806395  0.17064942  1
  Ni  Ni26  1  0.67104636  0.67078044  0.33771048  1
  Fe  Fe27  1  0.17030024  0.16972972  0.50464111  1
  Ni  Ni28  1  1.00426541  1.00230383  0.67173892  1
  Fe  Fe29  1  0.17094713  0.17072365  0.83760852  1
  Fe  Fe30  1  0.17067882  0.50511766  0.50428444  1
  Fe  Fe31  1  0.00448200  0.33740796  0.67164659  1
  Ni  Ni32  1  0.17048877  0.50491320  0.83721832  1
  Ni  Ni33  1  0.17274188  0.83726026  0.50398669  1
  Ni  Ni34  1  1.00343546  0.67217898  0.67012016  1
  Ni  Ni35  1  0.17320136  0.83681231  0.83798557  1
  Fe  Fe36  1  0.50483559  0.17047035  0.50364473  1
  Ni  Ni37  1  0.33701339  0.00500917  0.67012018  1
  Fe  Fe38  1  0.50363965  0.17114455  0.83853529  1
  Fe  Fe39  1  0.50499400  0.50491471  0.50356049  1
  Ni  Ni40  1  0.33855832  0.33753197  0.67112369  1
  Fe  Fe41  1  0.50407138  0.50400352  0.83760184  1
  Ni  Ni42  1  0.50274097  0.83830992  0.50353547  1
  Fe  Fe43  1  0.33646871  0.67224084  0.67067262  1
  Ni  Ni44  1  0.50221811  0.83871731  0.83798809  1
  Ni  Ni45  1  0.83700496  0.17186479  0.50349388  1
  Fe  Fe46  1  0.67093312  1.00413919  0.67073235  1
  Ni  Ni47  1  0.83705427  0.17228889  0.83824431  1
  Ni  Ni48  1  0.83804670  0.50300349  0.50365167  1
  Fe  Fe49  1  0.67202677  0.33712466  0.67094386  1
  Ni  Ni50  1  0.83895288  0.50220822  0.83823320  1
  Ni  Ni51  1  0.83735062  0.83796332  0.50500925  1
  Fe  Fe52  1  0.67095600  0.67157465  0.67017037  1
  Fe  Fe53  1  0.83874852  0.83717723  0.83783016  1
" 