2975,Ni42Fe32Cr25_10,-229.905149978107, 192.128407512577,Ni42Fe32Cr25,"# generated using pymatgen
 data_Cr15Fe17Ni22
_symmetry_space_group_name_H-M   'P 1'
_cell_length_a   7.45817849
_cell_length_b   7.45817849
_cell_length_c   10.54745717
_cell_angle_alpha   90.00000000
_cell_angle_beta   90.00000000
_cell_angle_gamma   90.00000000
_symmetry_Int_Tables_number   1
_chemical_formula_structural   Cr15Fe17Ni22
_chemical_formula_sum   'Cr15 Fe17 Ni22'
_cell_volume   586.69625497
_cell_formula_units_Z   1
loop_
 _symmetry_equiv_pos_site_id
 _symmetry_equiv_pos_as_xyz
  1  'x, y, z'
loop_
 _atom_site_type_symbol
 _atom_site_label
 _atom_site_symmetry_multiplicity
 _atom_site_fract_x
 _atom_site_fract_y
 _atom_site_fract_z
 _atom_site_occupancy
  Cr  Cr0  1  0.00068768  0.00260652  0.99865519  1
  Ni  Ni1  1  0.16705960  0.16922097  0.16691494  1
  Fe  Fe2  1  0.99847931  0.99981083  0.33287891  1
  Ni  Ni3  1  0.00165894  0.33475116  0.00216483  1
  Ni  Ni4  1  0.16373229  0.49880660  0.16641267  1
  Ni  Ni5  1  0.99869811  0.33417063  0.33029089  1
  Fe  Fe6  1  0.99837635  0.66488418  1.00025708  1
  Cr  Cr7  1  0.16595471  0.83257629  0.17010070  1
  Ni  Ni8  1  0.99958759  0.66687572  0.33320264  1
  Fe  Fe9  1  0.33393987  0.00272541  0.00142958  1
  Ni  Ni10  1  0.50256665  0.16566845  0.16685349  1
  Fe  Fe11  1  0.33587315  0.00144042  0.33439815  1
  Fe  Fe12  1  0.33208008  0.33328240  0.00104692  1
  Cr  Cr13  1  0.50130715  0.49901937  0.16587050  1
  Cr  Cr14  1  0.33379160  0.33217425  0.33413310  1
  Cr  Cr15  1  0.33452790  0.66695044  0.00059963  1
  Fe  Fe16  1  0.50305234  0.83805443  0.16669738  1
  Cr  Cr17  1  0.33380906  0.67003026  0.33494076  1
  Fe  Fe18  1  0.66738821  0.99998718  0.00352788  1
  Ni  Ni19  1  0.83230715  0.16741925  0.16885807  1
  Ni  Ni20  1  0.66654693  0.00133965  0.33247579  1
  Fe  Fe21  1  0.66867787  0.33535240  0.00102064  1
  Fe  Fe22  1  0.83659405  0.49900063  0.16638683  1
  Ni  Ni23  1  0.66975532  0.33101462  0.33399775  1
  Ni  Ni24  1  0.66861793  0.66756948  0.99986694  1
  Ni  Ni25  1  0.83273704  0.83455645  0.16650076  1
  Cr  Cr26  1  0.66855880  0.66877934  0.33525303  1
  Cr  Cr27  1  0.16725112  0.16565020  0.49968245  1
  Fe  Fe28  1  0.99955532  0.99656075  0.66787574  1
  Fe  Fe29  1  0.16788725  0.16916423  0.83527064  1
  Cr  Cr30  1  0.16682545  0.50348843  0.50011758  1
  Cr  Cr31  1  1.00012545  0.33417944  0.66904504  1
  Ni  Ni32  1  0.16713849  0.50212691  0.83460188  1
  Ni  Ni33  1  0.16576245  0.83227112  0.50034706  1
  Fe  Fe34  1  0.99990643  0.66957094  0.66766467  1
  Ni  Ni35  1  0.16495353  0.83132941  0.83193910  1
  Ni  Ni36  1  0.50380443  0.16713643  0.50045780  1
  Cr  Cr37  1  0.33312682  0.99876546  0.66640336  1
  Cr  Cr38  1  0.50164237  0.16966198  0.83479546  1
  Fe  Fe39  1  0.50277821  0.50040195  0.50315503  1
  Fe  Fe40  1  0.33714820  0.33603264  0.66783984  1
  Ni  Ni41  1  0.50074083  0.49986484  0.83163529  1
  Ni  Ni42  1  0.50167165  0.83506223  0.50030570  1
  Ni  Ni43  1  0.33403810  0.66694446  0.66701219  1
  Cr  Cr44  1  0.50175401  0.83288426  0.83565490  1
  Cr  Cr45  1  0.83082443  0.16636545  0.49908853  1
  Ni  Ni46  1  0.66812837  0.99934614  0.66631790  1
  Cr  Cr47  1  0.83216617  0.16686843  0.83303447  1
  Fe  Fe48  1  0.83258527  0.50196628  0.50048685  1
  Ni  Ni49  1  0.66616024  0.33564203  0.66627398  1
  Ni  Ni50  1  0.83393805  0.50195916  0.83536403  1
  Ni  Ni51  1  0.83427519  0.83369848  0.50249007  1
  Fe  Fe52  1  0.66725526  0.66659387  0.66714794  1
  Fe  Fe53  1  0.83429908  0.83050501  0.83336533  1
" 