3740,Ni42Fe58_7,-242.60479992254, 227.54446229817,Ni42Fe58,"# generated using pymatgen
 data_Fe11Ni16
_symmetry_space_group_name_H-M   'P 1'
_cell_length_a   7.40433360
_cell_length_b   7.40433360
_cell_length_c   10.47130900
_cell_angle_alpha   90.00000000
_cell_angle_beta   90.00000000
_cell_angle_gamma   90.00000000
_symmetry_Int_Tables_number   1
_chemical_formula_structural   Fe11Ni16
_chemical_formula_sum   'Fe22 Ni32'
_cell_volume   574.08067897
_cell_formula_units_Z   2
loop_
 _symmetry_equiv_pos_site_id
 _symmetry_equiv_pos_as_xyz
  1  'x, y, z'
loop_
 _atom_site_type_symbol
 _atom_site_label
 _atom_site_symmetry_multiplicity
 _atom_site_fract_x
 _atom_site_fract_y
 _atom_site_fract_z
 _atom_site_occupancy
  Fe  Fe0  1  0.00499604  0.00423859  0.00456550  1
  Fe  Fe1  1  0.16955541  0.16995901  0.17036960  1
  Ni  Ni2  1  1.00335938  0.00462414  0.33673396  1
  Ni  Ni3  1  0.00448309  0.33838060  1.00423027  1
  Fe  Fe4  1  0.16989030  0.50542457  0.17043809  1
  Ni  Ni5  1  1.00323316  0.33684167  0.33785954  1
  Ni  Ni6  1  0.00448743  0.67007998  0.00496728  1
  Ni  Ni7  1  0.17195415  0.83745951  0.17108427  1
  Fe  Fe8  1  1.00403255  0.67060410  0.33724542  1
  Ni  Ni9  1  0.33959165  1.00384718  1.00423256  1
  Fe  Fe10  1  0.50543037  0.16988982  0.16989307  1
  Fe  Fe11  1  0.33724200  1.00411976  0.33670857  1
  Ni  Ni12  1  0.33697791  0.33785172  0.00563252  1
  Fe  Fe13  1  0.50486010  0.50526876  0.17186348  1
  Fe  Fe14  1  0.33710775  0.33798698  0.33845310  1
  Ni  Ni15  1  0.33737395  0.67100755  1.00322677  1
  Ni  Ni16  1  0.50348518  0.83784297  0.17158070  1
  Ni  Ni17  1  0.33838418  0.67122120  0.33781289  1
  Ni  Ni18  1  0.67032869  1.00385363  0.00495742  1
  Ni  Ni19  1  0.83805176  0.17165108  0.17064850  1
  Fe  Fe20  1  0.67161850  1.00416830  0.33731778  1
  Fe  Fe21  1  0.67101071  0.33738707  0.00493675  1
  Ni  Ni22  1  0.83844000  0.50319098  0.17192770  1
  Ni  Ni23  1  0.67147123  0.33737281  0.33796926  1
  Fe  Fe24  1  0.67076506  0.67131530  1.00378533  1
  Ni  Ni25  1  0.83727340  0.83785861  0.17090807  1
  Fe  Fe26  1  0.67133027  0.67073071  0.33827272  1
  Fe  Fe27  1  0.17078748  0.17105511  0.50493278  1
  Ni  Ni28  1  1.00275425  1.00423096  0.67211921  1
  Ni  Ni29  1  0.17124136  0.17280887  0.83778178  1
  Ni  Ni30  1  0.17147223  0.50280672  0.50350041  1
  Ni  Ni31  1  0.00539941  0.33766865  0.67060587  1
  Ni  Ni32  1  0.17031645  0.50267640  0.83788889  1
  Fe  Fe33  1  0.17102576  0.83654970  0.50327655  1
  Ni  Ni34  1  1.00355039  0.67080416  0.66987856  1
  Fe  Fe35  1  0.17010642  0.83785843  0.83851481  1
  Fe  Fe36  1  0.50439377  0.17130273  0.50493577  1
  Fe  Fe37  1  0.33757960  0.00433561  0.67183782  1
  Ni  Ni38  1  0.50343283  0.16979285  0.83727914  1
  Ni  Ni39  1  0.50255635  0.50451177  0.50462366  1
  Ni  Ni40  1  0.33707160  0.33806062  0.67038475  1
  Fe  Fe41  1  0.50421184  0.50352252  0.83693982  1
  Ni  Ni42  1  0.50514553  0.83739937  0.50384063  1
  Fe  Fe43  1  0.33733399  0.67063890  0.67016884  1
  Ni  Ni44  1  0.50473970  0.83855319  0.83727092  1
  Fe  Fe45  1  0.83751930  0.17087213  0.50382814  1
  Ni  Ni46  1  0.67116668  1.00293437  0.66999652  1
  Ni  Ni47  1  0.83803800  0.17108393  0.83733313  1
  Fe  Fe48  1  0.83710132  0.50502002  0.50431303  1
  Fe  Fe49  1  0.67189850  0.33756581  0.67059403  1
  Ni  Ni50  1  0.83938119  0.50399224  0.83653972  1
  Ni  Ni51  1  0.83660621  0.83832898  0.50335240  1
  Ni  Ni52  1  0.67077360  0.67250737  0.67088645  1
  Ni  Ni53  1  0.83634950  0.83762945  0.83844270  1
" 