3547,Ni42Fe37Cr20_7,-231.632077842553, 195.544199630734,Ni42Fe37Cr20,"# generated using pymatgen
 data_Cr6Fe10Ni11
_symmetry_space_group_name_H-M   'P 1'
_cell_length_a   7.44749931
_cell_length_b   7.44749931
_cell_length_c   10.53235453
_cell_angle_alpha   90.00000000
_cell_angle_beta   90.00000000
_cell_angle_gamma   90.00000000
_symmetry_Int_Tables_number   1
_chemical_formula_structural   Cr6Fe10Ni11
_chemical_formula_sum   'Cr12 Fe20 Ni22'
_cell_volume   584.17963520
_cell_formula_units_Z   2
loop_
 _symmetry_equiv_pos_site_id
 _symmetry_equiv_pos_as_xyz
  1  'x, y, z'
loop_
 _atom_site_type_symbol
 _atom_site_label
 _atom_site_symmetry_multiplicity
 _atom_site_fract_x
 _atom_site_fract_y
 _atom_site_fract_z
 _atom_site_occupancy
  Fe  Fe0  1  1.00075203  0.99746543  0.00176214  1
  Ni  Ni1  1  0.16753378  0.16517365  0.16789139  1
  Fe  Fe2  1  0.99953855  0.00314990  0.33323413  1
  Cr  Cr3  1  0.00341664  0.33690364  0.00307731  1
  Cr  Cr4  1  0.17186228  0.50205147  0.16950043  1
  Fe  Fe5  1  1.00069318  0.33103957  0.33241414  1
  Ni  Ni6  1  1.00049488  0.67013749  0.00146803  1
  Ni  Ni7  1  0.16926638  0.83694568  0.16708196  1
  Cr  Cr8  1  0.99926711  0.66755679  0.33090776  1
  Fe  Fe9  1  0.33410071  0.99813599  1.00124164  1
  Fe  Fe10  1  0.50060176  0.16689542  0.16687148  1
  Ni  Ni11  1  0.33465312  0.00462038  0.33181696  1
  Fe  Fe12  1  0.33805614  0.33510024  0.00161358  1
  Ni  Ni13  1  0.50123095  0.50167700  0.16552139  1
  Ni  Ni14  1  0.33333102  0.33208612  0.33411752  1
  Ni  Ni15  1  0.33487962  0.66843509  0.00154622  1
  Fe  Fe16  1  0.50133830  0.83593832  0.16640263  1
  Fe  Fe17  1  0.33798353  0.66742274  0.33190578  1
  Ni  Ni18  1  0.66559051  1.00040742  0.00253432  1
  Ni  Ni19  1  0.83385604  0.16555345  0.16733902  1
  Ni  Ni20  1  0.66762632  0.00242241  0.33470493  1
  Fe  Fe21  1  0.66629798  0.33704560  0.00279694  1
  Ni  Ni22  1  0.83221543  0.49996206  0.16444415  1
  Cr  Cr23  1  0.66679390  0.33522044  0.33203295  1
  Ni  Ni24  1  0.66877819  0.67027229  0.00273847  1
  Ni  Ni25  1  0.83495686  0.83844715  0.16522095  1
  Cr  Cr26  1  0.67081738  0.67000311  0.33082577  1
  Fe  Fe27  1  0.16763172  0.16896273  0.49792989  1
  Cr  Cr28  1  0.00294375  0.99909378  0.66956540  1
  Fe  Fe29  1  0.16895267  0.16542786  0.83921335  1
  Fe  Fe30  1  0.16637534  0.49990504  0.50041713  1
  Fe  Fe31  1  0.99850591  0.33628988  0.66803421  1
  Fe  Fe32  1  0.16750738  0.50494619  0.83605394  1
  Cr  Cr33  1  0.16935470  0.83233412  0.49921860  1
  Ni  Ni34  1  1.00032223  0.66573314  0.67029656  1
  Ni  Ni35  1  0.16904195  0.83170730  0.83703497  1
  Fe  Fe36  1  0.50233166  0.16831928  0.49913847  1
  Cr  Cr37  1  0.33519846  0.00215902  0.67114607  1
  Fe  Fe38  1  0.50197501  0.16590900  0.83829621  1
  Ni  Ni39  1  0.49861243  0.49917204  0.50271373  1
  Cr  Cr40  1  0.33365053  0.33255480  0.67041905  1
  Fe  Fe41  1  0.50366191  0.50388028  0.83622249  1
  Cr  Cr42  1  0.50133525  0.82966861  0.50014975  1
  Fe  Fe43  1  0.33589044  0.66616575  0.67115020  1
  Ni  Ni44  1  0.50099854  0.83159470  0.83578596  1
  Ni  Ni45  1  0.83571489  0.17138101  0.50072743  1
  Cr  Cr46  1  0.66661926  1.00079950  0.66597494  1
  Cr  Cr47  1  0.83343299  0.16997407  0.83617956  1
  Fe  Fe48  1  0.83335783  0.50317590  0.50298369  1
  Ni  Ni49  1  0.66651414  0.33791572  0.66831090  1
  Fe  Fe50  1  0.83357783  0.50622380  0.83595980  1
  Ni  Ni51  1  0.83575199  0.83739201  0.50240305  1
  Ni  Ni52  1  0.67154546  0.66580073  0.66869756  1
  Ni  Ni53  1  0.83413310  0.83431489  0.83583506  1
" 