4719,Ni42Fe37Cr20_1,-231.866752342308, 193.996809162449,Ni42Fe37Cr20,"# generated using pymatgen
 data_Cr6Fe10Ni11
_symmetry_space_group_name_H-M   'P 1'
_cell_length_a   7.44374111
_cell_length_b   7.44374111
_cell_length_c   10.52703963
_cell_angle_alpha   90.00000000
_cell_angle_beta   90.00000000
_cell_angle_gamma   90.00000000
_symmetry_Int_Tables_number   1
_chemical_formula_structural   Cr6Fe10Ni11
_chemical_formula_sum   'Cr12 Fe20 Ni22'
_cell_volume   583.29570450
_cell_formula_units_Z   2
loop_
 _symmetry_equiv_pos_site_id
 _symmetry_equiv_pos_as_xyz
  1  'x, y, z'
loop_
 _atom_site_type_symbol
 _atom_site_label
 _atom_site_symmetry_multiplicity
 _atom_site_fract_x
 _atom_site_fract_y
 _atom_site_fract_z
 _atom_site_occupancy
  Ni  Ni0  1  0.00328166  0.00217997  1.00138770  1
  Cr  Cr1  1  0.16740047  0.16823780  0.16885348  1
  Ni  Ni2  1  0.00225582  0.00321745  0.33650897  1
  Ni  Ni3  1  0.00231836  0.33637007  0.00205754  1
  Ni  Ni4  1  0.16712311  0.50278085  0.16816278  1
  Ni  Ni5  1  1.00151235  0.33508779  0.33478156  1
  Fe  Fe6  1  0.00284766  0.66674334  0.00189979  1
  Ni  Ni7  1  0.17013670  0.83352589  0.16752303  1
  Fe  Fe8  1  1.00020761  0.66784504  0.33379909  1
  Fe  Fe9  1  0.33546983  1.00076394  1.00150674  1
  Fe  Fe10  1  0.50201882  0.16478109  0.16810589  1
  Ni  Ni11  1  0.33526853  0.99899880  0.33370375  1
  Fe  Fe12  1  0.33318767  0.33449023  1.00013377  1
  Cr  Cr13  1  0.49995800  0.50287985  0.16922644  1
  Fe  Fe14  1  0.33278750  0.33335044  0.33402864  1
  Ni  Ni15  1  0.33386572  0.66985727  1.00095270  1
  Ni  Ni16  1  0.49997123  0.83624898  0.16813735  1
  Fe  Fe17  1  0.33506394  0.67103087  0.33262163  1
  Ni  Ni18  1  0.66591444  1.00108407  0.00307207  1
  Ni  Ni19  1  0.83530218  0.16789761  0.16765177  1
  Ni  Ni20  1  0.66714713  0.99917200  0.33507101  1
  Cr  Cr21  1  0.67032332  0.33457191  0.00198503  1
  Ni  Ni22  1  0.83803895  0.50095733  0.16796428  1
  Cr  Cr23  1  0.67214934  0.33490656  0.33425928  1
  Fe  Fe24  1  0.66825925  0.66902582  1.00147831  1
  Cr  Cr25  1  0.83482711  0.83613167  0.16825846  1
  Ni  Ni26  1  0.66758393  0.67023037  0.33576548  1
  Fe  Fe27  1  0.16616018  0.16847946  0.50091255  1
  Fe  Fe28  1  1.00094632  0.00317817  0.66735560  1
  Fe  Fe29  1  0.16856897  0.16887196  0.83520411  1
  Cr  Cr30  1  0.16720048  0.50047876  0.50010863  1
  Ni  Ni31  1  1.00142382  0.33496848  0.66784180  1
  Fe  Fe32  1  0.16775896  0.50080303  0.83542650  1
  Cr  Cr33  1  0.16829755  0.83584020  0.50086617  1
  Fe  Fe34  1  1.00080961  0.66648790  0.66896147  1
  Fe  Fe35  1  0.16932592  0.83505839  0.83566435  1
  Cr  Cr36  1  0.50228058  0.16641147  0.50129716  1
  Fe  Fe37  1  0.33604636  0.00231925  0.66904655  1
  Ni  Ni38  1  0.49924150  0.16778035  0.83450040  1
  Cr  Cr39  1  0.50157174  0.50251337  0.50164430  1
  Fe  Fe40  1  0.33524433  0.33361636  0.67053835  1
  Fe  Fe41  1  0.50102765  0.50098748  0.83487009  1
  Ni  Ni42  1  0.50205696  0.83621213  0.50099104  1
  Fe  Fe43  1  0.33479173  0.66877416  0.67047213  1
  Fe  Fe44  1  0.50063597  0.83602014  0.83576772  1
  Ni  Ni45  1  0.83645422  0.16750668  0.50297944  1
  Ni  Ni46  1  0.66654359  0.00220799  0.66656180  1
  Cr  Cr47  1  0.83437664  0.16855995  0.83457759  1
  Ni  Ni48  1  0.83655895  0.50052181  0.50186712  1
  Ni  Ni49  1  0.67011622  0.33457439  0.66891890  1
  Ni  Ni50  1  0.83667393  0.50149605  0.83488612  1
  Fe  Fe51  1  0.83297366  0.83587552  0.50054942  1
  Cr  Cr52  1  0.66739990  0.66781380  0.66790190  1
  Cr  Cr53  1  0.83583113  0.83481326  0.83592978  1
" 