6096,Ni42Fe32Cr25_0,-229.601297853998, 185.374291443083,Ni42Fe32Cr25,"# generated using pymatgen
 data_Cr15Fe17Ni22
_symmetry_space_group_name_H-M   'P 1'
_cell_length_a   7.45748157
_cell_length_b   7.45748157
_cell_length_c   10.54647158
_cell_angle_alpha   90.00000000
_cell_angle_beta   90.00000000
_cell_angle_gamma   90.00000000
_symmetry_Int_Tables_number   1
_chemical_formula_structural   Cr15Fe17Ni22
_chemical_formula_sum   'Cr15 Fe17 Ni22'
_cell_volume   586.53180185
_cell_formula_units_Z   1
loop_
 _symmetry_equiv_pos_site_id
 _symmetry_equiv_pos_as_xyz
  1  'x, y, z'
loop_
 _atom_site_type_symbol
 _atom_site_label
 _atom_site_symmetry_multiplicity
 _atom_site_fract_x
 _atom_site_fract_y
 _atom_site_fract_z
 _atom_site_occupancy
  Ni  Ni0  1  0.99950939  0.00175964  0.99663179  1
  Cr  Cr1  1  0.16605662  0.16774909  0.16745815  1
  Fe  Fe2  1  1.00057649  0.00155767  0.33750568  1
  Ni  Ni3  1  0.00230930  0.33327797  0.99981014  1
  Fe  Fe4  1  0.17008437  0.49931838  0.16663926  1
  Fe  Fe5  1  0.00191928  0.33179767  0.33634834  1
  Cr  Cr6  1  0.99889548  0.66854967  0.99749630  1
  Cr  Cr7  1  0.16911612  0.83514874  0.16716501  1
  Cr  Cr8  1  1.00039290  0.66688329  0.33537491  1
  Cr  Cr9  1  0.33517571  0.00467271  0.99910622  1
  Ni  Ni10  1  0.49990617  0.16850190  0.16772769  1
  Ni  Ni11  1  0.33557229  0.00336515  0.33592570  1
  Ni  Ni12  1  0.33635742  0.33416523  0.00087875  1
  Ni  Ni13  1  0.49858367  0.50050311  0.16590755  1
  Ni  Ni14  1  0.33313444  0.33320688  0.33434073  1
  Fe  Fe15  1  0.33497366  0.66611992  1.00020825  1
  Cr  Cr16  1  0.50124735  0.83378656  0.16836598  1
  Fe  Fe17  1  0.33719535  0.66614187  0.33573763  1
  Ni  Ni18  1  0.66743601  0.00119378  0.99982153  1
  Cr  Cr19  1  0.83398279  0.16603381  0.16809666  1
  Ni  Ni20  1  0.66475236  1.00012804  0.33616591  1
  Fe  Fe21  1  0.66616755  0.33201542  0.99966375  1
  Cr  Cr22  1  0.83278027  0.49849417  0.16620878  1
  Cr  Cr23  1  0.66314956  0.33267518  0.33390576  1
  Ni  Ni24  1  0.66720939  0.66597008  0.99983773  1
  Cr  Cr25  1  0.83217354  0.83680384  0.16712446  1
  Ni  Ni26  1  0.66694955  0.66834134  0.33499242  1
  Ni  Ni27  1  0.16918314  0.16682130  0.50094426  1
  Ni  Ni28  1  0.00121622  1.00039489  0.66764497  1
  Fe  Fe29  1  0.16598623  0.16641935  0.83283995  1
  Fe  Fe30  1  0.16973660  0.49863514  0.50102141  1
  Cr  Cr31  1  0.00126562  0.33176300  0.66673908  1
  Cr  Cr32  1  0.17044494  0.49909167  0.83397906  1
  Fe  Fe33  1  0.16738088  0.83761957  0.50169252  1
  Cr  Cr34  1  0.99731495  0.67066571  0.66919854  1
  Ni  Ni35  1  0.16847609  0.83658725  0.83201731  1
  Fe  Fe36  1  0.50046383  0.16593859  0.50077040  1
  Ni  Ni37  1  0.33399375  0.00365417  0.66679541  1
  Fe  Fe38  1  0.50185030  0.16892839  0.83346248  1
  Fe  Fe39  1  0.49883771  0.50083417  0.50100296  1
  Ni  Ni40  1  0.33765597  0.33139637  0.66638152  1
  Fe  Fe41  1  0.50321763  0.49934335  0.83394214  1
  Fe  Fe42  1  0.50129780  0.83547690  0.50133156  1
  Fe  Fe43  1  0.33395126  0.66810299  0.66578240  1
  Cr  Cr44  1  0.50015978  0.83291434  0.83314703  1
  Ni  Ni45  1  0.83516728  0.16419686  0.50029304  1
  Fe  Fe46  1  0.66912499  0.00175255  0.66701626  1
  Ni  Ni47  1  0.83370406  0.16729261  0.83450545  1
  Cr  Cr48  1  0.83125352  0.49904978  0.50158345  1
  Fe  Fe49  1  0.66633842  0.33145115  0.66785669  1
  Ni  Ni50  1  0.83079728  0.49812323  0.83432557  1
  Ni  Ni51  1  0.83126342  0.83644010  0.50118594  1
  Ni  Ni52  1  0.66686449  0.66735412  0.66694346  1
  Ni  Ni53  1  0.83208087  0.83622540  0.83378613  1
" 