7812,Ni42Fe22Cr34_11,-225.980351890819, 180.006976562356,Ni42Fe22Cr34,"# generated using pymatgen
 data_Cr10Fe6Ni11
_symmetry_space_group_name_H-M   'P 1'
_cell_length_a   7.47393518
_cell_length_b   7.47393518
_cell_length_c   10.56974049
_cell_angle_alpha   90.00000000
_cell_angle_beta   90.00000000
_cell_angle_gamma   90.00000000
_symmetry_Int_Tables_number   1
_chemical_formula_structural   Cr10Fe6Ni11
_chemical_formula_sum   'Cr20 Fe12 Ni22'
_cell_volume   590.42260688
_cell_formula_units_Z   2
loop_
 _symmetry_equiv_pos_site_id
 _symmetry_equiv_pos_as_xyz
  1  'x, y, z'
loop_
 _atom_site_type_symbol
 _atom_site_label
 _atom_site_symmetry_multiplicity
 _atom_site_fract_x
 _atom_site_fract_y
 _atom_site_fract_z
 _atom_site_occupancy
  Ni  Ni0  1  0.99635140  0.00039643  0.00086720  1
  Ni  Ni1  1  0.16578045  0.16686986  0.16569411  1
  Fe  Fe2  1  0.99685163  0.00002235  0.33187578  1
  Ni  Ni3  1  0.99741707  0.33212813  0.00050909  1
  Ni  Ni4  1  0.16715485  0.49838699  0.16500854  1
  Cr  Cr5  1  -0.00024554  0.33065308  0.33075627  1
  Ni  Ni6  1  0.99865735  0.66614504  0.99843714  1
  Cr  Cr7  1  0.16586998  0.83291466  0.16633653  1
  Cr  Cr8  1  -0.00012174  0.66817994  0.33528572  1
  Ni  Ni9  1  0.33337020  -0.00035368  0.00114015  1
  Fe  Fe10  1  0.49994635  0.16492832  0.16654645  1
  Fe  Fe11  1  0.33443603  0.00172082  0.33220987  1
  Cr  Cr12  1  0.33331031  0.33431417  0.00127640  1
  Fe  Fe13  1  0.49810954  0.49913295  0.16673096  1
  Ni  Ni14  1  0.33383931  0.33359732  0.33197493  1
  Ni  Ni15  1  0.33347079  0.66467712  0.00091064  1
  Cr  Cr16  1  0.50183752  0.83333886  0.16485144  1
  Ni  Ni17  1  0.33236990  0.66360906  0.33211235  1
  Ni  Ni18  1  0.66893781  0.00057808  -0.00010551  1
  Ni  Ni19  1  0.83285170  0.16397736  0.16419394  1
  Ni  Ni20  1  0.66857272  0.00107890  0.33301990  1
  Fe  Fe21  1  0.66778419  0.33216878  0.99829495  1
  Cr  Cr22  1  0.83364468  0.50009505  0.16428737  1
  Cr  Cr23  1  0.66464318  0.32980715  0.33343234  1
  Fe  Fe24  1  0.66790549  0.66620226  0.99825799  1
  Ni  Ni25  1  0.83190107  0.83571968  0.16429306  1
  Cr  Cr26  1  0.66544345  0.66758425  0.33355116  1
  Cr  Cr27  1  0.16824418  0.16605059  0.49924253  1
  Cr  Cr28  1  0.99823041  0.99809430  0.66606992  1
  Cr  Cr29  1  0.16593724  0.16555120  0.83363726  1
  Cr  Cr30  1  0.16615748  0.49932780  0.50029488  1
  Cr  Cr31  1  0.99577794  0.33258021  0.66683197  1
  Cr  Cr32  1  0.16386537  0.49899064  0.83369220  1
  Fe  Fe33  1  0.16706422  0.83431086  0.49884432  1
  Fe  Fe34  1  0.99499217  0.66727041  0.66615930  1
  Cr  Cr35  1  0.16617251  0.83409985  0.83423197  1
  Ni  Ni36  1  0.50033358  0.16747082  0.49945797  1
  Ni  Ni37  1  0.33292956  -0.00022498  0.66422532  1
  Cr  Cr38  1  0.50006601  0.16618470  0.83109704  1
  Ni  Ni39  1  0.49958237  0.49797897  0.50020521  1
  Fe  Fe40  1  0.33771936  0.33251546  0.66532935  1
  Ni  Ni41  1  0.50418190  0.49986199  0.83336389  1
  Cr  Cr42  1  0.50017946  0.83387750  0.49854236  1
  Cr  Cr43  1  0.33423547  0.66608387  0.66669719  1
  Cr  Cr44  1  0.50086610  0.83279038  0.83533035  1
  Ni  Ni45  1  0.83111376  0.16435900  0.49905217  1
  Cr  Cr46  1  0.66716831  0.00021944  0.66594587  1
  Fe  Fe47  1  0.83154586  0.16863558  0.83534957  1
  Fe  Fe48  1  0.82936477  0.49896243  0.50153073  1
  Ni  Ni49  1  0.66602567  0.33495317  0.66502525  1
  Ni  Ni50  1  0.83064364  0.50014586  0.83241709  1
  Ni  Ni51  1  0.83287813  0.83323980  0.49976254  1
  Ni  Ni52  1  0.66754063  0.66340401  0.66622894  1
  Fe  Fe53  1  0.83221252  0.83051148  0.83480433  1
" 