4140,Ni42Fe26Cr30_2,-228.310609425245, 180.16240118836,Ni42Fe26Cr30,"# generated using pymatgen
 data_Cr17Fe14Ni23
_symmetry_space_group_name_H-M   'P 1'
_cell_length_a   7.46921404
_cell_length_b   7.46921404
_cell_length_c   10.56306379
_cell_angle_alpha   90.00000000
_cell_angle_beta   90.00000000
_cell_angle_gamma   90.00000000
_symmetry_Int_Tables_number   1
_chemical_formula_structural   Cr17Fe14Ni23
_chemical_formula_sum   'Cr17 Fe14 Ni23'
_cell_volume   589.30443870
_cell_formula_units_Z   1
loop_
 _symmetry_equiv_pos_site_id
 _symmetry_equiv_pos_as_xyz
  1  'x, y, z'
loop_
 _atom_site_type_symbol
 _atom_site_label
 _atom_site_symmetry_multiplicity
 _atom_site_fract_x
 _atom_site_fract_y
 _atom_site_fract_z
 _atom_site_occupancy
  Fe  Fe0  1  0.00072286  0.99874162  0.99896907  1
  Cr  Cr1  1  0.16702617  0.16444123  0.16682215  1
  Cr  Cr2  1  0.00076001  0.99947415  0.33469759  1
  Cr  Cr3  1  0.99758372  0.33315876  0.99816474  1
  Cr  Cr4  1  0.16907548  0.50274014  0.16854198  1
  Cr  Cr5  1  0.99901241  0.33358311  0.33405915  1
  Cr  Cr6  1  0.00212909  0.66643695  0.00021942  1
  Ni  Ni7  1  0.16921121  0.83219562  0.16780169  1
  Fe  Fe8  1  0.00021659  0.66736887  0.33441824  1
  Cr  Cr9  1  0.33418848  0.99598576  0.00085980  1
  Fe  Fe10  1  0.50133036  0.16752707  0.16769042  1
  Fe  Fe11  1  0.33402358  0.99716845  0.33360558  1
  Cr  Cr12  1  0.33481860  0.33548095  0.99857912  1
  Ni  Ni13  1  0.50189964  0.50097834  0.16779140  1
  Fe  Fe14  1  0.33596077  0.33524319  0.33452136  1
  Ni  Ni15  1  0.33477216  0.66778143  0.99852776  1
  Ni  Ni16  1  0.49804416  0.82931189  0.16674123  1
  Ni  Ni17  1  0.33433849  0.66775822  0.33368015  1
  Cr  Cr18  1  0.66543473  0.00050292  0.99954433  1
  Ni  Ni19  1  0.83087609  0.16861792  0.16532061  1
  Cr  Cr20  1  0.66512557  0.00010795  0.33437973  1
  Fe  Fe21  1  0.66499635  0.33538156  0.00031471  1
  Fe  Fe22  1  0.82897305  0.49964394  0.16791244  1
  Ni  Ni23  1  0.66614602  0.33426558  0.32959371  1
  Fe  Fe24  1  0.66275515  0.66468117  0.99901216  1
  Cr  Cr25  1  0.83328636  0.83209233  0.16677721  1
  Ni  Ni26  1  0.66288729  0.66553575  0.33270212  1
  Ni  Ni27  1  0.16648354  0.16825740  0.50278307  1
  Fe  Fe28  1  0.00214538  0.00100393  0.66592409  1
  Fe  Fe29  1  0.16792785  0.16517905  0.82995812  1
  Ni  Ni30  1  0.16960563  0.49871019  0.50004099  1
  Ni  Ni31  1  0.00316364  0.33094307  0.66733779  1
  Ni  Ni32  1  0.16872012  0.49965991  0.83110184  1
  Fe  Fe33  1  0.16861643  0.83356733  0.50005270  1
  Cr  Cr34  1  0.00250970  0.66560315  0.66519878  1
  Ni  Ni35  1  0.16655418  0.83302688  0.83280910  1
  Cr  Cr36  1  0.49750199  0.16740940  0.49827387  1
  Ni  Ni37  1  0.33192523  0.99889292  0.66702303  1
  Ni  Ni38  1  0.49930441  0.16799531  0.83306899  1
  Fe  Fe39  1  0.49702434  0.50139177  0.49823173  1
  Ni  Ni40  1  0.32932381  0.33377441  0.66693776  1
  Ni  Ni41  1  0.49754578  0.50002260  0.83312103  1
  Ni  Ni42  1  0.49840127  0.83087425  0.49960516  1
  Ni  Ni43  1  0.33222456  0.66688723  0.66752791  1
  Ni  Ni44  1  0.49875048  0.83163108  0.83336270  1
  Ni  Ni45  1  0.83611073  0.16569354  0.50130404  1
  Cr  Cr46  1  0.66611555  0.99831116  0.66558100  1
  Fe  Fe47  1  0.83412962  0.16592447  0.83293611  1
  Cr  Cr48  1  0.83305285  0.50042799  0.49739876  1
  Cr  Cr49  1  0.66687848  0.33248548  0.66788107  1
  Fe  Fe50  1  0.83226995  0.50072341  0.83322270  1
  Ni  Ni51  1  0.83277174  0.83387167  0.49891524  1
  Cr  Cr52  1  0.66323691  0.66892661  0.66741928  1
  Ni  Ni53  1  0.83428015  0.83476963  0.83390398  1
" 