1110,Ni42Fe26Cr30_13,-229.137691556653, 191.825789935495,Ni42Fe26Cr30,"# generated using pymatgen
 data_Cr17Fe14Ni23
_symmetry_space_group_name_H-M   'P 1'
_cell_length_a   7.46404028
_cell_length_b   7.46404028
_cell_length_c   10.55574699
_cell_angle_alpha   90.00000000
_cell_angle_beta   90.00000000
_cell_angle_gamma   90.00000000
_symmetry_Int_Tables_number   1
_chemical_formula_structural   Cr17Fe14Ni23
_chemical_formula_sum   'Cr17 Fe14 Ni23'
_cell_volume   588.08069190
_cell_formula_units_Z   1
loop_
 _symmetry_equiv_pos_site_id
 _symmetry_equiv_pos_as_xyz
  1  'x, y, z'
loop_
 _atom_site_type_symbol
 _atom_site_label
 _atom_site_symmetry_multiplicity
 _atom_site_fract_x
 _atom_site_fract_y
 _atom_site_fract_z
 _atom_site_occupancy
  Ni  Ni0  1  0.99998517  0.00069719  0.99822812  1
  Cr  Cr1  1  0.16842499  0.16605500  0.16792159  1
  Cr  Cr2  1  0.99950844  0.99931756  0.33603641  1
  Cr  Cr3  1  0.99776319  0.33351095  0.99753347  1
  Cr  Cr4  1  0.16424936  0.50204045  0.16693649  1
  Fe  Fe5  1  0.99946315  0.33626754  0.33452232  1
  Ni  Ni6  1  0.99823600  0.66651733  0.99842946  1
  Cr  Cr7  1  0.16651467  0.83309076  0.16522467  1
  Ni  Ni8  1  0.99929578  0.66517376  0.33582075  1
  Ni  Ni9  1  0.33476356  0.99933696  0.99881927  1
  Cr  Cr10  1  0.50043747  0.16629581  0.16652181  1
  Ni  Ni11  1  0.33372370  0.99887511  0.33478111  1
  Cr  Cr12  1  0.33498761  0.33429634  0.99651416  1
  Fe  Fe13  1  0.50020907  0.50055863  0.16575310  1
  Fe  Fe14  1  0.33306351  0.33549648  0.33535084  1
  Fe  Fe15  1  0.33343724  0.66644689  0.99788087  1
  Fe  Fe16  1  0.49883257  0.83312510  0.16618343  1
  Cr  Cr17  1  0.33427739  0.66776258  0.33542642  1
  Fe  Fe18  1  0.66764972  0.00178821  0.99803946  1
  Fe  Fe19  1  0.83442186  0.16769481  0.16458187  1
  Cr  Cr20  1  0.66771568  0.99876219  0.33487204  1
  Ni  Ni21  1  0.66726277  0.33418761  0.99968701  1
  Ni  Ni22  1  0.83337475  0.50053776  0.16677529  1
  Cr  Cr23  1  0.66910162  0.33559586  0.33241461  1
  Cr  Cr24  1  0.66602630  0.66388695  0.99968959  1
  Cr  Cr25  1  0.83480260  0.83178840  0.16460917  1
  Cr  Cr26  1  0.66794313  0.66615031  0.33525693  1
  Cr  Cr27  1  0.16766017  0.16903998  0.50004963  1
  Ni  Ni28  1  0.99752656  1.00011492  0.66700913  1
  Ni  Ni29  1  0.16712292  0.16614205  0.83314540  1
  Ni  Ni30  1  0.16547309  0.50153279  0.50118469  1
  Fe  Fe31  1  0.00179174  0.33479446  0.66894882  1
  Ni  Ni32  1  0.16618498  0.50169626  0.83184287  1
  Ni  Ni33  1  0.16538035  0.83135490  0.50003363  1
  Ni  Ni34  1  0.99949563  0.66666759  0.66581836  1
  Cr  Cr35  1  0.16461751  0.83169658  0.83502173  1
  Cr  Cr36  1  0.50098617  0.16856871  0.50160051  1
  Cr  Cr37  1  0.33160911  0.99913784  0.66694724  1
  Ni  Ni38  1  0.50244598  0.16702538  0.83342399  1
  Ni  Ni39  1  0.50079174  0.50017891  0.50189194  1
  Ni  Ni40  1  0.33470037  0.33659346  0.66836347  1
  Ni  Ni41  1  0.50185740  0.49918278  0.83254725  1
  Ni  Ni42  1  0.50094443  0.83280961  0.50120839  1
  Ni  Ni43  1  0.33400829  0.66390218  0.66629576  1
  Fe  Fe44  1  0.50086032  0.83293836  0.83259762  1
  Fe  Fe45  1  0.83370633  0.16823718  0.50375192  1
  Fe  Fe46  1  0.66783690  0.99860432  0.66733954  1
  Ni  Ni47  1  0.83109202  0.16619540  0.83355844  1
  Ni  Ni48  1  0.83467385  0.50160566  0.50127834  1
  Fe  Fe49  1  0.66793715  0.33559127  0.66882865  1
  Ni  Ni50  1  0.83286652  0.50110294  0.83269964  1
  Ni  Ni51  1  0.83422624  0.83149207  0.50302540  1
  Fe  Fe52  1  0.66624012  0.66616557  0.66630001  1
  Fe  Fe53  1  0.83337136  0.83325086  0.83235591  1
" 