5078,Ni42Fe37Cr20_8,-232.129974488679, 200.909025430593,Ni42Fe37Cr20,"# generated using pymatgen
 data_Cr6Fe10Ni11
_symmetry_space_group_name_H-M   'P 1'
_cell_length_a   7.44152497
_cell_length_b   7.44152497
_cell_length_c   10.52390553
_cell_angle_alpha   90.00000000
_cell_angle_beta   90.00000000
_cell_angle_gamma   90.00000000
_symmetry_Int_Tables_number   1
_chemical_formula_structural   Cr6Fe10Ni11
_chemical_formula_sum   'Cr12 Fe20 Ni22'
_cell_volume   582.77488472
_cell_formula_units_Z   2
loop_
 _symmetry_equiv_pos_site_id
 _symmetry_equiv_pos_as_xyz
  1  'x, y, z'
loop_
 _atom_site_type_symbol
 _atom_site_label
 _atom_site_symmetry_multiplicity
 _atom_site_fract_x
 _atom_site_fract_y
 _atom_site_fract_z
 _atom_site_occupancy
  Fe  Fe0  1  1.00057553  1.00022567  0.00330189  1
  Ni  Ni1  1  0.16591619  0.16787787  0.16779108  1
  Fe  Fe2  1  1.00167853  1.00005574  0.33491117  1
  Ni  Ni3  1  0.00297716  0.33747308  0.00358686  1
  Ni  Ni4  1  0.16637101  0.50248130  0.16642986  1
  Fe  Fe5  1  0.99848715  0.33666518  0.33320461  1
  Fe  Fe6  1  0.00188950  0.66795802  0.00295106  1
  Ni  Ni7  1  0.16667188  0.83478506  0.16957942  1
  Ni  Ni8  1  1.00164803  0.66883880  0.33422043  1
  Cr  Cr9  1  0.33575613  1.00083747  0.00322690  1
  Cr  Cr10  1  0.50190638  0.16911394  0.16645608  1
  Fe  Fe11  1  0.33302041  0.99922466  0.33466296  1
  Ni  Ni12  1  0.33111888  0.33730137  0.00225797  1
  Cr  Cr13  1  0.50325013  0.50362513  0.16754902  1
  Cr  Cr14  1  0.33460834  0.33481139  0.33522796  1
  Ni  Ni15  1  0.33334575  0.66761300  0.00200042  1
  Fe  Fe16  1  0.50174401  0.83269681  0.16781925  1
  Fe  Fe17  1  0.33351136  0.66970063  0.33436125  1
  Ni  Ni18  1  0.67026763  0.99861754  0.00220995  1
  Fe  Fe19  1  0.83822582  0.16948591  0.16762217  1
  Cr  Cr20  1  0.66943882  0.00193881  0.33499165  1
  Fe  Fe21  1  0.66998751  0.33625446  0.00255349  1
  Ni  Ni22  1  0.83578153  0.50278107  0.16797768  1
  Ni  Ni23  1  0.67064197  0.33618908  0.33640217  1
  Ni  Ni24  1  0.67043296  0.67103974  0.00173713  1
  Ni  Ni25  1  0.83647527  0.83349126  0.16705612  1
  Ni  Ni26  1  0.67174605  0.66740325  0.33539006  1
  Cr  Cr27  1  0.16737223  0.16644334  0.50331118  1
  Ni  Ni28  1  1.00087938  0.99970803  0.66729656  1
  Cr  Cr29  1  0.16772153  0.16873214  0.83372638  1
  Fe  Fe30  1  0.16816287  0.50331548  0.50136918  1
  Fe  Fe31  1  1.00080197  0.33401835  0.66815888  1
  Fe  Fe32  1  0.16831100  0.50145125  0.83671574  1
  Ni  Ni33  1  0.16724322  0.83449461  0.50118167  1
  Cr  Cr34  1  1.00153146  0.66904571  0.66911613  1
  Fe  Fe35  1  0.16888535  0.83410047  0.83452613  1
  Ni  Ni36  1  0.50358623  0.17106189  0.50496819  1
  Ni  Ni37  1  0.33559077  0.00180356  0.66787998  1
  Cr  Cr38  1  0.50197739  0.16871295  0.83373607  1
  Fe  Fe39  1  0.50321540  0.50025883  0.50243773  1
  Ni  Ni40  1  0.33597678  0.33526909  0.66735133  1
  Cr  Cr41  1  0.50167116  0.50266831  0.83556343  1
  Cr  Cr42  1  0.50112911  0.83382393  0.50220707  1
  Fe  Fe43  1  0.33512429  0.66911232  0.66873102  1
  Fe  Fe44  1  0.50270021  0.83484898  0.83463574  1
  Ni  Ni45  1  0.83389531  0.16945144  0.50271522  1
  Ni  Ni46  1  0.66867338  0.00216412  0.66771702  1
  Cr  Cr47  1  0.83544626  0.16772406  0.83520146  1
  Fe  Fe48  1  0.83377286  0.50102839  0.49998640  1
  Ni  Ni49  1  0.66753565  0.33415834  0.66540550  1
  Fe  Fe50  1  0.83543808  0.50177170  0.83646594  1
  Ni  Ni51  1  0.83674477  0.83478921  0.50270703  1
  Fe  Fe52  1  0.66817927  0.66907998  0.66830797  1
  Fe  Fe53  1  0.83356366  0.83508080  0.83570599  1
" 