1247,Ni42Fe22Cr34_10,-225.929287705893, 180.014289280772,Ni42Fe22Cr34,"# generated using pymatgen
 data_Cr10Fe6Ni11
_symmetry_space_group_name_H-M   'P 1'
_cell_length_a   7.47756677
_cell_length_b   7.47756677
_cell_length_c   10.57487634
_cell_angle_alpha   90.00000000
_cell_angle_beta   90.00000000
_cell_angle_gamma   90.00000000
_symmetry_Int_Tables_number   1
_chemical_formula_structural   Cr10Fe6Ni11
_chemical_formula_sum   'Cr20 Fe12 Ni22'
_cell_volume   591.28368655
_cell_formula_units_Z   2
loop_
 _symmetry_equiv_pos_site_id
 _symmetry_equiv_pos_as_xyz
  1  'x, y, z'
loop_
 _atom_site_type_symbol
 _atom_site_label
 _atom_site_symmetry_multiplicity
 _atom_site_fract_x
 _atom_site_fract_y
 _atom_site_fract_z
 _atom_site_occupancy
  Cr  Cr0  1  0.99736925  0.99814223  0.00089657  1
  Ni  Ni1  1  0.16353018  0.16492931  0.16847803  1
  Ni  Ni2  1  0.00057015  0.00077264  0.33082030  1
  Fe  Fe3  1  0.99595862  0.33224969  -0.00043888  1
  Cr  Cr4  1  0.16561440  0.49867907  0.16535925  1
  Fe  Fe5  1  0.99812858  0.32995487  0.33339512  1
  Cr  Cr6  1  0.99839221  0.66597410  0.99744897  1
  Ni  Ni7  1  0.16860349  0.83484767  0.16851644  1
  Cr  Cr8  1  0.99691675  0.66665980  0.33278876  1
  Cr  Cr9  1  0.33161887  0.00263686  0.00311400  1
  Fe  Fe10  1  0.49984193  0.16733495  0.16380538  1
  Ni  Ni11  1  0.32987775  0.00043854  0.33272505  1
  Ni  Ni12  1  0.33460542  0.33504911  0.99923042  1
  Fe  Fe13  1  0.50090788  0.49884765  0.16393266  1
  Cr  Cr14  1  0.33288218  0.32999185  0.33259896  1
  Fe  Fe15  1  0.33570065  0.66306598  -0.00021333  1
  Cr  Cr16  1  0.49938504  0.82927364  0.16727256  1
  Ni  Ni17  1  0.33309537  0.66668926  0.33143175  1
  Ni  Ni18  1  0.66889399  0.00102807  0.99916259  1
  Ni  Ni19  1  0.83435985  0.16871925  0.16456580  1
  Cr  Cr20  1  0.66714277  0.00073897  0.33378304  1
  Ni  Ni21  1  0.66486232  0.33435562  0.00021361  1
  Ni  Ni22  1  0.82938738  0.49630646  0.16627855  1
  Cr  Cr23  1  0.66621365  0.33346831  0.33119217  1
  Ni  Ni24  1  0.66822514  0.66231250  -0.00062252  1
  Fe  Fe25  1  0.83308867  0.83271916  0.16614345  1
  Ni  Ni26  1  0.66720119  0.66475273  0.33266040  1
  Fe  Fe27  1  0.16319180  0.16731176  0.49889306  1
  Cr  Cr28  1  0.99661492  -0.00068842  0.66724354  1
  Cr  Cr29  1  0.16364131  0.16861126  0.83108694  1
  Fe  Fe30  1  0.16347648  0.49785108  0.49985339  1
  Ni  Ni31  1  0.00000157  0.33433736  0.66496993  1
  Fe  Fe32  1  0.16676440  0.49699178  0.83282389  1
  Cr  Cr33  1  0.16962716  0.83377134  0.49766050  1
  Cr  Cr34  1  0.99776245  0.66301103  0.66756315  1
  Cr  Cr35  1  0.16893113  0.83189559  0.83279537  1
  Fe  Fe36  1  0.49860230  0.16353339  0.49990725  1
  Ni  Ni37  1  0.33297218  0.00049688  0.66163626  1
  Cr  Cr38  1  0.50060343  0.16764911  0.83336934  1
  Cr  Cr39  1  0.49852991  0.50306647  0.49807643  1
  Fe  Fe40  1  0.33092173  0.33464332  0.66595124  1
  Ni  Ni41  1  0.49858461  0.50015197  0.83594393  1
  Fe  Fe42  1  0.50000014  0.83275256  0.49784841  1
  Ni  Ni43  1  0.33146798  0.66320634  0.66718404  1
  Cr  Cr44  1  0.49940342  0.83014828  0.83144826  1
  Ni  Ni45  1  0.83657319  0.16773257  0.49887133  1
  Cr  Cr46  1  0.66683198  -0.00003532  0.66526038  1
  Ni  Ni47  1  0.83312143  0.16988745  0.83455753  1
  Ni  Ni48  1  0.83357025  0.49649076  0.49763633  1
  Cr  Cr49  1  0.66721826  0.33277366  0.66613860  1
  Ni  Ni50  1  0.83095005  0.49574480  0.83375004  1
  Ni  Ni51  1  0.83203128  0.83330715  0.49639385  1
  Cr  Cr52  1  0.66841847  0.66526060  0.66522524  1
  Ni  Ni53  1  0.82983191  0.83217638  0.83539007  1
" 