2615,Ni42Fe5Cr52_7,-217.26983790157, 142.629108854724,Ni42Fe5Cr52,"# generated using pymatgen
 data_Cr15FeNi11
_symmetry_space_group_name_H-M   'P 1'
_cell_length_a   7.52550464
_cell_length_b   7.52550464
_cell_length_c   10.64267072
_cell_angle_alpha   90.00000000
_cell_angle_beta   90.00000000
_cell_angle_gamma   90.00000000
_symmetry_Int_Tables_number   1
_chemical_formula_structural   Cr15FeNi11
_chemical_formula_sum   'Cr30 Fe2 Ni22'
_cell_volume   602.72871250
_cell_formula_units_Z   2
loop_
 _symmetry_equiv_pos_site_id
 _symmetry_equiv_pos_as_xyz
  1  'x, y, z'
loop_
 _atom_site_type_symbol
 _atom_site_label
 _atom_site_symmetry_multiplicity
 _atom_site_fract_x
 _atom_site_fract_y
 _atom_site_fract_z
 _atom_site_occupancy
  Cr  Cr0  1  -0.00256670  -0.00374924  -0.00274459  1
  Ni  Ni1  1  0.16219089  0.16239593  0.16067683  1
  Ni  Ni2  1  -0.00251706  -0.00343572  0.32857407  1
  Ni  Ni3  1  -0.00102050  0.33046200  0.99483461  1
  Cr  Cr4  1  0.16499970  0.49734206  0.15922968  1
  Cr  Cr5  1  -0.00082088  0.32742914  0.32775018  1
  Cr  Cr6  1  0.99604650  0.66144684  0.99301950  1
  Ni  Ni7  1  0.16594179  0.82960823  0.16518753  1
  Cr  Cr8  1  -0.00000458  0.66499786  0.33007687  1
  Cr  Cr9  1  0.33071574  0.99587313  -0.00172541  1
  Cr  Cr10  1  0.49724572  0.16223316  0.16162012  1
  Cr  Cr11  1  0.32793653  -0.00270882  0.32909844  1
  Ni  Ni12  1  0.32704700  0.33216296  0.99426024  1
  Cr  Cr13  1  0.49359443  0.49895625  0.16306110  1
  Cr  Cr14  1  0.33074554  0.32876905  0.33033817  1
  Ni  Ni15  1  0.33081483  0.66231152  0.99546566  1
  Ni  Ni16  1  0.49380915  0.82935632  0.16222687  1
  Ni  Ni17  1  0.33080146  0.66425675  0.32950781  1
  Ni  Ni18  1  0.66072675  0.99327813  0.99489146  1
  Cr  Cr19  1  0.82901836  0.16209945  0.16326352  1
  Ni  Ni20  1  0.66057513  -0.00289693  0.32910882  1
  Cr  Cr21  1  0.66184973  0.33173450  0.99495350  1
  Cr  Cr22  1  0.82938264  0.49495246  0.16375776  1
  Fe  Fe23  1  0.65970732  0.32713476  0.33142465  1
  Cr  Cr24  1  0.66048894  0.66357244  0.99150094  1
  Cr  Cr25  1  0.82660578  0.83087686  0.16376259  1
  Cr  Cr26  1  0.65903874  0.66104849  0.33026746  1
  Cr  Cr27  1  0.16359896  0.16227192  0.50042974  1
  Cr  Cr28  1  -0.00186339  0.99526667  0.66226417  1
  Cr  Cr29  1  0.16440195  0.16642735  0.82833794  1
  Cr  Cr30  1  0.16631744  0.49964125  0.49925641  1
  Ni  Ni31  1  0.99497919  0.33181386  0.66576371  1
  Ni  Ni32  1  0.16530035  0.49565240  0.82943353  1
  Ni  Ni33  1  0.16640208  0.82961891  0.49541485  1
  Cr  Cr34  1  0.99553013  0.66170687  0.66442038  1
  Cr  Cr35  1  0.16721578  0.82716778  0.82714060  1
  Ni  Ni36  1  0.49675144  0.16482757  0.49771438  1
  Ni  Ni37  1  0.33163947  0.99477041  0.66107064  1
  Cr  Cr38  1  0.49456415  0.16261082  0.82860902  1
  Ni  Ni39  1  0.49432021  0.49395440  0.49724348  1
  Fe  Fe40  1  0.33198774  0.33161196  0.66354438  1
  Ni  Ni41  1  0.49250757  0.49676970  0.82799094  1
  Cr  Cr42  1  0.49358508  0.82834402  0.49661717  1
  Ni  Ni43  1  0.33123156  0.66191192  0.66322888  1
  Ni  Ni44  1  0.49454093  0.82718159  0.83040573  1
  Cr  Cr45  1  0.82716267  0.16251156  0.49506949  1
  Cr  Cr46  1  0.65982387  0.99575147  0.66553043  1
  Cr  Cr47  1  0.82945327  0.16279472  0.83030597  1
  Cr  Cr48  1  0.82801415  0.49392234  0.49519743  1
  Ni  Ni49  1  0.66077061  0.33142607  0.66121075  1
  Ni  Ni50  1  0.83033268  0.49343191  0.82834493  1
  Cr  Cr51  1  0.83087617  0.83104960  0.49457635  1
  Cr  Cr52  1  0.66135700  0.65975913  0.66710827  1
  Ni  Ni53  1  0.82711393  0.82856412  0.83064997  1
" 