2054,Ni42Fe26Cr30_0,-228.712138169558, 188.274792634223,Ni42Fe26Cr30,"# generated using pymatgen
 data_Cr17Fe14Ni23
_symmetry_space_group_name_H-M   'P 1'
_cell_length_a   7.46198384
_cell_length_b   7.46198384
_cell_length_c   10.55283874
_cell_angle_alpha   90.00000000
_cell_angle_beta   90.00000000
_cell_angle_gamma   90.00000000
_symmetry_Int_Tables_number   1
_chemical_formula_structural   Cr17Fe14Ni23
_chemical_formula_sum   'Cr17 Fe14 Ni23'
_cell_volume   587.59475390
_cell_formula_units_Z   1
loop_
 _symmetry_equiv_pos_site_id
 _symmetry_equiv_pos_as_xyz
  1  'x, y, z'
loop_
 _atom_site_type_symbol
 _atom_site_label
 _atom_site_symmetry_multiplicity
 _atom_site_fract_x
 _atom_site_fract_y
 _atom_site_fract_z
 _atom_site_occupancy
  Fe  Fe0  1  0.00071813  0.99952080  0.00103130  1
  Ni  Ni1  1  0.16769438  0.16499984  0.16580380  1
  Ni  Ni2  1  1.00032909  0.00101022  0.33117395  1
  Fe  Fe3  1  0.99874945  0.33197441  0.00079576  1
  Cr  Cr4  1  0.16631844  0.50045207  0.16591975  1
  Cr  Cr5  1  0.99828488  0.33098722  0.33339848  1
  Fe  Fe6  1  0.99774599  0.66890436  0.99972434  1
  Ni  Ni7  1  0.16338377  0.83459678  0.16750356  1
  Fe  Fe8  1  0.99895331  0.66727124  0.33186201  1
  Ni  Ni9  1  0.33178309  0.99819863  0.00225959  1
  Ni  Ni10  1  0.49984463  0.16929839  0.16556069  1
  Cr  Cr11  1  0.33211690  0.99986182  0.33211795  1
  Fe  Fe12  1  0.33396808  0.33094453  0.00159496  1
  Cr  Cr13  1  0.50219043  0.49826388  0.16847774  1
  Ni  Ni14  1  0.33403452  0.33384687  0.33290399  1
  Cr  Cr15  1  0.33109862  0.67065709  0.99927517  1
  Fe  Fe16  1  0.50081206  0.83402497  0.16718196  1
  Fe  Fe17  1  0.33472154  0.66730841  0.33371741  1
  Cr  Cr18  1  0.66756558  0.00081509  0.00137060  1
  Ni  Ni19  1  0.83375462  0.16698618  0.16633260  1
  Cr  Cr20  1  0.66877803  0.00261707  0.33164463  1
  Ni  Ni21  1  0.67203852  0.33403909  0.00226148  1
  Ni  Ni22  1  0.83224283  0.50240251  0.16586534  1
  Ni  Ni23  1  0.66849702  0.33538710  0.33341737  1
  Fe  Fe24  1  0.66921259  0.66752929  0.99984192  1
  Ni  Ni25  1  0.83628494  0.83207444  0.16714531  1
  Fe  Fe26  1  0.66781001  0.66638984  0.33436056  1
  Ni  Ni27  1  0.16567606  0.16758730  0.50233876  1
  Ni  Ni28  1  0.00074228  0.00153442  0.66757414  1
  Cr  Cr29  1  0.16681913  0.16592710  0.83244294  1
  Cr  Cr30  1  0.16768198  0.49956275  0.50085751  1
  Ni  Ni31  1  0.99988375  0.33416328  0.66726112  1
  Fe  Fe32  1  0.16317318  0.50004120  0.83316631  1
  Cr  Cr33  1  0.16401478  0.83579872  0.50018293  1
  Ni  Ni34  1  0.99892014  0.66520589  0.66947815  1
  Ni  Ni35  1  0.16317309  0.83382703  0.83286752  1
  Cr  Cr36  1  0.49809533  0.16883843  0.50152086  1
  Ni  Ni37  1  0.33159116  0.99889567  0.66729296  1
  Cr  Cr38  1  0.49948466  0.16871016  0.83410524  1
  Fe  Fe39  1  0.50187198  0.50121530  0.49902374  1
  Ni  Ni40  1  0.33049689  0.33418835  0.66674267  1
  Cr  Cr41  1  0.50116958  0.49862297  0.83396019  1
  Ni  Ni42  1  0.50138614  0.82997572  0.50130096  1
  Cr  Cr43  1  0.33362668  0.66869729  0.66787108  1
  Fe  Fe44  1  0.50046135  0.83535477  0.83324912  1
  Ni  Ni45  1  0.83676753  0.16712171  0.50070139  1
  Cr  Cr46  1  0.66759868  0.99890519  0.66815225  1
  Ni  Ni47  1  0.83560606  0.16619568  0.83389535  1
  Fe  Fe48  1  0.83327750  0.50090174  0.50010519  1
  Cr  Cr49  1  0.67135790  0.33485199  0.66521804  1
  Fe  Fe50  1  0.83591631  0.50013227  0.83497708  1
  Cr  Cr51  1  0.83536598  0.83333413  0.50066572  1
  Ni  Ni52  1  0.66878102  0.66647376  0.66788610  1
  Ni  Ni53  1  0.83645187  0.83189752  0.83294292  1
" 