3117,Ni42Fe26Cr30_7,-228.343593662738, 183.800052569484,Ni42Fe26Cr30,"# generated using pymatgen
 data_Cr17Fe14Ni23
_symmetry_space_group_name_H-M   'P 1'
_cell_length_a   7.46352852
_cell_length_b   7.46352852
_cell_length_c   10.55502326
_cell_angle_alpha   90.00000000
_cell_angle_beta   90.00000000
_cell_angle_gamma   90.00000000
_symmetry_Int_Tables_number   1
_chemical_formula_structural   Cr17Fe14Ni23
_chemical_formula_sum   'Cr17 Fe14 Ni23'
_cell_volume   587.95973907
_cell_formula_units_Z   1
loop_
 _symmetry_equiv_pos_site_id
 _symmetry_equiv_pos_as_xyz
  1  'x, y, z'
loop_
 _atom_site_type_symbol
 _atom_site_label
 _atom_site_symmetry_multiplicity
 _atom_site_fract_x
 _atom_site_fract_y
 _atom_site_fract_z
 _atom_site_occupancy
  Fe  Fe0  1  0.99999569  0.99843215  0.99897820  1
  Fe  Fe1  1  0.16625691  0.16352069  0.16902484  1
  Fe  Fe2  1  0.00124382  0.99876559  0.33383443  1
  Cr  Cr3  1  0.99996704  0.33141436  0.00085866  1
  Cr  Cr4  1  0.16647356  0.50065948  0.16901522  1
  Ni  Ni5  1  0.00089303  0.33236024  0.33251052  1
  Ni  Ni6  1  0.99758372  0.67157270  0.00094901  1
  Fe  Fe7  1  0.16452428  0.83505156  0.16740542  1
  Ni  Ni8  1  0.99997807  0.66920588  0.33329491  1
  Fe  Fe9  1  0.33252822  1.00023531  0.99902313  1
  Ni  Ni10  1  0.49881186  0.16414808  0.16764450  1
  Fe  Fe11  1  0.33194694  0.00079260  0.33433283  1
  Cr  Cr12  1  0.33322176  0.32958540  0.00098367  1
  Fe  Fe13  1  0.50110149  0.50086703  0.16814233  1
  Ni  Ni14  1  0.33342665  0.33131673  0.33247555  1
  Cr  Cr15  1  0.33230788  0.66940473  0.99962841  1
  Cr  Cr16  1  0.50113047  0.83558809  0.16684105  1
  Ni  Ni17  1  0.33236436  0.66860004  0.33465382  1
  Fe  Fe18  1  0.66826535  0.99940612  0.99955281  1
  Fe  Fe19  1  0.83351993  0.16443399  0.16775847  1
  Fe  Fe20  1  0.66782066  0.99980793  0.33346164  1
  Cr  Cr21  1  0.66762722  0.33330344  0.00187763  1
  Ni  Ni22  1  0.83586354  0.50239255  0.16734335  1
  Cr  Cr23  1  0.66773011  0.33402575  0.33272836  1
  Ni  Ni24  1  0.66985023  0.66978113  0.00134327  1
  Ni  Ni25  1  0.83451745  0.83485814  0.16594284  1
  Cr  Cr26  1  0.66935405  0.66728500  0.33440389  1
  Ni  Ni27  1  0.16715229  0.16588644  0.49829986  1
  Ni  Ni28  1  0.00108692  0.99924665  0.66789771  1
  Ni  Ni29  1  0.16462135  0.16355003  0.83396304  1
  Cr  Cr30  1  0.16563899  0.49922663  0.50139668  1
  Ni  Ni31  1  0.99886931  0.33010310  0.66688799  1
  Cr  Cr32  1  0.16493842  0.50139884  0.83021378  1
  Fe  Fe33  1  0.16439018  0.83317260  0.50037407  1
  Ni  Ni34  1  0.00025667  0.67136895  0.66644875  1
  Ni  Ni35  1  0.16586717  0.83572436  0.83363434  1
  Fe  Fe36  1  0.49980755  0.16803143  0.49828011  1
  Cr  Cr37  1  0.33120659  0.99890128  0.66718705  1
  Fe  Fe38  1  0.50181191  0.16396353  0.83489457  1
  Ni  Ni39  1  0.49834607  0.50067494  0.49901993  1
  Cr  Cr40  1  0.33457002  0.33100952  0.66747369  1
  Cr  Cr41  1  0.50082053  0.50249667  0.83374824  1
  Fe  Fe42  1  0.49868625  0.83312622  0.49927616  1
  Ni  Ni43  1  0.33299151  0.67015432  0.66621606  1
  Ni  Ni44  1  0.50062978  0.83550442  0.83485834  1
  Cr  Cr45  1  0.83631178  0.16625304  0.50061787  1
  Cr  Cr46  1  0.66775003  1.00009551  0.66719191  1
  Ni  Ni47  1  0.83489146  0.16380528  0.83301610  1
  Ni  Ni48  1  0.83495800  0.50075729  0.50121200  1
  Ni  Ni49  1  0.66766364  0.33242017  0.66607015  1
  Cr  Cr50  1  0.83492261  0.50096441  0.83112129  1
  Ni  Ni51  1  0.83496302  0.83410399  0.49950606  1
  Cr  Cr52  1  0.66721588  0.66792381  0.66475480  1
  Ni  Ni53  1  0.83405842  0.83605249  0.83516134  1
" 