8121,Ni42Fe37Cr20_19,-231.885103435387, 197.078959944084,Ni42Fe37Cr20,"# generated using pymatgen
 data_Cr6Fe10Ni11
_symmetry_space_group_name_H-M   'P 1'
_cell_length_a   7.44596568
_cell_length_b   7.44596568
_cell_length_c   10.53018564
_cell_angle_alpha   90.00000000
_cell_angle_beta   90.00000000
_cell_angle_gamma   90.00000000
_symmetry_Int_Tables_number   1
_chemical_formula_structural   Cr6Fe10Ni11
_chemical_formula_sum   'Cr12 Fe20 Ni22'
_cell_volume   583.81881551
_cell_formula_units_Z   2
loop_
 _symmetry_equiv_pos_site_id
 _symmetry_equiv_pos_as_xyz
  1  'x, y, z'
loop_
 _atom_site_type_symbol
 _atom_site_label
 _atom_site_symmetry_multiplicity
 _atom_site_fract_x
 _atom_site_fract_y
 _atom_site_fract_z
 _atom_site_occupancy
  Cr  Cr0  1  0.00332274  0.00375658  0.00219841  1
  Ni  Ni1  1  0.17104497  0.16872418  0.16868768  1
  Fe  Fe2  1  1.00103816  0.99967950  0.33508035  1
  Cr  Cr3  1  1.00096815  0.33380076  1.00024182  1
  Ni  Ni4  1  0.16895643  0.50057128  0.16937658  1
  Cr  Cr5  1  0.00167080  0.33340695  0.33485823  1
  Cr  Cr6  1  1.00022681  0.66682396  0.00483425  1
  Fe  Fe7  1  0.17149850  0.83580010  0.17065202  1
  Fe  Fe8  1  0.00160388  0.67129857  0.33449057  1
  Ni  Ni9  1  0.33674724  0.00292512  1.00124064  1
  Ni  Ni10  1  0.50122377  0.16759756  0.16735773  1
  Fe  Fe11  1  0.33475064  1.00024580  0.33349601  1
  Fe  Fe12  1  0.33840957  0.33184773  0.00232962  1
  Ni  Ni13  1  0.50101277  0.49942990  0.16802146  1
  Fe  Fe14  1  0.33679132  0.33414450  0.33257316  1
  Cr  Cr15  1  0.33825637  0.66979183  0.00146155  1
  Ni  Ni16  1  0.50397102  0.83706679  0.16675109  1
  Fe  Fe17  1  0.33490165  0.66991881  0.33339979  1
  Ni  Ni18  1  0.66399385  0.00230121  0.00300866  1
  Fe  Fe19  1  0.83091662  0.16771565  0.16870621  1
  Ni  Ni20  1  0.66758268  1.00096357  0.33350729  1
  Ni  Ni21  1  0.66672350  0.33501346  0.00155953  1
  Fe  Fe22  1  0.83181779  0.50044897  0.16709345  1
  Fe  Fe23  1  0.66692266  0.33360196  0.33330632  1
  Ni  Ni24  1  0.66582798  0.66693707  0.00208133  1
  Fe  Fe25  1  0.83250767  0.83611427  0.16882628  1
  Cr  Cr26  1  0.66605420  0.66975511  0.33497837  1
  Ni  Ni27  1  0.16768565  0.16468338  0.50068257  1
  Fe  Fe28  1  1.00108606  1.00030111  0.66692614  1
  Ni  Ni29  1  0.17133652  0.16515903  0.83481519  1
  Cr  Cr30  1  0.16877426  0.50308453  0.50094716  1
  Cr  Cr31  1  0.99873920  0.33256265  0.66926932  1
  Cr  Cr32  1  0.16805256  0.50174959  0.83500209  1
  Ni  Ni33  1  0.16626598  0.83580336  0.50179917  1
  Ni  Ni34  1  1.00064575  0.67005596  0.66625272  1
  Fe  Fe35  1  0.17055578  0.83667667  0.83194732  1
  Cr  Cr36  1  0.50234559  0.16759170  0.49927749  1
  Fe  Fe37  1  0.33479953  0.99915180  0.66903798  1
  Ni  Ni38  1  0.50180693  0.16755104  0.83702537  1
  Fe  Fe39  1  0.50265062  0.50405402  0.50207495  1
  Cr  Cr40  1  0.33614937  0.33320724  0.66936506  1
  Ni  Ni41  1  0.50585924  0.49981882  0.83437246  1
  Ni  Ni42  1  0.50274299  0.83520024  0.50339349  1
  Fe  Fe43  1  0.33774312  0.67105180  0.66791364  1
  Fe  Fe44  1  0.50142642  0.83570889  0.83431739  1
  Fe  Fe45  1  0.83451476  0.16413639  0.50143580  1
  Ni  Ni46  1  0.66704583  1.00051662  0.66779837  1
  Fe  Fe47  1  0.83029862  0.16993513  0.83416517  1
  Fe  Fe48  1  0.83270714  0.50346235  0.50364078  1
  Ni  Ni49  1  0.66895742  0.33572349  0.66741231  1
  Ni  Ni50  1  0.83054986  0.50290182  0.83400863  1
  Ni  Ni51  1  0.83510279  0.83502896  0.50172575  1
  Ni  Ni52  1  0.66720083  0.66822580  0.66727099  1
  Cr  Cr53  1  0.83266118  0.83342213  0.83445001  1
" 