5880,Ni42Fe37Cr20_17,-231.9454426722, 203.279569335228,Ni42Fe37Cr20,"# generated using pymatgen
 data_Cr6Fe10Ni11
_symmetry_space_group_name_H-M   'P 1'
_cell_length_a   7.44268859
_cell_length_b   7.44268859
_cell_length_c   10.52555114
_cell_angle_alpha   90.00000000
_cell_angle_beta   90.00000000
_cell_angle_gamma   90.00000000
_symmetry_Int_Tables_number   1
_chemical_formula_structural   Cr6Fe10Ni11
_chemical_formula_sum   'Cr12 Fe20 Ni22'
_cell_volume   583.04831075
_cell_formula_units_Z   2
loop_
 _symmetry_equiv_pos_site_id
 _symmetry_equiv_pos_as_xyz
  1  'x, y, z'
loop_
 _atom_site_type_symbol
 _atom_site_label
 _atom_site_symmetry_multiplicity
 _atom_site_fract_x
 _atom_site_fract_y
 _atom_site_fract_z
 _atom_site_occupancy
  Fe  Fe0  1  1.00021137  1.00035722  1.00158858  1
  Fe  Fe1  1  0.16596793  0.16767173  0.16882719  1
  Fe  Fe2  1  0.00201988  0.00369386  0.33530467  1
  Cr  Cr3  1  1.00078407  0.33503680  0.00360981  1
  Ni  Ni4  1  0.16673997  0.50250516  0.16824167  1
  Ni  Ni5  1  1.00024678  0.33445995  0.33492348  1
  Fe  Fe6  1  0.99942828  0.67000122  0.00230843  1
  Fe  Fe7  1  0.16691135  0.83522718  0.16802992  1
  Cr  Cr8  1  1.00161245  0.66693098  0.33485727  1
  Fe  Fe9  1  0.33495549  0.00180195  0.99931389  1
  Cr  Cr10  1  0.50329813  0.16770607  0.16815185  1
  Ni  Ni11  1  0.33446988  1.00106687  0.33638309  1
  Fe  Fe12  1  0.33704730  0.33442241  1.00074462  1
  Cr  Cr13  1  0.50238845  0.50241554  0.16701318  1
  Cr  Cr14  1  0.33248555  0.33374500  0.33552303  1
  Fe  Fe15  1  0.33560414  0.66868585  1.00052230  1
  Cr  Cr16  1  0.50189405  0.83478821  0.16927851  1
  Fe  Fe17  1  0.33281375  0.66952022  0.33505877  1
  Ni  Ni18  1  0.66863964  1.00105086  1.00073434  1
  Ni  Ni19  1  0.83630550  0.16782533  0.16926492  1
  Fe  Fe20  1  0.67058253  0.00317430  0.33531840  1
  Ni  Ni21  1  0.66829833  0.33510304  1.00054468  1
  Ni  Ni22  1  0.83609994  0.50129219  0.16892067  1
  Fe  Fe23  1  0.67195538  0.33357458  0.33523098  1
  Ni  Ni24  1  0.66899974  0.66875514  0.99987004  1
  Ni  Ni25  1  0.83605294  0.83579295  0.16765745  1
  Fe  Fe26  1  0.66974034  0.66816242  0.33405405  1
  Ni  Ni27  1  0.16736296  0.16749915  0.50165118  1
  Cr  Cr28  1  0.00342134  0.00172363  0.66834293  1
  Ni  Ni29  1  0.17011157  0.16597591  0.83451279  1
  Fe  Fe30  1  0.16583574  0.50006208  0.50206636  1
  Ni  Ni31  1  1.00105626  0.33688289  0.66652813  1
  Cr  Cr32  1  0.16725672  0.50163627  0.83369096  1
  Ni  Ni33  1  0.16784295  0.83624961  0.50072715  1
  Ni  Ni34  1  1.00013920  0.66613443  0.66794090  1
  Ni  Ni35  1  0.16862324  0.83704186  0.83649579  1
  Ni  Ni36  1  0.50155526  0.16796250  0.50187261  1
  Ni  Ni37  1  0.33519331  0.00357237  0.66904066  1
  Ni  Ni38  1  0.50076987  0.16841123  0.83490289  1
  Cr  Cr39  1  0.50295479  0.50077909  0.50160598  1
  Fe  Fe40  1  0.33432864  0.33146988  0.66838969  1
  Ni  Ni41  1  0.50503587  0.50112078  0.83628328  1
  Cr  Cr42  1  0.50041840  0.83635383  0.49960238  1
  Cr  Cr43  1  0.33389050  0.66982460  0.66821806  1
  Ni  Ni44  1  0.50148775  0.83537514  0.83619463  1
  Ni  Ni45  1  0.83599419  0.17034536  0.49966057  1
  Cr  Cr46  1  0.66594299  0.00233741  0.66937260  1
  Fe  Fe47  1  0.83383518  0.16942023  0.83588945  1
  Fe  Fe48  1  0.83659980  0.50002545  0.50262033  1
  Fe  Fe49  1  0.66914829  0.33544379  0.66950985  1
  Ni  Ni50  1  0.83235974  0.50260860  0.83362340  1
  Fe  Fe51  1  0.83603098  0.83525525  0.50077545  1
  Fe  Fe52  1  0.67122815  0.66690248  0.67065222  1
  Fe  Fe53  1  0.83439091  0.83318690  0.83692173  1
" 