7589,Ni42Fe26Cr30_15,-228.267859236719, 179.654595994172,Ni42Fe26Cr30,"# generated using pymatgen
 data_Cr17Fe14Ni23
_symmetry_space_group_name_H-M   'P 1'
_cell_length_a   7.46683515
_cell_length_b   7.46683515
_cell_length_c   10.55969953
_cell_angle_alpha   90.00000000
_cell_angle_beta   90.00000000
_cell_angle_gamma   90.00000000
_symmetry_Int_Tables_number   1
_chemical_formula_structural   Cr17Fe14Ni23
_chemical_formula_sum   'Cr17 Fe14 Ni23'
_cell_volume   588.74155049
_cell_formula_units_Z   1
loop_
 _symmetry_equiv_pos_site_id
 _symmetry_equiv_pos_as_xyz
  1  'x, y, z'
loop_
 _atom_site_type_symbol
 _atom_site_label
 _atom_site_symmetry_multiplicity
 _atom_site_fract_x
 _atom_site_fract_y
 _atom_site_fract_z
 _atom_site_occupancy
  Cr  Cr0  1  0.99892761  0.99992118  0.99989369  1
  Ni  Ni1  1  0.16743961  0.16717090  0.16778561  1
  Ni  Ni2  1  0.00223868  0.99946840  0.33368740  1
  Ni  Ni3  1  0.99998843  0.33428776  0.00167947  1
  Ni  Ni4  1  0.16417356  0.49802285  0.16620029  1
  Ni  Ni5  1  0.00125343  0.33514790  0.33255531  1
  Cr  Cr6  1  0.99864057  0.66540186  0.00148914  1
  Fe  Fe7  1  0.16734594  0.83455023  0.16893817  1
  Fe  Fe8  1  0.00180406  0.66671418  0.33263481  1
  Ni  Ni9  1  0.33609080  0.00237660  0.00413648  1
  Ni  Ni10  1  0.49646033  0.16346276  0.16427008  1
  Ni  Ni11  1  0.33082564  0.99840610  0.33256186  1
  Fe  Fe12  1  0.33248417  0.33187626  0.00046989  1
  Cr  Cr13  1  0.50071069  0.50148379  0.16594176  1
  Cr  Cr14  1  0.33089827  0.33153563  0.33458306  1
  Cr  Cr15  1  0.33321666  0.66673801  0.99907053  1
  Ni  Ni16  1  0.50035581  0.83413491  0.16637786  1
  Ni  Ni17  1  0.33033416  0.66841044  0.33205953  1
  Fe  Fe18  1  0.66624318  0.99882457  0.00001545  1
  Cr  Cr19  1  0.83603385  0.16832736  0.16397124  1
  Cr  Cr20  1  0.66584058  0.00069019  0.33134532  1
  Fe  Fe21  1  0.66609082  0.33311486  0.00030561  1
  Ni  Ni22  1  0.83586210  0.50222670  0.16848030  1
  Cr  Cr23  1  0.66955606  0.33356833  0.33429381  1
  Ni  Ni24  1  0.66802732  0.66729255  0.00169549  1
  Ni  Ni25  1  0.83186425  0.83067923  0.16746778  1
  Fe  Fe26  1  0.66882289  0.66787862  0.33182519  1
  Ni  Ni27  1  0.16494637  0.16724454  0.49930602  1
  Fe  Fe28  1  0.99912304  0.99912170  0.66524018  1
  Cr  Cr29  1  0.16626457  0.16815917  0.83322606  1
  Ni  Ni30  1  0.16341573  0.50015479  0.50157818  1
  Ni  Ni31  1  0.00087367  0.33444600  0.66589706  1
  Fe  Fe32  1  0.16613069  0.49690171  0.83321278  1
  Ni  Ni33  1  0.16356586  0.83268028  0.49782293  1
  Fe  Fe34  1  0.99840937  0.66669756  0.66487985  1
  Cr  Cr35  1  0.16393514  0.83432287  0.83194238  1
  Ni  Ni36  1  0.49853256  0.16639876  0.50206268  1
  Cr  Cr37  1  0.33450315  0.00233035  0.66264766  1
  Ni  Ni38  1  0.50110798  0.16914783  0.83405789  1
  Cr  Cr39  1  0.50095497  0.50076443  0.50144670  1
  Ni  Ni40  1  0.33132818  0.33343618  0.66713087  1
  Fe  Fe41  1  0.50174721  0.49776385  0.83307919  1
  Cr  Cr42  1  0.50014794  0.83291599  0.49802682  1
  Cr  Cr43  1  0.33232655  0.66356308  0.66853928  1
  Cr  Cr44  1  0.50247527  0.83431829  0.83471144  1
  Cr  Cr45  1  0.83566397  0.16735164  0.50305535  1
  Ni  Ni46  1  0.66968330  0.99989585  0.66887072  1
  Fe  Fe47  1  0.83186078  0.16579359  0.83223436  1
  Fe  Fe48  1  0.83726687  0.50173463  0.50056924  1
  Fe  Fe49  1  0.66418738  0.33185054  0.66742552  1
  Cr  Cr50  1  0.83315327  0.49922085  0.83298022  1
  Fe  Fe51  1  0.83579472  0.83272251  0.50088136  1
  Ni  Ni52  1  0.67052977  0.66768075  0.66550321  1
  Ni  Ni53  1  0.83131048  0.83243834  0.83070519  1
" 