4440,Ni42Fe22Cr34_7,-225.909915734754, 176.580265190144,Ni42Fe22Cr34,"# generated using pymatgen
 data_Cr10Fe6Ni11
_symmetry_space_group_name_H-M   'P 1'
_cell_length_a   7.47896209
_cell_length_b   7.47896209
_cell_length_c   10.57684961
_cell_angle_alpha   90.00000000
_cell_angle_beta   90.00000000
_cell_angle_gamma   90.00000000
_symmetry_Int_Tables_number   1
_chemical_formula_structural   Cr10Fe6Ni11
_chemical_formula_sum   'Cr20 Fe12 Ni22'
_cell_volume   591.61474932
_cell_formula_units_Z   2
loop_
 _symmetry_equiv_pos_site_id
 _symmetry_equiv_pos_as_xyz
  1  'x, y, z'
loop_
 _atom_site_type_symbol
 _atom_site_label
 _atom_site_symmetry_multiplicity
 _atom_site_fract_x
 _atom_site_fract_y
 _atom_site_fract_z
 _atom_site_occupancy
  Ni  Ni0  1  0.00094882  0.00006975  0.99765749  1
  Fe  Fe1  1  0.16657512  0.16197633  0.16585095  1
  Ni  Ni2  1  0.00347733  -0.00055759  0.33171122  1
  Cr  Cr3  1  0.99826581  0.32983377  0.99814950  1
  Cr  Cr4  1  0.16719070  0.49865594  0.16814414  1
  Fe  Fe5  1  0.00221717  0.33120758  0.33116512  1
  Cr  Cr6  1  0.99856530  0.66891597  0.99616218  1
  Ni  Ni7  1  0.16704034  0.83415017  0.16790628  1
  Ni  Ni8  1  0.00079725  0.66848565  0.33231674  1
  Ni  Ni9  1  0.32999727  0.00100013  -0.00048957  1
  Cr  Cr10  1  0.49871121  0.16447456  0.16252454  1
  Ni  Ni11  1  0.32956274  0.99879724  0.33355718  1
  Ni  Ni12  1  0.33507567  0.32985684  0.99653161  1
  Fe  Fe13  1  0.49743312  0.49959468  0.16578737  1
  Ni  Ni14  1  0.33294965  0.33048875  0.33422412  1
  Cr  Cr15  1  0.33297296  0.66738578  0.99916648  1
  Ni  Ni16  1  0.49693437  0.83507468  0.16800392  1
  Ni  Ni17  1  0.33266308  0.66814237  0.33376796  1
  Ni  Ni18  1  0.66666008  0.00171413  0.99759223  1
  Fe  Fe19  1  0.83388669  0.16426441  0.16480628  1
  Fe  Fe20  1  0.66305608  0.99868977  0.33195919  1
  Ni  Ni21  1  0.66476383  0.33214348  0.99736643  1
  Fe  Fe22  1  0.83231898  0.49828863  0.16605822  1
  Cr  Cr23  1  0.66485740  0.33411602  0.33189455  1
  Cr  Cr24  1  0.66602668  0.66318123  0.00079847  1
  Cr  Cr25  1  0.83311978  0.83580952  0.16552585  1
  Cr  Cr26  1  0.66341457  0.66473847  0.33026227  1
  Fe  Fe27  1  0.16805268  0.16515967  0.49635321  1
  Cr  Cr28  1  0.00143270  0.99792564  0.66886885  1
  Ni  Ni29  1  0.16621167  0.16594936  0.83591022  1
  Cr  Cr30  1  0.16712850  0.50109733  0.49891111  1
  Cr  Cr31  1  -0.00054683  0.33222434  0.66797203  1
  Ni  Ni32  1  0.16685449  0.49945454  0.83077448  1
  Fe  Fe33  1  0.16725899  0.83220009  0.49703572  1
  Ni  Ni34  1  -0.00017627  0.66775149  0.66899499  1
  Ni  Ni35  1  0.16376851  0.83220167  0.83261914  1
  Ni  Ni36  1  0.49792511  0.16403070  0.49849466  1
  Cr  Cr37  1  0.33136621  -0.00030705  0.66472746  1
  Fe  Fe38  1  0.49959562  0.16687398  0.83549320  1
  Ni  Ni39  1  0.49469165  0.49848146  0.49733524  1
  Cr  Cr40  1  0.33414915  0.33129513  0.66716573  1
  Ni  Ni41  1  0.49744474  0.49625801  0.83427913  1
  Fe  Fe42  1  0.49704640  0.83288845  0.49748394  1
  Fe  Fe43  1  0.33059396  0.66517572  0.66638044  1
  Cr  Cr44  1  0.49987039  0.83512542  0.83327858  1
  Cr  Cr45  1  0.83117613  0.16322077  0.49719052  1
  Fe  Fe46  1  0.66612189  0.00012538  0.66732789  1
  Ni  Ni47  1  0.83089661  0.16383055  0.83477910  1
  Cr  Cr48  1  0.83592340  0.50028895  0.49825624  1
  Cr  Cr49  1  0.66410097  0.33290516  0.66789463  1
  Ni  Ni50  1  0.83324966  0.49871687  0.83244514  1
  Cr  Cr51  1  0.83329846  0.83403396  0.49974645  1
  Cr  Cr52  1  0.66584723  0.66445430  0.66655302  1
  Ni  Ni53  1  0.83422320  0.83512711  0.83231536  1
" 