2040,Ni42Fe37Cr20_4,-231.66661775891, 198.126193367935,Ni42Fe37Cr20,"# generated using pymatgen
 data_Cr6Fe10Ni11
_symmetry_space_group_name_H-M   'P 1'
_cell_length_a   7.43819378
_cell_length_b   7.43819378
_cell_length_c   10.51919453
_cell_angle_alpha   90.00000000
_cell_angle_beta   90.00000000
_cell_angle_gamma   90.00000000
_symmetry_Int_Tables_number   1
_chemical_formula_structural   Cr6Fe10Ni11
_chemical_formula_sum   'Cr12 Fe20 Ni22'
_cell_volume   581.99260096
_cell_formula_units_Z   2
loop_
 _symmetry_equiv_pos_site_id
 _symmetry_equiv_pos_as_xyz
  1  'x, y, z'
loop_
 _atom_site_type_symbol
 _atom_site_label
 _atom_site_symmetry_multiplicity
 _atom_site_fract_x
 _atom_site_fract_y
 _atom_site_fract_z
 _atom_site_occupancy
  Ni  Ni0  1  0.00235910  1.00075354  1.00005067  1
  Cr  Cr1  1  0.16709834  0.16722910  0.17071941  1
  Ni  Ni2  1  0.00259004  0.99844893  0.33484475  1
  Ni  Ni3  1  1.00182627  0.33766520  1.00131890  1
  Fe  Fe4  1  0.16912084  0.50338248  0.16902913  1
  Fe  Fe5  1  0.00310904  0.33969584  0.33510445  1
  Ni  Ni6  1  0.00306941  0.66715704  1.00127376  1
  Ni  Ni7  1  0.16735827  0.83309269  0.16982174  1
  Ni  Ni8  1  0.00207748  0.66759465  0.33645729  1
  Cr  Cr9  1  0.33512091  1.00042379  1.00171300  1
  Cr  Cr10  1  0.50058494  0.17283186  0.16983231  1
  Ni  Ni11  1  0.33546367  1.00065574  0.33635453  1
  Fe  Fe12  1  0.33375742  0.33783790  1.00139489  1
  Ni  Ni13  1  0.50290499  0.50538420  0.16884173  1
  Ni  Ni14  1  0.33557657  0.33762877  0.33603061  1
  Fe  Fe15  1  0.33462850  0.66623738  0.00279918  1
  Fe  Fe16  1  0.49977455  0.83199166  0.16963658  1
  Ni  Ni17  1  0.33460734  0.66757360  0.33432087  1
  Cr  Cr18  1  0.66937443  1.00157719  1.00105811  1
  Cr  Cr19  1  0.83808930  0.17029404  0.16861314  1
  Cr  Cr20  1  0.66719796  1.00036348  0.33429014  1
  Ni  Ni21  1  0.66918770  0.33725333  1.00009074  1
  Fe  Fe22  1  0.83561354  0.50421703  0.16752829  1
  Fe  Fe23  1  0.66708797  0.33950809  0.33592260  1
  Fe  Fe24  1  0.67015667  0.66699809  1.00171252  1
  Fe  Fe25  1  0.83820096  0.83168218  0.16799311  1
  Ni  Ni26  1  0.66927087  0.66730158  0.33493758  1
  Cr  Cr27  1  0.16924323  0.16718773  0.49980704  1
  Fe  Fe28  1  0.00246861  0.99976236  0.67041838  1
  Ni  Ni29  1  0.16804117  0.16833198  0.83545660  1
  Fe  Fe30  1  0.16918946  0.50331225  0.50019701  1
  Cr  Cr31  1  1.00145919  0.33905492  0.67045887  1
  Fe  Fe32  1  0.16761811  0.50286649  0.83696511  1
  Fe  Fe33  1  0.16831204  0.83437839  0.49968269  1
  Ni  Ni34  1  0.00331535  0.66898500  0.66806085  1
  Fe  Fe35  1  0.16618831  0.83395992  0.83615164  1
  Ni  Ni36  1  0.50043605  0.16968053  0.50240602  1
  Fe  Fe37  1  0.33500891  0.00201141  0.66926040  1
  Fe  Fe38  1  0.50238823  0.17144060  0.83467347  1
  Fe  Fe39  1  0.50211154  0.50054387  0.50033998  1
  Fe  Fe40  1  0.33694128  0.33513690  0.66916895  1
  Ni  Ni41  1  0.50220216  0.50204559  0.83583270  1
  Ni  Ni42  1  0.49984824  0.83316879  0.49905779  1
  Cr  Cr43  1  0.33293576  0.66865586  0.66819662  1
  Ni  Ni44  1  0.50116372  0.83129396  0.83709380  1
  Cr  Cr45  1  0.83580999  0.16977053  0.50035671  1
  Cr  Cr46  1  0.66695890  0.00278576  0.67058933  1
  Ni  Ni47  1  0.83843787  0.16982125  0.83633813  1
  Fe  Fe48  1  0.83430920  0.50374657  0.50153468  1
  Ni  Ni49  1  0.66738857  0.33485437  0.66897674  1
  Ni  Ni50  1  0.83390771  0.50257039  0.83616121  1
  Fe  Fe51  1  0.83658600  0.83388012  0.50152972  1
  Cr  Cr52  1  0.67001331  0.66749400  0.66865229  1
  Ni  Ni53  1  0.83724690  0.83321797  0.83568010  1
" 