719,Ni42Fe42Cr14_11,-234.30220996401, 204.201119742907,Ni42Fe42Cr14,"# generated using pymatgen
 data_Cr9Fe23Ni22
_symmetry_space_group_name_H-M   'P 1'
_cell_length_a   7.43647272
_cell_length_b   7.43647272
_cell_length_c   10.51676057
_cell_angle_alpha   90.00000000
_cell_angle_beta   90.00000000
_cell_angle_gamma   90.00000000
_symmetry_Int_Tables_number   1
_chemical_formula_structural   Cr9Fe23Ni22
_chemical_formula_sum   'Cr9 Fe23 Ni22'
_cell_volume   581.58870604
_cell_formula_units_Z   1
loop_
 _symmetry_equiv_pos_site_id
 _symmetry_equiv_pos_as_xyz
  1  'x, y, z'
loop_
 _atom_site_type_symbol
 _atom_site_label
 _atom_site_symmetry_multiplicity
 _atom_site_fract_x
 _atom_site_fract_y
 _atom_site_fract_z
 _atom_site_occupancy
  Fe  Fe0  1  0.00272743  1.00188333  0.00429782  1
  Fe  Fe1  1  0.17015324  0.16911461  0.16804724  1
  Cr  Cr2  1  1.00100012  0.00281113  0.33556844  1
  Ni  Ni3  1  0.00329886  0.33588548  0.00384432  1
  Fe  Fe4  1  0.16819978  0.50101786  0.16773442  1
  Fe  Fe5  1  0.00225539  0.33593372  0.33545670  1
  Fe  Fe6  1  0.00401860  0.66818998  0.00324045  1
  Fe  Fe7  1  0.16915000  0.83603694  0.16715778  1
  Fe  Fe8  1  1.00054252  0.66803624  0.33573880  1
  Ni  Ni9  1  0.33582562  1.00165252  1.00185944  1
  Fe  Fe10  1  0.50214407  0.16799128  0.16859152  1
  Ni  Ni11  1  0.33636912  0.00321431  0.33634345  1
  Ni  Ni12  1  0.33490347  0.33630404  1.00204232  1
  Ni  Ni13  1  0.50168229  0.50201401  0.16724399  1
  Ni  Ni14  1  0.33328154  0.33467888  0.33395971  1
  Fe  Fe15  1  0.33555208  0.66799461  0.00213980  1
  Ni  Ni16  1  0.50364918  0.83530584  0.16831878  1
  Cr  Cr17  1  0.33634751  0.66897590  0.33449203  1
  Fe  Fe18  1  0.66694075  0.00257238  0.00380270  1
  Ni  Ni19  1  0.83539792  0.16836656  0.16711166  1
  Ni  Ni20  1  0.66896925  1.00007906  0.33449738  1
  Fe  Fe21  1  0.66674837  0.33514890  0.00352485  1
  Fe  Fe22  1  0.83408360  0.50292729  0.16814098  1
  Fe  Fe23  1  0.66941589  0.33464886  0.33370861  1
  Ni  Ni24  1  0.66754121  0.66912977  0.00285655  1
  Ni  Ni25  1  0.83388238  0.83528056  0.16774505  1
  Ni  Ni26  1  0.67054931  0.67006006  0.33591712  1
  Ni  Ni27  1  0.16772401  0.17062026  0.50292478  1
  Ni  Ni28  1  1.00071444  1.00204757  0.66694165  1
  Cr  Cr29  1  0.17067740  0.16982742  0.83466564  1
  Ni  Ni30  1  0.16590751  0.49959468  0.50192807  1
  Fe  Fe31  1  0.00338551  0.33530791  0.66660884  1
  Ni  Ni32  1  0.17053844  0.50233457  0.83660470  1
  Fe  Fe33  1  0.16779551  0.83707627  0.50288031  1
  Fe  Fe34  1  0.00244568  0.66898013  0.66718934  1
  Fe  Fe35  1  0.16945114  0.83520057  0.83613380  1
  Cr  Cr36  1  0.50080849  0.16643467  0.50066142  1
  Fe  Fe37  1  0.33569662  0.00268399  0.66861642  1
  Ni  Ni38  1  0.50070998  0.16877314  0.83562107  1
  Cr  Cr39  1  0.50200230  0.50253165  0.50194521  1
  Ni  Ni40  1  0.33393445  0.33600046  0.67015782  1
  Fe  Fe41  1  0.50086010  0.50034959  0.83660991  1
  Ni  Ni42  1  0.50492793  0.83680706  0.50178305  1
  Cr  Cr43  1  0.33531710  0.66786193  0.67042625  1
  Fe  Fe44  1  0.50133829  0.83654397  0.83628782  1
  Ni  Ni45  1  0.83735558  0.16774048  0.50383674  1
  Ni  Ni46  1  0.67025154  1.00117939  0.66813640  1
  Cr  Cr47  1  0.83411633  0.16769623  0.83535265  1
  Fe  Fe48  1  0.83689682  0.50228020  0.50205871  1
  Fe  Fe49  1  0.66857524  0.33394457  0.66892557  1
  Cr  Cr50  1  0.83624416  0.50268546  0.83491818  1
  Ni  Ni51  1  0.83408060  0.83499139  0.50275104  1
  Fe  Fe52  1  0.66938724  0.67047652  0.66757228  1
  Cr  Cr53  1  0.83523800  0.83578569  0.83609033  1
" 