2022,Ni42Fe5Cr52_16,-217.118476629609, 138.041496326167,Ni42Fe5Cr52,"# generated using pymatgen
 data_Cr15FeNi11
_symmetry_space_group_name_H-M   'P 1'
_cell_length_a   7.52671710
_cell_length_b   7.52671710
_cell_length_c   10.64438540
_cell_angle_alpha   90.00000000
_cell_angle_beta   90.00000000
_cell_angle_gamma   90.00000000
_symmetry_Int_Tables_number   1
_chemical_formula_structural   Cr15FeNi11
_chemical_formula_sum   'Cr30 Fe2 Ni22'
_cell_volume   603.02008285
_cell_formula_units_Z   2
loop_
 _symmetry_equiv_pos_site_id
 _symmetry_equiv_pos_as_xyz
  1  'x, y, z'
loop_
 _atom_site_type_symbol
 _atom_site_label
 _atom_site_symmetry_multiplicity
 _atom_site_fract_x
 _atom_site_fract_y
 _atom_site_fract_z
 _atom_site_occupancy
  Cr  Cr0  1  0.99570922  -0.00142016  0.99561629  1
  Ni  Ni1  1  0.16274039  0.16268856  0.16435326  1
  Ni  Ni2  1  0.99244700  -0.00003407  0.32818621  1
  Cr  Cr3  1  0.99372948  0.32768580  -0.00146136  1
  Cr  Cr4  1  0.16485968  0.49321185  0.16460661  1
  Cr  Cr5  1  0.99098672  0.32699461  0.32781241  1
  Cr  Cr6  1  0.99410669  0.66136266  -0.00345001  1
  Cr  Cr7  1  0.16186272  0.82931383  0.16431499  1
  Cr  Cr8  1  0.99401459  0.66243850  0.32793550  1
  Cr  Cr9  1  0.32947796  -0.00349209  0.99456313  1
  Cr  Cr10  1  0.49567906  0.16293508  0.16191835  1
  Cr  Cr11  1  0.32950244  0.99411213  0.33175850  1
  Ni  Ni12  1  0.33099328  0.33126241  -0.00227714  1
  Ni  Ni13  1  0.49534779  0.49381036  0.16476406  1
  Ni  Ni14  1  0.33311918  0.33167887  0.32773549  1
  Cr  Cr15  1  0.33249813  0.66194865  0.99592928  1
  Fe  Fe16  1  0.49565215  0.83017242  0.16499096  1
  Ni  Ni17  1  0.33427817  0.66022692  0.33043631  1
  Ni  Ni18  1  0.66433716  -0.00220723  -0.00290555  1
  Ni  Ni19  1  0.82664989  0.16129014  0.16474286  1
  Ni  Ni20  1  0.66361054  -0.00233875  0.32988125  1
  Cr  Cr21  1  0.66324715  0.33129714  0.99570085  1
  Ni  Ni22  1  0.82476993  0.49244026  0.16405745  1
  Ni  Ni23  1  0.66079447  0.32784768  0.32920103  1
  Cr  Cr24  1  0.66087190  0.66100100  0.00077516  1
  Cr  Cr25  1  0.82590508  0.83153586  0.16367677  1
  Cr  Cr26  1  0.65905888  0.65911629  0.32770624  1
  Cr  Cr27  1  0.16204833  0.16573664  0.49189800  1
  Cr  Cr28  1  -0.00275766  -0.00037852  0.66225038  1
  Cr  Cr29  1  0.16517264  0.16692660  0.83070675  1
  Cr  Cr30  1  0.16482813  0.49585423  0.49607258  1
  Ni  Ni31  1  0.99176488  0.32918017  0.66261528  1
  Cr  Cr32  1  0.16373291  0.49702349  0.82721319  1
  Cr  Cr33  1  0.16112575  0.82519772  0.49631586  1
  Ni  Ni34  1  -0.00352531  0.66201269  0.66394647  1
  Fe  Fe35  1  0.16329578  0.82769790  0.82693664  1
  Cr  Cr36  1  0.50145592  0.16414984  0.49590489  1
  Cr  Cr37  1  0.33223284  0.99227928  0.66166124  1
  Cr  Cr38  1  0.50093988  0.16535984  0.82992856  1
  Ni  Ni39  1  0.49683235  0.49739313  0.49630893  1
  Cr  Cr40  1  0.33255453  0.33012807  0.66165921  1
  Ni  Ni41  1  0.49533704  0.49766592  0.82722735  1
  Ni  Ni42  1  0.49777993  0.82658401  0.49561835  1
  Ni  Ni43  1  0.33326323  0.66166172  0.66181843  1
  Cr  Cr44  1  0.50028437  0.83057476  0.82919309  1
  Ni  Ni45  1  0.82658886  0.16267001  0.49604097  1
  Ni  Ni46  1  0.66497528  -0.00326577  0.66121085  1
  Ni  Ni47  1  0.82834757  0.16159784  0.82687468  1
  Cr  Cr48  1  0.82742474  0.49499146  0.49989004  1
  Ni  Ni49  1  0.66480346  0.32991887  0.66275787  1
  Cr  Cr50  1  0.82769035  0.49681087  0.82542845  1
  Cr  Cr51  1  0.82593973  0.83145775  0.49633437  1
  Ni  Ni52  1  0.65919636  0.66178724  0.66156013  1
  Cr  Cr53  1  0.82837077  0.83005782  0.82801089  1
" 