8305,Ni42Fe22Cr34_8,-226.085761541672, 181.2573567536,Ni42Fe22Cr34,"# generated using pymatgen
 data_Cr10Fe6Ni11
_symmetry_space_group_name_H-M   'P 1'
_cell_length_a   7.47777335
_cell_length_b   7.47777335
_cell_length_c   10.57516849
_cell_angle_alpha   90.00000000
_cell_angle_beta   90.00000000
_cell_angle_gamma   90.00000000
_symmetry_Int_Tables_number   1
_chemical_formula_structural   Cr10Fe6Ni11
_chemical_formula_sum   'Cr20 Fe12 Ni22'
_cell_volume   591.33269407
_cell_formula_units_Z   2
loop_
 _symmetry_equiv_pos_site_id
 _symmetry_equiv_pos_as_xyz
  1  'x, y, z'
loop_
 _atom_site_type_symbol
 _atom_site_label
 _atom_site_symmetry_multiplicity
 _atom_site_fract_x
 _atom_site_fract_y
 _atom_site_fract_z
 _atom_site_occupancy
  Fe  Fe0  1  0.00015554  0.99788909  0.00057104  1
  Fe  Fe1  1  0.16424097  0.16875182  0.16588615  1
  Cr  Cr2  1  0.00038410  -0.00052562  0.33319119  1
  Ni  Ni3  1  0.00052940  0.33475545  0.00066105  1
  Fe  Fe4  1  0.16471929  0.49922097  0.16483700  1
  Fe  Fe5  1  -0.00018387  0.33296670  0.33103512  1
  Ni  Ni6  1  0.00154253  0.66483788  -0.00024273  1
  Ni  Ni7  1  0.16243053  0.83182498  0.16562875  1
  Ni  Ni8  1  0.00078616  0.66525564  0.33126415  1
  Cr  Cr9  1  0.33104225  0.99809985  0.00080528  1
  Cr  Cr10  1  0.49713698  0.16967802  0.16843066  1
  Ni  Ni11  1  0.32770287  0.00204259  0.33265398  1
  Ni  Ni12  1  0.32738608  0.33645024  0.00135615  1
  Ni  Ni13  1  0.49828964  0.49660762  0.16648206  1
  Ni  Ni14  1  0.33054781  0.33268949  0.33256787  1
  Ni  Ni15  1  0.32695715  0.66428310  0.99833293  1
  Cr  Cr16  1  0.49461964  0.83068031  0.16557919  1
  Cr  Cr17  1  0.32885790  0.66368724  0.33281009  1
  Cr  Cr18  1  0.66947184  0.99895192  0.99860626  1
  Ni  Ni19  1  0.83729388  0.17000259  0.16487524  1
  Cr  Cr20  1  0.66779887  0.00117902  0.33133832  1
  Cr  Cr21  1  0.66833350  0.33251379  0.99903473  1
  Ni  Ni22  1  0.83610842  0.49740678  0.16726448  1
  Ni  Ni23  1  0.66683397  0.33274883  0.33220606  1
  Cr  Cr24  1  0.66702729  0.66634123  -0.00010258  1
  Fe  Fe25  1  0.83727145  0.83049717  0.16523541  1
  Cr  Cr26  1  0.66834344  0.66402931  0.33125114  1
  Fe  Fe27  1  0.16646683  0.16624396  0.49967982  1
  Fe  Fe28  1  0.00122341  0.99836054  0.66488920  1
  Cr  Cr29  1  0.16585932  0.16489077  0.83378445  1
  Fe  Fe30  1  0.16782778  0.49823583  0.49868230  1
  Cr  Cr31  1  -0.00059615  0.33224322  0.66610553  1
  Fe  Fe32  1  0.16483945  0.50129578  0.83456081  1
  Fe  Fe33  1  0.16519895  0.83325273  0.49965665  1
  Cr  Cr34  1  0.00174488  0.66644779  0.66553689  1
  Ni  Ni35  1  0.16441602  0.83200887  0.83161395  1
  Cr  Cr36  1  0.49772535  0.16943528  0.49870926  1
  Ni  Ni37  1  0.32937507  0.99781247  0.66505735  1
  Cr  Cr38  1  0.49690333  0.16785225  0.83051890  1
  Ni  Ni39  1  0.49618565  0.49543745  0.50029140  1
  Ni  Ni40  1  0.33144938  0.33398419  0.66391013  1
  Cr  Cr41  1  0.49728599  0.49827599  0.83110144  1
  Cr  Cr42  1  0.49629044  0.83184511  0.50041593  1
  Ni  Ni43  1  0.32955263  0.66597426  0.66662812  1
  Fe  Fe44  1  0.49583264  0.83140675  0.83169604  1
  Ni  Ni45  1  0.83520402  0.16656043  0.50080048  1
  Cr  Cr46  1  0.66934230  -0.00023892  0.66782423  1
  Fe  Fe47  1  0.83545921  0.16655937  0.83299126  1
  Cr  Cr48  1  0.83150378  0.49811015  0.49663618  1
  Ni  Ni49  1  0.66686215  0.33144877  0.66582825  1
  Ni  Ni50  1  0.83512505  0.49976929  0.83358601  1
  Ni  Ni51  1  0.83879630  0.83393206  0.49802454  1
  Cr  Cr52  1  0.66629053  0.66555057  0.66651373  1
  Ni  Ni53  1  0.83948061  0.83171156  0.83467074  1
" 