3142,Ni42Fe32Cr25_19,-229.590309173463, 189.328101504339,Ni42Fe32Cr25,"# generated using pymatgen
 data_Cr15Fe17Ni22
_symmetry_space_group_name_H-M   'P 1'
_cell_length_a   7.45391016
_cell_length_b   7.45391016
_cell_length_c   10.54142085
_cell_angle_alpha   90.00000000
_cell_angle_beta   90.00000000
_cell_angle_gamma   90.00000000
_symmetry_Int_Tables_number   1
_chemical_formula_structural   Cr15Fe17Ni22
_chemical_formula_sum   'Cr15 Fe17 Ni22'
_cell_volume   585.68952996
_cell_formula_units_Z   1
loop_
 _symmetry_equiv_pos_site_id
 _symmetry_equiv_pos_as_xyz
  1  'x, y, z'
loop_
 _atom_site_type_symbol
 _atom_site_label
 _atom_site_symmetry_multiplicity
 _atom_site_fract_x
 _atom_site_fract_y
 _atom_site_fract_z
 _atom_site_occupancy
  Cr  Cr0  1  1.00000256  0.00120225  1.00028780  1
  Ni  Ni1  1  0.16793031  0.16937767  0.16823637  1
  Ni  Ni2  1  1.00071419  0.99877969  0.33350861  1
  Ni  Ni3  1  0.00188605  0.33210170  0.00333228  1
  Ni  Ni4  1  0.16755805  0.49918863  0.16862737  1
  Ni  Ni5  1  0.00177770  0.33594323  0.33330321  1
  Cr  Cr6  1  1.00074037  0.66921376  0.00331043  1
  Ni  Ni7  1  0.16488471  0.83412314  0.17017555  1
  Ni  Ni8  1  0.00244024  0.66805865  0.33458001  1
  Cr  Cr9  1  0.33425745  0.99948696  0.00274626  1
  Ni  Ni10  1  0.49949896  0.16734921  0.16904684  1
  Fe  Fe11  1  0.33259942  1.00021575  0.33071219  1
  Fe  Fe12  1  0.33363904  0.33322663  0.00333692  1
  Ni  Ni13  1  0.49995267  0.50093314  0.16668000  1
  Fe  Fe14  1  0.33363195  0.33632751  0.33263554  1
  Cr  Cr15  1  0.33566000  0.66889198  1.00014476  1
  Fe  Fe16  1  0.50096366  0.83388438  0.16856575  1
  Fe  Fe17  1  0.33377878  0.66602049  0.33242931  1
  Ni  Ni18  1  0.66730009  0.99941890  0.00199430  1
  Fe  Fe19  1  0.83574434  0.16628424  0.16935046  1
  Ni  Ni20  1  0.66770807  0.99946824  0.33182167  1
  Cr  Cr21  1  0.66817875  0.33352266  0.00152902  1
  Fe  Fe22  1  0.83601327  0.50158553  0.16886180  1
  Cr  Cr23  1  0.66737843  0.33585972  0.33580880  1
  Ni  Ni24  1  0.66586798  0.66977732  0.00291982  1
  Ni  Ni25  1  0.83219794  0.83340075  0.16884270  1
  Fe  Fe26  1  0.67074069  0.66759660  0.33348771  1
  Cr  Cr27  1  0.16818527  0.16615662  0.49803212  1
  Fe  Fe28  1  1.00027542  0.99829484  0.66866547  1
  Ni  Ni29  1  0.16726679  0.16754970  0.83503495  1
  Fe  Fe30  1  0.16676638  0.50416240  0.49898660  1
  Cr  Cr31  1  0.99834638  0.33522693  0.66632498  1
  Cr  Cr32  1  0.16712907  0.49912580  0.83595450  1
  Fe  Fe33  1  0.16620885  0.83228719  0.49951373  1
  Ni  Ni34  1  0.00114246  0.67139692  0.66561820  1
  Fe  Fe35  1  0.16722619  0.83514290  0.83169784  1
  Cr  Cr36  1  0.49966329  0.16588857  0.50032455  1
  Fe  Fe37  1  0.33245556  0.99708789  0.66922511  1
  Cr  Cr38  1  0.50047704  0.16659285  0.83315192  1
  Ni  Ni39  1  0.50118464  0.50335569  0.50233738  1
  Cr  Cr40  1  0.33564048  0.33558942  0.66689890  1
  Fe  Fe41  1  0.50280070  0.50416849  0.83330606  1
  Cr  Cr42  1  0.50263457  0.83437029  0.49841362  1
  Fe  Fe43  1  0.33499221  0.66868621  0.66812082  1
  Ni  Ni44  1  0.50491245  0.83369554  0.83401391  1
  Cr  Cr45  1  0.83428888  0.16429610  0.50148785  1
  Fe  Fe46  1  0.67006007  0.99852723  0.66824156  1
  Fe  Fe47  1  0.83422832  0.16591580  0.83339109  1
  Ni  Ni48  1  0.83441843  0.50510835  0.50026897  1
  Ni  Ni49  1  0.66698288  0.33650635  0.66672845  1
  Cr  Cr50  1  0.83385288  0.50455210  0.83517260  1
  Ni  Ni51  1  0.83490137  0.83150480  0.50072891  1
  Ni  Ni52  1  0.66743824  0.66741119  0.66689467  1
  Ni  Ni53  1  0.83106279  0.83374836  0.83277702  1
" 