2486,Ni42Fe26Cr30_16,-228.662376124603, 183.662534031545,Ni42Fe26Cr30,"# generated using pymatgen
 data_Cr17Fe14Ni23
_symmetry_space_group_name_H-M   'P 1'
_cell_length_a   7.46495902
_cell_length_b   7.46495902
_cell_length_c   10.55704629
_cell_angle_alpha   90.00000000
_cell_angle_beta   90.00000000
_cell_angle_gamma   90.00000000
_symmetry_Int_Tables_number   1
_chemical_formula_structural   Cr17Fe14Ni23
_chemical_formula_sum   'Cr17 Fe14 Ni23'
_cell_volume   588.29787850
_cell_formula_units_Z   1
loop_
 _symmetry_equiv_pos_site_id
 _symmetry_equiv_pos_as_xyz
  1  'x, y, z'
loop_
 _atom_site_type_symbol
 _atom_site_label
 _atom_site_symmetry_multiplicity
 _atom_site_fract_x
 _atom_site_fract_y
 _atom_site_fract_z
 _atom_site_occupancy
  Fe  Fe0  1  0.99837674  0.00545154  0.99951921  1
  Ni  Ni1  1  0.16631275  0.16622546  0.16456885  1
  Ni  Ni2  1  0.99893863  0.99973167  0.33315824  1
  Ni  Ni3  1  0.00092634  0.33264455  0.99802772  1
  Fe  Fe4  1  0.16810613  0.49588738  0.16531895  1
  Cr  Cr5  1  0.00498044  0.33004892  0.33257685  1
  Fe  Fe6  1  0.99754867  0.66497734  0.99822100  1
  Cr  Cr7  1  0.16742741  0.83501938  0.16490933  1
  Cr  Cr8  1  0.00153384  0.66766568  0.33392277  1
  Fe  Fe9  1  0.33537467  0.00667924  0.00031434  1
  Ni  Ni10  1  0.50049255  0.16752410  0.16537125  1
  Cr  Cr11  1  0.33433135  0.00451716  0.33156575  1
  Ni  Ni12  1  0.33273756  0.33170285  0.99963393  1
  Cr  Cr13  1  0.49968668  0.49970638  0.16653992  1
  Ni  Ni14  1  0.33252409  0.33411796  0.33388138  1
  Cr  Cr15  1  0.33270081  0.66434039  0.99753126  1
  Fe  Fe16  1  0.50164348  0.83764683  0.16488409  1
  Ni  Ni17  1  0.33212432  0.66490778  0.33628444  1
  Ni  Ni18  1  0.66834285  0.00180761  0.99951766  1
  Ni  Ni19  1  0.83392552  0.16530267  0.16564283  1
  Ni  Ni20  1  0.66881732  0.00053938  0.33297371  1
  Ni  Ni21  1  0.66695897  0.32963595  0.99710587  1
  Cr  Cr22  1  0.83333785  0.49624786  0.16354840  1
  Cr  Cr23  1  0.66317532  0.32840415  0.33362440  1
  Fe  Fe24  1  0.66843187  0.66471791  0.99767439  1
  Fe  Fe25  1  0.83279008  0.83858567  0.16455198  1
  Cr  Cr26  1  0.66692774  0.67020378  0.33122370  1
  Ni  Ni27  1  0.16681308  0.16564560  0.50053205  1
  Ni  Ni28  1  0.99885271  0.00053037  0.66753186  1
  Ni  Ni29  1  0.16613078  0.16816239  0.83532405  1
  Fe  Fe30  1  0.16892973  0.49884394  0.50157349  1
  Fe  Fe31  1  0.00307797  0.33083299  0.66992068  1
  Fe  Fe32  1  0.16638093  0.49575802  0.83344460  1
  Ni  Ni33  1  0.16618896  0.83608973  0.50048521  1
  Cr  Cr34  1  0.99951425  0.66717465  0.66728449  1
  Cr  Cr35  1  0.16554172  0.83777009  0.83385939  1
  Fe  Fe36  1  0.49882286  0.16779600  0.50140429  1
  Cr  Cr37  1  0.33243878  0.00574552  0.66878092  1
  Ni  Ni38  1  0.50031149  0.17078712  0.83429763  1
  Ni  Ni39  1  0.49628159  0.49793483  0.50122648  1
  Ni  Ni40  1  0.33384693  0.33359759  0.66737058  1
  Ni  Ni41  1  0.50066993  0.49691616  0.83303418  1
  Cr  Cr42  1  0.49873844  0.83205325  0.50031798  1
  Fe  Fe43  1  0.33222748  0.66457925  0.66680095  1
  Cr  Cr44  1  0.49953087  0.83487753  0.83567060  1
  Cr  Cr45  1  0.83547326  0.16521449  0.50258644  1
  Fe  Fe46  1  0.66895490  0.00148811  0.66949567  1
  Ni  Ni47  1  0.83466856  0.16783459  0.83277447  1
  Cr  Cr48  1  0.82975633  0.49679456  0.50059114  1
  Fe  Fe49  1  0.66494475  0.33138921  0.66979374  1
  Ni  Ni50  1  0.83207717  0.49718243  0.83542598  1
  Ni  Ni51  1  0.83583453  0.83655196  0.49939776  1
  Cr  Cr52  1  0.66800744  0.66695762  0.67014132  1
  Ni  Ni53  1  0.83506475  0.83480660  0.83639602  1
" 