744,Ni42Fe37Cr20_10,-231.936690547188, 200.415528451744,Ni42Fe37Cr20,"# generated using pymatgen
 data_Cr6Fe10Ni11
_symmetry_space_group_name_H-M   'P 1'
_cell_length_a   7.44114973
_cell_length_b   7.44114973
_cell_length_c   10.52337487
_cell_angle_alpha   90.00000000
_cell_angle_beta   90.00000000
_cell_angle_gamma   90.00000000
_symmetry_Int_Tables_number   1
_chemical_formula_structural   Cr6Fe10Ni11
_chemical_formula_sum   'Cr12 Fe20 Ni22'
_cell_volume   582.68673078
_cell_formula_units_Z   2
loop_
 _symmetry_equiv_pos_site_id
 _symmetry_equiv_pos_as_xyz
  1  'x, y, z'
loop_
 _atom_site_type_symbol
 _atom_site_label
 _atom_site_symmetry_multiplicity
 _atom_site_fract_x
 _atom_site_fract_y
 _atom_site_fract_z
 _atom_site_occupancy
  Cr  Cr0  1  0.00232415  1.00066084  0.00188982  1
  Fe  Fe1  1  0.17036425  0.16666839  0.16831271  1
  Cr  Cr2  1  0.00175146  0.99992225  0.33415498  1
  Cr  Cr3  1  1.00146317  0.33612210  1.00140920  1
  Ni  Ni4  1  0.16784341  0.50456638  0.16927278  1
  Cr  Cr5  1  0.00269839  0.33483825  0.33393819  1
  Ni  Ni6  1  1.00084831  0.66818047  0.00358054  1
  Ni  Ni7  1  0.16836471  0.83099220  0.16936677  1
  Fe  Fe8  1  0.00204011  0.66642676  0.33424655  1
  Ni  Ni9  1  0.33441094  1.00089700  1.00109262  1
  Cr  Cr10  1  0.50322666  0.17009261  0.17154645  1
  Fe  Fe11  1  0.33330008  1.00152765  0.33489292  1
  Cr  Cr12  1  0.33562428  0.33621462  1.00130662  1
  Fe  Fe13  1  0.50210410  0.50350956  0.16988629  1
  Ni  Ni14  1  0.33485656  0.33835750  0.33494731  1
  Fe  Fe15  1  0.33372238  0.66760429  0.00267609  1
  Cr  Cr16  1  0.50123498  0.83542433  0.16820175  1
  Ni  Ni17  1  0.33512737  0.66635184  0.33532552  1
  Cr  Cr18  1  0.66970281  1.00142747  0.99841424  1
  Fe  Fe19  1  0.83403766  0.16878392  0.16873280  1
  Fe  Fe20  1  0.67045574  1.00156554  0.33533424  1
  Ni  Ni21  1  0.66799925  0.33804721  1.00125916  1
  Fe  Fe22  1  0.83317186  0.50405468  0.16773907  1
  Ni  Ni23  1  0.66850771  0.33890166  0.33480525  1
  Fe  Fe24  1  0.66997012  0.66703169  1.00075100  1
  Ni  Ni25  1  0.83566090  0.83168054  0.17019333  1
  Ni  Ni26  1  0.66851253  0.66715043  0.33487827  1
  Fe  Fe27  1  0.16823819  0.16844450  0.50390336  1
  Ni  Ni28  1  0.00230155  0.00188929  0.66883928  1
  Ni  Ni29  1  0.17001156  0.16950403  0.83266965  1
  Fe  Fe30  1  0.16974751  0.50158351  0.50207096  1
  Fe  Fe31  1  1.00078229  0.33414826  0.66909710  1
  Ni  Ni32  1  0.16725596  0.50247055  0.83351803  1
  Fe  Fe33  1  0.16724996  0.83527424  0.50228156  1
  Fe  Fe34  1  1.00055774  0.66749984  0.66889207  1
  Cr  Cr35  1  0.16844923  0.83291264  0.83529060  1
  Cr  Cr36  1  0.50251858  0.17028611  0.50023458  1
  Ni  Ni37  1  0.33230753  0.00286022  0.66930839  1
  Ni  Ni38  1  0.50111843  0.16922813  0.83361094  1
  Fe  Fe39  1  0.50298490  0.50134943  0.50155492  1
  Ni  Ni40  1  0.33449535  0.33648205  0.66868644  1
  Fe  Fe41  1  0.50280900  0.50108098  0.83366834  1
  Cr  Cr42  1  0.50089682  0.83459308  0.50088549  1
  Fe  Fe43  1  0.33613831  0.66704373  0.66743825  1
  Fe  Fe44  1  0.50113263  0.83390953  0.83438636  1
  Ni  Ni45  1  0.83480269  0.17068973  0.50226047  1
  Cr  Cr46  1  0.67057033  1.00086231  0.67051788  1
  Ni  Ni47  1  0.83395055  0.17121986  0.83369540  1
  Fe  Fe48  1  0.83253973  0.50188779  0.50285644  1
  Ni  Ni49  1  0.66780049  0.33801935  0.66928683  1
  Ni  Ni50  1  0.83556764  0.50236789  0.83501897  1
  Fe  Fe51  1  0.83590677  0.83378238  0.50220498  1
  Ni  Ni52  1  0.66897398  0.66609257  0.66974510  1
  Ni  Ni53  1  0.83553813  0.83148752  0.83389282  1
" 