6380,Ni42Fe42Cr14_7,-233.846086538188, 206.982961746476,Ni42Fe42Cr14,"# generated using pymatgen
 data_Cr9Fe23Ni22
_symmetry_space_group_name_H-M   'P 1'
_cell_length_a   7.42694753
_cell_length_b   7.42694753
_cell_length_c   10.50328992
_cell_angle_alpha   90.00000000
_cell_angle_beta   90.00000000
_cell_angle_gamma   90.00000000
_symmetry_Int_Tables_number   1
_chemical_formula_structural   Cr9Fe23Ni22
_chemical_formula_sum   'Cr9 Fe23 Ni22'
_cell_volume   579.35674053
_cell_formula_units_Z   1
loop_
 _symmetry_equiv_pos_site_id
 _symmetry_equiv_pos_as_xyz
  1  'x, y, z'
loop_
 _atom_site_type_symbol
 _atom_site_label
 _atom_site_symmetry_multiplicity
 _atom_site_fract_x
 _atom_site_fract_y
 _atom_site_fract_z
 _atom_site_occupancy
  Ni  Ni0  1  0.99898053  1.00197486  0.00305618  1
  Fe  Fe1  1  0.16814245  0.16687442  0.16969354  1
  Fe  Fe2  1  1.00160271  1.00165945  0.33420124  1
  Fe  Fe3  1  1.00113327  0.33581754  0.00422479  1
  Fe  Fe4  1  0.16779911  0.50415995  0.16824868  1
  Cr  Cr5  1  0.00316751  0.33660311  0.33564569  1
  Ni  Ni6  1  0.00307618  0.67087001  0.00335777  1
  Ni  Ni7  1  0.16782786  0.83636045  0.16803400  1
  Ni  Ni8  1  1.00038348  0.66968031  0.33489985  1
  Fe  Fe9  1  0.33507278  0.99856061  0.00306572  1
  Cr  Cr10  1  0.50341815  0.16935929  0.17076699  1
  Ni  Ni11  1  0.33736798  0.00375966  0.33527680  1
  Cr  Cr12  1  0.33558466  0.33701050  1.00235172  1
  Cr  Cr13  1  0.50597643  0.50297557  0.17083331  1
  Ni  Ni14  1  0.33549290  0.33484390  0.33825081  1
  Ni  Ni15  1  0.33534018  0.67013411  1.00059325  1
  Fe  Fe16  1  0.50301306  0.83695314  0.16914043  1
  Cr  Cr17  1  0.33548086  0.66901148  0.33729575  1
  Fe  Fe18  1  0.67049877  1.00141869  1.00138498  1
  Ni  Ni19  1  0.83589874  0.16894172  0.16821272  1
  Ni  Ni20  1  0.67068077  1.00202794  0.33672294  1
  Fe  Fe21  1  0.67225259  0.33484224  1.00266020  1
  Fe  Fe22  1  0.83689950  0.50369180  0.16948970  1
  Ni  Ni23  1  0.67044848  0.33491012  0.33806319  1
  Fe  Fe24  1  0.66966314  0.67215272  0.00325903  1
  Fe  Fe25  1  0.83576229  0.83651851  0.16953753  1
  Ni  Ni26  1  0.67194349  0.67140930  0.33666188  1
  Ni  Ni27  1  0.17116261  0.16690792  0.50090295  1
  Fe  Fe28  1  1.00158211  1.00255842  0.67006751  1
  Cr  Cr29  1  0.16864776  0.16572303  0.83708785  1
  Fe  Fe30  1  0.16793220  0.50278735  0.50347324  1
  Fe  Fe31  1  1.00135174  0.33447842  0.66715509  1
  Fe  Fe32  1  0.16806201  0.50495074  0.83595732  1
  Cr  Cr33  1  0.16802540  0.83875620  0.50414866  1
  Fe  Fe34  1  1.00202477  0.67045090  0.66917777  1
  Fe  Fe35  1  0.16836608  0.83489427  0.83669315  1
  Ni  Ni36  1  0.50195361  0.16970540  0.50120758  1
  Ni  Ni37  1  0.33940731  1.00205004  0.67065978  1
  Ni  Ni38  1  0.50420257  0.16904654  0.83698470  1
  Ni  Ni39  1  0.50548962  0.50186790  0.50240175  1
  Cr  Cr40  1  0.33600243  0.33676519  0.66762380  1
  Fe  Fe41  1  0.50358925  0.50392646  0.83574554  1
  Fe  Fe42  1  0.50490863  0.83757711  0.50372694  1
  Ni  Ni43  1  0.33607098  0.66935500  0.67138608  1
  Fe  Fe44  1  0.50409371  0.83714277  0.83555512  1
  Fe  Fe45  1  0.83484867  0.16822415  0.50322263  1
  Ni  Ni46  1  0.67124650  0.00294998  0.66977618  1
  Ni  Ni47  1  0.83432833  0.16865545  0.83541384  1
  Ni  Ni48  1  0.83354673  0.50484508  0.50234387  1
  Fe  Fe49  1  0.66886209  0.33423237  0.66811338  1
  Cr  Cr50  1  0.83524797  0.50356286  0.83627455  1
  Ni  Ni51  1  0.83669888  0.83452230  0.50175392  1
  Fe  Fe52  1  0.66776471  0.67159933  0.66766482  1
  Ni  Ni53  1  0.83745573  0.83572369  0.83633354  1
" 