8841,Ni42Fe5Cr52_2,-217.312695080002, 142.089181489832,Ni42Fe5Cr52,"# generated using pymatgen
 data_Cr15FeNi11
_symmetry_space_group_name_H-M   'P 1'
_cell_length_a   7.52892271
_cell_length_b   7.52892271
_cell_length_c   10.64750460
_cell_angle_alpha   90.00000000
_cell_angle_beta   90.00000000
_cell_angle_gamma   90.00000000
_symmetry_Int_Tables_number   1
_chemical_formula_structural   Cr15FeNi11
_chemical_formula_sum   'Cr30 Fe2 Ni22'
_cell_volume   603.55036031
_cell_formula_units_Z   2
loop_
 _symmetry_equiv_pos_site_id
 _symmetry_equiv_pos_as_xyz
  1  'x, y, z'
loop_
 _atom_site_type_symbol
 _atom_site_label
 _atom_site_symmetry_multiplicity
 _atom_site_fract_x
 _atom_site_fract_y
 _atom_site_fract_z
 _atom_site_occupancy
  Ni  Ni0  1  -0.00311153  -0.00226026  0.99457367  1
  Cr  Cr1  1  0.16182352  0.16094137  0.16450701  1
  Cr  Cr2  1  0.99485683  -0.00224613  0.32935905  1
  Cr  Cr3  1  0.99437038  0.32737713  0.99477963  1
  Cr  Cr4  1  0.16778590  0.49510947  0.16511233  1
  Cr  Cr5  1  0.99271387  0.32644498  0.33006097  1
  Cr  Cr6  1  -0.00169967  0.66102542  0.99292991  1
  Cr  Cr7  1  0.16432570  0.83085027  0.16043852  1
  Cr  Cr8  1  0.99223518  0.66310662  0.33184398  1
  Cr  Cr9  1  0.32928403  0.99442747  0.99504857  1
  Cr  Cr10  1  0.49662359  0.16570555  0.16349190  1
  Ni  Ni11  1  0.33209862  -0.00241968  0.33089743  1
  Cr  Cr12  1  0.32968459  0.32959263  0.99326558  1
  Ni  Ni13  1  0.49858032  0.49747869  0.16233965  1
  Fe  Fe14  1  0.33315589  0.32597492  0.33061992  1
  Ni  Ni15  1  0.33221533  0.66233198  0.99565852  1
  Ni  Ni16  1  0.49657081  0.82583502  0.16289004  1
  Cr  Cr17  1  0.33310686  0.66719760  0.32748413  1
  Cr  Cr18  1  0.66046164  -0.00162128  -0.00300767  1
  Ni  Ni19  1  0.82714016  0.16360878  0.16120789  1
  Cr  Cr20  1  0.65987158  -0.00406480  0.33161887  1
  Ni  Ni21  1  0.66195989  0.33116865  -0.00387911  1
  Cr  Cr22  1  0.82448334  0.49447539  0.16247383  1
  Ni  Ni23  1  0.66096377  0.32815574  0.32850634  1
  Ni  Ni24  1  0.65918117  0.66006343  -0.00232588  1
  Cr  Cr25  1  0.82779443  0.83062979  0.16081948  1
  Ni  Ni26  1  0.65870130  0.66208484  0.32910265  1
  Ni  Ni27  1  0.16475871  0.16129804  0.49551946  1
  Ni  Ni28  1  -0.00314926  -0.00191525  0.66130387  1
  Ni  Ni29  1  0.16298501  0.16092608  0.82743723  1
  Cr  Cr30  1  0.16614628  0.49159018  0.49518989  1
  Cr  Cr31  1  -0.00272271  0.32784724  0.66416950  1
  Ni  Ni32  1  0.16410336  0.49515633  0.82855189  1
  Cr  Cr33  1  0.16217306  0.83212125  0.49594128  1
  Cr  Cr34  1  0.99582943  0.66263866  0.66331853  1
  Ni  Ni35  1  0.16138025  0.83132049  0.83085923  1
  Ni  Ni36  1  0.49531955  0.16169615  0.49561830  1
  Cr  Cr37  1  0.33204490  -0.00247989  0.66270752  1
  Ni  Ni38  1  0.49407663  0.16431988  0.82788292  1
  Cr  Cr39  1  0.49511477  0.49355636  0.49399522  1
  Ni  Ni40  1  0.32890835  0.32414367  0.66261146  1
  Cr  Cr41  1  0.49731832  0.49423373  0.83061069  1
  Ni  Ni42  1  0.49875025  0.83230848  0.49441715  1
  Cr  Cr43  1  0.32912304  0.66238473  0.66506632  1
  Cr  Cr44  1  0.49711538  0.83025856  0.83033051  1
  Ni  Ni45  1  0.82828116  0.15964044  0.49645800  1
  Fe  Fe46  1  0.66290161  -0.00210132  0.65975744  1
  Cr  Cr47  1  0.82744499  0.16098095  0.83084824  1
  Cr  Cr48  1  0.82661174  0.49588458  0.49468322  1
  Cr  Cr49  1  0.66149515  0.32580418  0.66384909  1
  Ni  Ni50  1  0.82856098  0.49616704  0.83187973  1
  Ni  Ni51  1  0.82573465  0.83393851  0.49726784  1
  Cr  Cr52  1  0.66269721  0.66499552  0.65991046  1
  Cr  Cr53  1  0.82992505  0.83041719  0.82810318  1
" 