306,Ni42Fe58_0,-242.919588112477, 225.150115118552,Ni42Fe58,"# generated using pymatgen
 data_Fe11Ni16
_symmetry_space_group_name_H-M   'P 1'
_cell_length_a   7.40660978
_cell_length_b   7.40660978
_cell_length_c   10.47452801
_cell_angle_alpha   90.00000000
_cell_angle_beta   90.00000000
_cell_angle_gamma   90.00000000
_symmetry_Int_Tables_number   1
_chemical_formula_structural   Fe11Ni16
_chemical_formula_sum   'Fe22 Ni32'
_cell_volume   574.61027979
_cell_formula_units_Z   2
loop_
 _symmetry_equiv_pos_site_id
 _symmetry_equiv_pos_as_xyz
  1  'x, y, z'
loop_
 _atom_site_type_symbol
 _atom_site_label
 _atom_site_symmetry_multiplicity
 _atom_site_fract_x
 _atom_site_fract_y
 _atom_site_fract_z
 _atom_site_occupancy
  Fe  Fe0  1  0.00449901  1.00352266  1.00337667  1
  Fe  Fe1  1  0.17120431  0.17162466  0.17071126  1
  Ni  Ni2  1  1.00349107  0.00408158  0.33786338  1
  Fe  Fe3  1  0.00478696  0.33804446  1.00344573  1
  Ni  Ni4  1  0.17141414  0.50475472  0.17135683  1
  Ni  Ni5  1  1.00394070  0.33762671  0.33712598  1
  Ni  Ni6  1  0.00507578  0.67026024  1.00313789  1
  Fe  Fe7  1  0.17120346  0.83611085  0.17061440  1
  Ni  Ni8  1  0.00460544  0.67053189  0.33816495  1
  Ni  Ni9  1  0.33756978  1.00326031  1.00353224  1
  Fe  Fe10  1  0.50383699  0.17177105  0.17075465  1
  Fe  Fe11  1  0.33755254  1.00387074  0.33797193  1
  Fe  Fe12  1  0.33751405  0.33829527  0.00425083  1
  Ni  Ni13  1  0.50349601  0.50407902  0.17148167  1
  Ni  Ni14  1  0.33783229  0.33841911  0.33739996  1
  Ni  Ni15  1  0.33646679  0.67134012  1.00315560  1
  Fe  Fe16  1  0.50340779  0.83639053  0.17134997  1
  Ni  Ni17  1  0.33750248  0.67007712  0.33752113  1
  Fe  Fe18  1  0.67053812  1.00379402  1.00358496  1
  Fe  Fe19  1  0.83719944  0.17180929  0.17144808  1
  Ni  Ni20  1  0.67092234  0.00440911  0.33763285  1
  Ni  Ni21  1  0.67101028  0.33730402  1.00313956  1
  Fe  Fe22  1  0.83748035  0.50407802  0.17110183  1
  Ni  Ni23  1  0.67046869  0.33730553  0.33850144  1
  Fe  Fe24  1  0.67028689  0.67036179  0.00411596  1
  Fe  Fe25  1  0.83762737  0.83635185  0.17085320  1
  Ni  Ni26  1  0.67013037  0.67052471  0.33709431  1
  Fe  Fe27  1  0.17078115  0.17078649  0.50453458  1
  Ni  Ni28  1  1.00400591  0.00474504  0.67177796  1
  Ni  Ni29  1  0.17070138  0.16964040  0.83773566  1
  Fe  Fe30  1  0.17099564  0.50383209  0.50331054  1
  Ni  Ni31  1  1.00365116  0.33745876  0.67154662  1
  Ni  Ni32  1  0.17100935  0.50485272  0.83764655  1
  Ni  Ni33  1  0.17091481  0.83774804  0.50281897  1
  Fe  Fe34  1  0.00408153  0.67173264  0.67137371  1
  Ni  Ni35  1  0.16992996  0.83774835  0.83851601  1
  Ni  Ni36  1  0.50508042  0.17056960  0.50281729  1
  Ni  Ni37  1  0.33792453  1.00363897  0.67072293  1
  Ni  Ni38  1  0.50432046  0.17106772  0.83786711  1
  Ni  Ni39  1  0.50474299  0.50392728  0.50290305  1
  Fe  Fe40  1  0.33741768  0.33600718  0.67077987  1
  Ni  Ni41  1  0.50400291  0.50341595  0.83785236  1
  Ni  Ni42  1  0.50287795  0.83774134  0.50324963  1
  Fe  Fe43  1  0.33695149  0.67169255  0.67068030  1
  Fe  Fe44  1  0.50365619  0.83789776  0.83702409  1
  Ni  Ni45  1  0.83703556  0.17102020  0.50346368  1
  Ni  Ni46  1  0.67030794  0.00431117  0.67167380  1
  Ni  Ni47  1  0.83721983  0.16999028  0.83785030  1
  Ni  Ni48  1  0.83703045  0.50313419  0.50262779  1
  Fe  Fe49  1  0.67116825  0.33607660  0.67088769  1
  Ni  Ni50  1  0.83722846  0.50418605  0.83860279  1
  Fe  Fe51  1  0.83635801  0.83783639  0.50397816  1
  Fe  Fe52  1  0.67120566  0.67119826  0.67028952  1
  Ni  Ni53  1  0.83865647  0.83806418  0.83710140  1
" 