5644,Ni42Fe32Cr25_15,-229.688981180953, 191.423402092344,Ni42Fe32Cr25,"# generated using pymatgen
 data_Cr15Fe17Ni22
_symmetry_space_group_name_H-M   'P 1'
_cell_length_a   7.45647975
_cell_length_b   7.45647975
_cell_length_c   10.54505479
_cell_angle_alpha   90.00000000
_cell_angle_beta   90.00000000
_cell_angle_gamma   90.00000000
_symmetry_Int_Tables_number   1
_chemical_formula_structural   Cr15Fe17Ni22
_chemical_formula_sum   'Cr15 Fe17 Ni22'
_cell_volume   586.29545328
_cell_formula_units_Z   1
loop_
 _symmetry_equiv_pos_site_id
 _symmetry_equiv_pos_as_xyz
  1  'x, y, z'
loop_
 _atom_site_type_symbol
 _atom_site_label
 _atom_site_symmetry_multiplicity
 _atom_site_fract_x
 _atom_site_fract_y
 _atom_site_fract_z
 _atom_site_occupancy
  Ni  Ni0  1  0.99858199  0.00115804  0.00084680  1
  Ni  Ni1  1  0.16664600  0.16900200  0.16709950  1
  Fe  Fe2  1  0.00128593  0.00119728  0.33337746  1
  Cr  Cr3  1  0.00164776  0.33239138  0.99897295  1
  Ni  Ni4  1  0.16817939  0.49726530  0.16992940  1
  Ni  Ni5  1  0.00136058  0.33517380  0.33177616  1
  Cr  Cr6  1  0.99874383  0.66723986  0.00272490  1
  Cr  Cr7  1  0.16637468  0.83431297  0.16866166  1
  Ni  Ni8  1  0.99976744  0.66814118  0.33397903  1
  Cr  Cr9  1  0.33322876  0.00294428  0.00211398  1
  Fe  Fe10  1  0.50060178  0.16644628  0.16800395  1
  Ni  Ni11  1  0.33566959  0.00301717  0.33371344  1
  Ni  Ni12  1  0.33441755  0.33369338  0.00099396  1
  Cr  Cr13  1  0.50020489  0.49929732  0.16544662  1
  Ni  Ni14  1  0.33443520  0.33056777  0.33382542  1
  Fe  Fe15  1  0.33400443  0.66489115  1.00047463  1
  Ni  Ni16  1  0.50389203  0.83529857  0.16577064  1
  Cr  Cr17  1  0.33291268  0.66888997  0.33607162  1
  Fe  Fe18  1  0.67018452  0.00202042  1.00059891  1
  Fe  Fe19  1  0.83385457  0.16724102  0.16731312  1
  Fe  Fe20  1  0.66645662  0.00151752  0.33341857  1
  Ni  Ni21  1  0.66766633  0.33459436  0.00091386  1
  Fe  Fe22  1  0.83508683  0.50029712  0.16898310  1
  Ni  Ni23  1  0.66603533  0.33183228  0.33311441  1
  Fe  Fe24  1  0.66718178  0.66905100  1.00000104  1
  Ni  Ni25  1  0.83248664  0.83725347  0.16788663  1
  Cr  Cr26  1  0.66886941  0.66857970  0.33487561  1
  Cr  Cr27  1  0.16710371  0.16670269  0.50263169  1
  Ni  Ni28  1  1.00057932  0.99932717  0.66911282  1
  Fe  Fe29  1  0.16622651  0.16769841  0.83279629  1
  Fe  Fe30  1  0.16753189  0.50012886  0.49986268  1
  Fe  Fe31  1  0.00208479  0.33163360  0.66983944  1
  Ni  Ni32  1  0.17192772  0.49916652  0.83210197  1
  Ni  Ni33  1  0.16670678  0.83526514  0.50027037  1
  Cr  Cr34  1  1.00008193  0.66708230  0.66548763  1
  Cr  Cr35  1  0.16764991  0.83421557  0.83416805  1
  Fe  Fe36  1  0.50006333  0.16633908  0.50052780  1
  Ni  Ni37  1  0.33468621  0.00081048  0.66658596  1
  Cr  Cr38  1  0.50152223  0.16832973  0.83370376  1
  Ni  Ni39  1  0.49749158  0.49805826  0.50167842  1
  Ni  Ni40  1  0.33317404  0.33405670  0.66735178  1
  Fe  Fe41  1  0.49983852  0.50170527  0.83537728  1
  Fe  Fe42  1  0.50031254  0.83688888  0.50094502  1
  Fe  Fe43  1  0.33464489  0.66788645  0.66579182  1
  Fe  Fe44  1  0.50160685  0.83419432  0.83475393  1
  Cr  Cr45  1  0.83357175  0.16505370  0.50090523  1
  Ni  Ni46  1  0.66693635  0.99898430  0.66716186  1
  Ni  Ni47  1  0.83375452  0.16488741  0.83351353  1
  Cr  Cr48  1  0.83387675  0.49878996  0.49834974  1
  Cr  Cr49  1  0.66682703  0.33382815  0.66724687  1
  Fe  Fe50  1  0.83405751  0.50022206  0.83478896  1
  Ni  Ni51  1  0.83606607  0.83696625  0.50009769  1
  Cr  Cr52  1  0.66757221  0.66906260  0.66763772  1
  Ni  Ni53  1  0.83259488  0.83766789  0.83469064  1
" 