4538,Ni42Fe5Cr52_17,-217.467441256818, 148.103568863554,Ni42Fe5Cr52,"# generated using pymatgen
 data_Cr15FeNi11
_symmetry_space_group_name_H-M   'P 1'
_cell_length_a   7.52423669
_cell_length_b   7.52423669
_cell_length_c   10.64087757
_cell_angle_alpha   90.00000000
_cell_angle_beta   90.00000000
_cell_angle_gamma   90.00000000
_symmetry_Int_Tables_number   1
_chemical_formula_structural   Cr15FeNi11
_chemical_formula_sum   'Cr30 Fe2 Ni22'
_cell_volume   602.42410792
_cell_formula_units_Z   2
loop_
 _symmetry_equiv_pos_site_id
 _symmetry_equiv_pos_as_xyz
  1  'x, y, z'
loop_
 _atom_site_type_symbol
 _atom_site_label
 _atom_site_symmetry_multiplicity
 _atom_site_fract_x
 _atom_site_fract_y
 _atom_site_fract_z
 _atom_site_occupancy
  Ni  Ni0  1  0.99276371  0.99346035  -0.00301151  1
  Cr  Cr1  1  0.16137294  0.16222774  0.16575123  1
  Cr  Cr2  1  0.99601883  0.99068952  0.33052978  1
  Cr  Cr3  1  0.99446135  0.33233974  -0.00320487  1
  Cr  Cr4  1  0.16387862  0.49470813  0.16240589  1
  Ni  Ni5  1  0.99519954  0.33308213  0.33250364  1
  Cr  Cr6  1  -0.00268122  0.66605725  -0.00130968  1
  Ni  Ni7  1  0.16331282  0.82935832  0.16242542  1
  Cr  Cr8  1  0.99593052  0.66254416  0.32863847  1
  Cr  Cr9  1  0.33072940  0.99491814  -0.00274779  1
  Cr  Cr10  1  0.49542640  0.16211713  0.16450565  1
  Ni  Ni11  1  0.33024809  0.99238439  0.32968268  1
  Ni  Ni12  1  0.32968130  0.33138063  0.99420427  1
  Cr  Cr13  1  0.49508830  0.49851113  0.16465440  1
  Ni  Ni14  1  0.32790116  0.33218123  0.33041094  1
  Ni  Ni15  1  0.32802357  0.66167081  -0.00363812  1
  Cr  Cr16  1  0.49707636  0.82837775  0.16649072  1
  Ni  Ni17  1  0.32607216  0.66403930  0.33026738  1
  Ni  Ni18  1  0.66597535  0.99527712  0.99461606  1
  Cr  Cr19  1  0.83199798  0.16176793  0.16325465  1
  Ni  Ni20  1  0.66461591  0.99401570  0.33031200  1
  Cr  Cr21  1  0.66039878  0.32767157  0.99532342  1
  Ni  Ni22  1  0.82956106  0.49834234  0.16592690  1
  Cr  Cr23  1  0.66502533  0.33048974  0.33025307  1
  Cr  Cr24  1  0.66534944  0.66414935  0.00038479  1
  Ni  Ni25  1  0.82908511  0.83109407  0.16236000  1
  Fe  Fe26  1  0.66529958  0.66461460  0.32998331  1
  Cr  Cr27  1  0.16106587  0.16311837  0.49090535  1
  Cr  Cr28  1  0.99482617  0.99397108  0.66059401  1
  Cr  Cr29  1  0.15807595  0.16374345  0.83208815  1
  Ni  Ni30  1  0.16325483  0.49824916  0.49502314  1
  Cr  Cr31  1  0.99532074  0.33113505  0.65931775  1
  Ni  Ni32  1  0.16623718  0.49651983  0.83016193  1
  Ni  Ni33  1  0.16386899  0.82598005  0.49483788  1
  Cr  Cr34  1  -0.00239772  0.66371279  0.66077354  1
  Cr  Cr35  1  0.16174282  0.82770525  0.82993115  1
  Cr  Cr36  1  0.49579795  0.16158908  0.49248170  1
  Cr  Cr37  1  0.32906592  0.99455569  0.66051457  1
  Fe  Fe38  1  0.49625116  0.16154089  0.83142132  1
  Cr  Cr39  1  0.49640065  0.49994480  0.49573101  1
  Cr  Cr40  1  0.32962394  0.32974198  0.66432787  1
  Cr  Cr41  1  0.49536448  0.50022003  0.82887223  1
  Cr  Cr42  1  0.49681400  0.82731911  0.49489983  1
  Ni  Ni43  1  0.32801633  0.66140538  0.66147556  1
  Cr  Cr44  1  0.49878649  0.82613132  0.82766697  1
  Ni  Ni45  1  0.82969736  0.16231267  0.49408468  1
  Cr  Cr46  1  0.66382984  -0.00238199  0.66373911  1
  Ni  Ni47  1  0.82919476  0.15942375  0.83150269  1
  Ni  Ni48  1  0.83054728  0.49794617  0.49508033  1
  Cr  Cr49  1  0.66331174  0.32810078  0.66347661  1
  Cr  Cr50  1  0.83093265  0.49939498  0.82828732  1
  Ni  Ni51  1  0.82828877  0.82870426  0.49606091  1
  Ni  Ni52  1  0.66537092  0.66415621  0.66007712  1
  Ni  Ni53  1  0.82768107  0.83307211  0.83047709  1
" 