5683,Ni42Fe5Cr52_8,-217.317642353786, 143.4712660509,Ni42Fe5Cr52,"# generated using pymatgen
 data_Cr15FeNi11
_symmetry_space_group_name_H-M   'P 1'
_cell_length_a   7.53203474
_cell_length_b   7.53203474
_cell_length_c   10.65190568
_cell_angle_alpha   90.00000000
_cell_angle_beta   90.00000000
_cell_angle_gamma   90.00000000
_symmetry_Int_Tables_number   1
_chemical_formula_structural   Cr15FeNi11
_chemical_formula_sum   'Cr30 Fe2 Ni22'
_cell_volume   604.29909056
_cell_formula_units_Z   2
loop_
 _symmetry_equiv_pos_site_id
 _symmetry_equiv_pos_as_xyz
  1  'x, y, z'
loop_
 _atom_site_type_symbol
 _atom_site_label
 _atom_site_symmetry_multiplicity
 _atom_site_fract_x
 _atom_site_fract_y
 _atom_site_fract_z
 _atom_site_occupancy
  Ni  Ni0  1  -0.00135983  -0.00136467  0.99459927  1
  Ni  Ni1  1  0.16278522  0.16011988  0.16050138  1
  Cr  Cr2  1  -0.00362006  -0.00153958  0.33040349  1
  Ni  Ni3  1  0.99476414  0.32567993  0.99432761  1
  Cr  Cr4  1  0.16211082  0.49509627  0.16256780  1
  Cr  Cr5  1  0.99483001  0.32523262  0.32839262  1
  Ni  Ni6  1  -0.00417882  0.66274321  0.99279485  1
  Cr  Cr7  1  0.16472602  0.83163587  0.16116548  1
  Cr  Cr8  1  0.99553700  0.66339721  0.33068305  1
  Ni  Ni9  1  0.32546600  -0.00357557  -0.00333011  1
  Ni  Ni10  1  0.49492304  0.16110172  0.16444011  1
  Ni  Ni11  1  0.33036307  -0.00393030  0.32772312  1
  Cr  Cr12  1  0.32768980  0.32677067  -0.00280781  1
  Ni  Ni13  1  0.49713526  0.49675590  0.16602809  1
  Cr  Cr14  1  0.33027714  0.32760133  0.32828549  1
  Cr  Cr15  1  0.32886048  0.66416363  -0.00337134  1
  Ni  Ni16  1  0.49360191  0.82924469  0.16440497  1
  Ni  Ni17  1  0.33373502  0.66412104  0.32700690  1
  Cr  Cr18  1  0.66268357  -0.00267201  -0.00361271  1
  Ni  Ni19  1  0.82935487  0.16364688  0.16131656  1
  Cr  Cr20  1  0.66240481  -0.00275397  0.32991659  1
  Cr  Cr21  1  0.66442503  0.32861410  -0.00315835  1
  Cr  Cr22  1  0.82795423  0.49361182  0.16203964  1
  Ni  Ni23  1  0.66099091  0.32868375  0.32785943  1
  Cr  Cr24  1  0.66215164  0.66109882  -0.00396432  1
  Cr  Cr25  1  0.82853058  0.82982685  0.16250757  1
  Ni  Ni26  1  0.65857511  0.66139153  0.32799153  1
  Ni  Ni27  1  0.16187495  0.16247803  0.49690085  1
  Cr  Cr28  1  0.99529512  -0.00311122  0.66124993  1
  Ni  Ni29  1  0.15926099  0.16123507  0.82954885  1
  Cr  Cr30  1  0.16209312  0.49408918  0.49757864  1
  Ni  Ni31  1  -0.00328627  0.32819151  0.66351831  1
  Cr  Cr32  1  0.15818634  0.49459988  0.82697004  1
  Cr  Cr33  1  0.16267365  0.82963689  0.49455583  1
  Ni  Ni34  1  0.99500864  0.66092136  0.66370804  1
  Ni  Ni35  1  0.16020767  0.83083297  0.83079925  1
  Fe  Fe36  1  0.49451496  0.16347187  0.49439143  1
  Cr  Cr37  1  0.32712843  -0.00137791  0.66291858  1
  Cr  Cr38  1  0.49415362  0.16170566  0.82740939  1
  Cr  Cr39  1  0.49570961  0.49458163  0.49423627  1
  Ni  Ni40  1  0.32574568  0.32660884  0.66117991  1
  Cr  Cr41  1  0.49673369  0.49438342  0.82727048  1
  Cr  Cr42  1  0.49602217  0.82993348  0.49330944  1
  Cr  Cr43  1  0.32663533  0.66109991  0.66417814  1
  Cr  Cr44  1  0.49323063  0.83103551  0.83032254  1
  Ni  Ni45  1  0.82965073  0.16315203  0.49576592  1
  Cr  Cr46  1  0.66461842  -0.00299685  0.66070070  1
  Ni  Ni47  1  0.83388759  0.16534783  0.82989688  1
  Cr  Cr48  1  0.82917989  0.49494416  0.49573407  1
  Cr  Cr49  1  0.66346943  0.32736939  0.66317924  1
  Ni  Ni50  1  0.83319998  0.49386769  0.82868702  1
  Fe  Fe51  1  0.82959237  0.82919006  0.49564911  1
  Cr  Cr52  1  0.66515335  0.66274555  0.66352533  1
  Cr  Cr53  1  0.83238431  0.82840381  0.82914630  1
" 