3622,Ni42Fe58_4,-242.184192756993, 224.462448817944,Ni42Fe58,"# generated using pymatgen
 data_Fe11Ni16
_symmetry_space_group_name_H-M   'P 1'
_cell_length_a   7.40329895
_cell_length_b   7.40329895
_cell_length_c   10.46984579
_cell_angle_alpha   90.00000000
_cell_angle_beta   90.00000000
_cell_angle_gamma   90.00000000
_symmetry_Int_Tables_number   1
_chemical_formula_structural   Fe11Ni16
_chemical_formula_sum   'Fe22 Ni32'
_cell_volume   573.84005452
_cell_formula_units_Z   2
loop_
 _symmetry_equiv_pos_site_id
 _symmetry_equiv_pos_as_xyz
  1  'x, y, z'
loop_
 _atom_site_type_symbol
 _atom_site_label
 _atom_site_symmetry_multiplicity
 _atom_site_fract_x
 _atom_site_fract_y
 _atom_site_fract_z
 _atom_site_occupancy
  Fe  Fe0  1  0.00458505  1.00360471  0.00480041  1
  Fe  Fe1  1  0.16982708  0.17069061  0.17098414  1
  Fe  Fe2  1  1.00316459  0.00465660  0.33784247  1
  Fe  Fe3  1  1.00401978  0.33819895  0.00470500  1
  Fe  Fe4  1  0.16947563  0.50472091  0.17070333  1
  Ni  Ni5  1  1.00406767  0.33734772  0.33772943  1
  Ni  Ni6  1  1.00420985  0.67079735  0.00518890  1
  Ni  Ni7  1  0.17093822  0.83772744  0.17096932  1
  Fe  Fe8  1  1.00350063  0.67057964  0.33749588  1
  Ni  Ni9  1  0.33754145  0.00500012  1.00408115  1
  Fe  Fe10  1  0.50539075  0.17050526  0.16981829  1
  Fe  Fe11  1  0.33733892  0.00456237  0.33770063  1
  Ni  Ni12  1  0.33720651  0.33676813  0.00499855  1
  Fe  Fe13  1  0.50567185  0.50484188  0.17084055  1
  Fe  Fe14  1  0.33797708  0.33838126  0.33840264  1
  Ni  Ni15  1  0.33640909  0.67114774  1.00399039  1
  Fe  Fe16  1  0.50544112  0.83757053  0.17049002  1
  Fe  Fe17  1  0.33771443  0.66997203  0.33805187  1
  Ni  Ni18  1  0.67081489  0.00466787  0.00517838  1
  Ni  Ni19  1  0.83651574  0.17109901  0.17019349  1
  Fe  Fe20  1  0.67241121  0.00491616  0.33763620  1
  Ni  Ni21  1  0.67115784  0.33711695  0.00435868  1
  Ni  Ni22  1  0.83616800  0.50409918  0.17160144  1
  Ni  Ni23  1  0.67233325  0.33780301  0.33826458  1
  Ni  Ni24  1  0.67229507  0.67113229  0.00431675  1
  Ni  Ni25  1  0.83798886  0.83771896  0.17052626  1
  Ni  Ni26  1  0.67187898  0.67092188  0.33763676  1
  Ni  Ni27  1  0.17086655  0.17046778  0.50418506  1
  Fe  Fe28  1  0.00511498  1.00335015  0.67026798  1
  Ni  Ni29  1  0.17234508  0.16991032  0.83809276  1
  Ni  Ni30  1  0.17279822  0.50471966  0.50443499  1
  Fe  Fe31  1  0.00513857  0.33791033  0.67036320  1
  Ni  Ni32  1  0.17187793  0.50509413  0.83809055  1
  Ni  Ni33  1  0.17054276  0.83772552  0.50448136  1
  Ni  Ni34  1  1.00429330  0.67051808  0.66966291  1
  Ni  Ni35  1  0.17119498  0.83790649  0.83746071  1
  Fe  Fe36  1  0.50376886  0.17078407  0.50510934  1
  Ni  Ni37  1  0.33763875  0.00528796  0.67068239  1
  Ni  Ni38  1  0.50406750  0.17170537  0.83756029  1
  Ni  Ni39  1  0.50406547  0.50405831  0.50453665  1
  Ni  Ni40  1  0.33650975  0.33677877  0.67019813  1
  Ni  Ni41  1  0.50483788  0.50362201  0.83843423  1
  Fe  Fe42  1  0.50411761  0.83754368  0.50478262  1
  Ni  Ni43  1  0.33652273  0.67084865  0.67086822  1
  Fe  Fe44  1  0.50349642  0.83739208  0.83764040  1
  Ni  Ni45  1  0.83720467  0.17002314  0.50449681  1
  Ni  Ni46  1  0.67065051  1.00416189  0.67009942  1
  Fe  Fe47  1  0.83741145  0.17171325  0.83784452  1
  Fe  Fe48  1  0.83843829  0.50451184  0.50388106  1
  Fe  Fe49  1  0.66980470  0.33824489  0.67117497  1
  Ni  Ni50  1  0.83619412  0.50476695  0.83736111  1
  Ni  Ni51  1  0.83787171  0.83850955  0.50381944  1
  Ni  Ni52  1  0.67210365  0.67164906  0.67096168  1
  Fe  Fe53  1  0.83757283  0.83674030  0.83749647  1
" 