8931,Ni42Fe42Cr14_9,-234.509008158332, 207.7036293565,Ni42Fe42Cr14,"# generated using pymatgen
 data_Cr9Fe23Ni22
_symmetry_space_group_name_H-M   'P 1'
_cell_length_a   7.43609287
_cell_length_b   7.43609287
_cell_length_c   10.51622338
_cell_angle_alpha   90.00000000
_cell_angle_beta   90.00000000
_cell_angle_gamma   90.00000000
_symmetry_Int_Tables_number   1
_chemical_formula_structural   Cr9Fe23Ni22
_chemical_formula_sum   'Cr9 Fe23 Ni22'
_cell_volume   581.49958929
_cell_formula_units_Z   1
loop_
 _symmetry_equiv_pos_site_id
 _symmetry_equiv_pos_as_xyz
  1  'x, y, z'
loop_
 _atom_site_type_symbol
 _atom_site_label
 _atom_site_symmetry_multiplicity
 _atom_site_fract_x
 _atom_site_fract_y
 _atom_site_fract_z
 _atom_site_occupancy
  Fe  Fe0  1  0.00246225  1.00200325  1.00192362  1
  Fe  Fe1  1  0.16606341  0.16671358  0.16832598  1
  Fe  Fe2  1  0.00335977  1.00066147  0.33331485  1
  Fe  Fe3  1  1.00090031  0.33466565  0.00241404  1
  Ni  Ni4  1  0.16825272  0.50428041  0.16883426  1
  Fe  Fe5  1  1.00117148  0.33775507  0.33417499  1
  Fe  Fe6  1  0.00280378  0.66957698  0.00257090  1
  Ni  Ni7  1  0.16883944  0.83468423  0.16880337  1
  Fe  Fe8  1  0.00400961  0.66783214  0.33490223  1
  Ni  Ni9  1  0.33366902  1.00006826  0.00324018  1
  Cr  Cr10  1  0.50395415  0.16802331  0.16818957  1
  Fe  Fe11  1  0.33518102  0.99815827  0.33535923  1
  Cr  Cr12  1  0.33581746  0.33650244  1.00111582  1
  Ni  Ni13  1  0.50290508  0.50523116  0.16786681  1
  Cr  Cr14  1  0.33462977  0.33705274  0.33457533  1
  Ni  Ni15  1  0.33395184  0.66928879  0.00368699  1
  Ni  Ni16  1  0.50177320  0.83319033  0.16903391  1
  Ni  Ni17  1  0.33388516  0.67045928  0.33479399  1
  Ni  Ni18  1  0.67093114  0.00286779  1.00182001  1
  Ni  Ni19  1  0.83658277  0.16841188  0.16852967  1
  Fe  Fe20  1  0.66770770  1.00099159  0.33397690  1
  Ni  Ni21  1  0.67095650  0.33574549  0.00213548  1
  Fe  Fe22  1  0.83501555  0.50244958  0.16908793  1
  Fe  Fe23  1  0.67056980  0.33674859  0.33425336  1
  Fe  Fe24  1  0.66778737  0.66824514  0.00273795  1
  Ni  Ni25  1  0.83562941  0.83669617  0.16814799  1
  Fe  Fe26  1  0.66806363  0.66850784  0.33420652  1
  Cr  Cr27  1  0.16902794  0.16770693  0.50264595  1
  Ni  Ni28  1  0.00354356  1.00072160  0.67120766  1
  Ni  Ni29  1  0.16772359  0.16747074  0.83486760  1
  Ni  Ni30  1  0.16717297  0.50449089  0.50413551  1
  Fe  Fe31  1  0.00318861  0.33606773  0.66965810  1
  Fe  Fe32  1  0.16945670  0.50257529  0.83498226  1
  Ni  Ni33  1  0.17039628  0.83398662  0.50234888  1
  Fe  Fe34  1  0.00241944  0.66940367  0.66877601  1
  Ni  Ni35  1  0.16696476  0.83655793  0.83509285  1
  Fe  Fe36  1  0.50178476  0.16579237  0.50289791  1
  Ni  Ni37  1  0.33433736  0.00225121  0.66738357  1
  Ni  Ni38  1  0.50228886  0.16963282  0.83428238  1
  Cr  Cr39  1  0.50208295  0.50359352  0.50249566  1
  Fe  Fe40  1  0.33460068  0.33430667  0.67056408  1
  Ni  Ni41  1  0.50283793  0.50134877  0.83602433  1
  Fe  Fe42  1  0.50027427  0.83620668  0.50221324  1
  Fe  Fe43  1  0.33421894  0.67001073  0.66860933  1
  Cr  Cr44  1  0.50206029  0.83519528  0.83583655  1
  Cr  Cr45  1  0.83472056  0.16919555  0.50187557  1
  Ni  Ni46  1  0.66835973  1.00153855  0.66866454  1
  Fe  Fe47  1  0.83546612  0.16749083  0.83644690  1
  Ni  Ni48  1  0.83693237  0.50256410  0.50078841  1
  Cr  Cr49  1  0.66822237  0.33531090  0.66964860  1
  Fe  Fe50  1  0.83536255  0.50239509  0.83541675  1
  Cr  Cr51  1  0.83554762  0.83452684  0.50346573  1
  Ni  Ni52  1  0.67025982  0.66888374  0.66904555  1
  Fe  Fe53  1  0.83627039  0.83635830  0.83499897  1
" 