1599,Ni42Fe26Cr30_5,-228.043148982953, 178.353000507222,Ni42Fe26Cr30,"# generated using pymatgen
 data_Cr17Fe14Ni23
_symmetry_space_group_name_H-M   'P 1'
_cell_length_a   7.47321735
_cell_length_b   7.47321735
_cell_length_c   10.56872533
_cell_angle_alpha   90.00000000
_cell_angle_beta   90.00000000
_cell_angle_gamma   90.00000000
_symmetry_Int_Tables_number   1
_chemical_formula_structural   Cr17Fe14Ni23
_chemical_formula_sum   'Cr17 Fe14 Ni23'
_cell_volume   590.25250403
_cell_formula_units_Z   1
loop_
 _symmetry_equiv_pos_site_id
 _symmetry_equiv_pos_as_xyz
  1  'x, y, z'
loop_
 _atom_site_type_symbol
 _atom_site_label
 _atom_site_symmetry_multiplicity
 _atom_site_fract_x
 _atom_site_fract_y
 _atom_site_fract_z
 _atom_site_occupancy
  Ni  Ni0  1  0.99783010  0.99545976  0.99952902  1
  Cr  Cr1  1  0.16630249  0.16453952  0.16689746  1
  Fe  Fe2  1  0.00250127  0.99629424  0.33640086  1
  Cr  Cr3  1  0.99847302  0.33645057  0.00039858  1
  Ni  Ni4  1  0.16687441  0.50208491  0.16934914  1
  Cr  Cr5  1  0.99678939  0.33323374  0.33391622  1
  Fe  Fe6  1  0.99790239  0.66786233  0.00039400  1
  Fe  Fe7  1  0.16882029  0.83170364  0.16883315  1
  Ni  Ni8  1  0.00136651  0.66394745  0.33409979  1
  Fe  Fe9  1  0.33356652  0.99928644  0.00137223  1
  Ni  Ni10  1  0.49881952  0.16594602  0.16747348  1
  Ni  Ni11  1  0.33474431  0.99762154  0.33213117  1
  Cr  Cr12  1  0.33350241  0.33615169  0.00204711  1
  Ni  Ni13  1  0.49884680  0.50209330  0.17025936  1
  Fe  Fe14  1  0.33372389  0.33284888  0.33420133  1
  Cr  Cr15  1  0.33138391  0.66832414  0.00028081  1
  Ni  Ni16  1  0.50092648  0.83101029  0.16657839  1
  Ni  Ni17  1  0.33176037  0.66607509  0.33300165  1
  Ni  Ni18  1  0.66679980  0.99654660  -0.00003170  1
  Cr  Cr19  1  0.83285049  0.16339761  0.16729125  1
  Cr  Cr20  1  0.66530183  0.00176401  0.33641090  1
  Cr  Cr21  1  0.66722557  0.33243674  0.00160571  1
  Fe  Fe22  1  0.83064869  0.50142744  0.16805095  1
  Fe  Fe23  1  0.66262632  0.33483258  0.33424019  1
  Fe  Fe24  1  0.66839794  0.66632382  0.99941807  1
  Cr  Cr25  1  0.83419811  0.83131709  0.16855819  1
  Fe  Fe26  1  0.66611537  0.66495530  0.33524425  1
  Ni  Ni27  1  0.16582616  0.16486978  0.49991227  1
  Fe  Fe28  1  0.00124201  0.99752016  0.66429472  1
  Cr  Cr29  1  0.16640338  0.16484327  0.83190807  1
  Fe  Fe30  1  0.16594539  0.49933532  0.49803305  1
  Ni  Ni31  1  0.99748804  0.33471428  0.66422660  1
  Cr  Cr32  1  0.16463535  0.49992303  0.82893951  1
  Ni  Ni33  1  0.16380210  0.83425561  0.49633128  1
  Fe  Fe34  1  0.99855578  0.66902917  0.66407095  1
  Ni  Ni35  1  0.16187572  0.83403404  0.83436920  1
  Ni  Ni36  1  0.49828314  0.16861224  0.50084646  1
  Ni  Ni37  1  0.33252512  0.00007206  0.66532115  1
  Cr  Cr38  1  0.49830264  0.16658996  0.82984188  1
  Ni  Ni39  1  0.49967904  0.49786148  0.49903985  1
  Ni  Ni40  1  0.32869085  0.33167936  0.66031025  1
  Cr  Cr41  1  0.50190237  0.49955127  0.82753041  1
  Cr  Cr42  1  0.50024200  0.83086297  0.49990400  1
  Cr  Cr43  1  0.33006689  0.66892371  0.66371219  1
  Cr  Cr44  1  0.50193768  0.83389435  0.83212644  1
  Ni  Ni45  1  0.83467917  0.16554374  0.50141906  1
  Ni  Ni46  1  0.66862789  0.99851527  0.66446204  1
  Cr  Cr47  1  0.83368294  0.16475580  0.83113618  1
  Fe  Fe48  1  0.83238222  0.50039981  0.50113101  1
  Fe  Fe49  1  0.66617644  0.33316060  0.66238828  1
  Ni  Ni50  1  0.83397336  0.50416933  0.83116459  1
  Ni  Ni51  1  0.83672886  0.83222178  0.50016341  1
  Ni  Ni52  1  0.67060853  0.66759853  0.66498716  1
  Ni  Ni53  1  0.83514808  0.83083766  0.83218775  1
" 