1019,Ni42Fe32Cr25_18,-230.132398935137, 198.050909271577,Ni42Fe32Cr25,"# generated using pymatgen
 data_Cr15Fe17Ni22
_symmetry_space_group_name_H-M   'P 1'
_cell_length_a   7.45433526
_cell_length_b   7.45433526
_cell_length_c   10.54202202
_cell_angle_alpha   90.00000000
_cell_angle_beta   90.00000000
_cell_angle_gamma   90.00000000
_symmetry_Int_Tables_number   1
_chemical_formula_structural   Cr15Fe17Ni22
_chemical_formula_sum   'Cr15 Fe17 Ni22'
_cell_volume   585.78974146
_cell_formula_units_Z   1
loop_
 _symmetry_equiv_pos_site_id
 _symmetry_equiv_pos_as_xyz
  1  'x, y, z'
loop_
 _atom_site_type_symbol
 _atom_site_label
 _atom_site_symmetry_multiplicity
 _atom_site_fract_x
 _atom_site_fract_y
 _atom_site_fract_z
 _atom_site_occupancy
  Cr  Cr0  1  1.00048121  0.99917868  0.00133287  1
  Ni  Ni1  1  0.16488818  0.16982294  0.16928912  1
  Fe  Fe2  1  0.99838398  1.00074180  0.33327768  1
  Ni  Ni3  1  1.00052538  0.33507322  0.00246397  1
  Ni  Ni4  1  0.16763482  0.49976575  0.16734141  1
  Ni  Ni5  1  0.00251645  0.33649063  0.33391813  1
  Ni  Ni6  1  0.00238742  0.66732763  0.00228659  1
  Fe  Fe7  1  0.16684945  0.83171372  0.16902438  1
  Fe  Fe8  1  1.00042767  0.66693199  0.33535711  1
  Cr  Cr9  1  0.33453600  0.00148235  0.00165325  1
  Fe  Fe10  1  0.50220098  0.17041905  0.16940770  1
  Cr  Cr11  1  0.33336683  0.00184057  0.33320056  1
  Fe  Fe12  1  0.33385108  0.33465461  0.00179422  1
  Cr  Cr13  1  0.50061572  0.50320883  0.16792525  1
  Fe  Fe14  1  0.33422274  0.33591349  0.33533556  1
  Fe  Fe15  1  0.33344403  0.66637697  0.00242494  1
  Ni  Ni16  1  0.50118280  0.83345507  0.16828317  1
  Fe  Fe17  1  0.33309262  0.66565549  0.33432085  1
  Cr  Cr18  1  0.66730531  0.00242407  0.00233627  1
  Ni  Ni19  1  0.83534274  0.16777293  0.16831217  1
  Ni  Ni20  1  0.66724402  1.00017045  0.33139085  1
  Ni  Ni21  1  0.66662223  0.33382786  0.99927509  1
  Cr  Cr22  1  0.83527072  0.49834268  0.16654802  1
  Ni  Ni23  1  0.66845779  0.33463902  0.33570078  1
  Fe  Fe24  1  0.66939559  0.66764995  1.00071524  1
  Fe  Fe25  1  0.83434985  0.83318956  0.16863997  1
  Ni  Ni26  1  0.66966239  0.66766898  0.33473072  1
  Fe  Fe27  1  0.16631270  0.16882221  0.49939876  1
  Fe  Fe28  1  0.99886780  0.99955989  0.66749833  1
  Cr  Cr29  1  0.16315318  0.16882841  0.83275036  1
  Ni  Ni30  1  0.16576475  0.50194313  0.49934019  1
  Ni  Ni31  1  1.00020593  0.33735659  0.66638495  1
  Cr  Cr32  1  0.16791085  0.50121115  0.83608232  1
  Ni  Ni33  1  0.16669548  0.83242835  0.50194671  1
  Ni  Ni34  1  1.00039879  0.66765562  0.66604780  1
  Fe  Fe35  1  0.16402771  0.83156807  0.83275336  1
  Ni  Ni36  1  0.50246461  0.16795837  0.49883696  1
  Cr  Cr37  1  0.33251879  0.00093980  0.66786190  1
  Fe  Fe38  1  0.50323014  0.17188427  0.83398613  1
  Fe  Fe39  1  0.50319583  0.50033793  0.50016111  1
  Cr  Cr40  1  0.33582009  0.33462343  0.66436403  1
  Ni  Ni41  1  0.50120998  0.50216650  0.83392774  1
  Cr  Cr42  1  0.50190956  0.83252143  0.50045434  1
  Fe  Fe43  1  0.33347799  0.66448391  0.66618518  1
  Cr  Cr44  1  0.49993381  0.82970499  0.83391084  1
  Cr  Cr45  1  0.83464538  0.16879288  0.50085916  1
  Cr  Cr46  1  0.66736296  0.00198655  0.66877369  1
  Ni  Ni47  1  0.83482327  0.16831322  0.83373874  1
  Ni  Ni48  1  0.83502606  0.50043049  0.50127584  1
  Ni  Ni49  1  0.66791631  0.33685888  0.66749723  1
  Cr  Cr50  1  0.83416547  0.49936220  0.83504904  1
  Fe  Fe51  1  0.83564908  0.83204867  0.50049648  1
  Ni  Ni52  1  0.67056504  0.66476993  0.66707363  1
  Ni  Ni53  1  0.83453524  0.83374964  0.83310410  1
" 