3034,Ni42Fe58_5,-242.762531402641, 225.651855829387,Ni42Fe58,"# generated using pymatgen
 data_Fe11Ni16
_symmetry_space_group_name_H-M   'P 1'
_cell_length_a   7.40580519
_cell_length_b   7.40580519
_cell_length_c   10.47339014
_cell_angle_alpha   90.00000000
_cell_angle_beta   90.00000000
_cell_angle_gamma   90.00000000
_symmetry_Int_Tables_number   1
_chemical_formula_structural   Fe11Ni16
_chemical_formula_sum   'Fe22 Ni32'
_cell_volume   574.42303657
_cell_formula_units_Z   2
loop_
 _symmetry_equiv_pos_site_id
 _symmetry_equiv_pos_as_xyz
  1  'x, y, z'
loop_
 _atom_site_type_symbol
 _atom_site_label
 _atom_site_symmetry_multiplicity
 _atom_site_fract_x
 _atom_site_fract_y
 _atom_site_fract_z
 _atom_site_occupancy
  Ni  Ni0  1  0.00447062  1.00398295  1.00254367  1
  Fe  Fe1  1  0.17073587  0.16860300  0.17118452  1
  Ni  Ni2  1  0.00439389  1.00372860  0.33858515  1
  Fe  Fe3  1  1.00269639  0.33701502  1.00311101  1
  Fe  Fe4  1  0.17049351  0.50573184  0.17182027  1
  Fe  Fe5  1  1.00293789  0.33753609  0.33848009  1
  Ni  Ni6  1  0.00508142  0.67134324  0.00476268  1
  Ni  Ni7  1  0.17045115  0.83660626  0.17238592  1
  Fe  Fe8  1  1.00253114  0.67117073  0.33801995  1
  Ni  Ni9  1  0.33714765  1.00386315  0.00587872  1
  Fe  Fe10  1  0.50575701  0.16977516  0.17120932  1
  Fe  Fe11  1  0.34023613  1.00349991  0.33681232  1
  Fe  Fe12  1  0.33865644  0.33818271  1.00396798  1
  Ni  Ni13  1  0.50259805  0.50414368  0.17123931  1
  Ni  Ni14  1  0.33713663  0.33796107  0.33674545  1
  Ni  Ni15  1  0.33672701  0.67035882  1.00346426  1
  Ni  Ni16  1  0.50376895  0.83522011  0.17051482  1
  Ni  Ni17  1  0.33704126  0.66986986  0.33881987  1
  Ni  Ni18  1  0.67120567  0.00494951  0.00478383  1
  Ni  Ni19  1  0.83904820  0.17135832  0.17147441  1
  Ni  Ni20  1  0.67301040  1.00373209  0.33626552  1
  Ni  Ni21  1  0.67006757  0.33732277  1.00390054  1
  Fe  Fe22  1  0.83500122  0.50563088  0.17050089  1
  Ni  Ni23  1  0.66955644  0.33734142  0.33879422  1
  Ni  Ni24  1  0.67003586  0.67014664  1.00404881  1
  Ni  Ni25  1  0.83838357  0.83953443  0.16953579  1
  Ni  Ni26  1  0.67017700  0.67157678  0.33699478  1
  Fe  Fe27  1  0.17227946  0.17023180  0.50396969  1
  Fe  Fe28  1  1.00252277  0.00479826  0.67066625  1
  Fe  Fe29  1  0.17298978  0.17061130  0.83742516  1
  Ni  Ni30  1  0.17041233  0.50327387  0.50401901  1
  Ni  Ni31  1  0.00519091  0.33778053  0.67009720  1
  Fe  Fe32  1  0.17086145  0.50401941  0.83600146  1
  Fe  Fe33  1  0.17166984  0.83728113  0.50315798  1
  Ni  Ni34  1  0.00514490  0.67186247  0.67049630  1
  Fe  Fe35  1  0.17161908  0.83790996  0.83893869  1
  Ni  Ni36  1  0.50421251  0.17055965  0.50381560  1
  Fe  Fe37  1  0.33969878  0.00452748  0.67190891  1
  Ni  Ni38  1  0.50600812  0.17093257  0.83891563  1
  Fe  Fe39  1  0.50395671  0.50468516  0.50391577  1
  Ni  Ni40  1  0.33767340  0.33642999  0.67074313  1
  Ni  Ni41  1  0.50292043  0.50427012  0.83555699  1
  Ni  Ni42  1  0.50559210  0.83846673  0.50385331  1
  Fe  Fe43  1  0.33860231  0.66979516  0.67007800  1
  Ni  Ni44  1  0.50372663  0.83707006  0.83838549  1
  Fe  Fe45  1  0.83652040  0.17028767  0.50421327  1
  Ni  Ni46  1  0.67015101  0.00423427  0.67127206  1
  Ni  Ni47  1  0.83829439  0.17112707  0.83585716  1
  Fe  Fe48  1  0.83585085  0.50526298  0.50528497  1
  Ni  Ni49  1  0.66962531  0.33659567  0.66949268  1
  Fe  Fe50  1  0.83492433  0.50393995  0.83662843  1
  Ni  Ni51  1  0.83711590  0.83805506  0.50436113  1
  Ni  Ni52  1  0.67120053  0.67174209  0.67069635  1
  Fe  Fe53  1  0.83516573  0.83734143  0.83768223  1
" 