2776,Ni42Fe22Cr34_9,-226.148982683222, 178.258285457278,Ni42Fe22Cr34,"# generated using pymatgen
 data_Cr10Fe6Ni11
_symmetry_space_group_name_H-M   'P 1'
_cell_length_a   7.47715703
_cell_length_b   7.47715703
_cell_length_c   10.57429689
_cell_angle_alpha   90.00000000
_cell_angle_beta   90.00000000
_cell_angle_gamma   90.00000000
_symmetry_Int_Tables_number   1
_chemical_formula_structural   Cr10Fe6Ni11
_chemical_formula_sum   'Cr20 Fe12 Ni22'
_cell_volume   591.18649286
_cell_formula_units_Z   2
loop_
 _symmetry_equiv_pos_site_id
 _symmetry_equiv_pos_as_xyz
  1  'x, y, z'
loop_
 _atom_site_type_symbol
 _atom_site_label
 _atom_site_symmetry_multiplicity
 _atom_site_fract_x
 _atom_site_fract_y
 _atom_site_fract_z
 _atom_site_occupancy
  Cr  Cr0  1  0.00179151  -0.00020008  0.00336933  1
  Ni  Ni1  1  0.16592823  0.16690609  0.16749499  1
  Cr  Cr2  1  0.00148822  0.00011670  0.33158227  1
  Ni  Ni3  1  0.00235166  0.33110817  0.00170678  1
  Ni  Ni4  1  0.16208119  0.50087433  0.16956014  1
  Ni  Ni5  1  0.00321575  0.33253353  0.33194380  1
  Fe  Fe6  1  0.00065738  0.66472924  0.00360447  1
  Ni  Ni7  1  0.16763217  0.83038324  0.16539637  1
  Ni  Ni8  1  0.00128832  0.66675128  0.33209820  1
  Fe  Fe9  1  0.33257743  0.99776880  0.00060874  1
  Cr  Cr10  1  0.49539312  0.16087597  0.16698565  1
  Ni  Ni11  1  0.32899006  0.99614230  0.33178575  1
  Cr  Cr12  1  0.33001435  0.33815665  0.99901641  1
  Cr  Cr13  1  0.49450426  0.50195138  0.17074982  1
  Ni  Ni14  1  0.32663042  0.33245966  0.33388683  1
  Ni  Ni15  1  0.32973595  0.66988403  0.99922546  1
  Ni  Ni16  1  0.49761976  0.83276669  0.16733519  1
  Ni  Ni17  1  0.33013944  0.66853653  0.33284827  1
  Ni  Ni18  1  0.66787554  0.99533426  0.00082697  1
  Ni  Ni19  1  0.83598194  0.16551017  0.16533018  1
  Cr  Cr20  1  0.66861402  0.99663573  0.33313823  1
  Cr  Cr21  1  0.66886228  0.33237170  0.00364238  1
  Ni  Ni22  1  0.83859051  0.50162690  0.16660468  1
  Cr  Cr23  1  0.67030741  0.33308281  0.32627228  1
  Cr  Cr24  1  0.66062463  0.66506976  0.00176630  1
  Ni  Ni25  1  0.83289717  0.82951636  0.16766844  1
  Ni  Ni26  1  0.66625512  0.66841484  0.33159719  1
  Ni  Ni27  1  0.16745443  0.16476817  0.49940248  1
  Cr  Cr28  1  0.00102906  0.00097005  0.66240053  1
  Ni  Ni29  1  0.16808041  0.16546923  0.83129302  1
  Fe  Fe30  1  0.16635896  0.49898194  0.49640163  1
  Fe  Fe31  1  0.00298868  0.33306284  0.66397537  1
  Cr  Cr32  1  0.16364803  0.50132426  0.83102150  1
  Ni  Ni33  1  0.16551279  0.83315051  0.49865812  1
  Fe  Fe34  1  -0.00026457  0.66800905  0.66253232  1
  Fe  Fe35  1  0.16863763  0.83481431  0.83356868  1
  Cr  Cr36  1  0.49544841  0.16288593  0.49735507  1
  Ni  Ni37  1  0.32986603  0.99725383  0.66739496  1
  Cr  Cr38  1  0.49693289  0.16296275  0.83427416  1
  Cr  Cr39  1  0.49920795  0.49908280  0.49450031  1
  Fe  Fe40  1  0.33088885  0.33032339  0.66507591  1
  Ni  Ni41  1  0.49802131  0.50135729  0.83132774  1
  Fe  Fe42  1  0.49621904  0.83212446  0.49766267  1
  Cr  Cr43  1  0.33415022  0.66602241  0.66534275  1
  Fe  Fe44  1  0.49810134  0.83182910  0.83393214  1
  Fe  Fe45  1  0.83485576  0.16804383  0.49841179  1
  Fe  Fe46  1  0.66275252  0.99589198  0.66467739  1
  Cr  Cr47  1  0.83441379  0.16505182  0.83295905  1
  Cr  Cr48  1  0.83578197  0.50327449  0.49788021  1
  Cr  Cr49  1  0.66538049  0.33466966  0.66741373  1
  Cr  Cr50  1  0.83421210  0.50208944  0.83404349  1
  Fe  Fe51  1  0.83239956  0.83222874  0.49889223  1
  Ni  Ni52  1  0.66458344  0.66795272  0.66542678  1
  Cr  Cr53  1  0.83478594  0.83059285  0.83162579  1
" 