792,Ni42Fe32Cr25_9,-230.084201683511, 197.987584946072,Ni42Fe32Cr25,"# generated using pymatgen
 data_Cr15Fe17Ni22
_symmetry_space_group_name_H-M   'P 1'
_cell_length_a   7.45357223
_cell_length_b   7.45357223
_cell_length_c   10.54094294
_cell_angle_alpha   90.00000000
_cell_angle_beta   90.00000000
_cell_angle_gamma   90.00000000
_symmetry_Int_Tables_number   1
_chemical_formula_structural   Cr15Fe17Ni22
_chemical_formula_sum   'Cr15 Fe17 Ni22'
_cell_volume   585.60987440
_cell_formula_units_Z   1
loop_
 _symmetry_equiv_pos_site_id
 _symmetry_equiv_pos_as_xyz
  1  'x, y, z'
loop_
 _atom_site_type_symbol
 _atom_site_label
 _atom_site_symmetry_multiplicity
 _atom_site_fract_x
 _atom_site_fract_y
 _atom_site_fract_z
 _atom_site_occupancy
  Ni  Ni0  1  1.00077336  1.00073238  0.00109262  1
  Ni  Ni1  1  0.16314421  0.16856514  0.16824056  1
  Fe  Fe2  1  0.00105374  0.99915592  0.33223100  1
  Ni  Ni3  1  0.99972356  0.33443933  0.99994673  1
  Cr  Cr4  1  0.16780415  0.50149955  0.16779979  1
  Ni  Ni5  1  0.00178562  0.33763045  0.33422250  1
  Ni  Ni6  1  0.99744015  0.66798838  0.00095857  1
  Fe  Fe7  1  0.16645880  0.83445930  0.16708601  1
  Ni  Ni8  1  1.00071008  0.66660492  0.33514936  1
  Cr  Cr9  1  0.33431041  0.00230090  0.00170695  1
  Ni  Ni10  1  0.50360227  0.16837453  0.16810205  1
  Cr  Cr11  1  0.33432530  0.00176799  0.33198457  1
  Cr  Cr12  1  0.33362347  0.32938120  0.99938712  1
  Cr  Cr13  1  0.50103484  0.50271246  0.16681109  1
  Ni  Ni14  1  0.33283855  0.33152486  0.33517198  1
  Fe  Fe15  1  0.33418748  0.67020322  0.99984917  1
  Ni  Ni16  1  0.50349521  0.83306359  0.16561619  1
  Fe  Fe17  1  0.33207531  0.66890361  0.33463527  1
  Ni  Ni18  1  0.66721864  0.99937905  1.00013288  1
  Fe  Fe19  1  0.83443946  0.16786810  0.16592349  1
  Cr  Cr20  1  0.66528312  0.99962053  0.33438616  1
  Fe  Fe21  1  0.67023980  0.33290818  0.99963880  1
  Fe  Fe22  1  0.83477891  0.50009861  0.16649291  1
  Fe  Fe23  1  0.66887085  0.33392164  0.33340495  1
  Ni  Ni24  1  0.67028199  0.66833508  0.99912874  1
  Fe  Fe25  1  0.83507267  0.83475980  0.16575804  1
  Cr  Cr26  1  0.67247262  0.66880579  0.33595086  1
  Cr  Cr27  1  0.16427302  0.16885303  0.50192486  1
  Fe  Fe28  1  0.99856412  0.99917971  0.67000088  1
  Ni  Ni29  1  0.16190929  0.16740955  0.83324506  1
  Ni  Ni30  1  0.16837316  0.50103625  0.50039664  1
  Fe  Fe31  1  1.00039457  0.33315919  0.66883443  1
  Cr  Cr32  1  0.16957930  0.50150048  0.83421552  1
  Ni  Ni33  1  0.16636013  0.83223577  0.49913629  1
  Cr  Cr34  1  0.99993542  0.66669002  0.66671204  1
  Ni  Ni35  1  0.16593692  0.83500857  0.83604436  1
  Fe  Fe36  1  0.50006032  0.16632082  0.50077731  1
  Cr  Cr37  1  0.33464563  0.00141411  0.66909963  1
  Fe  Fe38  1  0.50286977  0.16543465  0.83488709  1
  Cr  Cr39  1  0.49766089  0.50096370  0.49892488  1
  Fe  Fe40  1  0.33425066  0.33526690  0.66852809  1
  Ni  Ni41  1  0.50181003  0.50297429  0.83622522  1
  Ni  Ni42  1  0.50103865  0.83278669  0.50188276  1
  Fe  Fe43  1  0.33503854  0.66922365  0.66788897  1
  Ni  Ni44  1  0.50315541  0.83142928  0.83512130  1
  Cr  Cr45  1  0.83478533  0.16513160  0.50038451  1
  Ni  Ni46  1  0.66596346  1.00040242  0.66809025  1
  Ni  Ni47  1  0.83524031  0.16494110  0.83578952  1
  Fe  Fe48  1  0.83768083  0.50093792  0.49959928  1
  Cr  Cr49  1  0.66820446  0.33442023  0.66901598  1
  Fe  Fe50  1  0.83426831  0.50161656  0.83709110  1
  Ni  Ni51  1  0.83530341  0.83727691  0.50107622  1
  Cr  Cr52  1  0.67123092  0.66959170  0.66760917  1
  Ni  Ni53  1  0.83323612  0.83860396  0.83550380  1
" 