4917,Ni42Fe5Cr52_3,-217.304850523126, 143.142757872568,Ni42Fe5Cr52,"# generated using pymatgen
 data_Cr15FeNi11
_symmetry_space_group_name_H-M   'P 1'
_cell_length_a   7.52720633
_cell_length_b   7.52720633
_cell_length_c   10.64507727
_cell_angle_alpha   90.00000000
_cell_angle_beta   90.00000000
_cell_angle_gamma   90.00000000
_symmetry_Int_Tables_number   1
_chemical_formula_structural   Cr15FeNi11
_chemical_formula_sum   'Cr30 Fe2 Ni22'
_cell_volume   603.13767746
_cell_formula_units_Z   2
loop_
 _symmetry_equiv_pos_site_id
 _symmetry_equiv_pos_as_xyz
  1  'x, y, z'
loop_
 _atom_site_type_symbol
 _atom_site_label
 _atom_site_symmetry_multiplicity
 _atom_site_fract_x
 _atom_site_fract_y
 _atom_site_fract_z
 _atom_site_occupancy
  Ni  Ni0  1  -0.00026444  -0.00219011  0.99477057  1
  Cr  Cr1  1  0.16106104  0.16269236  0.16392102  1
  Ni  Ni2  1  -0.00360273  -0.00388090  0.33151961  1
  Cr  Cr3  1  -0.00127737  0.33089285  0.99317867  1
  Ni  Ni4  1  0.16726796  0.49348338  0.16678769  1
  Ni  Ni5  1  -0.00383641  0.32927236  0.32973984  1
  Cr  Cr6  1  -0.00384066  0.66011865  -0.00379094  1
  Cr  Cr7  1  0.16389284  0.83006911  0.16323361  1
  Cr  Cr8  1  0.99583598  0.66369113  0.33165143  1
  Ni  Ni9  1  0.32712508  -0.00156866  0.99590059  1
  Fe  Fe10  1  0.49442551  0.16327422  0.16658583  1
  Ni  Ni11  1  0.33005128  -0.00285867  0.33031507  1
  Cr  Cr12  1  0.32985844  0.32818831  0.99530038  1
  Ni  Ni13  1  0.49245690  0.49319906  0.16641678  1
  Ni  Ni14  1  0.33185100  0.32798739  0.32714763  1
  Cr  Cr15  1  0.33014346  0.65830480  -0.00306226  1
  Cr  Cr16  1  0.49313402  0.83013567  0.16306867  1
  Ni  Ni17  1  0.32853141  0.66245947  0.32857385  1
  Cr  Cr18  1  0.65993348  -0.00263574  -0.00270625  1
  Cr  Cr19  1  0.82977643  0.16246731  0.16480584  1
  Ni  Ni20  1  0.66142193  -0.00127871  0.33180185  1
  Cr  Cr21  1  0.65920666  0.33177800  -0.00328108  1
  Cr  Cr22  1  0.83057379  0.49127268  0.16556400  1
  Ni  Ni23  1  0.65997558  0.32778653  0.32949894  1
  Cr  Cr24  1  0.66194215  0.65906829  -0.00234402  1
  Cr  Cr25  1  0.83084034  0.83411442  0.16146547  1
  Cr  Cr26  1  0.66275189  0.66327934  0.32771398  1
  Cr  Cr27  1  0.16428495  0.16477127  0.49140127  1
  Cr  Cr28  1  -0.00264660  0.99431012  0.66026747  1
  Ni  Ni29  1  0.16331824  0.16267325  0.83215402  1
  Cr  Cr30  1  0.16413890  0.49778106  0.49436700  1
  Cr  Cr31  1  -0.00374114  0.33151123  0.66499980  1
  Ni  Ni32  1  0.16332069  0.49673824  0.82727453  1
  Ni  Ni33  1  0.16240906  0.82850320  0.49418626  1
  Ni  Ni34  1  -0.00391922  0.66272193  0.66123019  1
  Cr  Cr35  1  0.16388930  0.82917108  0.83009614  1
  Ni  Ni36  1  0.49805524  0.16300452  0.49278226  1
  Cr  Cr37  1  0.32805730  -0.00209233  0.66049288  1
  Cr  Cr38  1  0.49733380  0.16129426  0.82732863  1
  Cr  Cr39  1  0.49490623  0.49309189  0.49565544  1
  Cr  Cr40  1  0.33030944  0.32773578  0.66533433  1
  Ni  Ni41  1  0.49571611  0.49545488  0.82708783  1
  Cr  Cr42  1  0.49282778  0.82846302  0.49660028  1
  Ni  Ni43  1  0.32629339  0.66213909  0.66374091  1
  Cr  Cr44  1  0.49439276  0.82710124  0.82873102  1
  Cr  Cr45  1  0.82714334  0.16645755  0.49419340  1
  Fe  Fe46  1  0.66313617  -0.00298803  0.65906983  1
  Cr  Cr47  1  0.83033996  0.16333110  0.82934150  1
  Ni  Ni48  1  0.82876991  0.49569147  0.49588736  1
  Ni  Ni49  1  0.66224594  0.33059792  0.66225136  1
  Ni  Ni50  1  0.82873219  0.49573406  0.82686470  1
  Ni  Ni51  1  0.83029634  0.83040671  0.49518039  1
  Cr  Cr52  1  0.66578649  0.66142386  0.66280456  1
  Cr  Cr53  1  0.82957923  0.83006047  0.83111126  1
" 