5463,Ni42Fe22Cr34_19,-225.686868438273, 174.821322932978,Ni42Fe22Cr34,"# generated using pymatgen
 data_Cr10Fe6Ni11
_symmetry_space_group_name_H-M   'P 1'
_cell_length_a   7.47832117
_cell_length_b   7.47832117
_cell_length_c   10.57594323
_cell_angle_alpha   90.00000000
_cell_angle_beta   90.00000000
_cell_angle_gamma   90.00000000
_symmetry_Int_Tables_number   1
_chemical_formula_structural   Cr10Fe6Ni11
_chemical_formula_sum   'Cr20 Fe12 Ni22'
_cell_volume   591.46266621
_cell_formula_units_Z   2
loop_
 _symmetry_equiv_pos_site_id
 _symmetry_equiv_pos_as_xyz
  1  'x, y, z'
loop_
 _atom_site_type_symbol
 _atom_site_label
 _atom_site_symmetry_multiplicity
 _atom_site_fract_x
 _atom_site_fract_y
 _atom_site_fract_z
 _atom_site_occupancy
  Fe  Fe0  1  0.99768755  0.99760839  0.99914679  1
  Ni  Ni1  1  0.16597891  0.16723994  0.16619665  1
  Fe  Fe2  1  0.99892728  0.99776484  0.33180488  1
  Cr  Cr3  1  0.00047936  0.33397073  0.99630218  1
  Ni  Ni4  1  0.16671740  0.49878916  0.16497239  1
  Ni  Ni5  1  0.99889116  0.33418150  0.33462474  1
  Ni  Ni6  1  0.00119251  0.66682174  -0.00001266  1
  Ni  Ni7  1  0.16307656  0.83197166  0.16571408  1
  Ni  Ni8  1  0.99924093  0.66448982  0.33204239  1
  Cr  Cr9  1  0.33264330  0.00014068  0.00287144  1
  Fe  Fe10  1  0.49850585  0.16500721  0.16644872  1
  Cr  Cr11  1  0.33154619  -0.00061936  0.32975189  1
  Ni  Ni12  1  0.32885255  0.33216420  0.00100758  1
  Cr  Cr13  1  0.49687867  0.49853859  0.16579956  1
  Fe  Fe14  1  0.33083008  0.33509286  0.33154386  1
  Ni  Ni15  1  0.32816763  0.66579866  0.00030609  1
  Ni  Ni16  1  0.50105836  0.83326228  0.16537448  1
  Cr  Cr17  1  0.33043897  0.66781570  0.33409349  1
  Ni  Ni18  1  0.66697398  0.99830617  -0.00024135  1
  Cr  Cr19  1  0.83359975  0.16333537  0.16821211  1
  Fe  Fe20  1  0.66760401  0.99787891  0.33060570  1
  Cr  Cr21  1  0.66695902  0.33020185  0.99826379  1
  Cr  Cr22  1  0.83500965  0.50179737  0.16869954  1
  Ni  Ni23  1  0.66762986  0.33297094  0.33505678  1
  Cr  Cr24  1  0.66949699  0.66851055  0.99886964  1
  Ni  Ni25  1  0.83361529  0.83417271  0.16549385  1
  Ni  Ni26  1  0.66806545  0.66460233  0.33273209  1
  Cr  Cr27  1  0.16186611  0.16674739  0.49962720  1
  Ni  Ni28  1  0.99808169  0.00136348  0.66678487  1
  Fe  Fe29  1  0.16306891  0.16761250  0.83223016  1
  Ni  Ni30  1  0.16658572  0.49873531  0.49970343  1
  Fe  Fe31  1  0.99683804  0.33110127  0.66648193  1
  Fe  Fe32  1  0.16478664  0.49843118  0.83362614  1
  Ni  Ni33  1  0.16282434  0.83062160  0.49926250  1
  Cr  Cr34  1  -0.00012938  0.66397855  0.66538704  1
  Cr  Cr35  1  0.16339951  0.83160958  0.83275485  1
  Cr  Cr36  1  0.50261033  0.16931564  0.49839148  1
  Cr  Cr37  1  0.33075797  0.99841505  0.66500214  1
  Cr  Cr38  1  0.50041869  0.16725362  0.83268679  1
  Ni  Ni39  1  0.49895988  0.49680571  0.49986091  1
  Fe  Fe40  1  0.33180921  0.33484298  0.66574768  1
  Cr  Cr41  1  0.49610023  0.49851666  0.83243076  1
  Cr  Cr42  1  0.50021684  0.83050335  0.50144567  1
  Fe  Fe43  1  0.33128988  0.66321174  0.66378992  1
  Cr  Cr44  1  0.50080678  0.83192335  0.83145678  1
  Fe  Fe45  1  0.83286793  0.16817409  0.50012293  1
  Ni  Ni46  1  0.66926648  0.00293995  0.66678062  1
  Ni  Ni47  1  0.83403849  0.16397927  0.82907152  1
  Fe  Fe48  1  0.83280734  0.49702632  0.49718247  1
  Ni  Ni49  1  0.66847767  0.33180635  0.66489216  1
  Ni  Ni50  1  0.83471160  0.49765898  0.83124965  1
  Cr  Cr51  1  0.83468467  0.83550401  0.49700415  1
  Cr  Cr52  1  0.66744407  0.66336835  0.66616063  1
  Ni  Ni53  1  0.83464059  0.83603640  0.83448244  1
" 