4415,Ni42Fe26Cr30_11,-228.776433592528, 191.272342700678,Ni42Fe26Cr30,"# generated using pymatgen
 data_Cr17Fe14Ni23
_symmetry_space_group_name_H-M   'P 1'
_cell_length_a   7.46437353
_cell_length_b   7.46437353
_cell_length_c   10.55621828
_cell_angle_alpha   90.00000000
_cell_angle_beta   90.00000000
_cell_angle_gamma   90.00000000
_symmetry_Int_Tables_number   1
_chemical_formula_structural   Cr17Fe14Ni23
_chemical_formula_sum   'Cr17 Fe14 Ni23'
_cell_volume   588.15946539
_cell_formula_units_Z   1
loop_
 _symmetry_equiv_pos_site_id
 _symmetry_equiv_pos_as_xyz
  1  'x, y, z'
loop_
 _atom_site_type_symbol
 _atom_site_label
 _atom_site_symmetry_multiplicity
 _atom_site_fract_x
 _atom_site_fract_y
 _atom_site_fract_z
 _atom_site_occupancy
  Fe  Fe0  1  0.00061286  0.00254823  0.99978631  1
  Cr  Cr1  1  0.16772193  0.16771541  0.16402863  1
  Ni  Ni2  1  0.99691190  0.99721935  0.33528650  1
  Ni  Ni3  1  0.00104301  0.33551864  0.99912330  1
  Ni  Ni4  1  0.16687605  0.49924244  0.16767374  1
  Cr  Cr5  1  0.99968879  0.33568683  0.33448909  1
  Cr  Cr6  1  0.99710014  0.66440948  0.00122014  1
  Cr  Cr7  1  0.16692753  0.83381833  0.16694000  1
  Cr  Cr8  1  0.99927069  0.66684700  0.33336142  1
  Ni  Ni9  1  0.33593266  0.00237020  1.00012663  1
  Ni  Ni10  1  0.50139773  0.16635755  0.16608356  1
  Cr  Cr11  1  0.33606034  1.00003126  0.33312968  1
  Ni  Ni12  1  0.33247483  0.33122254  1.00010892  1
  Cr  Cr13  1  0.50098012  0.49897842  0.16772649  1
  Ni  Ni14  1  0.33491348  0.33535660  0.33122612  1
  Cr  Cr15  1  0.33449628  0.66667855  0.99902834  1
  Ni  Ni16  1  0.50249555  0.83464442  0.16735510  1
  Fe  Fe17  1  0.33412392  0.66626469  0.33368988  1
  Fe  Fe18  1  0.66473359  0.99915258  0.00108467  1
  Cr  Cr19  1  0.83182392  0.16693722  0.16732338  1
  Ni  Ni20  1  0.66731742  0.99888425  0.33345870  1
  Ni  Ni21  1  0.66701981  0.33443100  0.00028027  1
  Ni  Ni22  1  0.83227417  0.50034046  0.16558496  1
  Ni  Ni23  1  0.66623182  0.33296441  0.33408748  1
  Fe  Fe24  1  0.66669743  0.66679088  0.99970464  1
  Fe  Fe25  1  0.83060889  0.83347980  0.16789000  1
  Fe  Fe26  1  0.66738938  0.66810381  0.33354155  1
  Cr  Cr27  1  0.16400078  0.16452242  0.50112529  1
  Fe  Fe28  1  0.99910033  0.99948346  0.66507743  1
  Ni  Ni29  1  0.16597675  0.16777059  0.83519106  1
  Fe  Fe30  1  0.16494082  0.50257530  0.50075429  1
  Fe  Fe31  1  0.99824174  0.33455683  0.66730644  1
  Ni  Ni32  1  0.16608908  0.49862124  0.83242266  1
  Ni  Ni33  1  0.16589204  0.83216623  0.50216286  1
  Ni  Ni34  1  0.00054940  0.66603738  0.66583752  1
  Cr  Cr35  1  0.16773592  0.83496598  0.83161355  1
  Cr  Cr36  1  0.50435679  0.16685716  0.49952697  1
  Ni  Ni37  1  0.33397339  0.99762529  0.66723780  1
  Cr  Cr38  1  0.49998429  0.16651630  0.83459588  1
  Cr  Cr39  1  0.50102596  0.50079381  0.49825074  1
  Cr  Cr40  1  0.33228681  0.33298764  0.66925004  1
  Fe  Fe41  1  0.50001856  0.50000040  0.83430277  1
  Fe  Fe42  1  0.50119208  0.83447273  0.50057110  1
  Fe  Fe43  1  0.33245272  0.66897298  0.66727362  1
  Ni  Ni44  1  0.50073742  0.83299324  0.83277256  1
  Ni  Ni45  1  0.83246843  0.16606178  0.50096015  1
  Ni  Ni46  1  0.66655726  0.99924031  0.66571923  1
  Cr  Cr47  1  0.83484302  0.16765882  0.83221302  1
  Ni  Ni48  1  0.83324129  0.49928912  0.50142341  1
  Ni  Ni49  1  0.66986167  0.33303165  0.66616743  1
  Fe  Fe50  1  0.83405808  0.49963296  0.83356571  1
  Ni  Ni51  1  0.83516573  0.83518494  0.49982149  1
  Cr  Cr52  1  0.66918826  0.66802086  0.66870040  1
  Fe  Fe53  1  0.83260982  0.83363885  0.83248969  1
" 