4686,Ni42Fe32Cr25_17,-229.839316260232, 191.386260220695,Ni42Fe32Cr25,"# generated using pymatgen
 data_Cr15Fe17Ni22
_symmetry_space_group_name_H-M   'P 1'
_cell_length_a   7.45538970
_cell_length_b   7.45538970
_cell_length_c   10.54351323
_cell_angle_alpha   90.00000000
_cell_angle_beta   90.00000000
_cell_angle_gamma   90.00000000
_symmetry_Int_Tables_number   1
_chemical_formula_structural   Cr15Fe17Ni22
_chemical_formula_sum   'Cr15 Fe17 Ni22'
_cell_volume   586.03836187
_cell_formula_units_Z   1
loop_
 _symmetry_equiv_pos_site_id
 _symmetry_equiv_pos_as_xyz
  1  'x, y, z'
loop_
 _atom_site_type_symbol
 _atom_site_label
 _atom_site_symmetry_multiplicity
 _atom_site_fract_x
 _atom_site_fract_y
 _atom_site_fract_z
 _atom_site_occupancy
  Ni  Ni0  1  0.00147324  0.99850947  0.00212939  1
  Ni  Ni1  1  0.16813031  0.16697735  0.16642327  1
  Ni  Ni2  1  0.99870549  0.99980597  0.33258831  1
  Cr  Cr3  1  0.00268334  0.33194702  0.99994954  1
  Fe  Fe4  1  0.16948228  0.50099569  0.16628854  1
  Cr  Cr5  1  0.99954500  0.33196003  0.33452218  1
  Fe  Fe6  1  0.00142538  0.67001039  1.00022654  1
  Ni  Ni7  1  0.16429343  0.83461949  0.16573424  1
  Fe  Fe8  1  0.99984262  0.67019204  0.33412832  1
  Fe  Fe9  1  0.33226242  0.00234831  0.00139357  1
  Ni  Ni10  1  0.49992940  0.16951041  0.16719333  1
  Cr  Cr11  1  0.33291806  0.00130616  0.33443931  1
  Ni  Ni12  1  0.33444950  0.33500070  0.00146261  1
  Fe  Fe13  1  0.49979177  0.49938194  0.16710182  1
  Fe  Fe14  1  0.33758768  0.33379956  0.33348648  1
  Ni  Ni15  1  0.33381942  0.66614798  1.00064055  1
  Cr  Cr16  1  0.50299455  0.83338991  0.16636648  1
  Cr  Cr17  1  0.33347662  0.66573225  0.33482815  1
  Fe  Fe18  1  0.66837066  0.99977351  0.00224046  1
  Ni  Ni19  1  0.83428587  0.16403615  0.16898301  1
  Ni  Ni20  1  0.67072639  0.00336983  0.33311256  1
  Cr  Cr21  1  0.66487118  0.33402556  0.00125125  1
  Cr  Cr22  1  0.83289587  0.50314958  0.16798378  1
  Ni  Ni23  1  0.66610000  0.33314648  0.33562643  1
  Ni  Ni24  1  0.66669557  0.66856357  0.99921052  1
  Ni  Ni25  1  0.83571317  0.83515064  0.16730967  1
  Ni  Ni26  1  0.66776238  0.66582810  0.33477971  1
  Cr  Cr27  1  0.16750905  0.16806869  0.50154733  1
  Cr  Cr28  1  0.00130274  0.00175804  0.66712454  1
  Ni  Ni29  1  0.16939839  0.16871741  0.83399896  1
  Fe  Fe30  1  0.16796677  0.50021335  0.50143407  1
  Ni  Ni31  1  1.00043093  0.33432037  0.66773770  1
  Fe  Fe32  1  0.16863128  0.49945061  0.83462217  1
  Ni  Ni33  1  0.16653749  0.83323107  0.50037426  1
  Cr  Cr34  1  0.00087057  0.66625513  0.66804221  1
  Fe  Fe35  1  0.16663621  0.83496903  0.83632878  1
  Ni  Ni36  1  0.50250821  0.17089773  0.50242740  1
  Fe  Fe37  1  0.33378327  0.00364386  0.66756757  1
  Fe  Fe38  1  0.49831384  0.16856398  0.83339755  1
  Ni  Ni39  1  0.50213417  0.49823219  0.49997823  1
  Ni  Ni40  1  0.33554262  0.33369161  0.66787849  1
  Ni  Ni41  1  0.50029804  0.50071701  0.83485818  1
  Cr  Cr42  1  0.50144091  0.83402011  0.50167535  1
  Cr  Cr43  1  0.33445208  0.66684480  0.66643220  1
  Cr  Cr44  1  0.50215132  0.83325378  0.83430481  1
  Ni  Ni45  1  0.83216036  0.16937365  0.50018222  1
  Fe  Fe46  1  0.66650925  0.00290308  0.66676683  1
  Cr  Cr47  1  0.83579697  0.16710523  0.83343267  1
  Fe  Fe48  1  0.83219123  0.49880572  0.50042862  1
  Fe  Fe49  1  0.66649842  0.33486515  0.66591066  1
  Fe  Fe50  1  0.83329139  0.50291512  0.83355175  1
  Cr  Cr51  1  0.83404709  0.83418934  0.49778969  1
  Fe  Fe52  1  0.66797833  0.66457777  0.66851951  1
  Ni  Ni53  1  0.83360707  0.83195770  0.83650786  1
" 