6783,Ni42Fe42Cr14_3,-233.655933203647, 203.451019311756,Ni42Fe42Cr14,"# generated using pymatgen
 data_Cr9Fe23Ni22
_symmetry_space_group_name_H-M   'P 1'
_cell_length_a   7.42933753
_cell_length_b   7.42933753
_cell_length_c   10.50666989
_cell_angle_alpha   90.00000000
_cell_angle_beta   90.00000000
_cell_angle_gamma   90.00000000
_symmetry_Int_Tables_number   1
_chemical_formula_structural   Cr9Fe23Ni22
_chemical_formula_sum   'Cr9 Fe23 Ni22'
_cell_volume   579.91623389
_cell_formula_units_Z   1
loop_
 _symmetry_equiv_pos_site_id
 _symmetry_equiv_pos_as_xyz
  1  'x, y, z'
loop_
 _atom_site_type_symbol
 _atom_site_label
 _atom_site_symmetry_multiplicity
 _atom_site_fract_x
 _atom_site_fract_y
 _atom_site_fract_z
 _atom_site_occupancy
  Cr  Cr0  1  1.00193861  0.00415459  0.00404209  1
  Ni  Ni1  1  0.17081826  0.16871885  0.17044910  1
  Fe  Fe2  1  0.00305140  0.00617235  0.33649858  1
  Fe  Fe3  1  1.00155456  0.33587422  1.00184446  1
  Cr  Cr4  1  0.16942775  0.50231992  0.16649361  1
  Ni  Ni5  1  0.00257210  0.33540397  0.33558862  1
  Ni  Ni6  1  0.00288002  0.66581061  1.00013366  1
  Ni  Ni7  1  0.17135829  0.83755907  0.17044444  1
  Cr  Cr8  1  0.00581612  0.66637320  0.33645936  1
  Ni  Ni9  1  0.33804262  1.00149189  0.00400208  1
  Ni  Ni10  1  0.50255046  0.16984482  0.16886152  1
  Fe  Fe11  1  0.33576670  0.00358449  0.33472163  1
  Fe  Fe12  1  0.33541472  0.33373154  0.00417995  1
  Ni  Ni13  1  0.50448697  0.50138527  0.16954867  1
  Fe  Fe14  1  0.33653808  0.33549014  0.33618723  1
  Ni  Ni15  1  0.33647686  0.66989961  0.00406727  1
  Ni  Ni16  1  0.50152170  0.83634716  0.16914865  1
  Fe  Fe17  1  0.33911234  0.66864452  0.33587025  1
  Ni  Ni18  1  0.66639071  0.00368814  1.00201094  1
  Fe  Fe19  1  0.83381211  0.17107426  0.17086233  1
  Ni  Ni20  1  0.66530521  0.00445949  0.33504803  1
  Fe  Fe21  1  0.67124299  0.33587270  0.00470707  1
  Ni  Ni22  1  0.83372913  0.50046147  0.16937213  1
  Ni  Ni23  1  0.66890146  0.33488523  0.33688435  1
  Fe  Fe24  1  0.66910633  0.67039430  1.00206371  1
  Cr  Cr25  1  0.83554348  0.83524156  0.16896758  1
  Fe  Fe26  1  0.66716869  0.66697999  0.33616696  1
  Fe  Fe27  1  0.16705111  0.16974666  0.50196009  1
  Ni  Ni28  1  0.00365833  0.00627294  0.66848856  1
  Fe  Fe29  1  0.16881657  0.17144165  0.83604965  1
  Ni  Ni30  1  0.17094802  0.50223520  0.50454175  1
  Ni  Ni31  1  0.00398334  0.33581332  0.66940635  1
  Fe  Fe32  1  0.16862960  0.50036887  0.83574905  1
  Ni  Ni33  1  0.17118808  0.83614792  0.50205329  1
  Fe  Fe34  1  1.00164074  0.66802071  0.66896565  1
  Cr  Cr35  1  0.16981013  0.83545067  0.83528663  1
  Fe  Fe36  1  0.50158639  0.16945610  0.50097547  1
  Fe  Fe37  1  0.33415852  1.00229632  0.66803436  1
  Cr  Cr38  1  0.50174010  0.16943546  0.83642718  1
  Fe  Fe39  1  0.50296280  0.50260552  0.50222907  1
  Fe  Fe40  1  0.33500931  0.33554828  0.66730360  1
  Cr  Cr41  1  0.50224601  0.50245346  0.83704656  1
  Fe  Fe42  1  0.50103450  0.83548475  0.50190925  1
  Fe  Fe43  1  0.33579686  0.66984097  0.66778614  1
  Ni  Ni44  1  0.50097915  0.83505202  0.83638964  1
  Ni  Ni45  1  0.83516348  0.17106304  0.50120973  1
  Cr  Cr46  1  0.66867439  1.00239906  0.67099829  1
  Ni  Ni47  1  0.83647544  0.17168951  0.83641577  1
  Fe  Fe48  1  0.83720926  0.50022362  0.50340038  1
  Fe  Fe49  1  0.67328709  0.33686970  0.66723289  1
  Ni  Ni50  1  0.83668601  0.50121265  0.83422849  1
  Cr  Cr51  1  0.83718264  0.83795852  0.50321609  1
  Ni  Ni52  1  0.66688307  0.66769623  0.66905134  1
  Fe  Fe53  1  0.83371888  0.83440105  0.83606798  1
" 