8621,Ni42Fe42Cr14_19,-233.893132327923, 203.453667193088,Ni42Fe42Cr14,"# generated using pymatgen
 data_Cr9Fe23Ni22
_symmetry_space_group_name_H-M   'P 1'
_cell_length_a   7.43362129
_cell_length_b   7.43362129
_cell_length_c   10.51272805
_cell_angle_alpha   90.00000000
_cell_angle_beta   90.00000000
_cell_angle_gamma   90.00000000
_symmetry_Int_Tables_number   1
_chemical_formula_structural   Cr9Fe23Ni22
_chemical_formula_sum   'Cr9 Fe23 Ni22'
_cell_volume   580.91995403
_cell_formula_units_Z   1
loop_
 _symmetry_equiv_pos_site_id
 _symmetry_equiv_pos_as_xyz
  1  'x, y, z'
loop_
 _atom_site_type_symbol
 _atom_site_label
 _atom_site_symmetry_multiplicity
 _atom_site_fract_x
 _atom_site_fract_y
 _atom_site_fract_z
 _atom_site_occupancy
  Ni  Ni0  1  0.99976301  1.00220332  1.00121966  1
  Cr  Cr1  1  0.16866084  0.17015289  0.16901959  1
  Cr  Cr2  1  0.00298002  1.00093317  0.33629140  1
  Fe  Fe3  1  0.00226115  0.33635301  1.00159608  1
  Ni  Ni4  1  0.16766080  0.50464578  0.16814633  1
  Fe  Fe5  1  0.00228281  0.33880916  0.33486912  1
  Fe  Fe6  1  0.00274696  0.66868822  0.00341740  1
  Fe  Fe7  1  0.16867554  0.83172853  0.16923235  1
  Ni  Ni8  1  0.00332268  0.66908405  0.33513019  1
  Cr  Cr9  1  0.33401941  0.00290988  1.00061185  1
  Fe  Fe10  1  0.50482074  0.17009031  0.16993681  1
  Ni  Ni11  1  0.33608704  1.00116745  0.33730556  1
  Ni  Ni12  1  0.33632008  0.33811994  1.00130925  1
  Fe  Fe13  1  0.50194203  0.50226302  0.16671945  1
  Cr  Cr14  1  0.33669422  0.33619978  0.33655892  1
  Ni  Ni15  1  0.33684955  0.66603379  0.00276969  1
  Fe  Fe16  1  0.50151730  0.83438626  0.16843412  1
  Ni  Ni17  1  0.33402505  0.66967462  0.33549718  1
  Fe  Fe18  1  0.66995073  1.00162460  1.00133296  1
  Fe  Fe19  1  0.83395798  0.17058749  0.16789625  1
  Fe  Fe20  1  0.66621118  0.00263667  0.33590785  1
  Fe  Fe21  1  0.66857896  0.33620714  0.00266777  1
  Ni  Ni22  1  0.83663636  0.50204794  0.16853997  1
  Ni  Ni23  1  0.66883050  0.33499523  0.33420515  1
  Ni  Ni24  1  0.66924544  0.66783789  0.00225767  1
  Fe  Fe25  1  0.83655039  0.83460122  0.16781237  1
  Cr  Cr26  1  0.66893387  0.66774515  0.33584896  1
  Ni  Ni27  1  0.17239099  0.16988985  0.50291936  1
  Cr  Cr28  1  0.00288265  1.00208643  0.66931749  1
  Ni  Ni29  1  0.16806674  0.17024139  0.83523734  1
  Ni  Ni30  1  0.16951554  0.50328992  0.50265272  1
  Fe  Fe31  1  0.00490191  0.33613089  0.67027728  1
  Fe  Fe32  1  0.17039390  0.50177228  0.83550452  1
  Fe  Fe33  1  0.17051259  0.83438582  0.50181771  1
  Fe  Fe34  1  0.00503728  0.66868288  0.66832711  1
  Fe  Fe35  1  0.16982584  0.83478214  0.83569243  1
  Ni  Ni36  1  0.50081630  0.16650093  0.50339525  1
  Ni  Ni37  1  0.33600677  0.00392257  0.66838427  1
  Fe  Fe38  1  0.50255573  0.16962106  0.83388476  1
  Fe  Fe39  1  0.49951975  0.50081806  0.50343209  1
  Ni  Ni40  1  0.33538679  0.33539868  0.66878069  1
  Ni  Ni41  1  0.50121943  0.50339511  0.83674435  1
  Fe  Fe42  1  0.50008814  0.83776679  0.50292724  1
  Ni  Ni43  1  0.33512787  0.66742221  0.66847744  1
  Ni  Ni44  1  0.50238783  0.83467373  0.83532315  1
  Cr  Cr45  1  0.83383405  0.16883677  0.50096753  1
  Ni  Ni46  1  0.66819043  0.00267636  0.66927454  1
  Ni  Ni47  1  0.83584639  0.16906684  0.83676498  1
  Cr  Cr48  1  0.83791160  0.50274649  0.50240878  1
  Fe  Fe49  1  0.66614653  0.33338969  0.66995281  1
  Fe  Fe50  1  0.83543081  0.50127250  0.83677717  1
  Ni  Ni51  1  0.83465917  0.83520059  0.50219929  1
  Cr  Cr52  1  0.66837001  0.66929234  0.66875626  1
  Fe  Fe53  1  0.83485954  0.83642042  0.83667879  1
" 