1194,Ni42Fe58_12,-242.293870539135, 221.466275714499,Ni42Fe58,"# generated using pymatgen
 data_Fe11Ni16
_symmetry_space_group_name_H-M   'P 1'
_cell_length_a   7.41054124
_cell_length_b   7.41054124
_cell_length_c   10.48008793
_cell_angle_alpha   90.00000000
_cell_angle_beta   90.00000000
_cell_angle_gamma   90.00000000
_symmetry_Int_Tables_number   1
_chemical_formula_structural   Fe11Ni16
_chemical_formula_sum   'Fe22 Ni32'
_cell_volume   575.52578159
_cell_formula_units_Z   2
loop_
 _symmetry_equiv_pos_site_id
 _symmetry_equiv_pos_as_xyz
  1  'x, y, z'
loop_
 _atom_site_type_symbol
 _atom_site_label
 _atom_site_symmetry_multiplicity
 _atom_site_fract_x
 _atom_site_fract_y
 _atom_site_fract_z
 _atom_site_occupancy
  Ni  Ni0  1  1.00353433  0.00447078  0.00446624  1
  Ni  Ni1  1  0.17139504  0.16964276  0.16986852  1
  Fe  Fe2  1  0.00428780  0.00428241  0.33700384  1
  Ni  Ni3  1  0.00399559  0.33713765  1.00379113  1
  Fe  Fe4  1  0.17030901  0.50364834  0.16993621  1
  Fe  Fe5  1  0.00401111  0.33694556  0.33722282  1
  Ni  Ni6  1  1.00350098  0.66983211  1.00378637  1
  Fe  Fe7  1  0.17037265  0.83702924  0.16965922  1
  Fe  Fe8  1  1.00339083  0.67021441  0.33729892  1
  Ni  Ni9  1  0.33701046  0.00411109  0.00427183  1
  Fe  Fe10  1  0.50399964  0.17058188  0.17119369  1
  Ni  Ni11  1  0.33748395  1.00306323  0.33706549  1
  Ni  Ni12  1  0.33615700  0.33712606  0.00448650  1
  Fe  Fe13  1  0.50353806  0.50354411  0.17025403  1
  Fe  Fe14  1  0.33764864  0.33603323  0.33746500  1
  Ni  Ni15  1  0.33702013  0.67019599  1.00366396  1
  Fe  Fe16  1  0.50365325  0.83731052  0.17089257  1
  Ni  Ni17  1  0.33664027  0.67102694  0.33741797  1
  Ni  Ni18  1  0.67090509  1.00361706  1.00379526  1
  Fe  Fe19  1  0.83731301  0.17064986  0.16989407  1
  Ni  Ni20  1  0.67022468  0.00507398  0.33788145  1
  Fe  Fe21  1  0.67115975  0.33745141  1.00380031  1
  Ni  Ni22  1  0.83649241  0.50454979  0.16979282  1
  Ni  Ni23  1  0.67144546  0.33654157  0.33684971  1
  Ni  Ni24  1  0.67091602  0.67067057  0.00483642  1
  Fe  Fe25  1  0.83741195  0.83749674  0.16986674  1
  Fe  Fe26  1  0.66981544  0.67081939  0.33723517  1
  Ni  Ni27  1  0.17180837  0.17064262  0.50431114  1
  Ni  Ni28  1  0.00444431  0.00426539  0.66992610  1
  Ni  Ni29  1  0.17057306  0.16983622  0.83725061  1
  Ni  Ni30  1  0.16908097  0.50329611  0.50359529  1
  Ni  Ni31  1  1.00325564  0.33695632  0.67000772  1
  Ni  Ni32  1  0.16953631  0.50418421  0.83805362  1
  Fe  Fe33  1  0.17141137  0.83706879  0.50455336  1
  Ni  Ni34  1  1.00360212  0.67022325  0.67034995  1
  Ni  Ni35  1  0.17176488  0.83741754  0.83734781  1
  Ni  Ni36  1  0.50295261  0.16829399  0.50359667  1
  Ni  Ni37  1  0.33627113  0.00389660  0.67010050  1
  Fe  Fe38  1  0.50298550  0.17105106  0.83672111  1
  Fe  Fe39  1  0.50331186  0.50330244  0.50411651  1
  Ni  Ni40  1  0.33706499  0.33693013  0.66919622  1
  Fe  Fe41  1  0.50307810  0.50354704  0.83706068  1
  Ni  Ni42  1  0.50409972  0.83832293  0.50359767  1
  Ni  Ni43  1  0.33708561  0.67060453  0.67035979  1
  Fe  Fe44  1  0.50321270  0.83683855  0.83702458  1
  Fe  Fe45  1  0.83677111  0.17111515  0.50432610  1
  Fe  Fe46  1  0.67017616  0.00396800  0.67011185  1
  Ni  Ni47  1  0.83719510  0.17135644  0.83759299  1
  Ni  Ni48  1  0.83751722  0.50444987  0.50405606  1
  Ni  Ni49  1  0.67110658  0.33776949  0.67057452  1
  Ni  Ni50  1  0.83715918  0.50373586  0.83758090  1
  Fe  Fe51  1  0.83718711  0.83726332  0.50405324  1
  Ni  Ni52  1  0.67075108  0.66941908  0.66919680  1
  Fe  Fe53  1  0.83884327  0.83705699  0.83752061  1
" 