6064,Ni42Fe32Cr25_12,-229.726935559829, 195.056559625489,Ni42Fe32Cr25,"# generated using pymatgen
 data_Cr15Fe17Ni22
_symmetry_space_group_name_H-M   'P 1'
_cell_length_a   7.45151143
_cell_length_b   7.45151143
_cell_length_c   10.53802853
_cell_angle_alpha   90.00000000
_cell_angle_beta   90.00000000
_cell_angle_gamma   90.00000000
_symmetry_Int_Tables_number   1
_chemical_formula_structural   Cr15Fe17Ni22
_chemical_formula_sum   'Cr15 Fe17 Ni22'
_cell_volume   585.12427263
_cell_formula_units_Z   1
loop_
 _symmetry_equiv_pos_site_id
 _symmetry_equiv_pos_as_xyz
  1  'x, y, z'
loop_
 _atom_site_type_symbol
 _atom_site_label
 _atom_site_symmetry_multiplicity
 _atom_site_fract_x
 _atom_site_fract_y
 _atom_site_fract_z
 _atom_site_occupancy
  Cr  Cr0  1  0.99748465  0.00239868  1.00064380  1
  Ni  Ni1  1  0.16718141  0.16918615  0.16707298  1
  Ni  Ni2  1  0.99709715  0.00364212  0.33546022  1
  Ni  Ni3  1  0.00233692  0.33613697  0.00335409  1
  Fe  Fe4  1  0.16723570  0.49923762  0.16552665  1
  Fe  Fe5  1  0.99851679  0.33303184  0.33351559  1
  Fe  Fe6  1  0.99905688  0.66351059  0.00131778  1
  Cr  Cr7  1  0.16743964  0.83447488  0.16663802  1
  Cr  Cr8  1  0.99799995  0.66582383  0.33393025  1
  Fe  Fe9  1  0.33567218  0.00228061  0.00191005  1
  Ni  Ni10  1  0.50072951  0.17117407  0.16654326  1
  Cr  Cr11  1  0.33521094  0.00553145  0.33298874  1
  Ni  Ni12  1  0.33315004  0.33675964  0.00247843  1
  Fe  Fe13  1  0.50298175  0.50040727  0.16670004  1
  Cr  Cr14  1  0.33357754  0.33635741  0.33508081  1
  Ni  Ni15  1  0.33685623  0.66229786  0.00111275  1
  Cr  Cr16  1  0.50135361  0.83225495  0.16863450  1
  Fe  Fe17  1  0.33543633  0.66506232  0.33465956  1
  Cr  Cr18  1  0.66774604  0.99911187  0.00188151  1
  Fe  Fe19  1  0.83474091  0.16869308  0.16923520  1
  Fe  Fe20  1  0.67142781  0.00196475  0.33395813  1
  Fe  Fe21  1  0.66818500  0.33754494  0.00162437  1
  Ni  Ni22  1  0.83286875  0.49933700  0.16687894  1
  Fe  Fe23  1  0.66949239  0.33486469  0.33436604  1
  Ni  Ni24  1  0.66802284  0.66700688  0.99972061  1
  Ni  Ni25  1  0.83427269  0.83129084  0.16906617  1
  Ni  Ni26  1  0.66949610  0.66678539  0.33489869  1
  Fe  Fe27  1  0.16633533  0.16867144  0.50140862  1
  Fe  Fe28  1  1.00049283  0.00159096  0.66620742  1
  Cr  Cr29  1  0.16748612  0.16768189  0.83377840  1
  Fe  Fe30  1  0.16817416  0.50078341  0.50158621  1
  Cr  Cr31  1  0.00146565  0.33488834  0.66603893  1
  Fe  Fe32  1  0.17046447  0.49986428  0.83609305  1
  Cr  Cr33  1  0.16818884  0.83598667  0.50187167  1
  Cr  Cr34  1  0.99677112  0.66614292  0.66972431  1
  Cr  Cr35  1  0.17107163  0.83365240  0.83458432  1
  Fe  Fe36  1  0.50370009  0.16998777  0.50204908  1
  Ni  Ni37  1  0.33588537  0.00322297  0.66762200  1
  Cr  Cr38  1  0.50072529  0.17097068  0.83412141  1
  Ni  Ni39  1  0.50341175  0.50015538  0.50160608  1
  Ni  Ni40  1  0.33517554  0.33589277  0.66561848  1
  Ni  Ni41  1  0.50311898  0.50340235  0.83423635  1
  Cr  Cr42  1  0.50080138  0.83098337  0.50032506  1
  Ni  Ni43  1  0.33735599  0.66395762  0.66725031  1
  Ni  Ni44  1  0.49841109  0.82999796  0.83420621  1
  Ni  Ni45  1  0.83576786  0.16975686  0.49851044  1
  Cr  Cr46  1  0.66993853  0.99913918  0.66791991  1
  Ni  Ni47  1  0.83519221  0.17299331  0.83502071  1
  Ni  Ni48  1  0.83031726  0.49905179  0.50053476  1
  Fe  Fe49  1  0.66640724  0.33770153  0.66686760  1
  Ni  Ni50  1  0.83143014  0.49952893  0.83601113  1
  Ni  Ni51  1  0.83459196  0.83468535  0.50045600  1
  Ni  Ni52  1  0.66700162  0.66708404  0.66864987  1
  Fe  Fe53  1  0.83104199  0.83235229  0.83479865  1
" 