3214,Ni42Fe58_14,-243.094742874276, 226.081949772,Ni42Fe58,"# generated using pymatgen
 data_Fe11Ni16
_symmetry_space_group_name_H-M   'P 1'
_cell_length_a   7.40900803
_cell_length_b   7.40900803
_cell_length_c   10.47791964
_cell_angle_alpha   90.00000000
_cell_angle_beta   90.00000000
_cell_angle_gamma   90.00000000
_symmetry_Int_Tables_number   1
_chemical_formula_structural   Fe11Ni16
_chemical_formula_sum   'Fe22 Ni32'
_cell_volume   575.16863312
_cell_formula_units_Z   2
loop_
 _symmetry_equiv_pos_site_id
 _symmetry_equiv_pos_as_xyz
  1  'x, y, z'
loop_
 _atom_site_type_symbol
 _atom_site_label
 _atom_site_symmetry_multiplicity
 _atom_site_fract_x
 _atom_site_fract_y
 _atom_site_fract_z
 _atom_site_occupancy
  Ni  Ni0  1  0.00479551  0.00412304  1.00339717  1
  Ni  Ni1  1  0.17055337  0.17102292  0.17235744  1
  Fe  Fe2  1  1.00326705  1.00314092  0.33600792  1
  Fe  Fe3  1  0.00463303  0.33489753  1.00283412  1
  Fe  Fe4  1  0.16996125  0.50445905  0.17131626  1
  Fe  Fe5  1  1.00388626  0.33761980  0.33838341  1
  Fe  Fe6  1  0.00435193  0.67260326  0.00438252  1
  Ni  Ni7  1  0.17136650  0.83782655  0.17139660  1
  Ni  Ni8  1  0.00405106  0.67074711  0.33679863  1
  Ni  Ni9  1  0.33606535  1.00326530  1.00314733  1
  Fe  Fe10  1  0.50320689  0.16810111  0.17122902  1
  Ni  Ni11  1  0.33712249  1.00365036  0.33792312  1
  Fe  Fe12  1  0.33614270  0.33556097  0.00430254  1
  Fe  Fe13  1  0.50424180  0.50407779  0.17084663  1
  Ni  Ni14  1  0.33780524  0.33736954  0.33736794  1
  Fe  Fe15  1  0.33699405  0.67228954  1.00329708  1
  Ni  Ni16  1  0.50354336  0.83631389  0.17174910  1
  Ni  Ni17  1  0.33658364  0.67065598  0.33640706  1
  Fe  Fe18  1  0.67098190  1.00336210  0.00406703  1
  Ni  Ni19  1  0.83792787  0.17108395  0.17149644  1
  Ni  Ni20  1  0.67045939  0.00422882  0.33576873  1
  Fe  Fe21  1  0.67100682  0.33582885  1.00329772  1
  Fe  Fe22  1  0.83762990  0.50470283  0.17108174  1
  Ni  Ni23  1  0.67101118  0.33705961  0.33680078  1
  Fe  Fe24  1  0.67038407  0.67237310  0.00398343  1
  Ni  Ni25  1  0.83677676  0.83767714  0.17127825  1
  Ni  Ni26  1  0.67125478  0.67017926  0.33796645  1
  Fe  Fe27  1  0.16887778  0.17148400  0.50374847  1
  Fe  Fe28  1  1.00237921  0.00422064  0.67161844  1
  Ni  Ni29  1  0.17117853  0.17115125  0.83568246  1
  Ni  Ni30  1  0.17149621  0.50437629  0.50307981  1
  Ni  Ni31  1  1.00298057  0.33781288  0.67119242  1
  Ni  Ni32  1  0.17083284  0.50393250  0.83802963  1
  Fe  Fe33  1  0.16982041  0.83689655  0.50346203  1
  Fe  Fe34  1  1.00288251  0.66969702  0.66986760  1
  Ni  Ni35  1  0.17052951  0.83679409  0.83657990  1
  Ni  Ni36  1  0.50427658  0.17014005  0.50263698  1
  Fe  Fe37  1  0.33851683  0.00528367  0.67111752  1
  Ni  Ni38  1  0.50356699  0.17093291  0.83852721  1
  Fe  Fe39  1  0.50526844  0.50338370  0.50398100  1
  Fe  Fe40  1  0.33802094  0.33742804  0.66990454  1
  Ni  Ni41  1  0.50356378  0.50366971  0.83638733  1
  Fe  Fe42  1  0.50507150  0.83730231  0.50354497  1
  Ni  Ni43  1  0.33588872  0.67113489  0.67115477  1
  Ni  Ni44  1  0.50394833  0.83712172  0.83673969  1
  Ni  Ni45  1  0.83547926  0.16993843  0.50310470  1
  Ni  Ni46  1  0.67076167  0.00504907  0.67235931  1
  Ni  Ni47  1  0.83716838  0.17049736  0.83732439  1
  Ni  Ni48  1  0.83842806  0.50373010  0.50307446  1
  Ni  Ni49  1  0.67227863  0.33596970  0.67120555  1
  Ni  Ni50  1  0.83737439  0.50436935  0.83755852  1
  Ni  Ni51  1  0.83649398  0.83799014  0.50277326  1
  Fe  Fe52  1  0.67124587  0.67017011  0.67047252  1
  Ni  Ni53  1  0.83717451  0.83681179  0.83749664  1
" 