5736,Ni42Fe58_17,-242.781505274499, 226.546248708223,Ni42Fe58,"# generated using pymatgen
 data_Fe11Ni16
_symmetry_space_group_name_H-M   'P 1'
_cell_length_a   7.40453032
_cell_length_b   7.40453032
_cell_length_c   10.47158721
_cell_angle_alpha   90.00000000
_cell_angle_beta   90.00000000
_cell_angle_gamma   90.00000000
_symmetry_Int_Tables_number   1
_chemical_formula_structural   Fe11Ni16
_chemical_formula_sum   'Fe22 Ni32'
_cell_volume   574.12643776
_cell_formula_units_Z   2
loop_
 _symmetry_equiv_pos_site_id
 _symmetry_equiv_pos_as_xyz
  1  'x, y, z'
loop_
 _atom_site_type_symbol
 _atom_site_label
 _atom_site_symmetry_multiplicity
 _atom_site_fract_x
 _atom_site_fract_y
 _atom_site_fract_z
 _atom_site_occupancy
  Ni  Ni0  1  0.00552803  0.00441266  1.00408618  1
  Ni  Ni1  1  0.17084663  0.17094641  0.17092149  1
  Ni  Ni2  1  0.00453188  0.00460378  0.33708517  1
  Ni  Ni3  1  1.00408683  0.33762223  1.00217332  1
  Fe  Fe4  1  0.16893961  0.50256601  0.17110670  1
  Ni  Ni5  1  0.00554763  0.33750202  0.33876528  1
  Ni  Ni6  1  1.00201493  0.67064157  0.00423964  1
  Fe  Fe7  1  0.17050350  0.84011454  0.17066174  1
  Ni  Ni8  1  1.00266418  0.67026585  0.33650820  1
  Ni  Ni9  1  0.33887430  0.00605146  1.00294835  1
  Ni  Ni10  1  0.50444377  0.17212064  0.17212412  1
  Ni  Ni11  1  0.33778861  0.00628525  0.33876698  1
  Fe  Fe12  1  0.33671844  0.33757820  0.00455175  1
  Fe  Fe13  1  0.50586787  0.50412120  0.17141107  1
  Ni  Ni14  1  0.33716511  0.33635887  0.33779864  1
  Fe  Fe15  1  0.33588554  0.67171627  1.00328097  1
  Fe  Fe16  1  0.50510619  0.83959218  0.17092823  1
  Fe  Fe17  1  0.33685946  0.67151559  0.33841291  1
  Fe  Fe18  1  0.67251368  1.00384885  0.00516744  1
  Ni  Ni19  1  0.83785611  0.16963689  0.17099890  1
  Ni  Ni20  1  0.67010571  1.00318902  0.33755900  1
  Fe  Fe21  1  0.67194607  0.33662967  1.00316909  1
  Fe  Fe22  1  0.83764206  0.50292287  0.17002301  1
  Fe  Fe23  1  0.67208358  0.33654416  0.33868650  1
  Ni  Ni24  1  0.67114524  0.67067517  1.00216642  1
  Ni  Ni25  1  0.83795996  0.83720505  0.17128788  1
  Ni  Ni26  1  0.67166892  0.67103558  0.33915858  1
  Ni  Ni27  1  0.16972688  0.17067022  0.50496714  1
  Fe  Fe28  1  0.00483483  0.00456453  0.67074278  1
  Fe  Fe29  1  0.17029875  0.17172632  0.83797427  1
  Ni  Ni30  1  0.17327350  0.50511585  0.50410024  1
  Fe  Fe31  1  0.00455882  0.33866696  0.67091851  1
  Ni  Ni32  1  0.17163235  0.50605813  0.83730777  1
  Ni  Ni33  1  0.17015324  0.83701051  0.50254882  1
  Ni  Ni34  1  0.00427733  0.67166662  0.67126881  1
  Ni  Ni35  1  0.16977187  0.83670815  0.83839781  1
  Fe  Fe36  1  0.50255378  0.17183817  0.50455662  1
  Fe  Fe37  1  0.33653915  1.00348409  0.67132690  1
  Ni  Ni38  1  0.50519705  0.17161780  0.83747232  1
  Ni  Ni39  1  0.50370806  0.50434389  0.50361334  1
  Ni  Ni40  1  0.33837138  0.33721210  0.67197677  1
  Ni  Ni41  1  0.50331224  0.50322202  0.83842050  1
  Fe  Fe42  1  0.50282944  0.83783364  0.50393668  1
  Ni  Ni43  1  0.33692713  0.67070288  0.67123485  1
  Fe  Fe44  1  0.50470953  0.83720440  0.83778495  1
  Ni  Ni45  1  0.83685520  0.16923848  0.50265183  1
  Fe  Fe46  1  0.67105282  0.00464077  0.67045321  1
  Ni  Ni47  1  0.83625527  0.16967692  0.83841395  1
  Fe  Fe48  1  0.83956653  0.50348883  0.50516056  1
  Ni  Ni49  1  0.67021050  0.33699240  0.67038645  1
  Ni  Ni50  1  0.83726755  0.50428335  0.83658721  1
  Fe  Fe51  1  0.83918012  0.83705061  0.50358261  1
  Fe  Fe52  1  0.66966161  0.66882138  0.67131694  1
  Ni  Ni53  1  0.83894524  0.83842305  0.83687467  1
" 