3850,Ni42Fe5Cr52_6,-217.40413630315, 145.744329718005,Ni42Fe5Cr52,"# generated using pymatgen
 data_Cr15FeNi11
_symmetry_space_group_name_H-M   'P 1'
_cell_length_a   7.52452900
_cell_length_b   7.52452900
_cell_length_c   10.64129097
_cell_angle_alpha   90.00000000
_cell_angle_beta   90.00000000
_cell_angle_gamma   90.00000000
_symmetry_Int_Tables_number   1
_chemical_formula_structural   Cr15FeNi11
_chemical_formula_sum   'Cr30 Fe2 Ni22'
_cell_volume   602.49432333
_cell_formula_units_Z   2
loop_
 _symmetry_equiv_pos_site_id
 _symmetry_equiv_pos_as_xyz
  1  'x, y, z'
loop_
 _atom_site_type_symbol
 _atom_site_label
 _atom_site_symmetry_multiplicity
 _atom_site_fract_x
 _atom_site_fract_y
 _atom_site_fract_z
 _atom_site_occupancy
  Cr  Cr0  1  0.99401022  -0.00217618  -0.00338385  1
  Cr  Cr1  1  0.16625617  0.16490725  0.16201965  1
  Cr  Cr2  1  0.99553329  -0.00248609  0.33025194  1
  Cr  Cr3  1  0.99406433  0.33014472  -0.00347713  1
  Ni  Ni4  1  0.16321962  0.49340810  0.16313943  1
  Cr  Cr5  1  0.99524849  0.33016550  0.33002553  1
  Cr  Cr6  1  0.99414300  0.66068209  -0.00107886  1
  Cr  Cr7  1  0.16371397  0.83164628  0.16097798  1
  Cr  Cr8  1  -0.00293087  0.66127937  0.32713232  1
  Ni  Ni9  1  0.33362297  -0.00115249  -0.00264110  1
  Ni  Ni10  1  0.49571641  0.16273305  0.16327502  1
  Ni  Ni11  1  0.33085781  -0.00144121  0.32775713  1
  Ni  Ni12  1  0.33198030  0.32843745  0.99598084  1
  Cr  Cr13  1  0.49619561  0.49191531  0.16362061  1
  Ni  Ni14  1  0.32908120  0.32824020  0.32959636  1
  Cr  Cr15  1  0.33290874  0.66217002  -0.00264870  1
  Ni  Ni16  1  0.49738395  0.83220728  0.16189292  1
  Cr  Cr17  1  0.32898331  0.66314387  0.32927670  1
  Cr  Cr18  1  0.66113855  -0.00297149  -0.00291878  1
  Ni  Ni19  1  0.82696866  0.16421473  0.16408716  1
  Cr  Cr20  1  0.66205464  -0.00262424  0.32778314  1
  Cr  Cr21  1  0.66247081  0.32969319  0.99474884  1
  Ni  Ni22  1  0.82885832  0.49531033  0.16212578  1
  Ni  Ni23  1  0.66295602  0.32708854  0.32732206  1
  Ni  Ni24  1  0.66281740  0.66204482  -0.00292385  1
  Ni  Ni25  1  0.82682624  0.82893280  0.16193480  1
  Cr  Cr26  1  0.66244937  0.66251352  0.32587430  1
  Fe  Fe27  1  0.16462602  0.16558223  0.49528985  1
  Cr  Cr28  1  0.99469401  -0.00067711  0.66186564  1
  Cr  Cr29  1  0.16530327  0.16375177  0.83179689  1
  Ni  Ni30  1  0.16443868  0.49428988  0.49785930  1
  Cr  Cr31  1  -0.00339149  0.32922846  0.66247163  1
  Cr  Cr32  1  0.16460167  0.49587016  0.82926503  1
  Cr  Cr33  1  0.16278183  0.82845287  0.49799105  1
  Ni  Ni34  1  -0.00317645  0.66054585  0.66272206  1
  Cr  Cr35  1  0.16201176  0.82919565  0.82969894  1
  Cr  Cr36  1  0.49693665  0.16489611  0.49432270  1
  Cr  Cr37  1  0.33192702  -0.00194261  0.66324212  1
  Ni  Ni38  1  0.49639143  0.16546911  0.82981230  1
  Cr  Cr39  1  0.49543532  0.49423271  0.49667018  1
  Ni  Ni40  1  0.32978349  0.33169947  0.66306356  1
  Ni  Ni41  1  0.49633688  0.49485462  0.82810832  1
  Cr  Cr42  1  0.49748920  0.82907868  0.49770025  1
  Ni  Ni43  1  0.32967232  0.65944614  0.66268678  1
  Cr  Cr44  1  0.49724310  0.82831846  0.82846917  1
  Ni  Ni45  1  0.82827021  0.16330046  0.49625900  1
  Ni  Ni46  1  0.66321337  -0.00237035  0.66358174  1
  Ni  Ni47  1  0.82668998  0.16258930  0.82811917  1
  Cr  Cr48  1  0.82794828  0.49608867  0.49673841  1
  Cr  Cr49  1  0.66193726  0.32737395  0.66543410  1
  Fe  Fe50  1  0.82688344  0.49702095  0.82928659  1
  Cr  Cr51  1  0.82815388  0.82948457  0.49898432  1
  Ni  Ni52  1  0.66186371  0.66191433  0.66524947  1
  Cr  Cr53  1  0.82914820  0.82802049  0.82730278  1
" 