2080,Ni42Fe37Cr20_13,-231.996608766087, 205.149081406826,Ni42Fe37Cr20,"# generated using pymatgen
 data_Cr6Fe10Ni11
_symmetry_space_group_name_H-M   'P 1'
_cell_length_a   7.43908715
_cell_length_b   7.43908715
_cell_length_c   10.52045794
_cell_angle_alpha   90.00000000
_cell_angle_beta   90.00000000
_cell_angle_gamma   90.00000000
_symmetry_Int_Tables_number   1
_chemical_formula_structural   Cr6Fe10Ni11
_chemical_formula_sum   'Cr12 Fe20 Ni22'
_cell_volume   582.20232786
_cell_formula_units_Z   2
loop_
 _symmetry_equiv_pos_site_id
 _symmetry_equiv_pos_as_xyz
  1  'x, y, z'
loop_
 _atom_site_type_symbol
 _atom_site_label
 _atom_site_symmetry_multiplicity
 _atom_site_fract_x
 _atom_site_fract_y
 _atom_site_fract_z
 _atom_site_occupancy
  Ni  Ni0  1  0.00244203  0.00318631  0.00191894  1
  Fe  Fe1  1  0.17004642  0.16611153  0.16708580  1
  Ni  Ni2  1  0.00203096  1.00122889  0.33496261  1
  Ni  Ni3  1  0.00213173  0.33302387  0.00221644  1
  Fe  Fe4  1  0.17221046  0.50441265  0.16822428  1
  Cr  Cr5  1  0.00383389  0.33222321  0.33220946  1
  Fe  Fe6  1  0.00300732  0.67021241  0.00462633  1
  Ni  Ni7  1  0.16762934  0.83590262  0.16732995  1
  Ni  Ni8  1  0.00297575  0.67086070  0.33446476  1
  Ni  Ni9  1  0.33438601  0.00260450  0.00307397  1
  Ni  Ni10  1  0.50170764  0.16930104  0.16781093  1
  Fe  Fe11  1  0.33427545  1.00050307  0.33223020  1
  Ni  Ni12  1  0.33573437  0.33405815  0.00338679  1
  Ni  Ni13  1  0.50214869  0.49974781  0.16841121  1
  Fe  Fe14  1  0.33631089  0.33765891  0.33341229  1
  Fe  Fe15  1  0.33596109  0.66862563  0.00641163  1
  Ni  Ni16  1  0.50137655  0.83674327  0.16882260  1
  Ni  Ni17  1  0.33794188  0.66906061  0.33583478  1
  Ni  Ni18  1  0.66833175  0.00249380  0.00402905  1
  Fe  Fe19  1  0.83266845  0.16570983  0.16621406  1
  Fe  Fe20  1  0.67012619  1.00010592  0.33162687  1
  Ni  Ni21  1  0.66773793  0.33485793  0.99893284  1
  Cr  Cr22  1  0.83575434  0.50127744  0.16557655  1
  Ni  Ni23  1  0.66741005  0.33580232  0.33514855  1
  Fe  Fe24  1  0.66711886  0.66918959  0.00495926  1
  Ni  Ni25  1  0.83708457  0.83577584  0.16940758  1
  Ni  Ni26  1  0.66608696  0.66937709  0.33395301  1
  Ni  Ni27  1  0.16806029  0.16789554  0.49982055  1
  Fe  Fe28  1  0.99939379  0.00208574  0.66853476  1
  Fe  Fe29  1  0.16795650  0.16751718  0.83835898  1
  Ni  Ni30  1  0.16950990  0.50196017  0.49864291  1
  Cr  Cr31  1  1.00146891  0.33280405  0.66829776  1
  Cr  Cr32  1  0.16788776  0.50545282  0.83832882  1
  Cr  Cr33  1  0.16784345  0.83423851  0.50291044  1
  Fe  Fe34  1  0.00352450  0.66874989  0.66822504  1
  Fe  Fe35  1  0.16764083  0.83824529  0.83827147  1
  Cr  Cr36  1  0.50302702  0.16687094  0.49831236  1
  Cr  Cr37  1  0.33449249  1.00162345  0.67115485  1
  Ni  Ni38  1  0.50349915  0.17010586  0.83777191  1
  Ni  Ni39  1  0.50114243  0.50220589  0.50062735  1
  Cr  Cr40  1  0.33550306  0.33575014  0.66742571  1
  Fe  Fe41  1  0.50311095  0.50037828  0.83773685  1
  Ni  Ni42  1  0.50284409  0.83525765  0.49928872  1
  Fe  Fe43  1  0.33461873  0.66727461  0.66686504  1
  Cr  Cr44  1  0.49942458  0.83730806  0.83988732  1
  Fe  Fe45  1  0.83565543  0.16601632  0.50084354  1
  Fe  Fe46  1  0.66935212  0.00440509  0.66955416  1
  Ni  Ni47  1  0.83349805  0.16892297  0.83626059  1
  Cr  Cr48  1  0.83595265  0.50255657  0.50056530  1
  Fe  Fe49  1  0.66762655  0.33308482  0.66964003  1
  Fe  Fe50  1  0.83310010  0.49963719  0.83770788  1
  Fe  Fe51  1  0.83342642  0.83707067  0.49883918  1
  Cr  Cr52  1  0.66599135  0.66872267  0.66778447  1
  Cr  Cr53  1  0.83746117  0.83528656  0.83754515  1
" 