4535,Ni42Fe22Cr34_1,-225.829254165169, 174.47458209096,Ni42Fe22Cr34,"# generated using pymatgen
 data_Cr10Fe6Ni11
_symmetry_space_group_name_H-M   'P 1'
_cell_length_a   7.48355958
_cell_length_b   7.48355958
_cell_length_c   10.58335145
_cell_angle_alpha   90.00000000
_cell_angle_beta   90.00000000
_cell_angle_gamma   90.00000000
_symmetry_Int_Tables_number   1
_chemical_formula_structural   Cr10Fe6Ni11
_chemical_formula_sum   'Cr20 Fe12 Ni22'
_cell_volume   592.70645891
_cell_formula_units_Z   2
loop_
 _symmetry_equiv_pos_site_id
 _symmetry_equiv_pos_as_xyz
  1  'x, y, z'
loop_
 _atom_site_type_symbol
 _atom_site_label
 _atom_site_symmetry_multiplicity
 _atom_site_fract_x
 _atom_site_fract_y
 _atom_site_fract_z
 _atom_site_occupancy
  Ni  Ni0  1  0.99694713  -0.00031220  -0.00107292  1
  Fe  Fe1  1  0.16671166  0.16522634  0.16596497  1
  Ni  Ni2  1  -0.00100683  0.00171306  0.33147455  1
  Cr  Cr3  1  0.00251207  0.33050291  0.99858256  1
  Ni  Ni4  1  0.16526400  0.49573987  0.16747968  1
  Ni  Ni5  1  0.00140936  0.32928575  0.33044476  1
  Cr  Cr6  1  -0.00084155  0.66656271  0.99770354  1
  Cr  Cr7  1  0.16497113  0.83400396  0.16591912  1
  Fe  Fe8  1  -0.00075655  0.66778519  0.33023940  1
  Fe  Fe9  1  0.33028848  -0.00011980  -0.00052582  1
  Ni  Ni10  1  0.49736281  0.16420860  0.16447339  1
  Fe  Fe11  1  0.33131207  0.00095815  0.33290668  1
  Ni  Ni12  1  0.33106208  0.33155144  -0.00024676  1
  Cr  Cr13  1  0.49879828  0.49718254  0.16437684  1
  Fe  Fe14  1  0.33173733  0.32838012  0.33150332  1
  Cr  Cr15  1  0.33168628  0.66353943  0.99801515  1
  Ni  Ni16  1  0.50048606  0.83572669  0.16460841  1
  Cr  Cr17  1  0.33501675  0.66634237  0.33230584  1
  Ni  Ni18  1  0.66748040  0.99729297  0.00185524  1
  Fe  Fe19  1  0.83218564  0.16375893  0.16565356  1
  Cr  Cr20  1  0.66430333  0.99754345  0.33226839  1
  Fe  Fe21  1  0.66562678  0.33254862  0.99876346  1
  Cr  Cr22  1  0.83332769  0.49943544  0.16819218  1
  Fe  Fe23  1  0.66357144  0.33026345  0.33286647  1
  Ni  Ni24  1  0.66552072  0.66845758  -0.00035779  1
  Ni  Ni25  1  0.83157027  0.83381189  0.16482958  1
  Fe  Fe26  1  0.66547314  0.66726058  0.33151187  1
  Ni  Ni27  1  0.16731502  0.16318734  0.49712924  1
  Ni  Ni28  1  0.00316471  0.99762073  0.66647505  1
  Ni  Ni29  1  0.16738288  0.16294155  0.83365577  1
  Cr  Cr30  1  0.16397541  0.50007201  0.49734548  1
  Cr  Cr31  1  0.00100628  0.33035355  0.66859831  1
  Ni  Ni32  1  0.16594672  0.49967184  0.83196933  1
  Fe  Fe33  1  0.16729683  0.83472477  0.49954533  1
  Fe  Fe34  1  0.00102972  0.66691899  0.66848888  1
  Ni  Ni35  1  0.16419034  0.83404142  0.82931125  1
  Ni  Ni36  1  0.49447291  0.16512328  0.49768665  1
  Ni  Ni37  1  0.32880406  0.99697556  0.66290791  1
  Cr  Cr38  1  0.49617405  0.16468723  0.83394182  1
  Ni  Ni39  1  0.49814605  0.49901764  0.49766529  1
  Cr  Cr40  1  0.33130397  0.33329443  0.66521314  1
  Fe  Fe41  1  0.49808154  0.49935181  0.83345487  1
  Ni  Ni42  1  0.49600705  0.83256839  0.49830850  1
  Ni  Ni43  1  0.33132119  0.66689567  0.66548730  1
  Cr  Cr44  1  0.49743771  0.83484727  0.83430781  1
  Cr  Cr45  1  0.83477949  0.16615910  0.49892816  1
  Cr  Cr46  1  0.66548905  0.99789707  0.66371882  1
  Cr  Cr47  1  0.83180332  0.16308662  0.83322867  1
  Cr  Cr48  1  0.83327049  0.49950737  0.49609205  1
  Cr  Cr49  1  0.66426456  0.33309989  0.66509340  1
  Ni  Ni50  1  0.83201922  0.50178685  0.83293513  1
  Cr  Cr51  1  0.83667305  0.83085103  0.49943355  1
  Cr  Cr52  1  0.66275833  0.66590421  0.66593683  1
  Ni  Ni53  1  0.83429236  0.83119064  0.83383205  1
" 