985,Ni42Fe26Cr30_18,-229.028042477911, 185.031454635373,Ni42Fe26Cr30,"# generated using pymatgen
 data_Cr17Fe14Ni23
_symmetry_space_group_name_H-M   'P 1'
_cell_length_a   7.47334581
_cell_length_b   7.47334581
_cell_length_c   10.56890700
_cell_angle_alpha   90.00000000
_cell_angle_beta   90.00000000
_cell_angle_gamma   90.00000000
_symmetry_Int_Tables_number   1
_chemical_formula_structural   Cr17Fe14Ni23
_chemical_formula_sum   'Cr17 Fe14 Ni23'
_cell_volume   590.28294223
_cell_formula_units_Z   1
loop_
 _symmetry_equiv_pos_site_id
 _symmetry_equiv_pos_as_xyz
  1  'x, y, z'
loop_
 _atom_site_type_symbol
 _atom_site_label
 _atom_site_symmetry_multiplicity
 _atom_site_fract_x
 _atom_site_fract_y
 _atom_site_fract_z
 _atom_site_occupancy
  Cr  Cr0  1  0.99783938  -0.00017942  0.99882595  1
  Fe  Fe1  1  0.16549016  0.16990401  0.16483203  1
  Cr  Cr2  1  0.99918314  -0.00026804  0.33162055  1
  Ni  Ni3  1  0.99903902  0.33602840  0.99939284  1
  Fe  Fe4  1  0.16686516  0.49945024  0.16371087  1
  Cr  Cr5  1  0.00140828  0.33560651  0.33103431  1
  Ni  Ni6  1  -0.00018087  0.66447960  0.99891427  1
  Cr  Cr7  1  0.16405028  0.82844083  0.16495271  1
  Ni  Ni8  1  -0.00022979  0.66509387  0.33152673  1
  Cr  Cr9  1  0.33152232  0.99724259  0.99625679  1
  Cr  Cr10  1  0.49700089  0.16827251  0.16388938  1
  Cr  Cr11  1  0.33045966  -0.00006651  0.33643202  1
  Ni  Ni12  1  0.33185451  0.33794955  0.00066581  1
  Ni  Ni13  1  0.50129748  0.49769133  0.16348114  1
  Ni  Ni14  1  0.33154803  0.33647313  0.33237540  1
  Ni  Ni15  1  0.33246435  0.66232577  0.99680723  1
  Cr  Cr16  1  0.50054862  0.83062944  0.16279891  1
  Cr  Cr17  1  0.33313256  0.66292926  0.33526981  1
  Ni  Ni18  1  0.66925494  0.99889073  0.99787601  1
  Fe  Fe19  1  0.83136604  0.16798983  0.16291541  1
  Cr  Cr20  1  0.66715479  0.99776145  0.33157217  1
  Ni  Ni21  1  0.66778738  0.33402397  0.99873798  1
  Ni  Ni22  1  0.83366688  0.50167618  0.16356698  1
  Cr  Cr23  1  0.66527880  0.33583827  0.33299167  1
  Fe  Fe24  1  0.66718776  0.66364889  0.99739676  1
  Ni  Ni25  1  0.83301510  0.82774150  0.16421592  1
  Fe  Fe26  1  0.66745890  0.66405343  0.33148812  1
  Ni  Ni27  1  0.16902118  0.16830749  0.50318506  1
  Ni  Ni28  1  0.00278336  0.99865283  0.66793277  1
  Fe  Fe29  1  0.16609275  0.16901512  0.83128775  1
  Ni  Ni30  1  0.16685901  0.50068716  0.50058319  1
  Fe  Fe31  1  0.00344849  0.33490785  0.66928648  1
  Ni  Ni32  1  0.16501129  0.50166354  0.83423875  1
  Ni  Ni33  1  0.16585242  0.83088712  0.50280780  1
  Ni  Ni34  1  0.00089273  0.66652479  0.66778787  1
  Ni  Ni35  1  0.16480664  0.82947073  0.83073909  1
  Cr  Cr36  1  0.49788476  0.16881124  0.50132441  1
  Ni  Ni37  1  0.32932810  0.99803560  0.66642513  1
  Cr  Cr38  1  0.49918035  0.16920832  0.83410936  1
  Fe  Fe39  1  0.49749717  0.50058044  0.50235672  1
  Ni  Ni40  1  0.33226994  0.33587554  0.66596124  1
  Fe  Fe41  1  0.49683292  0.50092730  0.83329017  1
  Fe  Fe42  1  0.49773636  0.83017207  0.50298485  1
  Ni  Ni43  1  0.33108657  0.66497205  0.66659309  1
  Fe  Fe44  1  0.49748540  0.82963025  0.83238399  1
  Cr  Cr45  1  0.83487517  0.16864243  0.50436940  1
  Cr  Cr46  1  0.66720429  0.99824405  0.66849417  1
  Fe  Fe47  1  0.83579295  0.16889456  0.83245174  1
  Cr  Cr48  1  0.83486048  0.50133663  0.50319556  1
  Ni  Ni49  1  0.66580063  0.33624644  0.66920086  1
  Fe  Fe50  1  0.83427090  0.50020019  0.83298546  1
  Cr  Cr51  1  0.83572565  0.82906190  0.49895228  1
  Ni  Ni52  1  0.66466761  0.66309057  0.66795532  1
  Fe  Fe53  1  0.83451476  0.82957208  0.83281535  1
" 