7795,Ni42Fe42Cr14_4,-234.038572304609, 206.01883009115,Ni42Fe42Cr14,"# generated using pymatgen
 data_Cr9Fe23Ni22
_symmetry_space_group_name_H-M   'P 1'
_cell_length_a   7.43001776
_cell_length_b   7.43001776
_cell_length_c   10.50763189
_cell_angle_alpha   90.00000000
_cell_angle_beta   90.00000000
_cell_angle_gamma   90.00000000
_symmetry_Int_Tables_number   1
_chemical_formula_structural   Cr9Fe23Ni22
_chemical_formula_sum   'Cr9 Fe23 Ni22'
_cell_volume   580.07554164
_cell_formula_units_Z   1
loop_
 _symmetry_equiv_pos_site_id
 _symmetry_equiv_pos_as_xyz
  1  'x, y, z'
loop_
 _atom_site_type_symbol
 _atom_site_label
 _atom_site_symmetry_multiplicity
 _atom_site_fract_x
 _atom_site_fract_y
 _atom_site_fract_z
 _atom_site_occupancy
  Ni  Ni0  1  0.00666916  0.00447325  0.00390912  1
  Fe  Fe1  1  0.16880369  0.17052292  0.16945680  1
  Ni  Ni2  1  0.00426581  0.00547396  0.33502864  1
  Fe  Fe3  1  0.00262950  0.33701666  0.00432139  1
  Fe  Fe4  1  0.16953182  0.50301455  0.17014316  1
  Ni  Ni5  1  1.00177997  0.33529324  0.33684721  1
  Fe  Fe6  1  0.00377364  0.66905607  0.00249298  1
  Fe  Fe7  1  0.17087661  0.83406633  0.16844696  1
  Fe  Fe8  1  0.00389751  0.66674195  0.33561537  1
  Ni  Ni9  1  0.33326641  0.00258265  1.00096668  1
  Fe  Fe10  1  0.50230184  0.17063576  0.16937367  1
  Cr  Cr11  1  0.33527238  0.99981467  0.33672606  1
  Fe  Fe12  1  0.33542170  0.33401154  0.00360243  1
  Ni  Ni13  1  0.50205232  0.50170082  0.16929170  1
  Fe  Fe14  1  0.33553712  0.33692532  0.33672264  1
  Fe  Fe15  1  0.33506108  0.67209797  0.00381532  1
  Ni  Ni16  1  0.50139292  0.83344985  0.16853961  1
  Ni  Ni17  1  0.33682427  0.66889633  0.33570682  1
  Cr  Cr18  1  0.66752672  1.00093308  0.00428920  1
  Fe  Fe19  1  0.83625219  0.17143408  0.17026808  1
  Fe  Fe20  1  0.66809126  0.00313457  0.33639420  1
  Fe  Fe21  1  0.66955419  0.33570029  0.00445975  1
  Ni  Ni22  1  0.83526178  0.50200469  0.16847061  1
  Ni  Ni23  1  0.67091240  0.33745695  0.33520675  1
  Ni  Ni24  1  0.66872256  0.66617804  0.00255488  1
  Cr  Cr25  1  0.83775499  0.83503031  0.17110636  1
  Ni  Ni26  1  0.66647369  0.66661776  0.33614405  1
  Ni  Ni27  1  0.16765313  0.16896504  0.50330943  1
  Fe  Fe28  1  0.00520302  1.00218789  0.66818466  1
  Fe  Fe29  1  0.16935417  0.16901532  0.83614003  1
  Fe  Fe30  1  0.17032125  0.50462304  0.50075804  1
  Fe  Fe31  1  1.00220031  0.33848954  0.66746301  1
  Fe  Fe32  1  0.16745807  0.50357852  0.83619573  1
  Ni  Ni33  1  0.16848692  0.83604109  0.50189284  1
  Fe  Fe34  1  0.00407462  0.66717528  0.66930121  1
  Ni  Ni35  1  0.16982387  0.83670962  0.83600776  1
  Ni  Ni36  1  0.50192000  0.17030234  0.50058069  1
  Fe  Fe37  1  0.33729887  1.00080178  0.66881606  1
  Ni  Ni38  1  0.49948666  0.16866919  0.83666755  1
  Ni  Ni39  1  0.50240604  0.50338509  0.50008880  1
  Cr  Cr40  1  0.33383937  0.33617661  0.66685856  1
  Cr  Cr41  1  0.50254612  0.50236063  0.83785295  1
  Ni  Ni42  1  0.50194632  0.83380124  0.50447182  1
  Ni  Ni43  1  0.33456626  0.67115921  0.66898063  1
  Fe  Fe44  1  0.50121204  0.83640142  0.83505539  1
  Fe  Fe45  1  0.83568363  0.16851954  0.50114474  1
  Ni  Ni46  1  0.66720913  1.00206854  0.66786800  1
  Cr  Cr47  1  0.83616228  0.16953125  0.83581900  1
  Fe  Fe48  1  0.83577205  0.50231229  0.50102093  1
  Cr  Cr49  1  0.67037754  0.33678756  0.66786727  1
  Ni  Ni50  1  0.83773338  0.50294344  0.83697147  1
  Cr  Cr51  1  0.83647625  0.83497044  0.50113345  1
  Ni  Ni52  1  0.66797899  0.66909633  0.66898566  1
  Cr  Cr53  1  0.83746523  0.83422716  0.83522690  1
" 