6201,Ni42Fe42Cr14_13,-234.053166764289, 201.252018022056,Ni42Fe42Cr14,"# generated using pymatgen
 data_Cr9Fe23Ni22
_symmetry_space_group_name_H-M   'P 1'
_cell_length_a   7.43434026
_cell_length_b   7.43434026
_cell_length_c   10.51374482
_cell_angle_alpha   90.00000000
_cell_angle_beta   90.00000000
_cell_angle_gamma   90.00000000
_symmetry_Int_Tables_number   1
_chemical_formula_structural   Cr9Fe23Ni22
_chemical_formula_sum   'Cr9 Fe23 Ni22'
_cell_volume   581.08852579
_cell_formula_units_Z   1
loop_
 _symmetry_equiv_pos_site_id
 _symmetry_equiv_pos_as_xyz
  1  'x, y, z'
loop_
 _atom_site_type_symbol
 _atom_site_label
 _atom_site_symmetry_multiplicity
 _atom_site_fract_x
 _atom_site_fract_y
 _atom_site_fract_z
 _atom_site_occupancy
  Cr  Cr0  1  1.00145345  1.00155063  1.00148303  1
  Ni  Ni1  1  0.16927975  0.17040443  0.17093656  1
  Fe  Fe2  1  0.00586025  0.00223849  0.33701555  1
  Fe  Fe3  1  0.00256792  0.33584871  0.00239997  1
  Fe  Fe4  1  0.17011163  0.50181538  0.17008798  1
  Ni  Ni5  1  0.00351869  0.33609810  0.33569099  1
  Cr  Cr6  1  0.00386830  0.66823388  0.00252309  1
  Ni  Ni7  1  0.17039042  0.83470731  0.17161797  1
  Fe  Fe8  1  0.00268300  0.66971992  0.33485154  1
  Cr  Cr9  1  0.33752751  1.00124139  1.00189956  1
  Fe  Fe10  1  0.49941324  0.16847306  0.16779546  1
  Ni  Ni11  1  0.33303314  1.00067756  0.33537411  1
  Fe  Fe12  1  0.33641754  0.33666287  1.00189396  1
  Fe  Fe13  1  0.50032390  0.50320621  0.16827738  1
  Ni  Ni14  1  0.33336153  0.33597097  0.33329261  1
  Ni  Ni15  1  0.33632339  0.66732357  1.00151194  1
  Ni  Ni16  1  0.50171485  0.83310852  0.16866562  1
  Ni  Ni17  1  0.33527399  0.66995027  0.33530442  1
  Ni  Ni18  1  0.66810431  0.00278107  1.00120568  1
  Cr  Cr19  1  0.83655695  0.16945299  0.16787923  1
  Cr  Cr20  1  0.66841458  1.00028764  0.33568728  1
  Ni  Ni21  1  0.66816202  0.33556940  1.00085712  1
  Fe  Fe22  1  0.83616243  0.50344889  0.16877030  1
  Cr  Cr23  1  0.66902365  0.33735954  0.33775291  1
  Fe  Fe24  1  0.66650467  0.66935802  1.00200060  1
  Fe  Fe25  1  0.83502144  0.83425178  0.16967813  1
  Fe  Fe26  1  0.66772359  0.66853957  0.33590113  1
  Ni  Ni27  1  0.16646850  0.16700991  0.50180935  1
  Ni  Ni28  1  0.00358726  1.00156006  0.66798730  1
  Fe  Fe29  1  0.17045998  0.16957320  0.83338501  1
  Cr  Cr30  1  0.17049964  0.50201650  0.50180760  1
  Fe  Fe31  1  0.00222705  0.33324042  0.66859913  1
  Fe  Fe32  1  0.17131925  0.50207087  0.83485160  1
  Ni  Ni33  1  0.16775111  0.83732017  0.50184448  1
  Fe  Fe34  1  0.00240377  0.67099786  0.66958075  1
  Ni  Ni35  1  0.16947529  0.83469178  0.83313615  1
  Cr  Cr36  1  0.50001601  0.17065487  0.50196484  1
  Ni  Ni37  1  0.33286690  1.00153077  0.66916650  1
  Ni  Ni38  1  0.50322456  0.17086470  0.83701844  1
  Ni  Ni39  1  0.50329104  0.50389525  0.50279994  1
  Ni  Ni40  1  0.33579503  0.33598840  0.67029373  1
  Ni  Ni41  1  0.50251096  0.50190888  0.83606276  1
  Fe  Fe42  1  0.50022551  0.83333875  0.50179266  1
  Fe  Fe43  1  0.33614875  0.67034049  0.66993244  1
  Ni  Ni44  1  0.50167428  0.83382676  0.83558169  1
  Ni  Ni45  1  0.83925876  0.16908464  0.50325606  1
  Cr  Cr46  1  0.66912595  1.00200458  0.66969263  1
  Fe  Fe47  1  0.83427103  0.16953039  0.83566900  1
  Fe  Fe48  1  0.83535561  0.50249411  0.50255944  1
  Fe  Fe49  1  0.66857520  0.33671264  0.66987059  1
  Fe  Fe50  1  0.83379251  0.50173918  0.83527776  1
  Ni  Ni51  1  0.83763942  0.83490768  0.50138502  1
  Fe  Fe52  1  0.66804991  0.66787620  0.66869528  1
  Fe  Fe53  1  0.83397696  0.83532714  0.83441215  1
" 