4650,Ni42Fe32Cr25_3,-229.560069891692, 186.859514346177,Ni42Fe32Cr25,"# generated using pymatgen
 data_Cr15Fe17Ni22
_symmetry_space_group_name_H-M   'P 1'
_cell_length_a   7.45696090
_cell_length_b   7.45696090
_cell_length_c   10.54573524
_cell_angle_alpha   90.00000000
_cell_angle_beta   90.00000000
_cell_angle_gamma   90.00000000
_symmetry_Int_Tables_number   1
_chemical_formula_structural   Cr15Fe17Ni22
_chemical_formula_sum   'Cr15 Fe17 Ni22'
_cell_volume   586.40895805
_cell_formula_units_Z   1
loop_
 _symmetry_equiv_pos_site_id
 _symmetry_equiv_pos_as_xyz
  1  'x, y, z'
loop_
 _atom_site_type_symbol
 _atom_site_label
 _atom_site_symmetry_multiplicity
 _atom_site_fract_x
 _atom_site_fract_y
 _atom_site_fract_z
 _atom_site_occupancy
  Cr  Cr0  1  0.00196667  1.00053564  0.99734118  1
  Fe  Fe1  1  0.16947812  0.16857505  0.16838983  1
  Ni  Ni2  1  0.00338035  0.00193725  0.33477300  1
  Cr  Cr3  1  0.00210274  0.33514088  0.99991635  1
  Fe  Fe4  1  0.16672815  0.49907189  0.16746248  1
  Fe  Fe5  1  0.99974443  0.33506776  0.33441439  1
  Fe  Fe6  1  1.00013579  0.66603715  0.99915821  1
  Cr  Cr7  1  0.16813803  0.83507201  0.16699180  1
  Fe  Fe8  1  0.99967446  0.66588650  0.33487325  1
  Fe  Fe9  1  0.33382997  0.00214100  0.00072815  1
  Fe  Fe10  1  0.49825829  0.16907509  0.16804515  1
  Ni  Ni11  1  0.33309527  0.00141494  0.33293114  1
  Ni  Ni12  1  0.33441033  0.33461428  0.00140899  1
  Fe  Fe13  1  0.50267323  0.50023499  0.16668047  1
  Fe  Fe14  1  0.33470421  0.33200478  0.33309051  1
  Fe  Fe15  1  0.33411705  0.66603901  1.00006097  1
  Fe  Fe16  1  0.50103566  0.83271801  0.16729046  1
  Cr  Cr17  1  0.33458453  0.66824753  0.33606564  1
  Cr  Cr18  1  0.66652544  1.00005130  0.99997384  1
  Cr  Cr19  1  0.83412460  0.16991248  0.16930569  1
  Cr  Cr20  1  0.66508313  0.00079231  0.33586945  1
  Fe  Fe21  1  0.66564901  0.33626827  1.00025165  1
  Ni  Ni22  1  0.83173554  0.50118606  0.16846312  1
  Ni  Ni23  1  0.66860351  0.33589120  0.33314473  1
  Ni  Ni24  1  0.66704710  0.66538927  0.00189453  1
  Cr  Cr25  1  0.83367304  0.83057734  0.16760423  1
  Ni  Ni26  1  0.66808027  0.66479426  0.33252130  1
  Cr  Cr27  1  0.16615316  0.16790127  0.49949609  1
  Ni  Ni28  1  0.99886006  0.00271918  0.66944553  1
  Ni  Ni29  1  0.16695190  0.16827381  0.83420114  1
  Ni  Ni30  1  0.16727736  0.50110263  0.50093324  1
  Ni  Ni31  1  1.00009910  0.33267668  0.66756926  1
  Fe  Fe32  1  0.16844024  0.50023812  0.83300208  1
  Ni  Ni33  1  0.16837300  0.83273455  0.50034325  1
  Cr  Cr34  1  0.00373474  0.66697855  0.66794986  1
  Ni  Ni35  1  0.16622459  0.83350913  0.83455217  1
  Ni  Ni36  1  0.50287311  0.16796337  0.50094696  1
  Cr  Cr37  1  0.33410680  0.99985358  0.66642855  1
  Fe  Fe38  1  0.50062972  0.16944495  0.83316784  1
  Cr  Cr39  1  0.50007594  0.49949020  0.50201801  1
  Ni  Ni40  1  0.33352663  0.33584698  0.66848048  1
  Fe  Fe41  1  0.49974313  0.49861304  0.83436591  1
  Ni  Ni42  1  0.49913547  0.83457848  0.49984022  1
  Ni  Ni43  1  0.33215774  0.66576097  0.66732153  1
  Cr  Cr44  1  0.50003280  0.83216531  0.83408691  1
  Ni  Ni45  1  0.83290234  0.16905962  0.50203457  1
  Ni  Ni46  1  0.66927232  0.00408859  0.66671769  1
  Ni  Ni47  1  0.83406245  0.16794363  0.83094945  1
  Fe  Fe48  1  0.83485111  0.49745191  0.49869486  1
  Ni  Ni49  1  0.66840236  0.33093730  0.66886561  1
  Fe  Fe50  1  0.83384602  0.50006209  0.83508409  1
  Cr  Cr51  1  0.83452231  0.83591932  0.49981794  1
  Cr  Cr52  1  0.66594179  0.66773210  0.66647186  1
  Ni  Ni53  1  0.83574663  0.83480010  0.83508612  1
" 