8747,Ni42Fe42Cr14_6,-233.629910624877, 204.596321521648,Ni42Fe42Cr14,"# generated using pymatgen
 data_Cr9Fe23Ni22
_symmetry_space_group_name_H-M   'P 1'
_cell_length_a   7.43111533
_cell_length_b   7.43111533
_cell_length_c   10.50918409
_cell_angle_alpha   90.00000000
_cell_angle_beta   90.00000000
_cell_angle_gamma   90.00000000
_symmetry_Int_Tables_number   1
_chemical_formula_structural   Cr9Fe23Ni22
_chemical_formula_sum   'Cr9 Fe23 Ni22'
_cell_volume   580.33264746
_cell_formula_units_Z   1
loop_
 _symmetry_equiv_pos_site_id
 _symmetry_equiv_pos_as_xyz
  1  'x, y, z'
loop_
 _atom_site_type_symbol
 _atom_site_label
 _atom_site_symmetry_multiplicity
 _atom_site_fract_x
 _atom_site_fract_y
 _atom_site_fract_z
 _atom_site_occupancy
  Fe  Fe0  1  1.00000974  1.00083553  1.00155369  1
  Cr  Cr1  1  0.16841568  0.16845061  0.17057930  1
  Fe  Fe2  1  0.00319502  1.00214364  0.33633773  1
  Fe  Fe3  1  1.00209404  0.33658375  1.00031986  1
  Cr  Cr4  1  0.16989893  0.50093847  0.16867759  1
  Ni  Ni5  1  0.00352097  0.33613833  0.33547982  1
  Ni  Ni6  1  1.00032477  0.66941704  1.00142164  1
  Fe  Fe7  1  0.16720933  0.83484038  0.16995759  1
  Cr  Cr8  1  1.00072707  0.66865691  0.33756397  1
  Cr  Cr9  1  0.33805861  0.00306722  1.00119739  1
  Fe  Fe10  1  0.50278189  0.17025554  0.16997360  1
  Fe  Fe11  1  0.33464388  1.00212365  0.33782682  1
  Fe  Fe12  1  0.33609538  0.33679076  1.00067005  1
  Ni  Ni13  1  0.50344721  0.50396571  0.17025937  1
  Ni  Ni14  1  0.33566626  0.33435071  0.33622463  1
  Cr  Cr15  1  0.33439885  0.66905077  1.00159268  1
  Fe  Fe16  1  0.50374447  0.83331143  0.16973224  1
  Fe  Fe17  1  0.33857502  0.66854377  0.33695342  1
  Fe  Fe18  1  0.67180951  1.00008584  1.00172850  1
  Fe  Fe19  1  0.83679312  0.16947262  0.16793558  1
  Cr  Cr20  1  0.66810013  1.00064712  0.33443069  1
  Cr  Cr21  1  0.66920832  0.33495242  0.00346418  1
  Ni  Ni22  1  0.83381822  0.50521895  0.16775309  1
  Cr  Cr23  1  0.66977742  0.33778887  0.33665552  1
  Fe  Fe24  1  0.67053036  0.66979017  0.00250876  1
  Ni  Ni25  1  0.83486493  0.83555044  0.16610113  1
  Ni  Ni26  1  0.66898821  0.66981632  0.33431987  1
  Ni  Ni27  1  0.17185019  0.16835931  0.50257387  1
  Fe  Fe28  1  0.00428485  1.00087455  0.66941379  1
  Fe  Fe29  1  0.16801872  0.17136247  0.83388175  1
  Fe  Fe30  1  0.16893233  0.50035556  0.50372385  1
  Ni  Ni31  1  0.00287698  0.33769584  0.66979009  1
  Fe  Fe32  1  0.16725842  0.50145061  0.83443075  1
  Ni  Ni33  1  0.17037318  0.83753961  0.50232615  1
  Ni  Ni34  1  1.00211980  0.66780655  0.66918016  1
  Fe  Fe35  1  0.16698003  0.83454324  0.83305004  1
  Ni  Ni36  1  0.49780885  0.16958671  0.50479590  1
  Ni  Ni37  1  0.33714321  0.00287391  0.66855924  1
  Fe  Fe38  1  0.50390612  0.17018404  0.83282733  1
  Fe  Fe39  1  0.50118936  0.50357766  0.50358041  1
  Ni  Ni40  1  0.33476930  0.33463504  0.67049053  1
  Ni  Ni41  1  0.50187356  0.50343594  0.83419760  1
  Fe  Fe42  1  0.50287881  0.83565513  0.50430780  1
  Ni  Ni43  1  0.33465682  0.66977821  0.66848490  1
  Fe  Fe44  1  0.50516840  0.83492884  0.83298927  1
  Cr  Cr45  1  0.83782705  0.16927792  0.50413469  1
  Ni  Ni46  1  0.66740542  1.00225190  0.67100938  1
  Ni  Ni47  1  0.83744979  0.16768557  0.83529750  1
  Ni  Ni48  1  0.83445587  0.50510905  0.50415143  1
  Fe  Fe49  1  0.66808445  0.33756523  0.67054465  1
  Ni  Ni50  1  0.83524360  0.50322089  0.83556782  1
  Ni  Ni51  1  0.83597126  0.83331989  0.50549007  1
  Ni  Ni52  1  0.67035523  0.67014034  0.66930474  1
  Fe  Fe53  1  0.83497640  0.83455434  0.83523291  1
" 