6703,Ni42Fe58_3,-242.524401163692, 225.506707217183,Ni42Fe58,"# generated using pymatgen
 data_Fe11Ni16
_symmetry_space_group_name_H-M   'P 1'
_cell_length_a   7.40526130
_cell_length_b   7.40526130
_cell_length_c   10.47262096
_cell_angle_alpha   90.00000000
_cell_angle_beta   90.00000000
_cell_angle_gamma   90.00000000
_symmetry_Int_Tables_number   1
_chemical_formula_structural   Fe11Ni16
_chemical_formula_sum   'Fe22 Ni32'
_cell_volume   574.29648688
_cell_formula_units_Z   2
loop_
 _symmetry_equiv_pos_site_id
 _symmetry_equiv_pos_as_xyz
  1  'x, y, z'
loop_
 _atom_site_type_symbol
 _atom_site_label
 _atom_site_symmetry_multiplicity
 _atom_site_fract_x
 _atom_site_fract_y
 _atom_site_fract_z
 _atom_site_occupancy
  Fe  Fe0  1  0.00460978  0.00460884  0.00463726  1
  Ni  Ni1  1  0.17096198  0.17106990  0.16979718  1
  Fe  Fe2  1  1.00405824  0.00476631  0.33703524  1
  Ni  Ni3  1  1.00348165  0.33900820  1.00408066  1
  Ni  Ni4  1  0.17144704  0.50435226  0.17119070  1
  Ni  Ni5  1  1.00412039  0.33909203  0.33750376  1
  Ni  Ni6  1  0.00437474  0.67002006  1.00381472  1
  Ni  Ni7  1  0.17131436  0.83709487  0.17155542  1
  Ni  Ni8  1  1.00324300  0.67010505  0.33796175  1
  Ni  Ni9  1  0.33910447  1.00385781  1.00379826  1
  Fe  Fe10  1  0.50365979  0.17024865  0.17024902  1
  Ni  Ni11  1  0.33878320  0.00454357  0.33752024  1
  Ni  Ni12  1  0.33715641  0.33668969  1.00361854  1
  Fe  Fe13  1  0.50355500  0.50369890  0.17083872  1
  Ni  Ni14  1  0.33681991  0.33589603  0.33769363  1
  Ni  Ni15  1  0.33589298  0.67196846  0.00430026  1
  Fe  Fe16  1  0.50381071  0.83856422  0.17142822  1
  Fe  Fe17  1  0.33785856  0.67079303  0.33750526  1
  Ni  Ni18  1  0.66993035  0.00475079  1.00411343  1
  Ni  Ni19  1  0.83687687  0.17128616  0.17115597  1
  Ni  Ni20  1  0.66960704  1.00366492  0.33791656  1
  Ni  Ni21  1  0.67187651  0.33579676  0.00419630  1
  Fe  Fe22  1  0.83938967  0.50408985  0.17122576  1
  Ni  Ni23  1  0.67157376  0.33678671  0.33782673  1
  Fe  Fe24  1  0.67063773  0.67024471  0.00461044  1
  Ni  Ni25  1  0.83725514  0.83760666  0.17084450  1
  Ni  Ni26  1  0.67279908  0.67206185  0.33725458  1
  Ni  Ni27  1  0.17140248  0.17019451  0.50459061  1
  Fe  Fe28  1  0.00629773  1.00416932  0.67084081  1
  Fe  Fe29  1  0.17086972  0.17142100  0.83719870  1
  Fe  Fe30  1  0.17056138  0.50437375  0.50404746  1
  Ni  Ni31  1  1.00390122  0.33889785  0.67093142  1
  Fe  Fe32  1  0.17028670  0.50369795  0.83801488  1
  Ni  Ni33  1  0.17262785  0.83809988  0.50329096  1
  Ni  Ni34  1  1.00392322  0.67000283  0.67074223  1
  Ni  Ni35  1  0.17207343  0.83699433  0.83766736  1
  Fe  Fe36  1  0.50315836  0.17021202  0.50429596  1
  Ni  Ni37  1  0.33885251  1.00397209  0.67119380  1
  Ni  Ni38  1  0.50473572  0.17119706  0.83742351  1
  Fe  Fe39  1  0.50345741  0.50448217  0.50393286  1
  Ni  Ni40  1  0.33689715  0.33654502  0.67120141  1
  Fe  Fe41  1  0.50400986  0.50339469  0.83774253  1
  Ni  Ni42  1  0.50289064  0.83723855  0.50426396  1
  Ni  Ni43  1  0.33652009  0.67199773  0.67015290  1
  Fe  Fe44  1  0.50417917  0.83836165  0.83707136  1
  Fe  Fe45  1  0.83790197  0.17075241  0.50378131  1
  Fe  Fe46  1  0.67013683  0.00440506  0.67122416  1
  Ni  Ni47  1  0.83607341  0.17281136  0.83720174  1
  Ni  Ni48  1  0.83665189  0.50350873  0.50331135  1
  Fe  Fe49  1  0.67087162  0.33817594  0.67153412  1
  Ni  Ni50  1  0.83696732  0.50306533  0.83871869  1
  Fe  Fe51  1  0.83779368  0.83692345  0.50311611  1
  Fe  Fe52  1  0.67048722  0.66993376  0.66985958  1
  Fe  Fe53  1  0.83754944  0.83778167  0.83825350  1
" 