7848,Ni42Fe26Cr30_1,-228.068133378467, 177.913732922517,Ni42Fe26Cr30,"# generated using pymatgen
 data_Cr17Fe14Ni23
_symmetry_space_group_name_H-M   'P 1'
_cell_length_a   7.47087815
_cell_length_b   7.47087815
_cell_length_c   10.56541720
_cell_angle_alpha   90.00000000
_cell_angle_beta   90.00000000
_cell_angle_gamma   90.00000000
_symmetry_Int_Tables_number   1
_chemical_formula_structural   Cr17Fe14Ni23
_chemical_formula_sum   'Cr17 Fe14 Ni23'
_cell_volume   589.69841078
_cell_formula_units_Z   1
loop_
 _symmetry_equiv_pos_site_id
 _symmetry_equiv_pos_as_xyz
  1  'x, y, z'
loop_
 _atom_site_type_symbol
 _atom_site_label
 _atom_site_symmetry_multiplicity
 _atom_site_fract_x
 _atom_site_fract_y
 _atom_site_fract_z
 _atom_site_occupancy
  Cr  Cr0  1  0.00421127  0.99897150  0.99866687  1
  Fe  Fe1  1  0.17187898  0.16677674  0.16691943  1
  Cr  Cr2  1  0.00517716  0.99846871  0.33265363  1
  Cr  Cr3  1  0.00495005  0.33244987  -0.00009610  1
  Ni  Ni4  1  0.17049142  0.50051639  0.16874749  1
  Fe  Fe5  1  0.00288288  0.33472818  0.33427195  1
  Cr  Cr6  1  0.00311453  0.66770566  0.00088015  1
  Ni  Ni7  1  0.17235545  0.83183068  0.16584898  1
  Fe  Fe8  1  0.00309445  0.66502150  0.33454405  1
  Fe  Fe9  1  0.33504695  0.00012636  0.99887271  1
  Ni  Ni10  1  0.49878423  0.16640731  0.16627457  1
  Fe  Fe11  1  0.33642575  0.99904280  0.33372546  1
  Ni  Ni12  1  0.33464620  0.33281864  0.00036111  1
  Ni  Ni13  1  0.49608680  0.49793872  0.16475409  1
  Ni  Ni14  1  0.33306428  0.33250521  0.33193469  1
  Fe  Fe15  1  0.33210379  0.66486573  -0.00007925  1
  Ni  Ni16  1  0.49450538  0.83538327  0.16612670  1
  Ni  Ni17  1  0.33157771  0.66603949  0.33058596  1
  Fe  Fe18  1  0.66251191  0.00166055  0.99942813  1
  Cr  Cr19  1  0.83024841  0.16808472  0.16659560  1
  Ni  Ni20  1  0.66409106  0.00035374  0.33293352  1
  Ni  Ni21  1  0.66169909  0.33271515  0.99734291  1
  Cr  Cr22  1  0.83296310  0.49720196  0.16883620  1
  Ni  Ni23  1  0.66159915  0.33264356  0.33270962  1
  Cr  Cr24  1  0.66127297  0.66685882  0.00039405  1
  Cr  Cr25  1  0.83254889  0.83442488  0.16769458  1
  Cr  Cr26  1  0.66169054  0.66813359  0.33351008  1
  Ni  Ni27  1  0.16960837  0.16426689  0.49790359  1
  Cr  Cr28  1  0.00355587  0.99864031  0.66778597  1
  Ni  Ni29  1  0.16853005  0.16586253  0.83409439  1
  Fe  Fe30  1  0.16814421  0.50119782  0.49854411  1
  Cr  Cr31  1  0.00254875  0.33327802  0.66659641  1
  Ni  Ni32  1  0.16677163  0.50140549  0.83170105  1
  Ni  Ni33  1  0.17018172  0.83095117  0.50128202  1
  Ni  Ni34  1  0.00174601  0.66751328  0.66489695  1
  Ni  Ni35  1  0.17056981  0.83190586  0.83195486  1
  Ni  Ni36  1  0.49752677  0.16357156  0.49823157  1
  Ni  Ni37  1  0.33211076  0.99841982  0.66541124  1
  Fe  Fe38  1  0.49481985  0.16435727  0.83496317  1
  Cr  Cr39  1  0.49845416  0.49986945  0.49976760  1
  Cr  Cr40  1  0.33200623  0.33051834  0.66595208  1
  Fe  Fe41  1  0.49370544  0.50108826  0.83483408  1
  Ni  Ni42  1  0.49420578  0.83494745  0.49920098  1
  Ni  Ni43  1  0.33139504  0.66862009  0.66828446  1
  Ni  Ni44  1  0.49671574  0.83425748  0.83350421  1
  Cr  Cr45  1  0.83099240  0.16935848  0.49725641  1
  Cr  Cr46  1  0.66303484  0.99863926  0.66569502  1
  Fe  Fe47  1  0.83250483  0.16559283  0.83517987  1
  Ni  Ni48  1  0.83621575  0.50052979  0.49865610  1
  Cr  Cr49  1  0.66331733  0.33373814  0.66937632  1
  Fe  Fe50  1  0.83492433  0.50135542  0.83324123  1
  Fe  Fe51  1  0.83374040  0.83294049  0.49824958  1
  Cr  Cr52  1  0.66517674  0.66749515  0.66587005  1
  Fe  Fe53  1  0.83463115  0.83216194  0.83328582  1
" 