4607,Ni42Fe37Cr20_0,-231.395211850381, 198.496565638527,Ni42Fe37Cr20,"# generated using pymatgen
 data_Cr6Fe10Ni11
_symmetry_space_group_name_H-M   'P 1'
_cell_length_a   7.43768597
_cell_length_b   7.43768597
_cell_length_c   10.51847637
_cell_angle_alpha   90.00000000
_cell_angle_beta   90.00000000
_cell_angle_gamma   90.00000000
_symmetry_Int_Tables_number   1
_chemical_formula_structural   Cr6Fe10Ni11
_chemical_formula_sum   'Cr12 Fe20 Ni22'
_cell_volume   581.87341011
_cell_formula_units_Z   2
loop_
 _symmetry_equiv_pos_site_id
 _symmetry_equiv_pos_as_xyz
  1  'x, y, z'
loop_
 _atom_site_type_symbol
 _atom_site_label
 _atom_site_symmetry_multiplicity
 _atom_site_fract_x
 _atom_site_fract_y
 _atom_site_fract_z
 _atom_site_occupancy
  Ni  Ni0  1  1.00124706  1.00033979  0.00199429  1
  Ni  Ni1  1  0.16725016  0.16987793  0.16960630  1
  Cr  Cr2  1  1.00009751  0.00262647  0.33562852  1
  Fe  Fe3  1  0.00345620  0.33513444  0.00395975  1
  Fe  Fe4  1  0.16900852  0.50163304  0.16898755  1
  Ni  Ni5  1  0.00313297  0.33552260  0.33517654  1
  Ni  Ni6  1  1.00177478  0.66965477  0.00266644  1
  Ni  Ni7  1  0.16837171  0.83815850  0.16847133  1
  Cr  Cr8  1  0.00225864  0.66666814  0.33441735  1
  Cr  Cr9  1  0.33583290  0.00356693  0.00284449  1
  Fe  Fe10  1  0.50122623  0.16729649  0.17133974  1
  Fe  Fe11  1  0.33607877  0.00377350  0.33403194  1
  Fe  Fe12  1  0.33203833  0.33602391  0.00456739  1
  Ni  Ni13  1  0.50239532  0.50151221  0.16954509  1
  Ni  Ni14  1  0.33622873  0.33533406  0.33437868  1
  Cr  Cr15  1  0.33303574  0.66817666  0.00292916  1
  Ni  Ni16  1  0.50326191  0.83483625  0.17076120  1
  Fe  Fe17  1  0.33550212  0.66679719  0.33428056  1
  Fe  Fe18  1  0.67142115  1.00027724  0.00284916  1
  Fe  Fe19  1  0.83561647  0.16704959  0.16857286  1
  Ni  Ni20  1  0.66673071  0.00355165  0.33558170  1
  Cr  Cr21  1  0.66693663  0.33365053  0.00416959  1
  Fe  Fe22  1  0.83699997  0.50207003  0.16814894  1
  Fe  Fe23  1  0.66964944  0.33438298  0.33596577  1
  Fe  Fe24  1  0.67059982  0.67073126  0.00429893  1
  Ni  Ni25  1  0.83438297  0.83699684  0.16648233  1
  Cr  Cr26  1  0.66976438  0.66809186  0.33514541  1
  Ni  Ni27  1  0.16763813  0.17055873  0.50124316  1
  Ni  Ni28  1  1.00020192  1.00083586  0.66879566  1
  Cr  Cr29  1  0.16574513  0.17067808  0.83458541  1
  Ni  Ni30  1  0.16943572  0.49909517  0.50217697  1
  Fe  Fe31  1  0.99974875  0.33480702  0.66609814  1
  Ni  Ni32  1  0.16827730  0.50019376  0.83394548  1
  Cr  Cr33  1  0.16944310  0.83619206  0.50209128  1
  Ni  Ni34  1  0.00224481  0.66779452  0.66903579  1
  Fe  Fe35  1  0.16396811  0.83278227  0.83509383  1
  Fe  Fe36  1  0.50196385  0.17088259  0.50073779  1
  Cr  Cr37  1  0.33506848  0.00436007  0.66884873  1
  Fe  Fe38  1  0.50542810  0.16989105  0.83406401  1
  Ni  Ni39  1  0.50224699  0.50219804  0.50254654  1
  Fe  Fe40  1  0.33466092  0.33666510  0.66565146  1
  Cr  Cr41  1  0.50130882  0.50175097  0.83315556  1
  Fe  Fe42  1  0.50390992  0.83485101  0.50221603  1
  Fe  Fe43  1  0.33472530  0.66708444  0.66742985  1
  Cr  Cr44  1  0.50650890  0.83426473  0.83470068  1
  Fe  Fe45  1  0.83538807  0.17005619  0.50305046  1
  Ni  Ni46  1  0.67012725  0.00399659  0.66874129  1
  Ni  Ni47  1  0.83591242  0.16639128  0.83465819  1
  Ni  Ni48  1  0.83455356  0.49998001  0.50281520  1
  Ni  Ni49  1  0.66741189  0.33423112  0.66629247  1
  Cr  Cr50  1  0.83609028  0.50284705  0.83530669  1
  Fe  Fe51  1  0.83370203  0.83483200  0.50432213  1
  Ni  Ni52  1  0.67095210  0.66828435  0.66716978  1
  Ni  Ni53  1  0.83562648  0.83734856  0.83501390  1
" 