3248,Ni42Fe22Cr34_15,-226.148441811018, 176.247602794945,Ni42Fe22Cr34,"# generated using pymatgen
 data_Cr10Fe6Ni11
_symmetry_space_group_name_H-M   'P 1'
_cell_length_a   7.48111394
_cell_length_b   7.48111394
_cell_length_c   10.57989279
_cell_angle_alpha   90.00000000
_cell_angle_beta   90.00000000
_cell_angle_gamma   90.00000000
_symmetry_Int_Tables_number   1
_chemical_formula_structural   Cr10Fe6Ni11
_chemical_formula_sum   'Cr20 Fe12 Ni22'
_cell_volume   592.12555592
_cell_formula_units_Z   2
loop_
 _symmetry_equiv_pos_site_id
 _symmetry_equiv_pos_as_xyz
  1  'x, y, z'
loop_
 _atom_site_type_symbol
 _atom_site_label
 _atom_site_symmetry_multiplicity
 _atom_site_fract_x
 _atom_site_fract_y
 _atom_site_fract_z
 _atom_site_occupancy
  Ni  Ni0  1  0.99860131  -0.00042874  0.99803089  1
  Cr  Cr1  1  0.16759010  0.16693303  0.16540370  1
  Ni  Ni2  1  0.99793064  -0.00068173  0.33222937  1
  Fe  Fe3  1  0.99781032  0.33239242  0.99678907  1
  Cr  Cr4  1  0.16417107  0.49516349  0.16660254  1
  Fe  Fe5  1  0.99565919  0.33290600  0.33182128  1
  Ni  Ni6  1  0.99655701  0.66489899  0.00068888  1
  Cr  Cr7  1  0.16415368  0.83486187  0.16491775  1
  Ni  Ni8  1  0.99632028  0.66834846  0.32956120  1
  Ni  Ni9  1  0.33327973  0.00262899  -0.00058354  1
  Fe  Fe10  1  0.49904658  0.16392411  0.16426047  1
  Fe  Fe11  1  0.33708267  0.99868041  0.33184226  1
  Fe  Fe12  1  0.33311061  0.33121877  0.99694935  1
  Ni  Ni13  1  0.50029315  0.49964127  0.16509997  1
  Fe  Fe14  1  0.33536904  0.33226369  0.33263582  1
  Cr  Cr15  1  0.33337083  0.66475913  -0.00074952  1
  Ni  Ni16  1  0.50363574  0.83264797  0.16450633  1
  Cr  Cr17  1  0.33545738  0.66617562  0.33270243  1
  Ni  Ni18  1  0.66557345  0.00076594  0.00057829  1
  Cr  Cr19  1  0.83433233  0.16371849  0.16550042  1
  Fe  Fe20  1  0.66544337  0.99558057  0.33196888  1
  Cr  Cr21  1  0.66419570  0.33193743  -0.00086957  1
  Ni  Ni22  1  0.83090833  0.50182498  0.16541571  1
  Cr  Cr23  1  0.66281185  0.33101275  0.33188214  1
  Ni  Ni24  1  0.66734489  0.66349358  0.00215552  1
  Ni  Ni25  1  0.82890932  0.83089790  0.16498525  1
  Ni  Ni26  1  0.66464224  0.66407045  0.33009883  1
  Cr  Cr27  1  0.16578604  0.16758332  0.49764731  1
  Cr  Cr28  1  0.99817459  0.00147631  0.66728402  1
  Ni  Ni29  1  0.16715239  0.17009912  0.83341596  1
  Cr  Cr30  1  0.16611513  0.49516398  0.49772568  1
  Fe  Fe31  1  -0.00045951  0.33093861  0.66819606  1
  Fe  Fe32  1  0.16496902  0.49507843  0.83341858  1
  Cr  Cr33  1  0.16799428  0.83449142  0.49799593  1
  Cr  Cr34  1  -0.00082056  0.66523983  0.66709995  1
  Cr  Cr35  1  0.16768821  0.83595860  0.83422918  1
  Fe  Fe36  1  0.49945767  0.16459155  0.50027248  1
  Ni  Ni37  1  0.33484429  0.00385744  0.66504604  1
  Ni  Ni38  1  0.49743146  0.16536509  0.83253480  1
  Ni  Ni39  1  0.49937338  0.49970807  0.50023488  1
  Ni  Ni40  1  0.33431053  0.33070516  0.66721703  1
  Fe  Fe41  1  0.49997215  0.49720077  0.83228037  1
  Ni  Ni42  1  0.50200977  0.83298966  0.50057999  1
  Cr  Cr43  1  0.33331623  0.66485055  0.66523371  1
  Cr  Cr44  1  0.50261865  0.83432312  0.83148258  1
  Ni  Ni45  1  0.83225693  0.16514785  0.49875031  1
  Ni  Ni46  1  0.66390336  0.00266986  0.66417656  1
  Ni  Ni47  1  0.83260740  0.16689888  0.83273673  1
  Cr  Cr48  1  0.83132350  0.49842516  0.49818173  1
  Cr  Cr49  1  0.66570382  0.33017275  0.66627944  1
  Fe  Fe50  1  0.83205710  0.49836343  0.83427472  1
  Cr  Cr51  1  0.82728626  0.83271068  0.49832496  1
  Ni  Ni52  1  0.66363659  0.66319866  0.66531617  1
  Cr  Cr53  1  0.82692388  0.83238924  0.83487451  1
" 