5081,Ni42Fe5Cr52_13,-217.256011296095, 141.702491363333,Ni42Fe5Cr52,"# generated using pymatgen
 data_Cr15FeNi11
_symmetry_space_group_name_H-M   'P 1'
_cell_length_a   7.53028188
_cell_length_b   7.53028188
_cell_length_c   10.64942676
_cell_angle_alpha   90.00000000
_cell_angle_beta   90.00000000
_cell_angle_gamma   90.00000000
_symmetry_Int_Tables_number   1
_chemical_formula_structural   Cr15FeNi11
_chemical_formula_sum   'Cr30 Fe2 Ni22'
_cell_volume   603.87729024
_cell_formula_units_Z   2
loop_
 _symmetry_equiv_pos_site_id
 _symmetry_equiv_pos_as_xyz
  1  'x, y, z'
loop_
 _atom_site_type_symbol
 _atom_site_label
 _atom_site_symmetry_multiplicity
 _atom_site_fract_x
 _atom_site_fract_y
 _atom_site_fract_z
 _atom_site_occupancy
  Cr  Cr0  1  0.99567082  0.99326166  -0.00045460  1
  Fe  Fe1  1  0.16448240  0.16341559  0.16192520  1
  Cr  Cr2  1  0.99525643  0.99202035  0.32551726  1
  Cr  Cr3  1  -0.00327541  0.33196674  -0.00104787  1
  Ni  Ni4  1  0.16476316  0.49989758  0.16398863  1
  Cr  Cr5  1  -0.00312251  0.33292770  0.32535765  1
  Cr  Cr6  1  0.99401036  0.66180331  -0.00196544  1
  Ni  Ni7  1  0.16395355  0.82360532  0.16292867  1
  Ni  Ni8  1  0.99551132  0.66325627  0.32742165  1
  Cr  Cr9  1  0.32801167  0.99324864  -0.00180887  1
  Cr  Cr10  1  0.49711480  0.16226722  0.16205093  1
  Cr  Cr11  1  0.33057977  0.99305871  0.32950311  1
  Ni  Ni12  1  0.32924329  0.33347508  -0.00216527  1
  Ni  Ni13  1  0.49434290  0.50000757  0.16124519  1
  Cr  Cr14  1  0.32861416  0.33083331  0.32850381  1
  Ni  Ni15  1  0.33120725  0.65968188  -0.00122781  1
  Ni  Ni16  1  0.49657105  0.82547292  0.16305461  1
  Ni  Ni17  1  0.32926459  0.66327922  0.32700128  1
  Ni  Ni18  1  0.66231490  0.99155832  -0.00155151  1
  Cr  Cr19  1  0.82656861  0.16080947  0.16288481  1
  Ni  Ni20  1  0.66171237  0.99015492  0.33041474  1
  Cr  Cr21  1  0.66312406  0.33478665  0.99442010  1
  Ni  Ni22  1  0.82807487  0.50080078  0.16347852  1
  Cr  Cr23  1  0.66192058  0.33115318  0.32923469  1
  Ni  Ni24  1  0.66102522  0.66238327  -0.00213581  1
  Ni  Ni25  1  0.82667473  0.82576137  0.16396640  1
  Ni  Ni26  1  0.66265689  0.66618084  0.32668343  1
  Cr  Cr27  1  0.16066851  0.16412651  0.49692963  1
  Ni  Ni28  1  0.99464158  0.99443468  0.66158508  1
  Cr  Cr29  1  0.16148230  0.16278778  0.82941820  1
  Fe  Fe30  1  0.16138355  0.49816996  0.49453727  1
  Ni  Ni31  1  0.99579829  0.33171147  0.66266372  1
  Cr  Cr32  1  0.16336416  0.49720982  0.82735428  1
  Cr  Cr33  1  0.16036295  0.82517016  0.49680335  1
  Ni  Ni34  1  0.99413976  0.66146399  0.66111128  1
  Cr  Cr35  1  0.16175790  0.82746680  0.82767980  1
  Ni  Ni36  1  0.49633692  0.16045483  0.49455607  1
  Cr  Cr37  1  0.33054058  0.99472751  0.66023263  1
  Cr  Cr38  1  0.49596151  0.16324666  0.83137712  1
  Cr  Cr39  1  0.49480622  0.49885671  0.49265451  1
  Cr  Cr40  1  0.33096381  0.32983400  0.66116045  1
  Ni  Ni41  1  0.49575308  0.49692225  0.83298201  1
  Ni  Ni42  1  0.49758774  0.82822252  0.49197971  1
  Cr  Cr43  1  0.33127523  0.66267590  0.66187235  1
  Cr  Cr44  1  0.49543997  0.82614314  0.83344422  1
  Cr  Cr45  1  0.82894986  0.16114789  0.49583142  1
  Cr  Cr46  1  0.66102058  0.99357410  0.65937243  1
  Cr  Cr47  1  0.83006234  0.16203839  0.82821030  1
  Cr  Cr48  1  0.83207666  0.49911112  0.49483930  1
  Cr  Cr49  1  0.66207890  0.33155464  0.66353394  1
  Ni  Ni50  1  0.82898927  0.49708127  0.82848142  1
  Ni  Ni51  1  0.82913426  0.82738047  0.49432373  1
  Cr  Cr52  1  0.66282681  0.66233507  0.66384895  1
  Cr  Cr53  1  0.82959748  0.82835654  0.82926540  1
" 