5744,Ni42Fe42Cr14_10,-233.841706191888, 203.583137094334,Ni42Fe42Cr14,"# generated using pymatgen
 data_Cr9Fe23Ni22
_symmetry_space_group_name_H-M   'P 1'
_cell_length_a   7.43313086
_cell_length_b   7.43313086
_cell_length_c   10.51203447
_cell_angle_alpha   90.00000000
_cell_angle_beta   90.00000000
_cell_angle_gamma   90.00000000
_symmetry_Int_Tables_number   1
_chemical_formula_structural   Cr9Fe23Ni22
_chemical_formula_sum   'Cr9 Fe23 Ni22'
_cell_volume   580.80498301
_cell_formula_units_Z   1
loop_
 _symmetry_equiv_pos_site_id
 _symmetry_equiv_pos_as_xyz
  1  'x, y, z'
loop_
 _atom_site_type_symbol
 _atom_site_label
 _atom_site_symmetry_multiplicity
 _atom_site_fract_x
 _atom_site_fract_y
 _atom_site_fract_z
 _atom_site_occupancy
  Fe  Fe0  1  0.00290451  1.00170773  0.00312054  1
  Ni  Ni1  1  0.16890406  0.16920217  0.16863087  1
  Ni  Ni2  1  0.00243223  1.00093796  0.33384226  1
  Fe  Fe3  1  0.00292863  0.33615861  0.00330883  1
  Ni  Ni4  1  0.16887108  0.50165216  0.16850126  1
  Cr  Cr5  1  1.00192791  0.33509785  0.33430234  1
  Fe  Fe6  1  1.00188883  0.66902616  0.00234377  1
  Fe  Fe7  1  0.16830018  0.83574416  0.16973215  1
  Fe  Fe8  1  0.00293941  0.67123756  0.33606551  1
  Ni  Ni9  1  0.33304370  1.00168543  1.00203632  1
  Cr  Cr10  1  0.49961470  0.16771999  0.16860579  1
  Ni  Ni11  1  0.33323522  0.99996723  0.33715075  1
  Ni  Ni12  1  0.33504561  0.33728397  0.00341708  1
  Ni  Ni13  1  0.50133352  0.50285893  0.16914061  1
  Fe  Fe14  1  0.33403070  0.33544296  0.33535141  1
  Cr  Cr15  1  0.33579628  0.66958473  0.99979799  1
  Cr  Cr16  1  0.50377501  0.83516788  0.17046139  1
  Ni  Ni17  1  0.33508967  0.66776617  0.33555778  1
  Fe  Fe18  1  0.67037470  1.00104693  1.00226055  1
  Fe  Fe19  1  0.83662056  0.16627326  0.16710387  1
  Ni  Ni20  1  0.67097842  1.00142733  0.33711505  1
  Fe  Fe21  1  0.66922545  0.33744157  0.00242748  1
  Fe  Fe22  1  0.83551812  0.50498320  0.16665413  1
  Cr  Cr23  1  0.66967038  0.33753842  0.33488815  1
  Fe  Fe24  1  0.67027957  0.66840065  1.00074979  1
  Ni  Ni25  1  0.83675039  0.83479388  0.16925699  1
  Fe  Fe26  1  0.67006010  0.67149362  0.33745521  1
  Fe  Fe27  1  0.16966454  0.16627000  0.50246486  1
  Ni  Ni28  1  1.00207167  1.00191447  0.66963121  1
  Cr  Cr29  1  0.16854668  0.16915826  0.83453589  1
  Ni  Ni30  1  0.16867363  0.50226703  0.50294744  1
  Fe  Fe31  1  1.00167237  0.33799705  0.66878130  1
  Fe  Fe32  1  0.16637888  0.50187007  0.83592366  1
  Ni  Ni33  1  0.16849903  0.83503511  0.50026831  1
  Fe  Fe34  1  1.00170622  0.67129521  0.66858183  1
  Ni  Ni35  1  0.16805852  0.83590438  0.83638769  1
  Fe  Fe36  1  0.49960304  0.16712296  0.50241339  1
  Ni  Ni37  1  0.33377354  1.00044729  0.66740513  1
  Cr  Cr38  1  0.50229368  0.16692764  0.83545391  1
  Fe  Fe39  1  0.50246853  0.50543316  0.50153980  1
  Fe  Fe40  1  0.33568161  0.33558559  0.66733519  1
  Fe  Fe41  1  0.50526726  0.50160890  0.83654682  1
  Ni  Ni42  1  0.50278214  0.83701677  0.50113399  1
  Cr  Cr43  1  0.33696371  0.67117010  0.67176572  1
  Ni  Ni44  1  0.50362344  0.83654196  0.83594712  1
  Cr  Cr45  1  0.83569799  0.16693916  0.50423528  1
  Fe  Fe46  1  0.66822877  0.99802031  0.66882217  1
  Ni  Ni47  1  0.83557798  0.17086299  0.83672818  1
  Ni  Ni48  1  0.83709565  0.50520303  0.50274695  1
  Fe  Fe49  1  0.66961501  0.33706762  0.66920340  1
  Ni  Ni50  1  0.83667992  0.50234985  0.83554509  1
  Ni  Ni51  1  0.83545487  0.83389926  0.50333909  1
  Ni  Ni52  1  0.66970056  0.66721740  0.66920011  1
  Fe  Fe53  1  0.83588054  0.83643264  0.83503732  1
" 