5477,Ni42Fe37Cr20_11,-231.760748416633, 197.290825028711,Ni42Fe37Cr20,"# generated using pymatgen
 data_Cr6Fe10Ni11
_symmetry_space_group_name_H-M   'P 1'
_cell_length_a   7.44186522
_cell_length_b   7.44186522
_cell_length_c   10.52438672
_cell_angle_alpha   90.00000000
_cell_angle_beta   90.00000000
_cell_angle_gamma   90.00000000
_symmetry_Int_Tables_number   1
_chemical_formula_structural   Cr6Fe10Ni11
_chemical_formula_sum   'Cr12 Fe20 Ni22'
_cell_volume   582.85482794
_cell_formula_units_Z   2
loop_
 _symmetry_equiv_pos_site_id
 _symmetry_equiv_pos_as_xyz
  1  'x, y, z'
loop_
 _atom_site_type_symbol
 _atom_site_label
 _atom_site_symmetry_multiplicity
 _atom_site_fract_x
 _atom_site_fract_y
 _atom_site_fract_z
 _atom_site_occupancy
  Cr  Cr0  1  0.00432839  0.99889674  0.00413884  1
  Fe  Fe1  1  0.17210292  0.16901865  0.17054929  1
  Fe  Fe2  1  1.00105281  1.00147063  0.33528190  1
  Cr  Cr3  1  0.00362802  0.33813289  0.00222085  1
  Ni  Ni4  1  0.17064469  0.50195877  0.17124006  1
  Ni  Ni5  1  0.00290694  0.33686527  0.33714332  1
  Cr  Cr6  1  1.00001888  0.66805795  0.00269376  1
  Fe  Fe7  1  0.17125433  0.83373408  0.17032470  1
  Ni  Ni8  1  0.99950934  0.66668681  0.33359790  1
  Ni  Ni9  1  0.33588539  1.00138461  0.00265498  1
  Ni  Ni10  1  0.49898361  0.16947964  0.16928984  1
  Ni  Ni11  1  0.33625877  0.00370415  0.33429263  1
  Ni  Ni12  1  0.33579012  0.33583746  0.00468654  1
  Ni  Ni13  1  0.50096721  0.50193697  0.16651046  1
  Fe  Fe14  1  0.33434554  0.33481803  0.33362989  1
  Ni  Ni15  1  0.33685920  0.66786826  1.00084958  1
  Ni  Ni16  1  0.50111121  0.83378209  0.16944336  1
  Fe  Fe17  1  0.33537318  0.66774887  0.33229739  1
  Cr  Cr18  1  0.66598774  0.99784802  0.00395500  1
  Cr  Cr19  1  0.83407718  0.16861807  0.16965142  1
  Fe  Fe20  1  0.66803590  1.00043247  0.33554936  1
  Fe  Fe21  1  0.66490408  0.33911004  0.00332772  1
  Ni  Ni22  1  0.83345832  0.50377283  0.16963779  1
  Ni  Ni23  1  0.66869481  0.33567358  0.33454273  1
  Ni  Ni24  1  0.66698409  0.66746668  1.00159879  1
  Ni  Ni25  1  0.83423553  0.83250613  0.17106499  1
  Ni  Ni26  1  0.67059242  0.66923252  0.33375449  1
  Ni  Ni27  1  0.16716982  0.16869904  0.50093203  1
  Fe  Fe28  1  0.99913695  1.00052193  0.66741568  1
  Cr  Cr29  1  0.16888856  0.16789991  0.83567546  1
  Fe  Fe30  1  0.16448500  0.50177379  0.50083486  1
  Fe  Fe31  1  0.99953674  0.33693499  0.66636890  1
  Ni  Ni32  1  0.17035531  0.50472841  0.83243052  1
  Cr  Cr33  1  0.16716627  0.83373007  0.50234478  1
  Ni  Ni34  1  0.00190339  0.66768111  0.66963108  1
  Fe  Fe35  1  0.16964026  0.83322220  0.83354777  1
  Fe  Fe36  1  0.50282597  0.16539252  0.50047703  1
  Fe  Fe37  1  0.33664801  0.99966352  0.66705579  1
  Cr  Cr38  1  0.50236328  0.16940578  0.83613653  1
  Cr  Cr39  1  0.50151503  0.50223937  0.49907754  1
  Cr  Cr40  1  0.33381637  0.33445214  0.66596439  1
  Fe  Fe41  1  0.50170804  0.50291877  0.83711421  1
  Fe  Fe42  1  0.50242066  0.83790782  0.49972786  1
  Fe  Fe43  1  0.33457934  0.66930610  0.67056362  1
  Fe  Fe44  1  0.50011122  0.83376454  0.83601355  1
  Fe  Fe45  1  0.83504742  0.16867555  0.50175652  1
  Ni  Ni46  1  0.66772663  1.00139913  0.66525664  1
  Cr  Cr47  1  0.83365246  0.16768137  0.83298459  1
  Fe  Fe48  1  0.83771395  0.50155906  0.49989960  1
  Ni  Ni49  1  0.66986557  0.33337870  0.66821931  1
  Fe  Fe50  1  0.83474120  0.50244381  0.83454019  1
  Ni  Ni51  1  0.83484810  0.83624324  0.50056015  1
  Cr  Cr52  1  0.67040996  0.66999424  0.66934830  1
  Ni  Ni53  1  0.83509866  0.83370551  0.83356032  1
" 