4600,Ni42Fe32Cr25_7,-229.739651316044, 191.214706413006,Ni42Fe32Cr25,"# generated using pymatgen
 data_Cr15Fe17Ni22
_symmetry_space_group_name_H-M   'P 1'
_cell_length_a   7.45650492
_cell_length_b   7.45650492
_cell_length_c   10.54509039
_cell_angle_alpha   90.00000000
_cell_angle_beta   90.00000000
_cell_angle_gamma   90.00000000
_symmetry_Int_Tables_number   1
_chemical_formula_structural   Cr15Fe17Ni22
_chemical_formula_sum   'Cr15 Fe17 Ni22'
_cell_volume   586.30139032
_cell_formula_units_Z   1
loop_
 _symmetry_equiv_pos_site_id
 _symmetry_equiv_pos_as_xyz
  1  'x, y, z'
loop_
 _atom_site_type_symbol
 _atom_site_label
 _atom_site_symmetry_multiplicity
 _atom_site_fract_x
 _atom_site_fract_y
 _atom_site_fract_z
 _atom_site_occupancy
  Ni  Ni0  1  0.99939697  0.00180630  0.00239382  1
  Fe  Fe1  1  0.16581650  0.16821788  0.16708462  1
  Ni  Ni2  1  0.00080676  0.00311970  0.33300632  1
  Fe  Fe3  1  0.00115920  0.33226068  1.00036469  1
  Fe  Fe4  1  0.16714766  0.49988941  0.16649997  1
  Ni  Ni5  1  0.00223976  0.33314618  0.33390424  1
  Fe  Fe6  1  0.00231267  0.66701380  0.00276821  1
  Fe  Fe7  1  0.16655925  0.83401511  0.16701633  1
  Cr  Cr8  1  0.99936856  0.66660065  0.33379408  1
  Cr  Cr9  1  0.33364373  0.00205618  0.00112413  1
  Ni  Ni10  1  0.50040328  0.16806338  0.16525227  1
  Cr  Cr11  1  0.33353355  1.00034239  0.33360153  1
  Ni  Ni12  1  0.33355623  0.33513496  0.99951101  1
  Cr  Cr13  1  0.49948781  0.49980037  0.16780978  1
  Fe  Fe14  1  0.33214734  0.33521391  0.33423280  1
  Fe  Fe15  1  0.33226997  0.66505760  0.00135133  1
  Fe  Fe16  1  0.50150579  0.83425853  0.16799194  1
  Ni  Ni17  1  0.33589801  0.66598843  0.33323783  1
  Ni  Ni18  1  0.66939194  0.00378774  0.00203686  1
  Fe  Fe19  1  0.83481485  0.16662844  0.16530779  1
  Cr  Cr20  1  0.66850255  0.99850567  0.33358621  1
  Ni  Ni21  1  0.66680817  0.33167455  0.99995128  1
  Fe  Fe22  1  0.83505714  0.49990334  0.16741895  1
  Cr  Cr23  1  0.66881629  0.33558189  0.33517388  1
  Cr  Cr24  1  0.66773694  0.66714622  0.00218008  1
  Ni  Ni25  1  0.83556747  0.83556058  0.16678946  1
  Ni  Ni26  1  0.66592778  0.66741761  0.33573755  1
  Fe  Fe27  1  0.16523903  0.16833125  0.50141441  1
  Ni  Ni28  1  1.00004753  0.00297771  0.66672287  1
  Ni  Ni29  1  0.16611470  0.16966633  0.83367791  1
  Fe  Fe30  1  0.16652308  0.49947752  0.50017989  1
  Ni  Ni31  1  0.00149963  0.33288979  0.66724767  1
  Ni  Ni32  1  0.16802245  0.49783674  0.83570475  1
  Cr  Cr33  1  0.16648662  0.83613851  0.50240648  1
  Fe  Fe34  1  0.99860816  0.66643260  0.66585638  1
  Cr  Cr35  1  0.16606833  0.83479572  0.83352435  1
  Fe  Fe36  1  0.50082889  0.16602300  0.50136238  1
  Ni  Ni37  1  0.33405089  0.00200195  0.66704965  1
  Fe  Fe38  1  0.50124578  0.16810387  0.83563308  1
  Ni  Ni39  1  0.50160671  0.50242989  0.49895233  1
  Cr  Cr40  1  0.33214181  0.33290225  0.66760828  1
  Fe  Fe41  1  0.49908463  0.49858868  0.83540864  1
  Ni  Ni42  1  0.50321269  0.83249327  0.50033381  1
  Cr  Cr43  1  0.33508422  0.66696691  0.66793571  1
  Cr  Cr44  1  0.50159584  0.83516705  0.83303234  1
  Fe  Fe45  1  0.83605562  0.16640488  0.50209566  1
  Ni  Ni46  1  0.66802281  0.99928055  0.66657017  1
  Ni  Ni47  1  0.83508575  0.16713602  0.83546098  1
  Ni  Ni48  1  0.83350796  0.50145698  0.50081056  1
  Cr  Cr49  1  0.66861640  0.33433565  0.66784524  1
  Cr  Cr50  1  0.83495659  0.49887823  0.83402817  1
  Ni  Ni51  1  0.83206842  0.83363540  0.50290280  1
  Ni  Ni52  1  0.66806948  0.66872756  0.66389787  1
  Cr  Cr53  1  0.83445488  0.83690526  0.83138573  1
" 