8054,Ni42Fe42Cr14_18,-234.497283497706, 209.06681250725,Ni42Fe42Cr14,"# generated using pymatgen
 data_Cr9Fe23Ni22
_symmetry_space_group_name_H-M   'P 1'
_cell_length_a   7.43083952
_cell_length_b   7.43083952
_cell_length_c   10.50879403
_cell_angle_alpha   90.00000000
_cell_angle_beta   90.00000000
_cell_angle_gamma   90.00000000
_symmetry_Int_Tables_number   1
_chemical_formula_structural   Cr9Fe23Ni22
_chemical_formula_sum   'Cr9 Fe23 Ni22'
_cell_volume   580.26803083
_cell_formula_units_Z   1
loop_
 _symmetry_equiv_pos_site_id
 _symmetry_equiv_pos_as_xyz
  1  'x, y, z'
loop_
 _atom_site_type_symbol
 _atom_site_label
 _atom_site_symmetry_multiplicity
 _atom_site_fract_x
 _atom_site_fract_y
 _atom_site_fract_z
 _atom_site_occupancy
  Fe  Fe0  1  0.00351114  0.00295826  1.00125006  1
  Fe  Fe1  1  0.16835846  0.16998993  0.16929331  1
  Fe  Fe2  1  0.00283517  1.00008744  0.33533498  1
  Ni  Ni3  1  1.00226326  0.33570026  0.00250690  1
  Ni  Ni4  1  0.16819103  0.50178322  0.17098258  1
  Fe  Fe5  1  0.00289601  0.33844823  0.33435276  1
  Ni  Ni6  1  1.00126230  0.66908065  1.00072503  1
  Fe  Fe7  1  0.16869673  0.83580167  0.17030586  1
  Ni  Ni8  1  1.00196013  0.66978994  0.33778976  1
  Fe  Fe9  1  0.33186395  0.00380827  0.00293907  1
  Cr  Cr10  1  0.50166801  0.17000477  0.17082307  1
  Ni  Ni11  1  0.33505519  1.00177576  0.33470579  1
  Ni  Ni12  1  0.33430766  0.33593091  1.00161035  1
  Fe  Fe13  1  0.50269912  0.50260110  0.17066381  1
  Ni  Ni14  1  0.33670200  0.33655118  0.33659831  1
  Cr  Cr15  1  0.33507136  0.66849595  0.00287981  1
  Fe  Fe16  1  0.50173981  0.83391051  0.17108561  1
  Ni  Ni17  1  0.33505715  0.66898177  0.33620449  1
  Cr  Cr18  1  0.67118353  1.00176237  1.00199314  1
  Fe  Fe19  1  0.83795457  0.17095350  0.16909783  1
  Fe  Fe20  1  0.66908566  1.00106767  0.33497606  1
  Ni  Ni21  1  0.67073891  0.33794851  1.00108873  1
  Fe  Fe22  1  0.83606331  0.50226163  0.16953726  1
  Ni  Ni23  1  0.66864779  0.33738956  0.33688968  1
  Fe  Fe24  1  0.67174109  0.66603403  0.00310372  1
  Fe  Fe25  1  0.83687264  0.83409489  0.16996115  1
  Ni  Ni26  1  0.67028986  0.66814342  0.33382235  1
  Cr  Cr27  1  0.17050215  0.16911685  0.50187556  1
  Ni  Ni28  1  0.00308327  1.00126440  0.67153502  1
  Fe  Fe29  1  0.16683285  0.16864397  0.83529683  1
  Fe  Fe30  1  0.16858442  0.50467489  0.50197772  1
  Ni  Ni31  1  1.00224157  0.33618461  0.67079661  1
  Ni  Ni32  1  0.16800151  0.50210254  0.83438905  1
  Ni  Ni33  1  0.16814097  0.83403909  0.50230800  1
  Fe  Fe34  1  0.00432386  0.67017874  0.66913154  1
  Ni  Ni35  1  0.16663092  0.83533382  0.83526974  1
  Fe  Fe36  1  0.50238036  0.17044100  0.50194606  1
  Ni  Ni37  1  0.33368419  1.00238613  0.66982920  1
  Cr  Cr38  1  0.50256063  0.17097756  0.83367694  1
  Ni  Ni39  1  0.50191581  0.50031317  0.50098196  1
  Fe  Fe40  1  0.33510522  0.33685117  0.66914917  1
  Fe  Fe41  1  0.50248110  0.50112203  0.83581504  1
  Cr  Cr42  1  0.50131260  0.83660116  0.50101054  1
  Fe  Fe43  1  0.33173751  0.66821672  0.66897755  1
  Cr  Cr44  1  0.50157535  0.83580821  0.83598044  1
  Cr  Cr45  1  0.83400050  0.16918200  0.50180621  1
  Fe  Fe46  1  0.67168756  0.00408364  0.66970161  1
  Ni  Ni47  1  0.83718236  0.16989491  0.83563518  1
  Ni  Ni48  1  0.83589286  0.50296199  0.50117154  1
  Fe  Fe49  1  0.66972433  0.33494253  0.66880046  1
  Fe  Fe50  1  0.83743529  0.50173861  0.83654750  1
  Ni  Ni51  1  0.83784180  0.83475314  0.50153817  1
  Cr  Cr52  1  0.67092027  0.66802333  0.67009050  1
  Ni  Ni53  1  0.83906721  0.83637070  0.83580271  1
" 