3011,Ni42Fe58_19,-242.062214710324, 225.983112945933,Ni42Fe58,"# generated using pymatgen
 data_Fe11Ni16
_symmetry_space_group_name_H-M   'P 1'
_cell_length_a   7.40205008
_cell_length_b   7.40205008
_cell_length_c   10.46807961
_cell_angle_alpha   90.00000000
_cell_angle_beta   90.00000000
_cell_angle_gamma   90.00000000
_symmetry_Int_Tables_number   1
_chemical_formula_structural   Fe11Ni16
_chemical_formula_sum   'Fe22 Ni32'
_cell_volume   573.54969643
_cell_formula_units_Z   2
loop_
 _symmetry_equiv_pos_site_id
 _symmetry_equiv_pos_as_xyz
  1  'x, y, z'
loop_
 _atom_site_type_symbol
 _atom_site_label
 _atom_site_symmetry_multiplicity
 _atom_site_fract_x
 _atom_site_fract_y
 _atom_site_fract_z
 _atom_site_occupancy
  Fe  Fe0  1  0.00519147  1.00351232  0.00443312  1
  Fe  Fe1  1  0.17186279  0.17094103  0.17170478  1
  Ni  Ni2  1  1.00383518  0.00544775  0.33790443  1
  Fe  Fe3  1  0.00481282  0.33882319  0.00447212  1
  Ni  Ni4  1  0.17111383  0.50589271  0.17083288  1
  Ni  Ni5  1  1.00422083  0.33754725  0.33789328  1
  Ni  Ni6  1  1.00370718  0.67069325  1.00435771  1
  Fe  Fe7  1  0.17180006  0.83813946  0.17096802  1
  Ni  Ni8  1  1.00421828  0.67018006  0.33832008  1
  Ni  Ni9  1  0.33819562  0.00517242  1.00372876  1
  Ni  Ni10  1  0.50550319  0.16974008  0.17136284  1
  Ni  Ni11  1  0.33821188  1.00422796  0.33847624  1
  Ni  Ni12  1  0.33746165  0.33693635  1.00406166  1
  Fe  Fe13  1  0.50422359  0.50455797  0.17117600  1
  Fe  Fe14  1  0.33705004  0.33795234  0.33779114  1
  Ni  Ni15  1  0.33781847  0.67106254  0.00457455  1
  Ni  Ni16  1  0.50356348  0.83826964  0.17068135  1
  Ni  Ni17  1  0.33783878  0.67139302  0.33690089  1
  Fe  Fe18  1  0.66981179  1.00418980  0.00461189  1
  Ni  Ni19  1  0.83654375  0.17096289  0.17078384  1
  Ni  Ni20  1  0.67112627  1.00422355  0.33742417  1
  Fe  Fe21  1  0.67032425  0.33800528  1.00351257  1
  Fe  Fe22  1  0.83738853  0.50461487  0.17097044  1
  Fe  Fe23  1  0.67180212  0.33741917  0.33829331  1
  Ni  Ni24  1  0.67164590  0.67142805  1.00363110  1
  Fe  Fe25  1  0.83704438  0.83771891  0.17192816  1
  Ni  Ni26  1  0.67111399  0.67177648  0.33847637  1
  Ni  Ni27  1  0.17078379  0.17058919  0.50430491  1
  Fe  Fe28  1  0.00445313  0.00533116  0.67027195  1
  Fe  Fe29  1  0.17099747  0.17147298  0.83730089  1
  Ni  Ni30  1  0.17164564  0.50529620  0.50514673  1
  Ni  Ni31  1  1.00410439  0.33754441  0.67153208  1
  Fe  Fe32  1  0.17097776  0.50383575  0.83796494  1
  Ni  Ni33  1  0.17117154  0.83728762  0.50315611  1
  Fe  Fe34  1  0.00441435  0.67018958  0.67092392  1
  Ni  Ni35  1  0.17209148  0.83668316  0.83850168  1
  Fe  Fe36  1  0.50454048  0.17127933  0.50484875  1
  Fe  Fe37  1  0.33772550  0.00538373  0.67136995  1
  Ni  Ni38  1  0.50530116  0.17098104  0.83785894  1
  Ni  Ni39  1  0.50411244  0.50456730  0.50394625  1
  Ni  Ni40  1  0.33697499  0.33839508  0.67084750  1
  Fe  Fe41  1  0.50446651  0.50393947  0.83714406  1
  Fe  Fe42  1  0.50446841  0.83712404  0.50337278  1
  Ni  Ni43  1  0.33732778  0.67054568  0.67169147  1
  Fe  Fe44  1  0.50480179  0.83802464  0.83860218  1
  Ni  Ni45  1  0.83752021  0.17094264  0.50457010  1
  Ni  Ni46  1  0.67172932  0.00508966  0.67127798  1
  Ni  Ni47  1  0.83613964  0.17218498  0.83781719  1
  Ni  Ni48  1  0.83741149  0.50418306  0.50373207  1
  Ni  Ni49  1  0.67208966  0.33633383  0.67095992  1
  Ni  Ni50  1  0.83772137  0.50355955  0.83792437  1
  Ni  Ni51  1  0.83825132  0.83804130  0.50446495  1
  Fe  Fe52  1  0.67097868  0.66944812  0.67068700  1
  Fe  Fe53  1  0.83745708  0.83800564  0.83759712  1
" 