7061,Ni42Fe26Cr30_3,-228.224218871735, 185.633840819362,Ni42Fe26Cr30,"# generated using pymatgen
 data_Cr17Fe14Ni23
_symmetry_space_group_name_H-M   'P 1'
_cell_length_a   7.46443874
_cell_length_b   7.46443874
_cell_length_c   10.55631050
_cell_angle_alpha   90.00000000
_cell_angle_beta   90.00000000
_cell_angle_gamma   90.00000000
_symmetry_Int_Tables_number   1
_chemical_formula_structural   Cr17Fe14Ni23
_chemical_formula_sum   'Cr17 Fe14 Ni23'
_cell_volume   588.17487949
_cell_formula_units_Z   1
loop_
 _symmetry_equiv_pos_site_id
 _symmetry_equiv_pos_as_xyz
  1  'x, y, z'
loop_
 _atom_site_type_symbol
 _atom_site_label
 _atom_site_symmetry_multiplicity
 _atom_site_fract_x
 _atom_site_fract_y
 _atom_site_fract_z
 _atom_site_occupancy
  Ni  Ni0  1  0.00136208  0.00258260  0.99776839  1
  Fe  Fe1  1  0.16860079  0.16764302  0.16566719  1
  Ni  Ni2  1  0.99996594  0.99826831  0.33553555  1
  Ni  Ni3  1  0.00103179  0.33440539  0.99865250  1
  Fe  Fe4  1  0.16682226  0.49986572  0.16656115  1
  Cr  Cr5  1  0.00280267  0.33593860  0.33336642  1
  Ni  Ni6  1  0.00035582  0.66353555  0.99949143  1
  Cr  Cr7  1  0.16569395  0.83298224  0.16651121  1
  Ni  Ni8  1  0.99969315  0.66657115  0.33495761  1
  Fe  Fe9  1  0.33363181  0.99962934  1.00011925  1
  Ni  Ni10  1  0.49859446  0.16682978  0.16651354  1
  Cr  Cr11  1  0.33582749  0.00127715  0.33404693  1
  Fe  Fe12  1  0.33098782  0.33221453  0.00095079  1
  Cr  Cr13  1  0.49902458  0.50081944  0.16653185  1
  Ni  Ni14  1  0.33173141  0.33304716  0.33373391  1
  Fe  Fe15  1  0.33301706  0.66868050  0.99951022  1
  Ni  Ni16  1  0.50075930  0.83322122  0.16652101  1
  Ni  Ni17  1  0.33279291  0.66651376  0.33391425  1
  Ni  Ni18  1  0.66438259  0.99961111  0.00049101  1
  Cr  Cr19  1  0.83409229  0.16500786  0.16551645  1
  Ni  Ni20  1  0.66539901  0.99720486  0.33394665  1
  Fe  Fe21  1  0.67009455  0.33326802  0.99951109  1
  Fe  Fe22  1  0.83415557  0.50241067  0.16526349  1
  Cr  Cr23  1  0.66584294  0.33303612  0.33263781  1
  Ni  Ni24  1  0.66677943  0.66789773  0.99958580  1
  Cr  Cr25  1  0.83335812  0.83325420  0.16841889  1
  Ni  Ni26  1  0.66803582  0.67000290  0.33475485  1
  Ni  Ni27  1  0.16867087  0.16703816  0.49866057  1
  Cr  Cr28  1  0.00119303  0.00066403  0.66747203  1
  Ni  Ni29  1  0.16500505  0.16720935  0.83603496  1
  Fe  Fe30  1  0.16723263  0.50085054  0.49922912  1
  Cr  Cr31  1  0.99971079  0.33480694  0.66814403  1
  Fe  Fe32  1  0.16640132  0.49965264  0.83473516  1
  Fe  Fe33  1  0.16556167  0.83179420  0.49828827  1
  Cr  Cr34  1  0.00070947  0.66505224  0.66638250  1
  Fe  Fe35  1  0.16825514  0.83316181  0.83569834  1
  Fe  Fe36  1  0.49940691  0.16761129  0.49985042  1
  Cr  Cr37  1  0.33388001  0.99923529  0.66667239  1
  Cr  Cr38  1  0.50017373  0.16829139  0.83362499  1
  Cr  Cr39  1  0.49891914  0.50029055  0.50203260  1
  Ni  Ni40  1  0.33349282  0.33445028  0.66557104  1
  Cr  Cr41  1  0.50034466  0.50178599  0.83195912  1
  Fe  Fe42  1  0.50157026  0.83241992  0.49909740  1
  Ni  Ni43  1  0.33387697  0.66662376  0.66771430  1
  Ni  Ni44  1  0.49840526  0.83068739  0.83503357  1
  Cr  Cr45  1  0.83419376  0.16469543  0.50027328  1
  Cr  Cr46  1  0.66545508  0.00022989  0.66599399  1
  Ni  Ni47  1  0.83621657  0.16875796  0.83522778  1
  Ni  Ni48  1  0.83254535  0.50418074  0.49986579  1
  Ni  Ni49  1  0.66669978  0.33479235  0.66791119  1
  Ni  Ni50  1  0.83330017  0.49881731  0.83494903  1
  Ni  Ni51  1  0.83385943  0.83160550  0.49671855  1
  Fe  Fe52  1  0.66583304  0.66523921  0.66624206  1
  Cr  Cr53  1  0.83368816  0.83377360  0.83557495  1
" 