6033,Ni42Fe32Cr25_5,-230.074926383514, 199.891148975677,Ni42Fe32Cr25,"# generated using pymatgen
 data_Cr15Fe17Ni22
_symmetry_space_group_name_H-M   'P 1'
_cell_length_a   7.45148579
_cell_length_b   7.45148579
_cell_length_c   10.53799227
_cell_angle_alpha   90.00000000
_cell_angle_beta   90.00000000
_cell_angle_gamma   90.00000000
_symmetry_Int_Tables_number   1
_chemical_formula_structural   Cr15Fe17Ni22
_chemical_formula_sum   'Cr15 Fe17 Ni22'
_cell_volume   585.11823298
_cell_formula_units_Z   1
loop_
 _symmetry_equiv_pos_site_id
 _symmetry_equiv_pos_as_xyz
  1  'x, y, z'
loop_
 _atom_site_type_symbol
 _atom_site_label
 _atom_site_symmetry_multiplicity
 _atom_site_fract_x
 _atom_site_fract_y
 _atom_site_fract_z
 _atom_site_occupancy
  Fe  Fe0  1  1.00019289  0.00206289  0.00305411  1
  Ni  Ni1  1  0.16855393  0.16873111  0.16838390  1
  Fe  Fe2  1  0.00262975  0.00152152  0.33428159  1
  Cr  Cr3  1  0.99939489  0.33581713  0.00126316  1
  Fe  Fe4  1  0.16974997  0.49847357  0.17032982  1
  Ni  Ni5  1  0.99885606  0.33433371  0.33501564  1
  Ni  Ni6  1  0.99944201  0.66563851  0.00393000  1
  Cr  Cr7  1  0.16604493  0.83489600  0.16802607  1
  Ni  Ni8  1  0.99978209  0.66475139  0.33261476  1
  Fe  Fe9  1  0.33580697  0.00194522  0.00369224  1
  Ni  Ni10  1  0.50038068  0.16980186  0.16862677  1
  Ni  Ni11  1  0.33731476  0.00172881  0.33367367  1
  Ni  Ni12  1  0.33563230  0.33183844  0.00208424  1
  Fe  Fe13  1  0.49963223  0.49971706  0.17014570  1
  Ni  Ni14  1  0.33348930  0.33226777  0.33270818  1
  Cr  Cr15  1  0.33549446  0.66664770  0.00195960  1
  Ni  Ni16  1  0.50222843  0.83488870  0.17135260  1
  Ni  Ni17  1  0.33498925  0.66948899  0.33483022  1
  Cr  Cr18  1  0.66515434  0.00290840  1.00042981  1
  Fe  Fe19  1  0.83402487  0.16673324  0.16972591  1
  Fe  Fe20  1  0.66657571  0.00250330  0.33367619  1
  Fe  Fe21  1  0.66614651  0.33578616  1.00017661  1
  Fe  Fe22  1  0.83333202  0.50049740  0.17022619  1
  Fe  Fe23  1  0.66792107  0.33498987  0.33417128  1
  Cr  Cr24  1  0.66829030  0.66721610  1.00071382  1
  Fe  Fe25  1  0.83299039  0.83586800  0.16952210  1
  Ni  Ni26  1  0.66829945  0.66851324  0.33306255  1
  Cr  Cr27  1  0.16800895  0.16756478  0.50046863  1
  Ni  Ni28  1  0.99895965  1.00078811  0.66689588  1
  Cr  Cr29  1  0.16776410  0.16714129  0.83530233  1
  Cr  Cr30  1  0.16741328  0.50163215  0.50113236  1
  Fe  Fe31  1  0.99753354  0.33217694  0.66635804  1
  Cr  Cr32  1  0.16816278  0.50075142  0.83172147  1
  Fe  Fe33  1  0.16714527  0.83411283  0.49965567  1
  Ni  Ni34  1  1.00069529  0.66620732  0.66694067  1
  Cr  Cr35  1  0.16650044  0.83486620  0.83623578  1
  Ni  Ni36  1  0.50243239  0.16672287  0.49781874  1
  Cr  Cr37  1  0.33826296  1.00056793  0.66691407  1
  Ni  Ni38  1  0.50142026  0.16892786  0.83648264  1
  Cr  Cr39  1  0.50218687  0.50095943  0.49869280  1
  Fe  Fe40  1  0.33651780  0.33336155  0.66789850  1
  Ni  Ni41  1  0.50190014  0.50013993  0.83441990  1
  Fe  Fe42  1  0.50205179  0.83580793  0.49858931  1
  Fe  Fe43  1  0.33674073  0.66924763  0.66725163  1
  Ni  Ni44  1  0.50240797  0.83428214  0.83206001  1
  Ni  Ni45  1  0.83309383  0.16708443  0.49909250  1
  Ni  Ni46  1  0.66738134  0.00289239  0.66671332  1
  Ni  Ni47  1  0.83299925  0.16805557  0.83389705  1
  Ni  Ni48  1  0.83506225  0.50160113  0.50033736  1
  Cr  Cr49  1  0.66868102  0.33231742  0.66920152  1
  Ni  Ni50  1  0.83325514  0.50164931  0.83276784  1
  Cr  Cr51  1  0.83421168  0.83412086  0.49964658  1
  Fe  Fe52  1  0.66795373  0.66914229  0.66777913  1
  Cr  Cr53  1  0.83529528  0.83469948  0.83443680  1
" 