6554,Ni42Fe37Cr20_5,-231.746277793074, 198.031475033811,Ni42Fe37Cr20,"# generated using pymatgen
 data_Cr6Fe10Ni11
_symmetry_space_group_name_H-M   'P 1'
_cell_length_a   7.44134754
_cell_length_b   7.44134754
_cell_length_c   10.52365462
_cell_angle_alpha   90.00000000
_cell_angle_beta   90.00000000
_cell_angle_gamma   90.00000000
_symmetry_Int_Tables_number   1
_chemical_formula_structural   Cr6Fe10Ni11
_chemical_formula_sum   'Cr12 Fe20 Ni22'
_cell_volume   582.73320173
_cell_formula_units_Z   2
loop_
 _symmetry_equiv_pos_site_id
 _symmetry_equiv_pos_as_xyz
  1  'x, y, z'
loop_
 _atom_site_type_symbol
 _atom_site_label
 _atom_site_symmetry_multiplicity
 _atom_site_fract_x
 _atom_site_fract_y
 _atom_site_fract_z
 _atom_site_occupancy
  Ni  Ni0  1  0.99832544  0.00366775  0.00273408  1
  Ni  Ni1  1  0.16773423  0.16831491  0.16933765  1
  Fe  Fe2  1  1.00167849  0.00262910  0.33361168  1
  Ni  Ni3  1  1.00147890  0.33395756  1.00087769  1
  Ni  Ni4  1  0.16670188  0.50179018  0.16885104  1
  Fe  Fe5  1  0.00357746  0.33481466  0.33439255  1
  Ni  Ni6  1  0.99971657  0.66755515  0.00228135  1
  Fe  Fe7  1  0.16601498  0.83633139  0.16886167  1
  Ni  Ni8  1  0.00210847  0.66762205  0.33345089  1
  Cr  Cr9  1  0.33658573  0.00330814  0.00248818  1
  Ni  Ni10  1  0.50268841  0.16700522  0.16934324  1
  Fe  Fe11  1  0.33612315  0.00350116  0.33416203  1
  Cr  Cr12  1  0.33447468  0.33477824  0.00221940  1
  Fe  Fe13  1  0.50243210  0.50064211  0.16863833  1
  Fe  Fe14  1  0.33451709  0.33423010  0.33505549  1
  Cr  Cr15  1  0.33626062  0.66709507  0.00276212  1
  Ni  Ni16  1  0.50365139  0.83645439  0.16853541  1
  Cr  Cr17  1  0.33555540  0.66697637  0.33455567  1
  Ni  Ni18  1  0.67043157  1.00168833  0.00178038  1
  Ni  Ni19  1  0.83475720  0.16700764  0.16856390  1
  Fe  Fe20  1  0.66737867  0.00173135  0.33387179  1
  Fe  Fe21  1  0.66995946  0.33352138  1.00074337  1
  Cr  Cr22  1  0.83572950  0.50256303  0.16687107  1
  Fe  Fe23  1  0.66708636  0.33410746  0.33489423  1
  Ni  Ni24  1  0.66930658  0.66980055  1.00071229  1
  Fe  Fe25  1  0.83499813  0.83680534  0.16766121  1
  Ni  Ni26  1  0.66736568  0.66913080  0.33513870  1
  Ni  Ni27  1  0.16958193  0.17064791  0.50202834  1
  Ni  Ni28  1  0.99882675  0.00702403  0.66864778  1
  Fe  Fe29  1  0.16557396  0.17017413  0.83450787  1
  Ni  Ni30  1  0.16883627  0.49836105  0.50165783  1
  Fe  Fe31  1  0.00214767  0.33221628  0.66913316  1
  Fe  Fe32  1  0.16665318  0.49849937  0.83558686  1
  Cr  Cr33  1  0.16745882  0.83599950  0.50000994  1
  Cr  Cr34  1  1.00023182  0.66678232  0.66964027  1
  Cr  Cr35  1  0.16523652  0.83582748  0.83648202  1
  Ni  Ni36  1  0.50131221  0.16915466  0.50105922  1
  Cr  Cr37  1  0.33679054  0.00457134  0.66873898  1
  Ni  Ni38  1  0.50453443  0.17011834  0.83477657  1
  Fe  Fe39  1  0.50125879  0.50024220  0.50233044  1
  Fe  Fe40  1  0.33564871  0.33456810  0.66820186  1
  Ni  Ni41  1  0.50411342  0.50050648  0.83424453  1
  Fe  Fe42  1  0.50370789  0.83576793  0.50074665  1
  Cr  Cr43  1  0.33833466  0.66538724  0.66786527  1
  Fe  Fe44  1  0.50788791  0.83538318  0.83546354  1
  Fe  Fe45  1  0.83585027  0.16823463  0.50232360  1
  Ni  Ni46  1  0.66929318  0.00295294  0.66851540  1
  Ni  Ni47  1  0.83422252  0.16752351  0.83438243  1
  Cr  Cr48  1  0.83467255  0.50183915  0.50177613  1
  Fe  Fe49  1  0.66738659  0.33348122  0.66953884  1
  Fe  Fe50  1  0.83342902  0.50134908  0.83623153  1
  Cr  Cr51  1  0.83354109  0.83542890  0.50131185  1
  Ni  Ni52  1  0.66632250  0.66862412  0.66932766  1
  Ni  Ni53  1  0.83375816  0.83555498  0.83632553  1
" 