4296,Ni42Fe58_1,-242.589085538453, 228.501470982242,Ni42Fe58,"# generated using pymatgen
 data_Fe11Ni16
_symmetry_space_group_name_H-M   'P 1'
_cell_length_a   7.40493745
_cell_length_b   7.40493745
_cell_length_c   10.47216297
_cell_angle_alpha   90.00000000
_cell_angle_beta   90.00000000
_cell_angle_gamma   90.00000000
_symmetry_Int_Tables_number   1
_chemical_formula_structural   Fe11Ni16
_chemical_formula_sum   'Fe22 Ni32'
_cell_volume   574.22114502
_cell_formula_units_Z   2
loop_
 _symmetry_equiv_pos_site_id
 _symmetry_equiv_pos_as_xyz
  1  'x, y, z'
loop_
 _atom_site_type_symbol
 _atom_site_label
 _atom_site_symmetry_multiplicity
 _atom_site_fract_x
 _atom_site_fract_y
 _atom_site_fract_z
 _atom_site_occupancy
  Ni  Ni0  1  1.00371086  0.00477861  1.00383581  1
  Ni  Ni1  1  0.17011850  0.17059862  0.17170220  1
  Ni  Ni2  1  0.00448216  1.00345818  0.33781328  1
  Ni  Ni3  1  0.00487152  0.33618551  0.00444321  1
  Fe  Fe4  1  0.17206962  0.50304941  0.17164094  1
  Fe  Fe5  1  0.00486566  0.33739450  0.33741897  1
  Fe  Fe6  1  1.00319257  0.67071734  1.00376916  1
  Fe  Fe7  1  0.17155727  0.83866907  0.17179818  1
  Ni  Ni8  1  0.00484955  0.67202345  0.33758521  1
  Fe  Fe9  1  0.33793010  0.00556807  0.00475523  1
  Ni  Ni10  1  0.50453942  0.17131382  0.17079509  1
  Ni  Ni11  1  0.33657288  0.00461819  0.33760600  1
  Ni  Ni12  1  0.33785105  0.33773527  0.00443894  1
  Ni  Ni13  1  0.50419306  0.50483745  0.17193188  1
  Ni  Ni14  1  0.33889736  0.33779296  0.33756823  1
  Fe  Fe15  1  0.33845759  0.67034534  1.00418575  1
  Ni  Ni16  1  0.50382282  0.83643398  0.17044134  1
  Ni  Ni17  1  0.33690817  0.67017323  0.33749799  1
  Ni  Ni18  1  0.67175089  0.00431965  0.00439386  1
  Ni  Ni19  1  0.83792444  0.17096184  0.17058958  1
  Fe  Fe20  1  0.67022581  0.00464955  0.33716275  1
  Ni  Ni21  1  0.66986570  0.33739706  1.00339459  1
  Fe  Fe22  1  0.83631012  0.50319643  0.17120006  1
  Ni  Ni23  1  0.66965638  0.33743552  0.33711609  1
  Ni  Ni24  1  0.67021254  0.67087514  1.00403553  1
  Fe  Fe25  1  0.83675384  0.83859158  0.17000784  1
  Fe  Fe26  1  0.67010101  0.67062985  0.33717059  1
  Fe  Fe27  1  0.16992518  0.17099566  0.50369069  1
  Ni  Ni28  1  1.00350650  1.00397930  0.67092929  1
  Ni  Ni29  1  0.17032995  0.16978992  0.83679350  1
  Ni  Ni30  1  0.17079176  0.50608108  0.50409886  1
  Fe  Fe31  1  1.00341477  0.33787251  0.67097505  1
  Fe  Fe32  1  0.17096024  0.50360988  0.83697524  1
  Ni  Ni33  1  0.17127905  0.83638580  0.50373850  1
  Ni  Ni34  1  0.00467127  0.67172146  0.67149362  1
  Ni  Ni35  1  0.16987632  0.83749813  0.83782219  1
  Fe  Fe36  1  0.50421032  0.17141366  0.50377003  1
  Fe  Fe37  1  0.33717564  1.00261838  0.67073479  1
  Ni  Ni38  1  0.50481231  0.17214634  0.83828324  1
  Fe  Fe39  1  0.50397713  0.50433653  0.50405063  1
  Fe  Fe40  1  0.33759590  0.33801692  0.67143791  1
  Ni  Ni41  1  0.50446345  0.50413212  0.83713891  1
  Fe  Fe42  1  0.50403032  0.83682505  0.50391761  1
  Ni  Ni43  1  0.33733915  0.66984389  0.67090335  1
  Fe  Fe44  1  0.50492621  0.83822268  0.83764135  1
  Ni  Ni45  1  0.83719696  0.17128989  0.50417405  1
  Ni  Ni46  1  0.67209242  0.00434968  0.67092839  1
  Ni  Ni47  1  0.83744406  0.17014321  0.83780446  1
  Ni  Ni48  1  0.83769231  0.50374295  0.50426928  1
  Fe  Fe49  1  0.67156539  0.33779294  0.67078394  1
  Fe  Fe50  1  0.83735491  0.50407020  0.83726225  1
  Fe  Fe51  1  0.83897336  0.83696676  0.50526289  1
  Ni  Ni52  1  0.67058225  0.67101586  0.67038608  1
  Ni  Ni53  1  0.83858904  0.83785665  0.83690265  1
" 