6348,Ni42Fe58_15,-242.520568328515, 228.709761159451,Ni42Fe58,"# generated using pymatgen
 data_Fe11Ni16
_symmetry_space_group_name_H-M   'P 1'
_cell_length_a   7.40269557
_cell_length_b   7.40269557
_cell_length_c   10.46899247
_cell_angle_alpha   90.00000000
_cell_angle_beta   90.00000000
_cell_angle_gamma   90.00000000
_symmetry_Int_Tables_number   1
_chemical_formula_structural   Fe11Ni16
_chemical_formula_sum   'Fe22 Ni32'
_cell_volume   573.69975735
_cell_formula_units_Z   2
loop_
 _symmetry_equiv_pos_site_id
 _symmetry_equiv_pos_as_xyz
  1  'x, y, z'
loop_
 _atom_site_type_symbol
 _atom_site_label
 _atom_site_symmetry_multiplicity
 _atom_site_fract_x
 _atom_site_fract_y
 _atom_site_fract_z
 _atom_site_occupancy
  Fe  Fe0  1  1.00398628  0.00514997  1.00336096  1
  Fe  Fe1  1  0.17170946  0.17079167  0.17075611  1
  Ni  Ni2  1  1.00377960  1.00342650  0.33680617  1
  Ni  Ni3  1  1.00417398  0.33934469  1.00346758  1
  Ni  Ni4  1  0.17054792  0.50371650  0.17065042  1
  Ni  Ni5  1  0.00460069  0.33888956  0.33829942  1
  Ni  Ni6  1  1.00382394  0.67071147  1.00434520  1
  Fe  Fe7  1  0.17148676  0.83756622  0.17096530  1
  Ni  Ni8  1  1.00425347  0.67071623  0.33809254  1
  Ni  Ni9  1  0.33887886  0.00482101  0.00476042  1
  Ni  Ni10  1  0.50420232  0.17032588  0.17064633  1
  Ni  Ni11  1  0.33885241  0.00443116  0.33767353  1
  Ni  Ni12  1  0.33809711  0.33674540  0.00442794  1
  Fe  Fe13  1  0.50396191  0.50439598  0.17120675  1
  Ni  Ni14  1  0.33802702  0.33787381  0.33751877  1
  Fe  Fe15  1  0.33758126  0.67060698  0.00510324  1
  Ni  Ni16  1  0.50533059  0.83899638  0.17065437  1
  Ni  Ni17  1  0.33735068  0.67073135  0.33809533  1
  Ni  Ni18  1  0.66999592  0.00448513  1.00313091  1
  Fe  Fe19  1  0.83711106  0.17058824  0.17053850  1
  Ni  Ni20  1  0.67041280  1.00409913  0.33863059  1
  Ni  Ni21  1  0.67076235  0.33707728  0.00471394  1
  Fe  Fe22  1  0.83786695  0.50463322  0.17113751  1
  Fe  Fe23  1  0.67073146  0.33709768  0.33824521  1
  Fe  Fe24  1  0.67110957  0.67117942  1.00400356  1
  Ni  Ni25  1  0.83715283  0.83785649  0.17103370  1
  Fe  Fe26  1  0.67079668  0.67187163  0.33843553  1
  Fe  Fe27  1  0.17218142  0.17168571  0.50466203  1
  Ni  Ni28  1  0.00498089  1.00271592  0.67149398  1
  Ni  Ni29  1  0.17071946  0.17127949  0.83802134  1
  Ni  Ni30  1  0.17038261  0.50408944  0.50522663  1
  Fe  Fe31  1  1.00427588  0.33758837  0.67102082  1
  Fe  Fe32  1  0.16980349  0.50421795  0.83816050  1
  Fe  Fe33  1  0.17169738  0.83700293  0.50473489  1
  Ni  Ni34  1  1.00306141  0.67180664  0.67061398  1
  Ni  Ni35  1  0.17037031  0.83782592  0.83826961  1
  Ni  Ni36  1  0.50417238  0.17046682  0.50480117  1
  Ni  Ni37  1  0.33737132  0.00530117  0.67062263  1
  Fe  Fe38  1  0.50406212  0.17036080  0.83802583  1
  Ni  Ni39  1  0.50384668  0.50409353  0.50326807  1
  Ni  Ni40  1  0.33897672  0.33672908  0.67109387  1
  Fe  Fe41  1  0.50469268  0.50364084  0.83693099  1
  Ni  Ni42  1  0.50451729  0.83848049  0.50456750  1
  Fe  Fe43  1  0.33782445  0.67101464  0.67012345  1
  Fe  Fe44  1  0.50425934  0.83903477  0.83772955  1
  Fe  Fe45  1  0.83694120  0.17182682  0.50454303  1
  Fe  Fe46  1  0.67109483  1.00428141  0.67101708  1
  Ni  Ni47  1  0.83797437  0.17063678  0.83792033  1
  Ni  Ni48  1  0.83881221  0.50443648  0.50427221  1
  Ni  Ni49  1  0.66989231  0.33864691  0.67087499  1
  Fe  Fe50  1  0.83854333  0.50441403  0.83720381  1
  Fe  Fe51  1  0.83721496  0.83665364  0.50434358  1
  Ni  Ni52  1  0.67246496  0.67021029  0.67107659  1
  Ni  Ni53  1  0.83799461  0.83814264  0.83739421  1
" 