8412,Ni42Fe42Cr14_0,-233.910447898337, 205.908350390756,Ni42Fe42Cr14,"# generated using pymatgen
 data_Cr9Fe23Ni22
_symmetry_space_group_name_H-M   'P 1'
_cell_length_a   7.42790956
_cell_length_b   7.42790956
_cell_length_c   10.50465044
_cell_angle_alpha   90.00000000
_cell_angle_beta   90.00000000
_cell_angle_gamma   90.00000000
_symmetry_Int_Tables_number   1
_chemical_formula_structural   Cr9Fe23Ni22
_chemical_formula_sum   'Cr9 Fe23 Ni22'
_cell_volume   579.58190798
_cell_formula_units_Z   1
loop_
 _symmetry_equiv_pos_site_id
 _symmetry_equiv_pos_as_xyz
  1  'x, y, z'
loop_
 _atom_site_type_symbol
 _atom_site_label
 _atom_site_symmetry_multiplicity
 _atom_site_fract_x
 _atom_site_fract_y
 _atom_site_fract_z
 _atom_site_occupancy
  Ni  Ni0  1  1.00086488  1.00210614  1.00205367  1
  Cr  Cr1  1  0.16932925  0.16852473  0.16934372  1
  Cr  Cr2  1  1.00062672  1.00169958  0.33696518  1
  Fe  Fe3  1  0.99897172  0.33523371  1.00251047  1
  Fe  Fe4  1  0.16888514  0.50397396  0.17112328  1
  Ni  Ni5  1  1.00202300  0.33932517  0.33649705  1
  Cr  Cr6  1  0.00426976  0.67023735  1.00192869  1
  Fe  Fe7  1  0.17017205  0.83498175  0.16886549  1
  Ni  Ni8  1  1.00251369  0.66670472  0.33525163  1
  Fe  Fe9  1  0.33767334  0.99965055  1.00181729  1
  Ni  Ni10  1  0.50405061  0.16879534  0.16957033  1
  Fe  Fe11  1  0.33929084  0.00342881  0.33662387  1
  Cr  Cr12  1  0.33844750  0.33731005  1.00064472  1
  Fe  Fe13  1  0.50292322  0.50224139  0.17071463  1
  Fe  Fe14  1  0.33706954  0.33622137  0.33658666  1
  Fe  Fe15  1  0.33616047  0.67168239  1.00200972  1
  Fe  Fe16  1  0.50262828  0.83771855  0.16990483  1
  Fe  Fe17  1  0.33681931  0.66825481  0.33552204  1
  Ni  Ni18  1  0.66928830  0.00472988  1.00190180  1
  Fe  Fe19  1  0.83337145  0.16923739  0.16824598  1
  Ni  Ni20  1  0.66696630  0.00320521  0.33656885  1
  Fe  Fe21  1  0.67096794  0.33372483  1.00209883  1
  Fe  Fe22  1  0.83610089  0.50091446  0.17134711  1
  Ni  Ni23  1  0.66822728  0.33568668  0.33474016  1
  Cr  Cr24  1  0.66799905  0.66957941  1.00204985  1
  Ni  Ni25  1  0.83608405  0.83567502  0.17006560  1
  Fe  Fe26  1  0.67067981  0.66921200  0.33650137  1
  Fe  Fe27  1  0.17090481  0.17045459  0.50288044  1
  Ni  Ni28  1  1.00229964  0.99981530  0.66957844  1
  Cr  Cr29  1  0.16885844  0.16646566  0.83567723  1
  Fe  Fe30  1  0.16970596  0.50260546  0.50152701  1
  Cr  Cr31  1  0.00310905  0.33709462  0.66853902  1
  Fe  Fe32  1  0.17023391  0.50485238  0.83524269  1
  Cr  Cr33  1  0.16854902  0.83645904  0.50280950  1
  Ni  Ni34  1  1.00231392  0.67064405  0.67029111  1
  Ni  Ni35  1  0.16997073  0.83580968  0.83665890  1
  Ni  Ni36  1  0.50093774  0.16926347  0.50176238  1
  Ni  Ni37  1  0.33751997  1.00232109  0.66973337  1
  Ni  Ni38  1  0.50383286  0.16829819  0.83656403  1
  Ni  Ni39  1  0.50291059  0.50213536  0.50154683  1
  Fe  Fe40  1  0.33659058  0.33611299  0.66879039  1
  Ni  Ni41  1  0.50301415  0.50345237  0.83553135  1
  Ni  Ni42  1  0.50414689  0.83650508  0.50183106  1
  Fe  Fe43  1  0.33634070  0.66946132  0.67036945  1
  Ni  Ni44  1  0.50076793  0.83615508  0.83562760  1
  Fe  Fe45  1  0.83415733  0.16853362  0.50190511  1
  Fe  Fe46  1  0.66941939  1.00103957  0.66924352  1
  Ni  Ni47  1  0.83529527  0.16901602  0.83913960  1
  Ni  Ni48  1  0.83616443  0.50446864  0.49993099  1
  Cr  Cr49  1  0.66680204  0.33595206  0.67052367  1
  Ni  Ni50  1  0.83563676  0.50225859  0.83682991  1
  Ni  Ni51  1  0.83488474  0.83412447  0.50428092  1
  Fe  Fe52  1  0.66971985  0.67100184  0.66924112  1
  Fe  Fe53  1  0.83577334  0.83790863  0.83475596  1
" 