7352,Ni42Fe32Cr25_1,-229.693065114512, 189.94960107408,Ni42Fe32Cr25,"# generated using pymatgen
 data_Cr15Fe17Ni22
_symmetry_space_group_name_H-M   'P 1'
_cell_length_a   7.45444552
_cell_length_b   7.45444552
_cell_length_c   10.54217796
_cell_angle_alpha   90.00000000
_cell_angle_beta   90.00000000
_cell_angle_gamma   90.00000000
_symmetry_Int_Tables_number   1
_chemical_formula_structural   Cr15Fe17Ni22
_chemical_formula_sum   'Cr15 Fe17 Ni22'
_cell_volume   585.81573594
_cell_formula_units_Z   1
loop_
 _symmetry_equiv_pos_site_id
 _symmetry_equiv_pos_as_xyz
  1  'x, y, z'
loop_
 _atom_site_type_symbol
 _atom_site_label
 _atom_site_symmetry_multiplicity
 _atom_site_fract_x
 _atom_site_fract_y
 _atom_site_fract_z
 _atom_site_occupancy
  Cr  Cr0  1  0.99954576  0.99709358  1.00049105  1
  Cr  Cr1  1  0.17088708  0.16713331  0.16736603  1
  Cr  Cr2  1  0.00153041  0.99969921  0.33516320  1
  Cr  Cr3  1  0.99734620  0.33800581  1.00069502  1
  Ni  Ni4  1  0.16852135  0.49750241  0.16796459  1
  Ni  Ni5  1  0.99932156  0.33525322  0.33702685  1
  Ni  Ni6  1  0.00214121  0.66787589  0.00277158  1
  Fe  Fe7  1  0.16755247  0.83215056  0.16606169  1
  Cr  Cr8  1  0.00191160  0.66681860  0.33226899  1
  Ni  Ni9  1  0.33702997  1.00058967  0.00170845  1
  Fe  Fe10  1  0.50229697  0.16981115  0.16665831  1
  Fe  Fe11  1  0.33426915  0.00359192  0.33687789  1
  Fe  Fe12  1  0.33758616  0.33429692  0.00085734  1
  Ni  Ni13  1  0.50128514  0.49879948  0.16857251  1
  Fe  Fe14  1  0.33393811  0.33348936  0.33512573  1
  Cr  Cr15  1  0.33210839  0.66707144  0.99873554  1
  Cr  Cr16  1  0.50340487  0.83600115  0.16902130  1
  Cr  Cr17  1  0.33338568  0.66873386  0.33510655  1
  Ni  Ni18  1  0.66500895  0.00349133  0.99766228  1
  Cr  Cr19  1  0.83414048  0.16694479  0.16679932  1
  Cr  Cr20  1  0.66727916  0.00308193  0.33721505  1
  Ni  Ni21  1  0.66403760  0.33258768  0.00126227  1
  Ni  Ni22  1  0.83275398  0.50144338  0.16921861  1
  Ni  Ni23  1  0.66714971  0.33472028  0.33298919  1
  Cr  Cr24  1  0.66763019  0.66553022  0.00177965  1
  Ni  Ni25  1  0.83237628  0.83264126  0.16635629  1
  Fe  Fe26  1  0.67010418  0.66594340  0.33469895  1
  Ni  Ni27  1  0.16912636  0.16725788  0.50154917  1
  Ni  Ni28  1  1.00048909  0.00105242  0.66663747  1
  Cr  Cr29  1  0.16912309  0.16582076  0.83397492  1
  Fe  Fe30  1  0.16521105  0.50020479  0.50266573  1
  Fe  Fe31  1  1.00004632  0.33416597  0.66405351  1
  Cr  Cr32  1  0.16874216  0.50102294  0.83049573  1
  Fe  Fe33  1  0.16647326  0.83380955  0.50405068  1
  Ni  Ni34  1  0.00119590  0.66989571  0.66680575  1
  Ni  Ni35  1  0.16644940  0.83650351  0.83317278  1
  Fe  Fe36  1  0.50166985  0.16813146  0.50263243  1
  Ni  Ni37  1  0.33435736  0.99980116  0.66573849  1
  Fe  Fe38  1  0.50176196  0.16654488  0.83320614  1
  Cr  Cr39  1  0.50260619  0.50191310  0.50115805  1
  Fe  Fe40  1  0.33581105  0.33357067  0.66601976  1
  Ni  Ni41  1  0.50176160  0.49880752  0.83255644  1
  Fe  Fe42  1  0.50085288  0.83526129  0.50292330  1
  Ni  Ni43  1  0.33456821  0.66922465  0.66844515  1
  Fe  Fe44  1  0.50022449  0.83431519  0.83240139  1
  Fe  Fe45  1  0.83460997  0.17024712  0.50245396  1
  Fe  Fe46  1  0.66797413  0.99858280  0.66770777  1
  Fe  Fe47  1  0.83188655  0.16681643  0.83268982  1
  Ni  Ni48  1  0.83318501  0.50199030  0.50097753  1
  Ni  Ni49  1  0.66763180  0.33219857  0.66789251  1
  Cr  Cr50  1  0.83244707  0.50404456  0.83248824  1
  Ni  Ni51  1  0.83301315  0.83258457  0.50270709  1
  Ni  Ni52  1  0.66637577  0.66649335  0.66650950  1
  Ni  Ni53  1  0.83350845  0.83508185  0.83327720  1
" 