7142,Ni42Fe5Cr52_12,-217.392090142055, 141.858451474335,Ni42Fe5Cr52,"# generated using pymatgen
 data_Cr15FeNi11
_symmetry_space_group_name_H-M   'P 1'
_cell_length_a   7.52598683
_cell_length_b   7.52598683
_cell_length_c   10.64335264
_cell_angle_alpha   90.00000000
_cell_angle_beta   90.00000000
_cell_angle_gamma   90.00000000
_symmetry_Int_Tables_number   1
_chemical_formula_structural   Cr15FeNi11
_chemical_formula_sum   'Cr30 Fe2 Ni22'
_cell_volume   602.84457803
_cell_formula_units_Z   2
loop_
 _symmetry_equiv_pos_site_id
 _symmetry_equiv_pos_as_xyz
  1  'x, y, z'
loop_
 _atom_site_type_symbol
 _atom_site_label
 _atom_site_symmetry_multiplicity
 _atom_site_fract_x
 _atom_site_fract_y
 _atom_site_fract_z
 _atom_site_occupancy
  Ni  Ni0  1  -0.00011640  0.99605307  0.99311594  1
  Cr  Cr1  1  0.16262257  0.16432231  0.15798351  1
  Cr  Cr2  1  -0.00200311  -0.00159867  0.33175229  1
  Ni  Ni3  1  -0.00044306  0.33186872  0.99414936  1
  Ni  Ni4  1  0.16025889  0.49563578  0.15765414  1
  Cr  Cr5  1  -0.00235489  0.33043234  0.33101543  1
  Ni  Ni6  1  -0.00152832  0.66026874  0.99461922  1
  Cr  Cr7  1  0.16339806  0.82671724  0.16085229  1
  Cr  Cr8  1  0.99549279  0.65934974  0.32616359  1
  Ni  Ni9  1  0.32648364  -0.00185627  0.99583153  1
  Ni  Ni10  1  0.49322386  0.16297093  0.15978719  1
  Cr  Cr11  1  0.32927181  -0.00145346  0.33250893  1
  Ni  Ni12  1  0.32524358  0.33104468  0.99461845  1
  Cr  Cr13  1  0.49285287  0.49406799  0.16002840  1
  Cr  Cr14  1  0.32791855  0.32859134  0.32947994  1
  Ni  Ni15  1  0.32616103  0.66036533  0.99459700  1
  Cr  Cr16  1  0.49351857  0.83025237  0.16122618  1
  Cr  Cr17  1  0.32948562  0.66031446  0.32990890  1
  Cr  Cr18  1  0.66357977  0.99512620  0.99495020  1
  Cr  Cr19  1  0.82884043  0.16524911  0.16161473  1
  Cr  Cr20  1  0.66146163  -0.00313891  0.33106503  1
  Cr  Cr21  1  0.66171032  0.33151859  0.99532278  1
  Ni  Ni22  1  0.83353121  0.49487810  0.15988949  1
  Cr  Cr23  1  0.66187651  0.33055553  0.33085438  1
  Cr  Cr24  1  0.66479820  0.66091776  0.99236999  1
  Cr  Cr25  1  0.83255063  0.82943221  0.15945904  1
  Cr  Cr26  1  0.66359023  0.66064624  0.32998277  1
  Ni  Ni27  1  0.16273655  0.16380652  0.50109397  1
  Cr  Cr28  1  -0.00134926  -0.00135782  0.66359727  1
  Fe  Fe29  1  0.16333749  0.16596191  0.83032114  1
  Cr  Cr30  1  0.16189665  0.49653235  0.49868281  1
  Ni  Ni31  1  -0.00324275  0.33228015  0.66296790  1
  Ni  Ni32  1  0.16115175  0.49727403  0.83039467  1
  Cr  Cr33  1  0.16466064  0.82774147  0.49817911  1
  Ni  Ni34  1  -0.00311296  0.65883824  0.66548346  1
  Cr  Cr35  1  0.16340469  0.82786330  0.82860830  1
  Ni  Ni36  1  0.49533408  0.16277335  0.49725963  1
  Ni  Ni37  1  0.32915072  0.99604324  0.66011017  1
  Cr  Cr38  1  0.49331326  0.16388499  0.83207414  1
  Ni  Ni39  1  0.49672551  0.49660082  0.49853509  1
  Cr  Cr40  1  0.32711214  0.32988803  0.66438073  1
  Ni  Ni41  1  0.49243409  0.49742006  0.83033985  1
  Ni  Ni42  1  0.49410509  0.82909691  0.49925843  1
  Ni  Ni43  1  0.32904528  0.66188139  0.66305388  1
  Cr  Cr44  1  0.49126330  0.82896677  0.82863381  1
  Ni  Ni45  1  0.83022228  0.16632498  0.49754107  1
  Cr  Cr46  1  0.66227364  0.99593028  0.66260559  1
  Cr  Cr47  1  0.83321315  0.16549355  0.82999644  1
  Ni  Ni48  1  0.82989673  0.49289367  0.49888563  1
  Cr  Cr49  1  0.66263679  0.33115487  0.66267439  1
  Ni  Ni50  1  0.83466131  0.49523977  0.82918400  1
  Cr  Cr51  1  0.83057943  0.82746028  0.49810590  1
  Cr  Cr52  1  0.66293559  0.66003150  0.66599409  1
  Fe  Fe53  1  0.83274129  0.82599539  0.82978930  1
" 