5104,Ni42Fe26Cr30_17,-228.720026485258, 187.285890209379,Ni42Fe26Cr30,"# generated using pymatgen
 data_Cr17Fe14Ni23
_symmetry_space_group_name_H-M   'P 1'
_cell_length_a   7.46350737
_cell_length_b   7.46350737
_cell_length_c   10.55499334
_cell_angle_alpha   90.00000000
_cell_angle_beta   90.00000000
_cell_angle_gamma   90.00000000
_symmetry_Int_Tables_number   1
_chemical_formula_structural   Cr17Fe14Ni23
_chemical_formula_sum   'Cr17 Fe14 Ni23'
_cell_volume   587.95473952
_cell_formula_units_Z   1
loop_
 _symmetry_equiv_pos_site_id
 _symmetry_equiv_pos_as_xyz
  1  'x, y, z'
loop_
 _atom_site_type_symbol
 _atom_site_label
 _atom_site_symmetry_multiplicity
 _atom_site_fract_x
 _atom_site_fract_y
 _atom_site_fract_z
 _atom_site_occupancy
  Cr  Cr0  1  0.00060428  0.99851441  0.00115614  1
  Cr  Cr1  1  0.16772751  0.16642570  0.16862749  1
  Fe  Fe2  1  0.99823175  0.99865445  0.33258269  1
  Fe  Fe3  1  0.00063020  0.33608496  1.00021937  1
  Fe  Fe4  1  0.16837294  0.50322427  0.16825449  1
  Fe  Fe5  1  0.99812751  0.33503007  0.33277098  1
  Ni  Ni6  1  0.00077657  0.66418239  0.00210369  1
  Fe  Fe7  1  0.16888341  0.83036579  0.16717946  1
  Fe  Fe8  1  0.99828657  0.66663873  0.33167849  1
  Ni  Ni9  1  0.33478934  0.99878774  0.00142186  1
  Fe  Fe10  1  0.50121167  0.16764015  0.16774595  1
  Fe  Fe11  1  0.33809461  0.99843822  0.33237449  1
  Cr  Cr12  1  0.33493864  0.33500114  0.99941063  1
  Ni  Ni13  1  0.50108443  0.50129935  0.16845340  1
  Ni  Ni14  1  0.33587669  0.33576360  0.33365518  1
  Ni  Ni15  1  0.33201202  0.66714624  0.00102242  1
  Ni  Ni16  1  0.49976827  0.82997116  0.16516001  1
  Ni  Ni17  1  0.33472615  0.66593245  0.33283183  1
  Cr  Cr18  1  0.66428771  0.00065520  0.00035853  1
  Fe  Fe19  1  0.83108044  0.16827345  0.16812781  1
  Cr  Cr20  1  0.66715173  0.99858107  0.33530056  1
  Ni  Ni21  1  0.66749926  0.33519618  0.00285762  1
  Fe  Fe22  1  0.83162644  0.50093466  0.16659259  1
  Ni  Ni23  1  0.66494569  0.33422455  0.33300570  1
  Fe  Fe24  1  0.66603638  0.66556198  0.00259725  1
  Ni  Ni25  1  0.83371020  0.83102744  0.16752028  1
  Ni  Ni26  1  0.66545599  0.66716776  0.33260989  1
  Cr  Cr27  1  0.16790236  0.16753556  0.49840772  1
  Cr  Cr28  1  0.99731477  0.99952992  0.66490916  1
  Ni  Ni29  1  0.17005274  0.16788273  0.83438210  1
  Cr  Cr30  1  0.16997992  0.50042550  0.50057224  1
  Cr  Cr31  1  0.00196381  0.33563674  0.66980059  1
  Fe  Fe32  1  0.16614064  0.50107424  0.83394435  1
  Cr  Cr33  1  0.16676824  0.83263373  0.49691377  1
  Ni  Ni34  1  0.99935613  0.66595597  0.66693324  1
  Cr  Cr35  1  0.16861531  0.83312171  0.83461094  1
  Ni  Ni36  1  0.50008418  0.16828934  0.49863027  1
  Cr  Cr37  1  0.33739312  0.00233822  0.66755900  1
  Ni  Ni38  1  0.49815896  0.16726745  0.83479654  1
  Ni  Ni39  1  0.50003322  0.50135540  0.49864405  1
  Ni  Ni40  1  0.33468833  0.33455781  0.66718101  1
  Cr  Cr41  1  0.50313188  0.50276732  0.83245425  1
  Ni  Ni42  1  0.50211183  0.83070913  0.50127635  1
  Fe  Fe43  1  0.33580680  0.66625831  0.66612192  1
  Fe  Fe44  1  0.50060214  0.83406659  0.83405573  1
  Ni  Ni45  1  0.83248007  0.16563839  0.49823302  1
  Ni  Ni46  1  0.66472955  0.99864186  0.66492823  1
  Cr  Cr47  1  0.83203386  0.16876881  0.83434741  1
  Cr  Cr48  1  0.83022436  0.50220484  0.49901849  1
  Cr  Cr49  1  0.66422030  0.33175882  0.66416908  1
  Ni  Ni50  1  0.83318164  0.50259212  0.83697577  1
  Ni  Ni51  1  0.83182976  0.83282325  0.50053110  1
  Ni  Ni52  1  0.66712736  0.66890079  0.66588874  1
  Cr  Cr53  1  0.83093948  0.82934950  0.83190332  1
" 