3069,Ni42Fe32Cr25_2,-230.005574573484, 195.426762358656,Ni42Fe32Cr25,"# generated using pymatgen
 data_Cr15Fe17Ni22
_symmetry_space_group_name_H-M   'P 1'
_cell_length_a   7.45774807
_cell_length_b   7.45774807
_cell_length_c   10.54684847
_cell_angle_alpha   90.00000000
_cell_angle_beta   90.00000000
_cell_angle_gamma   90.00000000
_symmetry_Int_Tables_number   1
_chemical_formula_structural   Cr15Fe17Ni22
_chemical_formula_sum   'Cr15 Fe17 Ni22'
_cell_volume   586.59468427
_cell_formula_units_Z   1
loop_
 _symmetry_equiv_pos_site_id
 _symmetry_equiv_pos_as_xyz
  1  'x, y, z'
loop_
 _atom_site_type_symbol
 _atom_site_label
 _atom_site_symmetry_multiplicity
 _atom_site_fract_x
 _atom_site_fract_y
 _atom_site_fract_z
 _atom_site_occupancy
  Ni  Ni0  1  0.00162316  0.99897125  0.99928203  1
  Ni  Ni1  1  0.16731534  0.16666461  0.16695526  1
  Ni  Ni2  1  0.00131301  0.00063978  0.33532475  1
  Cr  Cr3  1  0.00297051  0.33448726  0.00209880  1
  Fe  Fe4  1  0.16797536  0.49932300  0.16737073  1
  Fe  Fe5  1  0.00069667  0.33440047  0.33411061  1
  Cr  Cr6  1  0.99964996  0.66895675  0.00140379  1
  Cr  Cr7  1  0.16969163  0.83622477  0.16650056  1
  Cr  Cr8  1  0.99952075  0.66757370  0.33395045  1
  Fe  Fe9  1  0.33348443  1.00014974  0.00081931  1
  Fe  Fe10  1  0.49849964  0.16575303  0.16800511  1
  Fe  Fe11  1  0.33334724  0.99960846  0.33308718  1
  Ni  Ni12  1  0.33400494  0.33406948  0.00110229  1
  Cr  Cr13  1  0.50179958  0.50411855  0.16722935  1
  Cr  Cr14  1  0.33352681  0.33369814  0.33419027  1
  Ni  Ni15  1  0.33505371  0.66668039  0.99885332  1
  Ni  Ni16  1  0.50091934  0.83275846  0.16726299  1
  Ni  Ni17  1  0.33514505  0.66750955  0.33563488  1
  Cr  Cr18  1  0.66732059  0.99823026  1.00047631  1
  Cr  Cr19  1  0.83662490  0.16776539  0.16924367  1
  Fe  Fe20  1  0.66725670  0.99815372  0.33297593  1
  Cr  Cr21  1  0.66483126  0.33462742  0.99897030  1
  Ni  Ni22  1  0.83217808  0.50098844  0.16903929  1
  Ni  Ni23  1  0.66711536  0.33542577  0.33411872  1
  Ni  Ni24  1  0.66609540  0.66897059  0.00070058  1
  Fe  Fe25  1  0.83177524  0.83317559  0.16793180  1
  Ni  Ni26  1  0.66737179  0.66719089  0.33348234  1
  Ni  Ni27  1  0.16359624  0.16748190  0.49943946  1
  Ni  Ni28  1  0.99838422  0.99767644  0.66726343  1
  Cr  Cr29  1  0.16495338  0.16597009  0.83530948  1
  Ni  Ni30  1  0.16761698  0.50064195  0.50159711  1
  Ni  Ni31  1  0.99900488  0.33604094  0.66602938  1
  Fe  Fe32  1  0.16755456  0.50373107  0.83284493  1
  Fe  Fe33  1  0.16541400  0.83376308  0.50096792  1
  Ni  Ni34  1  1.00055005  0.66815769  0.66706928  1
  Ni  Ni35  1  0.16668937  0.83320232  0.83333043  1
  Cr  Cr36  1  0.50180936  0.16867742  0.49918804  1
  Cr  Cr37  1  0.33336975  0.99935017  0.66680458  1
  Fe  Fe38  1  0.50231863  0.16664743  0.83345100  1
  Ni  Ni39  1  0.50123471  0.50298147  0.50098786  1
  Cr  Cr40  1  0.33483029  0.33615327  0.66638470  1
  Fe  Fe41  1  0.50038971  0.50268163  0.83431052  1
  Cr  Cr42  1  0.50161483  0.83010485  0.49968997  1
  Fe  Fe43  1  0.33234520  0.66628963  0.66761647  1
  Fe  Fe44  1  0.50067440  0.83254241  0.83475717  1
  Cr  Cr45  1  0.83669223  0.16704588  0.50212659  1
  Ni  Ni46  1  0.67014539  1.00049749  0.66923302  1
  Fe  Fe47  1  0.83401205  0.16522303  0.83107682  1
  Fe  Fe48  1  0.83311236  0.50090797  0.50097472  1
  Ni  Ni49  1  0.66809987  0.33464616  0.66881831  1
  Fe  Fe50  1  0.83392551  0.50208650  0.83207260  1
  Ni  Ni51  1  0.83464115  0.83380135  0.50093223  1
  Fe  Fe52  1  0.66959988  0.66700072  0.66768756  1
  Ni  Ni53  1  0.83398254  0.83424969  0.83358381  1
" 