5253,Ni42Fe37Cr20_6,-231.693609129724, 198.571187260761,Ni42Fe37Cr20,"# generated using pymatgen
 data_Cr6Fe10Ni11
_symmetry_space_group_name_H-M   'P 1'
_cell_length_a   7.44080608
_cell_length_b   7.44080608
_cell_length_c   10.52288888
_cell_angle_alpha   90.00000000
_cell_angle_beta   90.00000000
_cell_angle_gamma   90.00000000
_symmetry_Int_Tables_number   1
_chemical_formula_structural   Cr6Fe10Ni11
_chemical_formula_sum   'Cr12 Fe20 Ni22'
_cell_volume   582.60600540
_cell_formula_units_Z   2
loop_
 _symmetry_equiv_pos_site_id
 _symmetry_equiv_pos_as_xyz
  1  'x, y, z'
loop_
 _atom_site_type_symbol
 _atom_site_label
 _atom_site_symmetry_multiplicity
 _atom_site_fract_x
 _atom_site_fract_y
 _atom_site_fract_z
 _atom_site_occupancy
  Ni  Ni0  1  1.00056709  0.00187109  0.00303643  1
  Fe  Fe1  1  0.16855729  0.16976518  0.16535266  1
  Cr  Cr2  1  1.00053303  0.00224517  0.33207714  1
  Ni  Ni3  1  0.00212228  0.33462615  1.00164992  1
  Ni  Ni4  1  0.16687260  0.50271680  0.16795317  1
  Fe  Fe5  1  1.00108823  0.33609185  0.33284720  1
  Fe  Fe6  1  0.00374079  0.66765670  1.00140503  1
  Fe  Fe7  1  0.16747747  0.83386032  0.16591853  1
  Fe  Fe8  1  1.00102294  0.66730431  0.33452314  1
  Ni  Ni9  1  0.33318327  0.00308343  1.00090139  1
  Ni  Ni10  1  0.50378673  0.16758869  0.16658173  1
  Cr  Cr11  1  0.33481854  0.00449223  0.33594413  1
  Ni  Ni12  1  0.33365681  0.33511075  0.00301199  1
  Fe  Fe13  1  0.50283899  0.50065335  0.16718469  1
  Cr  Cr14  1  0.33319280  0.33497049  0.33391967  1
  Ni  Ni15  1  0.33451862  0.66749374  0.00294316  1
  Cr  Cr16  1  0.50084503  0.83611654  0.16775405  1
  Fe  Fe17  1  0.33461541  0.66948921  0.33364646  1
  Fe  Fe18  1  0.66886948  0.00339477  1.00097419  1
  Fe  Fe19  1  0.83407685  0.16979893  0.16645087  1
  Ni  Ni20  1  0.66943069  0.99983783  0.33507798  1
  Fe  Fe21  1  0.66964935  0.33302344  0.00219229  1
  Ni  Ni22  1  0.83618728  0.50120234  0.16718239  1
  Fe  Fe23  1  0.66965698  0.33320681  0.33228808  1
  Fe  Fe24  1  0.67087293  0.66874739  0.00283877  1
  Fe  Fe25  1  0.83518832  0.83340050  0.16805012  1
  Ni  Ni26  1  0.67097172  0.66860373  0.33432546  1
  Ni  Ni27  1  0.16608160  0.16937021  0.50339816  1
  Ni  Ni28  1  1.00124726  1.00098954  0.66927718  1
  Ni  Ni29  1  0.16625141  0.16747476  0.83648514  1
  Ni  Ni30  1  0.16573122  0.50051574  0.50117542  1
  Fe  Fe31  1  0.00182484  0.33388444  0.67148941  1
  Ni  Ni32  1  0.16675045  0.50164342  0.83590945  1
  Cr  Cr33  1  0.16756953  0.83509251  0.50231270  1
  Ni  Ni34  1  1.00080691  0.66897495  0.66983801  1
  Fe  Fe35  1  0.16751885  0.83673805  0.83609065  1
  Fe  Fe36  1  0.50269424  0.16657166  0.50222002  1
  Ni  Ni37  1  0.33533289  0.00383038  0.66890408  1
  Fe  Fe38  1  0.50128548  0.16715898  0.83654274  1
  Cr  Cr39  1  0.50289320  0.50329571  0.49835392  1
  Cr  Cr40  1  0.33461037  0.33317751  0.66857235  1
  Cr  Cr41  1  0.50125204  0.50203453  0.83952373  1
  Ni  Ni42  1  0.50391381  0.83761589  0.50168525  1
  Cr  Cr43  1  0.33401155  0.66861362  0.66801996  1
  Fe  Fe44  1  0.50001389  0.83907208  0.83623069  1
  Cr  Cr45  1  0.83588949  0.16793730  0.50217274  1
  Ni  Ni46  1  0.66872272  0.00235522  0.66863405  1
  Ni  Ni47  1  0.83565907  0.16699968  0.83568353  1
  Cr  Cr48  1  0.83758826  0.50066046  0.50343200  1
  Ni  Ni49  1  0.66893530  0.33306877  0.67002618  1
  Fe  Fe50  1  0.83796143  0.49884201  0.83628850  1
  Ni  Ni51  1  0.83348054  0.83587324  0.50143640  1
  Cr  Cr52  1  0.67099284  0.66977398  0.67012969  1
  Fe  Fe53  1  0.83786028  0.83730465  0.83535847  1
" 