8220,Ni42Fe42Cr14_14,-234.120367037265, 203.47945623635,Ni42Fe42Cr14,"# generated using pymatgen
 data_Cr9Fe23Ni22
_symmetry_space_group_name_H-M   'P 1'
_cell_length_a   7.43629362
_cell_length_b   7.43629362
_cell_length_c   10.51650729
_cell_angle_alpha   90.00000000
_cell_angle_beta   90.00000000
_cell_angle_gamma   90.00000000
_symmetry_Int_Tables_number   1
_chemical_formula_structural   Cr9Fe23Ni22
_chemical_formula_sum   'Cr9 Fe23 Ni22'
_cell_volume   581.54668710
_cell_formula_units_Z   1
loop_
 _symmetry_equiv_pos_site_id
 _symmetry_equiv_pos_as_xyz
  1  'x, y, z'
loop_
 _atom_site_type_symbol
 _atom_site_label
 _atom_site_symmetry_multiplicity
 _atom_site_fract_x
 _atom_site_fract_y
 _atom_site_fract_z
 _atom_site_occupancy
  Fe  Fe0  1  0.00280468  0.99996674  0.00210459  1
  Fe  Fe1  1  0.16874460  0.16625101  0.16873218  1
  Ni  Ni2  1  0.00389322  1.00196349  0.33432309  1
  Fe  Fe3  1  1.00174493  0.33535073  0.00252598  1
  Ni  Ni4  1  0.16997477  0.50077318  0.16871432  1
  Ni  Ni5  1  0.00236063  0.33503427  0.33463123  1
  Ni  Ni6  1  0.00336182  0.66543879  1.00045019  1
  Ni  Ni7  1  0.17069756  0.83285168  0.16630598  1
  Cr  Cr8  1  0.00304478  0.66724165  0.33793267  1
  Ni  Ni9  1  0.33704820  1.00120940  0.00291365  1
  Ni  Ni10  1  0.50085936  0.16967018  0.16973606  1
  Fe  Fe11  1  0.33281531  1.00139782  0.33385213  1
  Fe  Fe12  1  0.33643011  0.33623790  0.00228298  1
  Fe  Fe13  1  0.50107322  0.50399615  0.16817845  1
  Fe  Fe14  1  0.33086638  0.33514721  0.33404451  1
  Fe  Fe15  1  0.33499762  0.67025501  1.00135576  1
  Ni  Ni16  1  0.50025413  0.83468899  0.17203855  1
  Fe  Fe17  1  0.33389098  0.66937803  0.33495444  1
  Cr  Cr18  1  0.66554112  0.00390136  1.00143139  1
  Ni  Ni19  1  0.83645796  0.17032832  0.16883689  1
  Fe  Fe20  1  0.67072949  1.00099689  0.33401960  1
  Fe  Fe21  1  0.66877315  0.33606742  0.00222263  1
  Fe  Fe22  1  0.83682398  0.50188037  0.16719380  1
  Cr  Cr23  1  0.66986527  0.33618985  0.33318485  1
  Fe  Fe24  1  0.66731485  0.66940015  1.00086296  1
  Cr  Cr25  1  0.83654129  0.83572758  0.16795409  1
  Fe  Fe26  1  0.66951599  0.67087201  0.33619997  1
  Ni  Ni27  1  0.16788125  0.16863108  0.49995110  1
  Fe  Fe28  1  0.00582566  0.99999834  0.66866628  1
  Cr  Cr29  1  0.16779474  0.16742372  0.83761930  1
  Fe  Fe30  1  0.16536066  0.50104822  0.50346794  1
  Ni  Ni31  1  0.99956479  0.33838061  0.66780959  1
  Ni  Ni32  1  0.16876698  0.50431316  0.83458110  1
  Fe  Fe33  1  0.16861765  0.83749174  0.50350779  1
  Ni  Ni34  1  1.00156906  0.66852818  0.66812258  1
  Ni  Ni35  1  0.16892497  0.83235771  0.83626743  1
  Cr  Cr36  1  0.50038969  0.16679292  0.50300739  1
  Ni  Ni37  1  0.33816846  0.99951606  0.66921943  1
  Ni  Ni38  1  0.50384335  0.16959399  0.83420102  1
  Cr  Cr39  1  0.49946722  0.50474928  0.50223148  1
  Cr  Cr40  1  0.33315341  0.33446028  0.66972470  1
  Fe  Fe41  1  0.50211428  0.50397436  0.83538895  1
  Fe  Fe42  1  0.50264100  0.83591734  0.50236887  1
  Ni  Ni43  1  0.33336619  0.67221495  0.66950087  1
  Ni  Ni44  1  0.50138335  0.83456478  0.83368280  1
  Cr  Cr45  1  0.83830244  0.16692931  0.50430818  1
  Fe  Fe46  1  0.67012895  0.99915154  0.67176910  1
  Ni  Ni47  1  0.83466294  0.16943880  0.83318728  1
  Ni  Ni48  1  0.83544041  0.50394210  0.50344394  1
  Fe  Fe49  1  0.66951836  0.33792140  0.67072021  1
  Fe  Fe50  1  0.83676099  0.50292933  0.83465281  1
  Ni  Ni51  1  0.83529072  0.83435593  0.50300768  1
  Fe  Fe52  1  0.66931400  0.67016812  0.66935630  1
  Ni  Ni53  1  0.83698593  0.83465344  0.83491582  1
" 