6258,Ni42Fe22Cr34_3,-226.496023597134, 183.580285625906,Ni42Fe22Cr34,"# generated using pymatgen
 data_Cr10Fe6Ni11
_symmetry_space_group_name_H-M   'P 1'
_cell_length_a   7.47525572
_cell_length_b   7.47525572
_cell_length_c   10.57160802
_cell_angle_alpha   90.00000000
_cell_angle_beta   90.00000000
_cell_angle_gamma   90.00000000
_symmetry_Int_Tables_number   1
_chemical_formula_structural   Cr10Fe6Ni11
_chemical_formula_sum   'Cr20 Fe12 Ni22'
_cell_volume   590.73562102
_cell_formula_units_Z   2
loop_
 _symmetry_equiv_pos_site_id
 _symmetry_equiv_pos_as_xyz
  1  'x, y, z'
loop_
 _atom_site_type_symbol
 _atom_site_label
 _atom_site_symmetry_multiplicity
 _atom_site_fract_x
 _atom_site_fract_y
 _atom_site_fract_z
 _atom_site_occupancy
  Ni  Ni0  1  0.00404052  0.99866999  0.99833344  1
  Ni  Ni1  1  0.16824645  0.16608420  0.16442064  1
  Cr  Cr2  1  0.00150001  0.99792119  0.33278127  1
  Cr  Cr3  1  0.00009572  0.32990106  -0.00025415  1
  Ni  Ni4  1  0.16690838  0.50023824  0.16984025  1
  Fe  Fe5  1  0.00412057  0.33206589  0.33358285  1
  Cr  Cr6  1  0.00121980  0.66927485  0.00052282  1
  Ni  Ni7  1  0.16874279  0.83184950  0.16449127  1
  Ni  Ni8  1  0.00265396  0.66727455  0.33447720  1
  Ni  Ni9  1  0.32947804  0.99760796  0.00118142  1
  Ni  Ni10  1  0.49772011  0.16455149  0.16647182  1
  Cr  Cr11  1  0.33153928  0.00095019  0.33151776  1
  Cr  Cr12  1  0.33391718  0.33119081  0.00109576  1
  Cr  Cr13  1  0.49846697  0.50097289  0.16536792  1
  Fe  Fe14  1  0.32974489  0.33336005  0.33404451  1
  Fe  Fe15  1  0.33190907  0.66799089  0.00094305  1
  Ni  Ni16  1  0.49638271  0.83339021  0.16582793  1
  Ni  Ni17  1  0.33034294  0.66556702  0.33331386  1
  Cr  Cr18  1  0.66582442  0.00108045  0.00150862  1
  Cr  Cr19  1  0.83334554  0.16683295  0.16575419  1
  Fe  Fe20  1  0.66554247  0.99814415  0.33358150  1
  Ni  Ni21  1  0.66406894  0.33427335  0.99725438  1
  Cr  Cr22  1  0.83504986  0.49967522  0.16700830  1
  Cr  Cr23  1  0.66250855  0.33093000  0.33449476  1
  Fe  Fe24  1  0.66363869  0.66651689  0.99884538  1
  Cr  Cr25  1  0.83187058  0.83176262  0.16778276  1
  Fe  Fe26  1  0.66452812  0.66823639  0.33447653  1
  Ni  Ni27  1  0.16553348  0.16675629  0.50097506  1
  Ni  Ni28  1  0.00126647  0.99856229  0.66626816  1
  Fe  Fe29  1  0.16467279  0.16177429  0.83204595  1
  Ni  Ni30  1  0.16714738  0.50009085  0.49785724  1
  Fe  Fe31  1  0.99937256  0.32917301  0.66495817  1
  Cr  Cr32  1  0.16760840  0.50097625  0.83046130  1
  Ni  Ni33  1  0.16521961  0.83149088  0.50178953  1
  Fe  Fe34  1  0.00211100  0.66793239  0.66416051  1
  Ni  Ni35  1  0.16784157  0.83379690  0.83197358  1
  Ni  Ni36  1  0.49989815  0.16624131  0.50006008  1
  Ni  Ni37  1  0.32770604  -0.00054883  0.66520169  1
  Cr  Cr38  1  0.49936505  0.16487513  0.83173672  1
  Ni  Ni39  1  0.49718808  0.49886615  0.49995049  1
  Cr  Cr40  1  0.33505006  0.33260672  0.66282664  1
  Fe  Fe41  1  0.49955129  0.49961950  0.83259788  1
  Cr  Cr42  1  0.49783706  0.83500587  0.49956257  1
  Fe  Fe43  1  0.33057461  0.66742856  0.66373014  1
  Cr  Cr44  1  0.49424622  0.83339893  0.83302698  1
  Ni  Ni45  1  0.83249047  0.16487481  0.50221210  1
  Fe  Fe46  1  0.66700517  0.00232816  0.66450815  1
  Ni  Ni47  1  0.83350432  0.16660665  0.83108282  1
  Cr  Cr48  1  0.83638375  0.49890426  0.49807955  1
  Ni  Ni49  1  0.66642029  0.33240632  0.66636197  1
  Cr  Cr50  1  0.83312941  0.49635018  0.83359915  1
  Ni  Ni51  1  0.83455110  0.83499105  0.49973813  1
  Cr  Cr52  1  0.66630580  0.66367942  0.66528093  1
  Cr  Cr53  1  0.83496628  0.83585266  0.83164145  1
" 