3163,Ni42Fe37Cr20_16,-231.94735891182, 200.763588738801,Ni42Fe37Cr20,"# generated using pymatgen
 data_Cr6Fe10Ni11
_symmetry_space_group_name_H-M   'P 1'
_cell_length_a   7.44087761
_cell_length_b   7.44087761
_cell_length_c   10.52299003
_cell_angle_alpha   90.00000000
_cell_angle_beta   90.00000000
_cell_angle_gamma   90.00000000
_symmetry_Int_Tables_number   1
_chemical_formula_structural   Cr6Fe10Ni11
_chemical_formula_sum   'Cr12 Fe20 Ni22'
_cell_volume   582.62280750
_cell_formula_units_Z   2
loop_
 _symmetry_equiv_pos_site_id
 _symmetry_equiv_pos_as_xyz
  1  'x, y, z'
loop_
 _atom_site_type_symbol
 _atom_site_label
 _atom_site_symmetry_multiplicity
 _atom_site_fract_x
 _atom_site_fract_y
 _atom_site_fract_z
 _atom_site_occupancy
  Fe  Fe0  1  1.00042171  1.00025488  1.00036319  1
  Fe  Fe1  1  0.17000302  0.16875310  0.16977115  1
  Fe  Fe2  1  0.00224493  0.00211120  0.33606430  1
  Cr  Cr3  1  0.00231227  0.33682277  1.00044405  1
  Ni  Ni4  1  0.16830370  0.50184198  0.17035625  1
  Fe  Fe5  1  0.00408887  0.33694173  0.33610825  1
  Ni  Ni6  1  0.99929037  0.66834561  0.00185354  1
  Cr  Cr7  1  0.16796190  0.83419240  0.16779502  1
  Fe  Fe8  1  1.00131812  0.66621921  0.33453908  1
  Ni  Ni9  1  0.33571724  0.00409949  0.00197209  1
  Ni  Ni10  1  0.50055212  0.16771215  0.16807586  1
  Fe  Fe11  1  0.33621413  0.00332037  0.33596339  1
  Cr  Cr12  1  0.33552985  0.33435193  0.00217207  1
  Fe  Fe13  1  0.50216329  0.50217635  0.16899321  1
  Ni  Ni14  1  0.33231714  0.33545896  0.33487284  1
  Fe  Fe15  1  0.33483187  0.66746793  0.00210690  1
  Cr  Cr16  1  0.50341788  0.83602685  0.16859813  1
  Ni  Ni17  1  0.33411133  0.66626243  0.33627519  1
  Ni  Ni18  1  0.66873639  1.00093217  1.00090009  1
  Cr  Cr19  1  0.83368645  0.16744636  0.16888646  1
  Ni  Ni20  1  0.66833298  1.00039311  0.33585107  1
  Fe  Fe21  1  0.66820513  0.33573959  1.00076313  1
  Ni  Ni22  1  0.83561226  0.50461293  0.16868104  1
  Cr  Cr23  1  0.66751312  0.33566194  0.33437336  1
  Ni  Ni24  1  0.67167796  0.66875049  1.00174101  1
  Ni  Ni25  1  0.83394481  0.83324637  0.16759755  1
  Ni  Ni26  1  0.66895231  0.66941434  0.33531379  1
  Ni  Ni27  1  0.17093907  0.16934686  0.49950558  1
  Cr  Cr28  1  1.00111793  0.00264858  0.67037337  1
  Ni  Ni29  1  0.16972879  0.16904663  0.83571879  1
  Ni  Ni30  1  0.16988654  0.50066407  0.50034479  1
  Cr  Cr31  1  0.00185094  0.33575409  0.66858635  1
  Ni  Ni32  1  0.16931344  0.50109093  0.83457430  1
  Fe  Fe33  1  0.17085885  0.83438034  0.50028569  1
  Cr  Cr34  1  0.00210960  0.66687265  0.66916301  1
  Cr  Cr35  1  0.16878554  0.83492863  0.83670521  1
  Fe  Fe36  1  0.50131390  0.16850115  0.50195310  1
  Fe  Fe37  1  0.33650492  0.00400435  0.66759302  1
  Fe  Fe38  1  0.50320951  0.16885815  0.83492756  1
  Fe  Fe39  1  0.50072607  0.50219728  0.50198845  1
  Fe  Fe40  1  0.33599098  0.33457970  0.66811755  1
  Fe  Fe41  1  0.50313639  0.50083798  0.83429391  1
  Fe  Fe42  1  0.50037656  0.83457712  0.50133323  1
  Fe  Fe43  1  0.33652422  0.66669286  0.66657028  1
  Cr  Cr44  1  0.50333755  0.83561188  0.83508547  1
  Fe  Fe45  1  0.83472823  0.16973917  0.50177064  1
  Ni  Ni46  1  0.66663695  0.00369231  0.66852135  1
  Ni  Ni47  1  0.83269631  0.16820233  0.83469947  1
  Ni  Ni48  1  0.83466944  0.50130129  0.50099834  1
  Ni  Ni49  1  0.66670700  0.33434504  0.66942561  1
  Ni  Ni50  1  0.83331724  0.50173335  0.83559640  1
  Cr  Cr51  1  0.83216680  0.83456639  0.50006645  1
  Fe  Fe52  1  0.66817059  0.66689123  0.66862431  1
  Ni  Ni53  1  0.83269610  0.83533956  0.83770634  1
" 