860,Ni42Fe22Cr34_6,-225.719698819346, 172.567223507362,Ni42Fe22Cr34,"# generated using pymatgen
 data_Cr10Fe6Ni11
_symmetry_space_group_name_H-M   'P 1'
_cell_length_a   7.48160524
_cell_length_b   7.48160524
_cell_length_c   10.58058760
_cell_angle_alpha   90.00000000
_cell_angle_beta   90.00000000
_cell_angle_gamma   90.00000000
_symmetry_Int_Tables_number   1
_chemical_formula_structural   Cr10Fe6Ni11
_chemical_formula_sum   'Cr20 Fe12 Ni22'
_cell_volume   592.24222215
_cell_formula_units_Z   2
loop_
 _symmetry_equiv_pos_site_id
 _symmetry_equiv_pos_as_xyz
  1  'x, y, z'
loop_
 _atom_site_type_symbol
 _atom_site_label
 _atom_site_symmetry_multiplicity
 _atom_site_fract_x
 _atom_site_fract_y
 _atom_site_fract_z
 _atom_site_occupancy
  Ni  Ni0  1  0.99777224  0.00171077  0.00101761  1
  Ni  Ni1  1  0.16652124  0.16249491  0.16593923  1
  Ni  Ni2  1  0.00044410  0.00006054  0.33005312  1
  Ni  Ni3  1  0.99704536  0.32832282  0.99899646  1
  Cr  Cr4  1  0.16751553  0.49606046  0.16524718  1
  Cr  Cr5  1  0.99785280  0.33077071  0.33256428  1
  Cr  Cr6  1  0.99497953  0.66643286  0.99825321  1
  Fe  Fe7  1  0.16371674  0.83673051  0.16589812  1
  Cr  Cr8  1  0.99583795  0.66561719  0.33170472  1
  Ni  Ni9  1  0.33386866  0.00050726  -0.00012672  1
  Fe  Fe10  1  0.49892863  0.16305733  0.16676458  1
  Ni  Ni11  1  0.33322010  0.00080346  0.33194321  1
  Cr  Cr12  1  0.33231745  0.32704055  0.00034388  1
  Fe  Fe13  1  0.50133820  0.49994239  0.16702378  1
  Ni  Ni14  1  0.33369034  0.33090733  0.33320337  1
  Cr  Cr15  1  0.33512010  0.66911474  -0.00025485  1
  Fe  Fe16  1  0.50005705  0.83469835  0.16589547  1
  Fe  Fe17  1  0.33489547  0.66553985  0.33305268  1
  Ni  Ni18  1  0.66560955  0.99780334  0.99845976  1
  Ni  Ni19  1  0.83445974  0.16237182  0.16437660  1
  Cr  Cr20  1  0.66604901  0.00012947  0.33241153  1
  Cr  Cr21  1  0.66830467  0.32986854  0.00060726  1
  Ni  Ni22  1  0.82982796  0.50015841  0.16309517  1
  Cr  Cr23  1  0.66541626  0.33297964  0.33223360  1
  Ni  Ni24  1  0.66660535  0.66846298  0.00077479  1
  Ni  Ni25  1  0.82978399  0.83483841  0.16450149  1
  Fe  Fe26  1  0.66380140  0.66550735  0.33127940  1
  Fe  Fe27  1  0.16722229  0.16696612  0.49667915  1
  Cr  Cr28  1  0.99746061  0.00217833  0.66435713  1
  Ni  Ni29  1  0.16235029  0.16546323  0.83439902  1
  Ni  Ni30  1  0.16695276  0.49572795  0.49870680  1
  Ni  Ni31  1  0.99686036  0.33109289  0.66472828  1
  Cr  Cr32  1  0.16496631  0.49457533  0.83256139  1
  Cr  Cr33  1  0.16683950  0.83393527  0.49556536  1
  Cr  Cr34  1  0.99789876  0.66324623  0.66696380  1
  Cr  Cr35  1  0.16428685  0.83620738  0.83487401  1
  Ni  Ni36  1  0.49936765  0.16553790  0.49956925  1
  Cr  Cr37  1  0.33618173  0.00038160  0.66679616  1
  Fe  Fe38  1  0.50128517  0.16230466  0.83295183  1
  Ni  Ni39  1  0.49897150  0.49791467  0.49593286  1
  Cr  Cr40  1  0.33200151  0.33019698  0.66425805  1
  Cr  Cr41  1  0.50194829  0.49810848  0.83312062  1
  Ni  Ni42  1  0.49966227  0.83377195  0.49809830  1
  Cr  Cr43  1  0.33352045  0.66647080  0.66355336  1
  Fe  Fe44  1  0.50269028  0.83671722  0.83394043  1
  Fe  Fe45  1  0.83037204  0.16779577  0.50004275  1
  Ni  Ni46  1  0.66476206  0.00126209  0.66626046  1
  Ni  Ni47  1  0.83230619  0.16350185  0.83196344  1
  Ni  Ni48  1  0.83096371  0.49654422  0.50147529  1
  Fe  Fe49  1  0.66755310  0.32955744  0.66400849  1
  Fe  Fe50  1  0.83227814  0.49593117  0.83294562  1
  Cr  Cr51  1  0.83034335  0.83551428  0.49793400  1
  Cr  Cr52  1  0.66582388  0.66778858  0.66561993  1
  Ni  Ni53  1  0.82761520  0.83683929  0.83489895  1
" 