2426,Ni42Fe5Cr52_14,-217.170958918596, 141.202391931088,Ni42Fe5Cr52,"# generated using pymatgen
 data_Cr15FeNi11
_symmetry_space_group_name_H-M   'P 1'
_cell_length_a   7.52595170
_cell_length_b   7.52595170
_cell_length_c   10.64330297
_cell_angle_alpha   90.00000000
_cell_angle_beta   90.00000000
_cell_angle_gamma   90.00000000
_symmetry_Int_Tables_number   1
_chemical_formula_structural   Cr15FeNi11
_chemical_formula_sum   'Cr30 Fe2 Ni22'
_cell_volume   602.83613802
_cell_formula_units_Z   2
loop_
 _symmetry_equiv_pos_site_id
 _symmetry_equiv_pos_as_xyz
  1  'x, y, z'
loop_
 _atom_site_type_symbol
 _atom_site_label
 _atom_site_symmetry_multiplicity
 _atom_site_fract_x
 _atom_site_fract_y
 _atom_site_fract_z
 _atom_site_occupancy
  Ni  Ni0  1  0.99526317  -0.00024071  -0.00224747  1
  Ni  Ni1  1  0.15960581  0.16449557  0.16400269  1
  Cr  Cr2  1  -0.00230557  -0.00239852  0.33407744  1
  Fe  Fe3  1  0.99563439  0.32555335  -0.00102383  1
  Cr  Cr4  1  0.16206100  0.49473028  0.16453268  1
  Ni  Ni5  1  -0.00339915  0.32479380  0.32705371  1
  Cr  Cr6  1  0.99561395  0.66038457  -0.00281818  1
  Cr  Cr7  1  0.16387342  0.83047782  0.16142210  1
  Cr  Cr8  1  0.99432344  0.66240259  0.33310606  1
  Cr  Cr9  1  0.33136220  -0.00315367  -0.00157144  1
  Fe  Fe10  1  0.49791032  0.16190127  0.16483132  1
  Cr  Cr11  1  0.33077641  -0.00124453  0.32871511  1
  Cr  Cr12  1  0.32879105  0.32769816  -0.00158277  1
  Cr  Cr13  1  0.49482833  0.49807849  0.16626635  1
  Ni  Ni14  1  0.32714189  0.32749133  0.33013919  1
  Ni  Ni15  1  0.33166297  0.66394769  0.99557985  1
  Ni  Ni16  1  0.49825223  0.83308526  0.16130955  1
  Cr  Cr17  1  0.33035201  0.66677493  0.33173199  1
  Ni  Ni18  1  0.66354547  -0.00272673  -0.00111669  1
  Ni  Ni19  1  0.83075350  0.16180812  0.16235356  1
  Ni  Ni20  1  0.66341362  -0.00267654  0.32852957  1
  Cr  Cr21  1  0.66293745  0.32709342  -0.00356753  1
  Ni  Ni22  1  0.82991428  0.49026292  0.16339904  1
  Cr  Cr23  1  0.66330692  0.32702596  0.32991612  1
  Cr  Cr24  1  0.66047192  0.66281647  0.99585692  1
  Cr  Cr25  1  0.82760343  0.83155873  0.16374268  1
  Cr  Cr26  1  0.66217089  0.66579505  0.33192388  1
  Ni  Ni27  1  0.16239078  0.16203208  0.49695958  1
  Ni  Ni28  1  -0.00163488  -0.00254968  0.65810706  1
  Cr  Cr29  1  0.16248134  0.16075725  0.82712471  1
  Cr  Cr30  1  0.16631716  0.49377955  0.49429690  1
  Cr  Cr31  1  0.99520171  0.32674244  0.66176795  1
  Cr  Cr32  1  0.16510104  0.49595166  0.82966173  1
  Ni  Ni33  1  0.16501326  0.83311519  0.49991166  1
  Cr  Cr34  1  -0.00334110  0.66638957  0.65921467  1
  Cr  Cr35  1  0.16368531  0.83008074  0.82891798  1
  Cr  Cr36  1  0.49546771  0.16433553  0.49609923  1
  Ni  Ni37  1  0.32773997  0.99476119  0.66092062  1
  Cr  Cr38  1  0.49654284  0.16041983  0.82590850  1
  Ni  Ni39  1  0.49343277  0.49689739  0.49835936  1
  Ni  Ni40  1  0.32975256  0.32869522  0.65928665  1
  Cr  Cr41  1  0.49343676  0.49513300  0.82359268  1
  Ni  Ni42  1  0.49573627  0.83056216  0.49680519  1
  Ni  Ni43  1  0.33160304  0.66568859  0.66093542  1
  Ni  Ni44  1  0.49413075  0.82966963  0.83021086  1
  Ni  Ni45  1  0.83106564  0.16027627  0.49585291  1
  Cr  Cr46  1  0.66284632  0.99526699  0.66071220  1
  Cr  Cr47  1  0.82934513  0.16044932  0.82876951  1
  Cr  Cr48  1  0.82715620  0.49260528  0.49475745  1
  Ni  Ni49  1  0.66052135  0.32815896  0.65966133  1
  Cr  Cr50  1  0.82880195  0.49297880  0.82940436  1
  Ni  Ni51  1  0.82855332  0.83498896  0.49560108  1
  Cr  Cr52  1  0.66231042  0.66240857  0.66061796  1
  Cr  Cr53  1  0.82915354  0.83334691  0.83065706  1
" 