3463,Ni42Fe32Cr25_8,-229.942463583211, 194.449681720605,Ni42Fe32Cr25,"# generated using pymatgen
 data_Cr15Fe17Ni22
_symmetry_space_group_name_H-M   'P 1'
_cell_length_a   7.45684094
_cell_length_b   7.45684094
_cell_length_c   10.54556559
_cell_angle_alpha   90.00000000
_cell_angle_beta   90.00000000
_cell_angle_gamma   90.00000000
_symmetry_Int_Tables_number   1
_chemical_formula_structural   Cr15Fe17Ni22
_chemical_formula_sum   'Cr15 Fe17 Ni22'
_cell_volume   586.38065753
_cell_formula_units_Z   1
loop_
 _symmetry_equiv_pos_site_id
 _symmetry_equiv_pos_as_xyz
  1  'x, y, z'
loop_
 _atom_site_type_symbol
 _atom_site_label
 _atom_site_symmetry_multiplicity
 _atom_site_fract_x
 _atom_site_fract_y
 _atom_site_fract_z
 _atom_site_occupancy
  Cr  Cr0  1  0.00109046  0.00262065  0.00136263  1
  Fe  Fe1  1  0.16505036  0.16707432  0.16886896  1
  Ni  Ni2  1  0.00380861  1.00038125  0.33340679  1
  Ni  Ni3  1  0.99980640  0.33177355  0.99912735  1
  Cr  Cr4  1  0.16756987  0.49988720  0.16861679  1
  Ni  Ni5  1  0.00155087  0.33163164  0.33371163  1
  Cr  Cr6  1  0.99992795  0.66829075  0.99766606  1
  Ni  Ni7  1  0.16924796  0.83466704  0.16984644  1
  Ni  Ni8  1  0.00142620  0.67003840  0.33648274  1
  Cr  Cr9  1  0.33190352  0.00198420  1.00025787  1
  Cr  Cr10  1  0.50188947  0.16790833  0.16708534  1
  Ni  Ni11  1  0.33097192  0.99851253  0.33454647  1
  Ni  Ni12  1  0.33531140  0.33411512  0.99962516  1
  Fe  Fe13  1  0.50208756  0.50091520  0.16828487  1
  Fe  Fe14  1  0.33298379  0.33459975  0.33486958  1
  Cr  Cr15  1  0.33556920  0.66643023  0.00186169  1
  Fe  Fe16  1  0.50060914  0.83300566  0.16929802  1
  Fe  Fe17  1  0.33423895  0.66859348  0.33496711  1
  Fe  Fe18  1  0.66856004  0.00303811  0.99947507  1
  Ni  Ni19  1  0.83368926  0.16882564  0.16783868  1
  Fe  Fe20  1  0.66867148  0.99911545  0.33468657  1
  Ni  Ni21  1  0.66693479  0.33472745  0.99843472  1
  Cr  Cr22  1  0.83322301  0.49791320  0.16775516  1
  Ni  Ni23  1  0.66666571  0.33649153  0.33385723  1
  Fe  Fe24  1  0.66656790  0.66548224  1.00041011  1
  Cr  Cr25  1  0.83346223  0.83512667  0.16822939  1
  Ni  Ni26  1  0.66479808  0.66717607  0.33413401  1
  Ni  Ni27  1  0.16764990  0.16697929  0.49821142  1
  Cr  Cr28  1  0.00150841  1.00000434  0.66751346  1
  Ni  Ni29  1  0.16654641  0.16934375  0.83560512  1
  Fe  Fe30  1  0.16765155  0.50165457  0.49973779  1
  Ni  Ni31  1  0.00117608  0.33445855  0.66921532  1
  Fe  Fe32  1  0.16605932  0.49897221  0.83393516  1
  Ni  Ni33  1  0.16877215  0.83294603  0.50029980  1
  Fe  Fe34  1  0.00201651  0.66692942  0.66754376  1
  Ni  Ni35  1  0.16753249  0.83282996  0.83190921  1
  Cr  Cr36  1  0.50096281  0.16634678  0.50229711  1
  Fe  Fe37  1  0.33387217  0.99992411  0.66681108  1
  Fe  Fe38  1  0.50201060  0.16854343  0.83409425  1
  Ni  Ni39  1  0.49978831  0.50251228  0.49851450  1
  Cr  Cr40  1  0.33394275  0.33419458  0.66761944  1
  Fe  Fe41  1  0.50105336  0.49754790  0.83457205  1
  Ni  Ni42  1  0.49912431  0.83284152  0.49933795  1
  Fe  Fe43  1  0.33257911  0.66815849  0.66647676  1
  Cr  Cr44  1  0.50021706  0.83571292  0.83366161  1
  Cr  Cr45  1  0.83400486  0.16782073  0.49917568  1
  Ni  Ni46  1  0.66699620  1.00050046  0.66782491  1
  Ni  Ni47  1  0.83255387  0.17066663  0.83457600  1
  Cr  Cr48  1  0.83499381  0.50039285  0.49975052  1
  Ni  Ni49  1  0.66733781  0.33376504  0.66976071  1
  Fe  Fe50  1  0.83494120  0.49799319  0.83407302  1
  Ni  Ni51  1  0.83415662  0.83301679  0.49969879  1
  Cr  Cr52  1  0.66717016  0.66728659  0.66660533  1
  Fe  Fe53  1  0.83472272  0.83528861  0.83342949  1
" 