1423,Ni42Fe37Cr20_12,-231.947065257541, 202.535533720083,Ni42Fe37Cr20,"# generated using pymatgen
 data_Cr6Fe10Ni11
_symmetry_space_group_name_H-M   'P 1'
_cell_length_a   7.44354705
_cell_length_b   7.44354705
_cell_length_c   10.52676520
_cell_angle_alpha   90.00000000
_cell_angle_beta   90.00000000
_cell_angle_gamma   90.00000000
_symmetry_Int_Tables_number   1
_chemical_formula_structural   Cr6Fe10Ni11
_chemical_formula_sum   'Cr12 Fe20 Ni22'
_cell_volume   583.25008696
_cell_formula_units_Z   2
loop_
 _symmetry_equiv_pos_site_id
 _symmetry_equiv_pos_as_xyz
  1  'x, y, z'
loop_
 _atom_site_type_symbol
 _atom_site_label
 _atom_site_symmetry_multiplicity
 _atom_site_fract_x
 _atom_site_fract_y
 _atom_site_fract_z
 _atom_site_occupancy
  Cr  Cr0  1  1.00038617  0.00395114  1.00107885  1
  Fe  Fe1  1  0.16985353  0.16799955  0.17014167  1
  Fe  Fe2  1  1.00063798  1.00115097  0.33431430  1
  Cr  Cr3  1  1.00115766  0.33512414  0.00167747  1
  Fe  Fe4  1  0.17046266  0.50194065  0.16935661  1
  Cr  Cr5  1  1.00086226  0.33583985  0.33355370  1
  Cr  Cr6  1  0.00186859  0.66566391  1.00066135  1
  Fe  Fe7  1  0.17075998  0.83479491  0.17090500  1
  Fe  Fe8  1  0.00157949  0.66762477  0.33469627  1
  Cr  Cr9  1  0.33674473  1.00015946  0.00257404  1
  Ni  Ni10  1  0.50215106  0.16823000  0.16956061  1
  Ni  Ni11  1  0.33717746  1.00058629  0.33299993  1
  Fe  Fe12  1  0.33577763  0.33664615  0.00187815  1
  Fe  Fe13  1  0.50277683  0.50128478  0.16922322  1
  Ni  Ni14  1  0.33594453  0.33583013  0.33388254  1
  Fe  Fe15  1  0.33658751  0.66725019  1.00118617  1
  Ni  Ni16  1  0.50046520  0.83569790  0.16886235  1
  Ni  Ni17  1  0.33599224  0.66831996  0.33329589  1
  Ni  Ni18  1  0.66753185  1.00105321  0.00166400  1
  Ni  Ni19  1  0.83218108  0.16865847  0.16844335  1
  Ni  Ni20  1  0.66689420  1.00150180  0.33546502  1
  Fe  Fe21  1  0.66823871  0.33507463  0.00239595  1
  Ni  Ni22  1  0.83364612  0.50092287  0.16902652  1
  Ni  Ni23  1  0.66812940  0.33491375  0.33479148  1
  Fe  Fe24  1  0.66649390  0.66788839  1.00107562  1
  Cr  Cr25  1  0.83380927  0.83486656  0.17011877  1
  Ni  Ni26  1  0.66716450  0.66831911  0.33498217  1
  Cr  Cr27  1  0.17186365  0.16783234  0.50251424  1
  Ni  Ni28  1  0.00230682  1.00117787  0.67097844  1
  Fe  Fe29  1  0.16840417  0.16942044  0.83260826  1
  Ni  Ni30  1  0.17012099  0.50406016  0.50215307  1
  Cr  Cr31  1  1.00123650  0.33574568  0.66950340  1
  Ni  Ni32  1  0.16984055  0.50347749  0.83336155  1
  Cr  Cr33  1  0.16743071  0.83326021  0.50157457  1
  Fe  Fe34  1  0.00337556  0.66842106  0.66947239  1
  Fe  Fe35  1  0.16921354  0.83318498  0.83186552  1
  Ni  Ni36  1  0.50283718  0.16994164  0.50079400  1
  Ni  Ni37  1  0.33332561  1.00027158  0.66929541  1
  Cr  Cr38  1  0.50157648  0.17033025  0.83386453  1
  Ni  Ni39  1  0.50113851  0.49922081  0.50119203  1
  Ni  Ni40  1  0.33490262  0.33715645  0.66841890  1
  Ni  Ni41  1  0.50066742  0.50161028  0.83612569  1
  Fe  Fe42  1  0.50037702  0.83455593  0.49914755  1
  Ni  Ni43  1  0.33411724  0.66730553  0.67001197  1
  Fe  Fe44  1  0.50064149  0.83153799  0.83605239  1
  Fe  Fe45  1  0.83207352  0.16825363  0.50053616  1
  Cr  Cr46  1  0.66795733  0.00191785  0.66691676  1
  Fe  Fe47  1  0.83475197  0.16941752  0.83519616  1
  Fe  Fe48  1  0.83327816  0.50156442  0.50057769  1
  Ni  Ni49  1  0.66829849  0.33624107  0.66750584  1
  Ni  Ni50  1  0.83422817  0.50256979  0.83466313  1
  Fe  Fe51  1  0.83452717  0.83491968  0.49988638  1
  Cr  Cr52  1  0.66660188  0.66643205  0.66813425  1
  Fe  Fe53  1  0.83487639  0.83412341  0.83508234  1
" 