6681,Ni42Fe58_2,-242.149919547537, 224.377609210161,Ni42Fe58,"# generated using pymatgen
 data_Fe11Ni16
_symmetry_space_group_name_H-M   'P 1'
_cell_length_a   7.40237386
_cell_length_b   7.40237386
_cell_length_c   10.46853751
_cell_angle_alpha   90.00000000
_cell_angle_beta   90.00000000
_cell_angle_gamma   90.00000000
_symmetry_Int_Tables_number   1
_chemical_formula_structural   Fe11Ni16
_chemical_formula_sum   'Fe22 Ni32'
_cell_volume   573.62496586
_cell_formula_units_Z   2
loop_
 _symmetry_equiv_pos_site_id
 _symmetry_equiv_pos_as_xyz
  1  'x, y, z'
loop_
 _atom_site_type_symbol
 _atom_site_label
 _atom_site_symmetry_multiplicity
 _atom_site_fract_x
 _atom_site_fract_y
 _atom_site_fract_z
 _atom_site_occupancy
  Ni  Ni0  1  0.00470465  1.00278842  0.00481533  1
  Ni  Ni1  1  0.17131509  0.17148936  0.17143168  1
  Ni  Ni2  1  1.00418529  1.00311507  0.33704589  1
  Fe  Fe3  1  1.00374802  0.33530570  0.00469353  1
  Ni  Ni4  1  0.16988746  0.50177580  0.17064900  1
  Ni  Ni5  1  1.00420123  0.33865580  0.33813186  1
  Fe  Fe6  1  1.00388131  0.67129482  0.00570536  1
  Fe  Fe7  1  0.17066769  0.83739952  0.17118912  1
  Ni  Ni8  1  0.00454480  0.67117244  0.33820342  1
  Ni  Ni9  1  0.33769607  1.00305878  1.00326305  1
  Fe  Fe10  1  0.50492918  0.17092528  0.17097437  1
  Ni  Ni11  1  0.33802346  1.00419958  0.33853960  1
  Fe  Fe12  1  0.33753972  0.33530149  1.00377995  1
  Fe  Fe13  1  0.50467809  0.50443308  0.17087194  1
  Ni  Ni14  1  0.33833926  0.33813830  0.33719257  1
  Fe  Fe15  1  0.33859010  0.67209089  1.00377628  1
  Ni  Ni16  1  0.50642021  0.83918256  0.17151568  1
  Fe  Fe17  1  0.33724145  0.67113249  0.33804019  1
  Ni  Ni18  1  0.67084934  0.00524713  1.00327278  1
  Fe  Fe19  1  0.83760753  0.17113385  0.17118634  1
  Ni  Ni20  1  0.67088038  0.00471676  0.33780380  1
  Ni  Ni21  1  0.67038848  0.33908444  1.00363200  1
  Ni  Ni22  1  0.83786139  0.50493056  0.17157643  1
  Ni  Ni23  1  0.67049445  0.33828617  0.33867964  1
  Fe  Fe24  1  0.67072817  0.67294035  0.00449144  1
  Ni  Ni25  1  0.83570745  0.83760678  0.17080894  1
  Fe  Fe26  1  0.67170256  0.67158245  0.33771991  1
  Ni  Ni27  1  0.17089310  0.17238321  0.50427043  1
  Ni  Ni28  1  0.00441650  1.00342034  0.67090577  1
  Ni  Ni29  1  0.17035259  0.17137580  0.83755545  1
  Ni  Ni30  1  0.17100513  0.50244686  0.50403841  1
  Ni  Ni31  1  0.00512350  0.33776706  0.67131141  1
  Ni  Ni32  1  0.16983835  0.50346372  0.83893988  1
  Ni  Ni33  1  0.17006864  0.83831595  0.50309404  1
  Fe  Fe34  1  0.00602980  0.67051112  0.66994350  1
  Ni  Ni35  1  0.17026504  0.83779107  0.83844454  1
  Ni  Ni36  1  0.50357323  0.17139877  0.50420451  1
  Fe  Fe37  1  0.33612670  0.00568734  0.67097333  1
  Ni  Ni38  1  0.50431763  0.17066464  0.83794050  1
  Ni  Ni39  1  0.50430296  0.50400594  0.50353083  1
  Ni  Ni40  1  0.33880079  0.33945768  0.67214779  1
  Ni  Ni41  1  0.50475255  0.50452832  0.83892044  1
  Ni  Ni42  1  0.50604406  0.83803306  0.50497847  1
  Fe  Fe43  1  0.33623563  0.67081048  0.67118015  1
  Ni  Ni44  1  0.50602898  0.83825928  0.83622777  1
  Fe  Fe45  1  0.83845569  0.17032423  0.50392286  1
  Fe  Fe46  1  0.67108154  0.00587182  0.67062141  1
  Fe  Fe47  1  0.83827644  0.17070048  0.83795535  1
  Fe  Fe48  1  0.83790875  0.50435702  0.50349816  1
  Fe  Fe49  1  0.67086523  0.33721474  0.67128676  1
  Fe  Fe50  1  0.83786376  0.50391936  0.83864001  1
  Ni  Ni51  1  0.83698295  0.83780203  0.50409020  1
  Fe  Fe52  1  0.67105974  0.67003895  0.67075011  1
  Fe  Fe53  1  0.83841401  0.83835899  0.83753393  1
" 