1481,Ni42Fe22Cr34_17,-225.948049774513, 174.551407717272,Ni42Fe22Cr34,"# generated using pymatgen
 data_Cr10Fe6Ni11
_symmetry_space_group_name_H-M   'P 1'
_cell_length_a   7.47902281
_cell_length_b   7.47902281
_cell_length_c   10.57693549
_cell_angle_alpha   90.00000000
_cell_angle_beta   90.00000000
_cell_angle_gamma   90.00000000
_symmetry_Int_Tables_number   1
_chemical_formula_structural   Cr10Fe6Ni11
_chemical_formula_sum   'Cr20 Fe12 Ni22'
_cell_volume   591.62916007
_cell_formula_units_Z   2
loop_
 _symmetry_equiv_pos_site_id
 _symmetry_equiv_pos_as_xyz
  1  'x, y, z'
loop_
 _atom_site_type_symbol
 _atom_site_label
 _atom_site_symmetry_multiplicity
 _atom_site_fract_x
 _atom_site_fract_y
 _atom_site_fract_z
 _atom_site_occupancy
  Ni  Ni0  1  0.00252103  0.00192593  0.99822381  1
  Ni  Ni1  1  0.16611516  0.16660633  0.16339448  1
  Cr  Cr2  1  0.00212485  -0.00038147  0.33263369  1
  Ni  Ni3  1  0.00176627  0.33018848  0.99815703  1
  Ni  Ni4  1  0.16682462  0.49962429  0.16479661  1
  Cr  Cr5  1  0.99818520  0.33255492  0.33507825  1
  Fe  Fe6  1  0.00319119  0.66565021  -0.00014971  1
  Fe  Fe7  1  0.16921441  0.83423314  0.16512900  1
  Cr  Cr8  1  -0.00024954  0.66522870  0.33105194  1
  Ni  Ni9  1  0.32981979  0.00218930  0.99752310  1
  Cr  Cr10  1  0.49808902  0.16570124  0.16580062  1
  Ni  Ni11  1  0.33089358  0.99745906  0.33347383  1
  Ni  Ni12  1  0.33089589  0.33140253  0.99889649  1
  Ni  Ni13  1  0.49671562  0.49845155  0.16569449  1
  Cr  Cr14  1  0.33185753  0.33247690  0.33006613  1
  Cr  Cr15  1  0.33387205  0.66476394  0.99706252  1
  Cr  Cr16  1  0.49816184  0.83485716  0.16795116  1
  Ni  Ni17  1  0.33110058  0.66662292  0.33376355  1
  Ni  Ni18  1  0.66514438  0.00009132  0.99431388  1
  Cr  Cr19  1  0.83223303  0.16471010  0.16279944  1
  Cr  Cr20  1  0.66642372  0.00030126  0.33859194  1
  Fe  Fe21  1  0.66291195  0.32947559  0.99713283  1
  Fe  Fe22  1  0.83324553  0.49522732  0.16355911  1
  Ni  Ni23  1  0.66657962  0.33404192  0.33246146  1
  Cr  Cr24  1  0.66450386  0.66313771  0.00026973  1
  Cr  Cr25  1  0.83442605  0.83424838  0.16238271  1
  Cr  Cr26  1  0.66609179  0.66296836  0.33256855  1
  Cr  Cr27  1  0.16862070  0.16656076  0.49917160  1
  Cr  Cr28  1  0.00070039  0.00081243  0.66573091  1
  Ni  Ni29  1  0.16618711  0.16481041  0.83481805  1
  Ni  Ni30  1  0.16425754  0.50496251  0.50193545  1
  Fe  Fe31  1  0.99747310  0.33136610  0.66570005  1
  Cr  Cr32  1  0.16592325  0.49965793  0.82864813  1
  Ni  Ni33  1  0.16750722  0.82950344  0.49929581  1
  Ni  Ni34  1  -0.00074358  0.66706588  0.66376967  1
  Fe  Fe35  1  0.16783281  0.83554444  0.83110471  1
  Ni  Ni36  1  0.50232028  0.16440256  0.49959181  1
  Ni  Ni37  1  0.33380415  0.99837971  0.66680513  1
  Ni  Ni38  1  0.49909178  0.16522588  0.83350001  1
  Cr  Cr39  1  0.49572120  0.49770549  0.49839530  1
  Cr  Cr40  1  0.33418876  0.32886207  0.66795172  1
  Ni  Ni41  1  0.49845147  0.49698877  0.83304750  1
  Fe  Fe42  1  0.49365128  0.83479851  0.49996490  1
  Fe  Fe43  1  0.33162550  0.66835433  0.66547334  1
  Fe  Fe44  1  0.49700681  0.83606108  0.83249389  1
  Ni  Ni45  1  0.82810708  0.16698933  0.50254863  1
  Fe  Fe46  1  0.66372067  0.00246054  0.66671845  1
  Ni  Ni47  1  0.83174939  0.16500058  0.83322158  1
  Fe  Fe48  1  0.83362985  0.49570441  0.50207482  1
  Ni  Ni49  1  0.66577710  0.33123497  0.66730409  1
  Cr  Cr50  1  0.83422413  0.49681195  0.83323565  1
  Fe  Fe51  1  0.83445401  0.83251072  0.50125196  1
  Cr  Cr52  1  0.66426041  0.66663354  0.66584359  1
  Cr  Cr53  1  0.83456690  0.83460293  0.83454497  1
" 