3990,Ni42Fe58_8,-242.20001781522, 226.623278766445,Ni42Fe58,"# generated using pymatgen
 data_Fe11Ni16
_symmetry_space_group_name_H-M   'P 1'
_cell_length_a   7.39934202
_cell_length_b   7.39934202
_cell_length_c   10.46424984
_cell_angle_alpha   90.00000000
_cell_angle_beta   90.00000000
_cell_angle_gamma   90.00000000
_symmetry_Int_Tables_number   1
_chemical_formula_structural   Fe11Ni16
_chemical_formula_sum   'Fe22 Ni32'
_cell_volume   572.92042343
_cell_formula_units_Z   2
loop_
 _symmetry_equiv_pos_site_id
 _symmetry_equiv_pos_as_xyz
  1  'x, y, z'
loop_
 _atom_site_type_symbol
 _atom_site_label
 _atom_site_symmetry_multiplicity
 _atom_site_fract_x
 _atom_site_fract_y
 _atom_site_fract_z
 _atom_site_occupancy
  Ni  Ni0  1  0.00510080  0.00488225  1.00397453  1
  Ni  Ni1  1  0.17028307  0.17193985  0.17124408  1
  Ni  Ni2  1  0.00530400  1.00411390  0.33815595  1
  Ni  Ni3  1  0.00510153  0.33709316  1.00457346  1
  Ni  Ni4  1  0.17017666  0.50403684  0.17214133  1
  Ni  Ni5  1  0.00528826  0.33728013  0.33826012  1
  Ni  Ni6  1  0.00509928  0.67174818  0.00467215  1
  Ni  Ni7  1  0.17179146  0.83774822  0.17094233  1
  Ni  Ni8  1  1.00448319  0.67233164  0.33720753  1
  Fe  Fe9  1  0.33738031  1.00340271  0.00500545  1
  Fe  Fe10  1  0.50346262  0.17171393  0.17125644  1
  Fe  Fe11  1  0.33735756  1.00443947  0.33755011  1
  Fe  Fe12  1  0.33673328  0.33900821  0.00476684  1
  Fe  Fe13  1  0.50391349  0.50513013  0.17159917  1
  Ni  Ni14  1  0.33869764  0.33762421  0.33781234  1
  Ni  Ni15  1  0.33898178  0.67140698  0.00502336  1
  Ni  Ni16  1  0.50425412  0.83774438  0.17159448  1
  Fe  Fe17  1  0.33758115  0.67076782  0.33758481  1
  Fe  Fe18  1  0.67177487  1.00340211  1.00325410  1
  Fe  Fe19  1  0.83949724  0.17146449  0.17145308  1
  Fe  Fe20  1  0.67198531  0.00470731  0.33887185  1
  Fe  Fe21  1  0.67213418  0.33872254  1.00408418  1
  Ni  Ni22  1  0.83884184  0.50369091  0.17124303  1
  Ni  Ni23  1  0.66973747  0.33844091  0.33770703  1
  Ni  Ni24  1  0.66964343  0.67140999  1.00357915  1
  Fe  Fe25  1  0.83926762  0.83699728  0.17116547  1
  Ni  Ni26  1  0.67053741  0.67117341  0.33855299  1
  Fe  Fe27  1  0.17082213  0.17040930  0.50374375  1
  Ni  Ni28  1  1.00439582  1.00420619  0.67159184  1
  Fe  Fe29  1  0.17103113  0.17126073  0.83845491  1
  Fe  Fe30  1  0.17070839  0.50533157  0.50458825  1
  Ni  Ni31  1  1.00440200  0.33757235  0.67089347  1
  Ni  Ni32  1  0.17149809  0.50423746  0.83816008  1
  Ni  Ni33  1  0.17088926  0.83782385  0.50442544  1
  Ni  Ni34  1  0.00521335  0.67194939  0.67184539  1
  Fe  Fe35  1  0.17116929  0.83775295  0.83804454  1
  Fe  Fe36  1  0.50533679  0.17078645  0.50504735  1
  Fe  Fe37  1  0.33792392  0.00463085  0.67116798  1
  Ni  Ni38  1  0.50571422  0.17140280  0.83756238  1
  Ni  Ni39  1  0.50429360  0.50471735  0.50402754  1
  Fe  Fe40  1  0.33784958  0.33792919  0.67126020  1
  Ni  Ni41  1  0.50339118  0.50458764  0.83880585  1
  Ni  Ni42  1  0.50464583  0.83702041  0.50492528  1
  Fe  Fe43  1  0.33783638  0.67116343  0.67171732  1
  Ni  Ni44  1  0.50535705  0.83773492  0.83720542  1
  Ni  Ni45  1  0.83853366  0.17118024  0.50402668  1
  Ni  Ni46  1  0.67061375  0.00501345  0.67114270  1
  Ni  Ni47  1  0.83801929  0.17060336  0.83835435  1
  Fe  Fe48  1  0.83754833  0.50538710  0.50366791  1
  Ni  Ni49  1  0.67024689  0.33712270  0.67154066  1
  Fe  Fe50  1  0.83730598  0.50449899  0.83853123  1
  Ni  Ni51  1  0.83819106  0.83933630  0.50377716  1
  Fe  Fe52  1  0.67204167  0.67173154  0.67116779  1
  Ni  Ni53  1  0.83766770  0.83924437  0.83810503  1
" 