1932,Ni42Fe5Cr52_5,-217.110165720944, 135.091667932444,Ni42Fe5Cr52,"# generated using pymatgen
 data_Cr15FeNi11
_symmetry_space_group_name_H-M   'P 1'
_cell_length_a   7.53008640
_cell_length_b   7.53008640
_cell_length_c   10.64915031
_cell_angle_alpha   90.00000000
_cell_angle_beta   90.00000000
_cell_angle_gamma   90.00000000
_symmetry_Int_Tables_number   1
_chemical_formula_structural   Cr15FeNi11
_chemical_formula_sum   'Cr30 Fe2 Ni22'
_cell_volume   603.83026235
_cell_formula_units_Z   2
loop_
 _symmetry_equiv_pos_site_id
 _symmetry_equiv_pos_as_xyz
  1  'x, y, z'
loop_
 _atom_site_type_symbol
 _atom_site_label
 _atom_site_symmetry_multiplicity
 _atom_site_fract_x
 _atom_site_fract_y
 _atom_site_fract_z
 _atom_site_occupancy
  Cr  Cr0  1  -0.00280857  0.99218259  0.99241604  1
  Cr  Cr1  1  0.16374929  0.16447375  0.16272885  1
  Cr  Cr2  1  0.99551868  -0.00276017  0.33049735  1
  Cr  Cr3  1  0.00013662  0.33191294  -0.00262116  1
  Ni  Ni4  1  0.16039944  0.49695864  0.16292693  1
  Ni  Ni5  1  0.99570515  0.33228679  0.32835170  1
  Ni  Ni6  1  -0.00227114  0.66170989  0.99496144  1
  Cr  Cr7  1  0.16258754  0.82664533  0.16475230  1
  Ni  Ni8  1  -0.00166444  0.66023852  0.32702977  1
  Cr  Cr9  1  0.32888020  0.99488292  0.99434721  1
  Cr  Cr10  1  0.49470566  0.16133203  0.15965161  1
  Fe  Fe11  1  0.32746369  0.99543139  0.33001787  1
  Ni  Ni12  1  0.32781794  0.33055210  0.99269584  1
  Cr  Cr13  1  0.49495118  0.49646030  0.16270972  1
  Cr  Cr14  1  0.32733361  0.33061400  0.32837953  1
  Cr  Cr15  1  0.32619930  0.66142523  0.99287179  1
  Cr  Cr16  1  0.49535954  0.82955032  0.16566016  1
  Ni  Ni17  1  0.32690690  0.66195673  0.32849500  1
  Ni  Ni18  1  0.66065406  0.99409632  0.99192007  1
  Cr  Cr19  1  0.82898293  0.16357437  0.16061777  1
  Cr  Cr20  1  0.66304703  -0.00410706  0.32999420  1
  Cr  Cr21  1  0.65969638  0.32967359  0.99429468  1
  Ni  Ni22  1  0.83307341  0.49787874  0.16476460  1
  Cr  Cr23  1  0.66516324  0.32902889  0.33090601  1
  Cr  Cr24  1  0.66196479  0.66402699  0.99441776  1
  Cr  Cr25  1  0.82941652  0.82677593  0.15972427  1
  Fe  Fe26  1  0.66471981  0.66131938  0.32882938  1
  Cr  Cr27  1  0.16257811  0.16193002  0.49722021  1
  Ni  Ni28  1  -0.00345334  0.99391253  0.66395574  1
  Ni  Ni29  1  0.16646413  0.16236218  0.82719811  1
  Cr  Cr30  1  0.16287084  0.49808817  0.49749680  1
  Cr  Cr31  1  -0.00226945  0.32787923  0.66153030  1
  Ni  Ni32  1  0.16477984  0.49657940  0.82830785  1
  Cr  Cr33  1  0.16344437  0.82740003  0.49699257  1
  Ni  Ni34  1  -0.00059367  0.66571644  0.66586061  1
  Ni  Ni35  1  0.16178687  0.82835543  0.82600812  1
  Cr  Cr36  1  0.49397637  0.16100983  0.49842874  1
  Ni  Ni37  1  0.32895135  0.99452184  0.66447928  1
  Ni  Ni38  1  0.49257522  0.16120168  0.82858123  1
  Cr  Cr39  1  0.49269830  0.49785581  0.49740312  1
  Ni  Ni40  1  0.32876637  0.32926013  0.66694641  1
  Ni  Ni41  1  0.49112757  0.49488339  0.82771974  1
  Cr  Cr42  1  0.49299045  0.82823951  0.49420526  1
  Ni  Ni43  1  0.32748981  0.66359924  0.66583626  1
  Ni  Ni44  1  0.49540725  0.83136714  0.82714570  1
  Ni  Ni45  1  0.83021469  0.16088606  0.49694558  1
  Ni  Ni46  1  0.66201249  0.99520977  0.66444457  1
  Cr  Cr47  1  0.82876648  0.15994989  0.82838687  1
  Cr  Cr48  1  0.83224554  0.49710982  0.49445517  1
  Cr  Cr49  1  0.66043676  0.32786515  0.66204093  1
  Cr  Cr50  1  0.83176170  0.49877500  0.82938273  1
  Cr  Cr51  1  0.83090788  0.82813637  0.49893409  1
  Cr  Cr52  1  0.66021026  0.66409406  0.66435489  1
  Ni  Ni53  1  0.83013217  0.82965854  0.82836557  1
" 