641,Ni42Fe58_16,-242.33530604145, 225.081639519998,Ni42Fe58,"# generated using pymatgen
 data_Fe11Ni16
_symmetry_space_group_name_H-M   'P 1'
_cell_length_a   7.40580358
_cell_length_b   7.40580358
_cell_length_c   10.47338787
_cell_angle_alpha   90.00000000
_cell_angle_beta   90.00000000
_cell_angle_gamma   90.00000000
_symmetry_Int_Tables_number   1
_chemical_formula_structural   Fe11Ni16
_chemical_formula_sum   'Fe22 Ni32'
_cell_volume   574.42266354
_cell_formula_units_Z   2
loop_
 _symmetry_equiv_pos_site_id
 _symmetry_equiv_pos_as_xyz
  1  'x, y, z'
loop_
 _atom_site_type_symbol
 _atom_site_label
 _atom_site_symmetry_multiplicity
 _atom_site_fract_x
 _atom_site_fract_y
 _atom_site_fract_z
 _atom_site_occupancy
  Fe  Fe0  1  1.00330646  0.00438948  1.00378068  1
  Fe  Fe1  1  0.17130285  0.17218271  0.17073043  1
  Fe  Fe2  1  0.00490495  1.00322432  0.33804119  1
  Ni  Ni3  1  1.00407093  0.33843159  1.00360801  1
  Ni  Ni4  1  0.17144837  0.50539415  0.17036540  1
  Ni  Ni5  1  0.00445137  0.33804866  0.33800419  1
  Ni  Ni6  1  1.00261125  0.67012721  0.00457253  1
  Ni  Ni7  1  0.17046898  0.83668565  0.17069518  1
  Ni  Ni8  1  1.00300670  0.67020310  0.33771025  1
  Ni  Ni9  1  0.33823252  0.00532369  1.00404663  1
  Fe  Fe10  1  0.50301908  0.17149406  0.17036765  1
  Ni  Ni11  1  0.33757455  0.00482445  0.33790039  1
  Ni  Ni12  1  0.33711769  0.33549637  0.00422175  1
  Ni  Ni13  1  0.50366835  0.50326487  0.17100345  1
  Ni  Ni14  1  0.33644088  0.33590814  0.33771658  1
  Fe  Fe15  1  0.33787145  0.66989140  0.00463641  1
  Fe  Fe16  1  0.50370083  0.83615865  0.17087025  1
  Ni  Ni17  1  0.33721565  0.67167322  0.33750168  1
  Ni  Ni18  1  0.66976010  1.00386496  1.00369179  1
  Fe  Fe19  1  0.83808136  0.17228101  0.17036681  1
  Fe  Fe20  1  0.67072340  1.00406159  0.33778203  1
  Ni  Ni21  1  0.67121347  0.33729797  0.00457490  1
  Ni  Ni22  1  0.83728717  0.50393885  0.17045904  1
  Fe  Fe23  1  0.67032532  0.33816559  0.33753830  1
  Ni  Ni24  1  0.67269306  0.67123929  1.00380057  1
  Fe  Fe25  1  0.83754487  0.83522785  0.17051326  1
  Ni  Ni26  1  0.67218479  0.67133894  0.33779288  1
  Fe  Fe27  1  0.17097856  0.17047351  0.50384871  1
  Fe  Fe28  1  1.00377878  1.00334220  0.67058313  1
  Fe  Fe29  1  0.17152467  0.17094754  0.83782518  1
  Ni  Ni30  1  0.17184301  0.50577979  0.50366254  1
  Fe  Fe31  1  0.00439192  0.33809086  0.67051187  1
  Fe  Fe32  1  0.17061915  0.50352425  0.83732435  1
  Ni  Ni33  1  0.17003941  0.83571258  0.50424822  1
  Ni  Ni34  1  1.00293374  0.67119659  0.67011762  1
  Fe  Fe35  1  0.17105779  0.83793178  0.83718375  1
  Ni  Ni36  1  0.50508331  0.17158461  0.50427456  1
  Ni  Ni37  1  0.33744453  0.00501753  0.67045774  1
  Ni  Ni38  1  0.50495346  0.17219147  0.83801481  1
  Fe  Fe39  1  0.50409566  0.50439066  0.50449347  1
  Ni  Ni40  1  0.33792250  0.33555884  0.67046587  1
  Ni  Ni41  1  0.50316166  0.50284392  0.83759030  1
  Fe  Fe42  1  0.50377153  0.83768344  0.50399482  1
  Ni  Ni43  1  0.33708750  0.67183076  0.67066347  1
  Fe  Fe44  1  0.50511377  0.83808253  0.83753884  1
  Ni  Ni45  1  0.83580059  0.16978453  0.50426562  1
  Fe  Fe46  1  0.67053497  0.00423565  0.67120490  1
  Ni  Ni47  1  0.83620868  0.16958852  0.83777798  1
  Fe  Fe48  1  0.83797627  0.50456822  0.50359218  1
  Ni  Ni49  1  0.67089073  0.33733150  0.67069732  1
  Fe  Fe50  1  0.83634123  0.50394951  0.83822794  1
  Ni  Ni51  1  0.83874689  0.83830691  0.50359884  1
  Ni  Ni52  1  0.67238516  0.67072128  0.67081197  1
  Ni  Ni53  1  0.83837096  0.83847609  0.83801458  1
" 