2790,Ni42Fe5Cr52_1,-217.173526996882, 138.88450335664,Ni42Fe5Cr52,"# generated using pymatgen
 data_Cr15FeNi11
_symmetry_space_group_name_H-M   'P 1'
_cell_length_a   7.52746393
_cell_length_b   7.52746393
_cell_length_c   10.64544158
_cell_angle_alpha   90.00000000
_cell_angle_beta   90.00000000
_cell_angle_gamma   90.00000000
_symmetry_Int_Tables_number   1
_chemical_formula_structural   Cr15FeNi11
_chemical_formula_sum   'Cr30 Fe2 Ni22'
_cell_volume   603.19960296
_cell_formula_units_Z   2
loop_
 _symmetry_equiv_pos_site_id
 _symmetry_equiv_pos_as_xyz
  1  'x, y, z'
loop_
 _atom_site_type_symbol
 _atom_site_label
 _atom_site_symmetry_multiplicity
 _atom_site_fract_x
 _atom_site_fract_y
 _atom_site_fract_z
 _atom_site_occupancy
  Cr  Cr0  1  0.99558452  -0.00273142  0.99302783  1
  Cr  Cr1  1  0.16364779  0.16201382  0.15981435  1
  Cr  Cr2  1  0.99519173  0.99553241  0.33166297  1
  Cr  Cr3  1  0.99239720  0.32705537  0.99292098  1
  Cr  Cr4  1  0.16072998  0.49713590  0.16578525  1
  Cr  Cr5  1  0.99352644  0.32699745  0.33004278  1
  Cr  Cr6  1  0.99550266  0.66327188  0.99365217  1
  Fe  Fe7  1  0.16253537  0.83026808  0.16224887  1
  Ni  Ni8  1  0.99539885  0.66625418  0.33009489  1
  Ni  Ni9  1  0.32814124  0.99314493  0.99594850  1
  Cr  Cr10  1  0.49701496  0.15981067  0.16383157  1
  Cr  Cr11  1  0.33214382  0.99234788  0.32927918  1
  Cr  Cr12  1  0.33064388  0.32909510  0.99397794  1
  Cr  Cr13  1  0.49839199  0.49690010  0.16285683  1
  Cr  Cr14  1  0.33240606  0.32932985  0.33014800  1
  Cr  Cr15  1  0.33252707  0.66600857  0.99592299  1
  Ni  Ni16  1  0.49754629  0.82929778  0.16274358  1
  Cr  Cr17  1  0.33034385  0.66622640  0.33116537  1
  Cr  Cr18  1  0.66196380  -0.00381389  -0.00220131  1
  Ni  Ni19  1  0.82777792  0.16126224  0.16558566  1
  Ni  Ni20  1  0.66285472  0.99497573  0.32996542  1
  Cr  Cr21  1  0.66441927  0.32964602  0.99256148  1
  Cr  Cr22  1  0.82899838  0.49848765  0.16457730  1
  Ni  Ni23  1  0.66545927  0.32723906  0.33034109  1
  Ni  Ni24  1  0.66113148  0.66198648  0.99457982  1
  Cr  Cr25  1  0.82700655  0.82856516  0.16353395  1
  Ni  Ni26  1  0.66103067  0.66529544  0.32937813  1
  Cr  Cr27  1  0.16404215  0.16107745  0.50071275  1
  Ni  Ni28  1  -0.00400633  -0.00262095  0.66358958  1
  Ni  Ni29  1  0.16278290  0.15851780  0.82720426  1
  Cr  Cr30  1  0.16296626  0.49699160  0.49535867  1
  Cr  Cr31  1  0.99228179  0.32719363  0.66446762  1
  Cr  Cr32  1  0.16513134  0.49613650  0.82764347  1
  Ni  Ni33  1  0.16415787  0.83003784  0.49828964  1
  Cr  Cr34  1  -0.00285601  0.66514491  0.66299057  1
  Ni  Ni35  1  0.16502079  0.83380979  0.82746489  1
  Cr  Cr36  1  0.49737797  0.16003875  0.49768964  1
  Ni  Ni37  1  0.32905587  0.99313238  0.66266769  1
  Cr  Cr38  1  0.49310961  0.16088673  0.82670653  1
  Cr  Cr39  1  0.49719554  0.49605737  0.49880056  1
  Ni  Ni40  1  0.33067382  0.32959653  0.66542505  1
  Ni  Ni41  1  0.49911736  0.49740251  0.82591696  1
  Ni  Ni42  1  0.49721413  0.82970049  0.49803968  1
  Ni  Ni43  1  0.33260607  0.66520012  0.66228039  1
  Cr  Cr44  1  0.49710139  0.83004314  0.82823541  1
  Ni  Ni45  1  0.82605326  0.16049385  0.49686870  1
  Ni  Ni46  1  0.66311064  -0.00383589  0.66080158  1
  Ni  Ni47  1  0.82889539  0.16153701  0.82532307  1
  Cr  Cr48  1  0.82740562  0.49830656  0.49367152  1
  Fe  Fe49  1  0.66213583  0.32845821  0.66357062  1
  Ni  Ni50  1  0.82421200  0.49640655  0.82808746  1
  Cr  Cr51  1  0.82690789  0.83023917  0.49710088  1
  Ni  Ni52  1  0.65921333  0.66277775  0.66395287  1
  Cr  Cr53  1  0.82807254  0.82896215  0.82698914  1
" 