4658,Ni42Fe42Cr14_16,-233.813494692676, 206.245189378179,Ni42Fe42Cr14,"# generated using pymatgen
 data_Cr9Fe23Ni22
_symmetry_space_group_name_H-M   'P 1'
_cell_length_a   7.42773201
_cell_length_b   7.42773201
_cell_length_c   10.50439934
_cell_angle_alpha   90.00000000
_cell_angle_beta   90.00000000
_cell_angle_gamma   90.00000000
_symmetry_Int_Tables_number   1
_chemical_formula_structural   Cr9Fe23Ni22
_chemical_formula_sum   'Cr9 Fe23 Ni22'
_cell_volume   579.54034617
_cell_formula_units_Z   1
loop_
 _symmetry_equiv_pos_site_id
 _symmetry_equiv_pos_as_xyz
  1  'x, y, z'
loop_
 _atom_site_type_symbol
 _atom_site_label
 _atom_site_symmetry_multiplicity
 _atom_site_fract_x
 _atom_site_fract_y
 _atom_site_fract_z
 _atom_site_occupancy
  Fe  Fe0  1  0.00557295  0.00517785  0.00548325  1
  Fe  Fe1  1  0.16985164  0.17030851  0.16958985  1
  Fe  Fe2  1  0.00388418  1.00207270  0.33622144  1
  Ni  Ni3  1  1.00258979  0.33716350  0.00390445  1
  Fe  Fe4  1  0.16793097  0.50286577  0.16941841  1
  Fe  Fe5  1  0.00265157  0.33547289  0.33509860  1
  Ni  Ni6  1  1.00236641  0.67068783  0.00471156  1
  Ni  Ni7  1  0.16892299  0.83526865  0.16807666  1
  Fe  Fe8  1  0.00393110  0.67045850  0.33528055  1
  Fe  Fe9  1  0.33518175  1.00206829  0.00439820  1
  Fe  Fe10  1  0.50435042  0.16766886  0.16951746  1
  Cr  Cr11  1  0.33789777  1.00263413  0.33622912  1
  Ni  Ni12  1  0.33654031  0.33260253  0.00315709  1
  Cr  Cr13  1  0.49893057  0.50354927  0.17023629  1
  Ni  Ni14  1  0.33352727  0.33508210  0.33576105  1
  Ni  Ni15  1  0.33460849  0.66988201  0.00279101  1
  Ni  Ni16  1  0.50194198  0.83426808  0.16869726  1
  Ni  Ni17  1  0.33277659  0.67069381  0.33700195  1
  Fe  Fe18  1  0.66857968  0.00450440  0.00732690  1
  Ni  Ni19  1  0.83814003  0.16992024  0.17084187  1
  Ni  Ni20  1  0.67090173  1.00186572  0.33653407  1
  Ni  Ni21  1  0.66963503  0.33595823  0.00349747  1
  Fe  Fe22  1  0.83639352  0.50348505  0.16893134  1
  Fe  Fe23  1  0.66836903  0.33347906  0.33503084  1
  Ni  Ni24  1  0.67068181  0.66856972  0.00354166  1
  Fe  Fe25  1  0.83516942  0.83731974  0.16942462  1
  Fe  Fe26  1  0.66811694  0.67181205  0.33478081  1
  Ni  Ni27  1  0.16354650  0.17117479  0.50289345  1
  Ni  Ni28  1  0.00371962  1.00234856  0.66662946  1
  Fe  Fe29  1  0.17040301  0.16855012  0.83516235  1
  Ni  Ni30  1  0.16911136  0.50040369  0.50008491  1
  Ni  Ni31  1  1.00181687  0.33632426  0.66737379  1
  Cr  Cr32  1  0.17287584  0.50105118  0.83702999  1
  Ni  Ni33  1  0.16954702  0.83547321  0.50241297  1
  Cr  Cr34  1  1.00210424  0.66902863  0.66926110  1
  Ni  Ni35  1  0.16870739  0.83770058  0.83767584  1
  Fe  Fe36  1  0.50090116  0.16964897  0.50153305  1
  Cr  Cr37  1  0.33576973  1.00178599  0.66747284  1
  Fe  Fe38  1  0.50249683  0.17004642  0.83677080  1
  Cr  Cr39  1  0.50055672  0.50318834  0.50155059  1
  Ni  Ni40  1  0.33651626  0.33333225  0.66841618  1
  Ni  Ni41  1  0.50338132  0.49985384  0.83611020  1
  Ni  Ni42  1  0.50544530  0.83353263  0.50283665  1
  Fe  Fe43  1  0.33444548  0.66676260  0.66798387  1
  Cr  Cr44  1  0.50200323  0.83180464  0.83684247  1
  Fe  Fe45  1  0.83511115  0.16940813  0.50181374  1
  Fe  Fe46  1  0.67076126  0.00511015  0.66531490  1
  Cr  Cr47  1  0.83880760  0.17192070  0.83461331  1
  Fe  Fe48  1  0.83708591  0.50199471  0.50051141  1
  Ni  Ni49  1  0.66919190  0.33715953  0.66893212  1
  Fe  Fe50  1  0.83516797  0.50432102  0.83806703  1
  Fe  Fe51  1  0.83732616  0.83634288  0.50122121  1
  Fe  Fe52  1  0.66971335  0.66728075  0.67001634  1
  Cr  Cr53  1  0.83695613  0.84252519  0.83889889  1
" 