2063,Ni42Fe32Cr25_6,-230.031727707253, 192.337859148577,Ni42Fe32Cr25,"# generated using pymatgen
 data_Cr15Fe17Ni22
_symmetry_space_group_name_H-M   'P 1'
_cell_length_a   7.45410317
_cell_length_b   7.45410317
_cell_length_c   10.54169379
_cell_angle_alpha   90.00000000
_cell_angle_beta   90.00000000
_cell_angle_gamma   90.00000000
_symmetry_Int_Tables_number   1
_chemical_formula_structural   Cr15Fe17Ni22
_chemical_formula_sum   'Cr15 Fe17 Ni22'
_cell_volume   585.73502663
_cell_formula_units_Z   1
loop_
 _symmetry_equiv_pos_site_id
 _symmetry_equiv_pos_as_xyz
  1  'x, y, z'
loop_
 _atom_site_type_symbol
 _atom_site_label
 _atom_site_symmetry_multiplicity
 _atom_site_fract_x
 _atom_site_fract_y
 _atom_site_fract_z
 _atom_site_occupancy
  Ni  Ni0  1  0.99914302  1.00069641  0.00121445  1
  Cr  Cr1  1  0.16626931  0.16752738  0.16827706  1
  Fe  Fe2  1  0.99702472  1.00035237  0.33195473  1
  Cr  Cr3  1  0.99970001  0.33510281  0.99973482  1
  Ni  Ni4  1  0.16599362  0.50220722  0.16777538  1
  Ni  Ni5  1  0.99767391  0.33697599  0.33537402  1
  Fe  Fe6  1  0.99907485  0.66881523  0.00250887  1
  Fe  Fe7  1  0.16633712  0.83147284  0.16793926  1
  Ni  Ni8  1  0.99987297  0.66522419  0.33159942  1
  Cr  Cr9  1  0.33440257  0.99943358  0.99978641  1
  Cr  Cr10  1  0.50217653  0.17020051  0.16606543  1
  Fe  Fe11  1  0.33743288  0.99865981  0.33410936  1
  Fe  Fe12  1  0.33380817  0.33625269  1.00028787  1
  Fe  Fe13  1  0.50296883  0.50361700  0.16761341  1
  Cr  Cr14  1  0.33504870  0.33705466  0.33439403  1
  Ni  Ni15  1  0.33479239  0.66574852  0.00458930  1
  Ni  Ni16  1  0.50240665  0.83202268  0.17035168  1
  Fe  Fe17  1  0.33541176  0.66617712  0.33266354  1
  Cr  Cr18  1  0.66956473  0.99905547  0.99969642  1
  Fe  Fe19  1  0.83451078  0.16809654  0.16852103  1
  Fe  Fe20  1  0.66823186  1.00086042  0.33428102  1
  Fe  Fe21  1  0.66865957  0.33545994  0.00088098  1
  Ni  Ni22  1  0.83356429  0.50300511  0.16785262  1
  Ni  Ni23  1  0.66987901  0.33576141  0.33389945  1
  Ni  Ni24  1  0.66802619  0.66704213  0.00221384  1
  Ni  Ni25  1  0.83467722  0.83177599  0.16721792  1
  Ni  Ni26  1  0.66759914  0.66717349  0.33378772  1
  Cr  Cr27  1  0.16744403  0.16800289  0.49958099  1
  Cr  Cr28  1  0.99776165  0.00170955  0.67046331  1
  Ni  Ni29  1  0.16817697  0.16990345  0.83509186  1
  Fe  Fe30  1  0.16711137  0.50252269  0.50015688  1
  Cr  Cr31  1  1.00027574  0.33705476  0.66612764  1
  Fe  Fe32  1  0.16809713  0.50081486  0.83511144  1
  Cr  Cr33  1  0.16635993  0.83230498  0.49854938  1
  Ni  Ni34  1  1.00025507  0.66446990  0.66960517  1
  Cr  Cr35  1  0.16461399  0.83238172  0.83617553  1
  Ni  Ni36  1  0.50252707  0.16972165  0.50199811  1
  Cr  Cr37  1  0.33738225  0.00232959  0.66798444  1
  Ni  Ni38  1  0.50170506  0.17120278  0.83319178  1
  Ni  Ni39  1  0.50330348  0.49983513  0.50061182  1
  Ni  Ni40  1  0.33541741  0.33606638  0.66864481  1
  Cr  Cr41  1  0.50221666  0.49954906  0.83614433  1
  Fe  Fe42  1  0.50236335  0.83292809  0.49952077  1
  Fe  Fe43  1  0.33415916  0.66396073  0.66636689  1
  Cr  Cr44  1  0.50423251  0.83175936  0.83120302  1
  Fe  Fe45  1  0.83015262  0.16962963  0.50042628  1
  Ni  Ni46  1  0.66672654  0.00224037  0.66731629  1
  Ni  Ni47  1  0.83265108  0.16730820  0.83381130  1
  Ni  Ni48  1  0.83214070  0.50179905  0.50033378  1
  Ni  Ni49  1  0.66648732  0.33325325  0.66706152  1
  Fe  Fe50  1  0.83308068  0.50171547  0.83396072  1
  Cr  Cr51  1  0.83434061  0.83178272  0.50188714  1
  Fe  Fe52  1  0.66905146  0.66514704  0.66669782  1
  Ni  Ni53  1  0.83460230  0.83172211  0.83427385  1
" 