5077,Ni42Fe58_9,-242.812760772095, 226.403250533168,Ni42Fe58,"# generated using pymatgen
 data_Fe11Ni16
_symmetry_space_group_name_H-M   'P 1'
_cell_length_a   7.40453833
_cell_length_b   7.40453833
_cell_length_c   10.47159853
_cell_angle_alpha   90.00000000
_cell_angle_beta   90.00000000
_cell_angle_gamma   90.00000000
_symmetry_Int_Tables_number   1
_chemical_formula_structural   Fe11Ni16
_chemical_formula_sum   'Fe22 Ni32'
_cell_volume   574.12829984
_cell_formula_units_Z   2
loop_
 _symmetry_equiv_pos_site_id
 _symmetry_equiv_pos_as_xyz
  1  'x, y, z'
loop_
 _atom_site_type_symbol
 _atom_site_label
 _atom_site_symmetry_multiplicity
 _atom_site_fract_x
 _atom_site_fract_y
 _atom_site_fract_z
 _atom_site_occupancy
  Ni  Ni0  1  1.00289323  1.00374453  1.00332519  1
  Fe  Fe1  1  0.16904422  0.17137434  0.17097129  1
  Ni  Ni2  1  1.00354048  1.00298015  0.33780885  1
  Ni  Ni3  1  1.00373794  0.33617818  1.00374022  1
  Ni  Ni4  1  0.17062831  0.50523858  0.17208822  1
  Ni  Ni5  1  0.00439750  0.33523501  0.33875183  1
  Fe  Fe6  1  0.00467664  0.66968795  1.00416437  1
  Ni  Ni7  1  0.17204536  0.83637376  0.17045910  1
  Fe  Fe8  1  0.00450782  0.66944970  0.33800422  1
  Fe  Fe9  1  0.33777449  0.00550685  1.00305924  1
  Fe  Fe10  1  0.50319683  0.17198349  0.17025667  1
  Fe  Fe11  1  0.33718855  0.00464051  0.33874216  1
  Ni  Ni12  1  0.33757346  0.34065202  0.00490421  1
  Fe  Fe13  1  0.50302102  0.50429232  0.17163250  1
  Ni  Ni14  1  0.33788294  0.33967814  0.33751405  1
  Ni  Ni15  1  0.33801237  0.67067303  1.00335886  1
  Fe  Fe16  1  0.50344497  0.83696780  0.17057275  1
  Ni  Ni17  1  0.33858917  0.67102723  0.33929126  1
  Ni  Ni18  1  0.67331563  1.00401491  1.00387903  1
  Ni  Ni19  1  0.83631011  0.17237257  0.17136012  1
  Fe  Fe20  1  0.67008927  0.00529811  0.33717475  1
  Ni  Ni21  1  0.67099341  0.33745337  1.00412788  1
  Fe  Fe22  1  0.83887081  0.50323163  0.17220003  1
  Ni  Ni23  1  0.67038536  0.33871619  0.33749748  1
  Fe  Fe24  1  0.67105962  0.67014325  0.00458463  1
  Fe  Fe25  1  0.83926774  0.83835361  0.17050196  1
  Ni  Ni26  1  0.66961966  0.67179545  0.33723849  1
  Ni  Ni27  1  0.17131869  0.17002152  0.50344768  1
  Ni  Ni28  1  0.00435170  1.00284619  0.67178176  1
  Ni  Ni29  1  0.17086400  0.17102534  0.83924767  1
  Fe  Fe30  1  0.17290812  0.50348101  0.50332815  1
  Fe  Fe31  1  0.00472654  0.33470357  0.67035401  1
  Fe  Fe32  1  0.17132657  0.50365515  0.83878620  1
  Ni  Ni33  1  0.17087160  0.83779171  0.50408410  1
  Fe  Fe34  1  1.00420633  0.67107568  0.67072121  1
  Ni  Ni35  1  0.17080207  0.83707235  0.83837959  1
  Ni  Ni36  1  0.50393181  0.17165100  0.50380713  1
  Ni  Ni37  1  0.33670210  0.00468051  0.67183089  1
  Ni  Ni38  1  0.50505915  0.17101803  0.83798199  1
  Ni  Ni39  1  0.50654852  0.50392455  0.50402659  1
  Ni  Ni40  1  0.33797325  0.33849318  0.67070131  1
  Fe  Fe41  1  0.50420313  0.50382403  0.83706869  1
  Ni  Ni42  1  0.50333932  0.83782508  0.50387288  1
  Fe  Fe43  1  0.33849004  0.67249966  0.67064644  1
  Ni  Ni44  1  0.50479333  0.83774308  0.83790717  1
  Fe  Fe45  1  0.83678588  0.17055564  0.50406017  1
  Ni  Ni46  1  0.67149232  1.00410981  0.67014896  1
  Ni  Ni47  1  0.83675297  0.17160489  0.83629451  1
  Ni  Ni48  1  0.83725907  0.50332281  0.50312859  1
  Ni  Ni49  1  0.66975135  0.33763595  0.67054946  1
  Fe  Fe50  1  0.83717412  0.50369159  0.83649048  1
  Fe  Fe51  1  0.83679903  0.83760385  0.50443990  1
  Fe  Fe52  1  0.67019162  0.67198353  0.66958657  1
  Ni  Ni53  1  0.83724509  0.83703223  0.83805318  1
" 