765,Ni42Fe37Cr20_2,-232.253931441432, 197.742483316411,Ni42Fe37Cr20,"# generated using pymatgen
 data_Cr6Fe10Ni11
_symmetry_space_group_name_H-M   'P 1'
_cell_length_a   7.44121131
_cell_length_b   7.44121131
_cell_length_c   10.52346195
_cell_angle_alpha   90.00000000
_cell_angle_beta   90.00000000
_cell_angle_gamma   90.00000000
_symmetry_Int_Tables_number   1
_chemical_formula_structural   Cr6Fe10Ni11
_chemical_formula_sum   'Cr12 Fe20 Ni22'
_cell_volume   582.70119669
_cell_formula_units_Z   2
loop_
 _symmetry_equiv_pos_site_id
 _symmetry_equiv_pos_as_xyz
  1  'x, y, z'
loop_
 _atom_site_type_symbol
 _atom_site_label
 _atom_site_symmetry_multiplicity
 _atom_site_fract_x
 _atom_site_fract_y
 _atom_site_fract_z
 _atom_site_occupancy
  Fe  Fe0  1  1.00153864  0.00265355  0.00207679  1
  Ni  Ni1  1  0.16730804  0.16784670  0.16853793  1
  Ni  Ni2  1  1.00084567  0.00329593  0.33370574  1
  Ni  Ni3  1  0.00369457  0.33315069  1.00112431  1
  Ni  Ni4  1  0.17028952  0.50161651  0.16788175  1
  Cr  Cr5  1  0.00209002  0.33097748  0.33588904  1
  Fe  Fe6  1  0.00236643  0.66746839  1.00053654  1
  Fe  Fe7  1  0.16931525  0.83593682  0.16921919  1
  Cr  Cr8  1  0.00318479  0.67052910  0.33351617  1
  Fe  Fe9  1  0.33493439  0.00281097  1.00111010  1
  Cr  Cr10  1  0.50172377  0.16829700  0.16910961  1
  Fe  Fe11  1  0.33510364  0.00222221  0.33468164  1
  Fe  Fe12  1  0.33171508  0.33409060  0.00212760  1
  Ni  Ni13  1  0.49826009  0.50255911  0.17070791  1
  Ni  Ni14  1  0.33654869  0.33490373  0.33265106  1
  Cr  Cr15  1  0.33461076  0.66845287  0.00368551  1
  Ni  Ni16  1  0.50094408  0.83542442  0.17036403  1
  Ni  Ni17  1  0.33729875  0.66883293  0.33161990  1
  Fe  Fe18  1  0.66873407  1.00125173  1.00000722  1
  Fe  Fe19  1  0.83676190  0.16636112  0.16867166  1
  Fe  Fe20  1  0.66873094  0.00309188  0.33648940  1
  Cr  Cr21  1  0.66924930  0.33337652  1.00089787  1
  Cr  Cr22  1  0.83617678  0.50073359  0.16828708  1
  Ni  Ni23  1  0.66666429  0.33268613  0.33592957  1
  Cr  Cr24  1  0.66775304  0.67079842  1.00152446  1
  Fe  Fe25  1  0.83583611  0.83834181  0.16804142  1
  Cr  Cr26  1  0.66523612  0.66921127  0.33508695  1
  Fe  Fe27  1  0.16892974  0.16805597  0.50199316  1
  Ni  Ni28  1  0.99970322  0.00286215  0.66917177  1
  Fe  Fe29  1  0.16809694  0.16962140  0.83525583  1
  Cr  Cr30  1  0.16829408  0.50187203  0.50256252  1
  Ni  Ni31  1  1.00138502  0.33434771  0.66908199  1
  Ni  Ni32  1  0.16497680  0.50200565  0.83457889  1
  Cr  Cr33  1  0.16860268  0.83586612  0.50195488  1
  Ni  Ni34  1  1.00073234  0.66800132  0.67090203  1
  Fe  Fe35  1  0.16770600  0.83516255  0.83341551  1
  Ni  Ni36  1  0.50377115  0.16711783  0.50151659  1
  Fe  Fe37  1  0.33567583  0.00253117  0.66941578  1
  Ni  Ni38  1  0.50200141  0.16495102  0.83426767  1
  Cr  Cr39  1  0.50160052  0.50037110  0.50170843  1
  Ni  Ni40  1  0.33402739  0.33383871  0.67011044  1
  Cr  Cr41  1  0.50074248  0.50068684  0.83316094  1
  Fe  Fe42  1  0.50248188  0.83752959  0.50264324  1
  Ni  Ni43  1  0.33547490  0.66930114  0.66986676  1
  Ni  Ni44  1  0.50147919  0.83887010  0.83262490  1
  Ni  Ni45  1  0.83336741  0.16701065  0.50108097  1
  Ni  Ni46  1  0.66849274  1.00141390  0.66884843  1
  Ni  Ni47  1  0.83541888  0.16766599  0.83523707  1
  Fe  Fe48  1  0.83424192  0.50006297  0.50424487  1
  Fe  Fe49  1  0.67052545  0.33292387  0.66822159  1
  Ni  Ni50  1  0.83969703  0.50148025  0.83229284  1
  Fe  Fe51  1  0.83391938  0.83762846  0.50343715  1
  Fe  Fe52  1  0.67024187  0.66985762  0.66894431  1
  Fe  Fe53  1  0.83524455  0.83578790  0.83372651  1
" 