6619,Ni42Fe5Cr52_4,-217.26785146749, 139.332386194944,Ni42Fe5Cr52,"# generated using pymatgen
 data_Cr15FeNi11
_symmetry_space_group_name_H-M   'P 1'
_cell_length_a   7.52700706
_cell_length_b   7.52700706
_cell_length_c   10.64479546
_cell_angle_alpha   90.00000000
_cell_angle_beta   90.00000000
_cell_angle_gamma   90.00000000
_symmetry_Int_Tables_number   1
_chemical_formula_structural   Cr15FeNi11
_chemical_formula_sum   'Cr30 Fe2 Ni22'
_cell_volume   603.08977799
_cell_formula_units_Z   2
loop_
 _symmetry_equiv_pos_site_id
 _symmetry_equiv_pos_as_xyz
  1  'x, y, z'
loop_
 _atom_site_type_symbol
 _atom_site_label
 _atom_site_symmetry_multiplicity
 _atom_site_fract_x
 _atom_site_fract_y
 _atom_site_fract_z
 _atom_site_occupancy
  Ni  Ni0  1  -0.00105715  -0.00320747  -0.00288874  1
  Ni  Ni1  1  0.16094220  0.16272675  0.16015270  1
  Cr  Cr2  1  -0.00282695  0.99496771  0.32983647  1
  Ni  Ni3  1  0.99577087  0.32772365  -0.00278381  1
  Cr  Cr4  1  0.16366685  0.49544955  0.16633348  1
  Cr  Cr5  1  -0.00133739  0.32719986  0.32808839  1
  Cr  Cr6  1  -0.00359931  0.66201241  0.99440614  1
  Cr  Cr7  1  0.16403967  0.82783121  0.16132370  1
  Ni  Ni8  1  -0.00183780  0.66369295  0.33382172  1
  Ni  Ni9  1  0.32388251  0.99336044  -0.00391638  1
  Cr  Cr10  1  0.49278878  0.16232521  0.16317309  1
  Cr  Cr11  1  0.32528916  -0.00285855  0.33044573  1
  Cr  Cr12  1  0.32783589  0.33118806  -0.00334687  1
  Cr  Cr13  1  0.49475139  0.49906899  0.16550686  1
  Ni  Ni14  1  0.32750328  0.33065759  0.33351162  1
  Ni  Ni15  1  0.33008126  0.66411782  0.99385287  1
  Cr  Cr16  1  0.49507453  0.82658180  0.16252281  1
  Ni  Ni17  1  0.32757551  0.66098465  0.33290939  1
  Cr  Cr18  1  0.66359465  0.99478326  -0.00160651  1
  Ni  Ni19  1  0.83364345  0.16225746  0.15972531  1
  Cr  Cr20  1  0.66548393  -0.00343404  0.33209642  1
  Cr  Cr21  1  0.66450674  0.33253382  0.99329551  1
  Cr  Cr22  1  0.83032890  0.49692124  0.16285120  1
  Cr  Cr23  1  0.66207360  0.32801699  0.33154167  1
  Ni  Ni24  1  0.66137559  0.66129134  0.99429313  1
  Cr  Cr25  1  0.82902458  0.82720824  0.16541804  1
  Ni  Ni26  1  0.66283140  0.66199512  0.33148618  1
  Ni  Ni27  1  0.16210741  0.16305815  0.49575748  1
  Ni  Ni28  1  -0.00172301  0.99354697  0.65927220  1
  Cr  Cr29  1  0.16137283  0.16031394  0.83112449  1
  Ni  Ni30  1  0.16538943  0.49836066  0.49449722  1
  Cr  Cr31  1  -0.00332801  0.33015310  0.66121664  1
  Cr  Cr32  1  0.16204146  0.49656265  0.82792264  1
  Ni  Ni33  1  0.16056301  0.82653014  0.49845530  1
  Fe  Fe34  1  -0.00182502  0.66390456  0.66085596  1
  Fe  Fe35  1  0.16206185  0.82863270  0.82847993  1
  Ni  Ni36  1  0.49407141  0.16544809  0.49527803  1
  Cr  Cr37  1  0.32594177  0.99320034  0.66087639  1
  Cr  Cr38  1  0.49370371  0.16188635  0.82837101  1
  Ni  Ni39  1  0.49289412  0.49712652  0.49454384  1
  Cr  Cr40  1  0.33019031  0.33252116  0.65863270  1
  Ni  Ni41  1  0.49479711  0.50079718  0.83012008  1
  Cr  Cr42  1  0.49582864  0.82704892  0.49336842  1
  Ni  Ni43  1  0.32710439  0.66238465  0.66209389  1
  Cr  Cr44  1  0.49335313  0.82985133  0.83226972  1
  Ni  Ni45  1  0.83219019  0.16083807  0.49741981  1
  Cr  Cr46  1  0.66420329  -0.00390355  0.65709809  1
  Cr  Cr47  1  0.83276533  0.16286137  0.82892429  1
  Cr  Cr48  1  0.83158733  0.49831766  0.49515895  1
  Cr  Cr49  1  0.66146851  0.33141265  0.66330146  1
  Ni  Ni50  1  0.82986913  0.49816501  0.83082130  1
  Ni  Ni51  1  0.83364919  0.82889082  0.49579230  1
  Cr  Cr52  1  0.66126067  0.66096722  0.66425476  1
  Cr  Cr53  1  0.83197616  0.83064775  0.82696350  1
" 