5959,Ni42Fe42Cr14_5,-233.985466087398, 202.933376178433,Ni42Fe42Cr14,"# generated using pymatgen
 data_Cr9Fe23Ni22
_symmetry_space_group_name_H-M   'P 1'
_cell_length_a   7.43077670
_cell_length_b   7.43077670
_cell_length_c   10.50870519
_cell_angle_alpha   90.00000000
_cell_angle_beta   90.00000000
_cell_angle_gamma   90.00000000
_symmetry_Int_Tables_number   1
_chemical_formula_structural   Cr9Fe23Ni22
_chemical_formula_sum   'Cr9 Fe23 Ni22'
_cell_volume   580.25331427
_cell_formula_units_Z   1
loop_
 _symmetry_equiv_pos_site_id
 _symmetry_equiv_pos_as_xyz
  1  'x, y, z'
loop_
 _atom_site_type_symbol
 _atom_site_label
 _atom_site_symmetry_multiplicity
 _atom_site_fract_x
 _atom_site_fract_y
 _atom_site_fract_z
 _atom_site_occupancy
  Cr  Cr0  1  0.00268309  1.00227144  0.00298410  1
  Cr  Cr1  1  0.17054053  0.17080092  0.16976647  1
  Fe  Fe2  1  0.99924783  0.00276142  0.33589168  1
  Ni  Ni3  1  0.99982268  0.33599228  0.00274929  1
  Cr  Cr4  1  0.16780199  0.50227197  0.17059448  1
  Ni  Ni5  1  0.99992678  0.33473077  0.33712932  1
  Fe  Fe6  1  0.99780004  0.66955887  0.00267833  1
  Fe  Fe7  1  0.16808982  0.83672597  0.17119650  1
  Ni  Ni8  1  0.99970706  0.67018954  0.33453334  1
  Ni  Ni9  1  0.33754115  1.00218105  1.00040788  1
  Ni  Ni10  1  0.50391924  0.16814297  0.16742135  1
  Fe  Fe11  1  0.33776566  0.00321028  0.33499127  1
  Fe  Fe12  1  0.33877087  0.33279084  1.00211821  1
  Fe  Fe13  1  0.50658743  0.50062783  0.17029641  1
  Ni  Ni14  1  0.33842115  0.33452548  0.33680972  1
  Cr  Cr15  1  0.33757541  0.67183138  0.00386940  1
  Fe  Fe16  1  0.50487123  0.83712998  0.16886513  1
  Fe  Fe17  1  0.33805223  0.66810566  0.33509845  1
  Ni  Ni18  1  0.66667605  1.00183934  0.00362399  1
  Ni  Ni19  1  0.83212048  0.16959613  0.17059181  1
  Fe  Fe20  1  0.67004952  0.00300689  0.33489075  1
  Ni  Ni21  1  0.66933943  0.33674065  0.00380159  1
  Ni  Ni22  1  0.83512574  0.50327334  0.16817595  1
  Ni  Ni23  1  0.66936536  0.33641309  0.33559214  1
  Ni  Ni24  1  0.66923887  0.66857353  1.00136182  1
  Ni  Ni25  1  0.83317222  0.83449005  0.16966319  1
  Ni  Ni26  1  0.66910622  0.66889206  0.33662159  1
  Fe  Fe27  1  0.16767243  0.16915388  0.50280984  1
  Ni  Ni28  1  0.00260297  0.00311615  0.66865144  1
  Ni  Ni29  1  0.17209320  0.17022606  0.83423380  1
  Cr  Cr30  1  0.16732132  0.50028498  0.50056897  1
  Ni  Ni31  1  1.00123976  0.33399100  0.66753266  1
  Cr  Cr32  1  0.16682034  0.49980699  0.83643591  1
  Cr  Cr33  1  0.16731749  0.83612341  0.50147986  1
  Ni  Ni34  1  0.99953164  0.67031125  0.67117385  1
  Fe  Fe35  1  0.16811869  0.83881402  0.83437138  1
  Fe  Fe36  1  0.50327232  0.16937126  0.50129767  1
  Fe  Fe37  1  0.33499159  0.00481479  0.67078585  1
  Fe  Fe38  1  0.50149717  0.16809361  0.83707575  1
  Fe  Fe39  1  0.50556634  0.50220235  0.50104099  1
  Fe  Fe40  1  0.33553605  0.33279975  0.66843278  1
  Fe  Fe41  1  0.50588491  0.50135339  0.83608362  1
  Fe  Fe42  1  0.50553351  0.83581796  0.50205940  1
  Cr  Cr43  1  0.33856764  0.67015469  0.66886740  1
  Ni  Ni44  1  0.50522735  0.83763787  0.83539902  1
  Fe  Fe45  1  0.83636774  0.16942867  0.50224066  1
  Fe  Fe46  1  0.67002600  1.00085854  0.66897246  1
  Cr  Cr47  1  0.83499986  0.16849034  0.83645364  1
  Ni  Ni48  1  0.83513705  0.50325881  0.50329750  1
  Fe  Fe49  1  0.66981425  0.33689343  0.66794056  1
  Fe  Fe50  1  0.83431796  0.50352696  0.83594130  1
  Ni  Ni51  1  0.83360186  0.83540709  0.50318429  1
  Fe  Fe52  1  0.67250438  0.66946965  0.66912008  1
  Ni  Ni53  1  0.83290977  0.83371108  0.83461677  1
" 