5106,Ni42Fe5Cr52_11,-217.364685311286, 141.699469074893,Ni42Fe5Cr52,"# generated using pymatgen
 data_Cr15FeNi11
_symmetry_space_group_name_H-M   'P 1'
_cell_length_a   7.52453597
_cell_length_b   7.52453597
_cell_length_c   10.64130081
_cell_angle_alpha   90.00000000
_cell_angle_beta   90.00000000
_cell_angle_gamma   90.00000000
_symmetry_Int_Tables_number   1
_chemical_formula_structural   Cr15FeNi11
_chemical_formula_sum   'Cr30 Fe2 Ni22'
_cell_volume   602.49599571
_cell_formula_units_Z   2
loop_
 _symmetry_equiv_pos_site_id
 _symmetry_equiv_pos_as_xyz
  1  'x, y, z'
loop_
 _atom_site_type_symbol
 _atom_site_label
 _atom_site_symmetry_multiplicity
 _atom_site_fract_x
 _atom_site_fract_y
 _atom_site_fract_z
 _atom_site_occupancy
  Ni  Ni0  1  0.99264707  0.99517280  -0.00354636  1
  Ni  Ni1  1  0.15803939  0.16135897  0.16423749  1
  Ni  Ni2  1  -0.00370631  -0.00247295  0.32850463  1
  Cr  Cr3  1  0.99553803  0.32714025  -0.00106978  1
  Cr  Cr4  1  0.16011430  0.49515170  0.16492048  1
  Ni  Ni5  1  0.99436542  0.32788044  0.32895470  1
  Cr  Cr6  1  0.99276031  0.66575970  0.99590231  1
  Cr  Cr7  1  0.16044836  0.83269798  0.16476062  1
  Ni  Ni8  1  -0.00277075  0.66313804  0.32974826  1
  Cr  Cr9  1  0.32872629  -0.00343122  -0.00215275  1
  Cr  Cr10  1  0.49750123  0.16194797  0.16212079  1
  Fe  Fe11  1  0.32731541  0.99484032  0.32946579  1
  Cr  Cr12  1  0.32884757  0.32830504  -0.00349581  1
  Cr  Cr13  1  0.50007634  0.49687817  0.16048195  1
  Cr  Cr14  1  0.32710222  0.32815974  0.32852567  1
  Cr  Cr15  1  0.33055964  0.66366042  0.99462404  1
  Ni  Ni16  1  0.49986533  0.82978665  0.16175807  1
  Cr  Cr17  1  0.32845910  0.66537211  0.33273992  1
  Ni  Ni18  1  0.66651751  0.99395331  -0.00221486  1
  Ni  Ni19  1  0.83120462  0.16218350  0.16300411  1
  Cr  Cr20  1  0.66344882  -0.00374874  0.32993905  1
  Ni  Ni21  1  0.66426330  0.32905986  -0.00219311  1
  Fe  Fe22  1  0.82864396  0.49528062  0.16395075  1
  Ni  Ni23  1  0.66739406  0.32758649  0.32895024  1
  Ni  Ni24  1  0.66433534  0.66558620  -0.00180867  1
  Ni  Ni25  1  0.82866889  0.83135312  0.16084426  1
  Cr  Cr26  1  0.66434316  0.66451296  0.32747114  1
  Cr  Cr27  1  0.15804829  0.16126369  0.49467398  1
  Ni  Ni28  1  -0.00373878  -0.00359172  0.66354647  1
  Cr  Cr29  1  0.15995730  0.15970031  0.82992326  1
  Ni  Ni30  1  0.16132128  0.49841531  0.49668342  1
  Ni  Ni31  1  0.99471071  0.32761075  0.66027431  1
  Cr  Cr32  1  0.16332606  0.49809599  0.82707157  1
  Ni  Ni33  1  0.16387302  0.82805503  0.49588083  1
  Cr  Cr34  1  -0.00069308  0.66422685  0.66327105  1
  Ni  Ni35  1  0.15968970  0.83034989  0.82803928  1
  Cr  Cr36  1  0.49959555  0.16265918  0.49587856  1
  Cr  Cr37  1  0.32817250  0.99247872  0.66128491  1
  Cr  Cr38  1  0.49906600  0.16459575  0.83061208  1
  Cr  Cr39  1  0.49622375  0.49667767  0.49839437  1
  Cr  Cr40  1  0.32808654  0.33201828  0.66358037  1
  Cr  Cr41  1  0.49805578  0.49570484  0.82962558  1
  Ni  Ni42  1  0.49183108  0.82884470  0.49604821  1
  Ni  Ni43  1  0.32731440  0.66440511  0.66087205  1
  Cr  Cr44  1  0.49704802  0.82832648  0.83088720  1
  Ni  Ni45  1  0.83143441  0.16502245  0.49677378  1
  Cr  Cr46  1  0.66559285  -0.00330612  0.66148470  1
  Cr  Cr47  1  0.82955766  0.16086297  0.82756939  1
  Cr  Cr48  1  0.83148823  0.49184470  0.49450750  1
  Ni  Ni49  1  0.66557705  0.32824593  0.66169674  1
  Cr  Cr50  1  0.82710853  0.49610669  0.82987839  1
  Cr  Cr51  1  0.83289120  0.83218911  0.49594080  1
  Cr  Cr52  1  0.66155681  0.66429063  0.66272510  1
  Ni  Ni53  1  0.83191331  0.83151017  0.83216993  1
" 