1341,Ni42Fe22Cr34_5,-226.130147383483, 175.197269944656,Ni42Fe22Cr34,"# generated using pymatgen
 data_Cr10Fe6Ni11
_symmetry_space_group_name_H-M   'P 1'
_cell_length_a   7.48050988
_cell_length_b   7.48050988
_cell_length_c   10.57903853
_cell_angle_alpha   90.00000000
_cell_angle_beta   90.00000000
_cell_angle_gamma   90.00000000
_symmetry_Int_Tables_number   1
_chemical_formula_structural   Cr10Fe6Ni11
_chemical_formula_sum   'Cr20 Fe12 Ni22'
_cell_volume   591.98213523
_cell_formula_units_Z   2
loop_
 _symmetry_equiv_pos_site_id
 _symmetry_equiv_pos_as_xyz
  1  'x, y, z'
loop_
 _atom_site_type_symbol
 _atom_site_label
 _atom_site_symmetry_multiplicity
 _atom_site_fract_x
 _atom_site_fract_y
 _atom_site_fract_z
 _atom_site_occupancy
  Cr  Cr0  1  0.00159927  0.00299003  0.99862606  1
  Fe  Fe1  1  0.16268579  0.16921755  0.16765927  1
  Ni  Ni2  1  0.99636182  0.00150167  0.33389014  1
  Fe  Fe3  1  0.99821588  0.33496257  0.99841182  1
  Ni  Ni4  1  0.16500579  0.49918289  0.16638172  1
  Fe  Fe5  1  0.99799313  0.33303994  0.33412733  1
  Fe  Fe6  1  -0.00020792  0.66175917  0.99706487  1
  Cr  Cr7  1  0.16701941  0.83231061  0.16614422  1
  Cr  Cr8  1  0.00008945  0.66589682  0.33761094  1
  Fe  Fe9  1  0.33431342  -0.00069710  0.99730579  1
  Cr  Cr10  1  0.50173282  0.16602714  0.16630421  1
  Cr  Cr11  1  0.33396077  0.99812391  0.33299704  1
  Cr  Cr12  1  0.33066281  0.33073469  0.99833226  1
  Ni  Ni13  1  0.49747691  0.49939827  0.16503265  1
  Cr  Cr14  1  0.33050936  0.33737665  0.33234154  1
  Cr  Cr15  1  0.33496373  0.66182514  0.00108750  1
  Fe  Fe16  1  0.50084859  0.82973856  0.16732213  1
  Ni  Ni17  1  0.33085482  0.66426433  0.33269528  1
  Cr  Cr18  1  0.66619823  0.99828345  -0.00033736  1
  Ni  Ni19  1  0.83442614  0.16685963  0.16771776  1
  Ni  Ni20  1  0.66947094  0.00022833  0.33552670  1
  Fe  Fe21  1  0.66455892  0.33364254  0.99807274  1
  Cr  Cr22  1  0.83156985  0.49658212  0.16358451  1
  Cr  Cr23  1  0.66563597  0.33178058  0.33491102  1
  Ni  Ni24  1  0.66571510  0.66122986  0.99880620  1
  Cr  Cr25  1  0.83344163  0.83319752  0.16491483  1
  Cr  Cr26  1  0.66333781  0.66750057  0.33466816  1
  Cr  Cr27  1  0.16723057  0.16739745  0.49893429  1
  Cr  Cr28  1  0.99687476  0.99774350  0.66200436  1
  Fe  Fe29  1  0.16805184  0.16726451  0.82925445  1
  Ni  Ni30  1  0.16431303  0.50184652  0.50138660  1
  Fe  Fe31  1  -0.00037327  0.33420442  0.66439131  1
  Fe  Fe32  1  0.16660934  0.49722309  0.82934301  1
  Ni  Ni33  1  0.16730617  0.83037212  0.50106007  1
  Ni  Ni34  1  0.99832148  0.66196927  0.66549461  1
  Cr  Cr35  1  0.16684428  0.83050362  0.82953610  1
  Ni  Ni36  1  0.50150293  0.16304920  0.50340904  1
  Ni  Ni37  1  0.33472839  0.00180344  0.66724209  1
  Ni  Ni38  1  0.49857468  0.16964592  0.82923189  1
  Cr  Cr39  1  0.49700582  0.49843344  0.50094832  1
  Ni  Ni40  1  0.33249025  0.33344461  0.66747903  1
  Ni  Ni41  1  0.50004506  0.49685597  0.83082011  1
  Ni  Ni42  1  0.49783899  0.83351235  0.50058641  1
  Ni  Ni43  1  0.33213993  0.66286380  0.66374225  1
  Cr  Cr44  1  0.49876433  0.83220209  0.83020839  1
  Ni  Ni45  1  0.83089256  0.16633283  0.49741204  1
  Ni  Ni46  1  0.66425663  -0.00003787  0.66202171  1
  Cr  Cr47  1  0.82993798  0.16989496  0.82972540  1
  Ni  Ni48  1  0.83457131  0.49796518  0.50356676  1
  Fe  Fe49  1  0.66413785  0.33313818  0.66425324  1
  Fe  Fe50  1  0.82965539  0.49947951  0.83071034  1
  Ni  Ni51  1  0.83192302  0.83280174  0.50078078  1
  Ni  Ni52  1  0.66649106  0.66522147  0.66489621  1
  Cr  Cr53  1  0.83283472  0.82932077  0.83177142  1
" 