3575,Ni42Fe26Cr30_4,-228.368921756897, 187.236522389807,Ni42Fe26Cr30,"# generated using pymatgen
 data_Cr17Fe14Ni23
_symmetry_space_group_name_H-M   'P 1'
_cell_length_a   7.46392054
_cell_length_b   7.46392054
_cell_length_c   10.55557766
_cell_angle_alpha   90.00000000
_cell_angle_beta   90.00000000
_cell_angle_gamma   90.00000000
_symmetry_Int_Tables_number   1
_chemical_formula_structural   Cr17Fe14Ni23
_chemical_formula_sum   'Cr17 Fe14 Ni23'
_cell_volume   588.05239034
_cell_formula_units_Z   1
loop_
 _symmetry_equiv_pos_site_id
 _symmetry_equiv_pos_as_xyz
  1  'x, y, z'
loop_
 _atom_site_type_symbol
 _atom_site_label
 _atom_site_symmetry_multiplicity
 _atom_site_fract_x
 _atom_site_fract_y
 _atom_site_fract_z
 _atom_site_occupancy
  Cr  Cr0  1  0.99798113  0.99902478  0.99973361  1
  Cr  Cr1  1  0.16827951  0.16591305  0.16585692  1
  Fe  Fe2  1  0.99986057  0.99662033  0.33402937  1
  Fe  Fe3  1  1.00007617  0.33515766  0.99844400  1
  Fe  Fe4  1  0.16710421  0.50343664  0.16511344  1
  Cr  Cr5  1  0.99893811  0.33350024  0.33222944  1
  Fe  Fe6  1  0.00109708  0.66586572  0.99926437  1
  Fe  Fe7  1  0.16743243  0.83157315  0.16668276  1
  Ni  Ni8  1  0.00044594  0.66950475  0.33327150  1
  Ni  Ni9  1  0.33245362  0.99649901  0.00144012  1
  Cr  Cr10  1  0.49775907  0.16637186  0.16502232  1
  Ni  Ni11  1  0.33387402  0.99754718  0.33337309  1
  Ni  Ni12  1  0.33313230  0.33785150  0.99885362  1
  Cr  Cr13  1  0.50300797  0.50151137  0.16606295  1
  Cr  Cr14  1  0.33434941  0.33558148  0.33604342  1
  Ni  Ni15  1  0.33170440  0.66622515  1.00019225  1
  Ni  Ni16  1  0.50034506  0.83271650  0.16676729  1
  Cr  Cr17  1  0.33257733  0.66764161  0.33583959  1
  Cr  Cr18  1  0.66976948  0.99989694  0.99985052  1
  Fe  Fe19  1  0.83203598  0.16708182  0.16600285  1
  Cr  Cr20  1  0.66851286  0.00039847  0.33386941  1
  Ni  Ni21  1  0.66909747  0.33468867  0.99835142  1
  Cr  Cr22  1  0.83385405  0.50241958  0.16691117  1
  Ni  Ni23  1  0.66773619  0.33247118  0.33539962  1
  Fe  Fe24  1  0.66640344  0.66686328  0.99946153  1
  Ni  Ni25  1  0.83423605  0.82995968  0.16729092  1
  Ni  Ni26  1  0.66776634  0.66869010  0.33343453  1
  Cr  Cr27  1  0.16751715  0.16552537  0.50210347  1
  Ni  Ni28  1  0.99639143  0.99853628  0.66657455  1
  Cr  Cr29  1  0.16774020  0.16648382  0.83258689  1
  Ni  Ni30  1  0.16359424  0.50136499  0.50159650  1
  Ni  Ni31  1  0.99962941  0.33461043  0.66881610  1
  Ni  Ni32  1  0.16411815  0.50102877  0.83420593  1
  Ni  Ni33  1  0.16299801  0.83335390  0.49880620  1
  Ni  Ni34  1  0.99983472  0.66733747  0.66826386  1
  Ni  Ni35  1  0.16549789  0.83138848  0.83432183  1
  Ni  Ni36  1  0.50137244  0.16717713  0.50082822  1
  Cr  Cr37  1  0.33306680  0.99789258  0.66627079  1
  Cr  Cr38  1  0.49912513  0.16753087  0.83458591  1
  Fe  Fe39  1  0.50222404  0.50046081  0.50088167  1
  Ni  Ni40  1  0.33407577  0.33670171  0.66624354  1
  Fe  Fe41  1  0.50012700  0.50000828  0.83451450  1
  Fe  Fe42  1  0.50172512  0.83328332  0.49997329  1
  Cr  Cr43  1  0.33174119  0.66400997  0.66517174  1
  Cr  Cr44  1  0.50045598  0.83249015  0.83477516  1
  Fe  Fe45  1  0.83389967  0.16615441  0.50285278  1
  Fe  Fe46  1  0.66940518  0.00045496  0.66567037  1
  Ni  Ni47  1  0.83332387  0.17011210  0.83153935  1
  Cr  Cr48  1  0.83374756  0.50378465  0.49976932  1
  Fe  Fe49  1  0.66773959  0.33457941  0.66712887  1
  Ni  Ni50  1  0.83356551  0.50149954  0.83408614  1
  Ni  Ni51  1  0.83428521  0.83147067  0.50154737  1
  Ni  Ni52  1  0.66842468  0.66680856  0.66803372  1
  Fe  Fe53  1  0.83585575  0.83225149  0.83137175  1
" 