7309,Ni42Fe22Cr34_12,-225.824873492194, 175.497172357467,Ni42Fe22Cr34,"# generated using pymatgen
 data_Cr10Fe6Ni11
_symmetry_space_group_name_H-M   'P 1'
_cell_length_a   7.47700649
_cell_length_b   7.47700649
_cell_length_c   10.57408399
_cell_angle_alpha   90.00000000
_cell_angle_beta   90.00000000
_cell_angle_gamma   90.00000000
_symmetry_Int_Tables_number   1
_chemical_formula_structural   Cr10Fe6Ni11
_chemical_formula_sum   'Cr20 Fe12 Ni22'
_cell_volume   591.15078575
_cell_formula_units_Z   2
loop_
 _symmetry_equiv_pos_site_id
 _symmetry_equiv_pos_as_xyz
  1  'x, y, z'
loop_
 _atom_site_type_symbol
 _atom_site_label
 _atom_site_symmetry_multiplicity
 _atom_site_fract_x
 _atom_site_fract_y
 _atom_site_fract_z
 _atom_site_occupancy
  Ni  Ni0  1  0.99812026  0.00089386  0.99605486  1
  Cr  Cr1  1  0.16540059  0.16645318  0.16457507  1
  Ni  Ni2  1  0.00139232  0.00060233  0.33497697  1
  Fe  Fe3  1  0.99863569  0.33083172  0.99692620  1
  Fe  Fe4  1  0.16735636  0.49710308  0.16689980  1
  Ni  Ni5  1  -0.00000287  0.33373737  0.33291152  1
  Fe  Fe6  1  -0.00040830  0.66615587  0.99811361  1
  Cr  Cr7  1  0.16522182  0.83236062  0.16817466  1
  Ni  Ni8  1  0.00003615  0.66337619  0.33113525  1
  Fe  Fe9  1  0.33332184  0.00078534  0.99673747  1
  Cr  Cr10  1  0.50071806  0.16812884  0.16433677  1
  Ni  Ni11  1  0.33125810  0.00230128  0.33205780  1
  Ni  Ni12  1  0.33231348  0.33218732  0.99816901  1
  Ni  Ni13  1  0.49798331  0.49639880  0.16730325  1
  Ni  Ni14  1  0.33335034  0.33295479  0.33251869  1
  Cr  Cr15  1  0.33409976  0.66255667  0.00004406  1
  Cr  Cr16  1  0.49839204  0.83448260  0.16614345  1
  Fe  Fe17  1  0.33181361  0.66277099  0.33153190  1
  Ni  Ni18  1  0.66787553  -0.00013024  0.99590897  1
  Cr  Cr19  1  0.83184440  0.16727928  0.16755834  1
  Cr  Cr20  1  0.66645916  0.00187021  0.33503683  1
  Fe  Fe21  1  0.66434994  0.33181831  0.99677051  1
  Cr  Cr22  1  0.83319166  0.49585458  0.16430557  1
  Ni  Ni23  1  0.66492025  0.33452945  0.33494239  1
  Cr  Cr24  1  0.66634842  0.66556993  0.99692006  1
  Cr  Cr25  1  0.83447018  0.83443664  0.16511178  1
  Cr  Cr26  1  0.66679634  0.66244495  0.33329784  1
  Cr  Cr27  1  0.16521565  0.16746667  0.50040529  1
  Fe  Fe28  1  0.99577117  0.00326482  0.66722017  1
  Fe  Fe29  1  0.16682561  0.16791318  0.83360970  1
  Cr  Cr30  1  0.16570882  0.49992219  0.50004906  1
  Ni  Ni31  1  0.99811980  0.33285772  0.66732089  1
  Cr  Cr32  1  0.16495325  0.49797822  0.83149752  1
  Cr  Cr33  1  0.16607048  0.83059237  0.49951436  1
  Ni  Ni34  1  0.99697039  0.66455052  0.66774946  1
  Cr  Cr35  1  0.16500321  0.83230820  0.83043824  1
  Ni  Ni36  1  0.50103145  0.16866065  0.49940080  1
  Cr  Cr37  1  0.33452002  0.00344809  0.66904462  1
  Ni  Ni38  1  0.50246485  0.16735504  0.83413931  1
  Fe  Fe39  1  0.50015490  0.49484810  0.50033380  1
  Ni  Ni40  1  0.33416946  0.33216712  0.66708813  1
  Ni  Ni41  1  0.49934419  0.49613458  0.83104802  1
  Cr  Cr42  1  0.49628795  0.83329581  0.49934912  1
  Fe  Fe43  1  0.33431395  0.66348834  0.66764492  1
  Ni  Ni44  1  0.49991864  0.83413622  0.83319723  1
  Ni  Ni45  1  0.83095366  0.17061289  0.49942208  1
  Ni  Ni46  1  0.66632922  0.00169317  0.66756117  1
  Ni  Ni47  1  0.83142395  0.16700610  0.83206362  1
  Ni  Ni48  1  0.83405883  0.49560405  0.50038236  1
  Ni  Ni49  1  0.66581039  0.33086595  0.66603178  1
  Fe  Fe50  1  0.83082163  0.49629997  0.83118153  1
  Cr  Cr51  1  0.83521850  0.83334975  0.50049406  1
  Cr  Cr52  1  0.66614616  0.66518681  0.66729988  1
  Fe  Fe53  1  0.83117318  0.83527726  0.83208802  1
" 