5998,Ni42Fe58_11,-242.298804873277, 225.787468360945,Ni42Fe58,"# generated using pymatgen
 data_Fe11Ni16
_symmetry_space_group_name_H-M   'P 1'
_cell_length_a   7.40256317
_cell_length_b   7.40256317
_cell_length_c   10.46880523
_cell_angle_alpha   90.00000000
_cell_angle_beta   90.00000000
_cell_angle_gamma   90.00000000
_symmetry_Int_Tables_number   1
_chemical_formula_structural   Fe11Ni16
_chemical_formula_sum   'Fe22 Ni32'
_cell_volume   573.66897603
_cell_formula_units_Z   2
loop_
 _symmetry_equiv_pos_site_id
 _symmetry_equiv_pos_as_xyz
  1  'x, y, z'
loop_
 _atom_site_type_symbol
 _atom_site_label
 _atom_site_symmetry_multiplicity
 _atom_site_fract_x
 _atom_site_fract_y
 _atom_site_fract_z
 _atom_site_occupancy
  Ni  Ni0  1  0.00454952  0.00450114  1.00391126  1
  Ni  Ni1  1  0.17200841  0.17125210  0.17148980  1
  Ni  Ni2  1  1.00423772  1.00388832  0.33815003  1
  Ni  Ni3  1  1.00419856  0.33753869  0.00497529  1
  Ni  Ni4  1  0.17047789  0.50374833  0.17013102  1
  Ni  Ni5  1  1.00388614  0.33768315  0.33759458  1
  Fe  Fe6  1  1.00399133  0.67096529  0.00505222  1
  Fe  Fe7  1  0.17136632  0.83734347  0.17173130  1
  Ni  Ni8  1  0.00472651  0.67149741  0.33875209  1
  Ni  Ni9  1  0.33785233  1.00415028  0.00473105  1
  Ni  Ni10  1  0.50329650  0.17125582  0.17011427  1
  Fe  Fe11  1  0.33713414  0.00499052  0.33798975  1
  Ni  Ni12  1  0.33821610  0.33790010  1.00416217  1
  Ni  Ni13  1  0.50446606  0.50338212  0.17149473  1
  Ni  Ni14  1  0.33852276  0.33885348  0.33815473  1
  Fe  Fe15  1  0.33790958  0.67036794  0.00505957  1
  Fe  Fe16  1  0.50358143  0.83726474  0.17122027  1
  Ni  Ni17  1  0.33805560  0.67069156  0.33830801  1
  Ni  Ni18  1  0.67066706  1.00413933  1.00345748  1
  Fe  Fe19  1  0.83789716  0.17265282  0.17128529  1
  Fe  Fe20  1  0.67115983  0.00501190  0.33792375  1
  Ni  Ni21  1  0.67065082  0.33826784  1.00371147  1
  Ni  Ni22  1  0.83812715  0.50529524  0.17047712  1
  Ni  Ni23  1  0.67065634  0.33837222  0.33815688  1
  Fe  Fe24  1  0.67116779  0.67073922  1.00355937  1
  Fe  Fe25  1  0.83812215  0.83770063  0.17071819  1
  Fe  Fe26  1  0.67180888  0.66996227  0.33839856  1
  Fe  Fe27  1  0.16995018  0.17038878  0.50465251  1
  Ni  Ni28  1  0.00517362  0.00481907  0.67100886  1
  Ni  Ni29  1  0.17200412  0.17075128  0.83759345  1
  Ni  Ni30  1  0.16995671  0.50506303  0.50428781  1
  Ni  Ni31  1  1.00399813  0.33706005  0.67049436  1
  Fe  Fe32  1  0.17130785  0.50326642  0.83783136  1
  Ni  Ni33  1  0.17042848  0.83685865  0.50453674  1
  Fe  Fe34  1  1.00410585  0.67172941  0.66996464  1
  Fe  Fe35  1  0.17164110  0.83906565  0.83720453  1
  Ni  Ni36  1  0.50452530  0.17031858  0.50454300  1
  Ni  Ni37  1  0.33724612  1.00364620  0.67064035  1
  Ni  Ni38  1  0.50316160  0.17156609  0.83840832  1
  Fe  Fe39  1  0.50492092  0.50506904  0.50407894  1
  Fe  Fe40  1  0.33746921  0.33703349  0.67153384  1
  Ni  Ni41  1  0.50435636  0.50329658  0.83783206  1
  Ni  Ni42  1  0.50441942  0.83886481  0.50479616  1
  Fe  Fe43  1  0.33714835  0.67144654  0.67009955  1
  Fe  Fe44  1  0.50430386  0.83838021  0.83712013  1
  Ni  Ni45  1  0.83704150  0.17078322  0.50453749  1
  Fe  Fe46  1  0.67144006  1.00425364  0.67100457  1
  Fe  Fe47  1  0.83779266  0.17107090  0.83763810  1
  Ni  Ni48  1  0.83905152  0.50494949  0.50455301  1
  Fe  Fe49  1  0.67115819  0.33700489  0.67080247  1
  Fe  Fe50  1  0.83710663  0.50345629  0.83760527  1
  Ni  Ni51  1  0.83821973  0.83733236  0.50398500  1
  Ni  Ni52  1  0.67029188  0.67082779  0.67030053  1
  Ni  Ni53  1  0.83824618  0.83748122  0.83743632  1
" 