4635,Ni42Fe26Cr30_10,-228.248389032029, 187.505708859182,Ni42Fe26Cr30,"# generated using pymatgen
 data_Cr17Fe14Ni23
_symmetry_space_group_name_H-M   'P 1'
_cell_length_a   7.46262619
_cell_length_b   7.46262619
_cell_length_c   10.55374717
_cell_angle_alpha   90.00000000
_cell_angle_beta   90.00000000
_cell_angle_gamma   90.00000000
_symmetry_Int_Tables_number   1
_chemical_formula_structural   Cr17Fe14Ni23
_chemical_formula_sum   'Cr17 Fe14 Ni23'
_cell_volume   587.74651463
_cell_formula_units_Z   1
loop_
 _symmetry_equiv_pos_site_id
 _symmetry_equiv_pos_as_xyz
  1  'x, y, z'
loop_
 _atom_site_type_symbol
 _atom_site_label
 _atom_site_symmetry_multiplicity
 _atom_site_fract_x
 _atom_site_fract_y
 _atom_site_fract_z
 _atom_site_occupancy
  Cr  Cr0  1  0.00197228  0.99981510  0.00085099  1
  Ni  Ni1  1  0.16900241  0.16641377  0.16858710  1
  Fe  Fe2  1  0.00050395  0.00172576  0.33161985  1
  Cr  Cr3  1  0.99893084  0.33452535  0.99936100  1
  Cr  Cr4  1  0.16978390  0.49854395  0.16910581  1
  Fe  Fe5  1  0.00030419  0.33061676  0.33335815  1
  Ni  Ni6  1  0.00109430  0.66666195  0.99939609  1
  Ni  Ni7  1  0.16742924  0.83597034  0.16658494  1
  Cr  Cr8  1  0.99943037  0.66793597  0.33192013  1
  Fe  Fe9  1  0.33282429  0.00241085  0.00241274  1
  Fe  Fe10  1  0.49842366  0.16633323  0.16798969  1
  Ni  Ni11  1  0.33454181  0.00128316  0.33178019  1
  Ni  Ni12  1  0.33370767  0.33221255  0.00064992  1
  Fe  Fe13  1  0.50029501  0.49921310  0.16904203  1
  Ni  Ni14  1  0.33514545  0.33053058  0.33440596  1
  Cr  Cr15  1  0.33213048  0.66873653  0.00129312  1
  Ni  Ni16  1  0.50090720  0.83446776  0.16927651  1
  Ni  Ni17  1  0.33603020  0.66885893  0.33197674  1
  Cr  Cr18  1  0.66574218  0.00178980  0.00127441  1
  Fe  Fe19  1  0.83369469  0.16561931  0.16862045  1
  Ni  Ni20  1  0.66551537  1.00027550  0.33379649  1
  Ni  Ni21  1  0.66651249  0.33306143  0.00293546  1
  Fe  Fe22  1  0.83289947  0.50056538  0.16790771  1
  Ni  Ni23  1  0.66575160  0.33237721  0.32994130  1
  Cr  Cr24  1  0.66836391  0.66499898  0.00239755  1
  Ni  Ni25  1  0.83249500  0.83430526  0.16919513  1
  Ni  Ni26  1  0.66566452  0.66806416  0.33293592  1
  Ni  Ni27  1  0.16884185  0.16798610  0.49865446  1
  Cr  Cr28  1  0.00078380  0.00243232  0.66637596  1
  Ni  Ni29  1  0.16732453  0.16980835  0.83390583  1
  Cr  Cr30  1  0.16879099  0.49803474  0.50065344  1
  Ni  Ni31  1  0.00034664  0.33408064  0.66865081  1
  Ni  Ni32  1  0.16762759  0.50012196  0.83156977  1
  Cr  Cr33  1  0.16570010  0.83392743  0.49768582  1
  Ni  Ni34  1  0.00197366  0.66498095  0.66943523  1
  Fe  Fe35  1  0.16770057  0.83298068  0.83352134  1
  Fe  Fe36  1  0.50066838  0.16645702  0.49900621  1
  Cr  Cr37  1  0.33516325  0.00034833  0.66697443  1
  Cr  Cr38  1  0.50114552  0.16793666  0.83472991  1
  Cr  Cr39  1  0.49956121  0.49992365  0.49953221  1
  Fe  Fe40  1  0.33175754  0.33254816  0.66729690  1
  Cr  Cr41  1  0.49970202  0.49988143  0.83315347  1
  Fe  Fe42  1  0.50109380  0.83475698  0.49823534  1
  Ni  Ni43  1  0.33326669  0.66769966  0.66758933  1
  Fe  Fe44  1  0.49905076  0.83386505  0.83313602  1
  Cr  Cr45  1  0.83330617  0.16517806  0.49910357  1
  Ni  Ni46  1  0.66517641  0.00097677  0.66536232  1
  Ni  Ni47  1  0.83287969  0.16758200  0.83269798  1
  Cr  Cr48  1  0.83263660  0.50150259  0.50178537  1
  Ni  Ni49  1  0.66862902  0.33167734  0.66843772  1
  Fe  Fe50  1  0.83463286  0.49766806  0.83254546  1
  Ni  Ni51  1  0.82980140  0.83414771  0.49986046  1
  Fe  Fe52  1  0.66658700  0.66855172  0.66600897  1
  Cr  Cr53  1  0.83275228  0.83362978  0.83147314  1
" 