7423,Ni42Fe42Cr14_8,-233.870460735193, 205.883176657762,Ni42Fe42Cr14,"# generated using pymatgen
 data_Cr9Fe23Ni22
_symmetry_space_group_name_H-M   'P 1'
_cell_length_a   7.43061073
_cell_length_b   7.43061073
_cell_length_c   10.50847048
_cell_angle_alpha   90.00000000
_cell_angle_beta   90.00000000
_cell_angle_gamma   90.00000000
_symmetry_Int_Tables_number   1
_chemical_formula_structural   Cr9Fe23Ni22
_chemical_formula_sum   'Cr9 Fe23 Ni22'
_cell_volume   580.21443539
_cell_formula_units_Z   1
loop_
 _symmetry_equiv_pos_site_id
 _symmetry_equiv_pos_as_xyz
  1  'x, y, z'
loop_
 _atom_site_type_symbol
 _atom_site_label
 _atom_site_symmetry_multiplicity
 _atom_site_fract_x
 _atom_site_fract_y
 _atom_site_fract_z
 _atom_site_occupancy
  Fe  Fe0  1  0.00352808  1.00149136  0.00346996  1
  Ni  Ni1  1  0.16860475  0.17017545  0.16863601  1
  Fe  Fe2  1  0.00318066  0.00497733  0.33591513  1
  Fe  Fe3  1  0.00348105  0.33737839  0.00281686  1
  Fe  Fe4  1  0.16964231  0.50085130  0.16825406  1
  Ni  Ni5  1  1.00195299  0.33368982  0.33493426  1
  Fe  Fe6  1  1.00227940  0.66892755  0.00248295  1
  Fe  Fe7  1  0.16962450  0.83805880  0.16844568  1
  Cr  Cr8  1  1.00216268  0.66903381  0.33514653  1
  Ni  Ni9  1  0.33484814  0.00263481  1.00204447  1
  Ni  Ni10  1  0.50029333  0.16846029  0.16768133  1
  Fe  Fe11  1  0.33374687  0.00586588  0.33633476  1
  Ni  Ni12  1  0.33561616  0.33438857  1.00027275  1
  Cr  Cr13  1  0.49972038  0.50195604  0.16696138  1
  Ni  Ni14  1  0.33440315  0.33334657  0.33641468  1
  Ni  Ni15  1  0.33362538  0.67039985  1.00138226  1
  Cr  Cr16  1  0.50364110  0.83689264  0.16970937  1
  Ni  Ni17  1  0.33468275  0.67253336  0.33546674  1
  Ni  Ni18  1  0.66868024  0.00304886  0.00279969  1
  Fe  Fe19  1  0.83613416  0.16662798  0.16757510  1
  Fe  Fe20  1  0.67020165  1.00223902  0.33542369  1
  Ni  Ni21  1  0.67030173  0.33521058  0.00313729  1
  Fe  Fe22  1  0.83703691  0.50176038  0.16605719  1
  Cr  Cr23  1  0.67205638  0.33316572  0.33374008  1
  Ni  Ni24  1  0.67085854  0.66860024  1.00132940  1
  Ni  Ni25  1  0.83706400  0.83673832  0.16754472  1
  Fe  Fe26  1  0.67048568  0.66942684  0.33547491  1
  Ni  Ni27  1  0.16705676  0.16817934  0.50327297  1
  Ni  Ni28  1  1.00219900  1.00186058  0.66815747  1
  Fe  Fe29  1  0.16794957  0.17152569  0.83611927  1
  Cr  Cr30  1  0.16876686  0.50006819  0.50247329  1
  Ni  Ni31  1  0.99987222  0.33465280  0.66861470  1
  Ni  Ni32  1  0.16807765  0.50278319  0.83657533  1
  Ni  Ni33  1  0.16740902  0.83731128  0.50094700  1
  Fe  Fe34  1  1.00053492  0.66983255  0.66982156  1
  Fe  Fe35  1  0.16618153  0.83698642  0.83687268  1
  Ni  Ni36  1  0.50372004  0.16826089  0.50226463  1
  Cr  Cr37  1  0.33494811  0.00261725  0.66941367  1
  Ni  Ni38  1  0.50264060  0.16884618  0.83715650  1
  Cr  Cr39  1  0.50250930  0.50224047  0.50283362  1
  Fe  Fe40  1  0.33509370  0.33316622  0.67106148  1
  Fe  Fe41  1  0.50436739  0.50015734  0.83768702  1
  Fe  Fe42  1  0.50247280  0.83842911  0.49990757  1
  Cr  Cr43  1  0.33558046  0.67107086  0.67153679  1
  Fe  Fe44  1  0.50451463  0.83567643  0.83912932  1
  Ni  Ni45  1  0.83660892  0.16695779  0.50236054  1
  Fe  Fe46  1  0.66984980  0.00369632  0.66896338  1
  Cr  Cr47  1  0.83529285  0.16818198  0.83761661  1
  Fe  Fe48  1  0.83650161  0.49986976  0.50454917  1
  Ni  Ni49  1  0.67076156  0.33546766  0.66956475  1
  Ni  Ni50  1  0.83746949  0.50354438  0.83569224  1
  Fe  Fe51  1  0.83535127  0.83807019  0.50251456  1
  Fe  Fe52  1  0.67273603  0.66991874  0.67089389  1
  Fe  Fe53  1  0.83607863  0.83514634  0.83694645  1
" 