7062,Ni42Fe22Cr34_18,-226.3791400543, 180.554266501666,Ni42Fe22Cr34,"# generated using pymatgen
 data_Cr10Fe6Ni11
_symmetry_space_group_name_H-M   'P 1'
_cell_length_a   7.47528390
_cell_length_b   7.47528390
_cell_length_c   10.57164788
_cell_angle_alpha   90.00000000
_cell_angle_beta   90.00000000
_cell_angle_gamma   90.00000000
_symmetry_Int_Tables_number   1
_chemical_formula_structural   Cr10Fe6Ni11
_chemical_formula_sum   'Cr20 Fe12 Ni22'
_cell_volume   590.74230264
_cell_formula_units_Z   2
loop_
 _symmetry_equiv_pos_site_id
 _symmetry_equiv_pos_as_xyz
  1  'x, y, z'
loop_
 _atom_site_type_symbol
 _atom_site_label
 _atom_site_symmetry_multiplicity
 _atom_site_fract_x
 _atom_site_fract_y
 _atom_site_fract_z
 _atom_site_occupancy
  Fe  Fe0  1  0.99883336  -0.00009916  0.00007447  1
  Ni  Ni1  1  0.16753299  0.16862060  0.16641356  1
  Cr  Cr2  1  0.99803509  0.00131058  0.33112394  1
  Cr  Cr3  1  -0.00014227  0.33058530  0.00115360  1
  Ni  Ni4  1  0.16955247  0.49803557  0.16502086  1
  Cr  Cr5  1  -0.00026978  0.33206907  0.33428169  1
  Ni  Ni6  1  0.00036844  0.66604172  0.00233782  1
  Cr  Cr7  1  0.16482337  0.83366505  0.16394069  1
  Cr  Cr8  1  0.99897942  0.66460100  0.33266464  1
  Cr  Cr9  1  0.33491244  0.00248800  0.99896251  1
  Ni  Ni10  1  0.50032789  0.16899875  0.16676021  1
  Fe  Fe11  1  0.33436894  0.00367205  0.33118323  1
  Ni  Ni12  1  0.33296576  0.33201059  0.00146098  1
  Ni  Ni13  1  0.49656569  0.49589796  0.16466231  1
  Ni  Ni14  1  0.33361122  0.33034826  0.33110603  1
  Ni  Ni15  1  0.33156172  0.66509938  0.00097659  1
  Fe  Fe16  1  0.49982866  0.83628841  0.16573305  1
  Cr  Cr17  1  0.33226145  0.66539164  0.33101983  1
  Ni  Ni18  1  0.66724899  0.00252806  0.00095982  1
  Ni  Ni19  1  0.83061283  0.16338180  0.16535163  1
  Ni  Ni20  1  0.66462469  0.00314319  0.33076570  1
  Fe  Fe21  1  0.66434083  0.33031008  0.00118414  1
  Fe  Fe22  1  0.83294068  0.49600090  0.16630856  1
  Ni  Ni23  1  0.66487050  0.32892710  0.33152437  1
  Cr  Cr24  1  0.66616808  0.66777139  0.00344265  1
  Ni  Ni25  1  0.83219977  0.83620658  0.16422166  1
  Cr  Cr26  1  0.66719580  0.66642310  0.32969609  1
  Fe  Fe27  1  0.16651197  0.16507006  0.49899902  1
  Ni  Ni28  1  0.00090887  0.00286681  0.66779512  1
  Fe  Fe29  1  0.16430414  0.16498158  0.83335543  1
  Fe  Fe30  1  0.16692170  0.49665822  0.49949739  1
  Ni  Ni31  1  0.00038115  0.32803658  0.66367673  1
  Cr  Cr32  1  0.16732844  0.49962901  0.83470297  1
  Fe  Fe33  1  0.16649524  0.83612149  0.50045104  1
  Cr  Cr34  1  -0.00019616  0.66483678  0.66336074  1
  Fe  Fe35  1  0.16520124  0.83334915  0.83359192  1
  Ni  Ni36  1  0.49902975  0.16497109  0.49805964  1
  Fe  Fe37  1  0.33139179  0.00001033  0.66615086  1
  Fe  Fe38  1  0.50254811  0.16564973  0.83428790  1
  Cr  Cr39  1  0.49978857  0.49729446  0.50033596  1
  Cr  Cr40  1  0.33102191  0.33008478  0.66694283  1
  Cr  Cr41  1  0.49765440  0.49906260  0.83388033  1
  Cr  Cr42  1  0.49841623  0.83624815  0.49942091  1
  Ni  Ni43  1  0.33082912  0.66834932  0.66578758  1
  Cr  Cr44  1  0.49879526  0.83241459  0.83015332  1
  Ni  Ni45  1  0.83228968  0.16615617  0.50055543  1
  Ni  Ni46  1  0.66616071  0.00210755  0.66614903  1
  Ni  Ni47  1  0.83429558  0.16309626  0.83279007  1
  Ni  Ni48  1  0.83362902  0.49586003  0.50034154  1
  Cr  Cr49  1  0.66822041  0.33017348  0.66700802  1
  Cr  Cr50  1  0.83313200  0.49694830  0.83227544  1
  Cr  Cr51  1  0.83207185  0.83665859  0.50089100  1
  Ni  Ni52  1  0.66479661  0.66796528  0.66463854  1
  Cr  Cr53  1  0.83400467  0.83593397  0.83282190  1
" 