2881,Ni42Fe22Cr34_14,-225.763521522197, 177.608364525735,Ni42Fe22Cr34,"# generated using pymatgen
 data_Cr10Fe6Ni11
_symmetry_space_group_name_H-M   'P 1'
_cell_length_a   7.47561448
_cell_length_b   7.47561448
_cell_length_c   10.57211538
_cell_angle_alpha   90.00000000
_cell_angle_beta   90.00000000
_cell_angle_gamma   90.00000000
_symmetry_Int_Tables_number   1
_chemical_formula_structural   Cr10Fe6Ni11
_chemical_formula_sum   'Cr20 Fe12 Ni22'
_cell_volume   590.82067848
_cell_formula_units_Z   2
loop_
 _symmetry_equiv_pos_site_id
 _symmetry_equiv_pos_as_xyz
  1  'x, y, z'
loop_
 _atom_site_type_symbol
 _atom_site_label
 _atom_site_symmetry_multiplicity
 _atom_site_fract_x
 _atom_site_fract_y
 _atom_site_fract_z
 _atom_site_occupancy
  Cr  Cr0  1  0.99868993  0.99860206  0.00375323  1
  Fe  Fe1  1  0.16772465  0.16700106  0.16421543  1
  Cr  Cr2  1  0.00137271  0.99877739  0.32846237  1
  Cr  Cr3  1  0.99927908  0.33284791  0.99864913  1
  Cr  Cr4  1  0.16679920  0.50024944  0.16513494  1
  Cr  Cr5  1  0.99818209  0.33134953  0.33280498  1
  Cr  Cr6  1  0.99769606  0.66684688  0.99868964  1
  Ni  Ni7  1  0.16734402  0.82800745  0.16884324  1
  Ni  Ni8  1  0.99929413  0.66643428  0.33324895  1
  Cr  Cr9  1  0.33191298  0.99827547  -0.00054106  1
  Cr  Cr10  1  0.50229684  0.16522897  0.16524542  1
  Cr  Cr11  1  0.33225460  0.99834896  0.33435325  1
  Ni  Ni12  1  0.33467537  0.33515225  0.99587888  1
  Cr  Cr13  1  0.49849902  0.50012797  0.16509323  1
  Cr  Cr14  1  0.33379442  0.33095603  0.33401632  1
  Fe  Fe15  1  0.33343926  0.66824256  0.99748658  1
  Ni  Ni16  1  0.49894978  0.83332084  0.16606389  1
  Ni  Ni17  1  0.33208131  0.66718904  0.33354066  1
  Ni  Ni18  1  0.66453141  0.99752793  0.99866488  1
  Ni  Ni19  1  0.82931857  0.16545515  0.16652968  1
  Ni  Ni20  1  0.66686357  -0.00018510  0.33223136  1
  Cr  Cr21  1  0.66742841  0.33468505  0.99459146  1
  Ni  Ni22  1  0.83327308  0.49799600  0.16854509  1
  Fe  Fe23  1  0.66744918  0.33115927  0.33513771  1
  Fe  Fe24  1  0.66435701  0.66689879  0.99808396  1
  Fe  Fe25  1  0.82891532  0.83109504  0.16650971  1
  Cr  Cr26  1  0.66526508  0.66436723  0.33260929  1
  Fe  Fe27  1  0.16806727  0.16470416  0.50391114  1
  Ni  Ni28  1  0.00179391  -0.00014321  0.66635345  1
  Cr  Cr29  1  0.16602762  0.16750082  0.83196188  1
  Cr  Cr30  1  0.16466956  0.50169272  0.50058693  1
  Ni  Ni31  1  0.00040747  0.33215007  0.66718585  1
  Ni  Ni32  1  0.16766138  0.50136456  0.83147228  1
  Ni  Ni33  1  0.16472667  0.83187145  0.50200406  1
  Fe  Fe34  1  -0.00014842  0.66503488  0.66750983  1
  Ni  Ni35  1  0.16835456  0.82943703  0.82817241  1
  Ni  Ni36  1  0.50303067  0.16698224  0.50042040  1
  Fe  Fe37  1  0.33415453  0.00143164  0.66630207  1
  Ni  Ni38  1  0.50080411  0.16482181  0.83159904  1
  Ni  Ni39  1  0.49681031  0.49651407  0.49838417  1
  Ni  Ni40  1  0.33262746  0.33367323  0.66696278  1
  Fe  Fe41  1  0.49606099  0.49984880  0.83220899  1
  Cr  Cr42  1  0.49873951  0.83462804  0.50019158  1
  Fe  Fe43  1  0.33226671  0.66600965  0.66587115  1
  Ni  Ni44  1  0.49775143  0.83467397  0.83300699  1
  Fe  Fe45  1  0.83329832  0.16461000  0.50125859  1
  Ni  Ni46  1  0.66545987  0.00053753  0.66791545  1
  Ni  Ni47  1  0.83027729  0.16617416  0.83015031  1
  Fe  Fe48  1  0.83199172  0.49959911  0.50017948  1
  Cr  Cr49  1  0.66482410  0.33403332  0.66500379  1
  Ni  Ni50  1  0.83645803  0.49889801  0.83031157  1
  Cr  Cr51  1  0.83539286  0.83465919  0.50087129  1
  Cr  Cr52  1  0.66335676  0.66556887  0.66910328  1
  Cr  Cr53  1  0.83250691  0.83682510  0.83231769  1
" 