5663,Ni42Fe42Cr14_1,-233.61927389531, 203.558571705265,Ni42Fe42Cr14,"# generated using pymatgen
 data_Cr9Fe23Ni22
_symmetry_space_group_name_H-M   'P 1'
_cell_length_a   7.42873207
_cell_length_b   7.42873207
_cell_length_c   10.50581365
_cell_angle_alpha   90.00000000
_cell_angle_beta   90.00000000
_cell_angle_gamma   90.00000000
_symmetry_Int_Tables_number   1
_chemical_formula_structural   Cr9Fe23Ni22
_chemical_formula_sum   'Cr9 Fe23 Ni22'
_cell_volume   579.77446459
_cell_formula_units_Z   1
loop_
 _symmetry_equiv_pos_site_id
 _symmetry_equiv_pos_as_xyz
  1  'x, y, z'
loop_
 _atom_site_type_symbol
 _atom_site_label
 _atom_site_symmetry_multiplicity
 _atom_site_fract_x
 _atom_site_fract_y
 _atom_site_fract_z
 _atom_site_occupancy
  Ni  Ni0  1  0.00443499  0.00492294  0.00322611  1
  Fe  Fe1  1  0.16962473  0.16849002  0.16917519  1
  Fe  Fe2  1  0.00378416  0.00270732  0.33582089  1
  Ni  Ni3  1  0.00334214  0.33362825  1.00124089  1
  Fe  Fe4  1  0.17204709  0.50210903  0.17011878  1
  Ni  Ni5  1  0.00458329  0.33542334  0.33651128  1
  Cr  Cr6  1  0.00492132  0.66972967  1.00194021  1
  Ni  Ni7  1  0.16969441  0.83645979  0.16864823  1
  Fe  Fe8  1  0.00481759  0.66995184  0.33606554  1
  Fe  Fe9  1  0.33381050  1.00242041  0.00371802  1
  Ni  Ni10  1  0.50072981  0.16984549  0.16861655  1
  Ni  Ni11  1  0.33567173  1.00026751  0.33496415  1
  Ni  Ni12  1  0.33461296  0.33638167  0.00490125  1
  Fe  Fe13  1  0.49933181  0.50301025  0.16944620  1
  Ni  Ni14  1  0.33354126  0.33739776  0.33565525  1
  Fe  Fe15  1  0.33510181  0.66979519  0.00380311  1
  Ni  Ni16  1  0.50036650  0.83665702  0.17031883  1
  Ni  Ni17  1  0.33652374  0.67007337  0.33543635  1
  Cr  Cr18  1  0.66933574  0.00336160  0.00451932  1
  Fe  Fe19  1  0.83728627  0.16681738  0.16865309  1
  Fe  Fe20  1  0.66876556  1.00074024  0.33516401  1
  Ni  Ni21  1  0.66978335  0.33524489  1.00250262  1
  Cr  Cr22  1  0.83705771  0.50159152  0.16851438  1
  Cr  Cr23  1  0.66910408  0.33568611  0.33541648  1
  Cr  Cr24  1  0.66665995  0.66936021  0.00370844  1
  Ni  Ni25  1  0.83767527  0.83763132  0.17240010  1
  Fe  Fe26  1  0.66709587  0.67128008  0.33642020  1
  Fe  Fe27  1  0.16826942  0.16888469  0.50263947  1
  Ni  Ni28  1  0.00289353  0.00394228  0.66853988  1
  Fe  Fe29  1  0.16735218  0.16886889  0.83592591  1
  Fe  Fe30  1  0.16985357  0.50232132  0.50207369  1
  Ni  Ni31  1  1.00176506  0.33597506  0.66998435  1
  Fe  Fe32  1  0.16827894  0.50111175  0.83554156  1
  Ni  Ni33  1  0.16900372  0.83529740  0.50310427  1
  Fe  Fe34  1  0.00357353  0.66969165  0.66857889  1
  Fe  Fe35  1  0.17150564  0.83775656  0.83494858  1
  Cr  Cr36  1  0.50185833  0.16901017  0.50437677  1
  Ni  Ni37  1  0.33559804  0.99967488  0.67008134  1
  Cr  Cr38  1  0.50292225  0.16865793  0.83458084  1
  Ni  Ni39  1  0.50149613  0.50434708  0.50263925  1
  Fe  Fe40  1  0.33356530  0.33555200  0.66838371  1
  Cr  Cr41  1  0.50224025  0.50242790  0.83648341  1
  Ni  Ni42  1  0.50147756  0.83391744  0.50301050  1
  Fe  Fe43  1  0.33524879  0.67145502  0.66770678  1
  Ni  Ni44  1  0.49897949  0.83570634  0.83440775  1
  Ni  Ni45  1  0.83847897  0.16933584  0.50329399  1
  Ni  Ni46  1  0.66924543  1.00087654  0.66822440  1
  Ni  Ni47  1  0.83887090  0.17200278  0.83656243  1
  Fe  Fe48  1  0.83641070  0.50309902  0.50314744  1
  Fe  Fe49  1  0.67222957  0.33495751  0.66863997  1
  Fe  Fe50  1  0.83689995  0.49889379  0.83498867  1
  Fe  Fe51  1  0.83518329  0.83645564  0.50278307  1
  Fe  Fe52  1  0.66891126  0.67042247  0.66784433  1
  Cr  Cr53  1  0.83744380  0.83763307  0.83386252  1
" 