7686,Ni42Fe37Cr20_18,-231.787611753931, 195.9073865074,Ni42Fe37Cr20,"# generated using pymatgen
 data_Cr6Fe10Ni11
_symmetry_space_group_name_H-M   'P 1'
_cell_length_a   7.44369547
_cell_length_b   7.44369547
_cell_length_c   10.52697509
_cell_angle_alpha   90.00000000
_cell_angle_beta   90.00000000
_cell_angle_gamma   90.00000000
_symmetry_Int_Tables_number   1
_chemical_formula_structural   Cr6Fe10Ni11
_chemical_formula_sum   'Cr12 Fe20 Ni22'
_cell_volume   583.28497575
_cell_formula_units_Z   2
loop_
 _symmetry_equiv_pos_site_id
 _symmetry_equiv_pos_as_xyz
  1  'x, y, z'
loop_
 _atom_site_type_symbol
 _atom_site_label
 _atom_site_symmetry_multiplicity
 _atom_site_fract_x
 _atom_site_fract_y
 _atom_site_fract_z
 _atom_site_occupancy
  Cr  Cr0  1  1.00101827  0.00573003  0.00176867  1
  Fe  Fe1  1  0.16717805  0.17260677  0.16954068  1
  Fe  Fe2  1  1.00093491  0.00389962  0.33685761  1
  Fe  Fe3  1  0.00242819  0.33385421  0.00354301  1
  Ni  Ni4  1  0.17018492  0.50223065  0.16970079  1
  Ni  Ni5  1  0.00185112  0.33565391  0.33492043  1
  Cr  Cr6  1  0.99985433  0.66498157  0.00343486  1
  Fe  Fe7  1  0.16991850  0.83429593  0.16946628  1
  Fe  Fe8  1  0.00369036  0.66735322  0.33617749  1
  Cr  Cr9  1  0.33680162  0.00515551  0.00161284  1
  Ni  Ni10  1  0.50266628  0.16929450  0.16961918  1
  Cr  Cr11  1  0.33587513  0.00266895  0.33472126  1
  Ni  Ni12  1  0.33493466  0.33607479  0.00258778  1
  Fe  Fe13  1  0.50013253  0.50005981  0.16969008  1
  Ni  Ni14  1  0.33343721  0.33600133  0.33375065  1
  Ni  Ni15  1  0.33714264  0.66625651  0.00355089  1
  Fe  Fe16  1  0.50196147  0.83515982  0.16695608  1
  Fe  Fe17  1  0.33419746  0.66665558  0.33510839  1
  Ni  Ni18  1  0.66681267  0.00280349  0.00168596  1
  Ni  Ni19  1  0.83250070  0.16810614  0.17081546  1
  Ni  Ni20  1  0.66915530  1.00096833  0.33482478  1
  Cr  Cr21  1  0.66742691  0.33451557  0.00195809  1
  Fe  Fe22  1  0.83619586  0.49794680  0.16999186  1
  Fe  Fe23  1  0.66856977  0.33360410  0.33465729  1
  Fe  Fe24  1  0.66386409  0.66817222  1.00055504  1
  Cr  Cr25  1  0.83485452  0.83675461  0.16810991  1
  Cr  Cr26  1  0.66868574  0.66755365  0.33599654  1
  Fe  Fe27  1  0.16636817  0.17014979  0.50199027  1
  Ni  Ni28  1  1.00146910  0.00383442  0.66561660  1
  Fe  Fe29  1  0.16802113  0.16946978  0.83235173  1
  Fe  Fe30  1  0.16837605  0.49921725  0.50008251  1
  Fe  Fe31  1  0.99821654  0.33291934  0.66651694  1
  Cr  Cr32  1  0.16938781  0.50000517  0.83398707  1
  Ni  Ni33  1  0.16855421  0.83328651  0.50021037  1
  Cr  Cr34  1  0.99795425  0.66711917  0.66444988  1
  Cr  Cr35  1  0.17022862  0.83357341  0.83468708  1
  Cr  Cr36  1  0.50414540  0.17045100  0.50140769  1
  Fe  Fe37  1  0.33567214  1.00111206  0.66749508  1
  Ni  Ni38  1  0.50203891  0.16846410  0.83344739  1
  Ni  Ni39  1  0.49947069  0.50066487  0.50231234  1
  Ni  Ni40  1  0.33487653  0.33429417  0.66821974  1
  Fe  Fe41  1  0.50241562  0.50179995  0.83328296  1
  Fe  Fe42  1  0.50462754  0.83381752  0.50370568  1
  Fe  Fe43  1  0.33748210  0.66929541  0.66656442  1
  Ni  Ni44  1  0.50173020  0.83593725  0.83473875  1
  Ni  Ni45  1  0.83443696  0.16755602  0.50033024  1
  Ni  Ni46  1  0.66919192  1.00071885  0.66821984  1
  Ni  Ni47  1  0.83285770  0.16950618  0.83356110  1
  Ni  Ni48  1  0.83377152  0.49977518  0.50013650  1
  Fe  Fe49  1  0.66985376  0.33560602  0.66857070  1
  Ni  Ni50  1  0.83471880  0.49840651  0.83576923  1
  Ni  Ni51  1  0.83661770  0.83647070  0.50141411  1
  Ni  Ni52  1  0.66751599  0.66689018  0.66897624  1
  Cr  Cr53  1  0.83243102  0.83600518  0.83505723  1
" 