8735,Ni42Fe26Cr30_14,-228.80835112753, 191.256745419512,Ni42Fe26Cr30,"# generated using pymatgen
 data_Cr17Fe14Ni23
_symmetry_space_group_name_H-M   'P 1'
_cell_length_a   7.46135843
_cell_length_b   7.46135843
_cell_length_c   10.55195429
_cell_angle_alpha   90.00000000
_cell_angle_beta   90.00000000
_cell_angle_gamma   90.00000000
_symmetry_Int_Tables_number   1
_chemical_formula_structural   Cr17Fe14Ni23
_chemical_formula_sum   'Cr17 Fe14 Ni23'
_cell_volume   587.44702347
_cell_formula_units_Z   1
loop_
 _symmetry_equiv_pos_site_id
 _symmetry_equiv_pos_as_xyz
  1  'x, y, z'
loop_
 _atom_site_type_symbol
 _atom_site_label
 _atom_site_symmetry_multiplicity
 _atom_site_fract_x
 _atom_site_fract_y
 _atom_site_fract_z
 _atom_site_occupancy
  Fe  Fe0  1  0.99918684  1.00000054  0.99876213  1
  Fe  Fe1  1  0.16738182  0.16571579  0.16793051  1
  Ni  Ni2  1  0.00275851  0.00240083  0.33300999  1
  Fe  Fe3  1  0.99946497  0.33308113  1.00022830  1
  Cr  Cr4  1  0.16734050  0.49698603  0.16714426  1
  Ni  Ni5  1  0.00068062  0.33221793  0.33488773  1
  Cr  Cr6  1  0.00108447  0.66874964  1.00037984  1
  Cr  Cr7  1  0.16907357  0.83546677  0.16540083  1
  Cr  Cr8  1  0.99991198  0.66778072  0.33419342  1
  Fe  Fe9  1  0.33585754  0.99855681  0.99955737  1
  Cr  Cr10  1  0.50041589  0.16541135  0.16849610  1
  Ni  Ni11  1  0.33325422  0.00224275  0.33476494  1
  Cr  Cr12  1  0.33449082  0.33258127  0.99830239  1
  Cr  Cr13  1  0.49881347  0.49997374  0.16661315  1
  Fe  Fe14  1  0.33283073  0.33179048  0.33734428  1
  Ni  Ni15  1  0.33298123  0.66741661  0.99746898  1
  Ni  Ni16  1  0.50157542  0.83646515  0.16662213  1
  Cr  Cr17  1  0.33407962  0.66964507  0.33560566  1
  Ni  Ni18  1  0.66838909  0.00176375  0.99852205  1
  Cr  Cr19  1  0.83424039  0.16660724  0.16591799  1
  Ni  Ni20  1  0.66536583  0.00131384  0.33446008  1
  Fe  Fe21  1  0.66736669  0.33276016  0.99814431  1
  Fe  Fe22  1  0.83325054  0.49924684  0.16757290  1
  Ni  Ni23  1  0.66758577  0.33330636  0.33388643  1
  Cr  Cr24  1  0.66693650  0.66879776  0.00237219  1
  Ni  Ni25  1  0.83255574  0.83809321  0.16792841  1
  Cr  Cr26  1  0.66700022  0.66760471  0.33366770  1
  Fe  Fe27  1  0.16920761  0.16507571  0.50102153  1
  Ni  Ni28  1  0.00139798  0.99827911  0.66922839  1
  Cr  Cr29  1  0.16667541  0.16715169  0.83285625  1
  Ni  Ni30  1  0.16730103  0.49894530  0.50256994  1
  Fe  Fe31  1  0.00473218  0.33428825  0.66531024  1
  Ni  Ni32  1  0.16830632  0.50073775  0.83196173  1
  Ni  Ni33  1  0.16772925  0.83395916  0.50297447  1
  Ni  Ni34  1  0.00233630  0.66816205  0.66710974  1
  Fe  Fe35  1  0.16756926  0.83199930  0.83132579  1
  Ni  Ni36  1  0.49997223  0.16663013  0.49940436  1
  Ni  Ni37  1  0.33326704  0.00137416  0.66613564  1
  Ni  Ni38  1  0.50067071  0.16624898  0.83370626  1
  Ni  Ni39  1  0.49775510  0.49926599  0.50141989  1
  Ni  Ni40  1  0.33510751  0.33339177  0.66594166  1
  Ni  Ni41  1  0.49718318  0.49972338  0.83321524  1
  Ni  Ni42  1  0.49819637  0.83540275  0.50103085  1
  Ni  Ni43  1  0.33170358  0.66580042  0.66770483  1
  Cr  Cr44  1  0.49981099  0.83355443  0.83256965  1
  Cr  Cr45  1  0.83441266  0.16585100  0.50163346  1
  Fe  Fe46  1  0.66434214  0.99980656  0.66743568  1
  Fe  Fe47  1  0.83248694  0.16521963  0.83392761  1
  Fe  Fe48  1  0.83332052  0.49962333  0.50173988  1
  Cr  Cr49  1  0.66371086  0.33214099  0.66899589  1
  Cr  Cr50  1  0.83574221  0.50115852  0.83212433  1
  Cr  Cr51  1  0.83408249  0.83625796  0.50163324  1
  Fe  Fe52  1  0.66459065  0.66802085  0.66628473  1
  Ni  Ni53  1  0.83510358  0.83654146  0.83214178  1
" 