5291,Ni42Fe42Cr14_2,-233.956864193758, 205.713985219884,Ni42Fe42Cr14,"# generated using pymatgen
 data_Cr9Fe23Ni22
_symmetry_space_group_name_H-M   'P 1'
_cell_length_a   7.43271478
_cell_length_b   7.43271478
_cell_length_c   10.51144604
_cell_angle_alpha   90.00000000
_cell_angle_beta   90.00000000
_cell_angle_gamma   90.00000000
_symmetry_Int_Tables_number   1
_chemical_formula_structural   Cr9Fe23Ni22
_chemical_formula_sum   'Cr9 Fe23 Ni22'
_cell_volume   580.70745318
_cell_formula_units_Z   1
loop_
 _symmetry_equiv_pos_site_id
 _symmetry_equiv_pos_as_xyz
  1  'x, y, z'
loop_
 _atom_site_type_symbol
 _atom_site_label
 _atom_site_symmetry_multiplicity
 _atom_site_fract_x
 _atom_site_fract_y
 _atom_site_fract_z
 _atom_site_occupancy
  Fe  Fe0  1  0.00312052  0.00360061  0.00269696  1
  Ni  Ni1  1  0.16831669  0.17076129  0.16884866  1
  Cr  Cr2  1  0.00359300  0.00304798  0.33527982  1
  Fe  Fe3  1  1.00167076  0.33507624  0.00244705  1
  Ni  Ni4  1  0.16856321  0.49981624  0.16921820  1
  Ni  Ni5  1  1.00158276  0.33560299  0.33452481  1
  Cr  Cr6  1  0.00322618  0.66892577  0.00315362  1
  Fe  Fe7  1  0.17089467  0.83585915  0.16861599  1
  Cr  Cr8  1  0.00300314  0.66804005  0.33496368  1
  Fe  Fe9  1  0.33451388  1.00158857  1.00067388  1
  Cr  Cr10  1  0.50049168  0.16912827  0.16948255  1
  Fe  Fe11  1  0.33467942  1.00134051  0.33704570  1
  Fe  Fe12  1  0.33527115  0.33640134  1.00144524  1
  Fe  Fe13  1  0.50255941  0.50439324  0.16898903  1
  Fe  Fe14  1  0.33407921  0.33504976  0.33472954  1
  Fe  Fe15  1  0.33787989  0.66893639  0.00265901  1
  Ni  Ni16  1  0.50229855  0.83328494  0.17004188  1
  Ni  Ni17  1  0.33679847  0.67043712  0.33362949  1
  Cr  Cr18  1  0.66905494  0.00246791  1.00068090  1
  Fe  Fe19  1  0.83819015  0.17139050  0.16841949  1
  Cr  Cr20  1  0.66750862  1.00207650  0.33702453  1
  Ni  Ni21  1  0.66916414  0.33707609  1.00226832  1
  Ni  Ni22  1  0.83524202  0.50181636  0.17045471  1
  Fe  Fe23  1  0.67059362  0.33733018  0.33547630  1
  Ni  Ni24  1  0.66756753  0.66737661  0.00293491  1
  Ni  Ni25  1  0.83394124  0.83352544  0.16784240  1
  Fe  Fe26  1  0.66872142  0.66878728  0.33424529  1
  Fe  Fe27  1  0.16998361  0.16733011  0.50305488  1
  Fe  Fe28  1  0.00306488  1.00192760  0.66874120  1
  Ni  Ni29  1  0.16963662  0.16978982  0.83524883  1
  Cr  Cr30  1  0.16705237  0.50141195  0.50373233  1
  Ni  Ni31  1  0.00267924  0.33644691  0.66977182  1
  Ni  Ni32  1  0.16797262  0.50083470  0.83442634  1
  Ni  Ni33  1  0.16954304  0.83709016  0.50301392  1
  Ni  Ni34  1  0.00241125  0.66920583  0.66897170  1
  Ni  Ni35  1  0.16990542  0.83630568  0.83526813  1
  Ni  Ni36  1  0.50119660  0.16677687  0.50216966  1
  Ni  Ni37  1  0.33640408  1.00172314  0.66791343  1
  Ni  Ni38  1  0.50065043  0.16824755  0.83522668  1
  Cr  Cr39  1  0.50268516  0.50261281  0.50093072  1
  Fe  Fe40  1  0.33343452  0.33373650  0.67075158  1
  Fe  Fe41  1  0.50128538  0.50290773  0.83673265  1
  Ni  Ni42  1  0.50268663  0.83788269  0.50252002  1
  Fe  Fe43  1  0.33451907  0.67083183  0.66996755  1
  Ni  Ni44  1  0.50218531  0.83605513  0.83436038  1
  Fe  Fe45  1  0.83619077  0.16909457  0.50282103  1
  Fe  Fe46  1  0.66863709  1.00083694  0.66849933  1
  Fe  Fe47  1  0.83739368  0.16956922  0.83568753  1
  Fe  Fe48  1  0.83579109  0.50288069  0.50261540  1
  Cr  Cr49  1  0.66936818  0.33414991  0.66983750  1
  Ni  Ni50  1  0.83638714  0.50236543  0.83502822  1
  Ni  Ni51  1  0.83470181  0.83501577  0.50524147  1
  Fe  Fe52  1  0.67029298  0.67140612  0.67000999  1
  Fe  Fe53  1  0.83613187  0.83514410  0.83438282  1
" 