6354,Ni42Fe37Cr20_3,-231.720271798149, 197.20789683495,Ni42Fe37Cr20,"# generated using pymatgen
 data_Cr6Fe10Ni11
_symmetry_space_group_name_H-M   'P 1'
_cell_length_a   7.44106906
_cell_length_b   7.44106906
_cell_length_c   10.52326078
_cell_angle_alpha   90.00000000
_cell_angle_beta   90.00000000
_cell_angle_gamma   90.00000000
_symmetry_Int_Tables_number   1
_chemical_formula_structural   Cr6Fe10Ni11
_chemical_formula_sum   'Cr12 Fe20 Ni22'
_cell_volume   582.66777955
_cell_formula_units_Z   2
loop_
 _symmetry_equiv_pos_site_id
 _symmetry_equiv_pos_as_xyz
  1  'x, y, z'
loop_
 _atom_site_type_symbol
 _atom_site_label
 _atom_site_symmetry_multiplicity
 _atom_site_fract_x
 _atom_site_fract_y
 _atom_site_fract_z
 _atom_site_occupancy
  Cr  Cr0  1  1.00169622  0.00200842  0.00246701  1
  Ni  Ni1  1  0.17144803  0.16950949  0.16847777  1
  Fe  Fe2  1  0.00408209  0.00293975  0.33757907  1
  Cr  Cr3  1  0.00548686  0.33750667  1.00143027  1
  Ni  Ni4  1  0.16903742  0.50120734  0.16901433  1
  Ni  Ni5  1  0.00413777  0.33436829  0.33398706  1
  Ni  Ni6  1  0.00322464  0.66756734  0.99950832  1
  Cr  Cr7  1  0.16883486  0.83411998  0.17013666  1
  Ni  Ni8  1  0.00484616  0.66675531  0.33727281  1
  Ni  Ni9  1  0.33652402  0.00275338  1.00072956  1
  Ni  Ni10  1  0.49873921  0.16910933  0.16863391  1
  Fe  Fe11  1  0.33301825  0.00256352  0.33628035  1
  Ni  Ni12  1  0.33392896  0.33559896  0.00255753  1
  Cr  Cr13  1  0.49997576  0.50204092  0.16979522  1
  Fe  Fe14  1  0.33288477  0.33424072  0.33597850  1
  Fe  Fe15  1  0.33300674  0.66718694  0.99965999  1
  Cr  Cr16  1  0.50003354  0.83474918  0.16511361  1
  Ni  Ni17  1  0.33395345  0.66728550  0.33749594  1
  Ni  Ni18  1  0.66651208  0.99965296  1.00142096  1
  Fe  Fe19  1  0.83549317  0.16873180  0.17031415  1
  Cr  Cr20  1  0.66724319  0.00181946  0.33568778  1
  Cr  Cr21  1  0.66772302  0.33367585  0.00209763  1
  Cr  Cr22  1  0.83619576  0.50394122  0.16893172  1
  Fe  Fe23  1  0.66824263  0.33495504  0.33585160  1
  Fe  Fe24  1  0.66841549  0.66891998  0.99749095  1
  Cr  Cr25  1  0.83620741  0.83289675  0.16929295  1
  Fe  Fe26  1  0.66747172  0.66836417  0.33848343  1
  Ni  Ni27  1  0.16829880  0.16839856  0.50302675  1
  Fe  Fe28  1  0.00225991  1.00054075  0.66709452  1
  Fe  Fe29  1  0.17028320  0.16766690  0.83371980  1
  Fe  Fe30  1  0.16814739  0.50142995  0.50111904  1
  Ni  Ni31  1  0.00504829  0.33571318  0.66905027  1
  Fe  Fe32  1  0.17004534  0.50250513  0.83434233  1
  Ni  Ni33  1  0.16885751  0.83588776  0.50144276  1
  Fe  Fe34  1  0.00242410  0.66978092  0.66876004  1
  Ni  Ni35  1  0.16876849  0.83440480  0.83463625  1
  Fe  Fe36  1  0.50126173  0.16725351  0.50327395  1
  Fe  Fe37  1  0.33398307  1.00063057  0.66763526  1
  Cr  Cr38  1  0.49932702  0.16929807  0.83351773  1
  Fe  Fe39  1  0.49966669  0.50226549  0.50317831  1
  Ni  Ni40  1  0.33251892  0.33667106  0.66683105  1
  Ni  Ni41  1  0.50024126  0.50260892  0.83411639  1
  Ni  Ni42  1  0.49999574  0.83392270  0.50329264  1
  Fe  Fe43  1  0.33525514  0.66828703  0.66770501  1
  Fe  Fe44  1  0.50204236  0.83453894  0.83438194  1
  Ni  Ni45  1  0.83665852  0.16922433  0.50241494  1
  Ni  Ni46  1  0.66856958  0.99877716  0.66711370  1
  Cr  Cr47  1  0.83538745  0.16758307  0.83251583  1
  Cr  Cr48  1  0.83474842  0.50118108  0.50319675  1
  Fe  Fe49  1  0.66711669  0.33614434  0.66776387  1
  Fe  Fe50  1  0.83502946  0.50457013  0.83282880  1
  Ni  Ni51  1  0.83643299  0.83531115  0.50265295  1
  Ni  Ni52  1  0.66739941  0.67165609  0.66871475  1
  Ni  Ni53  1  0.83613273  0.83354360  0.83424875  1
" 