8448,Ni42Fe22Cr34_2,-225.616274708488, 176.906549319422,Ni42Fe22Cr34,"# generated using pymatgen
 data_Cr10Fe6Ni11
_symmetry_space_group_name_H-M   'P 1'
_cell_length_a   7.47390381
_cell_length_b   7.47390381
_cell_length_c   10.56969613
_cell_angle_alpha   90.00000000
_cell_angle_beta   90.00000000
_cell_angle_gamma   90.00000000
_symmetry_Int_Tables_number   1
_chemical_formula_structural   Cr10Fe6Ni11
_chemical_formula_sum   'Cr20 Fe12 Ni22'
_cell_volume   590.41517255
_cell_formula_units_Z   2
loop_
 _symmetry_equiv_pos_site_id
 _symmetry_equiv_pos_as_xyz
  1  'x, y, z'
loop_
 _atom_site_type_symbol
 _atom_site_label
 _atom_site_symmetry_multiplicity
 _atom_site_fract_x
 _atom_site_fract_y
 _atom_site_fract_z
 _atom_site_occupancy
  Cr  Cr0  1  -0.00005874  0.00122865  0.99741611  1
  Ni  Ni1  1  0.16826932  0.16788236  0.16705358  1
  Fe  Fe2  1  0.99878148  0.00251415  0.33368217  1
  Cr  Cr3  1  0.00036494  0.33245804  0.00093161  1
  Fe  Fe4  1  0.16598076  0.49692404  0.16661564  1
  Fe  Fe5  1  0.00157815  0.33188320  0.33208973  1
  Ni  Ni6  1  0.00095472  0.66557712  0.00087155  1
  Cr  Cr7  1  0.16654236  0.83285297  0.16545594  1
  Fe  Fe8  1  0.99789884  0.66427297  0.33329162  1
  Fe  Fe9  1  0.33296865  0.00042187  0.00025200  1
  Ni  Ni10  1  0.49669840  0.16837549  0.16590062  1
  Cr  Cr11  1  0.33182513  0.00340945  0.33188817  1
  Fe  Fe12  1  0.33276315  0.33295231  0.00109402  1
  Ni  Ni13  1  0.49901869  0.49849639  0.16667369  1
  Ni  Ni14  1  0.33016202  0.33273723  0.33267070  1
  Fe  Fe15  1  0.33387840  0.66528668  0.99943695  1
  Fe  Fe16  1  0.49967745  0.83260935  0.16567775  1
  Cr  Cr17  1  0.33365497  0.66264777  0.33347009  1
  Cr  Cr18  1  0.66532625  -0.00031220  0.99919803  1
  Ni  Ni19  1  0.83368180  0.16844971  0.16771286  1
  Cr  Cr20  1  0.66771494  0.99935129  0.33270116  1
  Cr  Cr21  1  0.66614491  0.33292226  0.00080933  1
  Ni  Ni22  1  0.83285638  0.49988115  0.16771206  1
  Cr  Cr23  1  0.66570146  0.33355091  0.33152025  1
  Cr  Cr24  1  0.66531666  0.66601276  0.99917316  1
  Cr  Cr25  1  0.83347892  0.83054960  0.16889825  1
  Ni  Ni26  1  0.66784965  0.66567260  0.33153589  1
  Ni  Ni27  1  0.16528565  0.16973074  0.49911560  1
  Fe  Fe28  1  0.99641287  0.00120225  0.66628653  1
  Ni  Ni29  1  0.16584300  0.16648093  0.83235910  1
  Ni  Ni30  1  0.16756093  0.49702565  0.49988924  1
  Fe  Fe31  1  0.00053966  0.33074031  0.66541648  1
  Cr  Cr32  1  0.16803146  0.49937554  0.83235020  1
  Cr  Cr33  1  0.16330255  0.83182518  0.50056844  1
  Ni  Ni34  1  0.00059249  0.66716366  0.66547528  1
  Cr  Cr35  1  0.16609617  0.83244521  0.83260694  1
  Fe  Fe36  1  0.49962323  0.16919257  0.50089525  1
  Cr  Cr37  1  0.33241490  0.00065855  0.66612244  1
  Cr  Cr38  1  0.49942823  0.16753584  0.83197529  1
  Fe  Fe39  1  0.49726511  0.49692675  0.50044041  1
  Ni  Ni40  1  0.33229299  0.33438345  0.66435751  1
  Ni  Ni41  1  0.49751606  0.50041969  0.83108320  1
  Cr  Cr42  1  0.50156619  0.83225451  0.49957557  1
  Ni  Ni43  1  0.33181039  0.66259631  0.66681582  1
  Ni  Ni44  1  0.49960836  0.83140049  0.83414970  1
  Ni  Ni45  1  0.83403405  0.16472134  0.50130905  1
  Ni  Ni46  1  0.67004853  0.00137928  0.66658164  1
  Ni  Ni47  1  0.83358178  0.16431361  0.82954788  1
  Cr  Cr48  1  0.83342195  0.49983204  0.49918364  1
  Ni  Ni49  1  0.66543828  0.32986828  0.66594259  1
  Cr  Cr50  1  0.83246257  0.49924234  0.83195319  1
  Ni  Ni51  1  0.83374466  0.83431980  0.49945075  1
  Cr  Cr52  1  0.66554283  0.66731551  0.66744977  1
  Ni  Ni53  1  0.83273696  0.83427357  0.83059705  1
" 