2422,Ni42Fe58_10,-242.114793629709, 221.859540114723,Ni42Fe58,"# generated using pymatgen
 data_Fe11Ni16
_symmetry_space_group_name_H-M   'P 1'
_cell_length_a   7.40401653
_cell_length_b   7.40401653
_cell_length_c   10.47086059
_cell_angle_alpha   90.00000000
_cell_angle_beta   90.00000000
_cell_angle_gamma   90.00000000
_symmetry_Int_Tables_number   1
_chemical_formula_structural   Fe11Ni16
_chemical_formula_sum   'Fe22 Ni32'
_cell_volume   574.00693062
_cell_formula_units_Z   2
loop_
 _symmetry_equiv_pos_site_id
 _symmetry_equiv_pos_as_xyz
  1  'x, y, z'
loop_
 _atom_site_type_symbol
 _atom_site_label
 _atom_site_symmetry_multiplicity
 _atom_site_fract_x
 _atom_site_fract_y
 _atom_site_fract_z
 _atom_site_occupancy
  Ni  Ni0  1  0.00511926  1.00363872  0.00434030  1
  Fe  Fe1  1  0.17072303  0.16976768  0.17040184  1
  Ni  Ni2  1  0.00508926  1.00377494  0.33768901  1
  Fe  Fe3  1  0.00453591  0.33834712  0.00441108  1
  Ni  Ni4  1  0.16949362  0.50367616  0.17051276  1
  Fe  Fe5  1  0.00521912  0.33797957  0.33719780  1
  Ni  Ni6  1  1.00423711  0.67203634  0.00533271  1
  Fe  Fe7  1  0.17116251  0.83742495  0.17128601  1
  Fe  Fe8  1  0.00465571  0.67108495  0.33767029  1
  Ni  Ni9  1  0.33616646  1.00364339  1.00424888  1
  Ni  Ni10  1  0.50366389  0.16987466  0.17010460  1
  Ni  Ni11  1  0.33607844  1.00291261  0.33815930  1
  Fe  Fe12  1  0.33723615  0.33763715  1.00373660  1
  Fe  Fe13  1  0.50525059  0.50493480  0.17068823  1
  Fe  Fe14  1  0.33731439  0.33698475  0.33811115  1
  Ni  Ni15  1  0.33741275  0.67167555  0.00446677  1
  Ni  Ni16  1  0.50526626  0.83923218  0.17109999  1
  Ni  Ni17  1  0.33729442  0.67166625  0.33731851  1
  Fe  Fe18  1  0.67060503  1.00274043  1.00349714  1
  Fe  Fe19  1  0.83718542  0.17123415  0.17063565  1
  Fe  Fe20  1  0.66984489  1.00374770  0.33818982  1
  Ni  Ni21  1  0.67111762  0.33833185  0.00436487  1
  Ni  Ni22  1  0.83997583  0.50527658  0.17073061  1
  Ni  Ni23  1  0.67123455  0.33817716  0.33756948  1
  Ni  Ni24  1  0.67112353  0.66843215  0.00447061  1
  Ni  Ni25  1  0.83675978  0.83636270  0.17072474  1
  Fe  Fe26  1  0.67084010  0.67235954  0.33667352  1
  Fe  Fe27  1  0.17148147  0.16900611  0.50486329  1
  Ni  Ni28  1  1.00420944  1.00309492  0.67074129  1
  Ni  Ni29  1  0.17148356  0.17265877  0.83701892  1
  Ni  Ni30  1  0.17024902  0.50414790  0.50466798  1
  Fe  Fe31  1  0.00524941  0.33706956  0.67115904  1
  Fe  Fe32  1  0.17123595  0.50450949  0.83727352  1
  Ni  Ni33  1  0.17061283  0.83595145  0.50453397  1
  Ni  Ni34  1  0.00509877  0.67223004  0.67049378  1
  Fe  Fe35  1  0.17084269  0.83926599  0.83714682  1
  Ni  Ni36  1  0.50401826  0.17031389  0.50517940  1
  Ni  Ni37  1  0.33695222  1.00398724  0.67036094  1
  Ni  Ni38  1  0.50366962  0.17030748  0.83748289  1
  Fe  Fe39  1  0.50362123  0.50498963  0.50449216  1
  Ni  Ni40  1  0.33967844  0.33780378  0.67035890  1
  Fe  Fe41  1  0.50493201  0.50357901  0.83758788  1
  Ni  Ni42  1  0.50472545  0.83921847  0.50453945  1
  Ni  Ni43  1  0.33642297  0.67098028  0.67098397  1
  Ni  Ni44  1  0.50527876  0.83836983  0.83712857  1
  Fe  Fe45  1  0.83739838  0.16984765  0.50485694  1
  Ni  Ni46  1  0.67160792  0.00635480  0.67084119  1
  Ni  Ni47  1  0.83761961  0.17066694  0.83786273  1
  Fe  Fe48  1  0.83714570  0.50485889  0.50381931  1
  Ni  Ni49  1  0.67035739  0.33691420  0.67083854  1
  Fe  Fe50  1  0.83660499  0.50374164  0.83850091  1
  Ni  Ni51  1  0.83742770  0.83722932  0.50444540  1
  Fe  Fe52  1  0.67055862  0.67255310  0.67144304  1
  Ni  Ni53  1  0.83676551  0.83724915  0.83760041  1
" 