7477,Ni42Fe32Cr25_14,-229.911420806337, 190.355819517078,Ni42Fe32Cr25,"# generated using pymatgen
 data_Cr15Fe17Ni22
_symmetry_space_group_name_H-M   'P 1'
_cell_length_a   7.45394668
_cell_length_b   7.45394668
_cell_length_c   10.54147249
_cell_angle_alpha   90.00000000
_cell_angle_beta   90.00000000
_cell_angle_gamma   90.00000000
_symmetry_Int_Tables_number   1
_chemical_formula_structural   Cr15Fe17Ni22
_chemical_formula_sum   'Cr15 Fe17 Ni22'
_cell_volume   585.69813866
_cell_formula_units_Z   1
loop_
 _symmetry_equiv_pos_site_id
 _symmetry_equiv_pos_as_xyz
  1  'x, y, z'
loop_
 _atom_site_type_symbol
 _atom_site_label
 _atom_site_symmetry_multiplicity
 _atom_site_fract_x
 _atom_site_fract_y
 _atom_site_fract_z
 _atom_site_occupancy
  Fe  Fe0  1  0.00258612  1.00023036  0.00206391  1
  Ni  Ni1  1  0.16544983  0.16874641  0.16402818  1
  Cr  Cr2  1  1.00027414  0.00174177  0.33208426  1
  Fe  Fe3  1  0.00272282  0.33431879  0.00205783  1
  Ni  Ni4  1  0.16669835  0.50108257  0.16814945  1
  Ni  Ni5  1  0.99952994  0.33615969  0.33457471  1
  Fe  Fe6  1  0.00143945  0.66792691  0.99985829  1
  Fe  Fe7  1  0.16704994  0.83244859  0.16625541  1
  Ni  Ni8  1  0.00142545  0.66515490  0.33424316  1
  Ni  Ni9  1  0.33335248  0.00171787  0.00191402  1
  Ni  Ni10  1  0.50184003  0.16914464  0.16492699  1
  Cr  Cr11  1  0.33523603  0.99901517  0.32919203  1
  Ni  Ni12  1  0.33439715  0.33314094  1.00014212  1
  Ni  Ni13  1  0.50101590  0.50186443  0.16729702  1
  Cr  Cr14  1  0.33133183  0.33526238  0.33167297  1
  Cr  Cr15  1  0.33565491  0.66787322  0.00162383  1
  Ni  Ni16  1  0.50119218  0.83154940  0.16781140  1
  Ni  Ni17  1  0.33343205  0.66710045  0.33284405  1
  Cr  Cr18  1  0.66485314  0.99914911  0.00134923  1
  Ni  Ni19  1  0.83564294  0.16864964  0.16781759  1
  Cr  Cr20  1  0.66721719  1.00063114  0.33405845  1
  Ni  Ni21  1  0.66639258  0.33496186  0.00179366  1
  Cr  Cr22  1  0.83372021  0.50083691  0.16632463  1
  Fe  Fe23  1  0.66857784  0.33469134  0.33244497  1
  Ni  Ni24  1  0.66817985  0.66715435  0.99994520  1
  Fe  Fe25  1  0.83438685  0.83276737  0.16650232  1
  Fe  Fe26  1  0.66721620  0.66838587  0.33303910  1
  Cr  Cr27  1  0.16738990  0.16750651  0.50319637  1
  Fe  Fe28  1  1.00061018  0.99730065  0.66901180  1
  Fe  Fe29  1  0.17147113  0.16563701  0.83516797  1
  Ni  Ni30  1  0.16504315  0.50355414  0.50131843  1
  Cr  Cr31  1  0.00163701  0.33733289  0.66743700  1
  Fe  Fe32  1  0.16969877  0.50204181  0.83410943  1
  Cr  Cr33  1  0.16954694  0.83152421  0.50058026  1
  Ni  Ni34  1  0.00165358  0.66731308  0.66896791  1
  Ni  Ni35  1  0.16630445  0.83443607  0.83384296  1
  Cr  Cr36  1  0.50081909  0.16589470  0.50309487  1
  Ni  Ni37  1  0.33548413  0.99921557  0.67042022  1
  Ni  Ni38  1  0.50002598  0.16763214  0.83401869  1
  Cr  Cr39  1  0.49857989  0.50393991  0.49845646  1
  Fe  Fe40  1  0.33359353  0.33775868  0.67041526  1
  Ni  Ni41  1  0.50098190  0.50066609  0.83569759  1
  Ni  Ni42  1  0.50164843  0.83298269  0.50218597  1
  Ni  Ni43  1  0.33274043  0.66890660  0.66832942  1
  Ni  Ni44  1  0.49819055  0.83433205  0.83281271  1
  Fe  Fe45  1  0.83439787  0.16791201  0.50016427  1
  Fe  Fe46  1  0.66732119  0.99838450  0.66842367  1
  Cr  Cr47  1  0.83508839  0.16746998  0.83587992  1
  Fe  Fe48  1  0.83541490  0.50334069  0.49901218  1
  Cr  Cr49  1  0.66812557  0.33480063  0.66792836  1
  Fe  Fe50  1  0.83388292  0.50344942  0.83705786  1
  Fe  Fe51  1  0.83458569  0.83200043  0.50128077  1
  Cr  Cr52  1  0.66795537  0.66785425  0.66947319  1
  Fe  Fe53  1  0.83444841  0.83256192  0.83515638  1
" 