8221,Ni42Fe42Cr14_15,-234.305382205598, 205.146625296499,Ni42Fe42Cr14,"# generated using pymatgen
 data_Cr9Fe23Ni22
_symmetry_space_group_name_H-M   'P 1'
_cell_length_a   7.43461050
_cell_length_b   7.43461050
_cell_length_c   10.51412700
_cell_angle_alpha   90.00000000
_cell_angle_beta   90.00000000
_cell_angle_gamma   90.00000000
_symmetry_Int_Tables_number   1
_chemical_formula_structural   Cr9Fe23Ni22
_chemical_formula_sum   'Cr9 Fe23 Ni22'
_cell_volume   581.15189738
_cell_formula_units_Z   1
loop_
 _symmetry_equiv_pos_site_id
 _symmetry_equiv_pos_as_xyz
  1  'x, y, z'
loop_
 _atom_site_type_symbol
 _atom_site_label
 _atom_site_symmetry_multiplicity
 _atom_site_fract_x
 _atom_site_fract_y
 _atom_site_fract_z
 _atom_site_occupancy
  Fe  Fe0  1  0.00238555  0.00265723  0.99986324  1
  Fe  Fe1  1  0.17093971  0.16932138  0.17087431  1
  Fe  Fe2  1  0.00403893  1.00020349  0.33810357  1
  Fe  Fe3  1  1.00148675  0.33581551  1.00103238  1
  Ni  Ni4  1  0.16734843  0.50273575  0.17232440  1
  Ni  Ni5  1  0.00430589  0.33483120  0.33613290  1
  Cr  Cr6  1  1.00076663  0.66810966  1.00205213  1
  Fe  Fe7  1  0.16968571  0.83505009  0.17208524  1
  Ni  Ni8  1  1.00073965  0.66796860  0.33670268  1
  Cr  Cr9  1  0.33511640  0.00359545  1.00197395  1
  Ni  Ni10  1  0.50391153  0.16918113  0.17165332  1
  Fe  Fe11  1  0.33438541  1.00069195  0.33555353  1
  Cr  Cr12  1  0.33440270  0.33523414  0.00371713  1
  Ni  Ni13  1  0.50118911  0.50334671  0.17025741  1
  Ni  Ni14  1  0.33459676  0.33458065  0.33379305  1
  Cr  Cr15  1  0.33792964  0.66842579  1.00191981  1
  Ni  Ni16  1  0.50250023  0.83473628  0.17262968  1
  Ni  Ni17  1  0.33615378  0.66682073  0.33516933  1
  Cr  Cr18  1  0.66781246  1.00026682  1.00048229  1
  Cr  Cr19  1  0.83720303  0.16828926  0.16962682  1
  Fe  Fe20  1  0.66910627  1.00109389  0.33680596  1
  Fe  Fe21  1  0.66869201  0.33795907  0.00219815  1
  Fe  Fe22  1  0.83344801  0.50280769  0.17103215  1
  Fe  Fe23  1  0.66810232  0.34044585  0.33586576  1
  Ni  Ni24  1  0.66999529  0.66844046  0.00330246  1
  Fe  Fe25  1  0.83443167  0.83303815  0.17018398  1
  Ni  Ni26  1  0.66847172  0.67092471  0.33460036  1
  Fe  Fe27  1  0.16976340  0.17096157  0.50282041  1
  Cr  Cr28  1  1.00079171  0.00220047  0.66875253  1
  Ni  Ni29  1  0.16633900  0.17186236  0.83472953  1
  Fe  Fe30  1  0.16994070  0.50159585  0.50169884  1
  Ni  Ni31  1  0.00285647  0.33679794  0.66802246  1
  Ni  Ni32  1  0.16837751  0.50169364  0.83128810  1
  Fe  Fe33  1  0.17151026  0.83301580  0.50234789  1
  Ni  Ni34  1  0.00285023  0.66641373  0.66747095  1
  Fe  Fe35  1  0.16851691  0.83538474  0.83275687  1
  Cr  Cr36  1  0.50268896  0.16965866  0.50291315  1
  Ni  Ni37  1  0.33667364  0.00297730  0.67044200  1
  Fe  Fe38  1  0.50240674  0.16919401  0.83259655  1
  Ni  Ni39  1  0.49995918  0.50323036  0.50140657  1
  Ni  Ni40  1  0.33411373  0.33570064  0.66957214  1
  Fe  Fe41  1  0.50313367  0.50119462  0.83437340  1
  Fe  Fe42  1  0.50041100  0.83398626  0.50217831  1
  Ni  Ni43  1  0.33514461  0.66743358  0.66900418  1
  Ni  Ni44  1  0.50305085  0.83434347  0.83199389  1
  Fe  Fe45  1  0.83596358  0.17150267  0.50167821  1
  Ni  Ni46  1  0.66825619  0.00292179  0.66871729  1
  Ni  Ni47  1  0.83545375  0.17001038  0.83392693  1
  Fe  Fe48  1  0.83536311  0.50131669  0.50036339  1
  Fe  Fe49  1  0.66916801  0.33580906  0.66858385  1
  Fe  Fe50  1  0.83650105  0.50126716  0.83497772  1
  Fe  Fe51  1  0.83445870  0.83457774  0.50102908  1
  Cr  Cr52  1  0.67044333  0.66994749  0.66863069  1
  Ni  Ni53  1  0.83451875  0.83623105  0.83558976  1
" 