7211,Ni42Fe26Cr30_9,-228.415017664025, 185.375958613655,Ni42Fe26Cr30,"# generated using pymatgen
 data_Cr17Fe14Ni23
_symmetry_space_group_name_H-M   'P 1'
_cell_length_a   7.46272391
_cell_length_b   7.46272391
_cell_length_c   10.55388536
_cell_angle_alpha   90.00000000
_cell_angle_beta   90.00000000
_cell_angle_gamma   90.00000000
_symmetry_Int_Tables_number   1
_chemical_formula_structural   Cr17Fe14Ni23
_chemical_formula_sum   'Cr17 Fe14 Ni23'
_cell_volume   587.76960251
_cell_formula_units_Z   1
loop_
 _symmetry_equiv_pos_site_id
 _symmetry_equiv_pos_as_xyz
  1  'x, y, z'
loop_
 _atom_site_type_symbol
 _atom_site_label
 _atom_site_symmetry_multiplicity
 _atom_site_fract_x
 _atom_site_fract_y
 _atom_site_fract_z
 _atom_site_occupancy
  Cr  Cr0  1  0.00097269  0.99914119  0.00259279  1
  Ni  Ni1  1  0.16512383  0.16733688  0.16951932  1
  Fe  Fe2  1  0.99974238  0.00066476  0.33244501  1
  Cr  Cr3  1  0.99768188  0.33337515  0.00366184  1
  Ni  Ni4  1  0.16845095  0.49968769  0.16781143  1
  Fe  Fe5  1  0.00061609  0.33165706  0.33169069  1
  Cr  Cr6  1  0.00298087  0.66837089  0.00271384  1
  Ni  Ni7  1  0.16695116  0.83383306  0.16615190  1
  Cr  Cr8  1  0.99945998  0.66871378  0.33210445  1
  Ni  Ni9  1  0.33429133  0.99762678  0.99934440  1
  Cr  Cr10  1  0.50029651  0.16595844  0.16658182  1
  Ni  Ni11  1  0.33171875  0.00133121  0.33345042  1
  Cr  Cr12  1  0.33663304  0.33390756  0.00155852  1
  Ni  Ni13  1  0.49900856  0.50148659  0.16696024  1
  Ni  Ni14  1  0.33366514  0.33330056  0.33304512  1
  Ni  Ni15  1  0.33315332  0.66884374  0.00088566  1
  Cr  Cr16  1  0.50121055  0.83303531  0.16757804  1
  Fe  Fe17  1  0.33520705  0.66626239  0.33277546  1
  Ni  Ni18  1  0.66629788  0.00309934  0.99947322  1
  Ni  Ni19  1  0.83493458  0.16558044  0.16601434  1
  Ni  Ni20  1  0.66879909  0.99960068  0.33437489  1
  Ni  Ni21  1  0.66671608  0.33188570  0.00037769  1
  Fe  Fe22  1  0.83313735  0.49967714  0.16743229  1
  Cr  Cr23  1  0.66534787  0.33431825  0.33359707  1
  Cr  Cr24  1  0.66575445  0.66537097  0.00224108  1
  Ni  Ni25  1  0.83317898  0.83558769  0.16870658  1
  Ni  Ni26  1  0.66847913  0.66676580  0.33396045  1
  Cr  Cr27  1  0.16740906  0.16680785  0.49978942  1
  Ni  Ni28  1  1.00020940  1.00016324  0.66550472  1
  Cr  Cr29  1  0.16736457  0.16643767  0.83125945  1
  Cr  Cr30  1  0.16878231  0.49870253  0.50133748  1
  Ni  Ni31  1  0.99699482  0.33155111  0.66578347  1
  Cr  Cr32  1  0.16891316  0.50026181  0.83175894  1
  Ni  Ni33  1  0.16660535  0.83532220  0.50185736  1
  Cr  Cr34  1  0.00119477  0.66939071  0.66605694  1
  Fe  Fe35  1  0.17076919  0.83433698  0.83261479  1
  Ni  Ni36  1  0.50129451  0.16762074  0.50177593  1
  Ni  Ni37  1  0.33333884  0.99939226  0.66802971  1
  Fe  Fe38  1  0.50242796  0.16637599  0.83266535  1
  Ni  Ni39  1  0.50165121  0.49978564  0.50216067  1
  Ni  Ni40  1  0.33783882  0.33353725  0.66644928  1
  Fe  Fe41  1  0.50011170  0.50014319  0.83212200  1
  Cr  Cr42  1  0.50105305  0.83361352  0.49908504  1
  Ni  Ni43  1  0.33482010  0.66794391  0.66757121  1
  Fe  Fe44  1  0.49733337  0.83433825  0.83349311  1
  Fe  Fe45  1  0.83237557  0.16636827  0.50113666  1
  Fe  Fe46  1  0.66637897  0.00289720  0.66669342  1
  Fe  Fe47  1  0.83112084  0.16749168  0.83262815  1
  Fe  Fe48  1  0.83096855  0.49945512  0.50154235  1
  Ni  Ni49  1  0.66597729  0.33301079  0.66651523  1
  Cr  Cr50  1  0.83218202  0.49777557  0.83293071  1
  Fe  Fe51  1  0.83317900  0.83510239  0.49956207  1
  Fe  Fe52  1  0.66430303  0.66531276  0.66565317  1
  Cr  Cr53  1  0.83123614  0.83608538  0.83261786  1
" 