6497,Ni42Fe5Cr52_0,-216.94238710167, 132.95478398805,Ni42Fe5Cr52,"# generated using pymatgen
 data_Cr15FeNi11
_symmetry_space_group_name_H-M   'P 1'
_cell_length_a   7.53057995
_cell_length_b   7.53057995
_cell_length_c   10.64984829
_cell_angle_alpha   90.00000000
_cell_angle_beta   90.00000000
_cell_angle_gamma   90.00000000
_symmetry_Int_Tables_number   1
_chemical_formula_structural   Cr15FeNi11
_chemical_formula_sum   'Cr30 Fe2 Ni22'
_cell_volume   603.94900209
_cell_formula_units_Z   2
loop_
 _symmetry_equiv_pos_site_id
 _symmetry_equiv_pos_as_xyz
  1  'x, y, z'
loop_
 _atom_site_type_symbol
 _atom_site_label
 _atom_site_symmetry_multiplicity
 _atom_site_fract_x
 _atom_site_fract_y
 _atom_site_fract_z
 _atom_site_occupancy
  Cr  Cr0  1  -0.00362228  -0.00134155  0.99405588  1
  Ni  Ni1  1  0.16356581  0.16549932  0.16395308  1
  Ni  Ni2  1  -0.00319760  0.99519346  0.33070529  1
  Cr  Cr3  1  -0.00130834  0.32905119  0.99564234  1
  Ni  Ni4  1  0.16484894  0.49398754  0.16268307  1
  Cr  Cr5  1  0.00009973  0.32925444  0.32692945  1
  Cr  Cr6  1  0.00069079  0.65968427  0.99467117  1
  Cr  Cr7  1  0.16247114  0.82899818  0.16287271  1
  Ni  Ni8  1  0.99462864  0.66287003  0.33006379  1
  Cr  Cr9  1  0.33135147  0.99413205  0.99503740  1
  Cr  Cr10  1  0.49297389  0.16301059  0.16129770  1
  Cr  Cr11  1  0.32920754  -0.00217119  0.32941176  1
  Ni  Ni12  1  0.32605663  0.32998194  0.99438390  1
  Cr  Cr13  1  0.49276558  0.49623269  0.16191711  1
  Ni  Ni14  1  0.32663545  0.32923496  0.33179832  1
  Ni  Ni15  1  0.32850417  0.66163651  0.99455063  1
  Ni  Ni16  1  0.49672725  0.82754957  0.16111689  1
  Cr  Cr17  1  0.33045114  0.66164051  0.32907197  1
  Ni  Ni18  1  0.65962354  -0.00416704  0.99341722  1
  Cr  Cr19  1  0.83049875  0.16008294  0.16171850  1
  Cr  Cr20  1  0.66041243  0.99278468  0.33022678  1
  Cr  Cr21  1  0.66341505  0.32522761  0.99395522  1
  Cr  Cr22  1  0.82952500  0.49789559  0.16389225  1
  Cr  Cr23  1  0.66028822  0.33040843  0.33068242  1
  Cr  Cr24  1  0.65888847  0.66599428  -0.00378967  1
  Cr  Cr25  1  0.82876455  0.82931975  0.16563665  1
  Ni  Ni26  1  0.66258676  0.66444377  0.33151639  1
  Ni  Ni27  1  0.16467216  0.16347823  0.49524888  1
  Ni  Ni28  1  -0.00262332  -0.00229122  0.66318858  1
  Ni  Ni29  1  0.16318969  0.16297691  0.82824448  1
  Fe  Fe30  1  0.16525601  0.49403001  0.49456130  1
  Cr  Cr31  1  -0.00159746  0.32741961  0.66477267  1
  Ni  Ni32  1  0.16563858  0.49488873  0.83021178  1
  Cr  Cr33  1  0.15834003  0.83167454  0.49559627  1
  Cr  Cr34  1  -0.00207514  0.66260134  0.66323574  1
  Ni  Ni35  1  0.16408682  0.82939479  0.82919016  1
  Ni  Ni36  1  0.49135509  0.16553191  0.49583820  1
  Cr  Cr37  1  0.32930688  -0.00361003  0.66294698  1
  Ni  Ni38  1  0.49467817  0.16173007  0.83015700  1
  Ni  Ni39  1  0.49376472  0.49464275  0.49451407  1
  Fe  Fe40  1  0.32812871  0.32729138  0.66184987  1
  Cr  Cr41  1  0.49223954  0.49437399  0.83007476  1
  Ni  Ni42  1  0.49830721  0.82720281  0.49447883  1
  Cr  Cr43  1  0.32930195  0.66283169  0.66352091  1
  Ni  Ni44  1  0.49355830  0.83087634  0.83166880  1
  Cr  Cr45  1  0.83151605  0.15854829  0.49616165  1
  Cr  Cr46  1  0.66066875  -0.00396769  0.66296433  1
  Ni  Ni47  1  0.82939288  0.16007269  0.82928854  1
  Cr  Cr48  1  0.82759774  0.49962663  0.49400287  1
  Cr  Cr49  1  0.66103224  0.32726855  0.66260550  1
  Cr  Cr50  1  0.82940433  0.49454689  0.82952062  1
  Ni  Ni51  1  0.82964621  0.82846044  0.49341898  1
  Cr  Cr52  1  0.66008092  0.66399374  0.65956349  1
  Cr  Cr53  1  0.83049255  0.83218443  0.82796884  1
" 