3184,Ni42Fe5Cr52_19,-217.159685882299, 138.606363518121,Ni42Fe5Cr52,"# generated using pymatgen
 data_Cr15FeNi11
_symmetry_space_group_name_H-M   'P 1'
_cell_length_a   7.52969941
_cell_length_b   7.52969941
_cell_length_c   10.64860303
_cell_angle_alpha   90.00000000
_cell_angle_beta   90.00000000
_cell_angle_gamma   90.00000000
_symmetry_Int_Tables_number   1
_chemical_formula_structural   Cr15FeNi11
_chemical_formula_sum   'Cr30 Fe2 Ni22'
_cell_volume   603.73717189
_cell_formula_units_Z   2
loop_
 _symmetry_equiv_pos_site_id
 _symmetry_equiv_pos_as_xyz
  1  'x, y, z'
loop_
 _atom_site_type_symbol
 _atom_site_label
 _atom_site_symmetry_multiplicity
 _atom_site_fract_x
 _atom_site_fract_y
 _atom_site_fract_z
 _atom_site_occupancy
  Ni  Ni0  1  -0.00260728  -0.00324697  0.99526092  1
  Ni  Ni1  1  0.16607081  0.16349271  0.16106730  1
  Cr  Cr2  1  -0.00252482  -0.00149426  0.32937205  1
  Cr  Cr3  1  -0.00346826  0.33114860  -0.00161984  1
  Ni  Ni4  1  0.16565543  0.49470087  0.16539490  1
  Cr  Cr5  1  0.00034344  0.32997511  0.32780058  1
  Cr  Cr6  1  0.99467731  0.66017209  0.99483180  1
  Cr  Cr7  1  0.16397103  0.82905739  0.16010669  1
  Cr  Cr8  1  -0.00234809  0.65880231  0.32854989  1
  Ni  Ni9  1  0.33017787  -0.00385871  -0.00239009  1
  Ni  Ni10  1  0.49299351  0.16421175  0.16148861  1
  Cr  Cr11  1  0.33104989  -0.00223885  0.32743184  1
  Cr  Cr12  1  0.33058280  0.32908200  -0.00093684  1
  Ni  Ni13  1  0.49589842  0.49586330  0.16319982  1
  Ni  Ni14  1  0.32857726  0.33216559  0.32735738  1
  Cr  Cr15  1  0.33187812  0.66232205  0.99575457  1
  Ni  Ni16  1  0.49453535  0.82739138  0.16370736  1
  Ni  Ni17  1  0.33202113  0.65979848  0.32856988  1
  Cr  Cr18  1  0.65869405  0.99508553  0.99577756  1
  Cr  Cr19  1  0.82811377  0.16258587  0.16086448  1
  Cr  Cr20  1  0.65868495  0.99389371  0.33044078  1
  Ni  Ni21  1  0.66152662  0.33169122  -0.00343430  1
  Ni  Ni22  1  0.82619043  0.49594474  0.16240691  1
  Cr  Cr23  1  0.66025573  0.32909570  0.32624743  1
  Cr  Cr24  1  0.66161843  0.66096060  0.99335577  1
  Cr  Cr25  1  0.82838009  0.82720254  0.16306427  1
  Ni  Ni26  1  0.65748681  0.66179135  0.32710177  1
  Cr  Cr27  1  0.16355210  0.16416980  0.49906228  1
  Ni  Ni28  1  -0.00271811  -0.00280308  0.66402512  1
  Cr  Cr29  1  0.16341123  0.16104669  0.82871052  1
  Ni  Ni30  1  0.16589736  0.49503087  0.49653743  1
  Ni  Ni31  1  0.99572476  0.32984443  0.66210672  1
  Cr  Cr32  1  0.16463284  0.49530472  0.82610171  1
  Cr  Cr33  1  0.16544198  0.82658590  0.49723204  1
  Cr  Cr34  1  -0.00366429  0.66107193  0.66346472  1
  Cr  Cr35  1  0.16355652  0.83102407  0.83017496  1
  Cr  Cr36  1  0.49494684  0.16485263  0.49749933  1
  Ni  Ni37  1  0.32977703  0.99315172  0.66282366  1
  Cr  Cr38  1  0.49456225  0.16481605  0.82873797  1
  Cr  Cr39  1  0.49387386  0.49709826  0.49624626  1
  Fe  Fe40  1  0.32880582  0.33032512  0.66202276  1
  Fe  Fe41  1  0.49714748  0.49600124  0.82863535  1
  Ni  Ni42  1  0.49295745  0.82658155  0.49541228  1
  Ni  Ni43  1  0.33099870  0.66319177  0.66223889  1
  Ni  Ni44  1  0.49404184  0.82952609  0.82784972  1
  Cr  Cr45  1  0.82903536  0.16390397  0.49893370  1
  Cr  Cr46  1  0.66058411  0.99430125  0.66102937  1
  Cr  Cr47  1  0.82916804  0.16374586  0.82865343  1
  Cr  Cr48  1  0.82754926  0.49480890  0.49500880  1
  Ni  Ni49  1  0.66318534  0.33123581  0.66523386  1
  Ni  Ni50  1  0.82690698  0.49433304  0.82860648  1
  Cr  Cr51  1  0.82803698  0.82822419  0.49393814  1
  Cr  Cr52  1  0.66063536  0.66323434  0.66518189  1
  Ni  Ni53  1  0.82886126  0.82913990  0.82910427  1
" 