4088,Ni42Fe5Cr52_15,-217.159715708831, 138.508350173446,Ni42Fe5Cr52,"# generated using pymatgen
 data_Cr15FeNi11
_symmetry_space_group_name_H-M   'P 1'
_cell_length_a   7.53419084
_cell_length_b   7.53419084
_cell_length_c   10.65495487
_cell_angle_alpha   90.00000000
_cell_angle_beta   90.00000000
_cell_angle_gamma   90.00000000
_symmetry_Int_Tables_number   1
_chemical_formula_structural   Cr15FeNi11
_chemical_formula_sum   'Cr30 Fe2 Ni22'
_cell_volume   604.81819511
_cell_formula_units_Z   2
loop_
 _symmetry_equiv_pos_site_id
 _symmetry_equiv_pos_as_xyz
  1  'x, y, z'
loop_
 _atom_site_type_symbol
 _atom_site_label
 _atom_site_symmetry_multiplicity
 _atom_site_fract_x
 _atom_site_fract_y
 _atom_site_fract_z
 _atom_site_occupancy
  Ni  Ni0  1  -0.00194413  0.00152619  0.99454107  1
  Ni  Ni1  1  0.16074421  0.16398777  0.15950858  1
  Cr  Cr2  1  0.99508906  -0.00245135  0.32776534  1
  Ni  Ni3  1  -0.00346992  0.32169493  -0.00385041  1
  Cr  Cr4  1  0.16164937  0.49192405  0.16154124  1
  Ni  Ni5  1  0.99242735  0.33035854  0.32845094  1
  Cr  Cr6  1  0.99535429  0.66403406  0.99229921  1
  Cr  Cr7  1  0.16356662  0.83048570  0.15894142  1
  Cr  Cr8  1  0.99544650  0.66139727  0.33246381  1
  Ni  Ni9  1  0.32698033  0.00068309  0.99509675  1
  Ni  Ni10  1  0.49498741  0.16477390  0.16128323  1
  Cr  Cr11  1  0.32885238  -0.00171994  0.32529297  1
  Ni  Ni12  1  0.32890838  0.32411438  -0.00397882  1
  Ni  Ni13  1  0.49509455  0.49163841  0.16484144  1
  Cr  Cr14  1  0.33031346  0.33023717  0.32846102  1
  Cr  Cr15  1  0.33072103  0.65789456  0.99397236  1
  Cr  Cr16  1  0.49375203  0.82693823  0.16356325  1
  Ni  Ni17  1  0.33093110  0.65842193  0.33038364  1
  Cr  Cr18  1  0.66176661  -0.00124189  -0.00391942  1
  Ni  Ni19  1  0.83036090  0.16445146  0.16204609  1
  Cr  Cr20  1  0.66288957  -0.00162325  0.32761496  1
  Cr  Cr21  1  0.65769725  0.32709050  0.99499657  1
  Cr  Cr22  1  0.82909041  0.49144231  0.16168303  1
  Ni  Ni23  1  0.66278115  0.33080444  0.32811662  1
  Cr  Cr24  1  0.65982262  0.65825382  -0.00262532  1
  Cr  Cr25  1  0.82871406  0.82923757  0.16170092  1
  Fe  Fe26  1  0.66085890  0.65759087  0.32944687  1
  Cr  Cr27  1  0.16105634  0.16669325  0.49295758  1
  Cr  Cr28  1  0.99480990  0.99528671  0.66346381  1
  Ni  Ni29  1  0.16236542  0.16089678  0.83315402  1
  Ni  Ni30  1  0.16239872  0.49814195  0.49443334  1
  Cr  Cr31  1  -0.00438833  0.32942399  0.66144983  1
  Cr  Cr32  1  0.16311965  0.49273482  0.83012487  1
  Cr  Cr33  1  0.16660358  0.82886914  0.49607877  1
  Cr  Cr34  1  -0.00197483  0.66204806  0.66129393  1
  Ni  Ni35  1  0.16423045  0.83216054  0.83016051  1
  Cr  Cr36  1  0.49854120  0.16387088  0.49788993  1
  Cr  Cr37  1  0.32813244  -0.00110510  0.66495101  1
  Ni  Ni38  1  0.49565906  0.16424617  0.82836111  1
  Ni  Ni39  1  0.49762460  0.49744010  0.49487513  1
  Cr  Cr40  1  0.33121959  0.33210771  0.66221326  1
  Ni  Ni41  1  0.49400913  0.49165533  0.82731979  1
  Cr  Cr42  1  0.49649169  0.82915616  0.49544906  1
  Ni  Ni43  1  0.32970221  0.66057988  0.66209076  1
  Cr  Cr44  1  0.49324135  0.82997095  0.82811398  1
  Cr  Cr45  1  0.82690082  0.16462517  0.49659719  1
  Ni  Ni46  1  0.66272448  -0.00164275  0.66408305  1
  Ni  Ni47  1  0.82891279  0.16195302  0.82866266  1
  Ni  Ni48  1  0.82661825  0.49345743  0.49370713  1
  Ni  Ni49  1  0.66168555  0.32797345  0.66342989  1
  Cr  Cr50  1  0.82798289  0.48943472  0.83081182  1
  Fe  Fe51  1  0.82720216  0.82742572  0.49644263  1
  Cr  Cr52  1  0.66254235  0.65869235  0.66216418  1
  Cr  Cr53  1  0.82858435  0.83134015  0.82946475  1
" 