8749,Ni42Fe26Cr30_6,-228.42248365024, 187.704994339041,Ni42Fe26Cr30,"# generated using pymatgen
 data_Cr17Fe14Ni23
_symmetry_space_group_name_H-M   'P 1'
_cell_length_a   7.46216333
_cell_length_b   7.46216333
_cell_length_c   10.55309259
_cell_angle_alpha   90.00000000
_cell_angle_beta   90.00000000
_cell_angle_gamma   90.00000000
_symmetry_Int_Tables_number   1
_chemical_formula_structural   Cr17Fe14Ni23
_chemical_formula_sum   'Cr17 Fe14 Ni23'
_cell_volume   587.63715816
_cell_formula_units_Z   1
loop_
 _symmetry_equiv_pos_site_id
 _symmetry_equiv_pos_as_xyz
  1  'x, y, z'
loop_
 _atom_site_type_symbol
 _atom_site_label
 _atom_site_symmetry_multiplicity
 _atom_site_fract_x
 _atom_site_fract_y
 _atom_site_fract_z
 _atom_site_occupancy
  Ni  Ni0  1  0.99957029  0.99945885  0.00127979  1
  Ni  Ni1  1  0.16453154  0.16944105  0.16660367  1
  Cr  Cr2  1  0.99977605  0.00098832  0.33317785  1
  Ni  Ni3  1  0.00224819  0.33428610  0.00146495  1
  Ni  Ni4  1  0.16643994  0.49764705  0.16511451  1
  Ni  Ni5  1  0.99799022  0.33384340  0.33344080  1
  Fe  Fe6  1  1.00010693  0.66726531  0.99899021  1
  Cr  Cr7  1  0.16664835  0.83395181  0.16672043  1
  Cr  Cr8  1  0.99924304  0.66622868  0.33439940  1
  Cr  Cr9  1  0.33342523  1.00004916  0.00050293  1
  Cr  Cr10  1  0.50069701  0.16528225  0.16858302  1
  Ni  Ni11  1  0.33568124  1.00029565  0.33347835  1
  Fe  Fe12  1  0.33118570  0.33568575  0.99910580  1
  Cr  Cr13  1  0.49943143  0.50244661  0.16731474  1
  Cr  Cr14  1  0.33396752  0.33205766  0.33299804  1
  Fe  Fe15  1  0.33312120  0.66536126  0.99860258  1
  Fe  Fe16  1  0.50299702  0.83413706  0.16707539  1
  Cr  Cr17  1  0.33330210  0.66852926  0.33446854  1
  Fe  Fe18  1  0.66940552  0.99774794  0.00055479  1
  Ni  Ni19  1  0.83580772  0.16512190  0.16812596  1
  Ni  Ni20  1  0.66650724  0.00134326  0.33310424  1
  Cr  Cr21  1  0.66690276  0.33435623  0.99859334  1
  Cr  Cr22  1  0.83502333  0.50036035  0.16758776  1
  Ni  Ni23  1  0.66881633  0.33234008  0.33607732  1
  Ni  Ni24  1  0.66708773  0.66886732  0.99932606  1
  Ni  Ni25  1  0.83105656  0.83538226  0.16574300  1
  Fe  Fe26  1  0.66805881  0.66812084  0.33420855  1
  Cr  Cr27  1  0.16601184  0.16794620  0.50070710  1
  Ni  Ni28  1  0.99948763  0.99803800  0.66635011  1
  Cr  Cr29  1  0.16622933  0.16904151  0.83371726  1
  Fe  Fe30  1  0.16664690  0.49948795  0.50140708  1
  Fe  Fe31  1  0.00119972  0.33408326  0.66632948  1
  Ni  Ni32  1  0.16914885  0.50096576  0.83461056  1
  Fe  Fe33  1  0.16594637  0.83458927  0.50119667  1
  Cr  Cr34  1  0.99972410  0.66890897  0.66743984  1
  Ni  Ni35  1  0.16609929  0.83074144  0.83308797  1
  Ni  Ni36  1  0.50220337  0.16799408  0.49946376  1
  Cr  Cr37  1  0.33334419  0.00047192  0.66735879  1
  Ni  Ni38  1  0.50025405  0.16769408  0.83272987  1
  Fe  Fe39  1  0.50199151  0.49886954  0.50148731  1
  Ni  Ni40  1  0.33525043  0.33543209  0.66804495  1
  Ni  Ni41  1  0.49791022  0.50242143  0.83283121  1
  Cr  Cr42  1  0.50207753  0.83345162  0.49910421  1
  Fe  Fe43  1  0.33428270  0.66495268  0.66845916  1
  Ni  Ni44  1  0.50254098  0.83086461  0.83424326  1
  Ni  Ni45  1  0.83282401  0.16694436  0.49948041  1
  Fe  Fe46  1  0.66839345  0.99905357  0.66647934  1
  Cr  Cr47  1  0.83430678  0.16457610  0.83316689  1
  Fe  Fe48  1  0.83234148  0.49904709  0.49928556  1
  Cr  Cr49  1  0.66500434  0.33451013  0.66661286  1
  Fe  Fe50  1  0.83351594  0.50314666  0.83463409  1
  Ni  Ni51  1  0.83242735  0.83414642  0.50100325  1
  Ni  Ni52  1  0.66713767  0.66661414  0.66756541  1
  Ni  Ni53  1  0.83234354  0.83308429  0.83423415  1
" 