2674,Ni42Fe5Cr52_18,-217.462077180013, 144.697942910388,Ni42Fe5Cr52,"# generated using pymatgen
 data_Cr15FeNi11
_symmetry_space_group_name_H-M   'P 1'
_cell_length_a   7.52642845
_cell_length_b   7.52642845
_cell_length_c   10.64397719
_cell_angle_alpha   90.00000000
_cell_angle_beta   90.00000000
_cell_angle_gamma   90.00000000
_symmetry_Int_Tables_number   1
_chemical_formula_structural   Cr15FeNi11
_chemical_formula_sum   'Cr30 Fe2 Ni22'
_cell_volume   602.95070913
_cell_formula_units_Z   2
loop_
 _symmetry_equiv_pos_site_id
 _symmetry_equiv_pos_as_xyz
  1  'x, y, z'
loop_
 _atom_site_type_symbol
 _atom_site_label
 _atom_site_symmetry_multiplicity
 _atom_site_fract_x
 _atom_site_fract_y
 _atom_site_fract_z
 _atom_site_occupancy
  Cr  Cr0  1  -0.00351659  0.99568361  0.99301829  1
  Cr  Cr1  1  0.16296365  0.16607676  0.16353493  1
  Cr  Cr2  1  -0.00201429  0.99431366  0.33118566  1
  Ni  Ni3  1  -0.00369838  0.33189029  -0.00374406  1
  Ni  Ni4  1  0.15960484  0.49758773  0.16316265  1
  Ni  Ni5  1  -0.00037425  0.33273755  0.32787402  1
  Ni  Ni6  1  -0.00280764  0.66149711  -0.00369068  1
  Cr  Cr7  1  0.16275145  0.82525102  0.16286362  1
  Ni  Ni8  1  -0.00193846  0.66101537  0.32816215  1
  Cr  Cr9  1  0.32813766  0.99440753  -0.00377375  1
  Ni  Ni10  1  0.49493187  0.16187282  0.16385328  1
  Cr  Cr11  1  0.32999338  0.99517378  0.33149492  1
  Cr  Cr12  1  0.32604036  0.32977344  0.99530352  1
  Cr  Cr13  1  0.49108306  0.49662856  0.16206472  1
  Ni  Ni14  1  0.32717541  0.32986532  0.33032271  1
  Ni  Ni15  1  0.32615154  0.66357902  -0.00267949  1
  Ni  Ni16  1  0.49541294  0.82871044  0.16280262  1
  Ni  Ni17  1  0.32748314  0.66239424  0.32906390  1
  Cr  Cr18  1  0.66365153  0.99540195  -0.00113289  1
  Cr  Cr19  1  0.83137031  0.16322703  0.16329087  1
  Cr  Cr20  1  0.66045994  0.99435026  0.32731004  1
  Cr  Cr21  1  0.66612361  0.32988177  -0.00312118  1
  Ni  Ni22  1  0.83515556  0.49798747  0.16289269  1
  Cr  Cr23  1  0.66261998  0.33015351  0.32855562  1
  Cr  Cr24  1  0.66431458  0.66296717  -0.00229215  1
  Ni  Ni25  1  0.83035492  0.82546193  0.16172106  1
  Cr  Cr26  1  0.66309639  0.66371075  0.32817192  1
  Ni  Ni27  1  0.16405490  0.16267096  0.49663165  1
  Ni  Ni28  1  -0.00196312  0.99446524  0.66459376  1
  Ni  Ni29  1  0.15907447  0.16146018  0.82804781  1
  Cr  Cr30  1  0.16244141  0.49633644  0.49304358  1
  Cr  Cr31  1  -0.00083705  0.32684212  0.66327045  1
  Cr  Cr32  1  0.16301029  0.49761907  0.83144403  1
  Ni  Ni33  1  0.16270116  0.82945212  0.49626076  1
  Fe  Fe34  1  -0.00259641  0.66535171  0.66334794  1
  Ni  Ni35  1  0.15943449  0.82935174  0.82913607  1
  Ni  Ni36  1  0.49240150  0.16244985  0.49588387  1
  Cr  Cr37  1  0.32486857  -0.00326789  0.66095970  1
  Cr  Cr38  1  0.49557272  0.16301668  0.82937209  1
  Cr  Cr39  1  0.49457816  0.49637388  0.49865449  1
  Ni  Ni40  1  0.32680875  0.32731251  0.66179889  1
  Cr  Cr41  1  0.49491274  0.49740909  0.82720210  1
  Ni  Ni42  1  0.49433767  0.82917838  0.49562630  1
  Cr  Cr43  1  0.32822994  0.66393033  0.66188017  1
  Cr  Cr44  1  0.49488567  0.82773815  0.83068641  1
  Cr  Cr45  1  0.83150953  0.16261067  0.49511065  1
  Cr  Cr46  1  0.66398853  0.99516443  0.66243819  1
  Ni  Ni47  1  0.83332154  0.16151057  0.82958746  1
  Cr  Cr48  1  0.83136264  0.49756692  0.49556629  1
  Cr  Cr49  1  0.66222163  0.33025860  0.66262089  1
  Cr  Cr50  1  0.83029703  0.49736736  0.82831698  1
  Cr  Cr51  1  0.83151162  0.82836406  0.49803467  1
  Ni  Ni52  1  0.66417396  0.66532030  0.66271074  1
  Fe  Fe53  1  0.83215074  0.82952605  0.82853867  1
" 