7286,Ni42Fe26Cr30_12,-228.236729103802, 186.403343961328,Ni42Fe26Cr30,"# generated using pymatgen
 data_Cr17Fe14Ni23
_symmetry_space_group_name_H-M   'P 1'
_cell_length_a   7.46198308
_cell_length_b   7.46198308
_cell_length_c   10.55283767
_cell_angle_alpha   90.00000000
_cell_angle_beta   90.00000000
_cell_angle_gamma   90.00000000
_symmetry_Int_Tables_number   1
_chemical_formula_structural   Cr17Fe14Ni23
_chemical_formula_sum   'Cr17 Fe14 Ni23'
_cell_volume   587.59457461
_cell_formula_units_Z   1
loop_
 _symmetry_equiv_pos_site_id
 _symmetry_equiv_pos_as_xyz
  1  'x, y, z'
loop_
 _atom_site_type_symbol
 _atom_site_label
 _atom_site_symmetry_multiplicity
 _atom_site_fract_x
 _atom_site_fract_y
 _atom_site_fract_z
 _atom_site_occupancy
  Fe  Fe0  1  0.00245976  1.00017085  0.99853194  1
  Fe  Fe1  1  0.17054423  0.16792851  0.16727522  1
  Cr  Cr2  1  0.99960258  0.99910227  0.33488812  1
  Cr  Cr3  1  0.00440350  0.33312475  0.99961084  1
  Ni  Ni4  1  0.17015523  0.50034662  0.16780714  1
  Cr  Cr5  1  0.00201379  0.33489080  0.33512126  1
  Fe  Fe6  1  0.00326513  0.66769802  1.00001575  1
  Cr  Cr7  1  0.16871315  0.83527773  0.16737178  1
  Cr  Cr8  1  0.99953769  0.66711576  0.33453532  1
  Ni  Ni9  1  0.33235307  0.00129007  0.99864619  1
  Cr  Cr10  1  0.49763997  0.16650725  0.16696008  1
  Ni  Ni11  1  0.33517294  0.99916678  0.33502598  1
  Ni  Ni12  1  0.33244603  0.33280081  0.99991889  1
  Ni  Ni13  1  0.49769861  0.50248075  0.16788680  1
  Ni  Ni14  1  0.33412370  0.33545627  0.33160446  1
  Cr  Cr15  1  0.33535897  0.66531589  0.99909427  1
  Ni  Ni16  1  0.49942509  0.83282905  0.16779247  1
  Fe  Fe17  1  0.33624140  0.66636848  0.33465888  1
  Fe  Fe18  1  0.66434096  1.00031906  0.99926056  1
  Cr  Cr19  1  0.83442602  0.16534465  0.16672133  1
  Cr  Cr20  1  0.66606746  0.99644281  0.33484737  1
  Cr  Cr21  1  0.66376297  0.33465781  0.99785877  1
  Cr  Cr22  1  0.83215701  0.50209551  0.16642439  1
  Cr  Cr23  1  0.66571239  0.33545830  0.33692958  1
  Ni  Ni24  1  0.66593976  0.66934640  0.00240511  1
  Fe  Fe25  1  0.83079693  0.83222625  0.16537867  1
  Ni  Ni26  1  0.66489640  0.66809767  0.33404689  1
  Cr  Cr27  1  0.16974216  0.16492308  0.49998330  1
  Ni  Ni28  1  0.99917346  0.99959525  0.66706756  1
  Fe  Fe29  1  0.16736401  0.16444520  0.83230827  1
  Fe  Fe30  1  0.16870962  0.50098534  0.50149950  1
  Ni  Ni31  1  0.99888233  0.33417933  0.66598884  1
  Fe  Fe32  1  0.16752018  0.50183111  0.83270013  1
  Fe  Fe33  1  0.16878337  0.83200800  0.50323785  1
  Ni  Ni34  1  0.00217923  0.66701769  0.66678983  1
  Ni  Ni35  1  0.16653207  0.83522679  0.83076099  1
  Ni  Ni36  1  0.49830828  0.16694137  0.50134556  1
  Ni  Ni37  1  0.33476691  0.99893910  0.66691486  1
  Ni  Ni38  1  0.49957988  0.16670045  0.83342055  1
  Ni  Ni39  1  0.50065077  0.50104553  0.49967289  1
  Cr  Cr40  1  0.33470001  0.33480374  0.67054190  1
  Ni  Ni41  1  0.49998946  0.49965861  0.83366976  1
  Fe  Fe42  1  0.50041894  0.83285465  0.50144396  1
  Ni  Ni43  1  0.33309537  0.66699658  0.66586912  1
  Cr  Cr44  1  0.49861952  0.83393468  0.83130370  1
  Fe  Fe45  1  0.83173358  0.16747969  0.50416589  1
  Ni  Ni46  1  0.66701323  0.00134487  0.66618132  1
  Ni  Ni47  1  0.83407681  0.16643132  0.82988618  1
  Ni  Ni48  1  0.83273844  0.50319835  0.50294483  1
  Fe  Fe49  1  0.66604359  0.33244633  0.66600826  1
  Cr  Cr50  1  0.83271519  0.50150749  0.83119245  1
  Ni  Ni51  1  0.83453080  0.83113724  0.50198098  1
  Fe  Fe52  1  0.66574242  0.66774853  0.66500295  1
  Cr  Cr53  1  0.83546085  0.83308582  0.83582568  1
" 