5345,Ni42Fe37Cr20_14,-231.648927602388, 201.895208316833,Ni42Fe37Cr20,"# generated using pymatgen
 data_Cr6Fe10Ni11
_symmetry_space_group_name_H-M   'P 1'
_cell_length_a   7.43703945
_cell_length_b   7.43703945
_cell_length_c   10.51756205
_cell_angle_alpha   90.00000000
_cell_angle_beta   90.00000000
_cell_angle_gamma   90.00000000
_symmetry_Int_Tables_number   1
_chemical_formula_structural   Cr6Fe10Ni11
_chemical_formula_sum   'Cr12 Fe20 Ni22'
_cell_volume   581.72168403
_cell_formula_units_Z   2
loop_
 _symmetry_equiv_pos_site_id
 _symmetry_equiv_pos_as_xyz
  1  'x, y, z'
loop_
 _atom_site_type_symbol
 _atom_site_label
 _atom_site_symmetry_multiplicity
 _atom_site_fract_x
 _atom_site_fract_y
 _atom_site_fract_z
 _atom_site_occupancy
  Cr  Cr0  1  1.00079902  1.00201180  0.00229564  1
  Fe  Fe1  1  0.16805064  0.16927601  0.17130426  1
  Ni  Ni2  1  0.00296535  1.00193968  0.33543429  1
  Fe  Fe3  1  0.99909985  0.33640162  1.00131846  1
  Cr  Cr4  1  0.16642042  0.50263820  0.16782512  1
  Fe  Fe5  1  0.99983472  0.33381053  0.33546575  1
  Ni  Ni6  1  0.00212635  0.66798784  0.00283442  1
  Fe  Fe7  1  0.16639886  0.83645382  0.16885449  1
  Ni  Ni8  1  0.99986461  0.67175742  0.33437632  1
  Fe  Fe9  1  0.33474801  1.00077325  1.00142632  1
  Cr  Cr10  1  0.50406081  0.16825450  0.16978258  1
  Fe  Fe11  1  0.33507024  0.00230950  0.33839567  1
  Fe  Fe12  1  0.33494618  0.33696580  0.00207017  1
  Ni  Ni13  1  0.50337909  0.50071494  0.16837343  1
  Ni  Ni14  1  0.33664346  0.33385141  0.33635176  1
  Fe  Fe15  1  0.33505032  0.66802041  1.00146668  1
  Cr  Cr16  1  0.50322355  0.83723049  0.16888058  1
  Cr  Cr17  1  0.33659043  0.66758032  0.33668722  1
  Ni  Ni18  1  0.67011083  0.00290901  1.00016715  1
  Ni  Ni19  1  0.83538610  0.16870204  0.16922495  1
  Ni  Ni20  1  0.67142628  0.00293225  0.33697049  1
  Fe  Fe21  1  0.67236132  0.33598065  0.00293833  1
  Ni  Ni22  1  0.83614262  0.50100713  0.17075044  1
  Ni  Ni23  1  0.66684633  0.33643223  0.33486256  1
  Cr  Cr24  1  0.67055925  0.66672820  1.00170421  1
  Fe  Fe25  1  0.83509390  0.83493335  0.17097491  1
  Ni  Ni26  1  0.66995844  0.66682231  0.33676748  1
  Ni  Ni27  1  0.16789580  0.16806321  0.50231183  1
  Ni  Ni28  1  0.00370621  0.00446905  0.66824131  1
  Fe  Fe29  1  0.16821045  0.17248714  0.83310367  1
  Cr  Cr30  1  0.16596296  0.50043547  0.50321818  1
  Fe  Fe31  1  1.00185787  0.33241174  0.67021591  1
  Ni  Ni32  1  0.16798370  0.50131829  0.83597553  1
  Fe  Fe33  1  0.16879992  0.83832058  0.50193976  1
  Cr  Cr34  1  0.99916417  0.66943091  0.66755697  1
  Cr  Cr35  1  0.16935198  0.83451989  0.83368672  1
  Ni  Ni36  1  0.50074413  0.16762484  0.49927308  1
  Ni  Ni37  1  0.33358712  0.00399984  0.66682038  1
  Cr  Cr38  1  0.50235264  0.16668271  0.83707617  1
  Ni  Ni39  1  0.50268469  0.50211415  0.50151009  1
  Fe  Fe40  1  0.33490821  0.33487264  0.66794277  1
  Ni  Ni41  1  0.50048879  0.50189009  0.83567412  1
  Ni  Ni42  1  0.50478625  0.83642561  0.50382772  1
  Fe  Fe43  1  0.33910387  0.66908616  0.66836454  1
  Fe  Fe44  1  0.50207891  0.83215560  0.83432897  1
  Fe  Fe45  1  0.83575127  0.16808976  0.49947911  1
  Cr  Cr46  1  0.67051306  1.00089774  0.66883231  1
  Fe  Fe47  1  0.83772008  0.17114669  0.83616851  1
  Fe  Fe48  1  0.83289563  0.50293152  0.49972937  1
  Cr  Cr49  1  0.66733503  0.33777839  0.66694705  1
  Ni  Ni50  1  0.83729476  0.50167969  0.83546751  1
  Ni  Ni51  1  0.83526984  0.83550105  0.50061905  1
  Ni  Ni52  1  0.66722536  0.66685491  0.66855027  1
  Fe  Fe53  1  0.83411430  0.83333159  0.83457936  1
" 