8062,Ni42Fe22Cr34_16,-226.233086040316, 184.673731023911,Ni42Fe22Cr34,"# generated using pymatgen
 data_Cr10Fe6Ni11
_symmetry_space_group_name_H-M   'P 1'
_cell_length_a   7.47117590
_cell_length_b   7.47117590
_cell_length_c   10.56583829
_cell_angle_alpha   90.00000000
_cell_angle_beta   90.00000000
_cell_angle_gamma   90.00000000
_symmetry_Int_Tables_number   1
_chemical_formula_structural   Cr10Fe6Ni11
_chemical_formula_sum   'Cr20 Fe12 Ni22'
_cell_volume   589.76892121
_cell_formula_units_Z   2
loop_
 _symmetry_equiv_pos_site_id
 _symmetry_equiv_pos_as_xyz
  1  'x, y, z'
loop_
 _atom_site_type_symbol
 _atom_site_label
 _atom_site_symmetry_multiplicity
 _atom_site_fract_x
 _atom_site_fract_y
 _atom_site_fract_z
 _atom_site_occupancy
  Cr  Cr0  1  0.00036350  0.99968479  0.00124626  1
  Ni  Ni1  1  0.16785228  0.16939525  0.16508792  1
  Cr  Cr2  1  0.00099171  0.99922122  0.33180551  1
  Ni  Ni3  1  0.00050994  0.33455287  0.99596931  1
  Cr  Cr4  1  0.16406748  0.49946496  0.16544850  1
  Ni  Ni5  1  0.99892502  0.33227537  0.33438684  1
  Ni  Ni6  1  0.99680819  0.66455616  0.00018727  1
  Ni  Ni7  1  0.16645853  0.83125589  0.16468123  1
  Ni  Ni8  1  0.99790851  0.66533136  0.33065757  1
  Ni  Ni9  1  0.33261973  0.00148807  0.00048850  1
  Fe  Fe10  1  0.49927250  0.16862393  0.16661953  1
  Cr  Cr11  1  0.33194071  0.00250062  0.33174479  1
  Ni  Ni12  1  0.33226028  0.33247956  0.00189785  1
  Fe  Fe13  1  0.50141726  0.49895455  0.16474912  1
  Fe  Fe14  1  0.33439003  0.33270426  0.33237295  1
  Ni  Ni15  1  0.33423062  0.66541216  0.99754230  1
  Cr  Cr16  1  0.50037358  0.83365634  0.16405226  1
  Cr  Cr17  1  0.33453654  0.66519982  0.33488666  1
  Cr  Cr18  1  0.66775605  0.99755034  0.99893372  1
  Cr  Cr19  1  0.83197111  0.16948842  0.16821683  1
  Ni  Ni20  1  0.66564971  0.00150104  0.33461027  1
  Fe  Fe21  1  0.66767311  0.33539201  0.00095259  1
  Ni  Ni22  1  0.83309799  0.49941326  0.16580572  1
  Ni  Ni23  1  0.66474926  0.33441526  0.33317189  1
  Ni  Ni24  1  0.66820036  0.66465601  0.99960295  1
  Ni  Ni25  1  0.83251138  0.82952432  0.16851431  1
  Ni  Ni26  1  0.66754282  0.66341456  0.33104392  1
  Fe  Fe27  1  0.16466720  0.16671667  0.49792617  1
  Cr  Cr28  1  0.99917437  0.00180989  0.66593208  1
  Fe  Fe29  1  0.16635713  0.16818802  0.83543712  1
  Cr  Cr30  1  0.16543709  0.50063194  0.49906487  1
  Fe  Fe31  1  0.99852233  0.33258784  0.66806976  1
  Ni  Ni32  1  0.16503455  0.49760879  0.83428150  1
  Ni  Ni33  1  0.16720921  0.83123669  0.49920422  1
  Cr  Cr34  1  0.99813965  0.66605269  0.66838791  1
  Cr  Cr35  1  0.16908476  0.82934612  0.83592828  1
  Ni  Ni36  1  0.50297962  0.16789345  0.49772701  1
  Cr  Cr37  1  0.33242005  0.00120417  0.66660430  1
  Cr  Cr38  1  0.50151030  0.16528191  0.83610732  1
  Fe  Fe39  1  0.50220614  0.49784971  0.49874734  1
  Cr  Cr40  1  0.33304665  0.33294495  0.66384767  1
  Cr  Cr41  1  0.49663810  0.49982844  0.83460138  1
  Cr  Cr42  1  0.50032950  0.83433018  0.50231848  1
  Fe  Fe43  1  0.33185020  0.66610981  0.66720543  1
  Ni  Ni44  1  0.50058641  0.83292854  0.83310571  1
  Ni  Ni45  1  0.82997463  0.16853624  0.50028098  1
  Fe  Fe46  1  0.66744491  0.00195132  0.66705484  1
  Ni  Ni47  1  0.83299427  0.16941019  0.83107537  1
  Cr  Cr48  1  0.83433811  0.49687245  0.49775799  1
  Fe  Fe49  1  0.66763282  0.33050037  0.66559467  1
  Fe  Fe50  1  0.83327775  0.49977924  0.83587681  1
  Cr  Cr51  1  0.83298245  0.83458350  0.49572290  1
  Cr  Cr52  1  0.66600792  0.66442653  0.66813862  1
  Ni  Ni53  1  0.83115649  0.83435873  0.83440552  1
" 