8112,Ni42Fe42Cr14_12,-233.917202758006, 205.976892239016,Ni42Fe42Cr14,"# generated using pymatgen
 data_Cr9Fe23Ni22
_symmetry_space_group_name_H-M   'P 1'
_cell_length_a   7.43352044
_cell_length_b   7.43352044
_cell_length_c   10.51258542
_cell_angle_alpha   90.00000000
_cell_angle_beta   90.00000000
_cell_angle_gamma   90.00000000
_symmetry_Int_Tables_number   1
_chemical_formula_structural   Cr9Fe23Ni22
_chemical_formula_sum   'Cr9 Fe23 Ni22'
_cell_volume   580.89630899
_cell_formula_units_Z   1
loop_
 _symmetry_equiv_pos_site_id
 _symmetry_equiv_pos_as_xyz
  1  'x, y, z'
loop_
 _atom_site_type_symbol
 _atom_site_label
 _atom_site_symmetry_multiplicity
 _atom_site_fract_x
 _atom_site_fract_y
 _atom_site_fract_z
 _atom_site_occupancy
  Ni  Ni0  1  0.00429175  1.00187549  0.00327446  1
  Fe  Fe1  1  0.16904498  0.16821052  0.16829517  1
  Ni  Ni2  1  1.00177622  1.00106578  0.33465380  1
  Fe  Fe3  1  0.00541590  0.33427258  1.00222771  1
  Fe  Fe4  1  0.16946559  0.50123211  0.17018111  1
  Fe  Fe5  1  0.00420188  0.33554178  0.33632143  1
  Cr  Cr6  1  1.00141019  0.67026772  1.00071686  1
  Ni  Ni7  1  0.16847546  0.83816636  0.17013760  1
  Fe  Fe8  1  0.00338374  0.66886972  0.33483044  1
  Ni  Ni9  1  0.33264787  0.00493768  1.00096052  1
  Fe  Fe10  1  0.49913023  0.16985962  0.16998655  1
  Ni  Ni11  1  0.33419769  1.00212963  0.33613828  1
  Ni  Ni12  1  0.33462391  0.33336975  0.00341929  1
  Fe  Fe13  1  0.50092664  0.50179460  0.16975345  1
  Ni  Ni14  1  0.33503544  0.33573463  0.33420953  1
  Cr  Cr15  1  0.33435927  0.66874677  1.00166651  1
  Cr  Cr16  1  0.50045751  0.83510085  0.17016221  1
  Ni  Ni17  1  0.33401959  0.66890218  0.33562723  1
  Cr  Cr18  1  0.66955901  1.00144703  1.00218989  1
  Fe  Fe19  1  0.83858623  0.16746470  0.16987753  1
  Fe  Fe20  1  0.66826163  1.00194875  0.33689729  1
  Cr  Cr21  1  0.66804091  0.33726522  0.00311843  1
  Ni  Ni22  1  0.83567163  0.50188667  0.16831752  1
  Cr  Cr23  1  0.66879551  0.33482371  0.33583005  1
  Fe  Fe24  1  0.67026819  0.66907850  1.00207607  1
  Fe  Fe25  1  0.83801483  0.83552813  0.17014784  1
  Fe  Fe26  1  0.66966647  0.67051425  0.33614367  1
  Fe  Fe27  1  0.16922228  0.16892632  0.50294358  1
  Ni  Ni28  1  0.00258018  1.00195006  0.66884015  1
  Ni  Ni29  1  0.16951914  0.16794887  0.83693531  1
  Fe  Fe30  1  0.16833165  0.50136803  0.50294587  1
  Ni  Ni31  1  1.00202418  0.33629756  0.66833562  1
  Ni  Ni32  1  0.16830208  0.50090443  0.83436125  1
  Fe  Fe33  1  0.16961649  0.83646920  0.50199727  1
  Fe  Fe34  1  0.00344831  0.66845410  0.66953048  1
  Ni  Ni35  1  0.16972525  0.83790845  0.83463096  1
  Ni  Ni36  1  0.50201930  0.16578525  0.50350368  1
  Ni  Ni37  1  0.33555431  1.00216542  0.66967205  1
  Fe  Fe38  1  0.49678784  0.16760659  0.83396668  1
  Cr  Cr39  1  0.50115803  0.50382070  0.50219267  1
  Ni  Ni40  1  0.33439267  0.33435685  0.66914244  1
  Cr  Cr41  1  0.50192893  0.50314746  0.83461174  1
  Ni  Ni42  1  0.50122976  0.83716060  0.50250699  1
  Ni  Ni43  1  0.33511915  0.67024256  0.66897280  1
  Fe  Fe44  1  0.50063126  0.83699921  0.83334923  1
  Ni  Ni45  1  0.83669188  0.16887332  0.50234541  1
  Fe  Fe46  1  0.66735748  1.00182080  0.66755949  1
  Cr  Cr47  1  0.83866378  0.16936752  0.83418967  1
  Ni  Ni48  1  0.83775519  0.50161044  0.50433451  1
  Fe  Fe49  1  0.66957511  0.33461232  0.66738159  1
  Fe  Fe50  1  0.83836013  0.50382570  0.83377189  1
  Fe  Fe51  1  0.83442770  0.83623466  0.50248797  1
  Ni  Ni52  1  0.67056891  0.66968182  0.66997852  1
  Fe  Fe53  1  0.83705799  0.83420428  0.83412895  1
" 