4814,Ni42Fe32Cr25_4,-230.116699382482, 200.1016533707,Ni42Fe32Cr25,"# generated using pymatgen
 data_Cr15Fe17Ni22
_symmetry_space_group_name_H-M   'P 1'
_cell_length_a   7.45248208
_cell_length_b   7.45248208
_cell_length_c   10.53940123
_cell_angle_alpha   90.00000000
_cell_angle_beta   90.00000000
_cell_angle_gamma   90.00000000
_symmetry_Int_Tables_number   1
_chemical_formula_structural   Cr15Fe17Ni22
_chemical_formula_sum   'Cr15 Fe17 Ni22'
_cell_volume   585.35295950
_cell_formula_units_Z   1
loop_
 _symmetry_equiv_pos_site_id
 _symmetry_equiv_pos_as_xyz
  1  'x, y, z'
loop_
 _atom_site_type_symbol
 _atom_site_label
 _atom_site_symmetry_multiplicity
 _atom_site_fract_x
 _atom_site_fract_y
 _atom_site_fract_z
 _atom_site_occupancy
  Ni  Ni0  1  0.00109220  0.00236106  0.00250386  1
  Fe  Fe1  1  0.16654860  0.16390576  0.16848099  1
  Fe  Fe2  1  0.00521564  1.00043507  0.33503062  1
  Cr  Cr3  1  0.00281474  0.33269973  0.99955751  1
  Cr  Cr4  1  0.16823448  0.50369946  0.16726641  1
  Cr  Cr5  1  1.00007881  0.33100703  0.33470778  1
  Fe  Fe6  1  0.00430202  0.66874765  0.99916755  1
  Ni  Ni7  1  0.16895775  0.83363376  0.16691861  1
  Fe  Fe8  1  0.00343170  0.66875561  0.33500280  1
  Cr  Cr9  1  0.33184942  1.00001511  0.00108850  1
  Cr  Cr10  1  0.50097212  0.16782892  0.16477635  1
  Ni  Ni11  1  0.33405525  0.99861473  0.33414519  1
  Ni  Ni12  1  0.33283193  0.33649046  0.99945687  1
  Fe  Fe13  1  0.50027339  0.50443046  0.16789274  1
  Cr  Cr14  1  0.33280242  0.33341933  0.33597557  1
  Ni  Ni15  1  0.33399225  0.66678200  1.00083345  1
  Ni  Ni16  1  0.49879185  0.83475701  0.16855596  1
  Ni  Ni17  1  0.33768118  0.66959428  0.33462935  1
  Ni  Ni18  1  0.66984654  0.00133745  0.99987650  1
  Fe  Fe19  1  0.83554858  0.16613713  0.16733087  1
  Cr  Cr20  1  0.66760508  0.99961520  0.33654673  1
  Cr  Cr21  1  0.66844090  0.33551439  1.00042952  1
  Ni  Ni22  1  0.83429850  0.50090419  0.16849224  1
  Fe  Fe23  1  0.66560467  0.33499329  0.33474448  1
  Cr  Cr24  1  0.66556128  0.66807661  0.00213556  1
  Cr  Cr25  1  0.83652993  0.83399363  0.16766083  1
  Fe  Fe26  1  0.66508481  0.66537508  0.33391745  1
  Ni  Ni27  1  0.16872857  0.16745407  0.50202382  1
  Ni  Ni28  1  1.00072768  0.00441328  0.66565441  1
  Fe  Fe29  1  0.16750727  0.16768908  0.83153822  1
  Ni  Ni30  1  0.16891531  0.50157541  0.50359680  1
  Ni  Ni31  1  0.00198335  0.33237937  0.66806933  1
  Ni  Ni32  1  0.16960199  0.50187498  0.83229586  1
  Cr  Cr33  1  0.16803833  0.83219243  0.50253214  1
  Ni  Ni34  1  0.00217787  0.66639229  0.66929238  1
  Fe  Fe35  1  0.16708587  0.83360619  0.83274262  1
  Ni  Ni36  1  0.50112632  0.16690274  0.50462624  1
  Ni  Ni37  1  0.33377197  0.00269056  0.66645893  1
  Fe  Fe38  1  0.50005512  0.17024598  0.83274851  1
  Fe  Fe39  1  0.49779300  0.49871543  0.50237276  1
  Ni  Ni40  1  0.33229374  0.33412073  0.66721640  1
  Ni  Ni41  1  0.49536220  0.49830547  0.83434168  1
  Fe  Fe42  1  0.49873337  0.83546817  0.50103732  1
  Ni  Ni43  1  0.33411297  0.66622027  0.66747386  1
  Cr  Cr44  1  0.49867575  0.83688035  0.83388938  1
  Ni  Ni45  1  0.83281157  0.16713215  0.50176794  1
  Fe  Fe46  1  0.66784499  0.00425324  0.66667332  1
  Ni  Ni47  1  0.83365176  0.16660634  0.83329771  1
  Cr  Cr48  1  0.83717150  0.50046441  0.50237441  1
  Fe  Fe49  1  0.66696374  0.33188165  0.66916650  1
  Fe  Fe50  1  0.83519457  0.49956972  0.83221806  1
  Fe  Fe51  1  0.83646914  0.83686132  0.50251772  1
  Cr  Cr52  1  0.66561659  0.66817402  0.66604821  1
  Cr  Cr53  1  0.83790965  0.83757619  0.83367147  1
" 