5177,Ni43Fe34Cr21_16,-231.62678803756, 196.134748899228,Ni43Fe34Cr21,"# generated using pymatgen
 data_Cr13Fe18Ni23
_symmetry_space_group_name_H-M   'P 1'
_cell_length_a   7.44820341
_cell_length_b   7.44820341
_cell_length_c   10.53335028
_cell_angle_alpha   90.00000000
_cell_angle_beta   90.00000000
_cell_angle_gamma   90.00000000
_symmetry_Int_Tables_number   1
_chemical_formula_structural   Cr13Fe18Ni23
_chemical_formula_sum   'Cr13 Fe18 Ni23'
_cell_volume   584.34533871
_cell_formula_units_Z   1
loop_
 _symmetry_equiv_pos_site_id
 _symmetry_equiv_pos_as_xyz
  1  'x, y, z'
loop_
 _atom_site_type_symbol
 _atom_site_label
 _atom_site_symmetry_multiplicity
 _atom_site_fract_x
 _atom_site_fract_y
 _atom_site_fract_z
 _atom_site_occupancy
  Ni  Ni0  1  0.00138303  0.00160051  0.00282257  1
  Cr  Cr1  1  0.16779051  0.16846447  0.17121845  1
  Fe  Fe2  1  0.00208218  1.00071633  0.33490449  1
  Cr  Cr3  1  0.99898931  0.33225399  0.00197289  1
  Ni  Ni4  1  0.16679609  0.50217247  0.17038019  1
  Ni  Ni5  1  1.00060891  0.33694335  0.33424768  1
  Cr  Cr6  1  0.00167036  0.66904214  0.00198965  1
  Fe  Fe7  1  0.16949513  0.83362836  0.16900989  1
  Ni  Ni8  1  0.00175102  0.66778440  0.33442611  1
  Fe  Fe9  1  0.33236529  1.00014736  0.00309534  1
  Ni  Ni10  1  0.50162681  0.16639071  0.16953914  1
  Ni  Ni11  1  0.33679563  1.00067194  0.33467731  1
  Cr  Cr12  1  0.33605137  0.33288443  0.00205880  1
  Cr  Cr13  1  0.50031444  0.50209025  0.16895042  1
  Fe  Fe14  1  0.33442798  0.33344408  0.33676065  1
  Ni  Ni15  1  0.33538276  0.66973073  0.00339298  1
  Ni  Ni16  1  0.50241307  0.83495250  0.16890513  1
  Fe  Fe17  1  0.33306709  0.66808550  0.33504955  1
  Cr  Cr18  1  0.66810426  0.00432575  0.00415193  1
  Fe  Fe19  1  0.83346581  0.16888609  0.17079162  1
  Fe  Fe20  1  0.66728925  0.00154533  0.33427444  1
  Fe  Fe21  1  0.66865165  0.33600360  0.00160153  1
  Ni  Ni22  1  0.83440551  0.50301168  0.16863280  1
  Ni  Ni23  1  0.66714549  0.33325731  0.33283483  1
  Ni  Ni24  1  0.66716694  0.66773682  0.00267603  1
  Ni  Ni25  1  0.83411093  0.83435893  0.17003988  1
  Fe  Fe26  1  0.66963418  0.66831777  0.33462112  1
  Ni  Ni27  1  0.16850265  0.16954448  0.50153075  1
  Ni  Ni28  1  0.00242598  0.00241459  0.66709531  1
  Ni  Ni29  1  0.16700124  0.16544098  0.83134557  1
  Ni  Ni30  1  0.16746075  0.49935127  0.49950631  1
  Ni  Ni31  1  0.00167431  0.33320070  0.66743608  1
  Cr  Cr32  1  0.17056250  0.49964110  0.83434786  1
  Fe  Fe33  1  0.16758939  0.83779062  0.49958500  1
  Cr  Cr34  1  0.00225016  0.66744993  0.66673806  1
  Ni  Ni35  1  0.16842618  0.84000320  0.83583587  1
  Ni  Ni36  1  0.50102046  0.16784452  0.50140918  1
  Fe  Fe37  1  0.33389716  0.00348821  0.66641302  1
  Fe  Fe38  1  0.49983678  0.16807504  0.83275235  1
  Fe  Fe39  1  0.50133248  0.49616202  0.50039427  1
  Ni  Ni40  1  0.33540106  0.33299135  0.66562412  1
  Ni  Ni41  1  0.50340009  0.49966308  0.83502508  1
  Fe  Fe42  1  0.50033345  0.83729022  0.49897085  1
  Cr  Cr43  1  0.33391768  0.66801072  0.66590636  1
  Cr  Cr44  1  0.50033039  0.83407096  0.83532310  1
  Cr  Cr45  1  0.83547865  0.16749156  0.50078982  1
  Ni  Ni46  1  0.66656824  0.00319350  0.66533943  1
  Fe  Fe47  1  0.83532618  0.16784098  0.83243727  1
  Fe  Fe48  1  0.83508210  0.49782853  0.49903437  1
  Ni  Ni49  1  0.66647939  0.33279611  0.67031664  1
  Fe  Fe50  1  0.83263335  0.49909496  0.83499135  1
  Fe  Fe51  1  0.83614509  0.83559781  0.49956232  1
  Cr  Cr52  1  0.66780745  0.66697114  0.66446254  1
  Cr  Cr53  1  0.83444274  0.83661652  0.83311257  1
" 