5333,Ni43Fe5Cr50_15,-219.090920617128, 147.437066154318,Ni43Fe5Cr50,"# generated using pymatgen
 data_Cr28Fe3Ni23
_symmetry_space_group_name_H-M   'P 1'
_cell_length_a   7.52079190
_cell_length_b   7.52079190
_cell_length_c   10.63600590
_cell_angle_alpha   90.00000000
_cell_angle_beta   90.00000000
_cell_angle_gamma   90.00000000
_symmetry_Int_Tables_number   1
_chemical_formula_structural   Cr28Fe3Ni23
_chemical_formula_sum   'Cr28 Fe3 Ni23'
_cell_volume   601.59707076
_cell_formula_units_Z   1
loop_
 _symmetry_equiv_pos_site_id
 _symmetry_equiv_pos_as_xyz
  1  'x, y, z'
loop_
 _atom_site_type_symbol
 _atom_site_label
 _atom_site_symmetry_multiplicity
 _atom_site_fract_x
 _atom_site_fract_y
 _atom_site_fract_z
 _atom_site_occupancy
  Ni  Ni0  1  -0.00254945  -0.00220215  0.99587879  1
  Cr  Cr1  1  0.16231285  0.16686767  0.16230287  1
  Cr  Cr2  1  -0.00313465  0.99631094  0.33019092  1
  Ni  Ni3  1  -0.00113096  0.32853561  0.99575373  1
  Ni  Ni4  1  0.16289020  0.49622507  0.16306037  1
  Ni  Ni5  1  0.99534013  0.33202565  0.32979515  1
  Ni  Ni6  1  0.00087344  0.66303500  -0.00350249  1
  Ni  Ni7  1  0.16229724  0.82790077  0.16088558  1
  Ni  Ni8  1  -0.00170104  0.66150259  0.33013074  1
  Ni  Ni9  1  0.32750787  0.99562421  -0.00333293  1
  Cr  Cr10  1  0.49397781  0.16277741  0.16140227  1
  Cr  Cr11  1  0.32773764  0.99309926  0.32953349  1
  Ni  Ni12  1  0.32685887  0.33123528  0.99590126  1
  Ni  Ni13  1  0.49346536  0.49686577  0.16386674  1
  Ni  Ni14  1  0.32872147  0.33342735  0.32732354  1
  Cr  Cr15  1  0.32780743  0.66168533  -0.00241836  1
  Ni  Ni16  1  0.49604856  0.82940785  0.16235360  1
  Cr  Cr17  1  0.32818007  0.66377395  0.32580741  1
  Ni  Ni18  1  0.66433504  -0.00199260  -0.00232418  1
  Ni  Ni19  1  0.83175890  0.16304564  0.16075918  1
  Cr  Cr20  1  0.66453287  -0.00301743  0.32839073  1
  Cr  Cr21  1  0.66345493  0.32915879  0.99439254  1
  Cr  Cr22  1  0.83451074  0.49700430  0.16465672  1
  Cr  Cr23  1  0.66483107  0.32986433  0.33093603  1
  Cr  Cr24  1  0.65972743  0.66227898  -0.00131673  1
  Cr  Cr25  1  0.83050994  0.82955574  0.16063961  1
  Fe  Fe26  1  0.66320109  0.66194562  0.32799201  1
  Cr  Cr27  1  0.16449532  0.16423515  0.49450485  1
  Cr  Cr28  1  -0.00118163  -0.00329757  0.66312542  1
  Ni  Ni29  1  0.16250306  0.16354970  0.83219759  1
  Cr  Cr30  1  0.16114328  0.49731833  0.49486881  1
  Cr  Cr31  1  0.99453536  0.32899398  0.66358177  1
  Ni  Ni32  1  0.16341496  0.49609605  0.83078853  1
  Ni  Ni33  1  0.16201940  0.82692232  0.49951057  1
  Ni  Ni34  1  0.00131371  0.66343565  0.66290363  1
  Fe  Fe35  1  0.16306718  0.82988662  0.83021820  1
  Cr  Cr36  1  0.49360057  0.16286351  0.49711593  1
  Ni  Ni37  1  0.32636307  0.99257772  0.66338557  1
  Cr  Cr38  1  0.49290327  0.16178090  0.83076909  1
  Cr  Cr39  1  0.49543103  0.49679306  0.49627371  1
  Cr  Cr40  1  0.32912925  0.33168154  0.66614382  1
  Ni  Ni41  1  0.49165744  0.49674205  0.82936439  1
  Cr  Cr42  1  0.49498379  0.82964650  0.49790743  1
  Ni  Ni43  1  0.32582552  0.66510835  0.66495153  1
  Cr  Cr44  1  0.49568689  0.83079630  0.82878973  1
  Ni  Ni45  1  0.83118860  0.16470794  0.49540563  1
  Cr  Cr46  1  0.66531441  -0.00019130  0.66280581  1
  Ni  Ni47  1  0.83346901  0.16176993  0.83298004  1
  Fe  Fe48  1  0.83259346  0.49656124  0.49506885  1
  Cr  Cr49  1  0.66566532  0.32930384  0.66399174  1
  Cr  Cr50  1  0.83389195  0.49854679  0.82979699  1
  Cr  Cr51  1  0.83169406  0.82556066  0.49581832  1
  Cr  Cr52  1  0.66197994  0.65985707  0.66288183  1
  Cr  Cr53  1  0.83200237  0.82986817  0.83284711  1
" 