4596,Ni43Fe25Cr31_12,-227.896810625699, 186.070176077155,Ni43Fe25Cr31,"# generated using pymatgen
 data_Cr18Fe13Ni23
_symmetry_space_group_name_H-M   'P 1'
_cell_length_a   7.46715612
_cell_length_b   7.46715612
_cell_length_c   10.56015345
_cell_angle_alpha   90.00000000
_cell_angle_beta   90.00000000
_cell_angle_gamma   90.00000000
_symmetry_Int_Tables_number   1
_chemical_formula_structural   Cr18Fe13Ni23
_chemical_formula_sum   'Cr18 Fe13 Ni23'
_cell_volume   588.81747632
_cell_formula_units_Z   1
loop_
 _symmetry_equiv_pos_site_id
 _symmetry_equiv_pos_as_xyz
  1  'x, y, z'
loop_
 _atom_site_type_symbol
 _atom_site_label
 _atom_site_symmetry_multiplicity
 _atom_site_fract_x
 _atom_site_fract_y
 _atom_site_fract_z
 _atom_site_occupancy
  Cr  Cr0  1  0.99839854  0.99975304  0.99619876  1
  Cr  Cr1  1  0.16951654  0.16531489  0.16808261  1
  Cr  Cr2  1  0.99611176  0.99914901  0.33817625  1
  Cr  Cr3  1  0.99905141  0.33206043  0.99688621  1
  Ni  Ni4  1  0.16874958  0.50387988  0.16426570  1
  Cr  Cr5  1  0.00270103  0.33286367  0.33708763  1
  Fe  Fe6  1  0.99866779  0.66584092  0.99806876  1
  Cr  Cr7  1  0.16682536  0.83284975  0.16375233  1
  Cr  Cr8  1  0.00049563  0.66806252  0.33415688  1
  Ni  Ni9  1  0.33533940  0.99610029  0.99918266  1
  Ni  Ni10  1  0.50250783  0.16423104  0.16685834  1
  Fe  Fe11  1  0.33492579  0.99904280  0.33483945  1
  Cr  Cr12  1  0.33545693  0.33194440  0.00241723  1
  Ni  Ni13  1  0.50248285  0.50137212  0.16619452  1
  Cr  Cr14  1  0.33560629  0.33473414  0.33372336  1
  Fe  Fe15  1  0.33749444  0.66761472  0.99997831  1
  Ni  Ni16  1  0.50125818  0.83480458  0.16551741  1
  Cr  Cr17  1  0.33664955  0.66697820  0.33442993  1
  Fe  Fe18  1  0.66352907  0.00082655  0.99888543  1
  Cr  Cr19  1  0.82884618  0.16514648  0.16799204  1
  Fe  Fe20  1  0.66194865  0.99858077  0.33639971  1
  Ni  Ni21  1  0.66654239  0.33560319  0.99950485  1
  Cr  Cr22  1  0.83342727  0.50123446  0.16606183  1
  Fe  Fe23  1  0.66532253  0.33318140  0.33543162  1
  Ni  Ni24  1  0.66516896  0.66885467  0.00153505  1
  Fe  Fe25  1  0.82861105  0.83313041  0.16676215  1
  Fe  Fe26  1  0.66540706  0.66810532  0.33402913  1
  Ni  Ni27  1  0.16954097  0.16285803  0.50211688  1
  Fe  Fe28  1  0.99859272  0.99871257  0.66560283  1
  Ni  Ni29  1  0.16814910  0.16265309  0.83054030  1
  Ni  Ni30  1  0.16926377  0.50229283  0.50296016  1
  Cr  Cr31  1  0.00025791  0.33074345  0.66712220  1
  Cr  Cr32  1  0.16860435  0.50249580  0.83191532  1
  Ni  Ni33  1  0.16649009  0.83401116  0.50420908  1
  Ni  Ni34  1  0.00055947  0.66959201  0.66610799  1
  Fe  Fe35  1  0.16884267  0.83477975  0.83075439  1
  Ni  Ni36  1  0.50003708  0.16616232  0.50041714  1
  Fe  Fe37  1  0.33533330  0.99947094  0.66613694  1
  Cr  Cr38  1  0.49986891  0.16592934  0.83258295  1
  Ni  Ni39  1  0.49957509  0.49940284  0.50288521  1
  Ni  Ni40  1  0.33381462  0.33336019  0.66317717  1
  Cr  Cr41  1  0.50354278  0.50151449  0.82964862  1
  Fe  Fe42  1  0.50003040  0.83449300  0.50155224  1
  Ni  Ni43  1  0.33487818  0.66929016  0.66524271  1
  Fe  Fe44  1  0.49951251  0.83330339  0.83290801  1
  Ni  Ni45  1  0.82970318  0.16308092  0.50261445  1
  Ni  Ni46  1  0.66642306  0.99869076  0.66586967  1
  Ni  Ni47  1  0.83095158  0.16627667  0.83099731  1
  Cr  Cr48  1  0.83013554  0.50158256  0.50332957  1
  Ni  Ni49  1  0.66483398  0.33153470  0.66590918  1
  Ni  Ni50  1  0.83108836  0.50102515  0.83175335  1
  Ni  Ni51  1  0.83210919  0.83420035  0.50040622  1
  Ni  Ni52  1  0.66490288  0.66989666  0.66422393  1
  Cr  Cr53  1  0.83152392  0.83099486  0.83220571  1
" 