2413,Ni43Fe48Cr7_12,-236.426987040226, 213.747511560162,Ni43Fe48Cr7,"# generated using pymatgen
 data_Cr5Fe26Ni23
_symmetry_space_group_name_H-M   'P 1'
_cell_length_a   7.41325405
_cell_length_b   7.41325405
_cell_length_c   10.48392442
_cell_angle_alpha   90.00000000
_cell_angle_beta   90.00000000
_cell_angle_gamma   90.00000000
_symmetry_Int_Tables_number   1
_chemical_formula_structural   Cr5Fe26Ni23
_chemical_formula_sum   'Cr5 Fe26 Ni23'
_cell_volume   576.15806880
_cell_formula_units_Z   1
loop_
 _symmetry_equiv_pos_site_id
 _symmetry_equiv_pos_as_xyz
  1  'x, y, z'
loop_
 _atom_site_type_symbol
 _atom_site_label
 _atom_site_symmetry_multiplicity
 _atom_site_fract_x
 _atom_site_fract_y
 _atom_site_fract_z
 _atom_site_occupancy
  Fe  Fe0  1  0.00428863  0.00483398  1.00340311  1
  Fe  Fe1  1  0.17028940  0.16844834  0.16844612  1
  Fe  Fe2  1  1.00279956  1.00302110  0.33780864  1
  Fe  Fe3  1  1.00315075  0.33819097  0.00449201  1
  Fe  Fe4  1  0.16995663  0.50464901  0.16947713  1
  Fe  Fe5  1  1.00076386  0.34071397  0.33655652  1
  Fe  Fe6  1  0.00407817  0.66802335  1.00231161  1
  Fe  Fe7  1  0.17148007  0.83808809  0.17187010  1
  Ni  Ni8  1  0.00427678  0.67104712  0.33763063  1
  Fe  Fe9  1  0.33836728  0.00479633  0.00419142  1
  Ni  Ni10  1  0.50558006  0.16809780  0.16840206  1
  Fe  Fe11  1  0.33885739  1.00020397  0.33669720  1
  Ni  Ni12  1  0.33660883  0.33644161  0.00363502  1
  Fe  Fe13  1  0.50640264  0.50448573  0.17031331  1
  Cr  Cr14  1  0.33930245  0.33719796  0.33654001  1
  Fe  Fe15  1  0.33826894  0.66828490  0.00551480  1
  Ni  Ni16  1  0.50219269  0.83524338  0.17131646  1
  Ni  Ni17  1  0.33584736  0.67042958  0.33727086  1
  Ni  Ni18  1  0.67059561  0.00418397  0.00464530  1
  Ni  Ni19  1  0.83697868  0.17249276  0.17098908  1
  Fe  Fe20  1  0.66858886  0.00410889  0.33720042  1
  Ni  Ni21  1  0.66775385  0.33743983  0.00433668  1
  Fe  Fe22  1  0.83459275  0.50238297  0.17139095  1
  Ni  Ni23  1  0.67033129  0.33609967  0.33667354  1
  Ni  Ni24  1  0.67202007  0.66895881  1.00332941  1
  Cr  Cr25  1  0.83404059  0.83710155  0.16997077  1
  Ni  Ni26  1  0.67079169  0.66907854  0.33841098  1
  Cr  Cr27  1  0.16701093  0.17029085  0.50460494  1
  Ni  Ni28  1  1.00308023  0.99966807  0.67040683  1
  Ni  Ni29  1  0.17009154  0.17170913  0.83756845  1
  Ni  Ni30  1  0.16994682  0.50631232  0.50462412  1
  Fe  Fe31  1  0.00416437  0.33755725  0.67012479  1
  Ni  Ni32  1  0.17105173  0.50327055  0.83560080  1
  Ni  Ni33  1  0.17218786  0.83539291  0.50398721  1
  Ni  Ni34  1  1.00281154  0.67072328  0.67031495  1
  Fe  Fe35  1  0.16840658  0.83762379  0.83548442  1
  Fe  Fe36  1  0.50511785  0.17176725  0.50452851  1
  Ni  Ni37  1  0.33674728  0.00647136  0.67062126  1
  Fe  Fe38  1  0.50126965  0.17214084  0.83754726  1
  Ni  Ni39  1  0.50410589  0.50674370  0.50478728  1
  Ni  Ni40  1  0.33833517  0.33760300  0.67122537  1
  Fe  Fe41  1  0.50302283  0.50044501  0.83698344  1
  Fe  Fe42  1  0.50359548  0.83656990  0.50328374  1
  Fe  Fe43  1  0.33513128  0.67117422  0.66865392  1
  Cr  Cr44  1  0.50477669  0.83639552  0.83714095  1
  Ni  Ni45  1  0.83554531  0.17020150  0.50222507  1
  Ni  Ni46  1  0.67114046  0.00385805  0.66777005  1
  Cr  Cr47  1  0.83629502  0.17017955  0.83683697  1
  Ni  Ni48  1  0.83664646  0.50255048  0.50344708  1
  Fe  Fe49  1  0.67037207  0.33663789  0.66815337  1
  Fe  Fe50  1  0.83742778  0.50538488  0.83667442  1
  Fe  Fe51  1  0.83876740  0.83527742  0.50371848  1
  Fe  Fe52  1  0.67129486  0.67057481  0.66929523  1
  Fe  Fe53  1  0.83937493  0.83535518  0.83748986  1
" 