922,Ni43Fe34Cr21_18,-231.18617139028, 192.701324170038,Ni43Fe34Cr21,"# generated using pymatgen
 data_Cr13Fe18Ni23
_symmetry_space_group_name_H-M   'P 1'
_cell_length_a   7.44812805
_cell_length_b   7.44812805
_cell_length_c   10.53324370
_cell_angle_alpha   90.00000000
_cell_angle_beta   90.00000000
_cell_angle_gamma   90.00000000
_symmetry_Int_Tables_number   1
_chemical_formula_structural   Cr13Fe18Ni23
_chemical_formula_sum   'Cr13 Fe18 Ni23'
_cell_volume   584.32760151
_cell_formula_units_Z   1
loop_
 _symmetry_equiv_pos_site_id
 _symmetry_equiv_pos_as_xyz
  1  'x, y, z'
loop_
 _atom_site_type_symbol
 _atom_site_label
 _atom_site_symmetry_multiplicity
 _atom_site_fract_x
 _atom_site_fract_y
 _atom_site_fract_z
 _atom_site_occupancy
  Cr  Cr0  1  1.00053071  0.00175240  0.00208406  1
  Ni  Ni1  1  0.16692764  0.16649458  0.16659038  1
  Fe  Fe2  1  1.00083786  1.00121873  0.33540780  1
  Fe  Fe3  1  1.00118953  0.33628762  1.00089149  1
  Cr  Cr4  1  0.16677600  0.50158338  0.16713185  1
  Ni  Ni5  1  1.00084135  0.33406720  0.33395041  1
  Fe  Fe6  1  0.99806994  0.66670084  1.00123337  1
  Fe  Fe7  1  0.16747766  0.83582070  0.16949030  1
  Ni  Ni8  1  0.99935910  0.66866909  0.33522904  1
  Fe  Fe9  1  0.33482038  1.00056291  0.00262017  1
  Cr  Cr10  1  0.50064549  0.16847850  0.17025122  1
  Ni  Ni11  1  0.33335091  1.00106867  0.33444544  1
  Ni  Ni12  1  0.33036900  0.33439437  0.99941473  1
  Cr  Cr13  1  0.50360261  0.50252685  0.16906702  1
  Cr  Cr14  1  0.33239880  0.33383543  0.33952392  1
  Fe  Fe15  1  0.33564611  0.66948110  0.00134152  1
  Fe  Fe16  1  0.50189050  0.83458012  0.16965730  1
  Cr  Cr17  1  0.33355796  0.66956095  0.33723783  1
  Cr  Cr18  1  0.66875312  0.99789211  1.00060321  1
  Fe  Fe19  1  0.83623006  0.16780123  0.17127922  1
  Ni  Ni20  1  0.66869804  0.99941348  0.33529668  1
  Cr  Cr21  1  0.67008616  0.33535547  0.00305200  1
  Fe  Fe22  1  0.83553679  0.50270533  0.16987756  1
  Ni  Ni23  1  0.67081596  0.33466355  0.33653663  1
  Ni  Ni24  1  0.66906491  0.66976982  0.00129398  1
  Ni  Ni25  1  0.83549166  0.83285543  0.16896249  1
  Ni  Ni26  1  0.67016825  0.66961674  0.33558705  1
  Ni  Ni27  1  0.16592411  0.16586304  0.50282983  1
  Ni  Ni28  1  0.00284812  1.00099957  0.66594597  1
  Fe  Fe29  1  0.16759444  0.17042767  0.83326281  1
  Fe  Fe30  1  0.16340436  0.50230900  0.50229204  1
  Ni  Ni31  1  0.00246063  0.33582799  0.66836661  1
  Fe  Fe32  1  0.16583171  0.49995342  0.83469684  1
  Ni  Ni33  1  0.16601706  0.83639897  0.49980615  1
  Ni  Ni34  1  1.00087850  0.66698194  0.66763936  1
  Cr  Cr35  1  0.16734287  0.83512868  0.83366069  1
  Fe  Fe36  1  0.50355685  0.16587792  0.50074779  1
  Fe  Fe37  1  0.33307682  1.00046057  0.66444584  1
  Cr  Cr38  1  0.49854455  0.16808515  0.83248106  1
  Ni  Ni39  1  0.50450536  0.50168229  0.50260646  1
  Fe  Fe40  1  0.33304935  0.33588529  0.66553257  1
  Cr  Cr41  1  0.50209305  0.50177617  0.83377595  1
  Ni  Ni42  1  0.50147732  0.83324597  0.50093359  1
  Fe  Fe43  1  0.33396997  0.66774570  0.66464496  1
  Fe  Fe44  1  0.50162957  0.83236192  0.83329642  1
  Ni  Ni45  1  0.83685116  0.16886511  0.49993020  1
  Cr  Cr46  1  0.66951555  0.99901831  0.66704979  1
  Cr  Cr47  1  0.83689012  0.16975223  0.83231815  1
  Ni  Ni48  1  0.83344526  0.50149903  0.50068664  1
  Ni  Ni49  1  0.66927670  0.33649922  0.66506239  1
  Ni  Ni50  1  0.83553896  0.50339648  0.83528748  1
  Ni  Ni51  1  0.83604878  0.83348661  0.50234731  1
  Ni  Ni52  1  0.66885236  0.66704681  0.66770883  1
  Fe  Fe53  1  0.83482477  0.83085310  0.83317236  1
" 