6097,Ni43Fe5Cr50_1,-218.884005904919, 141.716902699719,Ni43Fe5Cr50,"# generated using pymatgen
 data_Cr28Fe3Ni23
_symmetry_space_group_name_H-M   'P 1'
_cell_length_a   7.52063370
_cell_length_b   7.52063370
_cell_length_c   10.63578218
_cell_angle_alpha   90.00000000
_cell_angle_beta   90.00000000
_cell_angle_gamma   90.00000000
_symmetry_Int_Tables_number   1
_chemical_formula_structural   Cr28Fe3Ni23
_chemical_formula_sum   'Cr28 Fe3 Ni23'
_cell_volume   601.55910942
_cell_formula_units_Z   1
loop_
 _symmetry_equiv_pos_site_id
 _symmetry_equiv_pos_as_xyz
  1  'x, y, z'
loop_
 _atom_site_type_symbol
 _atom_site_label
 _atom_site_symmetry_multiplicity
 _atom_site_fract_x
 _atom_site_fract_y
 _atom_site_fract_z
 _atom_site_occupancy
  Cr  Cr0  1  -0.00336658  -0.00325745  -0.00352708  1
  Cr  Cr1  1  0.16585349  0.16366474  0.16416130  1
  Cr  Cr2  1  -0.00071537  0.99314280  0.33109735  1
  Cr  Cr3  1  -0.00187288  0.32886917  0.99502500  1
  Ni  Ni4  1  0.16562586  0.49755397  0.16528084  1
  Cr  Cr5  1  -0.00102287  0.32765922  0.32922133  1
  Cr  Cr6  1  -0.00048448  0.66114711  -0.00217215  1
  Cr  Cr7  1  0.16674655  0.82991149  0.16524637  1
  Ni  Ni8  1  -0.00192142  0.65944405  0.32954789  1
  Ni  Ni9  1  0.32764474  -0.00258413  0.99040650  1
  Cr  Cr10  1  0.49396164  0.16432741  0.16643048  1
  Ni  Ni11  1  0.32946611  -0.00277062  0.33471206  1
  Cr  Cr12  1  0.33086941  0.33280208  0.99612219  1
  Ni  Ni13  1  0.49357844  0.49879915  0.16790393  1
  Ni  Ni14  1  0.33330761  0.33086573  0.33188238  1
  Ni  Ni15  1  0.32703371  0.66535444  0.99475074  1
  Cr  Cr16  1  0.49276039  0.83109930  0.16107812  1
  Ni  Ni17  1  0.32960713  0.66212010  0.33027484  1
  Cr  Cr18  1  0.66083975  -0.00075731  0.99288934  1
  Ni  Ni19  1  0.82869283  0.16677363  0.16485957  1
  Cr  Cr20  1  0.66230847  -0.00024280  0.33087934  1
  Cr  Cr21  1  0.66280142  0.32930037  -0.00114560  1
  Ni  Ni22  1  0.82940602  0.49437482  0.16836797  1
  Ni  Ni23  1  0.66019982  0.33440127  0.33052540  1
  Cr  Cr24  1  0.65921400  0.66115394  -0.00166529  1
  Cr  Cr25  1  0.82845847  0.82827969  0.16645495  1
  Ni  Ni26  1  0.66053405  0.65997961  0.32911997  1
  Ni  Ni27  1  0.16965461  0.15936798  0.49630686  1
  Cr  Cr28  1  0.00057638  0.99392140  0.66140550  1
  Ni  Ni29  1  0.16448661  0.16206988  0.82718598  1
  Cr  Cr30  1  0.16471549  0.49294514  0.49615862  1
  Fe  Fe31  1  0.00070100  0.32565785  0.66366581  1
  Ni  Ni32  1  0.16642994  0.49669506  0.82824649  1
  Fe  Fe33  1  0.16629986  0.82692443  0.49560061  1
  Cr  Cr34  1  0.00086125  0.66184396  0.66270184  1
  Ni  Ni35  1  0.16772393  0.82986478  0.82793673  1
  Fe  Fe36  1  0.49587696  0.16552554  0.49613089  1
  Ni  Ni37  1  0.33109007  -0.00331942  0.66276527  1
  Ni  Ni38  1  0.49480190  0.16027249  0.82674753  1
  Ni  Ni39  1  0.49308314  0.49924645  0.49320517  1
  Cr  Cr40  1  0.33017179  0.32985608  0.66189907  1
  Cr  Cr41  1  0.49439906  0.50036813  0.82991632  1
  Cr  Cr42  1  0.49433498  0.83086858  0.49746433  1
  Ni  Ni43  1  0.32785322  0.66501952  0.66374620  1
  Ni  Ni44  1  0.48860084  0.83404153  0.82836793  1
  Cr  Cr45  1  0.83222560  0.16381499  0.49876799  1
  Ni  Ni46  1  0.66116725  -0.00050682  0.66486532  1
  Ni  Ni47  1  0.83095136  0.16214906  0.82568379  1
  Cr  Cr48  1  0.82755013  0.49586206  0.49706546  1
  Cr  Cr49  1  0.65895917  0.32946478  0.66197603  1
  Cr  Cr50  1  0.83351446  0.49279030  0.82588988  1
  Cr  Cr51  1  0.82820905  0.82694573  0.49482961  1
  Cr  Cr52  1  0.65761746  0.66529782  0.66306783  1
  Cr  Cr53  1  0.82623750  0.82922026  0.82829454  1
" 