5443,Ni43Fe48Cr7_0,-236.084215473545, 214.249390747017,Ni43Fe48Cr7,"# generated using pymatgen
 data_Cr5Fe26Ni23
_symmetry_space_group_name_H-M   'P 1'
_cell_length_a   7.41101414
_cell_length_b   7.41101414
_cell_length_c   10.48075671
_cell_angle_alpha   90.00000000
_cell_angle_beta   90.00000000
_cell_angle_gamma   90.00000000
_symmetry_Int_Tables_number   1
_chemical_formula_structural   Cr5Fe26Ni23
_chemical_formula_sum   'Cr5 Fe26 Ni23'
_cell_volume   575.63597035
_cell_formula_units_Z   1
loop_
 _symmetry_equiv_pos_site_id
 _symmetry_equiv_pos_as_xyz
  1  'x, y, z'
loop_
 _atom_site_type_symbol
 _atom_site_label
 _atom_site_symmetry_multiplicity
 _atom_site_fract_x
 _atom_site_fract_y
 _atom_site_fract_z
 _atom_site_occupancy
  Fe  Fe0  1  0.00437428  1.00311502  0.00381651  1
  Ni  Ni1  1  0.16957915  0.16829873  0.17064482  1
  Fe  Fe2  1  0.00580187  1.00320450  0.33725200  1
  Fe  Fe3  1  0.00418136  0.33798704  0.00415834  1
  Fe  Fe4  1  0.16674310  0.50447799  0.16998847  1
  Ni  Ni5  1  1.00262020  0.33754733  0.33597690  1
  Ni  Ni6  1  0.00420748  0.66913625  0.00398353  1
  Fe  Fe7  1  0.16986046  0.83700845  0.17076872  1
  Fe  Fe8  1  0.00401700  0.67072431  0.33677446  1
  Fe  Fe9  1  0.33650732  1.00363182  0.00382244  1
  Fe  Fe10  1  0.50462296  0.16859345  0.16897129  1
  Ni  Ni11  1  0.33620365  1.00188807  0.33594305  1
  Fe  Fe12  1  0.33495264  0.33573361  1.00359488  1
  Cr  Cr13  1  0.50518199  0.50466036  0.17036139  1
  Cr  Cr14  1  0.33481857  0.33612001  0.33828182  1
  Ni  Ni15  1  0.33499689  0.67206525  0.00391921  1
  Fe  Fe16  1  0.50345954  0.83787859  0.16998374  1
  Ni  Ni17  1  0.33677499  0.67327884  0.33792862  1
  Fe  Fe18  1  0.67046156  1.00300270  1.00376851  1
  Ni  Ni19  1  0.83909668  0.17060047  0.16957383  1
  Cr  Cr20  1  0.66944402  1.00297384  0.33780662  1
  Fe  Fe21  1  0.67220956  0.33655191  1.00336988  1
  Ni  Ni22  1  0.83723411  0.50464653  0.17152746  1
  Fe  Fe23  1  0.67207017  0.33831530  0.33814720  1
  Fe  Fe24  1  0.67271598  0.67178845  0.00408649  1
  Ni  Ni25  1  0.83860870  0.83609445  0.16930924  1
  Ni  Ni26  1  0.67103441  0.67043120  0.33692384  1
  Fe  Fe27  1  0.16883044  0.17041694  0.50369436  1
  Ni  Ni28  1  1.00219955  0.00501539  0.67038872  1
  Ni  Ni29  1  0.17030465  0.17002851  0.83694961  1
  Ni  Ni30  1  0.17138434  0.50530226  0.50514659  1
  Ni  Ni31  1  1.00360750  0.33718331  0.67152661  1
  Fe  Fe32  1  0.16884198  0.50309113  0.83706235  1
  Ni  Ni33  1  0.16843657  0.83659331  0.50219733  1
  Fe  Fe34  1  1.00247548  0.67074479  0.67063672  1
  Fe  Fe35  1  0.16984378  0.83637762  0.83782231  1
  Ni  Ni36  1  0.50437383  0.17277188  0.50438865  1
  Cr  Cr37  1  0.33791815  1.00373719  0.66969578  1
  Ni  Ni38  1  0.50340410  0.17028984  0.83869011  1
  Ni  Ni39  1  0.50423360  0.50348760  0.50511672  1
  Fe  Fe40  1  0.33715586  0.33705870  0.66940657  1
  Cr  Cr41  1  0.50468269  0.50302420  0.83581023  1
  Fe  Fe42  1  0.50338539  0.83471012  0.50341108  1
  Fe  Fe43  1  0.33650115  0.66937532  0.66899870  1
  Fe  Fe44  1  0.50463725  0.83806475  0.83794786  1
  Fe  Fe45  1  0.83820393  0.17145412  0.50480897  1
  Ni  Ni46  1  0.67151885  1.00364324  0.67134703  1
  Fe  Fe47  1  0.83692238  0.17112832  0.83660209  1
  Fe  Fe48  1  0.83681920  0.50390948  0.50401202  1
  Ni  Ni49  1  0.67210672  0.33656083  0.66876093  1
  Ni  Ni50  1  0.83769016  0.50504489  0.83695464  1
  Ni  Ni51  1  0.83904228  0.83673207  0.50516437  1
  Ni  Ni52  1  0.67098261  0.67114226  0.67027168  1
  Fe  Fe53  1  0.83686148  0.83750005  0.83664727  1
" 