5023,Ni43Fe27Cr29_17,-228.503637178267, 188.364551709451,Ni43Fe27Cr29,"# generated using pymatgen
 data_Cr17Fe14Ni23
_symmetry_space_group_name_H-M   'P 1'
_cell_length_a   7.46230668
_cell_length_b   7.46230668
_cell_length_c   10.55329531
_cell_angle_alpha   90.00000000
_cell_angle_beta   90.00000000
_cell_angle_gamma   90.00000000
_symmetry_Int_Tables_number   1
_chemical_formula_structural   Cr17Fe14Ni23
_chemical_formula_sum   'Cr17 Fe14 Ni23'
_cell_volume   587.67102445
_cell_formula_units_Z   1
loop_
 _symmetry_equiv_pos_site_id
 _symmetry_equiv_pos_as_xyz
  1  'x, y, z'
loop_
 _atom_site_type_symbol
 _atom_site_label
 _atom_site_symmetry_multiplicity
 _atom_site_fract_x
 _atom_site_fract_y
 _atom_site_fract_z
 _atom_site_occupancy
  Cr  Cr0  1  0.00242792  0.99804552  0.99786726  1
  Cr  Cr1  1  0.16981789  0.16583433  0.16906272  1
  Fe  Fe2  1  0.99978775  0.99978566  0.33435888  1
  Cr  Cr3  1  0.00399603  0.33543172  0.00275754  1
  Ni  Ni4  1  0.16895971  0.50375406  0.16590476  1
  Fe  Fe5  1  0.99989436  0.33485877  0.33554412  1
  Fe  Fe6  1  0.00250118  0.66783392  1.00029175  1
  Ni  Ni7  1  0.17007520  0.83044762  0.16577802  1
  Cr  Cr8  1  1.00020742  0.66572582  0.33320336  1
  Ni  Ni9  1  0.33543761  0.99970771  0.00106555  1
  Ni  Ni10  1  0.49998111  0.16435867  0.16519987  1
  Fe  Fe11  1  0.33625355  0.99724454  0.33254048  1
  Ni  Ni12  1  0.33363182  0.33377869  0.99907481  1
  Fe  Fe13  1  0.49795848  0.50264868  0.16730434  1
  Cr  Cr14  1  0.33217655  0.33542690  0.33544972  1
  Fe  Fe15  1  0.33473163  0.66728640  0.00033756  1
  Fe  Fe16  1  0.49829266  0.83389084  0.16792583  1
  Ni  Ni17  1  0.33463726  0.66730179  0.33323911  1
  Ni  Ni18  1  0.66277128  0.99661686  0.99942908  1
  Cr  Cr19  1  0.83096046  0.16622234  0.16759558  1
  Ni  Ni20  1  0.66651002  0.99839085  0.33397658  1
  Cr  Cr21  1  0.66293493  0.33452018  0.00127526  1
  Fe  Fe22  1  0.83343384  0.50224336  0.16712517  1
  Cr  Cr23  1  0.66702126  0.33590468  0.33401083  1
  Ni  Ni24  1  0.66544431  0.66919401  0.00176181  1
  Cr  Cr25  1  0.83198104  0.83305423  0.16621178  1
  Ni  Ni26  1  0.66535607  0.66898236  0.33457892  1
  Ni  Ni27  1  0.16323475  0.16605422  0.49801918  1
  Fe  Fe28  1  0.99953686  0.99889721  0.66690464  1
  Ni  Ni29  1  0.17030701  0.16705672  0.83477364  1
  Ni  Ni30  1  0.16697725  0.50239508  0.50086662  1
  Cr  Cr31  1  0.00180473  0.33417392  0.66431792  1
  Ni  Ni32  1  0.16903669  0.50417582  0.83443471  1
  Cr  Cr33  1  0.16937301  0.83229619  0.50025508  1
  Ni  Ni34  1  0.00096996  0.66857097  0.66817123  1
  Fe  Fe35  1  0.16841697  0.83244974  0.83360871  1
  Cr  Cr36  1  0.50191762  0.16482963  0.50094996  1
  Cr  Cr37  1  0.33409762  0.99968533  0.66760508  1
  Ni  Ni38  1  0.49975499  0.16461672  0.83519146  1
  Ni  Ni39  1  0.50011457  0.50436878  0.50126812  1
  Cr  Cr40  1  0.33405091  0.33493291  0.66747298  1
  Fe  Fe41  1  0.49858105  0.50023445  0.83342861  1
  Ni  Ni42  1  0.50121557  0.83155546  0.49795601  1
  Ni  Ni43  1  0.33224284  0.66705928  0.66709056  1
  Fe  Fe44  1  0.49999169  0.83319821  0.83393679  1
  Ni  Ni45  1  0.83388873  0.16541677  0.50039050  1
  Ni  Ni46  1  0.66806670  0.99892719  0.66715928  1
  Cr  Cr47  1  0.83064059  0.16595537  0.83268415  1
  Ni  Ni48  1  0.83336641  0.50030671  0.49961462  1
  Ni  Ni49  1  0.66677349  0.33283775  0.66607890  1
  Cr  Cr50  1  0.83372065  0.50276707  0.83472022  1
  Fe  Fe51  1  0.83286015  0.83459556  0.49982836  1
  Cr  Cr52  1  0.66625005  0.66820145  0.66386551  1
  Fe  Fe53  1  0.83278136  0.83310452  0.83369002  1
" 