2124,Ni43Fe25Cr31_6,-227.476014656725, 182.364090841155,Ni43Fe25Cr31,"# generated using pymatgen
 data_Cr18Fe13Ni23
_symmetry_space_group_name_H-M   'P 1'
_cell_length_a   7.46936610
_cell_length_b   7.46936610
_cell_length_c   10.56327884
_cell_angle_alpha   90.00000000
_cell_angle_beta   90.00000000
_cell_angle_gamma   90.00000000
_symmetry_Int_Tables_number   1
_chemical_formula_structural   Cr18Fe13Ni23
_chemical_formula_sum   'Cr18 Fe13 Ni23'
_cell_volume   589.34043105
_cell_formula_units_Z   1
loop_
 _symmetry_equiv_pos_site_id
 _symmetry_equiv_pos_as_xyz
  1  'x, y, z'
loop_
 _atom_site_type_symbol
 _atom_site_label
 _atom_site_symmetry_multiplicity
 _atom_site_fract_x
 _atom_site_fract_y
 _atom_site_fract_z
 _atom_site_occupancy
  Ni  Ni0  1  0.00197885  0.99751378  0.00190937  1
  Ni  Ni1  1  0.16708803  0.16357190  0.16781027  1
  Cr  Cr2  1  0.99860500  -0.00001388  0.33058505  1
  Cr  Cr3  1  0.00026930  0.33169496  0.99855831  1
  Cr  Cr4  1  0.16662278  0.50060560  0.16649512  1
  Fe  Fe5  1  0.99738777  0.33263450  0.33315944  1
  Ni  Ni6  1  0.00277055  0.67134192  0.99819582  1
  Ni  Ni7  1  0.16858203  0.83607896  0.16275875  1
  Cr  Cr8  1  0.99900923  0.66837734  0.33384558  1
  Fe  Fe9  1  0.33176249  0.99808221  0.99954795  1
  Fe  Fe10  1  0.49995632  0.16615705  0.16691388  1
  Fe  Fe11  1  0.33491968  0.99932553  0.33066384  1
  Cr  Cr12  1  0.33647810  0.33448005  0.99921204  1
  Fe  Fe13  1  0.50090513  0.49989700  0.16683394  1
  Fe  Fe14  1  0.33401032  0.33183405  0.33186525  1
  Ni  Ni15  1  0.33187645  0.66802467  0.99930996  1
  Ni  Ni16  1  0.49782504  0.83249090  0.16774253  1
  Cr  Cr17  1  0.33436040  0.66642545  0.33180698  1
  Cr  Cr18  1  0.66755395  0.00151426  0.00025560  1
  Ni  Ni19  1  0.83387415  0.16734036  0.16641917  1
  Cr  Cr20  1  0.66812525  0.99857934  0.33411575  1
  Ni  Ni21  1  0.66381889  0.33198092  -0.00006865  1
  Cr  Cr22  1  0.83023307  0.49934061  0.16654988  1
  Ni  Ni23  1  0.66593326  0.33234978  0.33132235  1
  Cr  Cr24  1  0.66462033  0.66586859  0.99950326  1
  Ni  Ni25  1  0.83333568  0.83349046  0.16499762  1
  Ni  Ni26  1  0.66547280  0.66643726  0.33391449  1
  Cr  Cr27  1  0.16644460  0.16883472  0.49982632  1
  Cr  Cr28  1  0.99817579  0.99903764  0.66699751  1
  Ni  Ni29  1  0.16892525  0.16490887  0.83201628  1
  Fe  Fe30  1  0.16528044  0.49961809  0.50205796  1
  Fe  Fe31  1  0.00123637  0.33732082  0.66718738  1
  Fe  Fe32  1  0.16778339  0.50131913  0.83188004  1
  Cr  Cr33  1  0.16982450  0.83285473  0.50126797  1
  Ni  Ni34  1  0.00054604  0.66521461  0.66722166  1
  Fe  Fe35  1  0.16769574  0.83195096  0.83443826  1
  Cr  Cr36  1  0.49852319  0.16489958  0.50027067  1
  Fe  Fe37  1  0.33433191  0.99807967  0.66912400  1
  Ni  Ni38  1  0.49553166  0.16646947  0.83324224  1
  Cr  Cr39  1  0.50082965  0.50243834  0.49918884  1
  Ni  Ni40  1  0.33078893  0.33513681  0.66857108  1
  Ni  Ni41  1  0.50022967  0.50186196  0.83356257  1
  Ni  Ni42  1  0.50107443  0.83048942  0.50115634  1
  Ni  Ni43  1  0.33265440  0.66419891  0.66797089  1
  Ni  Ni44  1  0.49613943  0.83088511  0.83059563  1
  Ni  Ni45  1  0.83497372  0.17000893  0.49853122  1
  Cr  Cr46  1  0.66642210  0.99751769  0.66528266  1
  Cr  Cr47  1  0.83441009  0.16864727  0.83489492  1
  Fe  Fe48  1  0.83317526  0.50070228  0.50038602  1
  Cr  Cr49  1  0.66483513  0.33346589  0.66935728  1
  Ni  Ni50  1  0.83332244  0.50283820  0.83199550  1
  Ni  Ni51  1  0.83097200  0.82972396  0.50106949  1
  Ni  Ni52  1  0.66652363  0.66764202  0.66610901  1
  Fe  Fe53  1  0.83359461  0.83013055  0.83319389  1
" 