4181,Ni43Fe27Cr29_13,-228.74081042951, 186.680618039256,Ni43Fe27Cr29,"# generated using pymatgen
 data_Cr17Fe14Ni23
_symmetry_space_group_name_H-M   'P 1'
_cell_length_a   7.47099001
_cell_length_b   7.47099001
_cell_length_c   10.56557539
_cell_angle_alpha   90.00000000
_cell_angle_beta   90.00000000
_cell_angle_gamma   90.00000000
_symmetry_Int_Tables_number   1
_chemical_formula_structural   Cr17Fe14Ni23
_chemical_formula_sum   'Cr17 Fe14 Ni23'
_cell_volume   589.72489810
_cell_formula_units_Z   1
loop_
 _symmetry_equiv_pos_site_id
 _symmetry_equiv_pos_as_xyz
  1  'x, y, z'
loop_
 _atom_site_type_symbol
 _atom_site_label
 _atom_site_symmetry_multiplicity
 _atom_site_fract_x
 _atom_site_fract_y
 _atom_site_fract_z
 _atom_site_occupancy
  Cr  Cr0  1  -0.00016116  0.00189104  0.00179810  1
  Ni  Ni1  1  0.16876827  0.16578256  0.16580130  1
  Cr  Cr2  1  -0.00021287  0.00002463  0.33020088  1
  Ni  Ni3  1  0.00000008  0.33126287  0.99715585  1
  Cr  Cr4  1  0.16534454  0.49703840  0.16652247  1
  Cr  Cr5  1  0.99852905  0.33104139  0.33474688  1
  Ni  Ni6  1  0.00051446  0.66629495  0.99843816  1
  Fe  Fe7  1  0.16715596  0.83536933  0.16681182  1
  Fe  Fe8  1  0.99893903  0.66726909  0.33353525  1
  Fe  Fe9  1  0.33281654  0.00227555  0.00149685  1
  Ni  Ni10  1  0.49891772  0.16331386  0.16672842  1
  Ni  Ni11  1  0.33525905  0.99950949  0.33238601  1
  Ni  Ni12  1  0.33278276  0.33061138  0.99788207  1
  Cr  Cr13  1  0.50020085  0.49733831  0.16736043  1
  Ni  Ni14  1  0.33509712  0.33030244  0.33306081  1
  Cr  Cr15  1  0.33252554  0.66610044  0.99890669  1
  Ni  Ni16  1  0.50139933  0.83765791  0.16874504  1
  Cr  Cr17  1  0.33401438  0.66875126  0.33332985  1
  Fe  Fe18  1  0.66556297  0.00320165  0.00199371  1
  Ni  Ni19  1  0.83141503  0.16516061  0.16627578  1
  Ni  Ni20  1  0.66441771  0.00017511  0.33254898  1
  Fe  Fe21  1  0.66745182  0.33061930  0.99855163  1
  Cr  Cr22  1  0.83369337  0.50037816  0.16632353  1
  Ni  Ni23  1  0.66571882  0.33079149  0.33318911  1
  Cr  Cr24  1  0.66569126  0.66549802  0.99963893  1
  Fe  Fe25  1  0.83130980  0.83452203  0.16718233  1
  Ni  Ni26  1  0.66620528  0.66825605  0.33314155  1
  Cr  Cr27  1  0.16989641  0.16804901  0.49976563  1
  Cr  Cr28  1  0.00017144  0.00222629  0.66723214  1
  Ni  Ni29  1  0.16741925  0.16966560  0.83324684  1
  Fe  Fe30  1  0.16577255  0.50025858  0.50106480  1
  Ni  Ni31  1  0.00018336  0.33316724  0.66784444  1
  Ni  Ni32  1  0.16448448  0.49609582  0.83246537  1
  Ni  Ni33  1  0.16707693  0.83221716  0.49980645  1
  Fe  Fe34  1  -0.00014962  0.66222811  0.66707478  1
  Fe  Fe35  1  0.16537448  0.83239294  0.83283991  1
  Ni  Ni36  1  0.49920654  0.16417364  0.49858304  1
  Fe  Fe37  1  0.33444058  0.00181279  0.66506860  1
  Fe  Fe38  1  0.49864129  0.16921520  0.83368949  1
  Cr  Cr39  1  0.50058557  0.49844096  0.49722433  1
  Ni  Ni40  1  0.33152277  0.33258832  0.66814747  1
  Ni  Ni41  1  0.49927068  0.49762091  0.83370204  1
  Ni  Ni42  1  0.50066877  0.83601506  0.49955422  1
  Cr  Cr43  1  0.33374507  0.66612327  0.66694192  1
  Cr  Cr44  1  0.50049934  0.83519435  0.83057081  1
  Fe  Fe45  1  0.82951719  0.16671457  0.49951845  1
  Fe  Fe46  1  0.66418676  0.00128735  0.66492832  1
  Ni  Ni47  1  0.83423219  0.16882838  0.83345583  1
  Fe  Fe48  1  0.83336089  0.50016178  0.50009813  1
  Cr  Cr49  1  0.66745346  0.33318013  0.66781508  1
  Ni  Ni50  1  0.83550158  0.49867031  0.83267779  1
  Cr  Cr51  1  0.83065152  0.83090922  0.49971614  1
  Ni  Ni52  1  0.66610665  0.66637792  0.66649727  1
  Cr  Cr53  1  0.83257543  0.83170003  0.83247056  1
" 