487,Ni43Fe27Cr29_3,-228.516809106638, 182.6626801151,Ni43Fe27Cr29,"# generated using pymatgen
 data_Cr17Fe14Ni23
_symmetry_space_group_name_H-M   'P 1'
_cell_length_a   7.46775165
_cell_length_b   7.46775165
_cell_length_c   10.56099567
_cell_angle_alpha   90.00000000
_cell_angle_beta   90.00000000
_cell_angle_gamma   90.00000000
_symmetry_Int_Tables_number   1
_chemical_formula_structural   Cr17Fe14Ni23
_chemical_formula_sum   'Cr17 Fe14 Ni23'
_cell_volume   588.95836982
_cell_formula_units_Z   1
loop_
 _symmetry_equiv_pos_site_id
 _symmetry_equiv_pos_as_xyz
  1  'x, y, z'
loop_
 _atom_site_type_symbol
 _atom_site_label
 _atom_site_symmetry_multiplicity
 _atom_site_fract_x
 _atom_site_fract_y
 _atom_site_fract_z
 _atom_site_occupancy
  Ni  Ni0  1  0.00142507  0.99901616  0.00041423  1
  Cr  Cr1  1  0.16613648  0.16457517  0.16604062  1
  Fe  Fe2  1  0.00226899  0.99994091  0.33361510  1
  Cr  Cr3  1  0.00062061  0.33103970  0.99892122  1
  Cr  Cr4  1  0.16860966  0.49932773  0.16915086  1
  Fe  Fe5  1  0.99969397  0.33300660  0.33554360  1
  Cr  Cr6  1  0.99946193  0.67009666  0.99824766  1
  Fe  Fe7  1  0.16688654  0.83521122  0.16880227  1
  Ni  Ni8  1  0.00308403  0.66664669  0.33512740  1
  Ni  Ni9  1  0.33154962  0.00021211  0.99848707  1
  Cr  Cr10  1  0.49847672  0.16751272  0.16579651  1
  Ni  Ni11  1  0.33066937  0.99913581  0.33403602  1
  Ni  Ni12  1  0.33551604  0.33251222  0.99636172  1
  Fe  Fe13  1  0.50008818  0.49892980  0.16628713  1
  Ni  Ni14  1  0.33295449  0.33328349  0.33553429  1
  Cr  Cr15  1  0.33534994  0.66744647  0.00053751  1
  Ni  Ni16  1  0.49836091  0.83163378  0.16687275  1
  Ni  Ni17  1  0.32946437  0.66744054  0.33243068  1
  Cr  Cr18  1  0.66674970  0.99853628  0.99964412  1
  Ni  Ni19  1  0.83438779  0.16641224  0.16780067  1
  Cr  Cr20  1  0.66653323  0.00263032  0.33362753  1
  Ni  Ni21  1  0.66374697  0.33489981  0.00063259  1
  Cr  Cr22  1  0.83086139  0.49888544  0.16639390  1
  Ni  Ni23  1  0.66785671  0.33230522  0.33398704  1
  Ni  Ni24  1  0.66501784  0.66631937  0.00016462  1
  Fe  Fe25  1  0.83455083  0.83501050  0.16589312  1
  Cr  Cr26  1  0.66641609  0.66555740  0.33029794  1
  Ni  Ni27  1  0.16736090  0.16554641  0.49860921  1
  Ni  Ni28  1  0.00208069  0.99847847  0.66665947  1
  Ni  Ni29  1  0.16979780  0.16484193  0.83456352  1
  Fe  Fe30  1  0.16574363  0.50141033  0.49809181  1
  Cr  Cr31  1  0.00250783  0.33388318  0.66461879  1
  Fe  Fe32  1  0.16976474  0.49985904  0.83255071  1
  Ni  Ni33  1  0.16675824  0.83528674  0.49917484  1
  Fe  Fe34  1  0.00013883  0.66946334  0.66586264  1
  Fe  Fe35  1  0.16672013  0.83591585  0.83151473  1
  Fe  Fe36  1  0.49779477  0.16616109  0.49943494  1
  Ni  Ni37  1  0.33226987  -0.00002974  0.66719823  1
  Fe  Fe38  1  0.49745294  0.16598138  0.83363537  1
  Cr  Cr39  1  0.50005500  0.49995844  0.49824185  1
  Fe  Fe40  1  0.33289602  0.33120321  0.66764146  1
  Ni  Ni41  1  0.49885718  0.50128037  0.83533927  1
  Cr  Cr42  1  0.49732244  0.83427874  0.50177112  1
  Fe  Fe43  1  0.33300890  0.66811548  0.66777411  1
  Ni  Ni44  1  0.50032384  0.83196249  0.83135695  1
  Fe  Fe45  1  0.83445958  0.16689127  0.49933490  1
  Ni  Ni46  1  0.66549698  0.99810310  0.66730802  1
  Cr  Cr47  1  0.83522834  0.16352533  0.83437509  1
  Ni  Ni48  1  0.83485589  0.49900679  0.49893895  1
  Cr  Cr49  1  0.66539471  0.33224088  0.66520509  1
  Cr  Cr50  1  0.83068174  0.50338323  0.83382079  1
  Cr  Cr51  1  0.83482817  0.83214157  0.50278039  1
  Ni  Ni52  1  0.66667344  0.66823405  0.66880032  1
  Ni  Ni53  1  0.83224439  0.83280718  0.83220376  1
" 