5445,Ni43Fe48Cr7_9,-236.862686998483, 210.813268993831,Ni43Fe48Cr7,"# generated using pymatgen
 data_Cr5Fe26Ni23
_symmetry_space_group_name_H-M   'P 1'
_cell_length_a   7.41850644
_cell_length_b   7.41850644
_cell_length_c   10.49135243
_cell_angle_alpha   90.00000000
_cell_angle_beta   90.00000000
_cell_angle_gamma   90.00000000
_symmetry_Int_Tables_number   1
_chemical_formula_structural   Cr5Fe26Ni23
_chemical_formula_sum   'Cr5 Fe26 Ni23'
_cell_volume   577.38358482
_cell_formula_units_Z   1
loop_
 _symmetry_equiv_pos_site_id
 _symmetry_equiv_pos_as_xyz
  1  'x, y, z'
loop_
 _atom_site_type_symbol
 _atom_site_label
 _atom_site_symmetry_multiplicity
 _atom_site_fract_x
 _atom_site_fract_y
 _atom_site_fract_z
 _atom_site_occupancy
  Ni  Ni0  1  1.00264492  0.00402557  0.00327872  1
  Ni  Ni1  1  0.16874798  0.17112886  0.17033543  1
  Ni  Ni2  1  1.00295530  0.00390918  0.33736743  1
  Fe  Fe3  1  0.00371937  0.33569108  0.00352271  1
  Fe  Fe4  1  0.16911922  0.50269372  0.16869229  1
  Fe  Fe5  1  1.00314518  0.33592385  0.33658118  1
  Fe  Fe6  1  0.00417100  0.67015653  1.00215360  1
  Fe  Fe7  1  0.16944127  0.83745576  0.16865625  1
  Ni  Ni8  1  1.00324644  0.66906946  0.33668999  1
  Fe  Fe9  1  0.33652235  1.00250816  0.00357215  1
  Fe  Fe10  1  0.50381708  0.17073452  0.16877724  1
  Cr  Cr11  1  0.33498576  0.00451150  0.33578392  1
  Fe  Fe12  1  0.33600363  0.33610686  1.00249044  1
  Fe  Fe13  1  0.50394760  0.50235046  0.16848738  1
  Fe  Fe14  1  0.33553485  0.33564222  0.33719315  1
  Ni  Ni15  1  0.33618513  0.66936274  1.00319486  1
  Ni  Ni16  1  0.50305377  0.83468328  0.16752339  1
  Cr  Cr17  1  0.33514973  0.66854109  0.33740832  1
  Ni  Ni18  1  0.67022527  0.00514160  1.00228587  1
  Ni  Ni19  1  0.83853131  0.17204753  0.16981235  1
  Cr  Cr20  1  0.67177090  0.00603980  0.33790379  1
  Fe  Fe21  1  0.67009521  0.33617822  1.00302815  1
  Fe  Fe22  1  0.83674499  0.50143997  0.17097390  1
  Fe  Fe23  1  0.67113338  0.33789886  0.33759639  1
  Fe  Fe24  1  0.66863477  0.67067909  1.00216518  1
  Cr  Cr25  1  0.83671150  0.83631267  0.17061889  1
  Fe  Fe26  1  0.67155661  0.66821620  0.33728420  1
  Ni  Ni27  1  0.16913369  0.16994099  0.50366067  1
  Ni  Ni28  1  1.00247347  0.00440446  0.66917526  1
  Ni  Ni29  1  0.16929932  0.17044080  0.83581187  1
  Fe  Fe30  1  0.16978854  0.50110238  0.50378194  1
  Fe  Fe31  1  0.00392574  0.33490546  0.66970824  1
  Ni  Ni32  1  0.17172107  0.50179273  0.83691436  1
  Ni  Ni33  1  0.16917133  0.83805370  0.50310349  1
  Cr  Cr34  1  0.00549709  0.67117907  0.67101925  1
  Ni  Ni35  1  0.17057032  0.83757778  0.83881017  1
  Ni  Ni36  1  0.50282423  0.17201285  0.50425668  1
  Fe  Fe37  1  0.33602817  0.00359250  0.66943476  1
  Fe  Fe38  1  0.50267054  0.16988997  0.83581244  1
  Fe  Fe39  1  0.50386428  0.50112776  0.50522213  1
  Ni  Ni40  1  0.33846985  0.33784196  0.66951651  1
  Ni  Ni41  1  0.50304510  0.50439385  0.83611119  1
  Fe  Fe42  1  0.50385998  0.83651470  0.50559226  1
  Ni  Ni43  1  0.33763729  0.66875248  0.66981456  1
  Ni  Ni44  1  0.50413147  0.83491856  0.83621912  1
  Ni  Ni45  1  0.83785708  0.17134853  0.50360520  1
  Fe  Fe46  1  0.66948405  0.00354764  0.67020003  1
  Fe  Fe47  1  0.83704273  0.16883705  0.83679605  1
  Ni  Ni48  1  0.83485885  0.50271243  0.50141291  1
  Ni  Ni49  1  0.66858337  0.33553201  0.67007542  1
  Fe  Fe50  1  0.83600785  0.50330714  0.83668370  1
  Fe  Fe51  1  0.83792150  0.83780451  0.50314965  1
  Fe  Fe52  1  0.66789810  0.66935140  0.67035943  1
  Ni  Ni53  1  0.83510829  0.83733635  0.83704338  1
" 