827,Ni43Fe57_12,-242.223094307243, 227.888675819299,Ni43Fe57,"# generated using pymatgen
 data_Fe23Ni31
_symmetry_space_group_name_H-M   'P 1'
_cell_length_a   7.40239858
_cell_length_b   7.40239858
_cell_length_c   10.46857246
_cell_angle_alpha   90.00000000
_cell_angle_beta   90.00000000
_cell_angle_gamma   90.00000000
_symmetry_Int_Tables_number   1
_chemical_formula_structural   Fe23Ni31
_chemical_formula_sum   'Fe23 Ni31'
_cell_volume   573.63071141
_cell_formula_units_Z   1
loop_
 _symmetry_equiv_pos_site_id
 _symmetry_equiv_pos_as_xyz
  1  'x, y, z'
loop_
 _atom_site_type_symbol
 _atom_site_label
 _atom_site_symmetry_multiplicity
 _atom_site_fract_x
 _atom_site_fract_y
 _atom_site_fract_z
 _atom_site_occupancy
  Ni  Ni0  1  0.00438300  1.00323883  1.00418545  1
  Fe  Fe1  1  0.17169550  0.17048235  0.17119222  1
  Ni  Ni2  1  0.00449038  1.00332347  0.33742031  1
  Fe  Fe3  1  1.00403515  0.33733095  1.00405653  1
  Fe  Fe4  1  0.17153355  0.50579484  0.17103962  1
  Fe  Fe5  1  1.00331583  0.33866591  0.33823053  1
  Ni  Ni6  1  0.00523927  0.67177316  1.00396721  1
  Ni  Ni7  1  0.17157069  0.83848925  0.17077926  1
  Ni  Ni8  1  1.00360833  0.67210317  0.33827300  1
  Ni  Ni9  1  0.33703793  1.00397275  1.00391848  1
  Fe  Fe10  1  0.50444097  0.17126781  0.17131471  1
  Fe  Fe11  1  0.33790648  1.00408408  0.33724312  1
  Fe  Fe12  1  0.33787716  0.33786796  1.00414725  1
  Ni  Ni13  1  0.50505809  0.50461114  0.17167513  1
  Ni  Ni14  1  0.33921942  0.33803836  0.33720752  1
  Ni  Ni15  1  0.33655979  0.67065477  0.00487620  1
  Ni  Ni16  1  0.50294044  0.83762769  0.17056160  1
  Fe  Fe17  1  0.33784870  0.67043868  0.33731121  1
  Ni  Ni18  1  0.67167733  0.00571922  0.00487381  1
  Fe  Fe19  1  0.83696124  0.17075223  0.17065753  1
  Fe  Fe20  1  0.67126262  0.00466225  0.33799974  1
  Ni  Ni21  1  0.67055599  0.33761594  1.00395572  1
  Ni  Ni22  1  0.83695998  0.50336968  0.17045172  1
  Ni  Ni23  1  0.66940509  0.33891369  0.33886143  1
  Fe  Fe24  1  0.67071922  0.67174939  0.00474710  1
  Fe  Fe25  1  0.83772760  0.83664715  0.17067838  1
  Ni  Ni26  1  0.67187353  0.66925308  0.33683368  1
  Fe  Fe27  1  0.17134052  0.17237018  0.50442914  1
  Ni  Ni28  1  1.00405082  0.00449490  0.67149438  1
  Fe  Fe29  1  0.17071855  0.17043757  0.83747515  1
  Ni  Ni30  1  0.17150954  0.50534225  0.50348502  1
  Fe  Fe31  1  0.00467793  0.33739581  0.67081404  1
  Ni  Ni32  1  0.17267529  0.50568457  0.83856593  1
  Fe  Fe33  1  0.17065107  0.83764368  0.50443788  1
  Fe  Fe34  1  0.00526985  0.67177389  0.67126684  1
  Ni  Ni35  1  0.17059168  0.83760132  0.83765576  1
  Ni  Ni36  1  0.50546653  0.17108603  0.50428886  1
  Ni  Ni37  1  0.33684132  0.00522789  0.67100555  1
  Fe  Fe38  1  0.50431432  0.17059569  0.83726756  1
  Ni  Ni39  1  0.50388048  0.50373708  0.50381147  1
  Ni  Ni40  1  0.33794902  0.33838551  0.67160198  1
  Ni  Ni41  1  0.50312813  0.50407012  0.83761207  1
  Fe  Fe42  1  0.50526666  0.83702965  0.50461603  1
  Ni  Ni43  1  0.33807269  0.66948952  0.67016477  1
  Fe  Fe44  1  0.50421653  0.83746866  0.83790201  1
  Ni  Ni45  1  0.83687406  0.17069861  0.50385777  1
  Ni  Ni46  1  0.67220747  1.00436455  0.67053949  1
  Ni  Ni47  1  0.83729592  0.16933834  0.83782483  1
  Ni  Ni48  1  0.83771073  0.50337246  0.50541317  1
  Fe  Fe49  1  0.67006666  0.33702478  0.67058638  1
  Fe  Fe50  1  0.83806259  0.50510460  0.83816878  1
  Fe  Fe51  1  0.83718821  0.83717833  0.50487836  1
  Ni  Ni52  1  0.67096794  0.67035431  0.67172711  1
  Ni  Ni53  1  0.83890740  0.84008707  0.83845640  1
" 