6216,Ni43Fe27Cr29_10,-228.125318163253, 178.912762298784,Ni43Fe27Cr29,"# generated using pymatgen
 data_Cr17Fe14Ni23
_symmetry_space_group_name_H-M   'P 1'
_cell_length_a   7.46924696
_cell_length_b   7.46924696
_cell_length_c   10.56311036
_cell_angle_alpha   90.00000000
_cell_angle_beta   90.00000000
_cell_angle_gamma   90.00000000
_symmetry_Int_Tables_number   1
_chemical_formula_structural   Cr17Fe14Ni23
_chemical_formula_sum   'Cr17 Fe14 Ni23'
_cell_volume   589.31223183
_cell_formula_units_Z   1
loop_
 _symmetry_equiv_pos_site_id
 _symmetry_equiv_pos_as_xyz
  1  'x, y, z'
loop_
 _atom_site_type_symbol
 _atom_site_label
 _atom_site_symmetry_multiplicity
 _atom_site_fract_x
 _atom_site_fract_y
 _atom_site_fract_z
 _atom_site_occupancy
  Ni  Ni0  1  0.99954302  0.99903547  0.00052140  1
  Ni  Ni1  1  0.16700230  0.16258111  0.16869966  1
  Fe  Fe2  1  0.99873061  0.99870735  0.32989341  1
  Cr  Cr3  1  0.99899424  0.32967927  0.99859607  1
  Cr  Cr4  1  0.16640162  0.50082907  0.16457466  1
  Cr  Cr5  1  0.99934372  0.33255420  0.33272389  1
  Fe  Fe6  1  0.99751191  0.67098666  0.00041793  1
  Ni  Ni7  1  0.16392055  0.83788716  0.16536740  1
  Cr  Cr8  1  0.99779208  0.66784753  0.33187168  1
  Ni  Ni9  1  0.33173782  0.00007655  0.99851583  1
  Ni  Ni10  1  0.49899205  0.16682191  0.16516989  1
  Fe  Fe11  1  0.33382684  0.99965251  0.33075525  1
  Cr  Cr12  1  0.33414814  0.32982059  -0.00003997  1
  Ni  Ni13  1  0.50417924  0.49951513  0.16668965  1
  Fe  Fe14  1  0.33495617  0.33386717  0.33201951  1
  Cr  Cr15  1  0.33127035  0.67045117  0.99818405  1
  Cr  Cr16  1  0.50083814  0.83314557  0.16449413  1
  Cr  Cr17  1  0.33519911  0.66687042  0.33276530  1
  Ni  Ni18  1  0.66810184  0.00055586  0.99727700  1
  Ni  Ni19  1  0.83365910  0.16509492  0.16424958  1
  Cr  Cr20  1  0.66767503  0.99791172  0.33293384  1
  Ni  Ni21  1  0.66761567  0.32993984  0.00230916  1
  Ni  Ni22  1  0.82967339  0.50211472  0.16536722  1
  Cr  Cr23  1  0.66711841  0.33418539  0.33035910  1
  Ni  Ni24  1  0.66799585  0.66917171  0.00127083  1
  Ni  Ni25  1  0.83388940  0.83259455  0.16572251  1
  Ni  Ni26  1  0.66690142  0.66715999  0.33547057  1
  Cr  Cr27  1  0.16673084  0.16538022  0.49853853  1
  Fe  Fe28  1  0.00069444  0.99890211  0.66979376  1
  Ni  Ni29  1  0.16648451  0.16402278  0.83124912  1
  Fe  Fe30  1  0.16876754  0.50013892  0.50190651  1
  Fe  Fe31  1  0.00245661  0.33420882  0.66852261  1
  Fe  Fe32  1  0.16649842  0.50043283  0.83083989  1
  Cr  Cr33  1  0.16661820  0.83606912  0.49895076  1
  Fe  Fe34  1  0.00091021  0.66670432  0.66721233  1
  Ni  Ni35  1  0.16538245  0.83469433  0.83368725  1
  Cr  Cr36  1  0.49724422  0.16546401  0.50002321  1
  Fe  Fe37  1  0.33426088  0.99898632  0.66910323  1
  Ni  Ni38  1  0.49927184  0.16472967  0.83347378  1
  Ni  Ni39  1  0.50051323  0.50188687  0.49980938  1
  Ni  Ni40  1  0.33149906  0.33514982  0.66629331  1
  Cr  Cr41  1  0.50117900  0.50051647  0.83547800  1
  Ni  Ni42  1  0.50001451  0.83011856  0.50265448  1
  Ni  Ni43  1  0.33172323  0.66737731  0.66667099  1
  Ni  Ni44  1  0.49980167  0.83419368  0.83185875  1
  Cr  Cr45  1  0.83606839  0.16488750  0.50236989  1
  Fe  Fe46  1  0.66480325  0.99682373  0.66882345  1
  Ni  Ni47  1  0.83400010  0.16448552  0.83334214  1
  Fe  Fe48  1  0.83179937  0.50281766  0.50076741  1
  Cr  Cr49  1  0.66631409  0.33021163  0.66771138  1
  Cr  Cr50  1  0.83276868  0.50127499  0.83579101  1
  Fe  Fe51  1  0.83076578  0.83167723  0.50186083  1
  Fe  Fe52  1  0.66455751  0.66787177  0.66646094  1
  Ni  Ni53  1  0.83390371  0.83396600  0.83267727  1
" 