7735,Ni43Fe34Cr21_0,-231.571338711694, 197.424250545784,Ni43Fe34Cr21,"# generated using pymatgen
 data_Cr13Fe18Ni23
_symmetry_space_group_name_H-M   'P 1'
_cell_length_a   7.44716391
_cell_length_b   7.44716391
_cell_length_c   10.53188020
_cell_angle_alpha   90.00000000
_cell_angle_beta   90.00000000
_cell_angle_gamma   90.00000000
_symmetry_Int_Tables_number   1
_chemical_formula_structural   Cr13Fe18Ni23
_chemical_formula_sum   'Cr13 Fe18 Ni23'
_cell_volume   584.10071200
_cell_formula_units_Z   1
loop_
 _symmetry_equiv_pos_site_id
 _symmetry_equiv_pos_as_xyz
  1  'x, y, z'
loop_
 _atom_site_type_symbol
 _atom_site_label
 _atom_site_symmetry_multiplicity
 _atom_site_fract_x
 _atom_site_fract_y
 _atom_site_fract_z
 _atom_site_occupancy
  Fe  Fe0  1  0.00288033  0.99892745  0.99913086  1
  Cr  Cr1  1  0.16915694  0.16667149  0.16451055  1
  Ni  Ni2  1  1.00060863  0.99922294  0.33619655  1
  Cr  Cr3  1  0.00178411  0.33697520  0.99904119  1
  Cr  Cr4  1  0.17143503  0.50294791  0.16920685  1
  Cr  Cr5  1  1.00109557  0.33617556  0.33691617  1
  Cr  Cr6  1  0.99921204  0.67019040  0.99972051  1
  Cr  Cr7  1  0.16896978  0.83514304  0.16989436  1
  Fe  Fe8  1  0.99866745  0.67064004  0.33603458  1
  Ni  Ni9  1  0.33621696  1.00030569  0.99857732  1
  Fe  Fe10  1  0.50040449  0.16608520  0.16666251  1
  Ni  Ni11  1  0.33549212  1.00108644  0.33592455  1
  Ni  Ni12  1  0.33763189  0.33518077  0.99911031  1
  Fe  Fe13  1  0.50322884  0.50342325  0.16714651  1
  Cr  Cr14  1  0.33554113  0.33269390  0.33658143  1
  Ni  Ni15  1  0.33591973  0.66844815  0.99987109  1
  Fe  Fe16  1  0.50066352  0.83427224  0.16847742  1
  Fe  Fe17  1  0.33711881  0.66905295  0.33574808  1
  Cr  Cr18  1  0.66709646  0.99768471  1.00111466  1
  Cr  Cr19  1  0.83403702  0.16607120  0.16805403  1
  Ni  Ni20  1  0.66770437  0.99884729  0.33525985  1
  Ni  Ni21  1  0.66492033  0.33702034  1.00078154  1
  Fe  Fe22  1  0.83256684  0.50377520  0.16693961  1
  Cr  Cr23  1  0.66744526  0.33435816  0.33649565  1
  Fe  Fe24  1  0.66559317  0.66697412  1.00100988  1
  Ni  Ni25  1  0.83231146  0.83401530  0.16944109  1
  Ni  Ni26  1  0.66936887  0.66906423  0.33278092  1
  Ni  Ni27  1  0.16583640  0.16639446  0.50226409  1
  Ni  Ni28  1  0.00135596  1.00004406  0.66861330  1
  Fe  Fe29  1  0.16888723  0.16593140  0.83360007  1
  Fe  Fe30  1  0.16693481  0.50409575  0.50330623  1
  Ni  Ni31  1  0.00137916  0.33687394  0.66724650  1
  Ni  Ni32  1  0.16941176  0.50213709  0.83393101  1
  Fe  Fe33  1  0.16679070  0.83647950  0.50227287  1
  Fe  Fe34  1  1.00121152  0.66993595  0.66963712  1
  Ni  Ni35  1  0.16999835  0.83434786  0.83402933  1
  Fe  Fe36  1  0.50271946  0.16550694  0.50329543  1
  Ni  Ni37  1  0.33490569  1.00039942  0.66890223  1
  Ni  Ni38  1  0.50115769  0.16762870  0.83433447  1
  Ni  Ni39  1  0.50097011  0.50351236  0.50235682  1
  Cr  Cr40  1  0.33426630  0.33419446  0.66821436  1
  Fe  Fe41  1  0.50254433  0.50287325  0.83477788  1
  Cr  Cr42  1  0.50172526  0.83311595  0.50121411  1
  Fe  Fe43  1  0.33355396  0.66976102  0.66952881  1
  Ni  Ni44  1  0.50069688  0.83401754  0.83418779  1
  Ni  Ni45  1  0.83599531  0.16607680  0.50264851  1
  Ni  Ni46  1  0.66786987  0.99881113  0.66726552  1
  Cr  Cr47  1  0.83398814  0.16776788  0.83315010  1
  Fe  Fe48  1  0.83315044  0.50349714  0.50394004  1
  Fe  Fe49  1  0.66853493  0.33317015  0.66726291  1
  Ni  Ni50  1  0.83323862  0.50179647  0.83315891  1
  Ni  Ni51  1  0.83507713  0.83586777  0.50086894  1
  Fe  Fe52  1  0.66940631  0.66897873  0.66798761  1
  Ni  Ni53  1  0.83341168  0.83362028  0.83346616  1
" 