4175,Ni43Fe25Cr31_15,-227.701229640477, 182.009247947434,Ni43Fe25Cr31,"# generated using pymatgen
 data_Cr18Fe13Ni23
_symmetry_space_group_name_H-M   'P 1'
_cell_length_a   7.46881162
_cell_length_b   7.46881162
_cell_length_c   10.56249469
_cell_angle_alpha   90.00000000
_cell_angle_beta   90.00000000
_cell_angle_gamma   90.00000000
_symmetry_Int_Tables_number   1
_chemical_formula_structural   Cr18Fe13Ni23
_chemical_formula_sum   'Cr18 Fe13 Ni23'
_cell_volume   589.20919514
_cell_formula_units_Z   1
loop_
 _symmetry_equiv_pos_site_id
 _symmetry_equiv_pos_as_xyz
  1  'x, y, z'
loop_
 _atom_site_type_symbol
 _atom_site_label
 _atom_site_symmetry_multiplicity
 _atom_site_fract_x
 _atom_site_fract_y
 _atom_site_fract_z
 _atom_site_occupancy
  Ni  Ni0  1  0.99841430  0.99478037  0.99820084  1
  Cr  Cr1  1  0.16532761  0.16616509  0.16698427  1
  Ni  Ni2  1  0.99860320  0.99878145  0.33282535  1
  Fe  Fe3  1  0.00088076  0.33422485  0.00018145  1
  Ni  Ni4  1  0.16596258  0.50319812  0.16629889  1
  Ni  Ni5  1  0.99839191  0.33407489  0.33367998  1
  Fe  Fe6  1  0.00147499  0.66792206  0.00059076  1
  Fe  Fe7  1  0.16688478  0.83073420  0.16725297  1
  Fe  Fe8  1  0.99901134  0.66483960  0.33121695  1
  Cr  Cr9  1  0.33366192  0.99662729  0.00308051  1
  Ni  Ni10  1  0.50184368  0.16580417  0.16971693  1
  Fe  Fe11  1  0.33453383  0.00044287  0.33246412  1
  Cr  Cr12  1  0.33466253  0.33661250  0.00128711  1
  Ni  Ni13  1  0.49986630  0.50351397  0.16713312  1
  Cr  Cr14  1  0.33381923  0.33599608  0.33180426  1
  Ni  Ni15  1  0.33157508  0.66576052  0.99855035  1
  Ni  Ni16  1  0.50171462  0.83035477  0.16876201  1
  Ni  Ni17  1  0.33366374  0.66734749  0.33256352  1
  Cr  Cr18  1  0.66770943  0.99886220  0.99740055  1
  Cr  Cr19  1  0.83371879  0.16485658  0.16689636  1
  Ni  Ni20  1  0.66681349  0.99952721  0.33305396  1
  Cr  Cr21  1  0.66510498  0.33341960  0.00083928  1
  Fe  Fe22  1  0.83203516  0.50073084  0.16855465  1
  Ni  Ni23  1  0.66692858  0.33360498  0.33385648  1
  Fe  Fe24  1  0.66453753  0.66828691  0.00100409  1
  Ni  Ni25  1  0.83311967  0.83142250  0.16693523  1
  Fe  Fe26  1  0.66643841  0.66517779  0.33220055  1
  Ni  Ni27  1  0.16394575  0.16552609  0.49909867  1
  Ni  Ni28  1  0.99971086  0.00060408  0.66742206  1
  Cr  Cr29  1  0.16452013  0.16699392  0.83412187  1
  Cr  Cr30  1  0.16637505  0.49891477  0.50124788  1
  Ni  Ni31  1  0.99909334  0.33209138  0.66591038  1
  Ni  Ni32  1  0.16812891  0.50269331  0.83289450  1
  Cr  Cr33  1  0.16688757  0.83526517  0.49730362  1
  Cr  Cr34  1  0.00015096  0.66738783  0.66720482  1
  Ni  Ni35  1  0.16527751  0.83167554  0.83409384  1
  Fe  Fe36  1  0.50039290  0.16637582  0.49752058  1
  Cr  Cr37  1  0.33349816  0.99792995  0.66641697  1
  Ni  Ni38  1  0.50087191  0.16771486  0.83339655  1
  Ni  Ni39  1  0.50151715  0.50173954  0.49839905  1
  Cr  Cr40  1  0.33399604  0.33478794  0.66726694  1
  Ni  Ni41  1  0.49818271  0.50273741  0.83357950  1
  Fe  Fe42  1  0.49949418  0.83162325  0.49631307  1
  Fe  Fe43  1  0.33347256  0.66724647  0.66779945  1
  Fe  Fe44  1  0.49825824  0.83077221  0.83509985  1
  Fe  Fe45  1  0.83592131  0.16796324  0.49819300  1
  Cr  Cr46  1  0.66819730  0.99949150  0.66868859  1
  Ni  Ni47  1  0.83496859  0.16485381  0.83182936  1
  Ni  Ni48  1  0.83081737  0.49823165  0.49617480  1
  Cr  Cr49  1  0.66757158  0.33292586  0.66475762  1
  Cr  Cr50  1  0.83358292  0.49986128  0.83572043  1
  Cr  Cr51  1  0.83192974  0.83384168  0.49837949  1
  Cr  Cr52  1  0.66507464  0.66695085  0.66691562  1
  Ni  Ni53  1  0.83508720  0.83435469  0.83453996  1
" 