1928,Ni43Fe57_9,-241.916863962382, 225.730010423888,Ni43Fe57,"# generated using pymatgen
 data_Fe23Ni31
_symmetry_space_group_name_H-M   'P 1'
_cell_length_a   7.39910634
_cell_length_b   7.39910634
_cell_length_c   10.46391653
_cell_angle_alpha   90.00000000
_cell_angle_beta   90.00000000
_cell_angle_gamma   90.00000000
_symmetry_Int_Tables_number   1
_chemical_formula_structural   Fe23Ni31
_chemical_formula_sum   'Fe23 Ni31'
_cell_volume   572.86567960
_cell_formula_units_Z   1
loop_
 _symmetry_equiv_pos_site_id
 _symmetry_equiv_pos_as_xyz
  1  'x, y, z'
loop_
 _atom_site_type_symbol
 _atom_site_label
 _atom_site_symmetry_multiplicity
 _atom_site_fract_x
 _atom_site_fract_y
 _atom_site_fract_z
 _atom_site_occupancy
  Ni  Ni0  1  1.00409901  0.00459640  0.00475719  1
  Ni  Ni1  1  0.17243686  0.17075824  0.17143110  1
  Ni  Ni2  1  0.00498091  0.00498501  0.33792890  1
  Ni  Ni3  1  0.00596469  0.33832999  0.00466312  1
  Fe  Fe4  1  0.17120379  0.50352164  0.17113149  1
  Ni  Ni5  1  0.00531861  0.33785066  0.33802519  1
  Ni  Ni6  1  1.00342351  0.67084777  0.00475544  1
  Fe  Fe7  1  0.17091359  0.83840951  0.17139889  1
  Fe  Fe8  1  0.00503552  0.67106560  0.33781471  1
  Fe  Fe9  1  0.33786750  0.00486561  0.00466333  1
  Ni  Ni10  1  0.50288563  0.17118736  0.17076244  1
  Ni  Ni11  1  0.33752420  0.00532680  0.33765004  1
  Ni  Ni12  1  0.33751843  0.33833402  1.00447013  1
  Ni  Ni13  1  0.50441901  0.50391397  0.17119340  1
  Ni  Ni14  1  0.33752756  0.33784764  0.33869645  1
  Fe  Fe15  1  0.33772934  0.67091486  1.00405344  1
  Fe  Fe16  1  0.50526192  0.83797884  0.17068090  1
  Fe  Fe17  1  0.33688485  0.67086250  0.33806690  1
  Ni  Ni18  1  0.67139985  1.00315637  1.00437709  1
  Fe  Fe19  1  0.83821332  0.17136917  0.17105837  1
  Fe  Fe20  1  0.67131446  0.00568446  0.33811851  1
  Fe  Fe21  1  0.67195815  0.33812508  1.00394273  1
  Ni  Ni22  1  0.83835022  0.50611910  0.17124196  1
  Fe  Fe23  1  0.67111377  0.33702504  0.33851646  1
  Ni  Ni24  1  0.67139372  0.67160198  1.00418334  1
  Ni  Ni25  1  0.83878017  0.83724066  0.17081454  1
  Fe  Fe26  1  0.67185718  0.67106370  0.33758591  1
  Fe  Fe27  1  0.17028726  0.17119060  0.50345918  1
  Ni  Ni28  1  0.00495082  0.00460194  0.67108721  1
  Fe  Fe29  1  0.17151066  0.17190974  0.83871704  1
  Ni  Ni30  1  0.17078736  0.50502260  0.50381635  1
  Fe  Fe31  1  1.00327700  0.33761516  0.67118435  1
  Ni  Ni32  1  0.17081610  0.50519760  0.83886246  1
  Fe  Fe33  1  0.17041212  0.83877342  0.50459017  1
  Fe  Fe34  1  1.00376100  0.67150920  0.67129693  1
  Fe  Fe35  1  0.17139485  0.83792599  0.83778458  1
  Ni  Ni36  1  0.50432183  0.17024142  0.50476334  1
  Ni  Ni37  1  0.33763868  0.00492689  0.67136903  1
  Ni  Ni38  1  0.50477906  0.17005781  0.83824854  1
  Fe  Fe39  1  0.50569343  0.50413460  0.50464470  1
  Fe  Fe40  1  0.33903557  0.33734730  0.67145493  1
  Ni  Ni41  1  0.50400737  0.50485928  0.83748913  1
  Fe  Fe42  1  0.50536848  0.83812417  0.50550741  1
  Fe  Fe43  1  0.33862574  0.67184932  0.67165304  1
  Ni  Ni44  1  0.50434077  0.83885685  0.83824676  1
  Ni  Ni45  1  0.83722601  0.17024995  0.50357438  1
  Ni  Ni46  1  0.67118087  1.00393573  0.67065759  1
  Ni  Ni47  1  0.83751085  0.17082099  0.83853067  1
  Ni  Ni48  1  0.83943280  0.50534733  0.50475902  1
  Ni  Ni49  1  0.67085332  0.33935936  0.67151101  1
  Ni  Ni50  1  0.83894919  0.50476054  0.83777207  1
  Ni  Ni51  1  0.83833370  0.83817683  0.50537534  1
  Ni  Ni52  1  0.67117774  0.67047611  0.67132395  1
  Fe  Fe53  1  0.83687540  0.83767106  0.83826261  1
" 