7231,Ni43Fe57_18,-242.456388530064, 228.282789651217,Ni43Fe57,"# generated using pymatgen
 data_Fe23Ni31
_symmetry_space_group_name_H-M   'P 1'
_cell_length_a   7.40354559
_cell_length_b   7.40354559
_cell_length_c   10.47019458
_cell_angle_alpha   90.00000000
_cell_angle_beta   90.00000000
_cell_angle_gamma   90.00000000
_symmetry_Int_Tables_number   1
_chemical_formula_structural   Fe23Ni31
_chemical_formula_sum   'Fe23 Ni31'
_cell_volume   573.89740790
_cell_formula_units_Z   1
loop_
 _symmetry_equiv_pos_site_id
 _symmetry_equiv_pos_as_xyz
  1  'x, y, z'
loop_
 _atom_site_type_symbol
 _atom_site_label
 _atom_site_symmetry_multiplicity
 _atom_site_fract_x
 _atom_site_fract_y
 _atom_site_fract_z
 _atom_site_occupancy
  Ni  Ni0  1  1.00397173  0.00448249  1.00422755  1
  Ni  Ni1  1  0.17037089  0.17135083  0.17093403  1
  Fe  Fe2  1  1.00376324  0.00456753  0.33732317  1
  Ni  Ni3  1  0.00432465  0.33696111  0.00473915  1
  Ni  Ni4  1  0.17198122  0.50303211  0.17009132  1
  Fe  Fe5  1  0.00462106  0.33813126  0.33703444  1
  Fe  Fe6  1  0.00591999  0.67110609  1.00415616  1
  Ni  Ni7  1  0.17037961  0.83848008  0.17152733  1
  Fe  Fe8  1  1.00375291  0.67017051  0.33806100  1
  Ni  Ni9  1  0.33698632  1.00396716  0.00434199  1
  Fe  Fe10  1  0.50294147  0.17081803  0.17177381  1
  Fe  Fe11  1  0.33848318  0.00513215  0.33732130  1
  Ni  Ni12  1  0.33736721  0.33819364  0.00464290  1
  Ni  Ni13  1  0.50414599  0.50462514  0.17115334  1
  Ni  Ni14  1  0.33823492  0.33778217  0.33689265  1
  Ni  Ni15  1  0.33824166  0.67070440  0.00507708  1
  Ni  Ni16  1  0.50535789  0.83649996  0.17173621  1
  Fe  Fe17  1  0.33873755  0.66937083  0.33701301  1
  Fe  Fe18  1  0.67050939  0.00434574  1.00384551  1
  Fe  Fe19  1  0.83829052  0.17065106  0.17014190  1
  Fe  Fe20  1  0.67061191  1.00426117  0.33821596  1
  Fe  Fe21  1  0.67067151  0.33764062  1.00418549  1
  Fe  Fe22  1  0.83790558  0.50511378  0.17074890  1
  Ni  Ni23  1  0.67019664  0.33864107  0.33735492  1
  Fe  Fe24  1  0.66996956  0.67087572  0.00494961  1
  Ni  Ni25  1  0.83713169  0.83810676  0.16936431  1
  Ni  Ni26  1  0.67145839  0.67053403  0.33799263  1
  Ni  Ni27  1  0.17124317  0.17160290  0.50467044  1
  Ni  Ni28  1  1.00323163  1.00346469  0.67100772  1
  Ni  Ni29  1  0.16973081  0.16990296  0.83726225  1
  Ni  Ni30  1  0.17197977  0.50298585  0.50505211  1
  Fe  Fe31  1  0.00541233  0.33688824  0.67176868  1
  Fe  Fe32  1  0.17126083  0.50437078  0.83754894  1
  Fe  Fe33  1  0.17127652  0.83754445  0.50535101  1
  Ni  Ni34  1  1.00407629  0.67165722  0.67133324  1
  Ni  Ni35  1  0.17146024  0.83931644  0.83739818  1
  Ni  Ni36  1  0.50363542  0.17199106  0.50483305  1
  Ni  Ni37  1  0.33773646  0.00469804  0.67091245  1
  Fe  Fe38  1  0.50391351  0.17072716  0.83672977  1
  Ni  Ni39  1  0.50401406  0.50372322  0.50445462  1
  Ni  Ni40  1  0.33811683  0.33810211  0.67133238  1
  Ni  Ni41  1  0.50512620  0.50524867  0.83725461  1
  Fe  Fe42  1  0.50388241  0.83777784  0.50474071  1
  Ni  Ni43  1  0.33724549  0.67006530  0.67018172  1
  Ni  Ni44  1  0.50377731  0.83648792  0.83692765  1
  Fe  Fe45  1  0.83724134  0.17121898  0.50494470  1
  Ni  Ni46  1  0.67189694  0.00433133  0.67059668  1
  Ni  Ni47  1  0.83922874  0.17125013  0.83688750  1
  Fe  Fe48  1  0.83747848  0.50403347  0.50442136  1
  Fe  Fe49  1  0.67035078  0.33739626  0.67075107  1
  Ni  Ni50  1  0.83640431  0.50352324  0.83725658  1
  Ni  Ni51  1  0.83725298  0.83789072  0.50551846  1
  Fe  Fe52  1  0.67029158  0.67176778  0.67066574  1
  Fe  Fe53  1  0.83799446  0.83807340  0.83693831  1
" 