867,Ni43Fe34Cr21_3,-231.35235176694, 193.216405345144,Ni43Fe34Cr21,"# generated using pymatgen
 data_Cr13Fe18Ni23
_symmetry_space_group_name_H-M   'P 1'
_cell_length_a   7.45851749
_cell_length_b   7.45851749
_cell_length_c   10.54793659
_cell_angle_alpha   90.00000000
_cell_angle_beta   90.00000000
_cell_angle_gamma   90.00000000
_symmetry_Int_Tables_number   1
_chemical_formula_structural   Cr13Fe18Ni23
_chemical_formula_sum   'Cr13 Fe18 Ni23'
_cell_volume   586.77626084
_cell_formula_units_Z   1
loop_
 _symmetry_equiv_pos_site_id
 _symmetry_equiv_pos_as_xyz
  1  'x, y, z'
loop_
 _atom_site_type_symbol
 _atom_site_label
 _atom_site_symmetry_multiplicity
 _atom_site_fract_x
 _atom_site_fract_y
 _atom_site_fract_z
 _atom_site_occupancy
  Ni  Ni0  1  0.00078138  0.00153097  0.00328024  1
  Fe  Fe1  1  0.16705751  0.16736215  0.16703047  1
  Fe  Fe2  1  0.00145634  1.00011823  0.33136477  1
  Ni  Ni3  1  0.00111131  0.33345686  0.00251164  1
  Ni  Ni4  1  0.16900543  0.49996531  0.16748987  1
  Fe  Fe5  1  1.00015109  0.33534976  0.33165490  1
  Cr  Cr6  1  0.00282460  0.66660423  1.00055026  1
  Ni  Ni7  1  0.16551957  0.83386179  0.16824676  1
  Fe  Fe8  1  0.00110165  0.66625039  0.33207756  1
  Fe  Fe9  1  0.33317742  1.00042097  0.00082669  1
  Ni  Ni10  1  0.50181907  0.16945283  0.16702098  1
  Fe  Fe11  1  0.33406551  1.00015837  0.33317643  1
  Fe  Fe12  1  0.33423539  0.33461745  0.00142636  1
  Ni  Ni13  1  0.49839581  0.49775058  0.16853546  1
  Ni  Ni14  1  0.33463319  0.33493205  0.33097692  1
  Fe  Fe15  1  0.33224340  0.66667681  0.99991610  1
  Cr  Cr16  1  0.50070806  0.83364882  0.16767160  1
  Ni  Ni17  1  0.33295695  0.66772895  0.33267749  1
  Ni  Ni18  1  0.66695261  0.00268946  0.00185568  1
  Ni  Ni19  1  0.83366583  0.16597014  0.16692146  1
  Fe  Fe20  1  0.66619507  0.00111296  0.33217708  1
  Fe  Fe21  1  0.66760445  0.33267798  0.00141905  1
  Fe  Fe22  1  0.83374542  0.49900850  0.16854772  1
  Ni  Ni23  1  0.66764235  0.33445931  0.33161661  1
  Cr  Cr24  1  0.66590154  0.66653660  0.00085170  1
  Ni  Ni25  1  0.83587780  0.83728303  0.16842661  1
  Fe  Fe26  1  0.66687381  0.66558495  0.33325884  1
  Cr  Cr27  1  0.16805420  0.16662534  0.50006752  1
  Ni  Ni28  1  0.00118254  0.99746858  0.66716265  1
  Cr  Cr29  1  0.16789480  0.16681866  0.83467290  1
  Cr  Cr30  1  0.16770910  0.50127883  0.50089233  1
  Cr  Cr31  1  0.99946368  0.33579435  0.66727665  1
  Ni  Ni32  1  0.17007468  0.50218802  0.83356597  1
  Fe  Fe33  1  0.16888262  0.83337503  0.50086862  1
  Fe  Fe34  1  0.00119024  0.66736251  0.66849162  1
  Ni  Ni35  1  0.16906865  0.83290583  0.83221850  1
  Cr  Cr36  1  0.50027709  0.16671179  0.50149784  1
  Fe  Fe37  1  0.33480674  0.99886547  0.66771573  1
  Fe  Fe38  1  0.50082453  0.16814148  0.83359684  1
  Cr  Cr39  1  0.50098914  0.50156402  0.50013186  1
  Ni  Ni40  1  0.33632924  0.33595470  0.66920758  1
  Ni  Ni41  1  0.49905612  0.49982788  0.83263573  1
  Ni  Ni42  1  0.49975506  0.83378007  0.50114933  1
  Ni  Ni43  1  0.33377359  0.66860704  0.66907331  1
  Fe  Fe44  1  0.49853262  0.83351497  0.83262183  1
  Cr  Cr45  1  0.83338484  0.16769570  0.50121681  1
  Ni  Ni46  1  0.66579758  1.00002763  0.66750948  1
  Cr  Cr47  1  0.83246565  0.16676599  0.83411952  1
  Ni  Ni48  1  0.83321643  0.50157382  0.50016828  1
  Ni  Ni49  1  0.66595255  0.33482718  0.66903548  1
  Ni  Ni50  1  0.83258266  0.49975687  0.83258382  1
  Cr  Cr51  1  0.83309900  0.83309575  0.50118234  1
  Fe  Fe52  1  0.66632648  0.66592214  0.66793115  1
  Cr  Cr53  1  0.83448683  0.83522012  0.83277626  1
" 