7249,Ni43Fe57_8,-242.844225973443, 227.975694514998,Ni43Fe57,"# generated using pymatgen
 data_Fe23Ni31
_symmetry_space_group_name_H-M   'P 1'
_cell_length_a   7.40395120
_cell_length_b   7.40395120
_cell_length_c   10.47076820
_cell_angle_alpha   90.00000000
_cell_angle_beta   90.00000000
_cell_angle_gamma   90.00000000
_symmetry_Int_Tables_number   1
_chemical_formula_structural   Fe23Ni31
_chemical_formula_sum   'Fe23 Ni31'
_cell_volume   573.99173653
_cell_formula_units_Z   1
loop_
 _symmetry_equiv_pos_site_id
 _symmetry_equiv_pos_as_xyz
  1  'x, y, z'
loop_
 _atom_site_type_symbol
 _atom_site_label
 _atom_site_symmetry_multiplicity
 _atom_site_fract_x
 _atom_site_fract_y
 _atom_site_fract_z
 _atom_site_occupancy
  Fe  Fe0  1  0.00508321  1.00426064  0.00485325  1
  Ni  Ni1  1  0.17184049  0.16946877  0.17065695  1
  Ni  Ni2  1  0.00506720  1.00374129  0.33858017  1
  Ni  Ni3  1  1.00299988  0.33748368  0.00470861  1
  Fe  Fe4  1  0.17201857  0.50359929  0.17103644  1
  Fe  Fe5  1  0.00511336  0.33703727  0.33807054  1
  Fe  Fe6  1  0.00437937  0.67025535  1.00345872  1
  Ni  Ni7  1  0.17138766  0.83918071  0.17044412  1
  Fe  Fe8  1  0.00527173  0.67088157  0.33825914  1
  Ni  Ni9  1  0.33707412  1.00318118  0.00507637  1
  Ni  Ni10  1  0.50334887  0.17168388  0.17108097  1
  Ni  Ni11  1  0.33639423  1.00342077  0.33759542  1
  Ni  Ni12  1  0.33773942  0.33714452  1.00399831  1
  Ni  Ni13  1  0.50587329  0.50335185  0.17013568  1
  Ni  Ni14  1  0.33862995  0.33753892  0.33811818  1
  Ni  Ni15  1  0.33817767  0.67246112  1.00390252  1
  Fe  Fe16  1  0.50329141  0.83738164  0.17065110  1
  Ni  Ni17  1  0.33751673  0.67182330  0.33803661  1
  Fe  Fe18  1  0.66984443  0.00445116  1.00385026  1
  Fe  Fe19  1  0.83759515  0.17168698  0.17146291  1
  Fe  Fe20  1  0.66993994  0.00482066  0.33787588  1
  Ni  Ni21  1  0.67204407  0.33858507  1.00410135  1
  Ni  Ni22  1  0.83616034  0.50380226  0.17075167  1
  Ni  Ni23  1  0.67119853  0.33820529  0.33759821  1
  Ni  Ni24  1  0.67096713  0.67037676  1.00400103  1
  Fe  Fe25  1  0.83762322  0.83770399  0.17047006  1
  Fe  Fe26  1  0.66984958  0.67041588  0.33727618  1
  Ni  Ni27  1  0.17023554  0.17015184  0.50429458  1
  Fe  Fe28  1  0.00436157  0.00458166  0.67026196  1
  Fe  Fe29  1  0.17067387  0.17019888  0.83786656  1
  Ni  Ni30  1  0.17067532  0.50394670  0.50377903  1
  Ni  Ni31  1  1.00241812  0.33854087  0.66990432  1
  Fe  Fe32  1  0.17015778  0.50545061  0.83727512  1
  Ni  Ni33  1  0.17210421  0.83868057  0.50475139  1
  Ni  Ni34  1  1.00385034  0.67083588  0.67076278  1
  Ni  Ni35  1  0.17153229  0.83853285  0.83758854  1
  Fe  Fe36  1  0.50373659  0.17159318  0.50373826  1
  Ni  Ni37  1  0.33738911  1.00307124  0.67011398  1
  Fe  Fe38  1  0.50457417  0.17005584  0.83825832  1
  Ni  Ni39  1  0.50520148  0.50470468  0.50470342  1
  Fe  Fe40  1  0.33685745  0.33776631  0.67030642  1
  Fe  Fe41  1  0.50495137  0.50544977  0.83835452  1
  Ni  Ni42  1  0.50310665  0.83726775  0.50381547  1
  Fe  Fe43  1  0.33717855  0.67091325  0.67044585  1
  Ni  Ni44  1  0.50357559  0.83788019  0.83877518  1
  Ni  Ni45  1  0.83832696  0.17224397  0.50418462  1
  Fe  Fe46  1  0.67141663  1.00425910  0.67106004  1
  Fe  Fe47  1  0.83753121  0.17077366  0.83699971  1
  Ni  Ni48  1  0.83690835  0.50283676  0.50443290  1
  Ni  Ni49  1  0.67233061  0.33808643  0.67108714  1
  Ni  Ni50  1  0.83702830  0.50379468  0.83759585  1
  Fe  Fe51  1  0.83846389  0.83719842  0.50464912  1
  Fe  Fe52  1  0.67140313  0.67058632  0.67152475  1
  Ni  Ni53  1  0.83767519  0.83674857  0.83751330  1
" 