5977,Ni43Fe48Cr7_10,-236.274625687528, 210.991172172428,Ni43Fe48Cr7,"# generated using pymatgen
 data_Cr5Fe26Ni23
_symmetry_space_group_name_H-M   'P 1'
_cell_length_a   7.41335950
_cell_length_b   7.41335950
_cell_length_c   10.48407355
_cell_angle_alpha   90.00000000
_cell_angle_beta   90.00000000
_cell_angle_gamma   90.00000000
_symmetry_Int_Tables_number   1
_chemical_formula_structural   Cr5Fe26Ni23
_chemical_formula_sum   'Cr5 Fe26 Ni23'
_cell_volume   576.18265671
_cell_formula_units_Z   1
loop_
 _symmetry_equiv_pos_site_id
 _symmetry_equiv_pos_as_xyz
  1  'x, y, z'
loop_
 _atom_site_type_symbol
 _atom_site_label
 _atom_site_symmetry_multiplicity
 _atom_site_fract_x
 _atom_site_fract_y
 _atom_site_fract_z
 _atom_site_occupancy
  Ni  Ni0  1  0.00387783  1.00361491  0.00414495  1
  Ni  Ni1  1  0.16777927  0.16856106  0.17050400  1
  Fe  Fe2  1  0.00612826  1.00327920  0.33546797  1
  Ni  Ni3  1  0.00403439  0.33754932  1.00292176  1
  Fe  Fe4  1  0.16908998  0.50292256  0.16920867  1
  Ni  Ni5  1  0.00418205  0.33870660  0.33580082  1
  Ni  Ni6  1  0.00381085  0.66969403  0.00471549  1
  Fe  Fe7  1  0.17008296  0.83766605  0.17016083  1
  Fe  Fe8  1  0.00382475  0.67070429  0.33736803  1
  Fe  Fe9  1  0.33593649  0.00439241  1.00325997  1
  Fe  Fe10  1  0.50330377  0.17081086  0.16835158  1
  Ni  Ni11  1  0.33648510  1.00307547  0.33729151  1
  Ni  Ni12  1  0.33740337  0.33672240  1.00347771  1
  Ni  Ni13  1  0.50461832  0.50482170  0.16984944  1
  Cr  Cr14  1  0.33580928  0.33541556  0.33725456  1
  Fe  Fe15  1  0.33651108  0.66933325  1.00323415  1
  Fe  Fe16  1  0.50302017  0.83674961  0.16984590  1
  Fe  Fe17  1  0.33751646  0.67163323  0.33724596  1
  Fe  Fe18  1  0.67062159  0.00567053  0.00364901  1
  Ni  Ni19  1  0.83905455  0.17106739  0.16936926  1
  Cr  Cr20  1  0.66826257  1.00166824  0.33543785  1
  Ni  Ni21  1  0.66942386  0.33678652  0.00369151  1
  Fe  Fe22  1  0.83721422  0.50264281  0.16986610  1
  Fe  Fe23  1  0.67068329  0.33940860  0.33566824  1
  Fe  Fe24  1  0.66990337  0.66820546  0.00460827  1
  Fe  Fe25  1  0.83775849  0.83641205  0.16938263  1
  Ni  Ni26  1  0.67113899  0.67002509  0.33732631  1
  Fe  Fe27  1  0.17084653  0.16896949  0.50291667  1
  Fe  Fe28  1  0.00543116  1.00352669  0.67073873  1
  Fe  Fe29  1  0.16977975  0.16967228  0.83829913  1
  Fe  Fe30  1  0.16829220  0.50501962  0.50382715  1
  Ni  Ni31  1  1.00340622  0.33939718  0.67214292  1
  Fe  Fe32  1  0.16908175  0.50436099  0.83782875  1
  Ni  Ni33  1  0.17075713  0.83731922  0.50283165  1
  Ni  Ni34  1  1.00323178  0.66882502  0.66915324  1
  Ni  Ni35  1  0.17205898  0.83711420  0.83705773  1
  Fe  Fe36  1  0.50213876  0.16874840  0.50504058  1
  Ni  Ni37  1  0.33901258  1.00257684  0.67017012  1
  Ni  Ni38  1  0.50501043  0.17049847  0.83778425  1
  Ni  Ni39  1  0.50520586  0.50550321  0.50333247  1
  Cr  Cr40  1  0.33614729  0.33587123  0.67084720  1
  Ni  Ni41  1  0.50448297  0.50407464  0.83768615  1
  Fe  Fe42  1  0.50269941  0.83653614  0.50461552  1
  Fe  Fe43  1  0.33667014  0.67239688  0.67037846  1
  Ni  Ni44  1  0.50049908  0.83628651  0.83632846  1
  Cr  Cr45  1  0.83818547  0.17132898  0.50478018  1
  Ni  Ni46  1  0.66748314  1.00239840  0.67087036  1
  Ni  Ni47  1  0.83724871  0.17260207  0.83711331  1
  Fe  Fe48  1  0.83755006  0.50558642  0.50399533  1
  Fe  Fe49  1  0.67119839  0.33737430  0.67199332  1
  Ni  Ni50  1  0.83641133  0.50063372  0.83651886  1
  Fe  Fe51  1  0.83732257  0.83398590  0.50454722  1
  Fe  Fe52  1  0.66936059  0.66935494  0.66927710  1
  Cr  Cr53  1  0.83854843  0.83803509  0.83635872  1
" 