6626,Ni43Fe34Cr21_1,-231.693297050905, 203.804636533945,Ni43Fe34Cr21,"# generated using pymatgen
 data_Cr13Fe18Ni23
_symmetry_space_group_name_H-M   'P 1'
_cell_length_a   7.44554684
_cell_length_b   7.44554684
_cell_length_c   10.52959332
_cell_angle_alpha   90.00000000
_cell_angle_beta   90.00000000
_cell_angle_gamma   90.00000000
_symmetry_Int_Tables_number   1
_chemical_formula_structural   Cr13Fe18Ni23
_chemical_formula_sum   'Cr13 Fe18 Ni23'
_cell_volume   583.72030088
_cell_formula_units_Z   1
loop_
 _symmetry_equiv_pos_site_id
 _symmetry_equiv_pos_as_xyz
  1  'x, y, z'
loop_
 _atom_site_type_symbol
 _atom_site_label
 _atom_site_symmetry_multiplicity
 _atom_site_fract_x
 _atom_site_fract_y
 _atom_site_fract_z
 _atom_site_occupancy
  Cr  Cr0  1  0.00334715  1.00127487  1.00128620  1
  Fe  Fe1  1  0.16819912  0.16737147  0.16800428  1
  Ni  Ni2  1  0.00148199  0.00182460  0.33518739  1
  Ni  Ni3  1  0.99845804  0.33651883  1.00113315  1
  Cr  Cr4  1  0.16918034  0.50322030  0.16727562  1
  Cr  Cr5  1  0.99983248  0.33414097  0.33601857  1
  Ni  Ni6  1  1.00086541  0.66632407  1.00114078  1
  Ni  Ni7  1  0.16802188  0.83386857  0.16871257  1
  Fe  Fe8  1  1.00095644  0.66939507  0.33530608  1
  Cr  Cr9  1  0.33609347  0.99989203  0.00195745  1
  Fe  Fe10  1  0.50168911  0.16830787  0.16727701  1
  Cr  Cr11  1  0.33450415  1.00094133  0.33302974  1
  Fe  Fe12  1  0.33412321  0.33369660  0.00146111  1
  Cr  Cr13  1  0.50121212  0.50098849  0.16883963  1
  Ni  Ni14  1  0.33585858  0.33516500  0.33668312  1
  Ni  Ni15  1  0.33437138  0.67110866  1.00141328  1
  Ni  Ni16  1  0.50042565  0.83380190  0.16685768  1
  Ni  Ni17  1  0.33643532  0.66793440  0.33571704  1
  Fe  Fe18  1  0.66698454  1.00129435  1.00141649  1
  Fe  Fe19  1  0.83444223  0.16967137  0.16745998  1
  Cr  Cr20  1  0.66797121  0.00149635  0.33557817  1
  Ni  Ni21  1  0.67036234  0.33449377  0.00341934  1
  Fe  Fe22  1  0.83412583  0.50162447  0.16716694  1
  Fe  Fe23  1  0.66678862  0.33578662  0.33643899  1
  Fe  Fe24  1  0.66940880  0.66854982  1.00135100  1
  Cr  Cr25  1  0.83613088  0.83486949  0.16936616  1
  Ni  Ni26  1  0.66763567  0.66669735  0.33714867  1
  Fe  Fe27  1  0.16818718  0.16919364  0.50286035  1
  Fe  Fe28  1  0.00179734  0.00243198  0.66805325  1
  Ni  Ni29  1  0.16926170  0.16794349  0.83335877  1
  Fe  Fe30  1  0.17023804  0.50037489  0.50111355  1
  Fe  Fe31  1  0.00166040  0.33328271  0.66687964  1
  Cr  Cr32  1  0.16913030  0.50106236  0.83615726  1
  Cr  Cr33  1  0.16733812  0.83450603  0.49945116  1
  Cr  Cr34  1  0.99990664  0.66738436  0.66835618  1
  Ni  Ni35  1  0.16749637  0.83505489  0.83546936  1
  Ni  Ni36  1  0.50228070  0.17152822  0.50243042  1
  Ni  Ni37  1  0.33589296  0.00181894  0.66938466  1
  Ni  Ni38  1  0.50100605  0.16852746  0.83499591  1
  Ni  Ni39  1  0.50116900  0.50051958  0.50036742  1
  Fe  Fe40  1  0.33563244  0.33299431  0.66633300  1
  Cr  Cr41  1  0.50117112  0.50053540  0.83518964  1
  Ni  Ni42  1  0.50277194  0.83228440  0.50298840  1
  Ni  Ni43  1  0.33670898  0.67063468  0.66719860  1
  Fe  Fe44  1  0.50072586  0.83618558  0.83393966  1
  Ni  Ni45  1  0.83449030  0.16806547  0.50233865  1
  Fe  Fe46  1  0.66655539  1.00067454  0.66683907  1
  Cr  Cr47  1  0.83408698  0.16738517  0.83398799  1
  Ni  Ni48  1  0.83232791  0.50071691  0.50089299  1
  Ni  Ni49  1  0.66882598  0.33417854  0.66543599  1
  Fe  Fe50  1  0.83465635  0.50151104  0.83569176  1
  Ni  Ni51  1  0.83419305  0.83554864  0.50068354  1
  Fe  Fe52  1  0.66684925  0.66895946  0.66610414  1
  Ni  Ni53  1  0.83470256  0.83440754  0.83482104  1
" 