2066,Ni43Fe25Cr31_14,-227.842764644019, 183.695306384683,Ni43Fe25Cr31,"# generated using pymatgen
 data_Cr18Fe13Ni23
_symmetry_space_group_name_H-M   'P 1'
_cell_length_a   7.46989181
_cell_length_b   7.46989181
_cell_length_c   10.56402231
_cell_angle_alpha   90.00000000
_cell_angle_beta   90.00000000
_cell_angle_gamma   90.00000000
_symmetry_Int_Tables_number   1
_chemical_formula_structural   Cr18Fe13Ni23
_chemical_formula_sum   'Cr18 Fe13 Ni23'
_cell_volume   589.46487830
_cell_formula_units_Z   1
loop_
 _symmetry_equiv_pos_site_id
 _symmetry_equiv_pos_as_xyz
  1  'x, y, z'
loop_
 _atom_site_type_symbol
 _atom_site_label
 _atom_site_symmetry_multiplicity
 _atom_site_fract_x
 _atom_site_fract_y
 _atom_site_fract_z
 _atom_site_occupancy
  Ni  Ni0  1  0.99770613  -0.00002373  0.99891356  1
  Ni  Ni1  1  0.16711386  0.16771709  0.16517180  1
  Cr  Cr2  1  0.99718167  0.00085962  0.32672762  1
  Ni  Ni3  1  0.00293766  0.33195392  0.99604074  1
  Cr  Cr4  1  0.16610620  0.50208691  0.16262576  1
  Fe  Fe5  1  0.99759542  0.33696107  0.33188029  1
  Ni  Ni6  1  0.99627592  0.66797520  0.99584167  1
  Cr  Cr7  1  0.16410258  0.83220190  0.16435168  1
  Ni  Ni8  1  0.00000182  0.66735878  0.33598118  1
  Cr  Cr9  1  0.33181185  0.00305865  -0.00018833  1
  Ni  Ni10  1  0.50220213  0.16696204  0.16547496  1
  Fe  Fe11  1  0.33700462  0.99910906  0.33092081  1
  Ni  Ni12  1  0.33361442  0.33262912  0.00026978  1
  Ni  Ni13  1  0.50060601  0.49763811  0.16316214  1
  Cr  Cr14  1  0.33272245  0.33213106  0.32919340  1
  Ni  Ni15  1  0.33316412  0.66396427  0.99766078  1
  Cr  Cr16  1  0.50085870  0.83050878  0.16537282  1
  Ni  Ni17  1  0.33235125  0.66323413  0.33320624  1
  Ni  Ni18  1  0.66932585  0.99819725  0.99762434  1
  Cr  Cr19  1  0.83251122  0.16701371  0.16178382  1
  Ni  Ni20  1  0.66638693  0.00158746  0.33482559  1
  Fe  Fe21  1  0.66776190  0.33258012  0.99885368  1
  Cr  Cr22  1  0.83167302  0.50111009  0.16479427  1
  Ni  Ni23  1  0.66402246  0.33039414  0.33219987  1
  Ni  Ni24  1  0.66837167  0.66775126  -0.00016509  1
  Ni  Ni25  1  0.83256951  0.83336477  0.16440135  1
  Cr  Cr26  1  0.66881424  0.66687562  0.33390263  1
  Cr  Cr27  1  0.16660314  0.16690388  0.49815206  1
  Cr  Cr28  1  0.99891013  0.99922854  0.67172076  1
  Ni  Ni29  1  0.16607756  0.16543187  0.83449936  1
  Ni  Ni30  1  0.16286970  0.50172844  0.50153068  1
  Fe  Fe31  1  0.99854206  0.33670818  0.66989901  1
  Fe  Fe32  1  0.16276022  0.50097538  0.83542816  1
  Cr  Cr33  1  0.16866952  0.83292715  0.49829869  1
  Ni  Ni34  1  0.99900552  0.66758073  0.66728403  1
  Ni  Ni35  1  0.16493943  0.83381596  0.83554180  1
  Ni  Ni36  1  0.50169680  0.16337373  0.50165873  1
  Fe  Fe37  1  0.33469563  0.99907234  0.66969800  1
  Fe  Fe38  1  0.50218457  0.16432778  0.83449504  1
  Cr  Cr39  1  0.49997288  0.49684220  0.49849296  1
  Cr  Cr40  1  0.33212060  0.33115186  0.67005173  1
  Cr  Cr41  1  0.50308631  0.49910917  0.83950217  1
  Fe  Fe42  1  0.49928402  0.83522031  0.49883025  1
  Cr  Cr43  1  0.33214839  0.66585240  0.66979823  1
  Fe  Fe44  1  0.50081226  0.83354579  0.83593440  1
  Cr  Cr45  1  0.83108009  0.16948149  0.50214237  1
  Fe  Fe46  1  0.66453288  0.99959283  0.66898065  1
  Fe  Fe47  1  0.83324348  0.16753700  0.83508739  1
  Fe  Fe48  1  0.83539591  0.49809240  0.50113509  1
  Ni  Ni49  1  0.66594801  0.33077048  0.66885049  1
  Ni  Ni50  1  0.83319694  0.50016712  0.83207375  1
  Fe  Fe51  1  0.83446524  0.83506894  0.49972379  1
  Cr  Cr52  1  0.66934651  0.66751333  0.66494136  1
  Ni  Ni53  1  0.83333819  0.83249985  0.83514129  1
" 