8839,Ni43Fe25Cr31_19,-227.2677851119, 173.513399390056,Ni43Fe25Cr31,"# generated using pymatgen
 data_Cr18Fe13Ni23
_symmetry_space_group_name_H-M   'P 1'
_cell_length_a   7.47360863
_cell_length_b   7.47360863
_cell_length_c   10.56927868
_cell_angle_alpha   90.00000000
_cell_angle_beta   90.00000000
_cell_angle_gamma   90.00000000
_symmetry_Int_Tables_number   1
_chemical_formula_structural   Cr18Fe13Ni23
_chemical_formula_sum   'Cr18 Fe13 Ni23'
_cell_volume   590.34522056
_cell_formula_units_Z   1
loop_
 _symmetry_equiv_pos_site_id
 _symmetry_equiv_pos_as_xyz
  1  'x, y, z'
loop_
 _atom_site_type_symbol
 _atom_site_label
 _atom_site_symmetry_multiplicity
 _atom_site_fract_x
 _atom_site_fract_y
 _atom_site_fract_z
 _atom_site_occupancy
  Ni  Ni0  1  0.00017805  0.99752410  -0.00040258  1
  Ni  Ni1  1  0.16449055  0.16768445  0.16699956  1
  Ni  Ni2  1  0.99939206  0.99729819  0.33078003  1
  Fe  Fe3  1  0.99909170  0.33418446  0.99925846  1
  Ni  Ni4  1  0.16435720  0.50012946  0.16707608  1
  Fe  Fe5  1  0.00032126  0.33308910  0.33096179  1
  Fe  Fe6  1  0.00131618  0.66611572  0.00050657  1
  Fe  Fe7  1  0.16489155  0.83216605  0.16635143  1
  Ni  Ni8  1  0.00043368  0.66704374  0.32971949  1
  Cr  Cr9  1  0.33019757  0.99855773  0.00260397  1
  Ni  Ni10  1  0.49999307  0.16556142  0.16784411  1
  Cr  Cr11  1  0.33318024  0.00224675  0.33037020  1
  Cr  Cr12  1  0.33298537  0.33439810  0.00043008  1
  Cr  Cr13  1  0.49787730  0.49953857  0.16624065  1
  Ni  Ni14  1  0.33395231  0.33306614  0.33253920  1
  Ni  Ni15  1  0.32966473  0.66535354  -0.00016702  1
  Ni  Ni16  1  0.50004838  0.83353914  0.16670689  1
  Fe  Fe17  1  0.33188844  0.66473608  0.33090580  1
  Cr  Cr18  1  0.66798059  0.00012642  0.00141662  1
  Cr  Cr19  1  0.83337577  0.16595847  0.16689387  1
  Ni  Ni20  1  0.66650005  0.00078966  0.33125761  1
  Ni  Ni21  1  0.66784328  0.33472778  0.99817139  1
  Fe  Fe22  1  0.83499045  0.49920335  0.16675463  1
  Ni  Ni23  1  0.66292978  0.33197768  0.33362819  1
  Cr  Cr24  1  0.66726460  0.66419614  -0.00001830  1
  Ni  Ni25  1  0.83471682  0.83343831  0.16725791  1
  Cr  Cr26  1  0.66762707  0.66612617  0.33194894  1
  Cr  Cr27  1  0.16572109  0.16760312  0.50019340  1
  Ni  Ni28  1  0.99904947  0.99842443  0.66833222  1
  Cr  Cr29  1  0.16297958  0.16700563  0.83149275  1
  Cr  Cr30  1  0.16768998  0.49911419  0.49895519  1
  Ni  Ni31  1  0.00023640  0.33297977  0.66830401  1
  Ni  Ni32  1  0.16512204  0.50158090  0.83205803  1
  Cr  Cr33  1  0.16499097  0.83192436  0.50071523  1
  Fe  Fe34  1  0.99852457  0.66525354  0.66833708  1
  Fe  Fe35  1  0.16486096  0.83043587  0.83244232  1
  Ni  Ni36  1  0.50101040  0.16871861  0.50017340  1
  Fe  Fe37  1  0.33378003  0.00122160  0.66588948  1
  Cr  Cr38  1  0.50218241  0.16810300  0.83163478  1
  Ni  Ni39  1  0.49867150  0.49708143  0.50127621  1
  Ni  Ni40  1  0.33427693  0.33495189  0.66567104  1
  Ni  Ni41  1  0.49933774  0.50050731  0.83100364  1
  Cr  Cr42  1  0.50068307  0.83263959  0.50084181  1
  Fe  Fe43  1  0.33377439  0.66341189  0.66835877  1
  Cr  Cr44  1  0.49952425  0.83059780  0.83128584  1
  Cr  Cr45  1  0.83174055  0.16551227  0.49936078  1
  Ni  Ni46  1  0.66783444  0.99933707  0.66629296  1
  Fe  Fe47  1  0.83336958  0.16770600  0.83167186  1
  Cr  Cr48  1  0.83247261  0.49857411  0.49893503  1
  Ni  Ni49  1  0.66412281  0.33459566  0.66681153  1
  Fe  Fe50  1  0.83259416  0.49804018  0.83146224  1
  Cr  Cr51  1  0.83303969  0.83456189  0.49988253  1
  Ni  Ni52  1  0.66586585  0.66476751  0.66746829  1
  Fe  Fe53  1  0.83535341  0.83287056  0.83141093  1
" 