627,Ni43Fe27Cr29_15,-228.302424705852, 183.348225933694,Ni43Fe27Cr29,"# generated using pymatgen
 data_Cr17Fe14Ni23
_symmetry_space_group_name_H-M   'P 1'
_cell_length_a   7.46331183
_cell_length_b   7.46331183
_cell_length_c   10.55471682
_cell_angle_alpha   90.00000000
_cell_angle_beta   90.00000000
_cell_angle_gamma   90.00000000
_symmetry_Int_Tables_number   1
_chemical_formula_structural   Cr17Fe14Ni23
_chemical_formula_sum   'Cr17 Fe14 Ni23'
_cell_volume   587.90852976
_cell_formula_units_Z   1
loop_
 _symmetry_equiv_pos_site_id
 _symmetry_equiv_pos_as_xyz
  1  'x, y, z'
loop_
 _atom_site_type_symbol
 _atom_site_label
 _atom_site_symmetry_multiplicity
 _atom_site_fract_x
 _atom_site_fract_y
 _atom_site_fract_z
 _atom_site_occupancy
  Cr  Cr0  1  0.99958620  0.99935886  0.99724021  1
  Cr  Cr1  1  0.16802304  0.16753477  0.16324616  1
  Cr  Cr2  1  0.99890082  1.00017603  0.33610663  1
  Fe  Fe3  1  0.99677327  0.33401160  0.99779232  1
  Cr  Cr4  1  0.16257842  0.49915315  0.16783145  1
  Fe  Fe5  1  0.99865525  0.33479329  0.33642547  1
  Cr  Cr6  1  0.99597885  0.66904990  0.00064809  1
  Cr  Cr7  1  0.17119953  0.83389580  0.16771835  1
  Fe  Fe8  1  0.99900667  0.66566801  0.33567162  1
  Fe  Fe9  1  0.33873808  0.00066815  0.99823897  1
  Ni  Ni10  1  0.50213503  0.16350530  0.16604550  1
  Ni  Ni11  1  0.33382642  0.00226335  0.33312244  1
  Ni  Ni12  1  0.33664020  0.33028686  0.99940247  1
  Cr  Cr13  1  0.50355758  0.50089434  0.16677279  1
  Cr  Cr14  1  0.33562927  0.33166888  0.33533839  1
  Cr  Cr15  1  0.33685263  0.66520220  0.99920604  1
  Ni  Ni16  1  0.50285948  0.83573730  0.16714737  1
  Fe  Fe17  1  0.33520218  0.66848618  0.33495779  1
  Ni  Ni18  1  0.66629261  0.99962963  0.00169232  1
  Cr  Cr19  1  0.83102488  0.17099838  0.16722671  1
  Fe  Fe20  1  0.66403094  0.00081125  0.33365115  1
  Ni  Ni21  1  0.66405612  0.33368602  0.99945791  1
  Ni  Ni22  1  0.83228879  0.50024433  0.16659560  1
  Fe  Fe23  1  0.66755921  0.33339777  0.33508506  1
  Ni  Ni24  1  0.66779417  0.66733410  0.99958216  1
  Fe  Fe25  1  0.82924037  0.83264207  0.16763952  1
  Ni  Ni26  1  0.66985706  0.66606909  0.33237381  1
  Ni  Ni27  1  0.16620774  0.16521506  0.50120725  1
  Cr  Cr28  1  0.00070271  0.00137166  0.66676595  1
  Ni  Ni29  1  0.16687158  0.16612840  0.83461943  1
  Fe  Fe30  1  0.16587759  0.49944823  0.50038035  1
  Ni  Ni31  1  0.99894946  0.33216237  0.66639940  1
  Cr  Cr32  1  0.16617249  0.49904874  0.83319386  1
  Ni  Ni33  1  0.16921636  0.83292762  0.50050700  1
  Cr  Cr34  1  0.99918636  0.66859267  0.66610641  1
  Ni  Ni35  1  0.17071797  0.83540130  0.83167662  1
  Ni  Ni36  1  0.50195585  0.16561570  0.49941977  1
  Ni  Ni37  1  0.33238901  0.00131693  0.66847261  1
  Ni  Ni38  1  0.50176691  0.16624485  0.83510056  1
  Fe  Fe39  1  0.50284153  0.49972260  0.50012913  1
  Cr  Cr40  1  0.33666161  0.33181277  0.66556189  1
  Ni  Ni41  1  0.50342295  0.49982147  0.83314999  1
  Cr  Cr42  1  0.49798294  0.83416223  0.50069921  1
  Ni  Ni43  1  0.33367126  0.66703024  0.66599180  1
  Ni  Ni44  1  0.49960428  0.83448575  0.83443709  1
  Ni  Ni45  1  0.83253438  0.17201732  0.50076824  1
  Cr  Cr46  1  0.66698898  0.00286172  0.66634587  1
  Fe  Fe47  1  0.83117936  0.16980190  0.83358363  1
  Ni  Ni48  1  0.83342052  0.49809175  0.49964859  1
  Ni  Ni49  1  0.66709224  0.33368233  0.66579597  1
  Fe  Fe50  1  0.83121033  0.49642278  0.83410441  1
  Fe  Fe51  1  0.83256371  0.83352704  0.49852674  1
  Cr  Cr52  1  0.66565410  0.66465614  0.66989315  1
  Fe  Fe53  1  0.83038557  0.83477873  0.83481371  1
" 