4040,Ni43Fe57_1,-242.09693303075, 222.020229154667,Ni43Fe57,"# generated using pymatgen
 data_Fe23Ni31
_symmetry_space_group_name_H-M   'P 1'
_cell_length_a   7.40471476
_cell_length_b   7.40471476
_cell_length_c   10.47184804
_cell_angle_alpha   90.00000000
_cell_angle_beta   90.00000000
_cell_angle_gamma   90.00000000
_symmetry_Int_Tables_number   1
_chemical_formula_structural   Fe23Ni31
_chemical_formula_sum   'Fe23 Ni31'
_cell_volume   574.16934166
_cell_formula_units_Z   1
loop_
 _symmetry_equiv_pos_site_id
 _symmetry_equiv_pos_as_xyz
  1  'x, y, z'
loop_
 _atom_site_type_symbol
 _atom_site_label
 _atom_site_symmetry_multiplicity
 _atom_site_fract_x
 _atom_site_fract_y
 _atom_site_fract_z
 _atom_site_occupancy
  Fe  Fe0  1  0.00545408  1.00363695  1.00295059  1
  Fe  Fe1  1  0.17357843  0.17037563  0.16996434  1
  Fe  Fe2  1  1.00326866  0.00424954  0.33897052  1
  Fe  Fe3  1  0.00449644  0.33610077  1.00338571  1
  Ni  Ni4  1  0.16967785  0.50473422  0.16909648  1
  Fe  Fe5  1  1.00297547  0.33891611  0.33847407  1
  Ni  Ni6  1  1.00297120  0.67086672  1.00367307  1
  Ni  Ni7  1  0.17080949  0.83597443  0.17133285  1
  Ni  Ni8  1  0.00446082  0.67129599  0.33806355  1
  Ni  Ni9  1  0.33832805  0.00591902  0.00485139  1
  Ni  Ni10  1  0.50701651  0.17087097  0.16965482  1
  Fe  Fe11  1  0.33971514  1.00334879  0.33755682  1
  Ni  Ni12  1  0.33726373  0.33669123  1.00379476  1
  Fe  Fe13  1  0.50236664  0.50425279  0.17039293  1
  Ni  Ni14  1  0.33686274  0.33601539  0.33752550  1
  Fe  Fe15  1  0.33726305  0.67240284  1.00400863  1
  Ni  Ni16  1  0.50402045  0.83831842  0.17043124  1
  Fe  Fe17  1  0.33893654  0.66984493  0.33749216  1
  Ni  Ni18  1  0.67052498  1.00338612  1.00371601  1
  Fe  Fe19  1  0.83744201  0.16956097  0.17103350  1
  Ni  Ni20  1  0.66985214  1.00376981  0.33782279  1
  Fe  Fe21  1  0.67050393  0.33684750  1.00363226  1
  Fe  Fe22  1  0.83733903  0.50554699  0.17113202  1
  Ni  Ni23  1  0.66805481  0.33732631  0.33673575  1
  Fe  Fe24  1  0.66907798  0.67146228  1.00389926  1
  Fe  Fe25  1  0.83758022  0.83751950  0.17123601  1
  Ni  Ni26  1  0.67285085  0.67204436  0.33669298  1
  Fe  Fe27  1  0.17147831  0.16945671  0.50574797  1
  Ni  Ni28  1  0.00444363  1.00291616  0.67099162  1
  Ni  Ni29  1  0.16890935  0.16978749  0.83714711  1
  Ni  Ni30  1  0.17104920  0.50487728  0.50562370  1
  Ni  Ni31  1  0.00489915  0.33848147  0.67038388  1
  Fe  Fe32  1  0.17085954  0.50301948  0.83766342  1
  Ni  Ni33  1  0.17088069  0.83490292  0.50400925  1
  Ni  Ni34  1  1.00352980  0.67121878  0.67090213  1
  Ni  Ni35  1  0.17146748  0.83691869  0.83750180  1
  Ni  Ni36  1  0.50689866  0.17119658  0.50573719  1
  Ni  Ni37  1  0.33751494  0.00554221  0.67072583  1
  Fe  Fe38  1  0.50274516  0.17083835  0.83755028  1
  Fe  Fe39  1  0.50490756  0.50467886  0.50491582  1
  Ni  Ni40  1  0.33743882  0.33628619  0.67156572  1
  Ni  Ni41  1  0.50442230  0.50436445  0.83780372  1
  Ni  Ni42  1  0.50473649  0.83784188  0.50484064  1
  Fe  Fe43  1  0.33809476  0.67131371  0.67124155  1
  Fe  Fe44  1  0.50370187  0.83927127  0.83727227  1
  Ni  Ni45  1  0.83574393  0.17172313  0.50478592  1
  Ni  Ni46  1  0.67052607  1.00376832  0.67133366  1
  Ni  Ni47  1  0.83649321  0.17131472  0.83695706  1
  Fe  Fe48  1  0.83675429  0.50543011  0.50410650  1
  Ni  Ni49  1  0.67019453  0.33783735  0.67151996  1
  Fe  Fe50  1  0.83853391  0.50402884  0.83685810  1
  Ni  Ni51  1  0.83737620  0.83923048  0.50473521  1
  Ni  Ni52  1  0.67302552  0.67165110  0.67101364  1
  Fe  Fe53  1  0.83796922  0.83811073  0.83683192  1
" 