7445,Ni43Fe34Cr21_19,-230.916766347681, 192.51050118606,Ni43Fe34Cr21,"# generated using pymatgen
 data_Cr13Fe18Ni23
_symmetry_space_group_name_H-M   'P 1'
_cell_length_a   7.44816330
_cell_length_b   7.44816330
_cell_length_c   10.53329356
_cell_angle_alpha   90.00000000
_cell_angle_beta   90.00000000
_cell_angle_gamma   90.00000000
_symmetry_Int_Tables_number   1
_chemical_formula_structural   Cr13Fe18Ni23
_chemical_formula_sum   'Cr13 Fe18 Ni23'
_cell_volume   584.33589891
_cell_formula_units_Z   1
loop_
 _symmetry_equiv_pos_site_id
 _symmetry_equiv_pos_as_xyz
  1  'x, y, z'
loop_
 _atom_site_type_symbol
 _atom_site_label
 _atom_site_symmetry_multiplicity
 _atom_site_fract_x
 _atom_site_fract_y
 _atom_site_fract_z
 _atom_site_occupancy
  Ni  Ni0  1  0.00145903  0.99985031  1.00000790  1
  Fe  Fe1  1  0.16824653  0.16812703  0.16784762  1
  Cr  Cr2  1  1.00119093  1.00049914  0.33827884  1
  Fe  Fe3  1  1.00056578  0.33472405  0.99962035  1
  Ni  Ni4  1  0.16782664  0.49926672  0.16806987  1
  Fe  Fe5  1  1.00111388  0.33433049  0.33615546  1
  Fe  Fe6  1  1.00037520  0.66461185  0.00200819  1
  Cr  Cr7  1  0.16858909  0.83439589  0.16626365  1
  Cr  Cr8  1  1.00030263  0.66684983  0.33571186  1
  Fe  Fe9  1  0.33446979  0.00229216  0.00151354  1
  Fe  Fe10  1  0.50074510  0.16859129  0.16816725  1
  Ni  Ni11  1  0.33508630  1.00126110  0.33364675  1
  Cr  Cr12  1  0.33651483  0.33563075  1.00093244  1
  Fe  Fe13  1  0.50316019  0.50279106  0.16810207  1
  Fe  Fe14  1  0.33276114  0.33368186  0.33373419  1
  Fe  Fe15  1  0.33507255  0.66709202  1.00113161  1
  Ni  Ni16  1  0.50116172  0.83421836  0.16695114  1
  Fe  Fe17  1  0.33626470  0.66843353  0.33442915  1
  Fe  Fe18  1  0.66799548  0.00281273  0.00207841  1
  Cr  Cr19  1  0.83632981  0.16955165  0.16619412  1
  Cr  Cr20  1  0.66757742  0.00169086  0.33389271  1
  Ni  Ni21  1  0.66856512  0.33636761  1.00051632  1
  Ni  Ni22  1  0.83504264  0.50102678  0.16763905  1
  Ni  Ni23  1  0.66799595  0.33699516  0.33367475  1
  Fe  Fe24  1  0.66803455  0.66563936  0.00259315  1
  Ni  Ni25  1  0.83218234  0.83268992  0.16519786  1
  Fe  Fe26  1  0.66764956  0.66868878  0.33368596  1
  Ni  Ni27  1  0.16755972  0.16935067  0.50149954  1
  Fe  Fe28  1  0.00192371  0.00496619  0.66751953  1
  Ni  Ni29  1  0.16594011  0.16761373  0.83423073  1
  Ni  Ni30  1  0.16723217  0.49789497  0.50063306  1
  Ni  Ni31  1  1.00070012  0.33495809  0.66810550  1
  Fe  Fe32  1  0.16671300  0.49893818  0.83479444  1
  Fe  Fe33  1  0.16962690  0.83597506  0.50132161  1
  Cr  Cr34  1  1.00097107  0.66750487  0.66720384  1
  Fe  Fe35  1  0.16744164  0.83661285  0.83652130  1
  Cr  Cr36  1  0.50004661  0.16757432  0.50336364  1
  Ni  Ni37  1  0.33275352  0.00132055  0.66760298  1
  Cr  Cr38  1  0.50199179  0.16825976  0.83187125  1
  Cr  Cr39  1  0.50171801  0.50170729  0.50128935  1
  Ni  Ni40  1  0.33268791  0.33429458  0.66876954  1
  Ni  Ni41  1  0.50252686  0.50164409  0.83429765  1
  Ni  Ni42  1  0.50121128  0.83497016  0.50134363  1
  Cr  Cr43  1  0.33259162  0.66708574  0.66839607  1
  Cr  Cr44  1  0.50091634  0.83385418  0.83445618  1
  Ni  Ni45  1  0.83665906  0.16977248  0.50417833  1
  Ni  Ni46  1  0.66955547  0.00216345  0.66665637  1
  Ni  Ni47  1  0.83736785  0.16971170  0.83410097  1
  Ni  Ni48  1  0.83520340  0.49981906  0.50091483  1
  Ni  Ni49  1  0.67037494  0.33469185  0.66966059  1
  Ni  Ni50  1  0.83394317  0.49920791  0.83553426  1
  Ni  Ni51  1  0.83184116  0.83453048  0.50296019  1
  Fe  Fe52  1  0.66840765  0.66645201  0.66733840  1
  Cr  Cr53  1  0.83427261  0.83547218  0.83584865  1
" 