4954,Ni43Fe5Cr50_10,-218.769184432143, 139.8009736085,Ni43Fe5Cr50,"# generated using pymatgen
 data_Cr28Fe3Ni23
_symmetry_space_group_name_H-M   'P 1'
_cell_length_a   7.51920407
_cell_length_b   7.51920407
_cell_length_c   10.63376037
_cell_angle_alpha   90.00000000
_cell_angle_beta   90.00000000
_cell_angle_gamma   90.00000000
_symmetry_Int_Tables_number   1
_chemical_formula_structural   Cr28Fe3Ni23
_chemical_formula_sum   'Cr28 Fe3 Ni23'
_cell_volume   601.21611444
_cell_formula_units_Z   1
loop_
 _symmetry_equiv_pos_site_id
 _symmetry_equiv_pos_as_xyz
  1  'x, y, z'
loop_
 _atom_site_type_symbol
 _atom_site_label
 _atom_site_symmetry_multiplicity
 _atom_site_fract_x
 _atom_site_fract_y
 _atom_site_fract_z
 _atom_site_occupancy
  Ni  Ni0  1  -0.00284615  0.99546086  0.99549670  1
  Cr  Cr1  1  0.16315472  0.15910771  0.16320263  1
  Ni  Ni2  1  -0.00210535  0.99539023  0.33130796  1
  Cr  Cr3  1  -0.00328548  0.32875452  0.99413724  1
  Cr  Cr4  1  0.16589011  0.49951400  0.16205007  1
  Cr  Cr5  1  0.99445250  0.32932880  0.33136915  1
  Ni  Ni6  1  -0.00063922  0.66617678  -0.00337991  1
  Fe  Fe7  1  0.16544065  0.83085053  0.16333834  1
  Cr  Cr8  1  -0.00117237  0.66557267  0.32967353  1
  Fe  Fe9  1  0.33111538  0.99345064  -0.00322620  1
  Cr  Cr10  1  0.49828346  0.16081591  0.16497614  1
  Ni  Ni11  1  0.33113261  0.99207668  0.32969977  1
  Cr  Cr12  1  0.33046235  0.32744782  0.99545248  1
  Ni  Ni13  1  0.49416683  0.49967331  0.16455118  1
  Cr  Cr14  1  0.33254121  0.32997320  0.33036310  1
  Ni  Ni15  1  0.33019814  0.66679123  -0.00128976  1
  Ni  Ni16  1  0.49393218  0.83066106  0.16262994  1
  Ni  Ni17  1  0.33227468  0.66776374  0.33005681  1
  Ni  Ni18  1  0.66188844  0.99610387  0.99495078  1
  Cr  Cr19  1  0.82812560  0.15990340  0.16622566  1
  Ni  Ni20  1  0.66063223  -0.00307457  0.33180546  1
  Cr  Cr21  1  0.66260844  0.32871300  0.99587124  1
  Cr  Cr22  1  0.82816152  0.49668939  0.16256881  1
  Ni  Ni23  1  0.66125077  0.32899075  0.33284127  1
  Cr  Cr24  1  0.66170507  0.66570495  0.99605375  1
  Cr  Cr25  1  0.82947536  0.83362731  0.16160276  1
  Cr  Cr26  1  0.66038942  0.66367013  0.33060618  1
  Cr  Cr27  1  0.16318626  0.15956669  0.49624397  1
  Ni  Ni28  1  -0.00313594  -0.00188280  0.66268921  1
  Fe  Fe29  1  0.16246548  0.15987070  0.83026437  1
  Cr  Cr30  1  0.16641084  0.49957942  0.49798604  1
  Cr  Cr31  1  0.99419179  0.32717875  0.66467000  1
  Cr  Cr32  1  0.16425734  0.49855736  0.82901208  1
  Ni  Ni33  1  0.16634850  0.83130798  0.49448070  1
  Cr  Cr34  1  0.99550792  0.66458448  0.66113985  1
  Cr  Cr35  1  0.16397238  0.82905013  0.82977798  1
  Ni  Ni36  1  0.49909355  0.16163191  0.49337964  1
  Cr  Cr37  1  0.33100163  0.99494720  0.66353938  1
  Ni  Ni38  1  0.49792320  0.15946859  0.83231489  1
  Ni  Ni39  1  0.49688030  0.49747291  0.49534805  1
  Cr  Cr40  1  0.33219728  0.32660403  0.66365476  1
  Cr  Cr41  1  0.49480124  0.49893587  0.82921530  1
  Ni  Ni42  1  0.49299780  0.83046818  0.49520176  1
  Ni  Ni43  1  0.33192680  0.66618481  0.66039927  1
  Ni  Ni44  1  0.49389821  0.83259395  0.83190050  1
  Ni  Ni45  1  0.82778001  0.16231456  0.49421164  1
  Cr  Cr46  1  0.66152637  -0.00255922  0.66358635  1
  Ni  Ni47  1  0.82968873  0.16053726  0.83105116  1
  Ni  Ni48  1  0.82702981  0.49383169  0.49593451  1
  Cr  Cr49  1  0.66362701  0.32874640  0.66254339  1
  Ni  Ni50  1  0.83148195  0.49520275  0.83118564  1
  Cr  Cr51  1  0.83033319  0.83385616  0.49633699  1
  Cr  Cr52  1  0.66074472  0.66437871  0.66262898  1
  Cr  Cr53  1  0.82934681  0.83114991  0.83108481  1
" 