3913,Ni43Fe34Cr21_14,-231.871500648768, 197.797764320427,Ni43Fe34Cr21,"# generated using pymatgen
 data_Cr13Fe18Ni23
_symmetry_space_group_name_H-M   'P 1'
_cell_length_a   7.44990691
_cell_length_b   7.44990691
_cell_length_c   10.53575939
_cell_angle_alpha   90.00000000
_cell_angle_beta   90.00000000
_cell_angle_gamma   90.00000000
_symmetry_Int_Tables_number   1
_chemical_formula_structural   Cr13Fe18Ni23
_chemical_formula_sum   'Cr13 Fe18 Ni23'
_cell_volume   584.74637263
_cell_formula_units_Z   1
loop_
 _symmetry_equiv_pos_site_id
 _symmetry_equiv_pos_as_xyz
  1  'x, y, z'
loop_
 _atom_site_type_symbol
 _atom_site_label
 _atom_site_symmetry_multiplicity
 _atom_site_fract_x
 _atom_site_fract_y
 _atom_site_fract_z
 _atom_site_occupancy
  Ni  Ni0  1  1.00108725  1.00082078  0.00320739  1
  Fe  Fe1  1  0.16973409  0.16801971  0.16676362  1
  Fe  Fe2  1  1.00071104  1.00030589  0.33163508  1
  Ni  Ni3  1  1.00061281  0.33207150  0.00217105  1
  Ni  Ni4  1  0.16837327  0.50249626  0.16719397  1
  Cr  Cr5  1  0.00206727  0.33446456  0.33009056  1
  Fe  Fe6  1  0.00158960  0.66732698  0.00274861  1
  Ni  Ni7  1  0.16954795  0.83552285  0.16702703  1
  Cr  Cr8  1  0.00240308  0.67073415  0.33461782  1
  Fe  Fe9  1  0.33328149  0.00134086  0.00279497  1
  Ni  Ni10  1  0.50336392  0.16754434  0.16833299  1
  Fe  Fe11  1  0.33499414  0.00174396  0.33151280  1
  Cr  Cr12  1  0.33571587  0.33555827  0.00175476  1
  Ni  Ni13  1  0.50222345  0.50147886  0.16859065  1
  Ni  Ni14  1  0.33702674  0.33582684  0.33451869  1
  Ni  Ni15  1  0.33457261  0.66859654  0.00341206  1
  Ni  Ni16  1  0.49967450  0.83425855  0.16736994  1
  Fe  Fe17  1  0.33560536  0.66709185  0.33221268  1
  Fe  Fe18  1  0.66885413  0.00272060  0.00301697  1
  Ni  Ni19  1  0.83376541  0.16827331  0.16751218  1
  Ni  Ni20  1  0.66788295  0.99981495  0.33312476  1
  Ni  Ni21  1  0.66823691  0.33465452  0.00160924  1
  Ni  Ni22  1  0.83283639  0.49857086  0.16578210  1
  Ni  Ni23  1  0.66422639  0.33281858  0.33232315  1
  Ni  Ni24  1  0.66657562  0.66795331  0.00323713  1
  Fe  Fe25  1  0.83261292  0.83432656  0.16754847  1
  Fe  Fe26  1  0.66715879  0.66695990  0.33205207  1
  Cr  Cr27  1  0.16969760  0.16679009  0.49885112  1
  Cr  Cr28  1  0.99959863  0.99938076  0.66660852  1
  Ni  Ni29  1  0.16618504  0.16593097  0.83618975  1
  Fe  Fe30  1  0.16957803  0.50245874  0.49907868  1
  Cr  Cr31  1  0.00376201  0.33581559  0.66969610  1
  Fe  Fe32  1  0.16783693  0.50227258  0.83762583  1
  Ni  Ni33  1  0.16870126  0.83535083  0.50069836  1
  Fe  Fe34  1  1.00080778  0.66905846  0.66788268  1
  Ni  Ni35  1  0.16706787  0.83499410  0.83569813  1
  Fe  Fe36  1  0.50121654  0.16691313  0.49900969  1
  Fe  Fe37  1  0.33539721  0.00295690  0.66928571  1
  Fe  Fe38  1  0.50054657  0.16710776  0.83625949  1
  Ni  Ni39  1  0.49958915  0.49981317  0.49813105  1
  Fe  Fe40  1  0.33602375  0.33284378  0.66867856  1
  Ni  Ni41  1  0.50240215  0.50167590  0.83645337  1
  Cr  Cr42  1  0.50059160  0.83500157  0.49877549  1
  Cr  Cr43  1  0.33238192  0.66575926  0.66720227  1
  Cr  Cr44  1  0.49967312  0.83392531  0.83779436  1
  Cr  Cr45  1  0.83289784  0.16731581  0.49831346  1
  Ni  Ni46  1  0.66749538  0.00174177  0.66915769  1
  Ni  Ni47  1  0.83506436  0.16830341  0.83667295  1
  Cr  Cr48  1  0.83206024  0.50028961  0.50000529  1
  Cr  Cr49  1  0.66515282  0.33244850  0.66905708  1
  Fe  Fe50  1  0.83508078  0.50199166  0.83815310  1
  Ni  Ni51  1  0.83473624  0.83559180  0.50039114  1
  Cr  Cr52  1  0.66840741  0.66962783  0.66766016  1
  Fe  Fe53  1  0.83543527  0.83546678  0.83663063  1
" 