2226,Ni43Fe48Cr7_1,-236.517048207604, 210.566604334322,Ni43Fe48Cr7,"# generated using pymatgen
 data_Cr5Fe26Ni23
_symmetry_space_group_name_H-M   'P 1'
_cell_length_a   7.41655144
_cell_length_b   7.41655144
_cell_length_c   10.48858763
_cell_angle_alpha   90.00000000
_cell_angle_beta   90.00000000
_cell_angle_gamma   90.00000000
_symmetry_Int_Tables_number   1
_chemical_formula_structural   Cr5Fe26Ni23
_chemical_formula_sum   'Cr5 Fe26 Ni23'
_cell_volume   576.92723063
_cell_formula_units_Z   1
loop_
 _symmetry_equiv_pos_site_id
 _symmetry_equiv_pos_as_xyz
  1  'x, y, z'
loop_
 _atom_site_type_symbol
 _atom_site_label
 _atom_site_symmetry_multiplicity
 _atom_site_fract_x
 _atom_site_fract_y
 _atom_site_fract_z
 _atom_site_occupancy
  Fe  Fe0  1  1.00336314  1.00323978  0.00355967  1
  Ni  Ni1  1  0.17172785  0.17103318  0.16864016  1
  Cr  Cr2  1  0.00417812  0.00348106  0.33720951  1
  Fe  Fe3  1  0.00582807  0.33609466  0.00471542  1
  Ni  Ni4  1  0.16807164  0.50266326  0.16938803  1
  Ni  Ni5  1  1.00302275  0.33791370  0.33601326  1
  Ni  Ni6  1  0.00385610  0.67087700  0.00513215  1
  Fe  Fe7  1  0.17050239  0.83592259  0.16910299  1
  Fe  Fe8  1  1.00256437  0.66749436  0.33625962  1
  Ni  Ni9  1  0.33638522  0.00361717  0.00428997  1
  Ni  Ni10  1  0.50142873  0.16785694  0.17046105  1
  Fe  Fe11  1  0.33852373  0.00470763  0.33705667  1
  Fe  Fe12  1  0.33437329  0.33611668  0.00352496  1
  Cr  Cr13  1  0.50316992  0.50335228  0.17099985  1
  Ni  Ni14  1  0.33655260  0.33533940  0.33709469  1
  Fe  Fe15  1  0.33572453  0.67053800  1.00207880  1
  Fe  Fe16  1  0.50341162  0.83810612  0.17031423  1
  Fe  Fe17  1  0.33608909  0.66977313  0.33801824  1
  Fe  Fe18  1  0.67034896  1.00188497  0.00357140  1
  Fe  Fe19  1  0.83698182  0.17105468  0.17022857  1
  Fe  Fe20  1  0.66874718  0.00423671  0.33697776  1
  Cr  Cr21  1  0.67004088  0.33594097  0.00461501  1
  Ni  Ni22  1  0.83924997  0.50530883  0.17053579  1
  Ni  Ni23  1  0.67063680  0.33686953  0.33786254  1
  Fe  Fe24  1  0.67032541  0.67300703  0.00352390  1
  Ni  Ni25  1  0.83607337  0.83505289  0.16841455  1
  Ni  Ni26  1  0.67115447  0.66982791  0.33716328  1
  Ni  Ni27  1  0.17117189  0.17020588  0.50484782  1
  Fe  Fe28  1  0.00358743  0.00409616  0.66944314  1
  Fe  Fe29  1  0.17024135  0.17026643  0.83679015  1
  Fe  Fe30  1  0.17045221  0.50254968  0.50217739  1
  Fe  Fe31  1  0.00404792  0.33471709  0.66878056  1
  Fe  Fe32  1  0.17203326  0.50271931  0.83795255  1
  Ni  Ni33  1  0.17191900  0.83715620  0.50328083  1
  Cr  Cr34  1  1.00328998  0.67123736  0.66750032  1
  Fe  Fe35  1  0.17100775  0.83722983  0.83703837  1
  Ni  Ni36  1  0.50262169  0.16969299  0.50362669  1
  Ni  Ni37  1  0.33642885  0.00364620  0.66927396  1
  Fe  Fe38  1  0.50296357  0.16965528  0.83632581  1
  Fe  Fe39  1  0.50407193  0.50373392  0.50365740  1
  Fe  Fe40  1  0.33719632  0.33724362  0.66973296  1
  Ni  Ni41  1  0.50125604  0.50492265  0.83558961  1
  Ni  Ni42  1  0.50290757  0.83663953  0.50334116  1
  Ni  Ni43  1  0.33840101  0.67084365  0.67048496  1
  Fe  Fe44  1  0.50354372  0.83649570  0.83596283  1
  Ni  Ni45  1  0.83641885  0.17138521  0.50408855  1
  Fe  Fe46  1  0.66972609  1.00265892  0.66966438  1
  Ni  Ni47  1  0.83806753  0.16790490  0.83618405  1
  Ni  Ni48  1  0.83590096  0.50313496  0.50227677  1
  Fe  Fe49  1  0.66896648  0.33644517  0.66930924  1
  Cr  Cr50  1  0.83590309  0.50385528  0.83724201  1
  Ni  Ni51  1  0.83538615  0.83569190  0.50467858  1
  Ni  Ni52  1  0.66832906  0.67010424  0.67019538  1
  Fe  Fe53  1  0.83565987  0.83828908  0.83763409  1
" 