6883,Ni43Fe57_4,-241.919807097988, 225.443640982168,Ni43Fe57,"# generated using pymatgen
 data_Fe23Ni31
_symmetry_space_group_name_H-M   'P 1'
_cell_length_a   7.39857575
_cell_length_b   7.39857575
_cell_length_c   10.46316617
_cell_angle_alpha   90.00000000
_cell_angle_beta   90.00000000
_cell_angle_gamma   90.00000000
_symmetry_Int_Tables_number   1
_chemical_formula_structural   Fe23Ni31
_chemical_formula_sum   'Fe23 Ni31'
_cell_volume   572.74244870
_cell_formula_units_Z   1
loop_
 _symmetry_equiv_pos_site_id
 _symmetry_equiv_pos_as_xyz
  1  'x, y, z'
loop_
 _atom_site_type_symbol
 _atom_site_label
 _atom_site_symmetry_multiplicity
 _atom_site_fract_x
 _atom_site_fract_y
 _atom_site_fract_z
 _atom_site_occupancy
  Ni  Ni0  1  0.00479179  0.00502192  0.00470829  1
  Ni  Ni1  1  0.17136580  0.17043323  0.17016464  1
  Fe  Fe2  1  0.00529041  0.00528785  0.33756222  1
  Ni  Ni3  1  1.00367491  0.33771204  0.00513934  1
  Fe  Fe4  1  0.17207885  0.50475377  0.17058108  1
  Fe  Fe5  1  0.00482744  0.33684984  0.33830458  1
  Fe  Fe6  1  0.00568832  0.67118551  1.00412086  1
  Ni  Ni7  1  0.17213461  0.83927718  0.17166174  1
  Fe  Fe8  1  1.00453763  0.67174460  0.33841590  1
  Ni  Ni9  1  0.33761524  1.00390728  0.00528278  1
  Fe  Fe10  1  0.50382281  0.17129517  0.17143561  1
  Ni  Ni11  1  0.33888724  0.00496448  0.33762561  1
  Ni  Ni12  1  0.33806548  0.33815794  1.00427689  1
  Ni  Ni13  1  0.50541983  0.50494614  0.17165951  1
  Ni  Ni14  1  0.33776037  0.33738115  0.33805833  1
  Ni  Ni15  1  0.33839839  0.67181725  0.00499514  1
  Ni  Ni16  1  0.50353608  0.83738571  0.17026015  1
  Fe  Fe17  1  0.33889069  0.67215487  0.33734593  1
  Fe  Fe18  1  0.67105208  0.00562917  1.00461270  1
  Fe  Fe19  1  0.83797703  0.17130875  0.17074949  1
  Ni  Ni20  1  0.67096315  1.00417932  0.33795944  1
  Ni  Ni21  1  0.67214128  0.33849338  0.00504412  1
  Ni  Ni22  1  0.83709675  0.50417892  0.17017089  1
  Fe  Fe23  1  0.67064228  0.33737825  0.33763485  1
  Fe  Fe24  1  0.67069129  0.67054831  0.00465752  1
  Fe  Fe25  1  0.83796132  0.83781390  0.17143673  1
  Fe  Fe26  1  0.67045427  0.67169207  0.33834580  1
  Ni  Ni27  1  0.17165609  0.17130597  0.50566195  1
  Fe  Fe28  1  1.00455572  1.00357173  0.67181798  1
  Fe  Fe29  1  0.17122046  0.17129264  0.83843507  1
  Fe  Fe30  1  0.17067539  0.50408268  0.50555616  1
  Ni  Ni31  1  1.00359843  0.33843583  0.67112192  1
  Ni  Ni32  1  0.17215203  0.50540933  0.83897427  1
  Fe  Fe33  1  0.17123826  0.83882118  0.50502585  1
  Ni  Ni34  1  1.00360126  0.67026360  0.67155160  1
  Ni  Ni35  1  0.17060527  0.83718022  0.83767365  1
  Ni  Ni36  1  0.50383295  0.17086309  0.50392445  1
  Ni  Ni37  1  0.33849423  1.00407323  0.67097400  1
  Ni  Ni38  1  0.50489701  0.17241017  0.83858785  1
  Fe  Fe39  1  0.50535869  0.50437080  0.50475449  1
  Fe  Fe40  1  0.33775747  0.33881476  0.67134816  1
  Ni  Ni41  1  0.50368537  0.50386198  0.83767373  1
  Ni  Ni42  1  0.50461308  0.83811278  0.50531695  1
  Ni  Ni43  1  0.33847932  0.67249175  0.67034392  1
  Fe  Fe44  1  0.50402469  0.83776026  0.83761676  1
  Ni  Ni45  1  0.83839351  0.17164202  0.50426125  1
  Fe  Fe46  1  0.67162192  1.00390209  0.67048853  1
  Ni  Ni47  1  0.83761300  0.17086186  0.83781567  1
  Ni  Ni48  1  0.83805986  0.50490865  0.50574999  1
  Fe  Fe49  1  0.67123596  0.33848385  0.67181737  1
  Fe  Fe50  1  0.83815911  0.50435221  0.83769102  1
  Ni  Ni51  1  0.83761927  0.83732900  0.50411207  1
  Ni  Ni52  1  0.67180145  0.67138607  0.67097339  1
  Ni  Ni53  1  0.83916270  0.83839213  0.83839969  1
" 