7877,Ni43Fe27Cr29_16,-228.892128958824, 188.942880827444,Ni43Fe27Cr29,"# generated using pymatgen
 data_Cr17Fe14Ni23
_symmetry_space_group_name_H-M   'P 1'
_cell_length_a   7.46727275
_cell_length_b   7.46727275
_cell_length_c   10.56031840
_cell_angle_alpha   90.00000000
_cell_angle_beta   90.00000000
_cell_angle_gamma   90.00000000
_symmetry_Int_Tables_number   1
_chemical_formula_structural   Cr17Fe14Ni23
_chemical_formula_sum   'Cr17 Fe14 Ni23'
_cell_volume   588.84506806
_cell_formula_units_Z   1
loop_
 _symmetry_equiv_pos_site_id
 _symmetry_equiv_pos_as_xyz
  1  'x, y, z'
loop_
 _atom_site_type_symbol
 _atom_site_label
 _atom_site_symmetry_multiplicity
 _atom_site_fract_x
 _atom_site_fract_y
 _atom_site_fract_z
 _atom_site_occupancy
  Cr  Cr0  1  0.99915300  0.00104863  0.00103395  1
  Cr  Cr1  1  0.16820456  0.17234796  0.16703607  1
  Cr  Cr2  1  0.99957707  0.00446123  0.33630093  1
  Ni  Ni3  1  0.00009946  0.33107876  0.99982506  1
  Ni  Ni4  1  0.16629693  0.49782906  0.16684378  1
  Ni  Ni5  1  0.99748158  0.33410146  0.33623366  1
  Fe  Fe6  1  0.00235585  0.66247095  0.99967729  1
  Cr  Cr7  1  0.16791963  0.83132430  0.16610787  1
  Ni  Ni8  1  0.99962444  0.66452422  0.33471419  1
  Ni  Ni9  1  0.33289151  0.00162755  0.99627985  1
  Cr  Cr10  1  0.50017630  0.16693275  0.16605462  1
  Cr  Cr11  1  0.33323750  0.00044965  0.33832275  1
  Ni  Ni12  1  0.33403308  0.33328214  0.99828778  1
  Ni  Ni13  1  0.50047501  0.49860326  0.16665077  1
  Fe  Fe14  1  0.33384525  0.33577637  0.33549783  1
  Cr  Cr15  1  0.33529122  0.66538382  0.99977483  1
  Ni  Ni16  1  0.50383729  0.83547873  0.16706018  1
  Cr  Cr17  1  0.33620488  0.66526523  0.33507789  1
  Fe  Fe18  1  0.66415449  0.00273440  0.00110993  1
  Fe  Fe19  1  0.83125642  0.16910668  0.16805621  1
  Fe  Fe20  1  0.66673455  0.00064438  0.33509728  1
  Ni  Ni21  1  0.66551568  0.33258792  0.99867064  1
  Cr  Cr22  1  0.83616407  0.49872913  0.16787563  1
  Ni  Ni23  1  0.66660152  0.33424784  0.33611829  1
  Cr  Cr24  1  0.66561186  0.66443862  0.00075602  1
  Fe  Fe25  1  0.83151232  0.83200457  0.16977954  1
  Ni  Ni26  1  0.66487649  0.66366238  0.33449597  1
  Ni  Ni27  1  0.16719698  0.17045705  0.50244870  1
  Ni  Ni28  1  0.00211760  0.00445330  0.66505509  1
  Fe  Fe29  1  0.16728471  0.16809238  0.83188542  1
  Ni  Ni30  1  0.16488204  0.49695728  0.49693080  1
  Ni  Ni31  1  0.00033995  0.32980907  0.66425559  1
  Ni  Ni32  1  0.16699782  0.49537750  0.83596453  1
  Ni  Ni33  1  0.16741055  0.83412329  0.50271973  1
  Cr  Cr34  1  0.00166342  0.66436372  0.66581240  1
  Fe  Fe35  1  0.16577174  0.83361990  0.83168731  1
  Ni  Ni36  1  0.50001890  0.16785035  0.50197270  1
  Fe  Fe37  1  0.33227954  0.00228391  0.66427309  1
  Fe  Fe38  1  0.49737913  0.17107121  0.83226903  1
  Ni  Ni39  1  0.50119153  0.49796811  0.50042390  1
  Fe  Fe40  1  0.33112451  0.33399610  0.66606886  1
  Fe  Fe41  1  0.50010556  0.49680565  0.83164303  1
  Ni  Ni42  1  0.50135669  0.83474895  0.50068460  1
  Cr  Cr43  1  0.33514367  0.66473971  0.66447080  1
  Cr  Cr44  1  0.49985102  0.83824964  0.83050312  1
  Ni  Ni45  1  0.83238717  0.16935391  0.50040526  1
  Fe  Fe46  1  0.66768098  0.00156038  0.66357090  1
  Cr  Cr47  1  0.83096890  0.16788143  0.83208627  1
  Ni  Ni48  1  0.83295578  0.49723638  0.50081760  1
  Fe  Fe49  1  0.66636900  0.33328339  0.66378132  1
  Cr  Cr50  1  0.83509631  0.49820679  0.83042631  1
  Cr  Cr51  1  0.83242643  0.83033050  0.50050305  1
  Ni  Ni52  1  0.66328811  0.66380919  0.66408174  1
  Cr  Cr53  1  0.83276595  0.83241486  0.83170599  1
" 