5569,Ni43Fe34Cr21_4,-231.093246737491, 192.897663183544,Ni43Fe34Cr21,"# generated using pymatgen
 data_Cr13Fe18Ni23
_symmetry_space_group_name_H-M   'P 1'
_cell_length_a   7.44547183
_cell_length_b   7.44547183
_cell_length_c   10.52948725
_cell_angle_alpha   90.00000000
_cell_angle_beta   90.00000000
_cell_angle_gamma   90.00000000
_symmetry_Int_Tables_number   1
_chemical_formula_structural   Cr13Fe18Ni23
_chemical_formula_sum   'Cr13 Fe18 Ni23'
_cell_volume   583.70266057
_cell_formula_units_Z   1
loop_
 _symmetry_equiv_pos_site_id
 _symmetry_equiv_pos_as_xyz
  1  'x, y, z'
loop_
 _atom_site_type_symbol
 _atom_site_label
 _atom_site_symmetry_multiplicity
 _atom_site_fract_x
 _atom_site_fract_y
 _atom_site_fract_z
 _atom_site_occupancy
  Ni  Ni0  1  0.99963585  0.00254380  0.99935743  1
  Cr  Cr1  1  0.16606708  0.17267533  0.16776799  1
  Ni  Ni2  1  0.99864596  1.00137249  0.33656410  1
  Ni  Ni3  1  0.00262339  0.33699847  0.99925619  1
  Ni  Ni4  1  0.16902584  0.50125079  0.16907126  1
  Ni  Ni5  1  0.00204794  0.33680659  0.33719310  1
  Fe  Fe6  1  1.00084284  0.66562469  0.00218388  1
  Cr  Cr7  1  0.16606886  0.83166826  0.16755600  1
  Ni  Ni8  1  0.99936156  0.66629865  0.33493928  1
  Cr  Cr9  1  0.33603822  0.00440214  0.00163873  1
  Ni  Ni10  1  0.50238843  0.17110207  0.16830609  1
  Cr  Cr11  1  0.33630948  0.00458019  0.33265379  1
  Ni  Ni12  1  0.33493724  0.33656962  1.00112052  1
  Ni  Ni13  1  0.49902635  0.50083788  0.16777553  1
  Ni  Ni14  1  0.33486278  0.33757786  0.33641109  1
  Fe  Fe15  1  0.33450890  0.66486398  0.00215080  1
  Ni  Ni16  1  0.50294943  0.83168330  0.16991617  1
  Ni  Ni17  1  0.33641923  0.66468496  0.33298748  1
  Cr  Cr18  1  0.66739639  1.00025747  0.00241604  1
  Cr  Cr19  1  0.83588686  0.16905726  0.16740657  1
  Fe  Fe20  1  0.66953875  1.00090456  0.33429588  1
  Fe  Fe21  1  0.66692465  0.33397254  1.00111248  1
  Fe  Fe22  1  0.83711328  0.50237218  0.16871352  1
  Cr  Cr23  1  0.66693118  0.33662295  0.33291508  1
  Cr  Cr24  1  0.66779012  0.66555950  0.00202534  1
  Ni  Ni25  1  0.83465756  0.83401053  0.17068366  1
  Fe  Fe26  1  0.66934406  0.66756405  0.33440609  1
  Fe  Fe27  1  0.16621935  0.17029510  0.50085118  1
  Cr  Cr28  1  1.00120784  0.00451068  0.66837492  1
  Ni  Ni29  1  0.16789632  0.17130815  0.83462111  1
  Fe  Fe30  1  0.16785484  0.50031430  0.50091752  1
  Ni  Ni31  1  0.00178692  0.33417184  0.66738004  1
  Ni  Ni32  1  0.16894595  0.49995080  0.83510904  1
  Cr  Cr33  1  0.16874344  0.83154232  0.49983703  1
  Cr  Cr34  1  0.99906024  0.66461578  0.66824283  1
  Cr  Cr35  1  0.16929821  0.83211547  0.83687440  1
  Fe  Fe36  1  0.50309121  0.16974392  0.50284224  1
  Fe  Fe37  1  0.33596595  0.00296595  0.66944639  1
  Ni  Ni38  1  0.50323418  0.17058830  0.83272254  1
  Fe  Fe39  1  0.50211006  0.50129179  0.50183120  1
  Fe  Fe40  1  0.33372271  0.33601521  0.66864557  1
  Fe  Fe41  1  0.50053113  0.49901549  0.83456142  1
  Cr  Cr42  1  0.50213431  0.83312922  0.50191407  1
  Ni  Ni43  1  0.33813876  0.66524470  0.67009888  1
  Fe  Fe44  1  0.50234486  0.83527461  0.83250658  1
  Ni  Ni45  1  0.83375545  0.16973343  0.50135547  1
  Fe  Fe46  1  0.66881789  0.00191703  0.66882082  1
  Ni  Ni47  1  0.83359128  0.17087252  0.83490032  1
  Ni  Ni48  1  0.83413230  0.50023761  0.50142842  1
  Fe  Fe49  1  0.66978868  0.33619189  0.66738994  1
  Fe  Fe50  1  0.83502548  0.49779372  0.83364652  1
  Ni  Ni51  1  0.83298617  0.83463404  0.50029595  1
  Ni  Ni52  1  0.66679123  0.66711564  0.66821865  1
  Fe  Fe53  1  0.83372464  0.83579004  0.83458452  1
" 