4688,Ni43Fe57_14,-242.458999955553, 227.573510585001,Ni43Fe57,"# generated using pymatgen
 data_Fe23Ni31
_symmetry_space_group_name_H-M   'P 1'
_cell_length_a   7.40386083
_cell_length_b   7.40386083
_cell_length_c   10.47064040
_cell_angle_alpha   90.00000000
_cell_angle_beta   90.00000000
_cell_angle_gamma   90.00000000
_symmetry_Int_Tables_number   1
_chemical_formula_structural   Fe23Ni31
_chemical_formula_sum   'Fe23 Ni31'
_cell_volume   573.97072017
_cell_formula_units_Z   1
loop_
 _symmetry_equiv_pos_site_id
 _symmetry_equiv_pos_as_xyz
  1  'x, y, z'
loop_
 _atom_site_type_symbol
 _atom_site_label
 _atom_site_symmetry_multiplicity
 _atom_site_fract_x
 _atom_site_fract_y
 _atom_site_fract_z
 _atom_site_occupancy
  Fe  Fe0  1  0.00559538  1.00342447  1.00353659  1
  Ni  Ni1  1  0.16953571  0.17077716  0.17116188  1
  Fe  Fe2  1  1.00225448  1.00379286  0.33802003  1
  Fe  Fe3  1  0.00482548  0.33779946  1.00416069  1
  Ni  Ni4  1  0.17154243  0.50389759  0.17148287  1
  Fe  Fe5  1  1.00301287  0.33649121  0.33778897  1
  Fe  Fe6  1  0.00553899  0.67136968  0.00446785  1
  Ni  Ni7  1  0.17266920  0.83818859  0.17241997  1
  Ni  Ni8  1  1.00417984  0.66939719  0.33645219  1
  Ni  Ni9  1  0.33770656  1.00418170  1.00399409  1
  Fe  Fe10  1  0.50322574  0.17160927  0.17035766  1
  Ni  Ni11  1  0.33795085  0.00566049  0.33702167  1
  Fe  Fe12  1  0.33761591  0.33788120  1.00393980  1
  Ni  Ni13  1  0.50404644  0.50547249  0.17051816  1
  Fe  Fe14  1  0.33904193  0.33869122  0.33810676  1
  Ni  Ni15  1  0.33692066  0.67194051  1.00422628  1
  Ni  Ni16  1  0.50315501  0.83684769  0.17106677  1
  Fe  Fe17  1  0.33987344  0.67152630  0.33676964  1
  Fe  Fe18  1  0.66979026  1.00365953  1.00343700  1
  Ni  Ni19  1  0.83831303  0.17120129  0.17063807  1
  Ni  Ni20  1  0.66886423  0.00473376  0.33613467  1
  Fe  Fe21  1  0.67037500  0.33759865  0.00484733  1
  Ni  Ni22  1  0.83746113  0.50194405  0.17170906  1
  Ni  Ni23  1  0.67061807  0.33766389  0.33811224  1
  Fe  Fe24  1  0.66990142  0.67140929  1.00381201  1
  Fe  Fe25  1  0.83838835  0.83667605  0.17137764  1
  Ni  Ni26  1  0.67248076  0.67042557  0.33625644  1
  Fe  Fe27  1  0.17208693  0.16999776  0.50457593  1
  Ni  Ni28  1  0.00445946  1.00420599  0.67150066  1
  Fe  Fe29  1  0.17044430  0.16931994  0.83767410  1
  Fe  Fe30  1  0.16989764  0.50518269  0.50442033  1
  Ni  Ni31  1  0.00558139  0.33840175  0.67075761  1
  Fe  Fe32  1  0.17056207  0.50476587  0.83795591  1
  Fe  Fe33  1  0.17029855  0.83768295  0.50439933  1
  Ni  Ni34  1  1.00242122  0.67043452  0.67193337  1
  Ni  Ni35  1  0.17196628  0.83728267  0.83594694  1
  Fe  Fe36  1  0.50578695  0.16966297  0.50503685  1
  Ni  Ni37  1  0.33809097  0.00580345  0.67152310  1
  Ni  Ni38  1  0.50481890  0.17097754  0.83687514  1
  Ni  Ni39  1  0.50319351  0.50536727  0.50553899  1
  Ni  Ni40  1  0.33682982  0.33674387  0.67237343  1
  Fe  Fe41  1  0.50557159  0.50509775  0.83735742  1
  Ni  Ni42  1  0.50398596  0.83606953  0.50491077  1
  Fe  Fe43  1  0.33697766  0.67141134  0.67150445  1
  Ni  Ni44  1  0.50270936  0.83782708  0.83612918  1
  Ni  Ni45  1  0.83882538  0.17099831  0.50555929  1
  Ni  Ni46  1  0.67051756  1.00282977  0.67169639  1
  Ni  Ni47  1  0.83762519  0.17181797  0.83649796  1
  Fe  Fe48  1  0.83604158  0.50613401  0.50417988  1
  Fe  Fe49  1  0.67152897  0.33668838  0.67012387  1
  Ni  Ni50  1  0.83798188  0.50277569  0.83643740  1
  Ni  Ni51  1  0.83681896  0.83929099  0.50416560  1
  Ni  Ni52  1  0.67240342  0.67142859  0.67170890  1
  Ni  Ni53  1  0.83811745  0.83796630  0.83782703  1
" 