6953,Ni43Fe27Cr29_11,-228.042155160005, 181.58778120334,Ni43Fe27Cr29,"# generated using pymatgen
 data_Cr17Fe14Ni23
_symmetry_space_group_name_H-M   'P 1'
_cell_length_a   7.46014172
_cell_length_b   7.46014172
_cell_length_c   10.55023360
_cell_angle_alpha   90.00000000
_cell_angle_beta   90.00000000
_cell_angle_gamma   90.00000000
_symmetry_Int_Tables_number   1
_chemical_formula_structural   Cr17Fe14Ni23
_chemical_formula_sum   'Cr17 Fe14 Ni23'
_cell_volume   587.15968817
_cell_formula_units_Z   1
loop_
 _symmetry_equiv_pos_site_id
 _symmetry_equiv_pos_as_xyz
  1  'x, y, z'
loop_
 _atom_site_type_symbol
 _atom_site_label
 _atom_site_symmetry_multiplicity
 _atom_site_fract_x
 _atom_site_fract_y
 _atom_site_fract_z
 _atom_site_occupancy
  Fe  Fe0  1  1.00021421  0.99912759  0.99889134  1
  Cr  Cr1  1  0.16614986  0.16525627  0.16442179  1
  Ni  Ni2  1  0.00067986  0.99808702  0.33413804  1
  Fe  Fe3  1  0.99794197  0.33403034  0.99812743  1
  Cr  Cr4  1  0.16702859  0.50284278  0.16822239  1
  Cr  Cr5  1  0.99954004  0.33501555  0.33513743  1
  Cr  Cr6  1  0.99782269  0.66702218  0.00164781  1
  Ni  Ni7  1  0.16839993  0.83420123  0.16643136  1
  Ni  Ni8  1  0.00179796  0.67012425  0.33366671  1
  Ni  Ni9  1  0.33329849  0.99937202  0.99854367  1
  Fe  Fe10  1  0.50068014  0.16693821  0.16653420  1
  Cr  Cr11  1  0.33210343  0.99960540  0.33365795  1
  Cr  Cr12  1  0.33508136  0.33384982  0.99874438  1
  Ni  Ni13  1  0.50239448  0.50293570  0.16479105  1
  Cr  Cr14  1  0.33565004  0.33624152  0.33658963  1
  Fe  Fe15  1  0.33583755  0.66948540  0.99998447  1
  Ni  Ni16  1  0.49947325  0.83235085  0.16592337  1
  Ni  Ni17  1  0.33272714  0.66709149  0.33255349  1
  Cr  Cr18  1  0.66669766  0.99868952  0.00074293  1
  Cr  Cr19  1  0.83416318  0.16824064  0.16744832  1
  Fe  Fe20  1  0.66884071  0.00052129  0.33191215  1
  Fe  Fe21  1  0.66825124  0.33553142  0.99885624  1
  Ni  Ni22  1  0.83122900  0.50103379  0.16543753  1
  Ni  Ni23  1  0.66629624  0.33436617  0.33159784  1
  Ni  Ni24  1  0.66782993  0.66573248  0.99861837  1
  Ni  Ni25  1  0.83401271  0.83343164  0.16762236  1
  Cr  Cr26  1  0.66767646  0.66482644  0.33225834  1
  Ni  Ni27  1  0.16340974  0.16692141  0.50371254  1
  Ni  Ni28  1  0.00053255  0.00106262  0.66880375  1
  Fe  Fe29  1  0.16547335  0.16763282  0.83422923  1
  Ni  Ni30  1  0.16761005  0.50201217  0.50105663  1
  Fe  Fe31  1  0.00083650  0.33235583  0.66808339  1
  Ni  Ni32  1  0.16559668  0.49997723  0.83305786  1
  Ni  Ni33  1  0.16522651  0.83256831  0.49959093  1
  Fe  Fe34  1  1.00041562  0.66727629  0.66839494  1
  Fe  Fe35  1  0.16580802  0.83430806  0.83486483  1
  Cr  Cr36  1  0.50411073  0.16839692  0.49946337  1
  Cr  Cr37  1  0.33145030  0.00177880  0.66806194  1
  Ni  Ni38  1  0.50148999  0.16643163  0.83449293  1
  Ni  Ni39  1  0.49995561  0.49983438  0.50288153  1
  Fe  Fe40  1  0.33320325  0.33319183  0.66806291  1
  Fe  Fe41  1  0.50286574  0.49958810  0.83367618  1
  Cr  Cr42  1  0.50025658  0.83089587  0.49916888  1
  Cr  Cr43  1  0.33275799  0.66559342  0.66769692  1
  Ni  Ni44  1  0.49966225  0.83307955  0.83535288  1
  Ni  Ni45  1  0.83555467  0.16752454  0.50030723  1
  Cr  Cr46  1  0.66925765  0.00208754  0.66778709  1
  Ni  Ni47  1  0.83491879  0.16880357  0.83353602  1
  Cr  Cr48  1  0.83318831  0.49955917  0.50206631  1
  Ni  Ni49  1  0.66765376  0.33493543  0.66923441  1
  Ni  Ni50  1  0.83490701  0.49883401  0.83350805  1
  Cr  Cr51  1  0.83531751  0.83528568  0.50122327  1
  Fe  Fe52  1  0.66791020  0.66615754  0.67065319  1
  Fe  Fe53  1  0.83380658  0.83295032  0.83352625  1
" 