8114,Ni43Fe5Cr50_2,-218.875059772643, 142.446373589224,Ni43Fe5Cr50,"# generated using pymatgen
 data_Cr28Fe3Ni23
_symmetry_space_group_name_H-M   'P 1'
_cell_length_a   7.52639395
_cell_length_b   7.52639395
_cell_length_c   10.64392840
_cell_angle_alpha   90.00000000
_cell_angle_beta   90.00000000
_cell_angle_gamma   90.00000000
_symmetry_Int_Tables_number   1
_chemical_formula_structural   Cr28Fe3Ni23
_chemical_formula_sum   'Cr28 Fe3 Ni23'
_cell_volume   602.94241770
_cell_formula_units_Z   1
loop_
 _symmetry_equiv_pos_site_id
 _symmetry_equiv_pos_as_xyz
  1  'x, y, z'
loop_
 _atom_site_type_symbol
 _atom_site_label
 _atom_site_symmetry_multiplicity
 _atom_site_fract_x
 _atom_site_fract_y
 _atom_site_fract_z
 _atom_site_occupancy
  Cr  Cr0  1  -0.00368521  0.99559815  -0.00041887  1
  Ni  Ni1  1  0.16246745  0.15878363  0.16307273  1
  Ni  Ni2  1  0.99483182  0.99459341  0.32762813  1
  Cr  Cr3  1  -0.00104285  0.32881706  -0.00286060  1
  Cr  Cr4  1  0.16821451  0.49864220  0.16111874  1
  Cr  Cr5  1  0.99584997  0.32824003  0.32871542  1
  Cr  Cr6  1  -0.00363953  0.66377545  -0.00179899  1
  Ni  Ni7  1  0.16302502  0.83036164  0.16383365  1
  Cr  Cr8  1  0.99412858  0.66521732  0.32776911  1
  Cr  Cr9  1  0.33066319  0.99435117  0.99513645  1
  Cr  Cr10  1  0.49838230  0.16275557  0.16261349  1
  Cr  Cr11  1  0.32898231  0.99322461  0.32963908  1
  Ni  Ni12  1  0.32924846  0.32963341  0.99268943  1
  Cr  Cr13  1  0.49503101  0.49843110  0.16283088  1
  Cr  Cr14  1  0.32688071  0.32791675  0.32985837  1
  Ni  Ni15  1  0.33243177  0.66261680  0.99529682  1
  Fe  Fe16  1  0.49708840  0.82909999  0.16253966  1
  Ni  Ni17  1  0.33258035  0.66719330  0.32782420  1
  Ni  Ni18  1  0.66087622  0.99224867  -0.00271783  1
  Ni  Ni19  1  0.82898267  0.15544312  0.16400792  1
  Ni  Ni20  1  0.66508555  0.99020690  0.32817291  1
  Cr  Cr21  1  0.66217136  0.32900072  0.99369209  1
  Cr  Cr22  1  0.82504576  0.49838680  0.16238526  1
  Cr  Cr23  1  0.66641026  0.33101904  0.33169941  1
  Ni  Ni24  1  0.65847827  0.66711240  0.99603473  1
  Ni  Ni25  1  0.82707227  0.83225207  0.16340919  1
  Ni  Ni26  1  0.66164147  0.66915925  0.33069453  1
  Ni  Ni27  1  0.16094493  0.15895710  0.49613003  1
  Ni  Ni28  1  -0.00323790  0.99458949  0.66127120  1
  Ni  Ni29  1  0.16569265  0.16294664  0.82890024  1
  Cr  Cr30  1  0.16422310  0.49948168  0.49644318  1
  Cr  Cr31  1  -0.00285449  0.33080837  0.66252929  1
  Ni  Ni32  1  0.16872730  0.49779717  0.82931462  1
  Cr  Cr33  1  0.16070625  0.82933759  0.49787165  1
  Ni  Ni34  1  0.99514928  0.66393315  0.66165622  1
  Cr  Cr35  1  0.16117816  0.82715246  0.82669605  1
  Cr  Cr36  1  0.49615485  0.16066304  0.49401050  1
  Cr  Cr37  1  0.32964262  0.99507827  0.66386476  1
  Ni  Ni38  1  0.49447267  0.16362948  0.83185319  1
  Cr  Cr39  1  0.49579108  0.49945521  0.49375892  1
  Cr  Cr40  1  0.32952081  0.32785413  0.66468488  1
  Ni  Ni41  1  0.49340084  0.49870845  0.83055152  1
  Fe  Fe42  1  0.49760037  0.82723172  0.49548015  1
  Ni  Ni43  1  0.33193654  0.66297393  0.66463762  1
  Fe  Fe44  1  0.49584311  0.82663319  0.83033269  1
  Cr  Cr45  1  0.83002922  0.15743165  0.49553835  1
  Cr  Cr46  1  0.65968658  0.99247297  0.66375208  1
  Cr  Cr47  1  0.82891577  0.15786543  0.83020129  1
  Ni  Ni48  1  0.82718849  0.50312735  0.49728583  1
  Cr  Cr49  1  0.66182219  0.33207319  0.66306459  1
  Cr  Cr50  1  0.82869651  0.50072688  0.82824896  1
  Ni  Ni51  1  0.82826325  0.82795939  0.49653149  1
  Ni  Ni52  1  0.66151321  0.66457521  0.66135210  1
  Cr  Cr53  1  0.82889291  0.82955870  0.82827508  1
" 