2882,Ni43Fe5Cr50_6,-219.093211576611, 151.10075432654,Ni43Fe5Cr50,"# generated using pymatgen
 data_Cr28Fe3Ni23
_symmetry_space_group_name_H-M   'P 1'
_cell_length_a   7.51474375
_cell_length_b   7.51474375
_cell_length_c   10.62745253
_cell_angle_alpha   90.00000000
_cell_angle_beta   90.00000000
_cell_angle_gamma   90.00000000
_symmetry_Int_Tables_number   1
_chemical_formula_structural   Cr28Fe3Ni23
_chemical_formula_sum   'Cr28 Fe3 Ni23'
_cell_volume   600.14684311
_cell_formula_units_Z   1
loop_
 _symmetry_equiv_pos_site_id
 _symmetry_equiv_pos_as_xyz
  1  'x, y, z'
loop_
 _atom_site_type_symbol
 _atom_site_label
 _atom_site_symmetry_multiplicity
 _atom_site_fract_x
 _atom_site_fract_y
 _atom_site_fract_z
 _atom_site_occupancy
  Cr  Cr0  1  0.99640801  -0.00305563  -0.00229586  1
  Cr  Cr1  1  0.16368014  0.16320019  0.16466180  1
  Ni  Ni2  1  -0.00307494  0.99672294  0.32988527  1
  Cr  Cr3  1  -0.00212826  0.32969564  0.99674456  1
  Cr  Cr4  1  0.16434958  0.50033793  0.16565800  1
  Ni  Ni5  1  -0.00203414  0.32845465  0.33099707  1
  Cr  Cr6  1  0.99654030  0.66381007  0.99382855  1
  Ni  Ni7  1  0.16245756  0.82954009  0.16706040  1
  Ni  Ni8  1  0.99514829  0.66518287  0.33023378  1
  Cr  Cr9  1  0.32865712  -0.00103368  -0.00286647  1
  Ni  Ni10  1  0.49821755  0.16538534  0.16086332  1
  Cr  Cr11  1  0.33079522  -0.00097682  0.33188258  1
  Ni  Ni12  1  0.33116599  0.33031919  0.99420481  1
  Cr  Cr13  1  0.49644089  0.49674279  0.16299811  1
  Cr  Cr14  1  0.33157115  0.32817500  0.33337229  1
  Cr  Cr15  1  0.32894822  0.66183807  0.99358495  1
  Cr  Cr16  1  0.49348774  0.82945551  0.16478334  1
  Fe  Fe17  1  0.33130405  0.66367433  0.33252114  1
  Cr  Cr18  1  0.66506295  0.99681865  -0.00267202  1
  Ni  Ni19  1  0.82939973  0.16418782  0.16487584  1
  Cr  Cr20  1  0.66340397  -0.00212622  0.33169299  1
  Ni  Ni21  1  0.66077649  0.32963744  -0.00116184  1
  Cr  Cr22  1  0.82992949  0.49523892  0.16624154  1
  Cr  Cr23  1  0.66292900  0.32959818  0.33005314  1
  Cr  Cr24  1  0.66463016  0.66252292  0.99203129  1
  Cr  Cr25  1  0.83136911  0.82989911  0.16606969  1
  Ni  Ni26  1  0.66394791  0.66439674  0.33467428  1
  Fe  Fe27  1  0.16255142  0.16335363  0.49873058  1
  Ni  Ni28  1  0.99586636  0.99587152  0.66317583  1
  Ni  Ni29  1  0.16334564  0.16740256  0.82647234  1
  Cr  Cr30  1  0.16250434  0.49672099  0.49711999  1
  Fe  Fe31  1  -0.00163775  0.32981336  0.66349826  1
  Ni  Ni32  1  0.16541186  0.49298889  0.82780205  1
  Cr  Cr33  1  0.16067666  0.82982151  0.49410256  1
  Ni  Ni34  1  0.99617722  0.66520459  0.66512051  1
  Cr  Cr35  1  0.16307389  0.83186110  0.82932904  1
  Ni  Ni36  1  0.49788084  0.16436268  0.50039162  1
  Cr  Cr37  1  0.33116204  -0.00079585  0.66189240  1
  Cr  Cr38  1  0.49750698  0.16411169  0.83078540  1
  Ni  Ni39  1  0.49638538  0.49575587  0.49709770  1
  Ni  Ni40  1  0.33041439  0.32995726  0.66363960  1
  Ni  Ni41  1  0.49482850  0.49316050  0.82986809  1
  Ni  Ni42  1  0.49898765  0.83042796  0.49621050  1
  Cr  Cr43  1  0.33154074  0.66054828  0.66415507  1
  Ni  Ni44  1  0.49945547  0.83006881  0.82843423  1
  Cr  Cr45  1  0.83166328  0.16217540  0.49954711  1
  Ni  Ni46  1  0.66482969  0.99611161  0.66196910  1
  Cr  Cr47  1  0.82890990  0.16245943  0.82775219  1
  Cr  Cr48  1  0.83119874  0.49755622  0.49639098  1
  Ni  Ni49  1  0.65843436  0.33007273  0.66224341  1
  Cr  Cr50  1  0.82927125  0.49407353  0.82750667  1
  Ni  Ni51  1  0.83123498  0.83131149  0.49755184  1
  Cr  Cr52  1  0.66354647  0.66438442  0.66273168  1
  Ni  Ni53  1  0.83002717  0.83220853  0.82518948  1
" 