1546,Ni43Fe57_7,-242.521780727531, 226.910536021279,Ni43Fe57,"# generated using pymatgen
 data_Fe23Ni31
_symmetry_space_group_name_H-M   'P 1'
_cell_length_a   7.40482477
_cell_length_b   7.40482477
_cell_length_c   10.47200362
_cell_angle_alpha   90.00000000
_cell_angle_beta   90.00000000
_cell_angle_gamma   90.00000000
_symmetry_Int_Tables_number   1
_chemical_formula_structural   Fe23Ni31
_chemical_formula_sum   'Fe23 Ni31'
_cell_volume   574.19493233
_cell_formula_units_Z   1
loop_
 _symmetry_equiv_pos_site_id
 _symmetry_equiv_pos_as_xyz
  1  'x, y, z'
loop_
 _atom_site_type_symbol
 _atom_site_label
 _atom_site_symmetry_multiplicity
 _atom_site_fract_x
 _atom_site_fract_y
 _atom_site_fract_z
 _atom_site_occupancy
  Fe  Fe0  1  0.00510959  0.00569857  0.00453381  1
  Ni  Ni1  1  0.17033340  0.17216164  0.17178569  1
  Ni  Ni2  1  1.00309754  0.00433238  0.33754394  1
  Ni  Ni3  1  0.00421989  0.33752625  1.00418872  1
  Ni  Ni4  1  0.16979052  0.50382769  0.17116394  1
  Ni  Ni5  1  0.00422321  0.33757280  0.33735741  1
  Fe  Fe6  1  1.00394126  0.66981294  1.00407159  1
  Fe  Fe7  1  0.17253672  0.83853650  0.17071299  1
  Fe  Fe8  1  0.00493766  0.67008709  0.33784441  1
  Fe  Fe9  1  0.33863189  0.00593087  0.00486230  1
  Ni  Ni10  1  0.50461455  0.16972447  0.17120791  1
  Ni  Ni11  1  0.33771519  1.00267474  0.33730483  1
  Ni  Ni12  1  0.33639290  0.33998412  0.00442201  1
  Fe  Fe13  1  0.50327793  0.50185012  0.17043595  1
  Ni  Ni14  1  0.33644162  0.33905401  0.33678983  1
  Ni  Ni15  1  0.33677351  0.67190133  1.00361722  1
  Ni  Ni16  1  0.50614982  0.83632781  0.17063228  1
  Ni  Ni17  1  0.33685799  0.67027663  0.33756319  1
  Ni  Ni18  1  0.67227717  1.00275195  0.00438133  1
  Ni  Ni19  1  0.83786673  0.17085406  0.17120299  1
  Ni  Ni20  1  0.67197539  1.00339524  0.33808822  1
  Ni  Ni21  1  0.67204372  0.33503569  1.00276363  1
  Fe  Fe22  1  0.83673483  0.50144221  0.17141135  1
  Ni  Ni23  1  0.67188425  0.33629072  0.33769280  1
  Fe  Fe24  1  0.66988413  0.66894357  1.00297067  1
  Fe  Fe25  1  0.83793748  0.83923385  0.17017315  1
  Fe  Fe26  1  0.67031689  0.67072390  0.33848143  1
  Ni  Ni27  1  0.17054111  0.17054941  0.50229102  1
  Fe  Fe28  1  0.00540890  0.00427677  0.67072158  1
  Ni  Ni29  1  0.17011146  0.17160938  0.83852572  1
  Ni  Ni30  1  0.17045266  0.50241573  0.50509084  1
  Ni  Ni31  1  0.00463032  0.33663670  0.67157235  1
  Fe  Fe32  1  0.17186415  0.50587457  0.83791474  1
  Fe  Fe33  1  0.17121979  0.83563704  0.50418217  1
  Fe  Fe34  1  1.00366772  0.67033554  0.67109444  1
  Ni  Ni35  1  0.17062817  0.83949992  0.83763127  1
  Fe  Fe36  1  0.50323101  0.17324089  0.50293638  1
  Fe  Fe37  1  0.33774651  0.00522539  0.67061501  1
  Fe  Fe38  1  0.50329563  0.16948031  0.83825367  1
  Ni  Ni39  1  0.50448420  0.50537421  0.50300276  1
  Ni  Ni40  1  0.33541242  0.33963912  0.67148458  1
  Ni  Ni41  1  0.50523678  0.50428298  0.83784732  1
  Fe  Fe42  1  0.50330971  0.83677890  0.50414154  1
  Ni  Ni43  1  0.33774451  0.67033138  0.67129073  1
  Ni  Ni44  1  0.50449232  0.83644886  0.83724497  1
  Fe  Fe45  1  0.83812120  0.17323084  0.50351348  1
  Ni  Ni46  1  0.67234024  1.00362707  0.67022366  1
  Fe  Fe47  1  0.83722955  0.16928899  0.83809505  1
  Ni  Ni48  1  0.83713542  0.50509221  0.50461862  1
  Fe  Fe49  1  0.66918771  0.33968324  0.67043804  1
  Fe  Fe50  1  0.83831861  0.50466891  0.83632419  1
  Fe  Fe51  1  0.83816861  0.83698626  0.50513431  1
  Ni  Ni52  1  0.66946742  0.67325330  0.67138963  1
  Ni  Ni53  1  0.83746943  0.83746228  0.83809970  1
" 