7802,Ni43Fe27Cr29_9,-228.29162559098, 192.444036053456,Ni43Fe27Cr29,"# generated using pymatgen
 data_Cr17Fe14Ni23
_symmetry_space_group_name_H-M   'P 1'
_cell_length_a   7.45913494
_cell_length_b   7.45913494
_cell_length_c   10.54880979
_cell_angle_alpha   90.00000000
_cell_angle_beta   90.00000000
_cell_angle_gamma   90.00000000
_symmetry_Int_Tables_number   1
_chemical_formula_structural   Cr17Fe14Ni23
_chemical_formula_sum   'Cr17 Fe14 Ni23'
_cell_volume   586.92200062
_cell_formula_units_Z   1
loop_
 _symmetry_equiv_pos_site_id
 _symmetry_equiv_pos_as_xyz
  1  'x, y, z'
loop_
 _atom_site_type_symbol
 _atom_site_label
 _atom_site_symmetry_multiplicity
 _atom_site_fract_x
 _atom_site_fract_y
 _atom_site_fract_z
 _atom_site_occupancy
  Ni  Ni0  1  0.00120444  0.00190816  0.00208958  1
  Cr  Cr1  1  0.16538754  0.16987551  0.16611969  1
  Fe  Fe2  1  0.99852995  0.00226020  0.33669827  1
  Ni  Ni3  1  1.00000853  0.33469937  0.99953688  1
  Ni  Ni4  1  0.16955268  0.49956138  0.16741608  1
  Cr  Cr5  1  0.99835549  0.33479086  0.33655203  1
  Cr  Cr6  1  0.00127663  0.66394735  0.99946652  1
  Fe  Fe7  1  0.16994593  0.83286791  0.16858449  1
  Cr  Cr8  1  0.00204912  0.66708630  0.33566180  1
  Cr  Cr9  1  0.33420861  0.99890053  0.99766345  1
  Cr  Cr10  1  0.50102435  0.16839477  0.16751609  1
  Cr  Cr11  1  0.33460073  0.99892528  0.33585866  1
  Fe  Fe12  1  0.33178404  0.33612479  0.99986258  1
  Ni  Ni13  1  0.49784289  0.50125716  0.16861983  1
  Ni  Ni14  1  0.33554547  0.33487556  0.33457160  1
  Cr  Cr15  1  0.33547009  0.66733218  0.00134575  1
  Ni  Ni16  1  0.50388915  0.83229608  0.16643720  1
  Fe  Fe17  1  0.33534259  0.66466491  0.33394797  1
  Ni  Ni18  1  0.66643842  0.99996617  0.00112230  1
  Fe  Fe19  1  0.83291988  0.16863640  0.16785790  1
  Ni  Ni20  1  0.66632419  0.00162014  0.33523467  1
  Cr  Cr21  1  0.66717437  0.33721558  0.00164211  1
  Fe  Fe22  1  0.83334051  0.49860716  0.16827620  1
  Ni  Ni23  1  0.66588681  0.33312304  0.33583736  1
  Fe  Fe24  1  0.66628379  0.66730484  1.00033667  1
  Cr  Cr25  1  0.83428030  0.83765874  0.16701710  1
  Cr  Cr26  1  0.66658137  0.66561429  0.33353264  1
  Ni  Ni27  1  0.16877718  0.16869058  0.50111229  1
  Cr  Cr28  1  0.00451329  0.00346493  0.66352803  1
  Ni  Ni29  1  0.16609770  0.17001371  0.83495020  1
  Ni  Ni30  1  0.17023511  0.50064152  0.50051159  1
  Ni  Ni31  1  0.99907640  0.33417199  0.66657365  1
  Ni  Ni32  1  0.16944316  0.49858707  0.83367909  1
  Ni  Ni33  1  0.16791020  0.83216793  0.49985780  1
  Cr  Cr34  1  0.00126420  0.66373002  0.66646769  1
  Fe  Fe35  1  0.16883277  0.83422736  0.83126789  1
  Ni  Ni36  1  0.50135562  0.16778473  0.50064095  1
  Ni  Ni37  1  0.33575462  0.99878056  0.66700922  1
  Cr  Cr38  1  0.50019640  0.16783617  0.83317589  1
  Fe  Fe39  1  0.50041407  0.49982314  0.50098578  1
  Cr  Cr40  1  0.33179975  0.33226188  0.66702718  1
  Ni  Ni41  1  0.49909667  0.50334888  0.83339037  1
  Fe  Fe42  1  0.50115447  0.83401114  0.50200557  1
  Ni  Ni43  1  0.33620592  0.66896266  0.66527818  1
  Fe  Fe44  1  0.49973564  0.83217063  0.83210604  1
  Ni  Ni45  1  0.83090706  0.16669235  0.49965803  1
  Fe  Fe46  1  0.66544073  0.99947577  0.66415066  1
  Cr  Cr47  1  0.83506120  0.16486392  0.83356256  1
  Ni  Ni48  1  0.83223611  0.50052782  0.50359166  1
  Fe  Fe49  1  0.66721133  0.33548362  0.66513771  1
  Fe  Fe50  1  0.83309628  0.49757920  0.83165735  1
  Ni  Ni51  1  0.83141693  0.83427054  0.50056714  1
  Ni  Ni52  1  0.66478135  0.66603589  0.66814981  1
  Cr  Cr53  1  0.83137965  0.83352297  0.83379392  1
" 