788,Ni43Fe48Cr7_19,-236.902237453428, 210.131219243594,Ni43Fe48Cr7,"# generated using pymatgen
 data_Cr5Fe26Ni23
_symmetry_space_group_name_H-M   'P 1'
_cell_length_a   7.41816205
_cell_length_b   7.41816205
_cell_length_c   10.49086538
_cell_angle_alpha   90.00000000
_cell_angle_beta   90.00000000
_cell_angle_gamma   90.00000000
_symmetry_Int_Tables_number   1
_chemical_formula_structural   Cr5Fe26Ni23
_chemical_formula_sum   'Cr5 Fe26 Ni23'
_cell_volume   577.30317642
_cell_formula_units_Z   1
loop_
 _symmetry_equiv_pos_site_id
 _symmetry_equiv_pos_as_xyz
  1  'x, y, z'
loop_
 _atom_site_type_symbol
 _atom_site_label
 _atom_site_symmetry_multiplicity
 _atom_site_fract_x
 _atom_site_fract_y
 _atom_site_fract_z
 _atom_site_occupancy
  Cr  Cr0  1  0.00337050  0.00543673  1.00260534  1
  Ni  Ni1  1  0.16930492  0.17099422  0.17140851  1
  Ni  Ni2  1  1.00074140  0.00453825  0.33781137  1
  Fe  Fe3  1  0.00472806  0.33873584  0.00345755  1
  Fe  Fe4  1  0.17250227  0.50453659  0.16959863  1
  Ni  Ni5  1  1.00305264  0.33620761  0.33608321  1
  Fe  Fe6  1  0.00566034  0.66804694  1.00302542  1
  Ni  Ni7  1  0.16946823  0.83572966  0.16940774  1
  Fe  Fe8  1  0.00514721  0.67091941  0.33760139  1
  Fe  Fe9  1  0.33754405  1.00227636  0.00380122  1
  Fe  Fe10  1  0.50272588  0.17073798  0.16946271  1
  Cr  Cr11  1  0.33576725  1.00026347  0.33442607  1
  Fe  Fe12  1  0.33597152  0.33633466  0.00422303  1
  Ni  Ni13  1  0.50534903  0.50323835  0.17056777  1
  Ni  Ni14  1  0.33506960  0.34046261  0.33572076  1
  Ni  Ni15  1  0.33852455  0.66951391  1.00308735  1
  Ni  Ni16  1  0.50377494  0.83453323  0.16971690  1
  Ni  Ni17  1  0.33809647  0.66813978  0.33674782  1
  Fe  Fe18  1  0.66628806  1.00282137  0.00436737  1
  Fe  Fe19  1  0.83572836  0.17019345  0.17173894  1
  Ni  Ni20  1  0.67283955  1.00205613  0.33519891  1
  Fe  Fe21  1  0.66944276  0.33751379  1.00298776  1
  Fe  Fe22  1  0.83784808  0.50385393  0.17001909  1
  Fe  Fe23  1  0.67060303  0.33719512  0.33577249  1
  Fe  Fe24  1  0.66860261  0.66929876  0.00424288  1
  Fe  Fe25  1  0.83685032  0.83599888  0.17059930  1
  Fe  Fe26  1  0.66987133  0.67007348  0.33611501  1
  Ni  Ni27  1  0.16916142  0.16883628  0.50240258  1
  Ni  Ni28  1  1.00277294  0.00382857  0.66892147  1
  Ni  Ni29  1  0.17304262  0.16974972  0.83592090  1
  Fe  Fe30  1  0.16937556  0.50305021  0.50338611  1
  Cr  Cr31  1  1.00248932  0.33574868  0.67122563  1
  Ni  Ni32  1  0.16905956  0.50408709  0.83782954  1
  Ni  Ni33  1  0.16922235  0.83575518  0.50432059  1
  Ni  Ni34  1  0.00554971  0.66953178  0.67013834  1
  Ni  Ni35  1  0.17167313  0.83604627  0.83628637  1
  Cr  Cr36  1  0.50193743  0.17090090  0.50142886  1
  Fe  Fe37  1  0.33389712  1.00199161  0.67062980  1
  Ni  Ni38  1  0.50267335  0.16994989  0.83750601  1
  Fe  Fe39  1  0.50215553  0.50450864  0.50231337  1
  Fe  Fe40  1  0.33583482  0.33767871  0.67066630  1
  Fe  Fe41  1  0.50132365  0.50416592  0.83750082  1
  Fe  Fe42  1  0.50424763  0.83499613  0.50330264  1
  Ni  Ni43  1  0.33855801  0.66936258  0.67050214  1
  Ni  Ni44  1  0.50244793  0.83780406  0.83636273  1
  Ni  Ni45  1  0.83615677  0.17160707  0.50271005  1
  Fe  Fe46  1  0.66961628  1.00311927  0.66934554  1
  Fe  Fe47  1  0.83528996  0.16974415  0.83619111  1
  Ni  Ni48  1  0.83552775  0.50466484  0.50176805  1
  Fe  Fe49  1  0.66982126  0.33899084  0.67095141  1
  Ni  Ni50  1  0.83558353  0.50299142  0.83853714  1
  Fe  Fe51  1  0.83781336  0.83820870  0.50377764  1
  Fe  Fe52  1  0.67071203  0.66791786  0.66906438  1
  Cr  Cr53  1  0.83711355  0.83304266  0.83514546  1
" 