1081,Ni43Fe57_17,-242.327191755315, 224.668884804391,Ni43Fe57,"# generated using pymatgen
 data_Fe23Ni31
_symmetry_space_group_name_H-M   'P 1'
_cell_length_a   7.40366309
_cell_length_b   7.40366309
_cell_length_c   10.47036075
_cell_angle_alpha   90.00000000
_cell_angle_beta   90.00000000
_cell_angle_gamma   90.00000000
_symmetry_Int_Tables_number   1
_chemical_formula_structural   Fe23Ni31
_chemical_formula_sum   'Fe23 Ni31'
_cell_volume   573.92473285
_cell_formula_units_Z   1
loop_
 _symmetry_equiv_pos_site_id
 _symmetry_equiv_pos_as_xyz
  1  'x, y, z'
loop_
 _atom_site_type_symbol
 _atom_site_label
 _atom_site_symmetry_multiplicity
 _atom_site_fract_x
 _atom_site_fract_y
 _atom_site_fract_z
 _atom_site_occupancy
  Ni  Ni0  1  1.00370911  1.00329558  1.00423719  1
  Fe  Fe1  1  0.17056011  0.16775482  0.16998798  1
  Ni  Ni2  1  0.00435319  1.00354892  0.33767610  1
  Fe  Fe3  1  0.00556163  0.33679127  1.00381375  1
  Fe  Fe4  1  0.16989411  0.50365959  0.16971496  1
  Fe  Fe5  1  1.00307321  0.33585586  0.33771730  1
  Ni  Ni6  1  1.00330585  0.67151592  1.00375096  1
  Ni  Ni7  1  0.17019347  0.83541777  0.17067705  1
  Ni  Ni8  1  1.00350792  0.66999891  0.33784136  1
  Ni  Ni9  1  0.33713748  0.00523522  1.00338812  1
  Ni  Ni10  1  0.50437767  0.17249510  0.17093217  1
  Ni  Ni11  1  0.33805703  0.00642572  0.33795329  1
  Ni  Ni12  1  0.34062987  0.33760275  0.00462924  1
  Fe  Fe13  1  0.50528725  0.50509129  0.17160321  1
  Fe  Fe14  1  0.33781728  0.33748317  0.33793195  1
  Ni  Ni15  1  0.33693551  0.67009950  0.00452168  1
  Fe  Fe16  1  0.50420990  0.83995252  0.17055941  1
  Fe  Fe17  1  0.33770242  0.67357750  0.33763433  1
  Fe  Fe18  1  0.67018262  0.00469921  1.00395970  1
  Ni  Ni19  1  0.83664963  0.16966120  0.17052400  1
  Ni  Ni20  1  0.67073667  1.00417514  0.33681446  1
  Ni  Ni21  1  0.67061080  0.33741496  1.00399272  1
  Fe  Fe22  1  0.83756318  0.50418656  0.17049912  1
  Fe  Fe23  1  0.67141885  0.33627669  0.33736092  1
  Fe  Fe24  1  0.67006415  0.67196463  0.00505201  1
  Ni  Ni25  1  0.83910273  0.83791060  0.17114644  1
  Ni  Ni26  1  0.67192095  0.67025903  0.33770088  1
  Fe  Fe27  1  0.17122661  0.17017751  0.50558638  1
  Ni  Ni28  1  1.00345810  1.00301331  0.67091574  1
  Ni  Ni29  1  0.17134160  0.17348836  0.83801188  1
  Fe  Fe30  1  0.16971554  0.50379451  0.50562961  1
  Fe  Fe31  1  0.00575925  0.33596083  0.67152096  1
  Ni  Ni32  1  0.17200941  0.50521425  0.83790850  1
  Fe  Fe33  1  0.17156534  0.83865397  0.50370088  1
  Ni  Ni34  1  1.00343962  0.67109352  0.67110663  1
  Fe  Fe35  1  0.17124738  0.83934941  0.83791998  1
  Ni  Ni36  1  0.50493300  0.17271919  0.50456736  1
  Ni  Ni37  1  0.33811116  0.00540732  0.67158234  1
  Ni  Ni38  1  0.50423622  0.17069333  0.83721180  1
  Ni  Ni39  1  0.50207786  0.50395786  0.50420747  1
  Ni  Ni40  1  0.33942490  0.33763731  0.67173688  1
  Fe  Fe41  1  0.50424343  0.50397778  0.83727074  1
  Fe  Fe42  1  0.50608645  0.83934236  0.50494844  1
  Ni  Ni43  1  0.33624712  0.67019103  0.67078489  1
  Ni  Ni44  1  0.50442694  0.83692461  0.83742684  1
  Ni  Ni45  1  0.83696888  0.16903419  0.50398382  1
  Ni  Ni46  1  0.67159562  0.00582669  0.67114335  1
  Ni  Ni47  1  0.83767444  0.16945044  0.83793597  1
  Fe  Fe48  1  0.83567890  0.50368121  0.50404394  1
  Fe  Fe49  1  0.67110815  0.33675150  0.67117134  1
  Fe  Fe50  1  0.83782902  0.50369531  0.83819301  1
  Ni  Ni51  1  0.83895466  0.83801953  0.50332786  1
  Fe  Fe52  1  0.66998167  0.67344520  0.66968489  1
  Ni  Ni53  1  0.83724956  0.83730342  0.83801164  1
" 