4180,Ni43Fe34Cr21_8,-232.062429544035, 201.198699830832,Ni43Fe34Cr21,"# generated using pymatgen
 data_Cr13Fe18Ni23
_symmetry_space_group_name_H-M   'P 1'
_cell_length_a   7.45074117
_cell_length_b   7.45074117
_cell_length_c   10.53693922
_cell_angle_alpha   90.00000000
_cell_angle_beta   90.00000000
_cell_angle_gamma   90.00000000
_symmetry_Int_Tables_number   1
_chemical_formula_structural   Cr13Fe18Ni23
_chemical_formula_sum   'Cr13 Fe18 Ni23'
_cell_volume   584.94283901
_cell_formula_units_Z   1
loop_
 _symmetry_equiv_pos_site_id
 _symmetry_equiv_pos_as_xyz
  1  'x, y, z'
loop_
 _atom_site_type_symbol
 _atom_site_label
 _atom_site_symmetry_multiplicity
 _atom_site_fract_x
 _atom_site_fract_y
 _atom_site_fract_z
 _atom_site_occupancy
  Fe  Fe0  1  0.99988560  0.00305183  0.99994395  1
  Fe  Fe1  1  0.16764790  0.17084799  0.16735814  1
  Fe  Fe2  1  1.00106290  0.00453775  0.33510104  1
  Fe  Fe3  1  1.00087328  0.33510051  1.00077346  1
  Ni  Ni4  1  0.16938461  0.49868525  0.16688537  1
  Fe  Fe5  1  1.00088128  0.33319999  0.33367546  1
  Fe  Fe6  1  1.00024547  0.66512764  0.99977941  1
  Cr  Cr7  1  0.16988893  0.83374622  0.16767669  1
  Cr  Cr8  1  0.00147577  0.66664713  0.33418479  1
  Fe  Fe9  1  0.33542330  0.00364578  1.00043184  1
  Fe  Fe10  1  0.50095748  0.16949769  0.16722042  1
  Fe  Fe11  1  0.33503243  0.00266564  0.33563081  1
  Ni  Ni12  1  0.33374870  0.33519388  0.99950302  1
  Ni  Ni13  1  0.49905081  0.50107766  0.16847745  1
  Ni  Ni14  1  0.33387175  0.33393592  0.33481394  1
  Ni  Ni15  1  0.33394487  0.66380391  0.00167350  1
  Cr  Cr16  1  0.50139479  0.83378721  0.16818795  1
  Ni  Ni17  1  0.33499270  0.66615378  0.33399420  1
  Ni  Ni18  1  0.66966180  0.00326146  0.99963998  1
  Ni  Ni19  1  0.83516541  0.16856687  0.16799499  1
  Ni  Ni20  1  0.66843531  0.00336125  0.33480856  1
  Fe  Fe21  1  0.66698673  0.33513491  1.00076405  1
  Ni  Ni22  1  0.83484449  0.49874921  0.16716159  1
  Cr  Cr23  1  0.66801054  0.33390768  0.33385761  1
  Ni  Ni24  1  0.66848473  0.66671774  0.99974177  1
  Cr  Cr25  1  0.83200138  0.83538903  0.16728558  1
  Ni  Ni26  1  0.66630606  0.66684392  0.33538122  1
  Fe  Fe27  1  0.16824159  0.16619740  0.50066461  1
  Fe  Fe28  1  1.00071062  1.00095615  0.66823803  1
  Ni  Ni29  1  0.16895204  0.16931984  0.83448989  1
  Cr  Cr30  1  0.16793977  0.50000419  0.50023720  1
  Cr  Cr31  1  1.00064228  0.33408205  0.66837559  1
  Ni  Ni32  1  0.16791906  0.49929649  0.83642238  1
  Fe  Fe33  1  0.16727333  0.83699414  0.50114294  1
  Ni  Ni34  1  0.99972768  0.66926670  0.66951977  1
  Cr  Cr35  1  0.16582642  0.83411303  0.83490157  1
  Ni  Ni36  1  0.49949932  0.16658322  0.50092705  1
  Fe  Fe37  1  0.33346156  0.00493586  0.66722118  1
  Ni  Ni38  1  0.50003005  0.16834133  0.83510748  1
  Fe  Fe39  1  0.50262896  0.49987379  0.49957139  1
  Fe  Fe40  1  0.33489629  0.33259484  0.66923744  1
  Ni  Ni41  1  0.50028263  0.49949577  0.83500446  1
  Cr  Cr42  1  0.50120366  0.83514393  0.49928832  1
  Cr  Cr43  1  0.33330962  0.66627560  0.66802182  1
  Cr  Cr44  1  0.50381338  0.83521929  0.83580789  1
  Ni  Ni45  1  0.83470250  0.16678338  0.49974302  1
  Fe  Fe46  1  0.66910864  0.00214106  0.66858807  1
  Ni  Ni47  1  0.83430101  0.16584460  0.83554128  1
  Ni  Ni48  1  0.83427920  0.50114659  0.50058473  1
  Cr  Cr49  1  0.66654307  0.33350771  0.66829305  1
  Ni  Ni50  1  0.83507985  0.50302270  0.83553604  1
  Cr  Cr51  1  0.83387831  0.83457840  0.50187862  1
  Fe  Fe52  1  0.67107909  0.66631825  0.66888011  1
  Ni  Ni53  1  0.83410232  0.83441710  0.83392054  1
" 