2869,Ni43Fe48Cr7_6,-236.567145263093, 210.050027128341,Ni43Fe48Cr7,"# generated using pymatgen
 data_Cr5Fe26Ni23
_symmetry_space_group_name_H-M   'P 1'
_cell_length_a   7.41751696
_cell_length_b   7.41751696
_cell_length_c   10.48995309
_cell_angle_alpha   90.00000000
_cell_angle_beta   90.00000000
_cell_angle_gamma   90.00000000
_symmetry_Int_Tables_number   1
_chemical_formula_structural   Cr5Fe26Ni23
_chemical_formula_sum   'Cr5 Fe26 Ni23'
_cell_volume   577.15258124
_cell_formula_units_Z   1
loop_
 _symmetry_equiv_pos_site_id
 _symmetry_equiv_pos_as_xyz
  1  'x, y, z'
loop_
 _atom_site_type_symbol
 _atom_site_label
 _atom_site_symmetry_multiplicity
 _atom_site_fract_x
 _atom_site_fract_y
 _atom_site_fract_z
 _atom_site_occupancy
  Fe  Fe0  1  0.00389237  0.00503792  0.00341049  1
  Ni  Ni1  1  0.16842088  0.17129033  0.17011216  1
  Fe  Fe2  1  1.00272193  1.00216027  0.33593099  1
  Ni  Ni3  1  0.00356923  0.33632100  0.00340079  1
  Fe  Fe4  1  0.16916707  0.50280339  0.16987184  1
  Fe  Fe5  1  0.00403367  0.33716072  0.33424304  1
  Fe  Fe6  1  0.00356884  0.66888117  0.00349535  1
  Fe  Fe7  1  0.16786559  0.83735875  0.16991831  1
  Fe  Fe8  1  1.00276430  0.67069698  0.33594343  1
  Ni  Ni9  1  0.33338309  0.00413383  1.00248802  1
  Cr  Cr10  1  0.50301235  0.16997615  0.16982619  1
  Fe  Fe11  1  0.33661637  1.00286467  0.33757928  1
  Ni  Ni12  1  0.33584216  0.33691363  1.00325392  1
  Fe  Fe13  1  0.50459294  0.50275930  0.17027944  1
  Fe  Fe14  1  0.33674435  0.33789472  0.33760943  1
  Fe  Fe15  1  0.33496381  0.66748648  0.00359355  1
  Cr  Cr16  1  0.50421572  0.83608987  0.16959500  1
  Ni  Ni17  1  0.33579911  0.66915239  0.33724401  1
  Fe  Fe18  1  0.67185010  0.00550336  1.00282920  1
  Ni  Ni19  1  0.83871655  0.17095571  0.16961519  1
  Ni  Ni20  1  0.67198756  1.00226312  0.33749326  1
  Ni  Ni21  1  0.67060585  0.33770917  1.00260868  1
  Ni  Ni22  1  0.83766042  0.50336498  0.17034053  1
  Ni  Ni23  1  0.66951704  0.33747131  0.33553093  1
  Fe  Fe24  1  0.67148311  0.66772570  0.00379933  1
  Ni  Ni25  1  0.83683337  0.83569609  0.17054205  1
  Ni  Ni26  1  0.66982852  0.67028302  0.33654012  1
  Fe  Fe27  1  0.17123380  0.16966812  0.50375338  1
  Ni  Ni28  1  0.00392243  1.00165041  0.67105590  1
  Ni  Ni29  1  0.17058251  0.17186576  0.83626886  1
  Ni  Ni30  1  0.17139414  0.50294693  0.50333140  1
  Fe  Fe31  1  0.00467531  0.33650970  0.67207025  1
  Ni  Ni32  1  0.16899322  0.50192889  0.83673035  1
  Fe  Fe33  1  0.16968371  0.83617069  0.50327962  1
  Fe  Fe34  1  1.00331893  0.67052191  0.67058103  1
  Fe  Fe35  1  0.16903560  0.83755554  0.83681950  1
  Fe  Fe36  1  0.50272033  0.16997922  0.50388978  1
  Fe  Fe37  1  0.33713109  0.00481324  0.67004595  1
  Ni  Ni38  1  0.50286195  0.17029095  0.83631747  1
  Fe  Fe39  1  0.50239685  0.50413321  0.50325412  1
  Ni  Ni40  1  0.33669689  0.33710349  0.66988073  1
  Fe  Fe41  1  0.50267846  0.50035356  0.83648118  1
  Ni  Ni42  1  0.50391436  0.83724306  0.50327717  1
  Fe  Fe43  1  0.33655450  0.66898659  0.66846522  1
  Cr  Cr44  1  0.50393748  0.83828897  0.83701630  1
  Cr  Cr45  1  0.83589843  0.16904664  0.50319230  1
  Ni  Ni46  1  0.67147709  1.00271683  0.66984879  1
  Fe  Fe47  1  0.83670208  0.17051702  0.83659700  1
  Cr  Cr48  1  0.83775089  0.50478119  0.50375869  1
  Ni  Ni49  1  0.66746461  0.33707324  0.67187756  1
  Fe  Fe50  1  0.83643385  0.50222189  0.83703470  1
  Ni  Ni51  1  0.83429199  0.83646875  0.50338830  1
  Ni  Ni52  1  0.67043275  0.67022646  0.66917413  1
  Fe  Fe53  1  0.83845358  0.83727683  0.83580893  1
" 