2318,Ni43Fe27Cr29_1,-228.947496106947, 189.005147936312,Ni43Fe27Cr29,"# generated using pymatgen
 data_Cr17Fe14Ni23
_symmetry_space_group_name_H-M   'P 1'
_cell_length_a   7.46695425
_cell_length_b   7.46695425
_cell_length_c   10.55986797
_cell_angle_alpha   90.00000000
_cell_angle_beta   90.00000000
_cell_angle_gamma   90.00000000
_symmetry_Int_Tables_number   1
_chemical_formula_structural   Cr17Fe14Ni23
_chemical_formula_sum   'Cr17 Fe14 Ni23'
_cell_volume   588.76972322
_cell_formula_units_Z   1
loop_
 _symmetry_equiv_pos_site_id
 _symmetry_equiv_pos_as_xyz
  1  'x, y, z'
loop_
 _atom_site_type_symbol
 _atom_site_label
 _atom_site_symmetry_multiplicity
 _atom_site_fract_x
 _atom_site_fract_y
 _atom_site_fract_z
 _atom_site_occupancy
  Cr  Cr0  1  0.00084177  0.99869791  0.00476731  1
  Fe  Fe1  1  0.16961700  0.16963676  0.16541517  1
  Cr  Cr2  1  0.99782888  0.99730071  0.32851519  1
  Ni  Ni3  1  0.00022546  0.33370766  0.00064615  1
  Ni  Ni4  1  0.16856005  0.49862043  0.16467300  1
  Cr  Cr5  1  0.00070217  0.33578947  0.33358703  1
  Fe  Fe6  1  0.00111290  0.66466238  0.00164942  1
  Fe  Fe7  1  0.17027035  0.82891151  0.16506547  1
  Cr  Cr8  1  0.00250724  0.66511867  0.33321858  1
  Ni  Ni9  1  0.33238110  0.99873629  0.00151742  1
  Fe  Fe10  1  0.49926585  0.16876037  0.16747128  1
  Fe  Fe11  1  0.33557819  0.99690590  0.33098992  1
  Ni  Ni12  1  0.33331713  0.33478233  0.00159641  1
  Ni  Ni13  1  0.49873558  0.50262011  0.16538470  1
  Fe  Fe14  1  0.33511869  0.33494400  0.33076003  1
  Ni  Ni15  1  0.33396641  0.66645046  0.00146521  1
  Ni  Ni16  1  0.49825641  0.83329896  0.16629219  1
  Ni  Ni17  1  0.33449643  0.66581057  0.33227298  1
  Cr  Cr18  1  0.66504785  0.99958151  0.00156421  1
  Ni  Ni19  1  0.83362157  0.16735885  0.16657619  1
  Ni  Ni20  1  0.66345332  0.00158178  0.33181588  1
  Cr  Cr21  1  0.66582542  0.33433229  0.99785793  1
  Ni  Ni22  1  0.83385310  0.49745708  0.16320902  1
  Fe  Fe23  1  0.66696820  0.33427526  0.33054367  1
  Ni  Ni24  1  0.66486236  0.66473111  0.00092724  1
  Fe  Fe25  1  0.82962400  0.82907842  0.16615582  1
  Cr  Cr26  1  0.66696644  0.66866963  0.33383051  1
  Cr  Cr27  1  0.16759571  0.16763751  0.50008085  1
  Ni  Ni28  1  0.99709751  0.99829148  0.66723752  1
  Cr  Cr29  1  0.16386387  0.16585535  0.83418931  1
  Ni  Ni30  1  0.16714691  0.50000847  0.50071329  1
  Ni  Ni31  1  0.99866966  0.33546518  0.66675133  1
  Cr  Cr32  1  0.16792194  0.50179530  0.83461776  1
  Cr  Cr33  1  0.16878646  0.83321490  0.50263066  1
  Ni  Ni34  1  0.00192155  0.66725946  0.66472681  1
  Ni  Ni35  1  0.16736050  0.83375747  0.83365044  1
  Fe  Fe36  1  0.50085740  0.16467957  0.49813035  1
  Fe  Fe37  1  0.33283788  0.99925984  0.66843926  1
  Fe  Fe38  1  0.49678673  0.16509710  0.83440722  1
  Cr  Cr39  1  0.49948833  0.50298522  0.49733038  1
  Cr  Cr40  1  0.33409567  0.33630774  0.66671789  1
  Ni  Ni41  1  0.50065757  0.50137890  0.83627407  1
  Ni  Ni42  1  0.50104497  0.83587645  0.50169303  1
  Ni  Ni43  1  0.33315321  0.66786812  0.66634757  1
  Cr  Cr44  1  0.49846563  0.83006889  0.83245501  1
  Cr  Cr45  1  0.83300514  0.16613058  0.50054515  1
  Ni  Ni46  1  0.66554916  0.99975429  0.66561211  1
  Fe  Fe47  1  0.83388195  0.16668321  0.83262240  1
  Ni  Ni48  1  0.83442200  0.50108617  0.50321790  1
  Cr  Cr49  1  0.66570812  0.33275412  0.67022886  1
  Fe  Fe50  1  0.83503115  0.50183404  0.83371675  1
  Ni  Ni51  1  0.83000043  0.83410431  0.50117343  1
  Fe  Fe52  1  0.66803540  0.66683071  0.66613499  1
  Cr  Cr53  1  0.83394889  0.83253279  0.83292526  1
" 