192,Ni43Fe57_10,-242.3417029875, 221.045393421278,Ni43Fe57,"# generated using pymatgen
 data_Fe23Ni31
_symmetry_space_group_name_H-M   'P 1'
_cell_length_a   7.40382678
_cell_length_b   7.40382678
_cell_length_c   10.47059225
_cell_angle_alpha   90.00000000
_cell_angle_beta   90.00000000
_cell_angle_gamma   90.00000000
_symmetry_Int_Tables_number   1
_chemical_formula_structural   Fe23Ni31
_chemical_formula_sum   'Fe23 Ni31'
_cell_volume   573.96280090
_cell_formula_units_Z   1
loop_
 _symmetry_equiv_pos_site_id
 _symmetry_equiv_pos_as_xyz
  1  'x, y, z'
loop_
 _atom_site_type_symbol
 _atom_site_label
 _atom_site_symmetry_multiplicity
 _atom_site_fract_x
 _atom_site_fract_y
 _atom_site_fract_z
 _atom_site_occupancy
  Ni  Ni0  1  1.00399621  1.00380708  0.00514727  1
  Ni  Ni1  1  0.17149874  0.17146206  0.17058353  1
  Fe  Fe2  1  0.00451414  1.00377870  0.33628805  1
  Fe  Fe3  1  1.00382539  0.33776706  1.00354041  1
  Ni  Ni4  1  0.16942330  0.50354427  0.17156673  1
  Fe  Fe5  1  1.00308559  0.33759435  0.33792270  1
  Fe  Fe6  1  1.00326400  0.67149548  1.00392008  1
  Ni  Ni7  1  0.17197779  0.83781505  0.16989130  1
  Fe  Fe8  1  1.00325205  0.67122122  0.33778438  1
  Fe  Fe9  1  0.33917372  1.00405981  1.00397680  1
  Fe  Fe10  1  0.50406209  0.17060512  0.17148440  1
  Fe  Fe11  1  0.33843385  1.00386337  0.33850267  1
  Ni  Ni12  1  0.33698624  0.33893661  0.00432728  1
  Fe  Fe13  1  0.50333353  0.50566970  0.16941401  1
  Fe  Fe14  1  0.33850703  0.33647639  0.33644553  1
  Ni  Ni15  1  0.33662394  0.66975940  0.00524636  1
  Ni  Ni16  1  0.50426892  0.83885423  0.17028355  1
  Fe  Fe17  1  0.33812029  0.67253912  0.33703375  1
  Ni  Ni18  1  0.67281038  1.00410942  0.00483000  1
  Fe  Fe19  1  0.83880829  0.16955993  0.17069198  1
  Ni  Ni20  1  0.67111442  0.00451118  0.33738433  1
  Ni  Ni21  1  0.66996718  0.33706978  0.00538984  1
  Ni  Ni22  1  0.83767249  0.50290921  0.16923589  1
  Fe  Fe23  1  0.67143758  0.33778325  0.33799130  1
  Ni  Ni24  1  0.66994972  0.67166153  0.00441566  1
  Ni  Ni25  1  0.83678652  0.83647646  0.17157555  1
  Fe  Fe26  1  0.67128010  0.67121737  0.33741617  1
  Fe  Fe27  1  0.17098835  0.17019354  0.50396593  1
  Fe  Fe28  1  1.00366393  1.00353570  0.67181382  1
  Fe  Fe29  1  0.17088953  0.17004711  0.83866564  1
  Fe  Fe30  1  0.17109805  0.50389848  0.50447135  1
  Ni  Ni31  1  0.00487758  0.33729702  0.67124238  1
  Ni  Ni32  1  0.17178369  0.50437212  0.83734978  1
  Ni  Ni33  1  0.17171269  0.83744530  0.50426129  1
  Ni  Ni34  1  0.00559530  0.67019526  0.67077474  1
  Ni  Ni35  1  0.17191099  0.83617541  0.83901520  1
  Ni  Ni36  1  0.50514580  0.17059447  0.50535338  1
  Ni  Ni37  1  0.33725768  1.00367693  0.67133444  1
  Fe  Fe38  1  0.50494759  0.17065312  0.83728715  1
  Fe  Fe39  1  0.50504535  0.50442072  0.50547521  1
  Fe  Fe40  1  0.33862946  0.33804267  0.67185808  1
  Ni  Ni41  1  0.50405036  0.50462660  0.83688108  1
  Ni  Ni42  1  0.50318699  0.83857527  0.50503908  1
  Ni  Ni43  1  0.33659131  0.67184414  0.67009948  1
  Ni  Ni44  1  0.50413518  0.83648768  0.83745021  1
  Ni  Ni45  1  0.83722971  0.17208930  0.50365902  1
  Ni  Ni46  1  0.67025393  0.00492628  0.67047664  1
  Ni  Ni47  1  0.83678846  0.17214878  0.83808307  1
  Ni  Ni48  1  0.83798020  0.50283547  0.50592305  1
  Ni  Ni49  1  0.67233318  0.33670599  0.67058453  1
  Fe  Fe50  1  0.83631814  0.50604105  0.83682224  1
  Fe  Fe51  1  0.83665696  0.83841557  0.50447250  1
  Ni  Ni52  1  0.67057897  0.67154848  0.66975146  1
  Ni  Ni53  1  0.83672850  0.83921179  0.83615108  1
" 