655,Ni43Fe57_15,-242.318085874505, 223.880835489391,Ni43Fe57,"# generated using pymatgen
 data_Fe23Ni31
_symmetry_space_group_name_H-M   'P 1'
_cell_length_a   7.40408434
_cell_length_b   7.40408434
_cell_length_c   10.47095649
_cell_angle_alpha   90.00000000
_cell_angle_beta   90.00000000
_cell_angle_gamma   90.00000000
_symmetry_Int_Tables_number   1
_chemical_formula_structural   Fe23Ni31
_chemical_formula_sum   'Fe23 Ni31'
_cell_volume   574.02270321
_cell_formula_units_Z   1
loop_
 _symmetry_equiv_pos_site_id
 _symmetry_equiv_pos_as_xyz
  1  'x, y, z'
loop_
 _atom_site_type_symbol
 _atom_site_label
 _atom_site_symmetry_multiplicity
 _atom_site_fract_x
 _atom_site_fract_y
 _atom_site_fract_z
 _atom_site_occupancy
  Fe  Fe0  1  0.00520214  1.00300190  1.00404416  1
  Ni  Ni1  1  0.17194167  0.17077190  0.17064956  1
  Fe  Fe2  1  1.00372575  1.00394549  0.33815903  1
  Fe  Fe3  1  0.00489205  0.33812166  0.00497649  1
  Ni  Ni4  1  0.17035871  0.50393531  0.17028787  1
  Ni  Ni5  1  1.00307466  0.33858948  0.33796105  1
  Ni  Ni6  1  0.00524746  0.66994369  0.00443967  1
  Ni  Ni7  1  0.17157813  0.83804271  0.17017799  1
  Ni  Ni8  1  0.00548424  0.66974448  0.33774762  1
  Ni  Ni9  1  0.33871309  1.00390777  0.00465171  1
  Fe  Fe10  1  0.50433367  0.16988459  0.17118757  1
  Fe  Fe11  1  0.33738171  1.00423568  0.33713784  1
  Fe  Fe12  1  0.33699688  0.33758305  1.00381547  1
  Fe  Fe13  1  0.50344230  0.50543782  0.17157050  1
  Fe  Fe14  1  0.33743100  0.33818390  0.33831227  1
  Ni  Ni15  1  0.33591695  0.67117313  1.00372463  1
  Ni  Ni16  1  0.50437025  0.83879711  0.17090547  1
  Ni  Ni17  1  0.33610005  0.67094911  0.33775072  1
  Ni  Ni18  1  0.67037452  0.00549353  1.00385404  1
  Fe  Fe19  1  0.83802544  0.17040714  0.17178305  1
  Ni  Ni20  1  0.67080124  0.00598559  0.33807499  1
  Fe  Fe21  1  0.67086255  0.33802439  0.00452303  1
  Ni  Ni22  1  0.83765862  0.50440334  0.17111124  1
  Ni  Ni23  1  0.67200223  0.33580818  0.33749986  1
  Fe  Fe24  1  0.67086309  0.67187127  1.00404084  1
  Ni  Ni25  1  0.83680865  0.83721830  0.17007007  1
  Fe  Fe26  1  0.67186942  0.67034609  0.33801232  1
  Fe  Fe27  1  0.17040756  0.17142196  0.50435251  1
  Ni  Ni28  1  1.00414549  1.00408532  0.67092446  1
  Fe  Fe29  1  0.17086867  0.17104877  0.83771557  1
  Ni  Ni30  1  0.17121481  0.50519775  0.50490764  1
  Fe  Fe31  1  0.00498162  0.33860271  0.67049795  1
  Ni  Ni32  1  0.17054365  0.50517144  0.83756489  1
  Ni  Ni33  1  0.17073226  0.83712875  0.50419027  1
  Ni  Ni34  1  1.00403640  0.67084265  0.67056619  1
  Ni  Ni35  1  0.17176687  0.83743740  0.83838967  1
  Ni  Ni36  1  0.50505686  0.17128390  0.50443325  1
  Ni  Ni37  1  0.33739537  0.00492789  0.67060924  1
  Fe  Fe38  1  0.50338075  0.17105136  0.83723274  1
  Ni  Ni39  1  0.50422503  0.50276290  0.50469312  1
  Ni  Ni40  1  0.33788825  0.33747260  0.67056041  1
  Fe  Fe41  1  0.50338025  0.50504644  0.83655825  1
  Fe  Fe42  1  0.50459830  0.83692659  0.50397382  1
  Ni  Ni43  1  0.33714479  0.67035843  0.67128454  1
  Fe  Fe44  1  0.50343748  0.83666195  0.83838781  1
  Ni  Ni45  1  0.83574727  0.17080992  0.50444180  1
  Fe  Fe46  1  0.67062935  1.00359414  0.67033375  1
  Fe  Fe47  1  0.83851206  0.17099691  0.83723475  1
  Ni  Ni48  1  0.83731946  0.50397790  0.50469126  1
  Fe  Fe49  1  0.67054428  0.33824701  0.66990920  1
  Ni  Ni50  1  0.83774526  0.50395598  0.83694949  1
  Ni  Ni51  1  0.83817815  0.83796592  0.50491044  1
  Ni  Ni52  1  0.67157867  0.67033980  0.67045780  1
  Fe  Fe53  1  0.83868870  0.83648111  0.83736424  1
" 