8813,Ni43Fe25Cr31_0,-227.596206874071, 186.327363733577,Ni43Fe25Cr31,"# generated using pymatgen
 data_Cr18Fe13Ni23
_symmetry_space_group_name_H-M   'P 1'
_cell_length_a   7.46194449
_cell_length_b   7.46194449
_cell_length_c   10.55278311
_cell_angle_alpha   90.00000000
_cell_angle_beta   90.00000000
_cell_angle_gamma   90.00000000
_symmetry_Int_Tables_number   1
_chemical_formula_structural   Cr18Fe13Ni23
_chemical_formula_sum   'Cr18 Fe13 Ni23'
_cell_volume   587.58545999
_cell_formula_units_Z   1
loop_
 _symmetry_equiv_pos_site_id
 _symmetry_equiv_pos_as_xyz
  1  'x, y, z'
loop_
 _atom_site_type_symbol
 _atom_site_label
 _atom_site_symmetry_multiplicity
 _atom_site_fract_x
 _atom_site_fract_y
 _atom_site_fract_z
 _atom_site_occupancy
  Fe  Fe0  1  0.00226519  0.99895425  0.99951089  1
  Fe  Fe1  1  0.16853125  0.16722438  0.16675176  1
  Fe  Fe2  1  0.00351702  0.99738328  0.33319494  1
  Fe  Fe3  1  0.00241379  0.33595767  0.99954051  1
  Ni  Ni4  1  0.16763111  0.50081684  0.16431867  1
  Cr  Cr5  1  0.00198060  0.33477637  0.33295262  1
  Ni  Ni6  1  0.00191213  0.66538337  0.00115393  1
  Ni  Ni7  1  0.16499444  0.83220735  0.16655144  1
  Ni  Ni8  1  0.99980620  0.66694120  0.33229520  1
  Cr  Cr9  1  0.33315506  0.99858875  0.00185318  1
  Fe  Fe10  1  0.49764930  0.16755033  0.16684939  1
  Ni  Ni11  1  0.33036425  0.00105213  0.33340750  1
  Ni  Ni12  1  0.33139677  0.33440636  0.00170710  1
  Ni  Ni13  1  0.49695530  0.50034457  0.16689292  1
  Fe  Fe14  1  0.33372859  0.33478211  0.33174214  1
  Ni  Ni15  1  0.33075185  0.66548058  0.99975072  1
  Ni  Ni16  1  0.49968746  0.83283215  0.16672767  1
  Cr  Cr17  1  0.33465621  0.67099961  0.33293596  1
  Ni  Ni18  1  0.66769135  0.00060143  0.00119535  1
  Cr  Cr19  1  0.83530252  0.16456433  0.16370391  1
  Cr  Cr20  1  0.66267523  0.99680362  0.33157877  1
  Cr  Cr21  1  0.66813390  0.33584206  0.99987737  1
  Ni  Ni22  1  0.83648687  0.50281728  0.16837866  1
  Cr  Cr23  1  0.66738390  0.33849971  0.33345388  1
  Cr  Cr24  1  0.66716412  0.66641880  0.00499605  1
  Ni  Ni25  1  0.83624234  0.83295227  0.16716028  1
  Ni  Ni26  1  0.66751976  0.66624680  0.33217285  1
  Fe  Fe27  1  0.16802379  0.16547686  0.50034911  1
  Ni  Ni28  1  0.00252919  0.00039493  0.66805009  1
  Ni  Ni29  1  0.16545544  0.16895772  0.83418331  1
  Cr  Cr30  1  0.16877193  0.50203677  0.50148891  1
  Cr  Cr31  1  1.00027472  0.33456144  0.66885126  1
  Fe  Fe32  1  0.16865149  0.50124364  0.83452906  1
  Ni  Ni33  1  0.16610139  0.83312282  0.50149015  1
  Ni  Ni34  1  0.00173188  0.66767619  0.66740016  1
  Fe  Fe35  1  0.16612835  0.83104317  0.83346172  1
  Cr  Cr36  1  0.49939938  0.16930331  0.50076051  1
  Cr  Cr37  1  0.33120592  0.99801188  0.66588272  1
  Cr  Cr38  1  0.49966917  0.16885688  0.83314965  1
  Ni  Ni39  1  0.49860628  0.50074776  0.50159508  1
  Ni  Ni40  1  0.33315395  0.33446197  0.66716984  1
  Ni  Ni41  1  0.49686764  0.49876287  0.83268879  1
  Ni  Ni42  1  0.49882972  0.83186845  0.50040561  1
  Ni  Ni43  1  0.33229649  0.66594279  0.66811092  1
  Cr  Cr44  1  0.49964902  0.83092967  0.83366146  1
  Cr  Cr45  1  0.83481907  0.16586290  0.50361797  1
  Fe  Fe46  1  0.66773286  0.99943216  0.66762147  1
  Fe  Fe47  1  0.83447420  0.16715667  0.83410784  1
  Fe  Fe48  1  0.83344640  0.50288837  0.49997541  1
  Fe  Fe49  1  0.66617430  0.33602705  0.66814524  1
  Ni  Ni50  1  0.83590731  0.50052002  0.83316925  1
  Cr  Cr51  1  0.83634018  0.83334617  0.49839701  1
  Cr  Cr52  1  0.66623752  0.66498438  0.66467634  1
  Cr  Cr53  1  0.83599082  0.83442046  0.83487234  1
" 