1853,Ni43Fe34Cr21_10,-231.13510929543, 193.01312075419,Ni43Fe34Cr21,"# generated using pymatgen
 data_Cr13Fe18Ni23
_symmetry_space_group_name_H-M   'P 1'
_cell_length_a   7.44427282
_cell_length_b   7.44427282
_cell_length_c   10.52779158
_cell_angle_alpha   90.00000000
_cell_angle_beta   90.00000000
_cell_angle_gamma   90.00000000
_symmetry_Int_Tables_number   1
_chemical_formula_structural   Cr13Fe18Ni23
_chemical_formula_sum   'Cr13 Fe18 Ni23'
_cell_volume   583.42070775
_cell_formula_units_Z   1
loop_
 _symmetry_equiv_pos_site_id
 _symmetry_equiv_pos_as_xyz
  1  'x, y, z'
loop_
 _atom_site_type_symbol
 _atom_site_label
 _atom_site_symmetry_multiplicity
 _atom_site_fract_x
 _atom_site_fract_y
 _atom_site_fract_z
 _atom_site_occupancy
  Cr  Cr0  1  0.00227116  1.00093714  0.00342310  1
  Ni  Ni1  1  0.16562159  0.16661330  0.16864047  1
  Fe  Fe2  1  0.00357284  1.00097986  0.33504839  1
  Fe  Fe3  1  0.00256301  0.33656438  0.00163220  1
  Fe  Fe4  1  0.16744258  0.50286728  0.16899860  1
  Fe  Fe5  1  1.00080973  0.33503764  0.33554790  1
  Ni  Ni6  1  0.00267513  0.66691201  0.00243881  1
  Fe  Fe7  1  0.16922493  0.83341858  0.16815195  1
  Fe  Fe8  1  0.00222714  0.66846263  0.33499454  1
  Ni  Ni9  1  0.33252366  0.99906015  0.00186053  1
  Cr  Cr10  1  0.49990244  0.16597387  0.17037190  1
  Ni  Ni11  1  0.33248580  0.99920790  0.33548620  1
  Cr  Cr12  1  0.33225828  0.33681234  1.00102183  1
  Ni  Ni13  1  0.50256091  0.50685297  0.16872387  1
  Cr  Cr14  1  0.33282430  0.33609281  0.33489632  1
  Ni  Ni15  1  0.33315806  0.66869791  1.00152295  1
  Ni  Ni16  1  0.49787128  0.83179974  0.16729644  1
  Ni  Ni17  1  0.33407878  0.66983704  0.33425188  1
  Cr  Cr18  1  0.66952290  0.99963731  0.00220281  1
  Ni  Ni19  1  0.83961437  0.17133708  0.16950152  1
  Cr  Cr20  1  0.67073099  0.99973795  0.33559451  1
  Cr  Cr21  1  0.66980454  0.33656962  0.00240185  1
  Ni  Ni22  1  0.83686420  0.50200885  0.16933817  1
  Fe  Fe23  1  0.67075899  0.33696311  0.33431115  1
  Fe  Fe24  1  0.66769287  0.66822685  0.00237909  1
  Fe  Fe25  1  0.83506428  0.83231962  0.16886567  1
  Ni  Ni26  1  0.66949429  0.66861222  0.33305492  1
  Fe  Fe27  1  0.16611475  0.16773481  0.50097762  1
  Ni  Ni28  1  1.00152150  0.00194051  0.66689885  1
  Fe  Fe29  1  0.16544841  0.16532633  0.83477893  1
  Ni  Ni30  1  0.16479638  0.50332820  0.50194978  1
  Ni  Ni31  1  0.00193124  0.33413721  0.66927217  1
  Fe  Fe32  1  0.16559605  0.50525773  0.83382580  1
  Fe  Fe33  1  0.16760062  0.83363657  0.50214925  1
  Ni  Ni34  1  0.00336492  0.66813610  0.66651094  1
  Ni  Ni35  1  0.17035144  0.83356718  0.83394337  1
  Fe  Fe36  1  0.50145573  0.16676455  0.50120380  1
  Fe  Fe37  1  0.33204824  0.99867096  0.66726315  1
  Cr  Cr38  1  0.50107624  0.16384536  0.83311223  1
  Cr  Cr39  1  0.50147041  0.50578937  0.49921695  1
  Cr  Cr40  1  0.33180695  0.33708697  0.66824293  1
  Fe  Fe41  1  0.50193804  0.50530311  0.83594703  1
  Ni  Ni42  1  0.49828868  0.83648039  0.50211835  1
  Ni  Ni43  1  0.33249433  0.66946907  0.66868694  1
  Ni  Ni44  1  0.49637931  0.83360981  0.83553132  1
  Ni  Ni45  1  0.83768042  0.16864184  0.50183574  1
  Fe  Fe46  1  0.66968109  1.00061023  0.66645110  1
  Ni  Ni47  1  0.83804638  0.17078367  0.83370339  1
  Ni  Ni48  1  0.83908319  0.50022594  0.50026524  1
  Cr  Cr49  1  0.66988316  0.33487736  0.66671294  1
  Ni  Ni50  1  0.83940342  0.50038735  0.83521060  1
  Fe  Fe51  1  0.83590319  0.83289480  0.50173542  1
  Cr  Cr52  1  0.66850142  0.66884810  0.66926103  1
  Cr  Cr53  1  0.83711845  0.83370936  0.83384054  1
" 