2288,Ni43Fe27Cr29_14,-228.823972002849, 189.306829585667,Ni43Fe27Cr29,"# generated using pymatgen
 data_Cr17Fe14Ni23
_symmetry_space_group_name_H-M   'P 1'
_cell_length_a   7.46392780
_cell_length_b   7.46392780
_cell_length_c   10.55558793
_cell_angle_alpha   90.00000000
_cell_angle_beta   90.00000000
_cell_angle_gamma   90.00000000
_symmetry_Int_Tables_number   1
_chemical_formula_structural   Cr17Fe14Ni23
_chemical_formula_sum   'Cr17 Fe14 Ni23'
_cell_volume   588.05410699
_cell_formula_units_Z   1
loop_
 _symmetry_equiv_pos_site_id
 _symmetry_equiv_pos_as_xyz
  1  'x, y, z'
loop_
 _atom_site_type_symbol
 _atom_site_label
 _atom_site_symmetry_multiplicity
 _atom_site_fract_x
 _atom_site_fract_y
 _atom_site_fract_z
 _atom_site_occupancy
  Fe  Fe0  1  0.99861732  0.99837238  0.99883410  1
  Cr  Cr1  1  0.16508590  0.16858095  0.16556588  1
  Cr  Cr2  1  1.00019967  0.99691329  0.33176008  1
  Fe  Fe3  1  0.99717336  0.33515635  0.99731684  1
  Cr  Cr4  1  0.16576553  0.50092244  0.16587676  1
  Fe  Fe5  1  0.99709015  0.33616123  0.33429073  1
  Ni  Ni6  1  0.99972642  0.66725306  1.00014251  1
  Ni  Ni7  1  0.16902165  0.83034383  0.16482529  1
  Cr  Cr8  1  0.99813970  0.66715302  0.33434498  1
  Cr  Cr9  1  0.33448538  0.99958322  0.00045926  1
  Ni  Ni10  1  0.50342796  0.16645507  0.16750945  1
  Cr  Cr11  1  0.33505419  0.99954285  0.33089081  1
  Cr  Cr12  1  0.33681558  0.33229895  0.99695336  1
  Fe  Fe13  1  0.50304754  0.50055095  0.16620000  1
  Cr  Cr14  1  0.33684447  0.33354276  0.33533182  1
  Fe  Fe15  1  0.33625135  0.66819111  0.99876317  1
  Ni  Ni16  1  0.50163803  0.83083328  0.16707277  1
  Fe  Fe17  1  0.33668259  0.66646409  0.33294473  1
  Ni  Ni18  1  0.66515500  0.00037134  0.00092937  1
  Cr  Cr19  1  0.83160202  0.17075241  0.16592199  1
  Fe  Fe20  1  0.66537419  0.99958604  0.33244563  1
  Ni  Ni21  1  0.66679902  0.33443958  0.99938900  1
  Ni  Ni22  1  0.83180689  0.50040314  0.16628281  1
  Ni  Ni23  1  0.66562388  0.33631686  0.33320891  1
  Ni  Ni24  1  0.66885922  0.66572464  0.00079629  1
  Fe  Fe25  1  0.83154839  0.83177133  0.16475485  1
  Ni  Ni26  1  0.66756118  0.66365749  0.33203075  1
  Cr  Cr27  1  0.16816286  0.16777759  0.50158902  1
  Fe  Fe28  1  1.00018547  0.99919328  0.66964363  1
  Ni  Ni29  1  0.16654927  0.16641033  0.83243870  1
  Fe  Fe30  1  0.16808218  0.50108830  0.50138285  1
  Cr  Cr31  1  0.99952318  0.33633024  0.66771238  1
  Fe  Fe32  1  0.16646605  0.50243344  0.83385350  1
  Cr  Cr33  1  0.16950580  0.83203229  0.50315061  1
  Ni  Ni34  1  0.00072330  0.66507810  0.66705952  1
  Ni  Ni35  1  0.16841524  0.83236104  0.83289508  1
  Ni  Ni36  1  0.50054224  0.16759116  0.50097877  1
  Ni  Ni37  1  0.33457915  0.00161261  0.66908667  1
  Ni  Ni38  1  0.50103242  0.16539231  0.83245316  1
  Fe  Fe39  1  0.50193941  0.50114994  0.50093990  1
  Fe  Fe40  1  0.33509997  0.33464148  0.66837076  1
  Fe  Fe41  1  0.50165717  0.50270045  0.83371028  1
  Cr  Cr42  1  0.50069360  0.83291540  0.50189638  1
  Ni  Ni43  1  0.33281822  0.66670689  0.66860688  1
  Ni  Ni44  1  0.49939354  0.83251174  0.83229289  1
  Cr  Cr45  1  0.83077592  0.16763878  0.49917898  1
  Ni  Ni46  1  0.66292977  0.00131103  0.66778626  1
  Ni  Ni47  1  0.83251789  0.16810075  0.83509781  1
  Ni  Ni48  1  0.83240966  0.50065544  0.49932291  1
  Cr  Cr49  1  0.66585394  0.33450256  0.66868952  1
  Ni  Ni50  1  0.83346533  0.50061532  0.83508305  1
  Cr  Cr51  1  0.83043596  0.83173125  0.50357343  1
  Ni  Ni52  1  0.66720387  0.66513570  0.66766737  1
  Cr  Cr53  1  0.83092760  0.83232652  0.83198312  1
" 