5065,Ni43Fe48Cr7_7,-236.860644886354, 215.323641037726,Ni43Fe48Cr7,"# generated using pymatgen
 data_Cr5Fe26Ni23
_symmetry_space_group_name_H-M   'P 1'
_cell_length_a   7.42168203
_cell_length_b   7.42168203
_cell_length_c   10.49584338
_cell_angle_alpha   90.00000000
_cell_angle_beta   90.00000000
_cell_angle_gamma   90.00000000
_symmetry_Int_Tables_number   1
_chemical_formula_structural   Cr5Fe26Ni23
_chemical_formula_sum   'Cr5 Fe26 Ni23'
_cell_volume   578.12537107
_cell_formula_units_Z   1
loop_
 _symmetry_equiv_pos_site_id
 _symmetry_equiv_pos_as_xyz
  1  'x, y, z'
loop_
 _atom_site_type_symbol
 _atom_site_label
 _atom_site_symmetry_multiplicity
 _atom_site_fract_x
 _atom_site_fract_y
 _atom_site_fract_z
 _atom_site_occupancy
  Fe  Fe0  1  1.00230644  1.00265856  1.00249485  1
  Ni  Ni1  1  0.16976134  0.16838941  0.17007782  1
  Fe  Fe2  1  0.00372577  0.00324803  0.33697459  1
  Fe  Fe3  1  1.00141472  0.33417944  1.00302467  1
  Cr  Cr4  1  0.16853359  0.50330248  0.16894248  1
  Ni  Ni5  1  1.00302371  0.33684122  0.33771454  1
  Fe  Fe6  1  0.00331802  0.67245333  1.00301231  1
  Ni  Ni7  1  0.16879790  0.83873520  0.16950657  1
  Ni  Ni8  1  1.00145131  0.66986085  0.33634630  1
  Ni  Ni9  1  0.33619639  0.00346924  0.00340216  1
  Fe  Fe10  1  0.50278637  0.16752259  0.16950641  1
  Fe  Fe11  1  0.33429456  1.00202565  0.33588719  1
  Fe  Fe12  1  0.33610867  0.33267648  0.00324761  1
  Cr  Cr13  1  0.50360458  0.50156407  0.17133008  1
  Ni  Ni14  1  0.33509600  0.33494578  0.33730739  1
  Fe  Fe15  1  0.33560398  0.67394382  1.00265132  1
  Ni  Ni16  1  0.50254345  0.83850799  0.17035795  1
  Fe  Fe17  1  0.33481488  0.67068520  0.33830311  1
  Ni  Ni18  1  0.66887520  0.00335453  1.00218949  1
  Fe  Fe19  1  0.83728361  0.16911701  0.16925004  1
  Fe  Fe20  1  0.67111021  1.00190628  0.33542553  1
  Fe  Fe21  1  0.67151477  0.33310973  1.00186974  1
  Ni  Ni22  1  0.83698032  0.50204586  0.16968437  1
  Fe  Fe23  1  0.67249501  0.33738040  0.33781069  1
  Cr  Cr24  1  0.67223063  0.67126183  0.00333823  1
  Ni  Ni25  1  0.83752618  0.83764713  0.17027616  1
  Fe  Fe26  1  0.67113147  0.67007761  0.33724881  1
  Fe  Fe27  1  0.16815511  0.16908918  0.50256794  1
  Ni  Ni28  1  0.00441844  1.00291781  0.66906186  1
  Fe  Fe29  1  0.16882600  0.16898968  0.83680830  1
  Ni  Ni30  1  0.16941918  0.50300670  0.50352078  1
  Fe  Fe31  1  1.00276321  0.33531062  0.66927908  1
  Fe  Fe32  1  0.16702355  0.50246986  0.83624579  1
  Ni  Ni33  1  0.16873540  0.83667298  0.50225796  1
  Fe  Fe34  1  1.00271577  0.67032879  0.66859150  1
  Fe  Fe35  1  0.16919901  0.83756156  0.83602917  1
  Cr  Cr36  1  0.50314347  0.16931093  0.50323960  1
  Ni  Ni37  1  0.33509169  1.00228777  0.67027428  1
  Ni  Ni38  1  0.50229179  0.16875575  0.83691154  1
  Ni  Ni39  1  0.50284125  0.50319523  0.50300008  1
  Fe  Fe40  1  0.33480370  0.33480806  0.66895179  1
  Cr  Cr41  1  0.50205203  0.50143760  0.83520142  1
  Ni  Ni42  1  0.50321548  0.83640667  0.50377376  1
  Fe  Fe43  1  0.33547675  0.67089366  0.66786855  1
  Fe  Fe44  1  0.50403203  0.83927873  0.83596699  1
  Fe  Fe45  1  0.83785391  0.16957207  0.50436398  1
  Fe  Fe46  1  0.67058518  0.00312601  0.67124229  1
  Ni  Ni47  1  0.83596183  0.16863507  0.83585680  1
  Ni  Ni48  1  0.83691546  0.50348926  0.50355075  1
  Ni  Ni49  1  0.67131725  0.33794671  0.66993488  1
  Ni  Ni50  1  0.83843017  0.50282451  0.83600426  1
  Ni  Ni51  1  0.83725995  0.83698828  0.50324241  1
  Fe  Fe52  1  0.67126617  0.67115301  0.66889857  1
  Ni  Ni53  1  0.83871664  0.83767325  0.83521476  1
" 