3845,Ni43Fe27Cr29_8,-228.62596326273, 183.555132646635,Ni43Fe27Cr29,"# generated using pymatgen
 data_Cr17Fe14Ni23
_symmetry_space_group_name_H-M   'P 1'
_cell_length_a   7.46690127
_cell_length_b   7.46690127
_cell_length_c   10.55979305
_cell_angle_alpha   90.00000000
_cell_angle_beta   90.00000000
_cell_angle_gamma   90.00000000
_symmetry_Int_Tables_number   1
_chemical_formula_structural   Cr17Fe14Ni23
_chemical_formula_sum   'Cr17 Fe14 Ni23'
_cell_volume   588.75719213
_cell_formula_units_Z   1
loop_
 _symmetry_equiv_pos_site_id
 _symmetry_equiv_pos_as_xyz
  1  'x, y, z'
loop_
 _atom_site_type_symbol
 _atom_site_label
 _atom_site_symmetry_multiplicity
 _atom_site_fract_x
 _atom_site_fract_y
 _atom_site_fract_z
 _atom_site_occupancy
  Ni  Ni0  1  0.00198825  0.99782483  0.99864233  1
  Ni  Ni1  1  0.16658201  0.16608608  0.16764436  1
  Ni  Ni2  1  0.00065485  0.00128284  0.33441284  1
  Cr  Cr3  1  0.00298957  0.33419900  0.00239202  1
  Fe  Fe4  1  0.16656628  0.49835242  0.16457976  1
  Fe  Fe5  1  0.00029129  0.33235436  0.33416221  1
  Fe  Fe6  1  0.00018592  0.66676228  0.99884176  1
  Cr  Cr7  1  0.16561799  0.83447596  0.16510143  1
  Cr  Cr8  1  0.99612488  0.66505988  0.33361742  1
  Cr  Cr9  1  0.33088986  0.00048829  0.99899183  1
  Cr  Cr10  1  0.49758181  0.16664016  0.16702082  1
  Ni  Ni11  1  0.33219210  0.00053921  0.33458693  1
  Ni  Ni12  1  0.33037921  0.33609165  0.00024623  1
  Ni  Ni13  1  0.49920929  0.50239516  0.16425145  1
  Cr  Cr14  1  0.33069233  0.33255746  0.33347475  1
  Fe  Fe15  1  0.33261950  0.66415186  0.99844357  1
  Fe  Fe16  1  0.50209848  0.83171109  0.16818708  1
  Cr  Cr17  1  0.33648870  0.66742971  0.33334948  1
  Cr  Cr18  1  0.66841915  0.99600836  0.00066935  1
  Cr  Cr19  1  0.83645193  0.16454069  0.16823849  1
  Fe  Fe20  1  0.66735008  0.99598859  0.33513076  1
  Cr  Cr21  1  0.66548825  0.33737429  0.99882300  1
  Ni  Ni22  1  0.83270641  0.50346621  0.16840517  1
  Cr  Cr23  1  0.66880816  0.33710509  0.33422750  1
  Cr  Cr24  1  0.66741999  0.66651071  0.00086902  1
  Ni  Ni25  1  0.83383710  0.83182897  0.16705437  1
  Ni  Ni26  1  0.66741189  0.66789634  0.33261667  1
  Fe  Fe27  1  0.16460689  0.16577994  0.49920959  1
  Ni  Ni28  1  0.00105755  0.99733285  0.66685355  1
  Ni  Ni29  1  0.16703776  0.16672891  0.83369408  1
  Fe  Fe30  1  0.16597925  0.50096216  0.50305326  1
  Cr  Cr31  1  0.00001921  0.33386193  0.66449668  1
  Ni  Ni32  1  0.16845132  0.50213230  0.83368349  1
  Fe  Fe33  1  0.16414898  0.83338071  0.50067009  1
  Ni  Ni34  1  0.99921407  0.66809204  0.66766188  1
  Fe  Fe35  1  0.16465052  0.83160401  0.83269517  1
  Fe  Fe36  1  0.50184474  0.16809066  0.50039116  1
  Cr  Cr37  1  0.33038586  0.99966343  0.66561092  1
  Cr  Cr38  1  0.49821620  0.16961438  0.83205430  1
  Ni  Ni39  1  0.50046209  0.50106364  0.50449782  1
  Ni  Ni40  1  0.33420699  0.33600640  0.66674324  1
  Fe  Fe41  1  0.49779730  0.50111555  0.83097450  1
  Fe  Fe42  1  0.50267789  0.83103553  0.50003887  1
  Ni  Ni43  1  0.33362333  0.66471570  0.66738955  1
  Ni  Ni44  1  0.49822026  0.82885554  0.83274944  1
  Ni  Ni45  1  0.83472306  0.16513474  0.49897926  1
  Cr  Cr46  1  0.66854484  0.99843091  0.66587252  1
  Cr  Cr47  1  0.83526707  0.16629446  0.83267457  1
  Ni  Ni48  1  0.83105572  0.50122469  0.50082210  1
  Ni  Ni49  1  0.66526965  0.33782878  0.66582667  1
  Ni  Ni50  1  0.83411332  0.50394813  0.83072369  1
  Ni  Ni51  1  0.83435463  0.83358832  0.50056698  1
  Ni  Ni52  1  0.66710994  0.66414133  0.66653780  1
  Fe  Fe53  1  0.83644542  0.83078062  0.83207735  1
" 