2818,Ni43Fe27Cr29_19,-227.898855696533, 173.43430251844,Ni43Fe27Cr29,"# generated using pymatgen
 data_Cr17Fe14Ni23
_symmetry_space_group_name_H-M   'P 1'
_cell_length_a   7.47249697
_cell_length_b   7.47249697
_cell_length_c   10.56770656
_cell_angle_alpha   90.00000000
_cell_angle_beta   90.00000000
_cell_angle_gamma   90.00000000
_symmetry_Int_Tables_number   1
_chemical_formula_structural   Cr17Fe14Ni23
_chemical_formula_sum   'Cr17 Fe14 Ni23'
_cell_volume   590.08182906
_cell_formula_units_Z   1
loop_
 _symmetry_equiv_pos_site_id
 _symmetry_equiv_pos_as_xyz
  1  'x, y, z'
loop_
 _atom_site_type_symbol
 _atom_site_label
 _atom_site_symmetry_multiplicity
 _atom_site_fract_x
 _atom_site_fract_y
 _atom_site_fract_z
 _atom_site_occupancy
  Fe  Fe0  1  -0.00024267  0.00014401  -0.00020408  1
  Fe  Fe1  1  0.16340099  0.16887751  0.16714809  1
  Cr  Cr2  1  0.99823798  0.00297735  0.33105963  1
  Fe  Fe3  1  0.99929365  0.33188285  0.00015024  1
  Ni  Ni4  1  0.16612132  0.50052359  0.16800433  1
  Ni  Ni5  1  0.99937256  0.33550121  0.33226260  1
  Cr  Cr6  1  0.99869559  0.66485411  0.99799598  1
  Ni  Ni7  1  0.16401653  0.82934113  0.16754322  1
  Ni  Ni8  1  0.99960564  0.66130783  0.33200986  1
  Cr  Cr9  1  0.33072834  0.99791963  0.00315266  1
  Cr  Cr10  1  0.50016325  0.17062034  0.16752570  1
  Cr  Cr11  1  0.33410887  0.00009889  0.33157124  1
  Cr  Cr12  1  0.32930018  0.33510304  -0.00025691  1
  Ni  Ni13  1  0.49955683  0.50218602  0.16863200  1
  Ni  Ni14  1  0.33122468  0.33647447  0.33436142  1
  Cr  Cr15  1  0.33529622  0.66581132  0.99808891  1
  Ni  Ni16  1  0.50068920  0.82735425  0.16665880  1
  Ni  Ni17  1  0.33335076  0.66251905  0.33146021  1
  Cr  Cr18  1  0.66838217  0.99632697  -0.00006742  1
  Ni  Ni19  1  0.83601057  0.16761849  0.16500346  1
  Cr  Cr20  1  0.66648371  0.00002719  0.33318549  1
  Cr  Cr21  1  0.66903444  0.33646064  0.00021073  1
  Fe  Fe22  1  0.83300655  0.50138530  0.16808864  1
  Fe  Fe23  1  0.66742325  0.33468688  0.33374300  1
  Ni  Ni24  1  0.66748219  0.66604886  0.00070190  1
  Ni  Ni25  1  0.83429144  0.83130110  0.16535015  1
  Fe  Fe26  1  0.66610756  0.66357012  0.33090751  1
  Ni  Ni27  1  0.16831046  0.16909631  0.49997427  1
  Ni  Ni28  1  0.99944883  0.00291614  0.66866497  1
  Ni  Ni29  1  0.16499517  0.16286293  0.83304064  1
  Ni  Ni30  1  0.16704980  0.49729223  0.49819853  1
  Cr  Cr31  1  0.00010171  0.33304069  0.66589390  1
  Fe  Fe32  1  0.16684880  0.49665306  0.83241509  1
  Cr  Cr33  1  0.16604763  0.83175212  0.49909061  1
  Cr  Cr34  1  0.99901760  0.66365749  0.66713593  1
  Ni  Ni35  1  0.16409311  0.83701828  0.83156164  1
  Ni  Ni36  1  0.49933225  0.16963427  0.50210783  1
  Ni  Ni37  1  0.33298864  0.00188495  0.66568669  1
  Cr  Cr38  1  0.49860640  0.16803642  0.82981569  1
  Fe  Fe39  1  0.49861127  0.49622434  0.49821085  1
  Ni  Ni40  1  0.33334066  0.33107281  0.66550738  1
  Ni  Ni41  1  0.50291456  0.49934654  0.83224110  1
  Fe  Fe42  1  0.49884615  0.83343384  0.49914102  1
  Cr  Cr43  1  0.33332271  0.66387570  0.66820754  1
  Fe  Fe44  1  0.49930105  0.83254770  0.83313038  1
  Ni  Ni45  1  0.83083694  0.16959231  0.50219478  1
  Fe  Fe46  1  0.66614521  0.00197006  0.66493002  1
  Fe  Fe47  1  0.83568733  0.16651550  0.83267636  1
  Ni  Ni48  1  0.83190348  0.49718964  0.49551809  1
  Fe  Fe49  1  0.66621100  0.33331901  0.66541230  1
  Ni  Ni50  1  0.83029416  0.50000649  0.83494299  1
  Cr  Cr51  1  0.83499006  0.83165213  0.49993176  1
  Cr  Cr52  1  0.66652490  0.66476455  0.66729993  1
  Fe  Fe53  1  0.83339839  0.83403240  0.83309245  1
" 