4615,Ni43Fe57_6,-242.124282156449, 225.961178092571,Ni43Fe57,"# generated using pymatgen
 data_Fe23Ni31
_symmetry_space_group_name_H-M   'P 1'
_cell_length_a   7.40328557
_cell_length_b   7.40328557
_cell_length_c   10.46982685
_cell_angle_alpha   90.00000000
_cell_angle_beta   90.00000000
_cell_angle_gamma   90.00000000
_symmetry_Int_Tables_number   1
_chemical_formula_structural   Fe23Ni31
_chemical_formula_sum   'Fe23 Ni31'
_cell_volume   573.83694138
_cell_formula_units_Z   1
loop_
 _symmetry_equiv_pos_site_id
 _symmetry_equiv_pos_as_xyz
  1  'x, y, z'
loop_
 _atom_site_type_symbol
 _atom_site_label
 _atom_site_symmetry_multiplicity
 _atom_site_fract_x
 _atom_site_fract_y
 _atom_site_fract_z
 _atom_site_occupancy
  Fe  Fe0  1  0.00491047  0.00435356  0.00432728  1
  Ni  Ni1  1  0.17129340  0.17090052  0.17084668  1
  Fe  Fe2  1  0.00479308  1.00376070  0.33815458  1
  Fe  Fe3  1  1.00430460  0.33683732  1.00348531  1
  Fe  Fe4  1  0.17059467  0.50394129  0.17135213  1
  Fe  Fe5  1  0.00483742  0.33757054  0.33838461  1
  Ni  Ni6  1  1.00362638  0.67084592  1.00304900  1
  Ni  Ni7  1  0.17076968  0.83701255  0.17142841  1
  Ni  Ni8  1  0.00457121  0.67136077  0.33925921  1
  Ni  Ni9  1  0.33906690  0.00582988  0.00460403  1
  Ni  Ni10  1  0.50478029  0.17177189  0.17047673  1
  Fe  Fe11  1  0.33744742  1.00395119  0.33719853  1
  Ni  Ni12  1  0.33745497  0.33700764  1.00401839  1
  Fe  Fe13  1  0.50361490  0.50338620  0.17076045  1
  Ni  Ni14  1  0.33736444  0.33789678  0.33792529  1
  Fe  Fe15  1  0.33745406  0.67187704  1.00347261  1
  Fe  Fe16  1  0.50455372  0.83975622  0.17089615  1
  Ni  Ni17  1  0.33648392  0.66972172  0.33695460  1
  Ni  Ni18  1  0.67098297  1.00421754  1.00363376  1
  Ni  Ni19  1  0.83685107  0.17088553  0.17133660  1
  Ni  Ni20  1  0.67184957  0.00452250  0.33803312  1
  Fe  Fe21  1  0.67081648  0.33695333  1.00415761  1
  Fe  Fe22  1  0.83870098  0.50442038  0.17037822  1
  Fe  Fe23  1  0.67050538  0.33737545  0.33740053  1
  Fe  Fe24  1  0.67040209  0.67127184  1.00317523  1
  Ni  Ni25  1  0.83811405  0.83777253  0.17010207  1
  Fe  Fe26  1  0.67069316  0.67145539  0.33837918  1
  Ni  Ni27  1  0.17096847  0.17195907  0.50424519  1
  Ni  Ni28  1  1.00296643  0.00499135  0.67114238  1
  Fe  Fe29  1  0.17125656  0.17186834  0.83740868  1
  Ni  Ni30  1  0.17135737  0.50476779  0.50438165  1
  Ni  Ni31  1  0.00533960  0.33665629  0.67087914  1
  Ni  Ni32  1  0.17134476  0.50532130  0.83821942  1
  Ni  Ni33  1  0.17135302  0.83618203  0.50413283  1
  Fe  Fe34  1  0.00528755  0.67037329  0.67105713  1
  Ni  Ni35  1  0.17221607  0.83637784  0.83735863  1
  Ni  Ni36  1  0.50498019  0.17109685  0.50480880  1
  Fe  Fe37  1  0.33709574  1.00368012  0.67110102  1
  Fe  Fe38  1  0.50379149  0.17156815  0.83848745  1
  Fe  Fe39  1  0.50307518  0.50453392  0.50497006  1
  Ni  Ni40  1  0.33679321  0.33840714  0.67098466  1
  Ni  Ni41  1  0.50402902  0.50495729  0.83745716  1
  Ni  Ni42  1  0.50422904  0.83741785  0.50341949  1
  Ni  Ni43  1  0.33854738  0.66965915  0.67147226  1
  Ni  Ni44  1  0.50316030  0.83674205  0.83842087  1
  Ni  Ni45  1  0.83697092  0.17109077  0.50337737  1
  Fe  Fe46  1  0.67098388  0.00444493  0.67036434  1
  Ni  Ni47  1  0.83717519  0.17208146  0.83820393  1
  Fe  Fe48  1  0.83833101  0.50461243  0.50498047  1
  Fe  Fe49  1  0.67144081  0.33795172  0.67136254  1
  Ni  Ni50  1  0.83754622  0.50284150  0.83761793  1
  Ni  Ni51  1  0.83733625  0.83781541  0.50508759  1
  Ni  Ni52  1  0.67064884  0.67203145  0.67061877  1
  Fe  Fe53  1  0.83748027  0.83645631  0.83779195  1
" 