3881,Ni43Fe34Cr21_6,-231.366828479654, 196.90665295545,Ni43Fe34Cr21,"# generated using pymatgen
 data_Cr13Fe18Ni23
_symmetry_space_group_name_H-M   'P 1'
_cell_length_a   7.44413694
_cell_length_b   7.44413694
_cell_length_c   10.52759942
_cell_angle_alpha   90.00000000
_cell_angle_beta   90.00000000
_cell_angle_gamma   90.00000000
_symmetry_Int_Tables_number   1
_chemical_formula_structural   Cr13Fe18Ni23
_chemical_formula_sum   'Cr13 Fe18 Ni23'
_cell_volume   583.38876198
_cell_formula_units_Z   1
loop_
 _symmetry_equiv_pos_site_id
 _symmetry_equiv_pos_as_xyz
  1  'x, y, z'
loop_
 _atom_site_type_symbol
 _atom_site_label
 _atom_site_symmetry_multiplicity
 _atom_site_fract_x
 _atom_site_fract_y
 _atom_site_fract_z
 _atom_site_occupancy
  Fe  Fe0  1  0.00359565  0.00173675  0.00271000  1
  Ni  Ni1  1  0.16977580  0.16497529  0.16623251  1
  Cr  Cr2  1  0.00421789  1.00071483  0.33508934  1
  Ni  Ni3  1  0.99927751  0.33547025  1.00145305  1
  Cr  Cr4  1  0.16505810  0.50132203  0.16499443  1
  Cr  Cr5  1  1.00054281  0.33456994  0.33506951  1
  Ni  Ni6  1  0.00297734  0.66728060  0.00168792  1
  Ni  Ni7  1  0.16929997  0.83744353  0.16553426  1
  Ni  Ni8  1  0.00164272  0.66927917  0.33380174  1
  Ni  Ni9  1  0.33731369  0.99863033  0.00306765  1
  Fe  Fe10  1  0.50016037  0.16732831  0.16646818  1
  Fe  Fe11  1  0.33488962  1.00068592  0.33466209  1
  Fe  Fe12  1  0.33234861  0.33486801  0.99977518  1
  Cr  Cr13  1  0.50341925  0.50288445  0.16698278  1
  Cr  Cr14  1  0.33486810  0.33309860  0.33479663  1
  Ni  Ni15  1  0.33458084  0.67218927  0.99801529  1
  Ni  Ni16  1  0.50218362  0.83736187  0.16735917  1
  Cr  Cr17  1  0.33294124  0.67106391  0.33701236  1
  Fe  Fe18  1  0.66764474  0.99947464  1.00153495  1
  Fe  Fe19  1  0.83584998  0.16881451  0.16724107  1
  Cr  Cr20  1  0.66686251  0.00271490  0.33283068  1
  Cr  Cr21  1  0.66966632  0.33330789  0.99839764  1
  Ni  Ni22  1  0.83412026  0.50279759  0.16986077  1
  Ni  Ni23  1  0.66774575  0.33444694  0.33643652  1
  Fe  Fe24  1  0.66856458  0.66914199  1.00138869  1
  Fe  Fe25  1  0.83674171  0.83197602  0.16675855  1
  Ni  Ni26  1  0.66763098  0.66793294  0.33303589  1
  Fe  Fe27  1  0.16728276  0.16840709  0.50560578  1
  Ni  Ni28  1  0.00311738  0.00254147  0.66848514  1
  Cr  Cr29  1  0.17017181  0.16796019  0.83418768  1
  Ni  Ni30  1  0.16836184  0.50264593  0.50366474  1
  Ni  Ni31  1  1.00128772  0.33601986  0.66844088  1
  Ni  Ni32  1  0.16626226  0.50114124  0.83649863  1
  Ni  Ni33  1  0.16981671  0.83553267  0.50463013  1
  Fe  Fe34  1  0.00607098  0.66769143  0.66933623  1
  Fe  Fe35  1  0.17116999  0.83389918  0.83482206  1
  Ni  Ni36  1  0.49879782  0.16830991  0.50109975  1
  Ni  Ni37  1  0.33545903  1.00043324  0.66568039  1
  Ni  Ni38  1  0.49980048  0.16639107  0.83631812  1
  Fe  Fe39  1  0.50095051  0.50087221  0.50237636  1
  Ni  Ni40  1  0.33516456  0.33658492  0.66908351  1
  Fe  Fe41  1  0.49981297  0.50241352  0.83461510  1
  Fe  Fe42  1  0.50053570  0.83404427  0.50241183  1
  Fe  Fe43  1  0.33314505  0.66819458  0.66964904  1
  Ni  Ni44  1  0.50126887  0.83572075  0.83495962  1
  Ni  Ni45  1  0.83215806  0.16932303  0.50494791  1
  Cr  Cr46  1  0.66736674  0.00260132  0.66987976  1
  Fe  Fe47  1  0.83592703  0.17033121  0.83324272  1
  Cr  Cr48  1  0.83453246  0.50184177  0.50083682  1
  Fe  Fe49  1  0.66622761  0.33365492  0.66944509  1
  Ni  Ni50  1  0.83630865  0.50243771  0.83323718  1
  Cr  Cr51  1  0.83600918  0.83317250  0.50174573  1
  Fe  Fe52  1  0.66562324  0.66597513  0.66963025  1
  Cr  Cr53  1  0.83654798  0.83344575  0.83607006  1
" 