8869,Ni43Fe5Cr50_13,-218.693124413494, 139.649123523901,Ni43Fe5Cr50,"# generated using pymatgen
 data_Cr28Fe3Ni23
_symmetry_space_group_name_H-M   'P 1'
_cell_length_a   7.52386197
_cell_length_b   7.52386197
_cell_length_c   10.64034764
_cell_angle_alpha   90.00000000
_cell_angle_beta   90.00000000
_cell_angle_gamma   90.00000000
_symmetry_Int_Tables_number   1
_chemical_formula_structural   Cr28Fe3Ni23
_chemical_formula_sum   'Cr28 Fe3 Ni23'
_cell_volume   602.33410885
_cell_formula_units_Z   1
loop_
 _symmetry_equiv_pos_site_id
 _symmetry_equiv_pos_as_xyz
  1  'x, y, z'
loop_
 _atom_site_type_symbol
 _atom_site_label
 _atom_site_symmetry_multiplicity
 _atom_site_fract_x
 _atom_site_fract_y
 _atom_site_fract_z
 _atom_site_occupancy
  Ni  Ni0  1  0.99601185  0.99346476  0.99587863  1
  Cr  Cr1  1  0.16237308  0.16247851  0.16407121  1
  Ni  Ni2  1  0.99452523  0.99290936  0.32915934  1
  Cr  Cr3  1  -0.00317943  0.33107575  0.99406760  1
  Cr  Cr4  1  0.16496245  0.49767636  0.16605165  1
  Fe  Fe5  1  -0.00309707  0.33022842  0.32940430  1
  Cr  Cr6  1  0.99454694  0.66451701  0.99380205  1
  Cr  Cr7  1  0.16299414  0.82883979  0.16351624  1
  Ni  Ni8  1  0.99534665  0.66650216  0.32966252  1
  Ni  Ni9  1  0.32653376  0.99574895  0.99502765  1
  Cr  Cr10  1  0.49626300  0.16316525  0.15827412  1
  Cr  Cr11  1  0.33099726  -0.00238674  0.33231578  1
  Ni  Ni12  1  0.33060582  0.33001510  0.99577669  1
  Cr  Cr13  1  0.49460101  0.49783741  0.16056382  1
  Ni  Ni14  1  0.33051013  0.33090486  0.33093732  1
  Ni  Ni15  1  0.32888870  0.66273912  0.99412586  1
  Cr  Cr16  1  0.49604122  0.82756685  0.15927412  1
  Ni  Ni17  1  0.32943783  0.66055513  0.33209145  1
  Fe  Fe18  1  0.66506261  0.99357338  0.99538393  1
  Cr  Cr19  1  0.83028174  0.16085405  0.16217142  1
  Cr  Cr20  1  0.66342080  0.99467410  0.33173714  1
  Ni  Ni21  1  0.66249121  0.33183439  0.99494415  1
  Cr  Cr22  1  0.82918223  0.49761223  0.16350445  1
  Cr  Cr23  1  0.65916081  0.32979418  0.33076289  1
  Ni  Ni24  1  0.66504184  0.66266466  0.99571589  1
  Ni  Ni25  1  0.83050645  0.83043245  0.16211132  1
  Cr  Cr26  1  0.66332748  0.66403688  0.33043419  1
  Cr  Cr27  1  0.16024596  0.16445729  0.49386797  1
  Cr  Cr28  1  0.99582029  0.99175836  0.66454641  1
  Cr  Cr29  1  0.16294133  0.16189382  0.83092126  1
  Cr  Cr30  1  0.16230544  0.49803495  0.49515632  1
  Fe  Fe31  1  0.99548109  0.33296501  0.66524661  1
  Ni  Ni32  1  0.16249733  0.49957140  0.82854034  1
  Cr  Cr33  1  0.16207091  0.82654040  0.49574623  1
  Ni  Ni34  1  0.99617282  0.66299832  0.66596808  1
  Ni  Ni35  1  0.16251562  0.82655218  0.83063773  1
  Ni  Ni36  1  0.49776022  0.16391854  0.49766156  1
  Cr  Cr37  1  0.33124938  0.99494144  0.66112969  1
  Cr  Cr38  1  0.49859361  0.16179198  0.83162289  1
  Ni  Ni39  1  0.49455141  0.49675678  0.49590073  1
  Cr  Cr40  1  0.33099583  0.33063429  0.66240585  1
  Cr  Cr41  1  0.49677586  0.49739947  0.83175089  1
  Ni  Ni42  1  0.49691080  0.82791754  0.49746374  1
  Ni  Ni43  1  0.32717596  0.66188074  0.66276661  1
  Cr  Cr44  1  0.49547018  0.82931117  0.83098407  1
  Cr  Cr45  1  0.83012139  0.16261760  0.49807458  1
  Ni  Ni46  1  0.66407320  -0.00364147  0.66095351  1
  Cr  Cr47  1  0.82715407  0.16320013  0.82841973  1
  Cr  Cr48  1  0.83185376  0.49651529  0.49737107  1
  Ni  Ni49  1  0.66263045  0.32965346  0.66214205  1
  Ni  Ni50  1  0.82973971  0.49718043  0.82830263  1
  Ni  Ni51  1  0.82982580  0.82977928  0.49597792  1
  Cr  Cr52  1  0.66441559  0.66331334  0.66136142  1
  Ni  Ni53  1  0.82993119  0.82886084  0.83043131  1
" 