4276,Ni43Fe5Cr50_8,-218.909478333114, 145.486131687176,Ni43Fe5Cr50,"# generated using pymatgen
 data_Cr28Fe3Ni23
_symmetry_space_group_name_H-M   'P 1'
_cell_length_a   7.52037157
_cell_length_b   7.52037157
_cell_length_c   10.63541147
_cell_angle_alpha   90.00000000
_cell_angle_beta   90.00000000
_cell_angle_gamma   90.00000000
_symmetry_Int_Tables_number   1
_chemical_formula_structural   Cr28Fe3Ni23
_chemical_formula_sum   'Cr28 Fe3 Ni23'
_cell_volume   601.49620994
_cell_formula_units_Z   1
loop_
 _symmetry_equiv_pos_site_id
 _symmetry_equiv_pos_as_xyz
  1  'x, y, z'
loop_
 _atom_site_type_symbol
 _atom_site_label
 _atom_site_symmetry_multiplicity
 _atom_site_fract_x
 _atom_site_fract_y
 _atom_site_fract_z
 _atom_site_occupancy
  Cr  Cr0  1  0.99587649  0.99543246  0.99073908  1
  Cr  Cr1  1  0.16474397  0.16546171  0.15946063  1
  Cr  Cr2  1  0.99536405  -0.00334663  0.33060462  1
  Cr  Cr3  1  -0.00138771  0.33190791  0.99139202  1
  Ni  Ni4  1  0.16818307  0.49677579  0.16221473  1
  Cr  Cr5  1  -0.00264055  0.33188634  0.33278074  1
  Cr  Cr6  1  -0.00149748  0.66284149  0.99422123  1
  Cr  Cr7  1  0.16291614  0.82864999  0.16124660  1
  Cr  Cr8  1  -0.00201858  0.66147869  0.32877189  1
  Ni  Ni9  1  0.32948007  0.99370925  0.99340894  1
  Cr  Cr10  1  0.49455808  0.16498367  0.15947833  1
  Cr  Cr11  1  0.33043506  0.99420872  0.32873514  1
  Ni  Ni12  1  0.32803800  0.33396916  0.99348383  1
  Ni  Ni13  1  0.49215052  0.49866903  0.16061431  1
  Cr  Cr14  1  0.32993537  0.33323473  0.33275161  1
  Ni  Ni15  1  0.32978627  0.66243144  0.99400214  1
  Ni  Ni16  1  0.49491124  0.82691223  0.15993510  1
  Cr  Cr17  1  0.33070014  0.66156631  0.33201952  1
  Cr  Cr18  1  0.66354465  0.99364593  0.99340733  1
  Cr  Cr19  1  0.82993022  0.16365761  0.16278381  1
  Cr  Cr20  1  0.66209071  0.99533627  0.32970349  1
  Cr  Cr21  1  0.66319801  0.33326089  0.99175250  1
  Cr  Cr22  1  0.83054057  0.49794827  0.16125885  1
  Cr  Cr23  1  0.66265599  0.33192983  0.33234198  1
  Cr  Cr24  1  0.66128921  0.66428341  0.99341683  1
  Ni  Ni25  1  0.82707621  0.82928919  0.16292641  1
  Cr  Cr26  1  0.66101079  0.66204442  0.32842938  1
  Cr  Cr27  1  0.16205312  0.16315449  0.50026790  1
  Fe  Fe28  1  -0.00332571  0.99563267  0.66764618  1
  Ni  Ni29  1  0.16310974  0.16450673  0.82893466  1
  Fe  Fe30  1  0.16301603  0.49741420  0.50185082  1
  Ni  Ni31  1  -0.00286931  0.33152708  0.66417317  1
  Ni  Ni32  1  0.16434427  0.49661387  0.82670079  1
  Cr  Cr33  1  0.16173848  0.82774846  0.50102455  1
  Ni  Ni34  1  -0.00311686  0.65995927  0.66576409  1
  Ni  Ni35  1  0.16404820  0.82763883  0.82836743  1
  Cr  Cr36  1  0.49587016  0.16393990  0.49988109  1
  Cr  Cr37  1  0.33065888  0.99489731  0.66784760  1
  Cr  Cr38  1  0.49412702  0.16520710  0.83087101  1
  Ni  Ni39  1  0.49779187  0.49700566  0.50152103  1
  Ni  Ni40  1  0.32610695  0.33376456  0.66471304  1
  Ni  Ni41  1  0.49320284  0.50019403  0.82796423  1
  Cr  Cr42  1  0.49733043  0.82724391  0.50143914  1
  Ni  Ni43  1  0.32921943  0.66010532  0.66543210  1
  Ni  Ni44  1  0.49588401  0.82676947  0.82787523  1
  Fe  Fe45  1  0.82918940  0.16356075  0.50131076  1
  Ni  Ni46  1  0.66682977  0.99415610  0.66626071  1
  Ni  Ni47  1  0.83306036  0.16284491  0.82429118  1
  Ni  Ni48  1  0.83027578  0.49640351  0.50009570  1
  Cr  Cr49  1  0.66311748  0.33147355  0.66513881  1
  Ni  Ni50  1  0.83093790  0.49824832  0.82624124  1
  Cr  Cr51  1  0.83092730  0.82623294  0.50025963  1
  Ni  Ni52  1  0.66364288  0.66288482  0.66583835  1
  Ni  Ni53  1  0.83051279  0.82725786  0.82496226  1
" 