8376,Ni43Fe48Cr7_3,-237.053302333995, 214.354103327849,Ni43Fe48Cr7,"# generated using pymatgen
 data_Cr5Fe26Ni23
_symmetry_space_group_name_H-M   'P 1'
_cell_length_a   7.41567803
_cell_length_b   7.41567803
_cell_length_c   10.48735245
_cell_angle_alpha   90.00000000
_cell_angle_beta   90.00000000
_cell_angle_gamma   90.00000000
_symmetry_Int_Tables_number   1
_chemical_formula_structural   Cr5Fe26Ni23
_chemical_formula_sum   'Cr5 Fe26 Ni23'
_cell_volume   576.72342970
_cell_formula_units_Z   1
loop_
 _symmetry_equiv_pos_site_id
 _symmetry_equiv_pos_as_xyz
  1  'x, y, z'
loop_
 _atom_site_type_symbol
 _atom_site_label
 _atom_site_symmetry_multiplicity
 _atom_site_fract_x
 _atom_site_fract_y
 _atom_site_fract_z
 _atom_site_occupancy
  Ni  Ni0  1  0.00374915  0.00526695  1.00201279  1
  Fe  Fe1  1  0.17000566  0.16991547  0.16958017  1
  Ni  Ni2  1  1.00321241  1.00324654  0.33650414  1
  Ni  Ni3  1  1.00277224  0.33533432  0.00472776  1
  Fe  Fe4  1  0.17067224  0.50581509  0.16980945  1
  Fe  Fe5  1  1.00313885  0.34030796  0.33555324  1
  Ni  Ni6  1  0.00420222  0.66975432  1.00306441  1
  Ni  Ni7  1  0.16826756  0.83763148  0.16913535  1
  Ni  Ni8  1  0.00415029  0.67112215  0.33822495  1
  Fe  Fe9  1  0.33498561  1.00234208  0.00363319  1
  Fe  Fe10  1  0.50313823  0.17002714  0.17014293  1
  Fe  Fe11  1  0.33686297  0.99971443  0.33678598  1
  Fe  Fe12  1  0.33531615  0.33968787  0.00434633  1
  Ni  Ni13  1  0.50477787  0.50316838  0.16930649  1
  Fe  Fe14  1  0.33788953  0.33933821  0.33579236  1
  Ni  Ni15  1  0.33795563  0.67049490  0.00347847  1
  Fe  Fe16  1  0.50255744  0.83460079  0.17072326  1
  Ni  Ni17  1  0.33721013  0.66966650  0.33744673  1
  Fe  Fe18  1  0.67276522  1.00172725  0.00364830  1
  Fe  Fe19  1  0.83727955  0.16986294  0.17005784  1
  Fe  Fe20  1  0.66947727  1.00095204  0.33665112  1
  Ni  Ni21  1  0.67170869  0.33714512  0.00356971  1
  Fe  Fe22  1  0.83702453  0.50540737  0.17021547  1
  Fe  Fe23  1  0.66962525  0.33924046  0.33543721  1
  Ni  Ni24  1  0.66837179  0.66918778  1.00271915  1
  Fe  Fe25  1  0.83738733  0.83514410  0.16925235  1
  Ni  Ni26  1  0.66882152  0.66971578  0.33770777  1
  Cr  Cr27  1  0.17155893  0.16783000  0.50328871  1
  Fe  Fe28  1  0.00534678  1.00063402  0.67258438  1
  Ni  Ni29  1  0.16869728  0.16918441  0.83712729  1
  Fe  Fe30  1  0.16970851  0.50410815  0.50250060  1
  Ni  Ni31  1  0.00365631  0.33720991  0.67162434  1
  Fe  Fe32  1  0.16932100  0.50203427  0.83840974  1
  Ni  Ni33  1  0.16852368  0.83655543  0.50358357  1
  Fe  Fe34  1  1.00158008  0.67052126  0.66980535  1
  Fe  Fe35  1  0.17059613  0.83751119  0.83830500  1
  Ni  Ni36  1  0.50251975  0.17193199  0.50179010  1
  Ni  Ni37  1  0.33596054  0.00348382  0.66924726  1
  Cr  Cr38  1  0.50131533  0.17323855  0.83741529  1
  Ni  Ni39  1  0.50614802  0.50275531  0.50302433  1
  Fe  Fe40  1  0.33734770  0.33713839  0.67011225  1
  Ni  Ni41  1  0.50531332  0.50428684  0.83786354  1
  Ni  Ni42  1  0.50202875  0.83580899  0.50144785  1
  Cr  Cr43  1  0.33859673  0.67099131  0.66927113  1
  Fe  Fe44  1  0.50382620  0.83542609  0.83765492  1
  Cr  Cr45  1  0.83675627  0.17179164  0.50422405  1
  Cr  Cr46  1  0.66882763  1.00116308  0.66928868  1
  Fe  Fe47  1  0.83900978  0.17131678  0.83771640  1
  Ni  Ni48  1  0.83539703  0.50565313  0.50395793  1
  Fe  Fe49  1  0.66902560  0.34058190  0.67020327  1
  Fe  Fe50  1  0.83693806  0.50307927  0.83685429  1
  Fe  Fe51  1  0.83631154  0.83378009  0.50262942  1
  Ni  Ni52  1  0.67025133  0.66882000  0.66989501  1
  Ni  Ni53  1  0.83914564  0.83438005  0.83768164  1
" 