8343,Ni43Fe48Cr7_8,-236.382329172325, 213.156916082701,Ni43Fe48Cr7,"# generated using pymatgen
 data_Cr5Fe26Ni23
_symmetry_space_group_name_H-M   'P 1'
_cell_length_a   7.41474055
_cell_length_b   7.41474055
_cell_length_c   10.48602665
_cell_angle_alpha   90.00000000
_cell_angle_beta   90.00000000
_cell_angle_gamma   90.00000000
_symmetry_Int_Tables_number   1
_chemical_formula_structural   Cr5Fe26Ni23
_chemical_formula_sum   'Cr5 Fe26 Ni23'
_cell_volume   576.50473162
_cell_formula_units_Z   1
loop_
 _symmetry_equiv_pos_site_id
 _symmetry_equiv_pos_as_xyz
  1  'x, y, z'
loop_
 _atom_site_type_symbol
 _atom_site_label
 _atom_site_symmetry_multiplicity
 _atom_site_fract_x
 _atom_site_fract_y
 _atom_site_fract_z
 _atom_site_occupancy
  Ni  Ni0  1  0.00570700  1.00287333  0.00386775  1
  Fe  Fe1  1  0.16907069  0.16942261  0.16975412  1
  Fe  Fe2  1  1.00201383  0.00460378  0.33572439  1
  Fe  Fe3  1  0.00426909  0.33558503  1.00342565  1
  Fe  Fe4  1  0.17032473  0.50438799  0.17017572  1
  Ni  Ni5  1  1.00289991  0.33723791  0.33649440  1
  Fe  Fe6  1  0.00393526  0.67106906  1.00345820  1
  Ni  Ni7  1  0.16746208  0.83680564  0.16957065  1
  Ni  Ni8  1  1.00285579  0.66970018  0.33612609  1
  Ni  Ni9  1  0.33251995  1.00286090  1.00273982  1
  Cr  Cr10  1  0.50291541  0.17347282  0.17102327  1
  Fe  Fe11  1  0.33549836  0.00453463  0.33783983  1
  Ni  Ni12  1  0.33628516  0.33809031  0.00393652  1
  Ni  Ni13  1  0.50400276  0.50205266  0.16927133  1
  Fe  Fe14  1  0.33562665  0.33815528  0.33708875  1
  Fe  Fe15  1  0.33626999  0.66967166  1.00233132  1
  Cr  Cr16  1  0.50308917  0.83493393  0.17021171  1
  Fe  Fe17  1  0.33672333  0.66789336  0.33695382  1
  Cr  Cr18  1  0.67186155  1.00288358  1.00240531  1
  Fe  Fe19  1  0.83864295  0.17086196  0.17139508  1
  Fe  Fe20  1  0.67306723  1.00350638  0.33869627  1
  Ni  Ni21  1  0.67078531  0.34000778  0.00377876  1
  Fe  Fe22  1  0.83637195  0.50396598  0.17071423  1
  Ni  Ni23  1  0.67104153  0.33708506  0.33727360  1
  Fe  Fe24  1  0.67037635  0.66846134  1.00242121  1
  Ni  Ni25  1  0.84017183  0.83571100  0.17170000  1
  Fe  Fe26  1  0.67169257  0.66907206  0.33793989  1
  Ni  Ni27  1  0.16997836  0.17278236  0.50335028  1
  Fe  Fe28  1  1.00308221  1.00309315  0.67140028  1
  Ni  Ni29  1  0.16932557  0.17083997  0.83752890  1
  Fe  Fe30  1  0.16920453  0.50248154  0.50390835  1
  Fe  Fe31  1  0.00453823  0.33727473  0.66963005  1
  Ni  Ni32  1  0.16995643  0.50318919  0.83665308  1
  Cr  Cr33  1  0.16956902  0.83625739  0.50440069  1
  Ni  Ni34  1  1.00262105  0.66958949  0.67081195  1
  Ni  Ni35  1  0.16988514  0.83655303  0.83722897  1
  Fe  Fe36  1  0.50384570  0.16906171  0.50338017  1
  Ni  Ni37  1  0.33697708  1.00320379  0.67076673  1
  Cr  Cr38  1  0.50213362  0.17062293  0.83615129  1
  Fe  Fe39  1  0.50411431  0.50375483  0.50315206  1
  Fe  Fe40  1  0.33535486  0.33838213  0.67009443  1
  Fe  Fe41  1  0.50281118  0.50570670  0.83749703  1
  Ni  Ni42  1  0.50568952  0.83640882  0.50330699  1
  Ni  Ni43  1  0.33755419  0.67063352  0.67131471  1
  Ni  Ni44  1  0.50317648  0.83480504  0.83653884  1
  Ni  Ni45  1  0.83679398  0.17091095  0.50350976  1
  Fe  Fe46  1  0.67071078  1.00066423  0.66923233  1
  Fe  Fe47  1  0.83980313  0.17024359  0.83625660  1
  Fe  Fe48  1  0.83726203  0.50374128  0.50325698  1
  Fe  Fe49  1  0.67068654  0.33826914  0.66922518  1
  Fe  Fe50  1  0.83730812  0.50435416  0.83660872  1
  Ni  Ni51  1  0.83468128  0.83666837  0.50311335  1
  Ni  Ni52  1  0.67040617  0.67063647  0.67006745  1
  Ni  Ni53  1  0.83752070  0.83543591  0.83576782  1
" 