6855,Ni43Fe48Cr7_13,-236.390832349864, 208.055838314384,Ni43Fe48Cr7,"# generated using pymatgen
 data_Cr5Fe26Ni23
_symmetry_space_group_name_H-M   'P 1'
_cell_length_a   7.41469680
_cell_length_b   7.41469680
_cell_length_c   10.48596477
_cell_angle_alpha   90.00000000
_cell_angle_beta   90.00000000
_cell_angle_gamma   90.00000000
_symmetry_Int_Tables_number   1
_chemical_formula_structural   Cr5Fe26Ni23
_chemical_formula_sum   'Cr5 Fe26 Ni23'
_cell_volume   576.49452487
_cell_formula_units_Z   1
loop_
 _symmetry_equiv_pos_site_id
 _symmetry_equiv_pos_as_xyz
  1  'x, y, z'
loop_
 _atom_site_type_symbol
 _atom_site_label
 _atom_site_symmetry_multiplicity
 _atom_site_fract_x
 _atom_site_fract_y
 _atom_site_fract_z
 _atom_site_occupancy
  Fe  Fe0  1  1.00340324  0.00366505  0.00414203  1
  Fe  Fe1  1  0.17020895  0.16891780  0.17073254  1
  Ni  Ni2  1  0.00413180  1.00292183  0.33587063  1
  Fe  Fe3  1  1.00271116  0.33648211  0.00472748  1
  Fe  Fe4  1  0.16898049  0.50313205  0.17209576  1
  Ni  Ni5  1  1.00087191  0.33767329  0.33657969  1
  Fe  Fe6  1  1.00126940  0.67087561  0.00363597  1
  Ni  Ni7  1  0.17046652  0.83643722  0.17214316  1
  Ni  Ni8  1  0.00447579  0.67056058  0.33677903  1
  Fe  Fe9  1  0.33786743  0.00465573  1.00330657  1
  Fe  Fe10  1  0.50403195  0.16889108  0.16965708  1
  Ni  Ni11  1  0.33767193  1.00215393  0.33573190  1
  Fe  Fe12  1  0.33833414  0.33542183  1.00222154  1
  Fe  Fe13  1  0.50360146  0.50133758  0.16889893  1
  Fe  Fe14  1  0.33657943  0.33802990  0.33657048  1
  Cr  Cr15  1  0.33555790  0.67069810  1.00305064  1
  Ni  Ni16  1  0.50340207  0.83703101  0.16951336  1
  Fe  Fe17  1  0.33570982  0.66994031  0.33715332  1
  Ni  Ni18  1  0.67059427  0.00472958  0.00361531  1
  Ni  Ni19  1  0.83737891  0.17154863  0.17095432  1
  Fe  Fe20  1  0.67144689  0.00453690  0.33624586  1
  Ni  Ni21  1  0.67049739  0.33651603  0.00419301  1
  Fe  Fe22  1  0.83799309  0.50319285  0.16940098  1
  Ni  Ni23  1  0.66987890  0.33569182  0.33643237  1
  Fe  Fe24  1  0.67078325  0.67043915  0.00394241  1
  Fe  Fe25  1  0.83804968  0.83887913  0.16983543  1
  Cr  Cr26  1  0.67067440  0.66773400  0.33520594  1
  Cr  Cr27  1  0.16864839  0.17348863  0.50155728  1
  Cr  Cr28  1  1.00239640  1.00249060  0.67053354  1
  Ni  Ni29  1  0.16892265  0.17224458  0.83958133  1
  Ni  Ni30  1  0.17035029  0.50457740  0.50379991  1
  Fe  Fe31  1  0.00420142  0.33896755  0.67042124  1
  Fe  Fe32  1  0.17145466  0.50359389  0.83472852  1
  Fe  Fe33  1  0.16938213  0.83507510  0.50191540  1
  Ni  Ni34  1  0.00360824  0.67002383  0.67010030  1
  Ni  Ni35  1  0.16952428  0.83628312  0.83689709  1
  Fe  Fe36  1  0.50492950  0.17028547  0.50348563  1
  Cr  Cr37  1  0.33725671  1.00292405  0.67262563  1
  Ni  Ni38  1  0.50434454  0.17121000  0.83761564  1
  Fe  Fe39  1  0.50370629  0.50203731  0.50499573  1
  Ni  Ni40  1  0.33964917  0.33862291  0.67209244  1
  Ni  Ni41  1  0.50526830  0.50379246  0.83619526  1
  Ni  Ni42  1  0.50423941  0.83578677  0.50345294  1
  Ni  Ni43  1  0.33618345  0.66936692  0.66897191  1
  Ni  Ni44  1  0.50502144  0.83562608  0.83702545  1
  Ni  Ni45  1  0.83516119  0.17079332  0.50315827  1
  Fe  Fe46  1  0.66951216  1.00324846  0.67056291  1
  Fe  Fe47  1  0.83475026  0.17085306  0.83797890  1
  Fe  Fe48  1  0.83835424  0.50327392  0.50394197  1
  Ni  Ni49  1  0.67065220  0.33665701  0.67017706  1
  Fe  Fe50  1  0.83627610  0.50335646  0.83688877  1
  Ni  Ni51  1  0.83518002  0.83746935  0.50232719  1
  Fe  Fe52  1  0.66955680  0.67022419  0.66969418  1
  Fe  Fe53  1  0.83552876  0.83626559  0.83727089  1
" 