8695,Ni43Fe25Cr31_18,-227.707151795966, 181.030002949589,Ni43Fe25Cr31,"# generated using pymatgen
 data_Cr18Fe13Ni23
_symmetry_space_group_name_H-M   'P 1'
_cell_length_a   7.47047672
_cell_length_b   7.47047672
_cell_length_c   10.56484949
_cell_angle_alpha   90.00000000
_cell_angle_beta   90.00000000
_cell_angle_gamma   90.00000000
_symmetry_Int_Tables_number   1
_chemical_formula_structural   Cr18Fe13Ni23
_chemical_formula_sum   'Cr18 Fe13 Ni23'
_cell_volume   589.60335719
_cell_formula_units_Z   1
loop_
 _symmetry_equiv_pos_site_id
 _symmetry_equiv_pos_as_xyz
  1  'x, y, z'
loop_
 _atom_site_type_symbol
 _atom_site_label
 _atom_site_symmetry_multiplicity
 _atom_site_fract_x
 _atom_site_fract_y
 _atom_site_fract_z
 _atom_site_occupancy
  Ni  Ni0  1  0.99676326  0.00206866  0.99632848  1
  Cr  Cr1  1  0.16940677  0.16674726  0.16395689  1
  Cr  Cr2  1  0.99939179  0.00267072  0.33562914  1
  Ni  Ni3  1  0.99518242  0.33096550  0.00039819  1
  Ni  Ni4  1  0.16470758  0.49738514  0.16389853  1
  Cr  Cr5  1  0.99789738  0.33221443  0.33135644  1
  Fe  Fe6  1  0.00048430  0.66556033  0.99877345  1
  Cr  Cr7  1  0.16678930  0.83222390  0.16670565  1
  Cr  Cr8  1  0.99780916  0.66437571  0.33438250  1
  Cr  Cr9  1  0.33173437  0.99625277  0.99479363  1
  Cr  Cr10  1  0.50094354  0.16487857  0.16821769  1
  Ni  Ni11  1  0.33493339  0.00195709  0.33761213  1
  Fe  Fe12  1  0.33244938  0.33488361  0.99834800  1
  Cr  Cr13  1  0.49983854  0.49847537  0.16518044  1
  Ni  Ni14  1  0.33406820  0.33235807  0.33470102  1
  Ni  Ni15  1  0.33614846  0.66520176  0.99772591  1
  Cr  Cr16  1  0.50126528  0.83588253  0.16677698  1
  Cr  Cr17  1  0.33455385  0.66532387  0.33643096  1
  Fe  Fe18  1  0.66890563  0.00150038  0.99698661  1
  Fe  Fe19  1  0.83247389  0.16728871  0.16311665  1
  Fe  Fe20  1  0.66673868  0.00038691  0.33662303  1
  Ni  Ni21  1  0.66932950  0.33470921  -0.00018982  1
  Ni  Ni22  1  0.83279437  0.49909389  0.16445296  1
  Fe  Fe23  1  0.66618312  0.33424767  0.33343391  1
  Fe  Fe24  1  0.66746752  0.66539104  0.99726218  1
  Cr  Cr25  1  0.83156857  0.83251453  0.16493838  1
  Ni  Ni26  1  0.66564348  0.66540183  0.33350977  1
  Ni  Ni27  1  0.16988124  0.16951480  0.50114756  1
  Cr  Cr28  1  0.99899047  0.00002710  0.66709451  1
  Fe  Fe29  1  0.16286789  0.16747780  0.83289705  1
  Ni  Ni30  1  0.16618305  0.49555708  0.50159114  1
  Ni  Ni31  1  0.99949561  0.33002291  0.66594413  1
  Cr  Cr32  1  0.16551265  0.49809455  0.83196323  1
  Ni  Ni33  1  0.16613738  0.83409154  0.49934083  1
  Ni  Ni34  1  0.99826825  0.66820574  0.66513166  1
  Ni  Ni35  1  0.16395024  0.83146465  0.83431077  1
  Fe  Fe36  1  0.49963164  0.16769208  0.49979574  1
  Cr  Cr37  1  0.33305902  0.99856051  0.66751378  1
  Cr  Cr38  1  0.50036618  0.16906902  0.83268088  1
  Fe  Fe39  1  0.49994987  0.49972261  0.50127729  1
  Ni  Ni40  1  0.33392669  0.33330274  0.66617745  1
  Ni  Ni41  1  0.50057396  0.49964311  0.83326546  1
  Ni  Ni42  1  0.50392267  0.83636756  0.49850728  1
  Cr  Cr43  1  0.33607176  0.66742048  0.66503152  1
  Ni  Ni44  1  0.50324675  0.83212856  0.83455551  1
  Fe  Fe45  1  0.83264510  0.16573250  0.50268770  1
  Fe  Fe46  1  0.66684253  0.99795021  0.66715699  1
  Ni  Ni47  1  0.83224699  0.16623782  0.83341111  1
  Cr  Cr48  1  0.83240678  0.50087850  0.50437154  1
  Fe  Fe49  1  0.66580356  0.33327646  0.66775937  1
  Cr  Cr50  1  0.83386378  0.50015994  0.83020362  1
  Ni  Ni51  1  0.82894521  0.83273842  0.50148138  1
  Ni  Ni52  1  0.66472366  0.66802716  0.66815447  1
  Ni  Ni53  1  0.83262176  0.83428310  0.83280474  1
" 