7330,Ni43Fe48Cr7_18,-236.420349609252, 208.381559334778,Ni43Fe48Cr7,"# generated using pymatgen
 data_Cr5Fe26Ni23
_symmetry_space_group_name_H-M   'P 1'
_cell_length_a   7.41566867
_cell_length_b   7.41566867
_cell_length_c   10.48733921
_cell_angle_alpha   90.00000000
_cell_angle_beta   90.00000000
_cell_angle_gamma   90.00000000
_symmetry_Int_Tables_number   1
_chemical_formula_structural   Cr5Fe26Ni23
_chemical_formula_sum   'Cr5 Fe26 Ni23'
_cell_volume   576.72124467
_cell_formula_units_Z   1
loop_
 _symmetry_equiv_pos_site_id
 _symmetry_equiv_pos_as_xyz
  1  'x, y, z'
loop_
 _atom_site_type_symbol
 _atom_site_label
 _atom_site_symmetry_multiplicity
 _atom_site_fract_x
 _atom_site_fract_y
 _atom_site_fract_z
 _atom_site_occupancy
  Ni  Ni0  1  1.00342227  0.00438588  0.00464401  1
  Ni  Ni1  1  0.17031861  0.17233221  0.17053746  1
  Fe  Fe2  1  0.00459704  0.00396599  0.33683367  1
  Ni  Ni3  1  1.00336849  0.33580810  0.00392471  1
  Ni  Ni4  1  0.16962446  0.50208675  0.16978226  1
  Fe  Fe5  1  0.00494627  0.33651348  0.33615805  1
  Fe  Fe6  1  0.00526802  0.66813865  0.00379308  1
  Fe  Fe7  1  0.17153614  0.83789492  0.16922079  1
  Fe  Fe8  1  0.00484229  0.67002141  0.33725671  1
  Fe  Fe9  1  0.33493529  0.00399661  0.00562497  1
  Ni  Ni10  1  0.50264022  0.16957631  0.16998472  1
  Ni  Ni11  1  0.33694486  1.00337210  0.33592860  1
  Ni  Ni12  1  0.33652554  0.33766613  1.00321222  1
  Fe  Fe13  1  0.50150178  0.50217449  0.16919704  1
  Ni  Ni14  1  0.33730465  0.33657076  0.33697388  1
  Ni  Ni15  1  0.33752729  0.66907263  0.00571042  1
  Ni  Ni16  1  0.50415017  0.83706847  0.17003373  1
  Fe  Fe17  1  0.33674060  0.67037227  0.33620615  1
  Fe  Fe18  1  0.66999112  0.00530203  0.00510148  1
  Fe  Fe19  1  0.83723951  0.17017216  0.16986814  1
  Fe  Fe20  1  0.66862933  0.00364156  0.33747935  1
  Fe  Fe21  1  0.67023981  0.33756706  1.00266974  1
  Fe  Fe22  1  0.83661079  0.50280456  0.16923223  1
  Fe  Fe23  1  0.66927073  0.33567518  0.33701266  1
  Ni  Ni24  1  0.66996948  0.66892385  0.00452870  1
  Fe  Fe25  1  0.83709863  0.83731527  0.17022905  1
  Fe  Fe26  1  0.66881589  0.67083088  0.33612573  1
  Fe  Fe27  1  0.16940223  0.17030928  0.50185476  1
  Ni  Ni28  1  0.00358899  0.00390806  0.66862977  1
  Fe  Fe29  1  0.16814743  0.17149211  0.83820738  1
  Fe  Fe30  1  0.16960657  0.50354810  0.50301072  1
  Ni  Ni31  1  0.00435344  0.33706875  0.66955026  1
  Fe  Fe32  1  0.16995750  0.50393992  0.83728389  1
  Fe  Fe33  1  0.16848533  0.83644433  0.50362898  1
  Ni  Ni34  1  0.00435861  0.66959531  0.67039401  1
  Ni  Ni35  1  0.16993638  0.83606935  0.83776925  1
  Fe  Fe36  1  0.50333526  0.17002034  0.50017549  1
  Cr  Cr37  1  0.33501558  0.00455781  0.67049829  1
  Fe  Fe38  1  0.50304124  0.17271575  0.83989346  1
  Fe  Fe39  1  0.50309974  0.50415891  0.50329612  1
  Ni  Ni40  1  0.33532514  0.33915218  0.67004361  1
  Ni  Ni41  1  0.50167929  0.50329097  0.83743853  1
  Ni  Ni42  1  0.50336352  0.83441549  0.50273117  1
  Ni  Ni43  1  0.33518573  0.66797783  0.66845989  1
  Cr  Cr44  1  0.50128817  0.83390936  0.83764669  1
  Ni  Ni45  1  0.83991139  0.17036089  0.50151120  1
  Cr  Cr46  1  0.67200425  0.00413817  0.66910791  1
  Ni  Ni47  1  0.84026598  0.17220098  0.83846596  1
  Fe  Fe48  1  0.83776735  0.50510183  0.50327133  1
  Cr  Cr49  1  0.67014509  0.33704562  0.67113021  1
  Ni  Ni50  1  0.83783331  0.50154427  0.83686872  1
  Ni  Ni51  1  0.83645450  0.83673705  0.50363679  1
  Fe  Fe52  1  0.67028157  0.66784975  0.66903465  1
  Cr  Cr53  1  0.83917474  0.83626547  0.83625902  1
" 