6313,Ni43Fe5Cr50_5,-218.990593069436, 146.940224705108,Ni43Fe5Cr50,"# generated using pymatgen
 data_Cr28Fe3Ni23
_symmetry_space_group_name_H-M   'P 1'
_cell_length_a   7.51488305
_cell_length_b   7.51488305
_cell_length_c   10.62764952
_cell_angle_alpha   90.00000000
_cell_angle_beta   90.00000000
_cell_angle_gamma   90.00000000
_symmetry_Int_Tables_number   1
_chemical_formula_structural   Cr28Fe3Ni23
_chemical_formula_sum   'Cr28 Fe3 Ni23'
_cell_volume   600.18021685
_cell_formula_units_Z   1
loop_
 _symmetry_equiv_pos_site_id
 _symmetry_equiv_pos_as_xyz
  1  'x, y, z'
loop_
 _atom_site_type_symbol
 _atom_site_label
 _atom_site_symmetry_multiplicity
 _atom_site_fract_x
 _atom_site_fract_y
 _atom_site_fract_z
 _atom_site_occupancy
  Ni  Ni0  1  0.99676284  0.99413005  0.99418745  1
  Cr  Cr1  1  0.16177352  0.16064781  0.16527897  1
  Ni  Ni2  1  0.99550399  0.99490044  0.33298035  1
  Cr  Cr3  1  -0.00290914  0.32845651  0.99469925  1
  Cr  Cr4  1  0.15953930  0.50032737  0.16424936  1
  Cr  Cr5  1  0.99539812  0.32853116  0.33464527  1
  Ni  Ni6  1  0.99321944  0.66656579  0.99376407  1
  Cr  Cr7  1  0.16035542  0.82945276  0.16442026  1
  Ni  Ni8  1  0.99352665  0.66791466  0.33337912  1
  Cr  Cr9  1  0.32886398  0.99576461  -0.00175276  1
  Cr  Cr10  1  0.49992431  0.16118256  0.16538920  1
  Fe  Fe11  1  0.33083179  0.99453607  0.33235549  1
  Cr  Cr12  1  0.33093054  0.32973613  0.99638560  1
  Cr  Cr13  1  0.50070125  0.49769633  0.16319349  1
  Cr  Cr14  1  0.33090255  0.32944347  0.33072833  1
  Cr  Cr15  1  0.33319305  0.66538023  0.99644853  1
  Ni  Ni16  1  0.49954225  0.83029190  0.16612243  1
  Cr  Cr17  1  0.33335633  0.66586383  0.33130157  1
  Cr  Cr18  1  0.66425188  0.99224020  0.99607539  1
  Cr  Cr19  1  0.82914430  0.16192629  0.16476004  1
  Ni  Ni20  1  0.66464385  0.99419519  0.33257478  1
  Fe  Fe21  1  0.66445642  0.33233488  0.99573740  1
  Cr  Cr22  1  0.83060619  0.49924790  0.16413228  1
  Ni  Ni23  1  0.66399665  0.33066447  0.33197497  1
  Ni  Ni24  1  0.66502457  0.66325462  0.99559101  1
  Cr  Cr25  1  0.83046193  0.82916114  0.16376293  1
  Ni  Ni26  1  0.66384303  0.66561833  0.33198382  1
  Ni  Ni27  1  0.16307754  0.15826666  0.49614240  1
  Cr  Cr28  1  0.99571725  0.99588979  0.66363527  1
  Ni  Ni29  1  0.16364925  0.15946029  0.82993648  1
  Cr  Cr30  1  0.16345712  0.50095472  0.49673851  1
  Cr  Cr31  1  0.99482516  0.32808941  0.66073527  1
  Cr  Cr32  1  0.16320273  0.50084834  0.82931378  1
  Ni  Ni33  1  0.16379718  0.83236875  0.49637551  1
  Cr  Cr34  1  0.99364678  0.66640522  0.66285536  1
  Ni  Ni35  1  0.16214619  0.83176774  0.83032187  1
  Cr  Cr36  1  0.49834176  0.16101404  0.49732675  1
  Ni  Ni37  1  0.32760276  0.99398467  0.66181511  1
  Cr  Cr38  1  0.49678076  0.16289138  0.82816805  1
  Ni  Ni39  1  0.49956929  0.49884575  0.49625465  1
  Cr  Cr40  1  0.32973415  0.33071271  0.66350308  1
  Ni  Ni41  1  0.49979095  0.49823313  0.83098073  1
  Ni  Ni42  1  0.49702752  0.83008692  0.49667854  1
  Ni  Ni43  1  0.33213697  0.66711737  0.66270569  1
  Cr  Cr44  1  0.49675279  0.83033244  0.82708223  1
  Ni  Ni45  1  0.82930496  0.16103842  0.49465832  1
  Fe  Fe46  1  0.66445457  0.99437145  0.66081642  1
  Cr  Cr47  1  0.82874786  0.16151009  0.83045222  1
  Ni  Ni48  1  0.82709303  0.49835642  0.49309320  1
  Cr  Cr49  1  0.66591408  0.33320649  0.66272664  1
  Ni  Ni50  1  0.82780858  0.49947757  0.83314150  1
  Ni  Ni51  1  0.82957634  0.83097156  0.49423726  1
  Cr  Cr52  1  0.66423039  0.66450163  0.66189514  1
  Ni  Ni53  1  0.83190250  0.82796581  0.83217491  1
" 