4364,Ni43Fe48Cr7_11,-237.177963859094, 213.409933942872,Ni43Fe48Cr7,"# generated using pymatgen
 data_Cr5Fe26Ni23
_symmetry_space_group_name_H-M   'P 1'
_cell_length_a   7.42180039
_cell_length_b   7.42180039
_cell_length_c   10.49601077
_cell_angle_alpha   90.00000000
_cell_angle_beta   90.00000000
_cell_angle_gamma   90.00000000
_symmetry_Int_Tables_number   1
_chemical_formula_structural   Cr5Fe26Ni23
_chemical_formula_sum   'Cr5 Fe26 Ni23'
_cell_volume   578.15303176
_cell_formula_units_Z   1
loop_
 _symmetry_equiv_pos_site_id
 _symmetry_equiv_pos_as_xyz
  1  'x, y, z'
loop_
 _atom_site_type_symbol
 _atom_site_label
 _atom_site_symmetry_multiplicity
 _atom_site_fract_x
 _atom_site_fract_y
 _atom_site_fract_z
 _atom_site_occupancy
  Ni  Ni0  1  1.00143132  0.00393280  0.00434828  1
  Fe  Fe1  1  0.16883727  0.16863411  0.16972110  1
  Fe  Fe2  1  0.00361326  1.00276198  0.33627460  1
  Fe  Fe3  1  1.00169187  0.33610063  0.00355090  1
  Fe  Fe4  1  0.16911303  0.50351236  0.16924470  1
  Ni  Ni5  1  1.00204173  0.33700046  0.33571542  1
  Cr  Cr6  1  1.00243036  0.66960069  1.00157842  1
  Fe  Fe7  1  0.17100664  0.83711604  0.16959691  1
  Fe  Fe8  1  0.00316822  0.67051391  0.33546355  1
  Ni  Ni9  1  0.33679151  0.00316811  0.00395837  1
  Fe  Fe10  1  0.50421686  0.16840494  0.16923590  1
  Ni  Ni11  1  0.33689182  1.00297199  0.33654812  1
  Fe  Fe12  1  0.33763735  0.33686517  0.00367515  1
  Ni  Ni13  1  0.50346257  0.50531695  0.16821693  1
  Cr  Cr14  1  0.33544357  0.33684334  0.33787344  1
  Ni  Ni15  1  0.33676712  0.66792648  0.00398910  1
  Fe  Fe16  1  0.50380442  0.83630988  0.16951739  1
  Ni  Ni17  1  0.33627508  0.66895263  0.33465661  1
  Ni  Ni18  1  0.67111094  0.00373690  0.00345115  1
  Fe  Fe19  1  0.83587934  0.17019852  0.17003150  1
  Ni  Ni20  1  0.67102478  0.00333100  0.33531143  1
  Fe  Fe21  1  0.66954754  0.33663352  1.00292852  1
  Fe  Fe22  1  0.83468109  0.50343295  0.16999139  1
  Fe  Fe23  1  0.66915220  0.33726052  0.33662493  1
  Ni  Ni24  1  0.66971608  0.66933877  1.00296020  1
  Ni  Ni25  1  0.83501450  0.83758811  0.16992484  1
  Ni  Ni26  1  0.67061269  0.66940886  0.33533610  1
  Ni  Ni27  1  0.16678563  0.16925575  0.50345612  1
  Ni  Ni28  1  0.99958606  0.00314924  0.66918411  1
  Cr  Cr29  1  0.16800094  0.16985599  0.83686455  1
  Fe  Fe30  1  0.16872428  0.50296905  0.50435839  1
  Ni  Ni31  1  0.00305847  0.33643780  0.66989976  1
  Ni  Ni32  1  0.17032182  0.50202259  0.83635952  1
  Fe  Fe33  1  0.16883627  0.83630450  0.50315522  1
  Fe  Fe34  1  0.00316736  0.66943700  0.67100609  1
  Fe  Fe35  1  0.16849042  0.83579116  0.83591272  1
  Fe  Fe36  1  0.50448336  0.16997489  0.50404620  1
  Fe  Fe37  1  0.33511037  0.00430857  0.66847041  1
  Fe  Fe38  1  0.50481689  0.17170938  0.83644567  1
  Ni  Ni39  1  0.50399091  0.50491770  0.50431332  1
  Ni  Ni40  1  0.33633872  0.33825682  0.66891585  1
  Fe  Fe41  1  0.50297657  0.50084689  0.83652209  1
  Cr  Cr42  1  0.50329991  0.83426833  0.50083838  1
  Ni  Ni43  1  0.33511741  0.66674643  0.67043633  1
  Cr  Cr44  1  0.50280233  0.83542461  0.83789326  1
  Ni  Ni45  1  0.83877039  0.17006738  0.50170327  1
  Ni  Ni46  1  0.67270406  0.00437548  0.67033747  1
  Ni  Ni47  1  0.83684592  0.17029569  0.83769430  1
  Fe  Fe48  1  0.83651672  0.50191711  0.50291735  1
  Fe  Fe49  1  0.67077799  0.33532150  0.66958303  1
  Ni  Ni50  1  0.83596474  0.50093003  0.83597150  1
  Fe  Fe51  1  0.83692173  0.83727943  0.50194764  1
  Fe  Fe52  1  0.67155738  0.66814023  0.66987014  1
  Fe  Fe53  1  0.83727649  0.83774109  0.83677864  1
" 