1652,Ni43Fe34Cr21_7,-231.433207906004, 194.733502264678,Ni43Fe34Cr21,"# generated using pymatgen
 data_Cr13Fe18Ni23
_symmetry_space_group_name_H-M   'P 1'
_cell_length_a   7.45100503
_cell_length_b   7.45100503
_cell_length_c   10.53731237
_cell_angle_alpha   90.00000000
_cell_angle_beta   90.00000000
_cell_angle_gamma   90.00000000
_symmetry_Int_Tables_number   1
_chemical_formula_structural   Cr13Fe18Ni23
_chemical_formula_sum   'Cr13 Fe18 Ni23'
_cell_volume   585.00498639
_cell_formula_units_Z   1
loop_
 _symmetry_equiv_pos_site_id
 _symmetry_equiv_pos_as_xyz
  1  'x, y, z'
loop_
 _atom_site_type_symbol
 _atom_site_label
 _atom_site_symmetry_multiplicity
 _atom_site_fract_x
 _atom_site_fract_y
 _atom_site_fract_z
 _atom_site_occupancy
  Fe  Fe0  1  1.00045884  0.00232121  0.00261892  1
  Cr  Cr1  1  0.16894273  0.16588979  0.16731300  1
  Fe  Fe2  1  1.00022559  0.99863701  0.33417785  1
  Ni  Ni3  1  0.99896416  0.33416203  0.99922651  1
  Fe  Fe4  1  0.17011490  0.50323190  0.16895821  1
  Cr  Cr5  1  0.00149300  0.33479183  0.33572454  1
  Cr  Cr6  1  0.00138152  0.66583286  0.00165880  1
  Ni  Ni7  1  0.16734276  0.83655535  0.16905326  1
  Ni  Ni8  1  0.00170123  0.66939115  0.33375348  1
  Ni  Ni9  1  0.33761581  1.00084548  0.00135088  1
  Fe  Fe10  1  0.50193919  0.16698082  0.16877582  1
  Ni  Ni11  1  0.33676445  1.00014582  0.33427199  1
  Fe  Fe12  1  0.33516396  0.33487177  0.00123885  1
  Ni  Ni13  1  0.50178742  0.50036405  0.16936754  1
  Ni  Ni14  1  0.33625568  0.33450137  0.33430409  1
  Cr  Cr15  1  0.33599146  0.66890910  0.00205102  1
  Ni  Ni16  1  0.50155605  0.83456557  0.16871192  1
  Ni  Ni17  1  0.33465795  0.66858340  0.33250732  1
  Fe  Fe18  1  0.66687993  0.00109047  0.00142931  1
  Fe  Fe19  1  0.83210255  0.16534449  0.16691201  1
  Fe  Fe20  1  0.66645475  1.00026885  0.33499705  1
  Fe  Fe21  1  0.66697026  0.33439114  1.00045644  1
  Cr  Cr22  1  0.83143303  0.50180934  0.16809562  1
  Ni  Ni23  1  0.66573648  0.33271598  0.33322623  1
  Fe  Fe24  1  0.66589901  0.66774626  0.00125978  1
  Ni  Ni25  1  0.83433122  0.83584127  0.16954398  1
  Ni  Ni26  1  0.66686949  0.66990202  0.33271947  1
  Fe  Fe27  1  0.16970661  0.16850332  0.50212581  1
  Ni  Ni28  1  1.00040147  0.00335594  0.66669968  1
  Cr  Cr29  1  0.16774599  0.16801850  0.83357095  1
  Ni  Ni30  1  0.16730798  0.49958989  0.50176796  1
  Ni  Ni31  1  0.00257046  0.33480388  0.66845448  1
  Ni  Ni32  1  0.16701159  0.49793056  0.83254904  1
  Cr  Cr33  1  0.16785924  0.83513455  0.50153400  1
  Fe  Fe34  1  0.00250403  0.66639920  0.66770231  1
  Cr  Cr35  1  0.16909063  0.83646864  0.83294569  1
  Ni  Ni36  1  0.50023026  0.16511987  0.50007402  1
  Ni  Ni37  1  0.33679926  1.00070048  0.66760818  1
  Fe  Fe38  1  0.50140861  0.16690812  0.83429617  1
  Cr  Cr39  1  0.49943330  0.50052453  0.49847036  1
  Fe  Fe40  1  0.33260769  0.33363846  0.66724274  1
  Ni  Ni41  1  0.50175660  0.50020336  0.83503192  1
  Ni  Ni42  1  0.50168642  0.83828829  0.50068611  1
  Fe  Fe43  1  0.33364342  0.66768709  0.66852832  1
  Ni  Ni44  1  0.50161447  0.83571289  0.83383136  1
  Fe  Fe45  1  0.83387834  0.16522205  0.50179098  1
  Ni  Ni46  1  0.66602597  0.00116344  0.66690014  1
  Fe  Fe47  1  0.83408877  0.16941937  0.83452589  1
  Cr  Cr48  1  0.83573447  0.50201356  0.50026892  1
  Cr  Cr49  1  0.66901000  0.33194106  0.66943339  1
  Ni  Ni50  1  0.83445945  0.49840739  0.83511835  1
  Fe  Fe51  1  0.83312580  0.83614841  0.50017176  1
  Cr  Cr52  1  0.66621248  0.67007361  0.66935977  1
  Cr  Cr53  1  0.83318630  0.83506628  0.83374083  1
" 