7662,Ni43Fe27Cr29_7,-228.36232115297, 178.478728083317,Ni43Fe27Cr29,"# generated using pymatgen
 data_Cr17Fe14Ni23
_symmetry_space_group_name_H-M   'P 1'
_cell_length_a   7.46689253
_cell_length_b   7.46689253
_cell_length_c   10.55978068
_cell_angle_alpha   90.00000000
_cell_angle_beta   90.00000000
_cell_angle_gamma   90.00000000
_symmetry_Int_Tables_number   1
_chemical_formula_structural   Cr17Fe14Ni23
_chemical_formula_sum   'Cr17 Fe14 Ni23'
_cell_volume   588.75512301
_cell_formula_units_Z   1
loop_
 _symmetry_equiv_pos_site_id
 _symmetry_equiv_pos_as_xyz
  1  'x, y, z'
loop_
 _atom_site_type_symbol
 _atom_site_label
 _atom_site_symmetry_multiplicity
 _atom_site_fract_x
 _atom_site_fract_y
 _atom_site_fract_z
 _atom_site_occupancy
  Fe  Fe0  1  0.99749666  0.00106567  0.99876085  1
  Cr  Cr1  1  0.16454763  0.16643107  0.16589584  1
  Cr  Cr2  1  0.99965339  0.99726450  0.33416326  1
  Ni  Ni3  1  0.99877916  0.33314735  0.99733535  1
  Ni  Ni4  1  0.16533704  0.50393584  0.16578060  1
  Cr  Cr5  1  0.99938580  0.33438107  0.33604537  1
  Fe  Fe6  1  0.00140235  0.66628188  0.99999309  1
  Fe  Fe7  1  0.16719386  0.83090690  0.16758273  1
  Ni  Ni8  1  0.00238884  0.66807437  0.33399303  1
  Fe  Fe9  1  0.33376360  0.99720434  0.99943444  1
  Cr  Cr10  1  0.50148652  0.16336678  0.16478528  1
  Ni  Ni11  1  0.33307790  0.99620252  0.33447838  1
  Cr  Cr12  1  0.33166768  0.33520490  0.99927119  1
  Cr  Cr13  1  0.49854788  0.50311819  0.16744166  1
  Cr  Cr14  1  0.33352986  0.33448069  0.33719267  1
  Fe  Fe15  1  0.33111457  0.66906461  0.00013474  1
  Ni  Ni16  1  0.49909367  0.83347847  0.16636009  1
  Ni  Ni17  1  0.33063460  0.66817444  0.33212770  1
  Ni  Ni18  1  0.66857087  0.99996336  0.99964584  1
  Ni  Ni19  1  0.83388371  0.16436291  0.16227664  1
  Cr  Cr20  1  0.66775506  0.00045656  0.33302044  1
  Ni  Ni21  1  0.67102066  0.32986533  0.99996248  1
  Cr  Cr22  1  0.83625597  0.50000594  0.16615559  1
  Cr  Cr23  1  0.66715602  0.33227312  0.33368031  1
  Cr  Cr24  1  0.66649502  0.66912585  0.99821026  1
  Ni  Ni25  1  0.83319730  0.83419775  0.16600474  1
  Fe  Fe26  1  0.66749061  0.66815143  0.33411744  1
  Ni  Ni27  1  0.16721607  0.16597184  0.50332766  1
  Ni  Ni28  1  0.99965840  0.00118793  0.66651012  1
  Ni  Ni29  1  0.16293334  0.16673704  0.83183238  1
  Ni  Ni30  1  0.16630590  0.49975540  0.49934567  1
  Fe  Fe31  1  0.00177743  0.33147119  0.66689758  1
  Ni  Ni32  1  0.16378713  0.49890857  0.83503652  1
  Ni  Ni33  1  0.16554538  0.83425823  0.49819612  1
  Cr  Cr34  1  0.99993639  0.66791849  0.66666022  1
  Fe  Fe35  1  0.16698383  0.83578466  0.83366038  1
  Ni  Ni36  1  0.49789456  0.16669124  0.50159595  1
  Fe  Fe37  1  0.33092061  0.00133954  0.66592110  1
  Cr  Cr38  1  0.50000804  0.16321353  0.83385643  1
  Ni  Ni39  1  0.50013539  0.50035029  0.49952555  1
  Fe  Fe40  1  0.32933258  0.33194492  0.66499944  1
  Cr  Cr41  1  0.50003656  0.50218360  0.83366727  1
  Cr  Cr42  1  0.50042634  0.83310514  0.49966620  1
  Cr  Cr43  1  0.33255930  0.66590648  0.66758617  1
  Ni  Ni44  1  0.50067204  0.83442717  0.83381055  1
  Ni  Ni45  1  0.83481326  0.16593956  0.50209432  1
  Fe  Fe46  1  0.66925602  0.99847676  0.66698811  1
  Ni  Ni47  1  0.83666976  0.16540446  0.83553451  1
  Ni  Ni48  1  0.83357547  0.50208024  0.50001564  1
  Cr  Cr49  1  0.66713792  0.33284620  0.66521121  1
  Fe  Fe50  1  0.83565769  0.49770779  0.83419782  1
  Ni  Ni51  1  0.83433517  0.83208607  0.50099835  1
  Fe  Fe52  1  0.66845724  0.66863563  0.66643263  1
  Fe  Fe53  1  0.83360270  0.83604298  0.83314288  1
" 