3925,Ni43Fe27Cr29_6,-228.090120787809, 185.561432666231,Ni43Fe27Cr29,"# generated using pymatgen
 data_Cr17Fe14Ni23
_symmetry_space_group_name_H-M   'P 1'
_cell_length_a   7.46132661
_cell_length_b   7.46132661
_cell_length_c   10.55190928
_cell_angle_alpha   90.00000000
_cell_angle_beta   90.00000000
_cell_angle_gamma   90.00000000
_symmetry_Int_Tables_number   1
_chemical_formula_structural   Cr17Fe14Ni23
_chemical_formula_sum   'Cr17 Fe14 Ni23'
_cell_volume   587.43950716
_cell_formula_units_Z   1
loop_
 _symmetry_equiv_pos_site_id
 _symmetry_equiv_pos_as_xyz
  1  'x, y, z'
loop_
 _atom_site_type_symbol
 _atom_site_label
 _atom_site_symmetry_multiplicity
 _atom_site_fract_x
 _atom_site_fract_y
 _atom_site_fract_z
 _atom_site_occupancy
  Cr  Cr0  1  0.00119984  0.00267350  0.99973765  1
  Ni  Ni1  1  0.16620410  0.16777423  0.16985472  1
  Ni  Ni2  1  0.00311216  0.99921504  0.33427120  1
  Fe  Fe3  1  0.00118714  0.33559601  1.00021610  1
  Ni  Ni4  1  0.16572005  0.50151988  0.16602278  1
  Cr  Cr5  1  0.99968920  0.33349644  0.33329991  1
  Fe  Fe6  1  0.00059369  0.66587386  0.99887979  1
  Fe  Fe7  1  0.16747847  0.83083382  0.16805130  1
  Fe  Fe8  1  0.00144838  0.66896533  0.33433496  1
  Cr  Cr9  1  0.33217462  0.99604768  0.99894926  1
  Cr  Cr10  1  0.49949151  0.16429945  0.16905018  1
  Ni  Ni11  1  0.33115133  0.99621474  0.33488108  1
  Cr  Cr12  1  0.33316041  0.33689115  0.00195471  1
  Ni  Ni13  1  0.49805381  0.50242296  0.16969258  1
  Fe  Fe14  1  0.33282689  0.33402340  0.33269352  1
  Ni  Ni15  1  0.33145518  0.66574700  0.99949086  1
  Cr  Cr16  1  0.50152434  0.83407717  0.16649580  1
  Ni  Ni17  1  0.33429144  0.66738671  0.33245314  1
  Ni  Ni18  1  0.67010530  0.00055689  0.99836274  1
  Fe  Fe19  1  0.83510186  0.16712698  0.16769600  1
  Ni  Ni20  1  0.66752548  0.99959381  0.33387762  1
  Cr  Cr21  1  0.67019571  0.33496754  0.00174812  1
  Ni  Ni22  1  0.83719759  0.50338785  0.16779655  1
  Cr  Cr23  1  0.66667053  0.33829255  0.33253078  1
  Cr  Cr24  1  0.66309030  0.66510640  0.99846220  1
  Cr  Cr25  1  0.83484566  0.83371920  0.16842763  1
  Fe  Fe26  1  0.66556760  0.66862337  0.33572259  1
  Fe  Fe27  1  0.16863374  0.16468882  0.49934885  1
  Cr  Cr28  1  0.00252625  0.99892676  0.66624490  1
  Ni  Ni29  1  0.16824210  0.16804037  0.83148141  1
  Cr  Cr30  1  0.16894446  0.49986703  0.50088060  1
  Cr  Cr31  1  0.99966419  0.33348497  0.66885661  1
  Ni  Ni32  1  0.16734184  0.50118950  0.83524756  1
  Fe  Fe33  1  0.17034093  0.83322888  0.49970068  1
  Cr  Cr34  1  0.00059835  0.66867658  0.66680937  1
  Ni  Ni35  1  0.16637758  0.83164453  0.83374106  1
  Cr  Cr36  1  0.49836516  0.16697750  0.50094522  1
  Fe  Fe37  1  0.33438060  0.99662867  0.66702835  1
  Cr  Cr38  1  0.50102956  0.16603650  0.83149941  1
  Ni  Ni39  1  0.49822717  0.50240932  0.50048074  1
  Fe  Fe40  1  0.33492960  0.33652348  0.66843975  1
  Ni  Ni41  1  0.49934529  0.50081402  0.83113187  1
  Ni  Ni42  1  0.50210983  0.83335194  0.50118688  1
  Ni  Ni43  1  0.33592652  0.66777329  0.66935460  1
  Fe  Fe44  1  0.49975719  0.83088128  0.83205931  1
  Cr  Cr45  1  0.83229077  0.16405733  0.50099509  1
  Ni  Ni46  1  0.66740422  0.99764896  0.66899952  1
  Fe  Fe47  1  0.83386557  0.16779759  0.83287018  1
  Fe  Fe48  1  0.83011255  0.50267015  0.50110032  1
  Ni  Ni49  1  0.66632777  0.33678137  0.66771762  1
  Ni  Ni50  1  0.83427374  0.50298083  0.83240567  1
  Ni  Ni51  1  0.83215353  0.83315345  0.49868776  1
  Ni  Ni52  1  0.66415438  0.66671759  0.66570103  1
  Ni  Ni53  1  0.83231692  0.83331865  0.83283424  1
" 