1760,Ni43Fe48Cr7_5,-236.726381400924, 216.449095358356,Ni43Fe48Cr7,"# generated using pymatgen
 data_Cr5Fe26Ni23
_symmetry_space_group_name_H-M   'P 1'
_cell_length_a   7.41432369
_cell_length_b   7.41432369
_cell_length_c   10.48543711
_cell_angle_alpha   90.00000000
_cell_angle_beta   90.00000000
_cell_angle_gamma   90.00000000
_symmetry_Int_Tables_number   1
_chemical_formula_structural   Cr5Fe26Ni23
_chemical_formula_sum   'Cr5 Fe26 Ni23'
_cell_volume   576.40750150
_cell_formula_units_Z   1
loop_
 _symmetry_equiv_pos_site_id
 _symmetry_equiv_pos_as_xyz
  1  'x, y, z'
loop_
 _atom_site_type_symbol
 _atom_site_label
 _atom_site_symmetry_multiplicity
 _atom_site_fract_x
 _atom_site_fract_y
 _atom_site_fract_z
 _atom_site_occupancy
  Ni  Ni0  1  0.00440553  1.00340124  1.00302173  1
  Fe  Fe1  1  0.17254453  0.16905542  0.16887978  1
  Ni  Ni2  1  0.00465913  1.00122355  0.33705811  1
  Fe  Fe3  1  0.00520456  0.33659899  1.00275913  1
  Ni  Ni4  1  0.16964818  0.50456338  0.16925149  1
  Cr  Cr5  1  0.00593207  0.33637808  0.33844171  1
  Fe  Fe6  1  0.00554426  0.67189800  0.00460368  1
  Ni  Ni7  1  0.17156950  0.83667270  0.17089003  1
  Ni  Ni8  1  1.00299778  0.67238075  0.33537178  1
  Fe  Fe9  1  0.33722667  1.00240530  1.00328115  1
  Fe  Fe10  1  0.50111739  0.16907353  0.17077292  1
  Fe  Fe11  1  0.33613729  0.00419204  0.33724724  1
  Fe  Fe12  1  0.33531331  0.33570777  1.00266534  1
  Cr  Cr13  1  0.50277953  0.50375253  0.17179438  1
  Ni  Ni14  1  0.33769717  0.33563379  0.33666812  1
  Fe  Fe15  1  0.33440803  0.67295033  1.00268108  1
  Ni  Ni16  1  0.50148668  0.83921320  0.17281163  1
  Fe  Fe17  1  0.33435668  0.67050419  0.33810078  1
  Fe  Fe18  1  0.66912006  0.00386175  1.00162423  1
  Cr  Cr19  1  0.83597678  0.16989831  0.16993313  1
  Fe  Fe20  1  0.66987105  1.00348016  0.33840536  1
  Fe  Fe21  1  0.67031970  0.33431961  1.00312885  1
  Ni  Ni22  1  0.83885011  0.50318284  0.17159135  1
  Ni  Ni23  1  0.66797978  0.33716603  0.33813451  1
  Cr  Cr24  1  0.66932772  0.67188166  0.00427932  1
  Fe  Fe25  1  0.83845589  0.83591456  0.17095695  1
  Fe  Fe26  1  0.67164192  0.67099431  0.33799710  1
  Fe  Fe27  1  0.17189694  0.16770267  0.50526279  1
  Ni  Ni28  1  1.00273692  0.00360210  0.67039571  1
  Ni  Ni29  1  0.17017518  0.17072780  0.83650000  1
  Fe  Fe30  1  0.17207060  0.50577551  0.50458238  1
  Ni  Ni31  1  0.00575443  0.33456727  0.66891607  1
  Fe  Fe32  1  0.17231453  0.50332208  0.83592918  1
  Fe  Fe33  1  0.17018074  0.83687378  0.50362851  1
  Ni  Ni34  1  0.00367609  0.67262963  0.67069138  1
  Fe  Fe35  1  0.16914394  0.83892958  0.83682689  1
  Ni  Ni36  1  0.50224399  0.17023298  0.50294454  1
  Fe  Fe37  1  0.33659131  1.00330613  0.67030093  1
  Ni  Ni38  1  0.50294013  0.16923510  0.83719735  1
  Fe  Fe39  1  0.50322629  0.50414301  0.50371309  1
  Ni  Ni40  1  0.33783295  0.33623796  0.67053656  1
  Fe  Fe41  1  0.50282359  0.50239188  0.83599580  1
  Ni  Ni42  1  0.50295686  0.83740349  0.50326257  1
  Ni  Ni43  1  0.33859659  0.66986716  0.67142161  1
  Ni  Ni44  1  0.50217654  0.83777901  0.83491261  1
  Fe  Fe45  1  0.83520804  0.16764466  0.50417629  1
  Fe  Fe46  1  0.66963098  1.00276070  0.67002687  1
  Ni  Ni47  1  0.83742165  0.16922893  0.83487314  1
  Fe  Fe48  1  0.83548056  0.50527704  0.50428664  1
  Fe  Fe49  1  0.66977733  0.33619503  0.66872093  1
  Cr  Cr50  1  0.83942921  0.50320815  0.83526463  1
  Ni  Ni51  1  0.83748576  0.83610372  0.50308279  1
  Ni  Ni52  1  0.66871991  0.67227926  0.66943573  1
  Ni  Ni53  1  0.83693710  0.83827073  0.83676354  1
" 