7121,Ni43Fe57_16,-242.692502199114, 224.887430965335,Ni43Fe57,"# generated using pymatgen
 data_Fe23Ni31
_symmetry_space_group_name_H-M   'P 1'
_cell_length_a   7.40640543
_cell_length_b   7.40640543
_cell_length_c   10.47423901
_cell_angle_alpha   90.00000000
_cell_angle_beta   90.00000000
_cell_angle_gamma   90.00000000
_symmetry_Int_Tables_number   1
_chemical_formula_structural   Fe23Ni31
_chemical_formula_sum   'Fe23 Ni31'
_cell_volume   574.56271920
_cell_formula_units_Z   1
loop_
 _symmetry_equiv_pos_site_id
 _symmetry_equiv_pos_as_xyz
  1  'x, y, z'
loop_
 _atom_site_type_symbol
 _atom_site_label
 _atom_site_symmetry_multiplicity
 _atom_site_fract_x
 _atom_site_fract_y
 _atom_site_fract_z
 _atom_site_occupancy
  Ni  Ni0  1  1.00329652  1.00249391  1.00369378  1
  Fe  Fe1  1  0.17041402  0.17159811  0.17044275  1
  Ni  Ni2  1  1.00379931  1.00270322  0.33734429  1
  Fe  Fe3  1  1.00336467  0.33711605  1.00401878  1
  Fe  Fe4  1  0.17037718  0.50370891  0.17044377  1
  Fe  Fe5  1  1.00301708  0.33760300  0.33715493  1
  Ni  Ni6  1  0.00436971  0.67224385  1.00376930  1
  Fe  Fe7  1  0.16940957  0.83697482  0.17037555  1
  Ni  Ni8  1  1.00336070  0.67260162  0.33789306  1
  Fe  Fe9  1  0.33721827  0.00464991  1.00367399  1
  Fe  Fe10  1  0.50510290  0.17232435  0.17041995  1
  Fe  Fe11  1  0.33774065  1.00392327  0.33770391  1
  Ni  Ni12  1  0.33883427  0.33785949  1.00408870  1
  Ni  Ni13  1  0.50423793  0.50410083  0.17093639  1
  Ni  Ni14  1  0.33916281  0.33732450  0.33726012  1
  Fe  Fe15  1  0.33746656  0.67058397  1.00342697  1
  Fe  Fe16  1  0.50534828  0.83701101  0.17128194  1
  Fe  Fe17  1  0.33804840  0.67026642  0.33795130  1
  Ni  Ni18  1  0.67189721  0.00499949  0.00461603  1
  Ni  Ni19  1  0.83801544  0.17073879  0.17040899  1
  Fe  Fe20  1  0.67132278  0.00430381  0.33811589  1
  Ni  Ni21  1  0.66843612  0.33678461  1.00360273  1
  Ni  Ni22  1  0.83692077  0.50367912  0.17144874  1
  Ni  Ni23  1  0.66836164  0.33776129  0.33784994  1
  Fe  Fe24  1  0.67131740  0.67013409  1.00408825  1
  Fe  Fe25  1  0.83752624  0.83697329  0.17076191  1
  Ni  Ni26  1  0.67147845  0.67009607  0.33715371  1
  Fe  Fe27  1  0.17128230  0.17030814  0.50434311  1
  Ni  Ni28  1  1.00308715  1.00297488  0.67124254  1
  Ni  Ni29  1  0.17145561  0.17001197  0.83760267  1
  Fe  Fe30  1  0.17151591  0.50423023  0.50468262  1
  Fe  Fe31  1  0.00412930  0.33788130  0.67111060  1
  Ni  Ni32  1  0.17101509  0.50442089  0.83814779  1
  Fe  Fe33  1  0.17051888  0.83774161  0.50448466  1
  Ni  Ni34  1  0.00417447  0.67231524  0.67062041  1
  Ni  Ni35  1  0.16957304  0.83784719  0.83710468  1
  Ni  Ni36  1  0.50414659  0.17112427  0.50300758  1
  Fe  Fe37  1  0.33763701  1.00333223  0.67090116  1
  Ni  Ni38  1  0.50319254  0.17141800  0.83771821  1
  Ni  Ni39  1  0.50338118  0.50417472  0.50383569  1
  Ni  Ni40  1  0.33823521  0.33807373  0.67093290  1
  Ni  Ni41  1  0.50393506  0.50331444  0.83750904  1
  Ni  Ni42  1  0.50417403  0.83698072  0.50417337  1
  Ni  Ni43  1  0.33726320  0.66882970  0.67069209  1
  Fe  Fe44  1  0.50406189  0.83704411  0.83662743  1
  Ni  Ni45  1  0.83764338  0.16968005  0.50426214  1
  Ni  Ni46  1  0.67192594  1.00394364  0.67029896  1
  Fe  Fe47  1  0.83766928  0.17045272  0.83777128  1
  Fe  Fe48  1  0.83589330  0.50478928  0.50368256  1
  Fe  Fe49  1  0.67044349  0.33787903  0.67069124  1
  Ni  Ni50  1  0.83733107  0.50520308  0.83732602  1
  Ni  Ni51  1  0.83796114  0.83808178  0.50301398  1
  Ni  Ni52  1  0.67084220  0.67135297  0.67133950  1
  Ni  Ni53  1  0.83873749  0.83710692  0.83802277  1
" 