2275,Ni43Fe25Cr31_9,-227.268245808435, 178.81623036585,Ni43Fe25Cr31,"# generated using pymatgen
 data_Cr18Fe13Ni23
_symmetry_space_group_name_H-M   'P 1'
_cell_length_a   7.46832021
_cell_length_b   7.46832021
_cell_length_c   10.56179973
_cell_angle_alpha   90.00000000
_cell_angle_beta   90.00000000
_cell_angle_gamma   90.00000000
_symmetry_Int_Tables_number   1
_chemical_formula_structural   Cr18Fe13Ni23
_chemical_formula_sum   'Cr18 Fe13 Ni23'
_cell_volume   589.09290027
_cell_formula_units_Z   1
loop_
 _symmetry_equiv_pos_site_id
 _symmetry_equiv_pos_as_xyz
  1  'x, y, z'
loop_
 _atom_site_type_symbol
 _atom_site_label
 _atom_site_symmetry_multiplicity
 _atom_site_fract_x
 _atom_site_fract_y
 _atom_site_fract_z
 _atom_site_occupancy
  Cr  Cr0  1  0.99817727  0.00107809  0.99933277  1
  Ni  Ni1  1  0.16761294  0.17209985  0.16732202  1
  Cr  Cr2  1  0.99919039  0.00213862  0.33314695  1
  Ni  Ni3  1  0.99842565  0.33543462  0.00416339  1
  Ni  Ni4  1  0.16722434  0.49692287  0.16693812  1
  Fe  Fe5  1  0.00121948  0.33370613  0.33121108  1
  Ni  Ni6  1  0.99899103  0.66128685  0.99933691  1
  Cr  Cr7  1  0.16818095  0.83100798  0.16524657  1
  Cr  Cr8  1  0.00301920  0.66381562  0.33259962  1
  Cr  Cr9  1  0.33620007  0.00150573  0.00155541  1
  Ni  Ni10  1  0.50008431  0.16829601  0.16626870  1
  Fe  Fe11  1  0.33490660  0.99985667  0.33312042  1
  Fe  Fe12  1  0.33529389  0.33525235  0.00148938  1
  Fe  Fe13  1  0.49806688  0.49898701  0.16615062  1
  Fe  Fe14  1  0.33341918  0.33477893  0.33192278  1
  Ni  Ni15  1  0.33428698  0.66201122  0.00079750  1
  Cr  Cr16  1  0.50183087  0.83230811  0.16890535  1
  Ni  Ni17  1  0.33443722  0.66425811  0.33488238  1
  Ni  Ni18  1  0.66604452  0.00284848  0.00020551  1
  Ni  Ni19  1  0.83236634  0.16859292  0.16748198  1
  Ni  Ni20  1  0.66470183  0.00257221  0.33304742  1
  Fe  Fe21  1  0.66603655  0.33391179  0.99973161  1
  Fe  Fe22  1  0.83341784  0.49796535  0.16452238  1
  Cr  Cr23  1  0.66695279  0.33308370  0.33201980  1
  Ni  Ni24  1  0.66614028  0.66331885  -0.00006528  1
  Cr  Cr25  1  0.82998113  0.83113457  0.16432273  1
  Fe  Fe26  1  0.66383344  0.66689971  0.33426909  1
  Cr  Cr27  1  0.16690533  0.16852711  0.50025012  1
  Fe  Fe28  1  0.99868195  0.99692687  0.66619785  1
  Cr  Cr29  1  0.17009576  0.16907665  0.83308078  1
  Fe  Fe30  1  0.17023922  0.50214720  0.50002321  1
  Cr  Cr31  1  0.99723127  0.33520267  0.66437348  1
  Cr  Cr32  1  0.16736988  0.49946301  0.83331842  1
  Fe  Fe33  1  0.16975594  0.83134044  0.50138275  1
  Ni  Ni34  1  0.00064567  0.66639084  0.66729830  1
  Cr  Cr35  1  0.16527333  0.83146112  0.83246294  1
  Cr  Cr36  1  0.49940446  0.16662653  0.50172478  1
  Ni  Ni37  1  0.33512917  0.99813313  0.66525529  1
  Ni  Ni38  1  0.50049571  0.16908276  0.83229305  1
  Ni  Ni39  1  0.49877857  0.50196143  0.50044166  1
  Fe  Fe40  1  0.33747220  0.33594263  0.66693973  1
  Ni  Ni41  1  0.50186471  0.49875975  0.83275327  1
  Ni  Ni42  1  0.49958638  0.83201258  0.49855638  1
  Ni  Ni43  1  0.33446706  0.66676528  0.66413140  1
  Cr  Cr44  1  0.50263139  0.83233420  0.83315448  1
  Fe  Fe45  1  0.82975831  0.16606125  0.50048939  1
  Ni  Ni46  1  0.66447690  0.00058752  0.66654419  1
  Cr  Cr47  1  0.83118537  0.16684922  0.83128370  1
  Cr  Cr48  1  0.83169506  0.50025144  0.50000941  1
  Ni  Ni49  1  0.66481797  0.33436977  0.66809506  1
  Ni  Ni50  1  0.83155171  0.50244678  0.83463415  1
  Cr  Cr51  1  0.82968619  0.83313556  0.50163722  1
  Ni  Ni52  1  0.66504324  0.66497002  0.66646703  1
  Ni  Ni53  1  0.83111450  0.82950112  0.83267594  1
" 