3390,Ni43Fe5Cr50_12,-218.796494054088, 143.732124816905,Ni43Fe5Cr50,"# generated using pymatgen
 data_Cr28Fe3Ni23
_symmetry_space_group_name_H-M   'P 1'
_cell_length_a   7.51704694
_cell_length_b   7.51704694
_cell_length_c   10.63070973
_cell_angle_alpha   90.00000000
_cell_angle_beta   90.00000000
_cell_angle_gamma   90.00000000
_symmetry_Int_Tables_number   1
_chemical_formula_structural   Cr28Fe3Ni23
_chemical_formula_sum   'Cr28 Fe3 Ni23'
_cell_volume   600.69882664
_cell_formula_units_Z   1
loop_
 _symmetry_equiv_pos_site_id
 _symmetry_equiv_pos_as_xyz
  1  'x, y, z'
loop_
 _atom_site_type_symbol
 _atom_site_label
 _atom_site_symmetry_multiplicity
 _atom_site_fract_x
 _atom_site_fract_y
 _atom_site_fract_z
 _atom_site_occupancy
  Ni  Ni0  1  0.99315059  -0.00097174  -0.00132687  1
  Ni  Ni1  1  0.16155185  0.16688464  0.16092825  1
  Cr  Cr2  1  0.99348525  0.99629768  0.32983615  1
  Ni  Ni3  1  0.99590514  0.32755764  -0.00197007  1
  Ni  Ni4  1  0.16295489  0.49476676  0.16353971  1
  Cr  Cr5  1  -0.00313797  0.33030902  0.33037007  1
  Ni  Ni6  1  0.99590138  0.66352495  -0.00047502  1
  Cr  Cr7  1  0.16062380  0.82939177  0.16426620  1
  Ni  Ni8  1  -0.00224060  0.66286324  0.32950172  1
  Cr  Cr9  1  0.33088190  -0.00331771  -0.00271782  1
  Cr  Cr10  1  0.49793890  0.16544323  0.16345357  1
  Cr  Cr11  1  0.33092888  -0.00105477  0.32883178  1
  Ni  Ni12  1  0.32810324  0.32962682  -0.00098554  1
  Cr  Cr13  1  0.49594502  0.49441769  0.16518424  1
  Ni  Ni14  1  0.32932868  0.33151798  0.33001048  1
  Cr  Cr15  1  0.32995789  0.66334459  -0.00323379  1
  Ni  Ni16  1  0.49878588  0.83021745  0.16259395  1
  Fe  Fe17  1  0.32765596  0.66060725  0.32942923  1
  Fe  Fe18  1  0.66665690  -0.00205268  -0.00269408  1
  Ni  Ni19  1  0.83084453  0.16234162  0.16012641  1
  Cr  Cr20  1  0.66540465  -0.00203002  0.32917576  1
  Ni  Ni21  1  0.66600412  0.32674818  -0.00288622  1
  Cr  Cr22  1  0.83130574  0.49543932  0.16180055  1
  Ni  Ni23  1  0.66237717  0.32746162  0.33128921  1
  Cr  Cr24  1  0.66374478  0.66598603  0.99599169  1
  Ni  Ni25  1  0.83066322  0.83185584  0.16163586  1
  Cr  Cr26  1  0.66664680  0.66550604  0.32921703  1
  Cr  Cr27  1  0.16282349  0.16378395  0.49825993  1
  Ni  Ni28  1  0.99032762  -0.00109294  0.66193924  1
  Cr  Cr29  1  0.15785787  0.16296040  0.83137291  1
  Ni  Ni30  1  0.16410403  0.49756840  0.49553261  1
  Ni  Ni31  1  0.99470267  0.32738212  0.66266498  1
  Cr  Cr32  1  0.16179448  0.49549956  0.83135653  1
  Cr  Cr33  1  0.16073432  0.82807036  0.49693255  1
  Cr  Cr34  1  -0.00323627  0.66129638  0.66167268  1
  Cr  Cr35  1  0.16196055  0.83143544  0.82877759  1
  Ni  Ni36  1  0.50007730  0.16427641  0.49522918  1
  Cr  Cr37  1  0.33229455  0.99595223  0.66409571  1
  Cr  Cr38  1  0.50024647  0.16288697  0.83216695  1
  Cr  Cr39  1  0.49542366  0.49521518  0.49475146  1
  Cr  Cr40  1  0.32795797  0.33148773  0.66241767  1
  Cr  Cr41  1  0.49777282  0.49715095  0.82980024  1
  Cr  Cr42  1  0.49771322  0.83060964  0.49824997  1
  Ni  Ni43  1  0.33162589  0.66356684  0.66280336  1
  Ni  Ni44  1  0.49902047  0.83019664  0.82725292  1
  Ni  Ni45  1  0.82771060  0.16135198  0.49923592  1
  Ni  Ni46  1  0.66619385  0.99618064  0.66298304  1
  Ni  Ni47  1  0.83078131  0.16228546  0.83061908  1
  Cr  Cr48  1  0.83070104  0.49691143  0.49651501  1
  Cr  Cr49  1  0.66608270  0.32728281  0.66173848  1
  Cr  Cr50  1  0.83069818  0.49314577  0.83163702  1
  Ni  Ni51  1  0.83008420  0.83233373  0.49832074  1
  Fe  Fe52  1  0.66299092  0.66644755  0.66344463  1
  Cr  Cr53  1  0.83059807  0.83354257  0.82974782  1
" 