2889,Ni43Fe57_19,-242.089274195429, 225.702871330783,Ni43Fe57,"# generated using pymatgen
 data_Fe23Ni31
_symmetry_space_group_name_H-M   'P 1'
_cell_length_a   7.40104974
_cell_length_b   7.40104974
_cell_length_c   10.46666491
_cell_angle_alpha   90.00000000
_cell_angle_beta   90.00000000
_cell_angle_gamma   90.00000000
_symmetry_Int_Tables_number   1
_chemical_formula_structural   Fe23Ni31
_chemical_formula_sum   'Fe23 Ni31'
_cell_volume   573.31719322
_cell_formula_units_Z   1
loop_
 _symmetry_equiv_pos_site_id
 _symmetry_equiv_pos_as_xyz
  1  'x, y, z'
loop_
 _atom_site_type_symbol
 _atom_site_label
 _atom_site_symmetry_multiplicity
 _atom_site_fract_x
 _atom_site_fract_y
 _atom_site_fract_z
 _atom_site_occupancy
  Ni  Ni0  1  1.00420251  0.00465741  0.00469092  1
  Fe  Fe1  1  0.17097611  0.17025182  0.17186637  1
  Fe  Fe2  1  0.00510386  1.00445788  0.33787273  1
  Ni  Ni3  1  1.00371469  0.33766562  1.00399406  1
  Ni  Ni4  1  0.17150395  0.50465062  0.17151697  1
  Ni  Ni5  1  0.00470951  0.33855486  0.33789201  1
  Ni  Ni6  1  0.00496280  0.67105028  1.00388688  1
  Ni  Ni7  1  0.17150941  0.83641321  0.17113827  1
  Ni  Ni8  1  0.00509146  0.67007482  0.33751394  1
  Fe  Fe9  1  0.33779363  1.00363310  0.00534166  1
  Ni  Ni10  1  0.50476266  0.17068501  0.17140718  1
  Ni  Ni11  1  0.33989967  1.00436505  0.33805557  1
  Fe  Fe12  1  0.33735264  0.33921168  0.00473054  1
  Fe  Fe13  1  0.50420596  0.50511943  0.17038959  1
  Ni  Ni14  1  0.33740775  0.33769065  0.33741009  1
  Ni  Ni15  1  0.33846443  0.67143026  1.00441937  1
  Ni  Ni16  1  0.50426609  0.83853342  0.17125145  1
  Ni  Ni17  1  0.33740482  0.67131946  0.33800289  1
  Fe  Fe18  1  0.67208863  1.00357233  0.00499143  1
  Ni  Ni19  1  0.83710829  0.17068897  0.17156706  1
  Ni  Ni20  1  0.67001821  0.00474933  0.33730012  1
  Ni  Ni21  1  0.67119114  0.33777143  1.00426253  1
  Fe  Fe22  1  0.83819294  0.50481085  0.17066951  1
  Fe  Fe23  1  0.67083284  0.33739559  0.33736175  1
  Ni  Ni24  1  0.66994871  0.67094219  1.00436190  1
  Ni  Ni25  1  0.83760340  0.83853197  0.17130214  1
  Fe  Fe26  1  0.67090897  0.67152454  0.33760048  1
  Ni  Ni27  1  0.17117519  0.17169201  0.50342055  1
  Ni  Ni28  1  1.00313648  0.00464843  0.67014542  1
  Fe  Fe29  1  0.17037679  0.17157463  0.83695802  1
  Fe  Fe30  1  0.16919561  0.50392625  0.50392674  1
  Ni  Ni31  1  1.00438498  0.33828802  0.67148660  1
  Ni  Ni32  1  0.17111279  0.50356628  0.83693793  1
  Fe  Fe33  1  0.16949988  0.83801700  0.50379959  1
  Ni  Ni34  1  0.00475162  0.67043854  0.67197256  1
  Fe  Fe35  1  0.17068250  0.83608901  0.83844848  1
  Fe  Fe36  1  0.50548949  0.17067190  0.50349594  1
  Fe  Fe37  1  0.33676689  0.00461751  0.67061301  1
  Fe  Fe38  1  0.50534066  0.17171557  0.83814440  1
  Fe  Fe39  1  0.50496791  0.50386838  0.50459919  1
  Fe  Fe40  1  0.33660148  0.33734634  0.67083793  1
  Ni  Ni41  1  0.50360531  0.50481767  0.83817203  1
  Fe  Fe42  1  0.50542706  0.83883695  0.50408932  1
  Fe  Fe43  1  0.33721568  0.67141149  0.67196380  1
  Ni  Ni44  1  0.50522047  0.83774074  0.83795574  1
  Ni  Ni45  1  0.83873056  0.17092812  0.50486996  1
  Ni  Ni46  1  0.67089906  0.00464270  0.67208149  1
  Fe  Fe47  1  0.83765593  0.17171407  0.83778926  1
  Ni  Ni48  1  0.83824700  0.50448481  0.50443831  1
  Fe  Fe49  1  0.67289728  0.33779260  0.67163874  1
  Ni  Ni50  1  0.83865811  0.50481827  0.83801907  1
  Ni  Ni51  1  0.83748017  0.83796392  0.50427921  1
  Fe  Fe52  1  0.67297700  0.67166088  0.67209157  1
  Ni  Ni53  1  0.83704796  0.83774499  0.83779665  1
" 