8041,Ni43Fe5Cr50_19,-219.04142195385, 146.61619987667,Ni43Fe5Cr50,"# generated using pymatgen
 data_Cr28Fe3Ni23
_symmetry_space_group_name_H-M   'P 1'
_cell_length_a   7.51998891
_cell_length_b   7.51998891
_cell_length_c   10.63487030
_cell_angle_alpha   90.00000000
_cell_angle_beta   90.00000000
_cell_angle_gamma   90.00000000
_symmetry_Int_Tables_number   1
_chemical_formula_structural   Cr28Fe3Ni23
_chemical_formula_sum   'Cr28 Fe3 Ni23'
_cell_volume   601.40439554
_cell_formula_units_Z   1
loop_
 _symmetry_equiv_pos_site_id
 _symmetry_equiv_pos_as_xyz
  1  'x, y, z'
loop_
 _atom_site_type_symbol
 _atom_site_label
 _atom_site_symmetry_multiplicity
 _atom_site_fract_x
 _atom_site_fract_y
 _atom_site_fract_z
 _atom_site_occupancy
  Ni  Ni0  1  -0.00324187  0.99252703  -0.00200080  1
  Cr  Cr1  1  0.16465984  0.16275272  0.16267280  1
  Cr  Cr2  1  0.99624533  0.99633489  0.32567464  1
  Cr  Cr3  1  0.99473519  0.32915858  0.99626448  1
  Cr  Cr4  1  0.16370489  0.49968643  0.16306259  1
  Cr  Cr5  1  0.99563944  0.33166744  0.33251650  1
  Ni  Ni6  1  0.99625299  0.66510276  -0.00256795  1
  Ni  Ni7  1  0.16195595  0.82790037  0.16265663  1
  Ni  Ni8  1  0.99611214  0.66201467  0.32848444  1
  Cr  Cr9  1  0.32983937  0.99522694  0.99552717  1
  Ni  Ni10  1  0.49652067  0.16416801  0.16338679  1
  Ni  Ni11  1  0.32997180  0.99624995  0.32886233  1
  Ni  Ni12  1  0.33272964  0.32978465  -0.00263284  1
  Cr  Cr13  1  0.49479605  0.49556892  0.16127435  1
  Ni  Ni14  1  0.33007415  0.32956342  0.32998130  1
  Ni  Ni15  1  0.32828169  0.66535259  0.99535293  1
  Cr  Cr16  1  0.49310121  0.82628062  0.16499358  1
  Ni  Ni17  1  0.32674402  0.66346532  0.32991608  1
  Cr  Cr18  1  0.66275397  -0.00305761  -0.00032702  1
  Ni  Ni19  1  0.82917687  0.16426367  0.16046563  1
  Cr  Cr20  1  0.66261497  -0.00338169  0.32568966  1
  Ni  Ni21  1  0.66406073  0.33092320  -0.00158710  1
  Ni  Ni22  1  0.82926078  0.49914406  0.16179159  1
  Cr  Cr23  1  0.66440428  0.32930778  0.32768055  1
  Fe  Fe24  1  0.66409939  0.66280473  -0.00346198  1
  Fe  Fe25  1  0.83243445  0.82726698  0.16198034  1
  Fe  Fe26  1  0.66434267  0.66133867  0.32875638  1
  Ni  Ni27  1  0.16602131  0.16316320  0.49532640  1
  Cr  Cr28  1  0.00106612  0.99632580  0.66496789  1
  Ni  Ni29  1  0.16394795  0.16022860  0.83095980  1
  Ni  Ni30  1  0.16251991  0.49658054  0.49233769  1
  Cr  Cr31  1  -0.00277906  0.33292392  0.66066188  1
  Cr  Cr32  1  0.16223569  0.49688284  0.83460969  1
  Cr  Cr33  1  0.16392674  0.83044549  0.49413451  1
  Cr  Cr34  1  -0.00178215  0.66048258  0.66274993  1
  Ni  Ni35  1  0.16427748  0.83108143  0.83264835  1
  Cr  Cr36  1  0.49551327  0.16199245  0.49715504  1
  Ni  Ni37  1  0.33045638  0.99639533  0.66501814  1
  Cr  Cr38  1  0.49720153  0.16427974  0.82877239  1
  Cr  Cr39  1  0.49546474  0.49681673  0.49401485  1
  Cr  Cr40  1  0.32700285  0.33032166  0.66241335  1
  Cr  Cr41  1  0.49808474  0.49625833  0.83439900  1
  Cr  Cr42  1  0.49644448  0.83071284  0.49646990  1
  Cr  Cr43  1  0.32830705  0.66536003  0.66565490  1
  Ni  Ni44  1  0.49499597  0.83018643  0.82921040  1
  Cr  Cr45  1  0.82939608  0.16143275  0.50055189  1
  Ni  Ni46  1  0.65967657  0.99636136  0.66453823  1
  Cr  Cr47  1  0.83011307  0.16397785  0.82846583  1
  Ni  Ni48  1  0.83033584  0.49758054  0.49570689  1
  Ni  Ni49  1  0.66449437  0.33123700  0.66326654  1
  Ni  Ni50  1  0.82850057  0.49668195  0.83147286  1
  Cr  Cr51  1  0.82943502  0.82924921  0.49479075  1
  Cr  Cr52  1  0.66307843  0.66188695  0.66406794  1
  Cr  Cr53  1  0.83071236  0.82965731  0.83113979  1
" 