5119,Ni43Fe5Cr50_0,-219.002648271578, 144.738140686996,Ni43Fe5Cr50,"# generated using pymatgen
 data_Cr28Fe3Ni23
_symmetry_space_group_name_H-M   'P 1'
_cell_length_a   7.51715875
_cell_length_b   7.51715875
_cell_length_c   10.63086785
_cell_angle_alpha   90.00000000
_cell_angle_beta   90.00000000
_cell_angle_gamma   90.00000000
_symmetry_Int_Tables_number   1
_chemical_formula_structural   Cr28Fe3Ni23
_chemical_formula_sum   'Cr28 Fe3 Ni23'
_cell_volume   600.72563288
_cell_formula_units_Z   1
loop_
 _symmetry_equiv_pos_site_id
 _symmetry_equiv_pos_as_xyz
  1  'x, y, z'
loop_
 _atom_site_type_symbol
 _atom_site_label
 _atom_site_symmetry_multiplicity
 _atom_site_fract_x
 _atom_site_fract_y
 _atom_site_fract_z
 _atom_site_occupancy
  Ni  Ni0  1  0.99554555  -0.00020723  -0.00196854  1
  Ni  Ni1  1  0.16032056  0.16414212  0.16371483  1
  Cr  Cr2  1  -0.00070351  -0.00122542  0.32894952  1
  Ni  Ni3  1  0.99397036  0.32877737  -0.00199901  1
  Ni  Ni4  1  0.16147894  0.49618293  0.16495671  1
  Ni  Ni5  1  -0.00224232  0.33252693  0.32654351  1
  Cr  Cr6  1  -0.00125891  0.66055005  -0.00215240  1
  Ni  Ni7  1  0.16465508  0.82957945  0.16579712  1
  Ni  Ni8  1  0.00081040  0.65984190  0.32792574  1
  Cr  Cr9  1  0.32793324  0.99402069  0.00048265  1
  Cr  Cr10  1  0.49705087  0.16414313  0.16268809  1
  Ni  Ni11  1  0.32939052  0.99495013  0.32808199  1
  Cr  Cr12  1  0.32774488  0.33356250  -0.00262759  1
  Ni  Ni13  1  0.49678005  0.49785821  0.16388069  1
  Cr  Cr14  1  0.32826215  0.32995246  0.33016084  1
  Cr  Cr15  1  0.33027190  0.66284550  -0.00326414  1
  Ni  Ni16  1  0.49391167  0.82872161  0.16429693  1
  Ni  Ni17  1  0.32771459  0.66302487  0.32757494  1
  Fe  Fe18  1  0.66471897  -0.00237458  -0.00250479  1
  Ni  Ni19  1  0.83234049  0.16666725  0.16000253  1
  Cr  Cr20  1  0.66139075  -0.00183854  0.32970649  1
  Ni  Ni21  1  0.66630716  0.33143183  -0.00330068  1
  Ni  Ni22  1  0.83167612  0.49312735  0.16358785  1
  Cr  Cr23  1  0.66437879  0.33014975  0.33016193  1
  Cr  Cr24  1  0.66114377  0.66089786  0.99638121  1
  Cr  Cr25  1  0.83078073  0.82875361  0.16410779  1
  Cr  Cr26  1  0.66219973  0.66141405  0.32846571  1
  Cr  Cr27  1  0.16535764  0.16599131  0.49702050  1
  Ni  Ni28  1  0.99623121  -0.00193551  0.66436584  1
  Cr  Cr29  1  0.16241631  0.16523127  0.83040730  1
  Ni  Ni30  1  0.16567019  0.49721658  0.49620308  1
  Cr  Cr31  1  -0.00233908  0.33030586  0.66470689  1
  Ni  Ni32  1  0.16378466  0.49490227  0.82878019  1
  Cr  Cr33  1  0.16340093  0.82629731  0.49624573  1
  Cr  Cr34  1  -0.00199762  0.66187159  0.66425970  1
  Cr  Cr35  1  0.16403068  0.82953522  0.82849415  1
  Ni  Ni36  1  0.49414883  0.16496280  0.49679912  1
  Cr  Cr37  1  0.32994238  -0.00257730  0.66264729  1
  Cr  Cr38  1  0.49729192  0.16502664  0.83149446  1
  Fe  Fe39  1  0.49213813  0.49663247  0.49656068  1
  Ni  Ni40  1  0.33079383  0.33459346  0.66233359  1
  Ni  Ni41  1  0.49652569  0.49640765  0.82819120  1
  Cr  Cr42  1  0.49443083  0.82914295  0.49538372  1
  Ni  Ni43  1  0.33080970  0.65903029  0.66481995  1
  Ni  Ni44  1  0.49724995  0.82863214  0.83008460  1
  Cr  Cr45  1  0.83047848  0.16413754  0.49692214  1
  Cr  Cr46  1  0.66429775  -0.00235282  0.66337966  1
  Fe  Fe47  1  0.83015670  0.16540278  0.83282661  1
  Cr  Cr48  1  0.83351547  0.49773795  0.49325339  1
  Cr  Cr49  1  0.66153948  0.33125434  0.66218944  1
  Ni  Ni50  1  0.82978623  0.49393477  0.83211276  1
  Cr  Cr51  1  0.83220327  0.82827915  0.49667625  1
  Cr  Cr52  1  0.66145368  0.66146429  0.66444489  1
  Cr  Cr53  1  0.83012187  0.83141087  0.82975863  1
" 