6161,Ni43Fe34Cr21_13,-231.304565507597, 201.489548300628,Ni43Fe34Cr21,"# generated using pymatgen
 data_Cr13Fe18Ni23
_symmetry_space_group_name_H-M   'P 1'
_cell_length_a   7.43737001
_cell_length_b   7.43737001
_cell_length_c   10.51802954
_cell_angle_alpha   90.00000000
_cell_angle_beta   90.00000000
_cell_angle_gamma   90.00000000
_symmetry_Int_Tables_number   1
_chemical_formula_structural   Cr13Fe18Ni23
_chemical_formula_sum   'Cr13 Fe18 Ni23'
_cell_volume   581.79925764
_cell_formula_units_Z   1
loop_
 _symmetry_equiv_pos_site_id
 _symmetry_equiv_pos_as_xyz
  1  'x, y, z'
loop_
 _atom_site_type_symbol
 _atom_site_label
 _atom_site_symmetry_multiplicity
 _atom_site_fract_x
 _atom_site_fract_y
 _atom_site_fract_z
 _atom_site_occupancy
  Cr  Cr0  1  0.00371823  0.00292258  0.00268201  1
  Ni  Ni1  1  0.17019925  0.17145018  0.16769030  1
  Cr  Cr2  1  0.00548567  0.00259068  0.33536753  1
  Ni  Ni3  1  0.00248370  0.33539803  1.00039230  1
  Ni  Ni4  1  0.16830233  0.50199299  0.16821389  1
  Ni  Ni5  1  0.00273331  0.33524824  0.33380833  1
  Cr  Cr6  1  1.00130437  0.66736013  0.00209513  1
  Fe  Fe7  1  0.17312968  0.83457782  0.16870960  1
  Ni  Ni8  1  0.00360152  0.66789517  0.33322490  1
  Ni  Ni9  1  0.33477773  0.99910775  1.00131009  1
  Cr  Cr10  1  0.49944090  0.16629091  0.16961224  1
  Ni  Ni11  1  0.33541523  0.99933888  0.33585385  1
  Fe  Fe12  1  0.33285757  0.33736537  1.00183641  1
  Ni  Ni13  1  0.49915537  0.50499232  0.17025033  1
  Fe  Fe14  1  0.33342775  0.33669997  0.33467641  1
  Fe  Fe15  1  0.33652215  0.66796089  1.00176215  1
  Ni  Ni16  1  0.50195831  0.83435670  0.16685968  1
  Ni  Ni17  1  0.33753532  0.67046416  0.33466529  1
  Fe  Fe18  1  0.66908379  0.99930557  0.00202202  1
  Cr  Cr19  1  0.83521973  0.16852296  0.17031841  1
  Ni  Ni20  1  0.66669699  0.99925008  0.33529381  1
  Cr  Cr21  1  0.66882164  0.34009112  0.00214876  1
  Fe  Fe22  1  0.83563471  0.50275761  0.17005745  1
  Fe  Fe23  1  0.66770214  0.33712914  0.33525838  1
  Fe  Fe24  1  0.66647265  0.66977127  1.00166733  1
  Fe  Fe25  1  0.83330713  0.83250199  0.17042516  1
  Ni  Ni26  1  0.66523814  0.66821601  0.33322412  1
  Ni  Ni27  1  0.17052148  0.17009668  0.50167488  1
  Cr  Cr28  1  0.00352055  0.00236551  0.66809182  1
  Fe  Fe29  1  0.17034472  0.16969374  0.83664262  1
  Cr  Cr30  1  0.16969145  0.50432249  0.50294213  1
  Cr  Cr31  1  1.00100849  0.33297351  0.67124938  1
  Fe  Fe32  1  0.17061989  0.50186889  0.83540511  1
  Fe  Fe33  1  0.17169918  0.83534627  0.50240348  1
  Fe  Fe34  1  0.00249578  0.66762806  0.67126095  1
  Ni  Ni35  1  0.17058414  0.83339036  0.83363724  1
  Cr  Cr36  1  0.50206898  0.16796585  0.50079344  1
  Fe  Fe37  1  0.33610160  1.00109551  0.66848230  1
  Cr  Cr38  1  0.50181950  0.16764654  0.83579015  1
  Fe  Fe39  1  0.50210179  0.50415001  0.50268142  1
  Ni  Ni40  1  0.33724007  0.33701822  0.66988860  1
  Ni  Ni41  1  0.50136444  0.50331348  0.83423024  1
  Ni  Ni42  1  0.50090772  0.83424480  0.50288167  1
  Ni  Ni43  1  0.33851412  0.66977264  0.66954667  1
  Fe  Fe44  1  0.50209376  0.83371118  0.83582125  1
  Ni  Ni45  1  0.83425841  0.16920266  0.50111336  1
  Fe  Fe46  1  0.66749115  0.00204334  0.66834295  1
  Ni  Ni47  1  0.83356445  0.16861268  0.83479466  1
  Cr  Cr48  1  0.83544303  0.50279019  0.50054537  1
  Ni  Ni49  1  0.66761604  0.33759438  0.66798778  1
  Ni  Ni50  1  0.83499962  0.50270743  0.83482147  1
  Cr  Cr51  1  0.83322193  0.83293551  0.50227079  1
  Ni  Ni52  1  0.66514619  0.66722857  0.67088938  1
  Fe  Fe53  1  0.83307525  0.83446204  0.83412408  1
" 