6239,Ni43Fe27Cr29_0,-228.167103018993, 187.979391954805,Ni43Fe27Cr29,"# generated using pymatgen
 data_Cr17Fe14Ni23
_symmetry_space_group_name_H-M   'P 1'
_cell_length_a   7.46238073
_cell_length_b   7.46238073
_cell_length_c   10.55340003
_cell_angle_alpha   90.00000000
_cell_angle_beta   90.00000000
_cell_angle_gamma   90.00000000
_symmetry_Int_Tables_number   1
_chemical_formula_structural   Cr17Fe14Ni23
_chemical_formula_sum   'Cr17 Fe14 Ni23'
_cell_volume   587.68851878
_cell_formula_units_Z   1
loop_
 _symmetry_equiv_pos_site_id
 _symmetry_equiv_pos_as_xyz
  1  'x, y, z'
loop_
 _atom_site_type_symbol
 _atom_site_label
 _atom_site_symmetry_multiplicity
 _atom_site_fract_x
 _atom_site_fract_y
 _atom_site_fract_z
 _atom_site_occupancy
  Cr  Cr0  1  0.00311184  0.99868255  0.00056364  1
  Fe  Fe1  1  0.16829289  0.16689319  0.16807033  1
  Ni  Ni2  1  0.00274671  0.00134753  0.33326756  1
  Ni  Ni3  1  0.99752177  0.33736093  0.00198383  1
  Ni  Ni4  1  0.16563338  0.49972647  0.16508987  1
  Ni  Ni5  1  0.99883154  0.33332974  0.33288108  1
  Ni  Ni6  1  0.00122907  0.66526414  0.00072143  1
  Fe  Fe7  1  0.16882048  0.83418918  0.16593763  1
  Cr  Cr8  1  0.99958715  0.66622029  0.33382400  1
  Ni  Ni9  1  0.33474182  0.99902243  0.00123209  1
  Ni  Ni10  1  0.50075405  0.16708980  0.16647353  1
  Ni  Ni11  1  0.33329990  0.00094868  0.33338139  1
  Cr  Cr12  1  0.33646944  0.33251323  0.00136294  1
  Ni  Ni13  1  0.50058902  0.49971170  0.16584497  1
  Cr  Cr14  1  0.33490471  0.33196336  0.33325141  1
  Ni  Ni15  1  0.33201732  0.66858866  0.00080332  1
  Cr  Cr16  1  0.50044830  0.83410968  0.16604641  1
  Cr  Cr17  1  0.33470415  0.66835668  0.33561760  1
  Ni  Ni18  1  0.66365199  0.00273617  0.99951358  1
  Cr  Cr19  1  0.83326225  0.16813831  0.16829090  1
  Fe  Fe20  1  0.66461978  0.00098374  0.33409323  1
  Ni  Ni21  1  0.66697861  0.33464140  1.00024482  1
  Fe  Fe22  1  0.83261961  0.49898960  0.16603947  1
  Fe  Fe23  1  0.66671700  0.33442351  0.33328221  1
  Fe  Fe24  1  0.66684357  0.66419986  0.00072151  1
  Cr  Cr25  1  0.83236093  0.83337131  0.16694760  1
  Ni  Ni26  1  0.66703395  0.66488435  0.33430452  1
  Cr  Cr27  1  0.16652895  0.16935717  0.49986725  1
  Fe  Fe28  1  0.00081882  0.99832796  0.66664899  1
  Cr  Cr29  1  0.16761537  0.16841417  0.83323968  1
  Ni  Ni30  1  0.16677476  0.50118003  0.50306089  1
  Fe  Fe31  1  1.00010213  0.33676197  0.66599782  1
  Cr  Cr32  1  0.16739378  0.50197559  0.83251458  1
  Ni  Ni33  1  0.16822284  0.83096919  0.50097040  1
  Fe  Fe34  1  0.00202259  0.66585036  0.66649164  1
  Ni  Ni35  1  0.16700081  0.83050136  0.83434596  1
  Ni  Ni36  1  0.50235918  0.16665554  0.50021177  1
  Cr  Cr37  1  0.33337081  0.99984615  0.66672609  1
  Ni  Ni38  1  0.50301359  0.16830373  0.83425113  1
  Fe  Fe39  1  0.50099126  0.50113022  0.50211991  1
  Ni  Ni40  1  0.33677537  0.33537578  0.66613748  1
  Fe  Fe41  1  0.50192549  0.49948759  0.83278050  1
  Ni  Ni42  1  0.50094011  0.83302791  0.49968515  1
  Ni  Ni43  1  0.33325134  0.66592650  0.66473728  1
  Cr  Cr44  1  0.50012128  0.83296000  0.83576765  1
  Cr  Cr45  1  0.83237434  0.16741658  0.49997197  1
  Fe  Fe46  1  0.66450369  0.00135982  0.66661434  1
  Cr  Cr47  1  0.83112876  0.16829648  0.83267181  1
  Fe  Fe48  1  0.83266210  0.50001414  0.50097416  1
  Ni  Ni49  1  0.66549478  0.33554573  0.66695058  1
  Fe  Fe50  1  0.83211231  0.49994959  0.83392647  1
  Cr  Cr51  1  0.83150629  0.83411437  0.50069472  1
  Ni  Ni52  1  0.66697827  0.66371479  0.66644232  1
  Cr  Cr53  1  0.83310522  0.83273628  0.83329401  1
" 