3636,Ni43Fe25Cr31_13,-227.628306708881, 182.994356861445,Ni43Fe25Cr31,"# generated using pymatgen
 data_Cr18Fe13Ni23
_symmetry_space_group_name_H-M   'P 1'
_cell_length_a   7.47090955
_cell_length_b   7.47090955
_cell_length_c   10.56546161
_cell_angle_alpha   90.00000000
_cell_angle_beta   90.00000000
_cell_angle_gamma   90.00000000
_symmetry_Int_Tables_number   1
_chemical_formula_structural   Cr18Fe13Ni23
_chemical_formula_sum   'Cr18 Fe13 Ni23'
_cell_volume   589.70584657
_cell_formula_units_Z   1
loop_
 _symmetry_equiv_pos_site_id
 _symmetry_equiv_pos_as_xyz
  1  'x, y, z'
loop_
 _atom_site_type_symbol
 _atom_site_label
 _atom_site_symmetry_multiplicity
 _atom_site_fract_x
 _atom_site_fract_y
 _atom_site_fract_z
 _atom_site_occupancy
  Ni  Ni0  1  0.99848336  0.99699500  0.99806371  1
  Cr  Cr1  1  0.16593048  0.16481458  0.16725244  1
  Cr  Cr2  1  0.99630575  0.99780071  0.33731963  1
  Cr  Cr3  1  0.99841789  0.33073054  0.99745319  1
  Cr  Cr4  1  0.16729604  0.50058308  0.16899427  1
  Ni  Ni5  1  0.99750914  0.33274927  0.33535485  1
  Cr  Cr6  1  0.99695474  0.66852076  0.99904843  1
  Cr  Cr7  1  0.16479463  0.83333225  0.16594191  1
  Fe  Fe8  1  0.99686101  0.66829668  0.33663447  1
  Fe  Fe9  1  0.33456563  0.99858252  0.99687012  1
  Ni  Ni10  1  0.50196990  0.16637704  0.16612085  1
  Cr  Cr11  1  0.33509636  0.99836486  0.33733631  1
  Cr  Cr12  1  0.33498365  0.33329817  0.99763984  1
  Ni  Ni13  1  0.50015913  0.49920263  0.16763427  1
  Fe  Fe14  1  0.33562408  0.33116563  0.33298943  1
  Fe  Fe15  1  0.33457921  0.66676125  0.99675081  1
  Cr  Cr16  1  0.50147258  0.83369502  0.16384924  1
  Fe  Fe17  1  0.33430352  0.66724150  0.33480656  1
  Fe  Fe18  1  0.66971623  -0.00018681  0.99821429  1
  Fe  Fe19  1  0.83106941  0.16416983  0.16733950  1
  Ni  Ni20  1  0.66686040  0.00037722  0.33243464  1
  Cr  Cr21  1  0.66517293  0.33356838  0.99949465  1
  Cr  Cr22  1  0.83153086  0.50205363  0.16875680  1
  Ni  Ni23  1  0.66832191  0.33202055  0.33199669  1
  Ni  Ni24  1  0.66389883  0.66914186  0.99774906  1
  Ni  Ni25  1  0.83146623  0.83609439  0.16442090  1
  Cr  Cr26  1  0.66789576  0.67050926  0.33574856  1
  Ni  Ni27  1  0.16357288  0.16495557  0.50193741  1
  Fe  Fe28  1  0.99729913  0.99949315  0.66574379  1
  Cr  Cr29  1  0.16391523  0.16255548  0.83043154  1
  Cr  Cr30  1  0.16479072  0.49915020  0.49868711  1
  Ni  Ni31  1  0.99715300  0.33404106  0.66570944  1
  Fe  Fe32  1  0.16503349  0.50336738  0.83009077  1
  Ni  Ni33  1  0.16636759  0.83352534  0.50257473  1
  Ni  Ni34  1  0.99954260  0.67006039  0.66513058  1
  Ni  Ni35  1  0.16744409  0.83376729  0.83237066  1
  Cr  Cr36  1  0.50314395  0.16505625  0.50082420  1
  Ni  Ni37  1  0.33336066  0.99575701  0.66597408  1
  Fe  Fe38  1  0.50310492  0.16282005  0.83100834  1
  Cr  Cr39  1  0.50401446  0.50019206  0.49944951  1
  Cr  Cr40  1  0.33368180  0.33100666  0.66782025  1
  Ni  Ni41  1  0.50007423  0.50255955  0.83215017  1
  Ni  Ni42  1  0.50044923  0.83355384  0.50309977  1
  Fe  Fe43  1  0.33329980  0.66795242  0.66745456  1
  Fe  Fe44  1  0.50177071  0.83399467  0.83133559  1
  Ni  Ni45  1  0.83290204  0.16734992  0.50078563  1
  Ni  Ni46  1  0.66676900  0.99788872  0.66642435  1
  Ni  Ni47  1  0.83193294  0.16296238  0.83139226  1
  Ni  Ni48  1  0.83337555  0.49856455  0.50180539  1
  Ni  Ni49  1  0.66842251  0.33132115  0.66746475  1
  Cr  Cr50  1  0.83045123  0.50047820  0.82849899  1
  Ni  Ni51  1  0.83179433  0.83402222  0.50286984  1
  Fe  Fe52  1  0.66733763  0.66824405  0.66637709  1
  Ni  Ni53  1  0.83379953  0.83514352  0.83241665  1
" 