4150,Ni43Fe25Cr31_10,-228.196412256808, 182.692718494157,Ni43Fe25Cr31,"# generated using pymatgen
 data_Cr18Fe13Ni23
_symmetry_space_group_name_H-M   'P 1'
_cell_length_a   7.46975173
_cell_length_b   7.46975173
_cell_length_c   10.56382420
_cell_angle_alpha   90.00000000
_cell_angle_beta   90.00000000
_cell_angle_gamma   90.00000000
_symmetry_Int_Tables_number   1
_chemical_formula_structural   Cr18Fe13Ni23
_chemical_formula_sum   'Cr18 Fe13 Ni23'
_cell_volume   589.43171537
_cell_formula_units_Z   1
loop_
 _symmetry_equiv_pos_site_id
 _symmetry_equiv_pos_as_xyz
  1  'x, y, z'
loop_
 _atom_site_type_symbol
 _atom_site_label
 _atom_site_symmetry_multiplicity
 _atom_site_fract_x
 _atom_site_fract_y
 _atom_site_fract_z
 _atom_site_occupancy
  Fe  Fe0  1  0.99905603  0.99700669  0.00035888  1
  Cr  Cr1  1  0.16659156  0.16520472  0.16963055  1
  Fe  Fe2  1  0.00188441  0.99687697  0.33425734  1
  Fe  Fe3  1  0.99825927  0.33450287  0.00147149  1
  Ni  Ni4  1  0.16308020  0.50024699  0.16394191  1
  Fe  Fe5  1  0.00008814  0.33356852  0.33356101  1
  Ni  Ni6  1  0.00146364  0.66385317  0.00105368  1
  Ni  Ni7  1  0.16667201  0.83086388  0.16675705  1
  Ni  Ni8  1  0.99798942  0.66136571  0.33235565  1
  Cr  Cr9  1  0.33810326  0.99885410  0.00045451  1
  Ni  Ni10  1  0.50174869  0.16570670  0.16857607  1
  Ni  Ni11  1  0.33706189  0.00271347  0.33403384  1
  Cr  Cr12  1  0.33248851  0.33394613  0.99950669  1
  Fe  Fe13  1  0.49853322  0.50060010  0.16787540  1
  Fe  Fe14  1  0.33479687  0.33308932  0.33368025  1
  Fe  Fe15  1  0.33378707  0.66743710  0.00157535  1
  Ni  Ni16  1  0.49954254  0.83635753  0.16738532  1
  Cr  Cr17  1  0.33201742  0.66892368  0.32911170  1
  Ni  Ni18  1  0.66644983  0.00006087  0.00006709  1
  Fe  Fe19  1  0.83261764  0.16538902  0.16849479  1
  Ni  Ni20  1  0.66239333  0.00268713  0.33149567  1
  Cr  Cr21  1  0.66608304  0.33060617  0.00308367  1
  Ni  Ni22  1  0.83485894  0.49802632  0.17004336  1
  Fe  Fe23  1  0.66435174  0.33488429  0.33193456  1
  Cr  Cr24  1  0.66809758  0.66863172  0.00311411  1
  Cr  Cr25  1  0.83339734  0.83302236  0.16861398  1
  Fe  Fe26  1  0.66497421  0.66755015  0.33342909  1
  Ni  Ni27  1  0.16940324  0.16778173  0.49737249  1
  Ni  Ni28  1  0.99687337  0.99856111  0.66539722  1
  Cr  Cr29  1  0.16726479  0.16847964  0.83154904  1
  Cr  Cr30  1  0.16642632  0.50074149  0.50202877  1
  Cr  Cr31  1  0.00091811  0.33347301  0.66546993  1
  Ni  Ni32  1  0.16581756  0.50207425  0.83411314  1
  Cr  Cr33  1  0.16764922  0.83419713  0.49916441  1
  Ni  Ni34  1  0.99783204  0.66559693  0.66700035  1
  Cr  Cr35  1  0.16659191  0.83004315  0.83314047  1
  Ni  Ni36  1  0.50001308  0.16742240  0.49983643  1
  Cr  Cr37  1  0.33503105  0.00140340  0.66334669  1
  Ni  Ni38  1  0.50237135  0.16471553  0.83053802  1
  Fe  Fe39  1  0.50045261  0.50069865  0.50114623  1
  Ni  Ni40  1  0.33508631  0.33395898  0.66461527  1
  Cr  Cr41  1  0.49817381  0.50087090  0.82943934  1
  Ni  Ni42  1  0.50161323  0.83436747  0.49918415  1
  Ni  Ni43  1  0.33480339  0.66524439  0.66818306  1
  Ni  Ni44  1  0.50319041  0.83391660  0.83260495  1
  Cr  Cr45  1  0.83162171  0.16605923  0.49724488  1
  Ni  Ni46  1  0.66485347  0.99843958  0.66855109  1
  Cr  Cr47  1  0.83077765  0.16352243  0.83544463  1
  Ni  Ni48  1  0.83000691  0.50023255  0.49843673  1
  Fe  Fe49  1  0.66481630  0.33288953  0.66404565  1
  Cr  Cr50  1  0.83306235  0.50143376  0.83096084  1
  Cr  Cr51  1  0.83135855  0.83081567  0.50050448  1
  Ni  Ni52  1  0.66579560  0.66861838  0.66306223  1
  Fe  Fe53  1  0.83203360  0.83269219  0.83198226  1
" 