7265,Ni43Fe5Cr50_11,-219.163921511849, 152.216162648212,Ni43Fe5Cr50,"# generated using pymatgen
 data_Cr28Fe3Ni23
_symmetry_space_group_name_H-M   'P 1'
_cell_length_a   7.51483411
_cell_length_b   7.51483411
_cell_length_c   10.62758031
_cell_angle_alpha   90.00000000
_cell_angle_beta   90.00000000
_cell_angle_gamma   90.00000000
_symmetry_Int_Tables_number   1
_chemical_formula_structural   Cr28Fe3Ni23
_chemical_formula_sum   'Cr28 Fe3 Ni23'
_cell_volume   600.16849095
_cell_formula_units_Z   1
loop_
 _symmetry_equiv_pos_site_id
 _symmetry_equiv_pos_as_xyz
  1  'x, y, z'
loop_
 _atom_site_type_symbol
 _atom_site_label
 _atom_site_symmetry_multiplicity
 _atom_site_fract_x
 _atom_site_fract_y
 _atom_site_fract_z
 _atom_site_occupancy
  Cr  Cr0  1  -0.00249364  -0.00119647  0.99467654  1
  Ni  Ni1  1  0.16565964  0.16478290  0.16363990  1
  Ni  Ni2  1  -0.00243251  -0.00216324  0.33047277  1
  Cr  Cr3  1  -0.00201378  0.33032503  -0.00297431  1
  Ni  Ni4  1  0.16447628  0.49542619  0.16265099  1
  Cr  Cr5  1  -0.00280541  0.32910240  0.32665391  1
  Cr  Cr6  1  -0.00078389  0.66137853  0.99367842  1
  Cr  Cr7  1  0.16150609  0.82897641  0.16459503  1
  Ni  Ni8  1  -0.00217624  0.66263867  0.32965201  1
  Fe  Fe9  1  0.32900766  -0.00267792  -0.00211209  1
  Ni  Ni10  1  0.49473839  0.16324071  0.16083110  1
  Cr  Cr11  1  0.32787152  -0.00143229  0.32913181  1
  Ni  Ni12  1  0.32904149  0.33069129  -0.00070156  1
  Cr  Cr13  1  0.49465164  0.49576480  0.16301209  1
  Ni  Ni14  1  0.33013468  0.32995012  0.32772080  1
  Ni  Ni15  1  0.32882519  0.66356272  0.99626614  1
  Fe  Fe16  1  0.49535164  0.83166088  0.16099359  1
  Cr  Cr17  1  0.32863665  0.66234846  0.33109114  1
  Fe  Fe18  1  0.66341426  -0.00181358  -0.00237735  1
  Ni  Ni19  1  0.82992365  0.16227705  0.16374431  1
  Cr  Cr20  1  0.66241474  0.00015746  0.32868019  1
  Cr  Cr21  1  0.66581569  0.32884107  -0.00266249  1
  Ni  Ni22  1  0.83255792  0.49643571  0.16489342  1
  Cr  Cr23  1  0.66215220  0.33003460  0.33147961  1
  Cr  Cr24  1  0.66391900  0.66295154  0.99620816  1
  Cr  Cr25  1  0.83011821  0.82928607  0.16543158  1
  Cr  Cr26  1  0.66269150  0.66039296  0.33170155  1
  Cr  Cr27  1  0.16253495  0.16343339  0.49781394  1
  Cr  Cr28  1  -0.00194511  -0.00240781  0.66398510  1
  Cr  Cr29  1  0.16559349  0.16667219  0.82833020  1
  Cr  Cr30  1  0.16342174  0.49610369  0.49714394  1
  Ni  Ni31  1  0.99644697  0.33090531  0.66571173  1
  Ni  Ni32  1  0.16493538  0.49747160  0.83034891  1
  Ni  Ni33  1  0.16307934  0.82958211  0.49715066  1
  Cr  Cr34  1  -0.00140448  0.66263717  0.66684750  1
  Ni  Ni35  1  0.16531417  0.82868785  0.82925990  1
  Cr  Cr36  1  0.49386409  0.16637114  0.49977537  1
  Ni  Ni37  1  0.32781323  0.99432031  0.66454814  1
  Cr  Cr38  1  0.49544916  0.16439946  0.83039162  1
  Ni  Ni39  1  0.49471525  0.49539677  0.49838589  1
  Ni  Ni40  1  0.32804500  0.33240034  0.66316653  1
  Cr  Cr41  1  0.49305056  0.49548078  0.82848627  1
  Cr  Cr42  1  0.49485302  0.82924036  0.49857420  1
  Ni  Ni43  1  0.32791579  0.66373841  0.66389723  1
  Cr  Cr44  1  0.49612085  0.83073527  0.83247287  1
  Ni  Ni45  1  0.83239043  0.16541455  0.49655877  1
  Cr  Cr46  1  0.66480082  -0.00217519  0.66475392  1
  Ni  Ni47  1  0.83053836  0.16357784  0.82981076  1
  Ni  Ni48  1  0.83149805  0.49546223  0.49624818  1
  Cr  Cr49  1  0.66714837  0.33107477  0.66168296  1
  Ni  Ni50  1  0.83269551  0.49599899  0.82922666  1
  Cr  Cr51  1  0.83459914  0.83012048  0.49321377  1
  Cr  Cr52  1  0.66321899  0.66171382  0.66279352  1
  Ni  Ni53  1  0.83141257  0.83101026  0.83135241  1
" 