8852,Ni43Fe5Cr50_17,-218.960926713174, 148.899705955816,Ni43Fe5Cr50,"# generated using pymatgen
 data_Cr28Fe3Ni23
_symmetry_space_group_name_H-M   'P 1'
_cell_length_a   7.51544350
_cell_length_b   7.51544350
_cell_length_c   10.62844213
_cell_angle_alpha   90.00000000
_cell_angle_beta   90.00000000
_cell_angle_gamma   90.00000000
_symmetry_Int_Tables_number   1
_chemical_formula_structural   Cr28Fe3Ni23
_chemical_formula_sum   'Cr28 Fe3 Ni23'
_cell_volume   600.31451055
_cell_formula_units_Z   1
loop_
 _symmetry_equiv_pos_site_id
 _symmetry_equiv_pos_as_xyz
  1  'x, y, z'
loop_
 _atom_site_type_symbol
 _atom_site_label
 _atom_site_symmetry_multiplicity
 _atom_site_fract_x
 _atom_site_fract_y
 _atom_site_fract_z
 _atom_site_occupancy
  Ni  Ni0  1  0.00053783  0.99507852  0.99561313  1
  Cr  Cr1  1  0.16208288  0.16484749  0.16249176  1
  Ni  Ni2  1  -0.00207497  -0.00145280  0.32968841  1
  Cr  Cr3  1  -0.00281330  0.33057408  0.99460135  1
  Ni  Ni4  1  0.16709662  0.49755462  0.16279909  1
  Ni  Ni5  1  0.99611205  0.32969450  0.33255045  1
  Cr  Cr6  1  -0.00204167  0.66469951  -0.00309586  1
  Ni  Ni7  1  0.16404162  0.83020472  0.16030002  1
  Cr  Cr8  1  -0.00111490  0.66247249  0.32963263  1
  Ni  Ni9  1  0.32711830  0.99547373  0.99599571  1
  Cr  Cr10  1  0.49657756  0.16625094  0.16310481  1
  Cr  Cr11  1  0.32896848  -0.00262361  0.33069798  1
  Ni  Ni12  1  0.33161483  0.33291320  0.99607491  1
  Ni  Ni13  1  0.49400836  0.49682868  0.16074523  1
  Cr  Cr14  1  0.33103151  0.33102460  0.33238798  1
  Ni  Ni15  1  0.32949670  0.66206771  -0.00279581  1
  Cr  Cr16  1  0.49521790  0.82775599  0.16163782  1
  Cr  Cr17  1  0.32901072  0.66228387  0.32944608  1
  Cr  Cr18  1  0.66367839  -0.00221953  0.99524618  1
  Cr  Cr19  1  0.83181368  0.16400293  0.16616693  1
  Fe  Fe20  1  0.66391147  0.00018614  0.33156791  1
  Cr  Cr21  1  0.66149733  0.33180024  0.99281440  1
  Cr  Cr22  1  0.82921066  0.49436850  0.16514544  1
  Ni  Ni23  1  0.66314736  0.33091065  0.33241540  1
  Ni  Ni24  1  0.66020417  0.66023316  0.99605265  1
  Cr  Cr25  1  0.83091225  0.83226874  0.16431400  1
  Cr  Cr26  1  0.66248987  0.65998918  0.33035546  1
  Fe  Fe27  1  0.16198805  0.16539551  0.49589276  1
  Ni  Ni28  1  0.99580030  -0.00264076  0.66525101  1
  Cr  Cr29  1  0.16367378  0.16313592  0.83165898  1
  Ni  Ni30  1  0.16379763  0.49494935  0.49655551  1
  Cr  Cr31  1  0.99593004  0.33126655  0.66363300  1
  Ni  Ni32  1  0.16648791  0.49963105  0.83104074  1
  Cr  Cr33  1  0.16295307  0.82967151  0.49974848  1
  Cr  Cr34  1  -0.00127560  0.66183914  0.66412403  1
  Ni  Ni35  1  0.16527348  0.82822475  0.83142868  1
  Ni  Ni36  1  0.49945522  0.16531160  0.49583949  1
  Cr  Cr37  1  0.33049221  -0.00172465  0.66276053  1
  Ni  Ni38  1  0.49730936  0.16356782  0.83097253  1
  Ni  Ni39  1  0.49588748  0.49407463  0.49739062  1
  Cr  Cr40  1  0.33169797  0.33121100  0.66153914  1
  Fe  Fe41  1  0.49347905  0.49717793  0.83189537  1
  Cr  Cr42  1  0.49783721  0.83010994  0.49864839  1
  Ni  Ni43  1  0.32874292  0.66085723  0.66410368  1
  Cr  Cr44  1  0.49362891  0.82865447  0.82978953  1
  Cr  Cr45  1  0.83086171  0.16362130  0.49492484  1
  Ni  Ni46  1  0.66402982  0.00040311  0.66323524  1
  Ni  Ni47  1  0.82899336  0.16262399  0.82889874  1
  Ni  Ni48  1  0.83056659  0.49331676  0.49442323  1
  Cr  Cr49  1  0.66247403  0.32901996  0.66612064  1
  Ni  Ni50  1  0.83022339  0.49556859  0.83087154  1
  Cr  Cr51  1  0.82979825  0.83189651  0.49708140  1
  Cr  Cr52  1  0.66327508  0.66009224  0.66343513  1
  Cr  Cr53  1  0.83101586  0.83168909  0.82891553  1
" 