5961,Ni43Fe48Cr7_16,-236.700664533217, 212.611028173483,Ni43Fe48Cr7,"# generated using pymatgen
 data_Cr5Fe26Ni23
_symmetry_space_group_name_H-M   'P 1'
_cell_length_a   7.41666321
_cell_length_b   7.41666321
_cell_length_c   10.48874569
_cell_angle_alpha   90.00000000
_cell_angle_beta   90.00000000
_cell_angle_gamma   90.00000000
_symmetry_Int_Tables_number   1
_chemical_formula_structural   Cr5Fe26Ni23
_chemical_formula_sum   'Cr5 Fe26 Ni23'
_cell_volume   576.95331347
_cell_formula_units_Z   1
loop_
 _symmetry_equiv_pos_site_id
 _symmetry_equiv_pos_as_xyz
  1  'x, y, z'
loop_
 _atom_site_type_symbol
 _atom_site_label
 _atom_site_symmetry_multiplicity
 _atom_site_fract_x
 _atom_site_fract_y
 _atom_site_fract_z
 _atom_site_occupancy
  Ni  Ni0  1  1.00296347  0.00350573  1.00200995  1
  Fe  Fe1  1  0.17128096  0.17037631  0.17077893  1
  Fe  Fe2  1  0.00424651  0.00346785  0.33748006  1
  Fe  Fe3  1  1.00313667  0.33505358  1.00317286  1
  Ni  Ni4  1  0.16972940  0.50292291  0.17135597  1
  Ni  Ni5  1  0.00460822  0.33891081  0.33703147  1
  Cr  Cr6  1  0.00407162  0.67025458  0.00437785  1
  Fe  Fe7  1  0.17031651  0.83678106  0.16922884  1
  Ni  Ni8  1  1.00214255  0.66891383  0.33621886  1
  Ni  Ni9  1  0.33708114  1.00146200  0.00500691  1
  Fe  Fe10  1  0.50277306  0.16987237  0.17071162  1
  Fe  Fe11  1  0.33624586  0.00517912  0.33685295  1
  Cr  Cr12  1  0.33633674  0.33764452  0.00429278  1
  Ni  Ni13  1  0.50418759  0.50498010  0.16988693  1
  Ni  Ni14  1  0.33636089  0.33565342  0.33696617  1
  Ni  Ni15  1  0.33755770  0.67099045  1.00260437  1
  Ni  Ni16  1  0.50322268  0.83642694  0.16862470  1
  Cr  Cr17  1  0.33499902  0.66868182  0.33590966  1
  Ni  Ni18  1  0.67014536  1.00246814  1.00251517  1
  Cr  Cr19  1  0.83767980  0.17066245  0.16920393  1
  Ni  Ni20  1  0.66941691  1.00335762  0.33772447  1
  Fe  Fe21  1  0.67142879  0.33774077  1.00311862  1
  Ni  Ni22  1  0.83627205  0.50346290  0.17141229  1
  Fe  Fe23  1  0.66987522  0.33789055  0.33765532  1
  Fe  Fe24  1  0.66776025  0.67127684  0.00373097  1
  Fe  Fe25  1  0.83559300  0.83509901  0.17051894  1
  Fe  Fe26  1  0.67158498  0.66944312  0.33602560  1
  Ni  Ni27  1  0.16947371  0.17030508  0.50293862  1
  Fe  Fe28  1  1.00303235  0.00386384  0.67092826  1
  Ni  Ni29  1  0.16692497  0.16911123  0.83642152  1
  Fe  Fe30  1  0.16851483  0.50196557  0.50313349  1
  Fe  Fe31  1  1.00295758  0.33549460  0.66965768  1
  Fe  Fe32  1  0.16975559  0.50416637  0.83573716  1
  Fe  Fe33  1  0.16871703  0.83790013  0.50474074  1
  Ni  Ni34  1  0.00398661  0.66963290  0.66974567  1
  Ni  Ni35  1  0.17148781  0.83734784  0.83609004  1
  Fe  Fe36  1  0.50360209  0.16985952  0.50372289  1
  Ni  Ni37  1  0.33711944  1.00293597  0.66949357  1
  Cr  Cr38  1  0.50438669  0.16813540  0.83641344  1
  Fe  Fe39  1  0.50400592  0.50129924  0.50378628  1
  Fe  Fe40  1  0.33611510  0.33672675  0.66895060  1
  Fe  Fe41  1  0.50407429  0.50571716  0.83637564  1
  Fe  Fe42  1  0.50426521  0.83902949  0.50423154  1
  Fe  Fe43  1  0.33732663  0.67078982  0.67078067  1
  Ni  Ni44  1  0.50288947  0.83458712  0.83685192  1
  Ni  Ni45  1  0.83723782  0.17028288  0.50408133  1
  Ni  Ni46  1  0.67011855  0.00391547  0.66995103  1
  Ni  Ni47  1  0.83883556  0.17015381  0.83653257  1
  Fe  Fe48  1  0.83766782  0.50263100  0.50298953  1
  Ni  Ni49  1  0.67060932  0.33609914  0.66924166  1
  Fe  Fe50  1  0.83636311  0.50292817  0.83594603  1
  Fe  Fe51  1  0.83720547  0.83749822  0.50365251  1
  Fe  Fe52  1  0.66992059  0.67071761  0.67043202  1
  Ni  Ni53  1  0.83581146  0.83784879  0.83617934  1
" 