5632,Ni43Fe25Cr31_1,-227.558266836679, 179.631321010919,Ni43Fe25Cr31,"# generated using pymatgen
 data_Cr18Fe13Ni23
_symmetry_space_group_name_H-M   'P 1'
_cell_length_a   7.47130819
_cell_length_b   7.47130819
_cell_length_c   10.56602537
_cell_angle_alpha   90.00000000
_cell_angle_beta   90.00000000
_cell_angle_gamma   90.00000000
_symmetry_Int_Tables_number   1
_chemical_formula_structural   Cr18Fe13Ni23
_chemical_formula_sum   'Cr18 Fe13 Ni23'
_cell_volume   589.80024878
_cell_formula_units_Z   1
loop_
 _symmetry_equiv_pos_site_id
 _symmetry_equiv_pos_as_xyz
  1  'x, y, z'
loop_
 _atom_site_type_symbol
 _atom_site_label
 _atom_site_symmetry_multiplicity
 _atom_site_fract_x
 _atom_site_fract_y
 _atom_site_fract_z
 _atom_site_occupancy
  Cr  Cr0  1  0.99804384  0.99865368  0.99941971  1
  Cr  Cr1  1  0.16975833  0.16614942  0.16580331  1
  Ni  Ni2  1  0.99448971  0.99783732  0.33107218  1
  Cr  Cr3  1  0.99778463  0.33396505  0.99743668  1
  Cr  Cr4  1  0.17084079  0.50173580  0.16507077  1
  Cr  Cr5  1  0.99952863  0.33428969  0.33426970  1
  Ni  Ni6  1  0.00011090  0.66685465  0.99670747  1
  Cr  Cr7  1  0.16468784  0.83109191  0.16558895  1
  Ni  Ni8  1  0.99855093  0.66594395  0.33468846  1
  Ni  Ni9  1  0.33517152  0.99915026  0.99733447  1
  Fe  Fe10  1  0.50112913  0.16857373  0.16672817  1
  Cr  Cr11  1  0.33724139  0.99918697  0.33557676  1
  Ni  Ni12  1  0.33610618  0.33329862  0.99758146  1
  Fe  Fe13  1  0.49851276  0.49930192  0.16631624  1
  Ni  Ni14  1  0.33576432  0.33555933  0.33373450  1
  Ni  Ni15  1  0.33371785  0.66667546  0.99778681  1
  Fe  Fe16  1  0.49924035  0.83120839  0.16758497  1
  Ni  Ni17  1  0.33464957  0.66452087  0.33347129  1
  Cr  Cr18  1  0.66602264  -0.00010051  0.00040484  1
  Fe  Fe19  1  0.83029457  0.16500200  0.16767439  1
  Ni  Ni20  1  0.66627860  0.99896085  0.33140467  1
  Ni  Ni21  1  0.66347894  0.33220738  0.99904061  1
  Cr  Cr22  1  0.82995250  0.50199387  0.16659724  1
  Fe  Fe23  1  0.66379804  0.33102540  0.33174777  1
  Cr  Cr24  1  0.66705959  0.66726743  0.99836667  1
  Ni  Ni25  1  0.83094742  0.83300532  0.16936424  1
  Fe  Fe26  1  0.66536318  0.66904055  0.33254024  1
  Cr  Cr27  1  0.16581386  0.16739073  0.50009409  1
  Fe  Fe28  1  0.99761620  0.00098961  0.67070523  1
  Ni  Ni29  1  0.16637876  0.16687244  0.83356962  1
  Ni  Ni30  1  0.16532450  0.50083852  0.49794371  1
  Ni  Ni31  1  0.99771286  0.33589134  0.66780381  1
  Ni  Ni32  1  0.16776819  0.50047754  0.83512045  1
  Cr  Cr33  1  0.16377352  0.83080778  0.49850326  1
  Fe  Fe34  1  0.99828135  0.66346145  0.66888028  1
  Ni  Ni35  1  0.16505301  0.83177885  0.83556361  1
  Ni  Ni36  1  0.50405503  0.16691930  0.49940839  1
  Cr  Cr37  1  0.33599627  0.99870521  0.66642814  1
  Fe  Fe38  1  0.50035381  0.16722517  0.83298932  1
  Cr  Cr39  1  0.50171054  0.49911057  0.49773994  1
  Cr  Cr40  1  0.33072636  0.33317209  0.66603730  1
  Fe  Fe41  1  0.50074540  0.49836336  0.83332200  1
  Ni  Ni42  1  0.50415059  0.83297249  0.49890621  1
  Cr  Cr43  1  0.33332432  0.66725506  0.66650368  1
  Fe  Fe44  1  0.49948740  0.83353185  0.83235706  1
  Cr  Cr45  1  0.82981438  0.16503560  0.50050052  1
  Ni  Ni46  1  0.66617352  0.99890283  0.66768052  1
  Ni  Ni47  1  0.83024285  0.16640813  0.83176480  1
  Fe  Fe48  1  0.83354088  0.50051328  0.50163773  1
  Ni  Ni49  1  0.67033263  0.33299530  0.66775289  1
  Fe  Fe50  1  0.83448649  0.49961536  0.83150862  1
  Cr  Cr51  1  0.83145917  0.83274023  0.50045434  1
  Ni  Ni52  1  0.66877186  0.66727727  0.66718239  1
  Ni  Ni53  1  0.83298512  0.83295234  0.83093254  1
" 