969,Ni43Fe34Cr21_12,-231.583945797094, 192.972223525134,Ni43Fe34Cr21,"# generated using pymatgen
 data_Cr13Fe18Ni23
_symmetry_space_group_name_H-M   'P 1'
_cell_length_a   7.44723653
_cell_length_b   7.44723653
_cell_length_c   10.53198290
_cell_angle_alpha   90.00000000
_cell_angle_beta   90.00000000
_cell_angle_gamma   90.00000000
_symmetry_Int_Tables_number   1
_chemical_formula_structural   Cr13Fe18Ni23
_chemical_formula_sum   'Cr13 Fe18 Ni23'
_cell_volume   584.11779972
_cell_formula_units_Z   1
loop_
 _symmetry_equiv_pos_site_id
 _symmetry_equiv_pos_as_xyz
  1  'x, y, z'
loop_
 _atom_site_type_symbol
 _atom_site_label
 _atom_site_symmetry_multiplicity
 _atom_site_fract_x
 _atom_site_fract_y
 _atom_site_fract_z
 _atom_site_occupancy
  Fe  Fe0  1  0.99871229  1.00035014  0.00365050  1
  Cr  Cr1  1  0.17067869  0.16709985  0.16708620  1
  Cr  Cr2  1  0.00231118  0.99887876  0.33538297  1
  Fe  Fe3  1  0.00202999  0.33543832  0.00142005  1
  Ni  Ni4  1  0.17167466  0.50444902  0.16721283  1
  Cr  Cr5  1  0.00344743  0.33623945  0.33432538  1
  Ni  Ni6  1  0.00581421  0.66767996  0.00413793  1
  Fe  Fe7  1  0.16902679  0.83215829  0.16792586  1
  Ni  Ni8  1  0.00444294  0.66918417  0.33385771  1
  Fe  Fe9  1  0.33797853  0.00165673  1.00051400  1
  Ni  Ni10  1  0.50173371  0.16878756  0.16825978  1
  Fe  Fe11  1  0.33550994  1.00004129  0.33666128  1
  Fe  Fe12  1  0.33596888  0.33550857  1.00099524  1
  Ni  Ni13  1  0.49903226  0.50018261  0.17020669  1
  Fe  Fe14  1  0.33631698  0.33695155  0.33592207  1
  Fe  Fe15  1  0.33452754  0.66673958  0.00365522  1
  Fe  Fe16  1  0.50007185  0.83439605  0.16843839  1
  Ni  Ni17  1  0.33377200  0.66767046  0.33378707  1
  Ni  Ni18  1  0.66522865  0.00346005  0.00298907  1
  Ni  Ni19  1  0.83137066  0.16589799  0.16515253  1
  Cr  Cr20  1  0.66625947  0.00195538  0.33300511  1
  Ni  Ni21  1  0.66514126  0.33028619  0.00364555  1
  Cr  Cr22  1  0.83345364  0.50151527  0.16861399  1
  Ni  Ni23  1  0.66304575  0.33461971  0.33284379  1
  Cr  Cr24  1  0.66707481  0.66994728  0.00222177  1
  Ni  Ni25  1  0.83552395  0.83521610  0.16850491  1
  Ni  Ni26  1  0.66547177  0.66846345  0.33483669  1
  Ni  Ni27  1  0.17204259  0.16672294  0.50430039  1
  Fe  Fe28  1  0.00374891  0.00259312  0.66549758  1
  Fe  Fe29  1  0.17034327  0.17032655  0.83345327  1
  Ni  Ni30  1  0.17056317  0.50326273  0.50211216  1
  Ni  Ni31  1  0.00563327  0.33681399  0.66950475  1
  Ni  Ni32  1  0.16926383  0.50187390  0.83464204  1
  Ni  Ni33  1  0.17017431  0.83400355  0.50090806  1
  Ni  Ni34  1  0.00413384  0.66714706  0.66569458  1
  Cr  Cr35  1  0.16950132  0.83439904  0.83502722  1
  Fe  Fe36  1  0.49813520  0.16924038  0.50278980  1
  Ni  Ni37  1  0.33672394  0.00233056  0.66766207  1
  Ni  Ni38  1  0.50024381  0.16673119  0.83418656  1
  Fe  Fe39  1  0.49852754  0.50056012  0.50031055  1
  Ni  Ni40  1  0.33291520  0.33332704  0.66739484  1
  Cr  Cr41  1  0.49946196  0.49975009  0.83278405  1
  Fe  Fe42  1  0.49910202  0.83376059  0.50189761  1
  Fe  Fe43  1  0.33393555  0.66708742  0.66557848  1
  Fe  Fe44  1  0.50064954  0.83746538  0.83361399  1
  Cr  Cr45  1  0.83322086  0.16858023  0.50343871  1
  Ni  Ni46  1  0.66381509  1.00052582  0.66802251  1
  Cr  Cr47  1  0.83305261  0.16787381  0.83505622  1
  Cr  Cr48  1  0.83271076  0.50264649  0.50179488  1
  Ni  Ni49  1  0.66511674  0.33222876  0.66760034  1
  Cr  Cr50  1  0.83604474  0.50063494  0.83358032  1
  Fe  Fe51  1  0.83640749  0.83289739  0.50236831  1
  Fe  Fe52  1  0.66589272  0.66865021  0.66584379  1
  Cr  Cr53  1  0.83484506  0.83561811  0.83150953  1
" 