8260,Ni43Fe5Cr50_14,-218.999580085732, 143.043251930277,Ni43Fe5Cr50,"# generated using pymatgen
 data_Cr28Fe3Ni23
_symmetry_space_group_name_H-M   'P 1'
_cell_length_a   7.51658023
_cell_length_b   7.51658023
_cell_length_c   10.63004970
_cell_angle_alpha   90.00000000
_cell_angle_beta   90.00000000
_cell_angle_gamma   90.00000000
_symmetry_Int_Tables_number   1
_chemical_formula_structural   Cr28Fe3Ni23
_chemical_formula_sum   'Cr28 Fe3 Ni23'
_cell_volume   600.58694799
_cell_formula_units_Z   1
loop_
 _symmetry_equiv_pos_site_id
 _symmetry_equiv_pos_as_xyz
  1  'x, y, z'
loop_
 _atom_site_type_symbol
 _atom_site_label
 _atom_site_symmetry_multiplicity
 _atom_site_fract_x
 _atom_site_fract_y
 _atom_site_fract_z
 _atom_site_occupancy
  Cr  Cr0  1  -0.00260639  0.99449985  0.99610122  1
  Ni  Ni1  1  0.16470376  0.16668778  0.16438822  1
  Cr  Cr2  1  0.99623007  0.99620887  0.33161815  1
  Cr  Cr3  1  -0.00054555  0.32888455  0.99628961  1
  Ni  Ni4  1  0.16293024  0.49525555  0.16512658  1
  Ni  Ni5  1  -0.00011373  0.32921685  0.33164514  1
  Ni  Ni6  1  0.99494293  0.66429655  -0.00146692  1
  Cr  Cr7  1  0.16140169  0.82794126  0.16617472  1
  Ni  Ni8  1  -0.00202218  0.66353070  0.33061309  1
  Cr  Cr9  1  0.32814308  -0.00181429  -0.00291875  1
  Cr  Cr10  1  0.49647950  0.16117064  0.16530752  1
  Fe  Fe11  1  0.32962766  0.99620518  0.33283619  1
  Ni  Ni12  1  0.32708167  0.32914035  -0.00165647  1
  Cr  Cr13  1  0.49388088  0.49696528  0.16312199  1
  Fe  Fe14  1  0.32801230  0.32882834  0.33038281  1
  Cr  Cr15  1  0.33003570  0.66254796  -0.00229863  1
  Cr  Cr16  1  0.49883423  0.83220147  0.16453334  1
  Ni  Ni17  1  0.32837696  0.66470875  0.33134537  1
  Ni  Ni18  1  0.66460106  0.99236617  -0.00267708  1
  Cr  Cr19  1  0.82980354  0.16012842  0.16442587  1
  Ni  Ni20  1  0.66272031  0.99529675  0.33285569  1
  Cr  Cr21  1  0.66094133  0.33161137  -0.00303320  1
  Cr  Cr22  1  0.83406044  0.49862414  0.16442919  1
  Cr  Cr23  1  0.66407277  0.32884416  0.33438290  1
  Ni  Ni24  1  0.66633843  0.66762269  0.99639568  1
  Ni  Ni25  1  0.83000137  0.82970348  0.16196478  1
  Cr  Cr26  1  0.66347242  0.66661526  0.33153429  1
  Ni  Ni27  1  0.16477431  0.16176022  0.49614030  1
  Cr  Cr28  1  -0.00266104  -0.00322683  0.66216886  1
  Fe  Fe29  1  0.16460377  0.16208955  0.82919081  1
  Cr  Cr30  1  0.16212264  0.49874912  0.49485486  1
  Cr  Cr31  1  0.99632597  0.32742439  0.66108840  1
  Cr  Cr32  1  0.16313810  0.49799786  0.83008176  1
  Ni  Ni33  1  0.16542994  0.83111935  0.49617062  1
  Cr  Cr34  1  0.99492400  0.66591366  0.66073343  1
  Cr  Cr35  1  0.16306450  0.82907528  0.82697301  1
  Ni  Ni36  1  0.49612448  0.15836102  0.49608910  1
  Ni  Ni37  1  0.33121344  0.99567050  0.65961697  1
  Cr  Cr38  1  0.49723895  0.16015172  0.83004600  1
  Cr  Cr39  1  0.49469185  0.49939245  0.49817296  1
  Cr  Cr40  1  0.32960593  0.32776650  0.66401342  1
  Cr  Cr41  1  0.49665514  0.49895269  0.82937388  1
  Ni  Ni42  1  0.49555334  0.83309579  0.49772808  1
  Ni  Ni43  1  0.33206486  0.66728880  0.66103093  1
  Cr  Cr44  1  0.49853588  0.83149867  0.82777820  1
  Ni  Ni45  1  0.82970182  0.16126806  0.49587285  1
  Ni  Ni46  1  0.66317244  0.99390293  0.66029636  1
  Cr  Cr47  1  0.82788687  0.15933341  0.82966493  1
  Ni  Ni48  1  0.83170744  0.49792653  0.49581857  1
  Cr  Cr49  1  0.66426162  0.33015796  0.65882065  1
  Cr  Cr50  1  0.83022076  0.50016088  0.82919571  1
  Ni  Ni51  1  0.82907371  0.83089498  0.49666994  1
  Ni  Ni52  1  0.66318094  0.66809961  0.66156758  1
  Ni  Ni53  1  0.82805975  0.82996276  0.83149639  1
" 