5854,Ni43Fe34Cr21_5,-231.340222304216, 195.052528471362,Ni43Fe34Cr21,"# generated using pymatgen
 data_Cr13Fe18Ni23
_symmetry_space_group_name_H-M   'P 1'
_cell_length_a   7.44740274
_cell_length_b   7.44740274
_cell_length_c   10.53221796
_cell_angle_alpha   90.00000000
_cell_angle_beta   90.00000000
_cell_angle_gamma   90.00000000
_symmetry_Int_Tables_number   1
_chemical_formula_structural   Cr13Fe18Ni23
_chemical_formula_sum   'Cr13 Fe18 Ni23'
_cell_volume   584.15691039
_cell_formula_units_Z   1
loop_
 _symmetry_equiv_pos_site_id
 _symmetry_equiv_pos_as_xyz
  1  'x, y, z'
loop_
 _atom_site_type_symbol
 _atom_site_label
 _atom_site_symmetry_multiplicity
 _atom_site_fract_x
 _atom_site_fract_y
 _atom_site_fract_z
 _atom_site_occupancy
  Ni  Ni0  1  1.00021026  0.00348180  1.00018195  1
  Fe  Fe1  1  0.16669390  0.17015728  0.16743001  1
  Fe  Fe2  1  0.99978840  0.99869172  0.33451465  1
  Ni  Ni3  1  0.00351609  0.33419704  1.00055621  1
  Fe  Fe4  1  0.16826016  0.50118436  0.16689239  1
  Fe  Fe5  1  0.00277942  0.33895261  0.33456608  1
  Fe  Fe6  1  1.00116067  0.66856675  0.99881205  1
  Cr  Cr7  1  0.16466222  0.83452480  0.16533749  1
  Ni  Ni8  1  0.00210236  0.66712293  0.33495510  1
  Cr  Cr9  1  0.33421986  0.99974623  0.99827314  1
  Cr  Cr10  1  0.49980245  0.16972115  0.16617176  1
  Fe  Fe11  1  0.33562069  0.99823500  0.33343455  1
  Fe  Fe12  1  0.33338112  0.33668029  0.99928610  1
  Ni  Ni13  1  0.49947240  0.50184201  0.16664689  1
  Fe  Fe14  1  0.33287803  0.33932087  0.33342720  1
  Ni  Ni15  1  0.33655631  0.66532784  1.00093223  1
  Fe  Fe16  1  0.50362020  0.83203941  0.16686174  1
  Ni  Ni17  1  0.33489229  0.66784352  0.33371584  1
  Ni  Ni18  1  0.66940578  0.99893492  1.00098097  1
  Cr  Cr19  1  0.83508034  0.16562755  0.16725210  1
  Fe  Fe20  1  0.66813210  0.99758089  0.33469005  1
  Fe  Fe21  1  0.66770720  0.33576686  0.99902284  1
  Cr  Cr22  1  0.83301208  0.50575876  0.16500464  1
  Cr  Cr23  1  0.66982531  0.33636060  0.33588060  1
  Ni  Ni24  1  0.66547694  0.66934299  0.00158283  1
  Ni  Ni25  1  0.83531197  0.83397802  0.16769426  1
  Ni  Ni26  1  0.66718252  0.66952905  0.33409529  1
  Cr  Cr27  1  0.16923243  0.16838085  0.49961370  1
  Cr  Cr28  1  0.99954161  0.00157612  0.67163163  1
  Ni  Ni29  1  0.16824985  0.16920724  0.83522926  1
  Fe  Fe30  1  0.16680904  0.50254800  0.50247868  1
  Ni  Ni31  1  0.00132585  0.33556056  0.66661694  1
  Ni  Ni32  1  0.16753550  0.49982040  0.83397227  1
  Cr  Cr33  1  0.16820766  0.83323545  0.50528092  1
  Ni  Ni34  1  0.00188750  0.66567824  0.66977677  1
  Fe  Fe35  1  0.16780337  0.83029263  0.83521728  1
  Cr  Cr36  1  0.49946702  0.16795911  0.50386521  1
  Fe  Fe37  1  0.33418828  1.00130441  0.67199306  1
  Fe  Fe38  1  0.50240496  0.16981903  0.83449713  1
  Cr  Cr39  1  0.50066983  0.50114709  0.50344194  1
  Ni  Ni40  1  0.33283399  0.33622379  0.67049701  1
  Ni  Ni41  1  0.50124300  0.50115458  0.83540835  1
  Fe  Fe42  1  0.50114062  0.83359383  0.50058474  1
  Ni  Ni43  1  0.33389839  0.66679215  0.66973323  1
  Ni  Ni44  1  0.50159912  0.83340608  0.83449565  1
  Fe  Fe45  1  0.83575778  0.16890173  0.50122163  1
  Cr  Cr46  1  0.66940602  1.00059026  0.66821962  1
  Fe  Fe47  1  0.83499158  0.17080374  0.83705446  1
  Ni  Ni48  1  0.83626262  0.50312253  0.50228000  1
  Ni  Ni49  1  0.67003344  0.33442082  0.67053261  1
  Ni  Ni50  1  0.83502895  0.50178383  0.83516457  1
  Ni  Ni51  1  0.83657988  0.83200859  0.49827359  1
  Cr  Cr52  1  0.66916422  0.66814316  0.66765736  1
  Ni  Ni53  1  0.83520742  0.83323155  0.83828443  1
" 