4930,Ni43Fe48Cr7_14,-236.176408918297, 213.175832025234,Ni43Fe48Cr7,"# generated using pymatgen
 data_Cr5Fe26Ni23
_symmetry_space_group_name_H-M   'P 1'
_cell_length_a   7.41146409
_cell_length_b   7.41146409
_cell_length_c   10.48139303
_cell_angle_alpha   90.00000000
_cell_angle_beta   90.00000000
_cell_angle_gamma   90.00000000
_symmetry_Int_Tables_number   1
_chemical_formula_structural   Cr5Fe26Ni23
_chemical_formula_sum   'Cr5 Fe26 Ni23'
_cell_volume   575.74082256
_cell_formula_units_Z   1
loop_
 _symmetry_equiv_pos_site_id
 _symmetry_equiv_pos_as_xyz
  1  'x, y, z'
loop_
 _atom_site_type_symbol
 _atom_site_label
 _atom_site_symmetry_multiplicity
 _atom_site_fract_x
 _atom_site_fract_y
 _atom_site_fract_z
 _atom_site_occupancy
  Ni  Ni0  1  0.00505841  1.00351427  1.00340583  1
  Fe  Fe1  1  0.16941375  0.17108483  0.16880241  1
  Ni  Ni2  1  1.00337396  1.00333588  0.33802645  1
  Fe  Fe3  1  1.00326122  0.33575012  1.00347534  1
  Ni  Ni4  1  0.17096237  0.50419982  0.17086999  1
  Fe  Fe5  1  1.00323847  0.33730097  0.33735939  1
  Fe  Fe6  1  1.00372281  0.67105706  1.00368987  1
  Fe  Fe7  1  0.16700319  0.83677140  0.16933439  1
  Ni  Ni8  1  1.00228599  0.67014535  0.33725983  1
  Ni  Ni9  1  0.33564552  0.00617570  1.00253843  1
  Fe  Fe10  1  0.50432841  0.17352988  0.16872218  1
  Cr  Cr11  1  0.33610361  0.00613849  0.33822879  1
  Ni  Ni12  1  0.33772721  0.33560610  0.00410239  1
  Fe  Fe13  1  0.50420514  0.50166300  0.17018386  1
  Fe  Fe14  1  0.33575411  0.33855541  0.33579100  1
  Fe  Fe15  1  0.33676458  0.67007979  1.00315277  1
  Cr  Cr16  1  0.50471095  0.83605232  0.16880132  1
  Fe  Fe17  1  0.33485071  0.66933495  0.33710417  1
  Ni  Ni18  1  0.67054575  0.00440381  1.00343570  1
  Ni  Ni19  1  0.83726831  0.17021246  0.17017501  1
  Fe  Fe20  1  0.67364467  0.00412495  0.33824081  1
  Ni  Ni21  1  0.66901069  0.33792817  1.00352703  1
  Fe  Fe22  1  0.83678910  0.50407974  0.17064199  1
  Fe  Fe23  1  0.67225934  0.33568846  0.33609034  1
  Ni  Ni24  1  0.67167210  0.66891941  1.00265312  1
  Fe  Fe25  1  0.83924071  0.83689405  0.17008989  1
  Ni  Ni26  1  0.67287304  0.66928867  0.33751219  1
  Fe  Fe27  1  0.16900907  0.17149258  0.50442849  1
  Ni  Ni28  1  0.00499223  0.00428978  0.66982086  1
  Ni  Ni29  1  0.16914837  0.17088374  0.83795424  1
  Fe  Fe30  1  0.16879907  0.50335954  0.50335926  1
  Ni  Ni31  1  0.00441723  0.33788628  0.67006300  1
  Fe  Fe32  1  0.16982572  0.50296038  0.83714783  1
  Fe  Fe33  1  0.16870931  0.83640161  0.50409975  1
  Ni  Ni34  1  1.00263936  0.66906969  0.66989053  1
  Ni  Ni35  1  0.16921349  0.83588127  0.83842814  1
  Ni  Ni36  1  0.50572867  0.17080587  0.50198335  1
  Cr  Cr37  1  0.33573775  0.00522831  0.67090731  1
  Ni  Ni38  1  0.50428921  0.17259413  0.83917449  1
  Cr  Cr39  1  0.50290421  0.50512951  0.50340681  1
  Fe  Fe40  1  0.33570601  0.33765880  0.67176769  1
  Fe  Fe41  1  0.50427222  0.50332113  0.83738503  1
  Ni  Ni42  1  0.50428512  0.83544358  0.50371494  1
  Fe  Fe43  1  0.33537069  0.67023958  0.67099182  1
  Fe  Fe44  1  0.50421096  0.83674851  0.83883951  1
  Ni  Ni45  1  0.83826014  0.17043115  0.50344136  1
  Cr  Cr46  1  0.67078839  1.00306799  0.67027416  1
  Ni  Ni47  1  0.83781217  0.17055417  0.83763153  1
  Fe  Fe48  1  0.83771246  0.50403872  0.50401206  1
  Fe  Fe49  1  0.67251747  0.33722019  0.67149668  1
  Fe  Fe50  1  0.83715113  0.50369030  0.83659321  1
  Fe  Fe51  1  0.83704639  0.83648223  0.50327199  1
  Ni  Ni52  1  0.67186884  0.66895147  0.67108485  1
  Ni  Ni53  1  0.83836126  0.83682546  0.83810770  1
" 