6328,Ni43Fe57_2,-242.278187970608, 225.819437755384,Ni43Fe57,"# generated using pymatgen
 data_Fe23Ni31
_symmetry_space_group_name_H-M   'P 1'
_cell_length_a   7.40394605
_cell_length_b   7.40394605
_cell_length_c   10.47076091
_cell_angle_alpha   90.00000000
_cell_angle_beta   90.00000000
_cell_angle_gamma   90.00000000
_symmetry_Int_Tables_number   1
_chemical_formula_structural   Fe23Ni31
_chemical_formula_sum   'Fe23 Ni31'
_cell_volume   573.99053871
_cell_formula_units_Z   1
loop_
 _symmetry_equiv_pos_site_id
 _symmetry_equiv_pos_as_xyz
  1  'x, y, z'
loop_
 _atom_site_type_symbol
 _atom_site_label
 _atom_site_symmetry_multiplicity
 _atom_site_fract_x
 _atom_site_fract_y
 _atom_site_fract_z
 _atom_site_occupancy
  Fe  Fe0  1  1.00221643  1.00392521  1.00362348  1
  Ni  Ni1  1  0.16929576  0.16898052  0.17017979  1
  Fe  Fe2  1  0.00438996  1.00307953  0.33797067  1
  Ni  Ni3  1  1.00386811  0.33826120  1.00329854  1
  Fe  Fe4  1  0.17097336  0.50333674  0.17087317  1
  Fe  Fe5  1  0.00467628  0.33672969  0.33789991  1
  Ni  Ni6  1  0.00481564  0.66935075  0.00469283  1
  Ni  Ni7  1  0.17144029  0.83845630  0.17139669  1
  Fe  Fe8  1  1.00419365  0.67296628  0.33802440  1
  Ni  Ni9  1  0.33761837  1.00387245  0.00458368  1
  Fe  Fe10  1  0.50355334  0.17015355  0.17012348  1
  Ni  Ni11  1  0.33809749  0.00450876  0.33785157  1
  Fe  Fe12  1  0.33921375  0.33812941  0.00480422  1
  Ni  Ni13  1  0.50625689  0.50555437  0.17151904  1
  Fe  Fe14  1  0.33855424  0.33703754  0.33685493  1
  Fe  Fe15  1  0.33868147  0.67064525  0.00446613  1
  Fe  Fe16  1  0.50451841  0.83866518  0.17156639  1
  Ni  Ni17  1  0.33712339  0.67192141  0.33657205  1
  Ni  Ni18  1  0.66884126  0.00496770  1.00346854  1
  Ni  Ni19  1  0.83813701  0.17157709  0.17186676  1
  Ni  Ni20  1  0.66965184  0.00466409  0.33810864  1
  Ni  Ni21  1  0.67250666  0.33738450  0.00581982  1
  Fe  Fe22  1  0.83875522  0.50437987  0.17094761  1
  Fe  Fe23  1  0.66933309  0.33768440  0.33741074  1
  Ni  Ni24  1  0.67162667  0.67060821  1.00377235  1
  Fe  Fe25  1  0.83685793  0.83835872  0.16989124  1
  Ni  Ni26  1  0.67081142  0.67136400  0.33782423  1
  Ni  Ni27  1  0.17051552  0.16990906  0.50425861  1
  Ni  Ni28  1  0.00610078  0.00453713  0.67137391  1
  Fe  Fe29  1  0.17127365  0.17038469  0.83746915  1
  Fe  Fe30  1  0.17063756  0.50535763  0.50455947  1
  Ni  Ni31  1  1.00215059  0.33833950  0.67108410  1
  Fe  Fe32  1  0.17023649  0.50535824  0.83714027  1
  Ni  Ni33  1  0.17239243  0.83907951  0.50362595  1
  Ni  Ni34  1  0.00506544  0.67001015  0.66987866  1
  Ni  Ni35  1  0.17093735  0.83817815  0.83776912  1
  Fe  Fe36  1  0.50367790  0.16957935  0.50541357  1
  Ni  Ni37  1  0.33825964  1.00312828  0.67056302  1
  Ni  Ni38  1  0.50486540  0.17216298  0.83775560  1
  Fe  Fe39  1  0.50269467  0.50540828  0.50419813  1
  Fe  Fe40  1  0.33619489  0.33732779  0.67102431  1
  Ni  Ni41  1  0.50587389  0.50373275  0.83619566  1
  Ni  Ni42  1  0.50309841  0.83642867  0.50413683  1
  Ni  Ni43  1  0.33705209  0.67282786  0.67136675  1
  Ni  Ni44  1  0.50298525  0.83685702  0.83831306  1
  Fe  Fe45  1  0.83813000  0.16960381  0.50455180  1
  Fe  Fe46  1  0.67128804  1.00348888  0.67207010  1
  Ni  Ni47  1  0.83758572  0.17216732  0.83715865  1
  Ni  Ni48  1  0.83601085  0.50317883  0.50298325  1
  Ni  Ni49  1  0.67193003  0.33757200  0.67013355  1
  Ni  Ni50  1  0.83618085  0.50353451  0.83864019  1
  Fe  Fe51  1  0.83807558  0.83750240  0.50484458  1
  Fe  Fe52  1  0.67187837  0.67098105  0.67108722  1
  Ni  Ni53  1  0.83901343  0.83691419  0.83710631  1
" 