6576,Ni43Fe48Cr7_4,-236.875211531846, 210.051115801611,Ni43Fe48Cr7,"# generated using pymatgen
 data_Cr5Fe26Ni23
_symmetry_space_group_name_H-M   'P 1'
_cell_length_a   7.41668810
_cell_length_b   7.41668810
_cell_length_c   10.48878090
_cell_angle_alpha   90.00000000
_cell_angle_beta   90.00000000
_cell_angle_gamma   90.00000000
_symmetry_Int_Tables_number   1
_chemical_formula_structural   Cr5Fe26Ni23
_chemical_formula_sum   'Cr5 Fe26 Ni23'
_cell_volume   576.95912224
_cell_formula_units_Z   1
loop_
 _symmetry_equiv_pos_site_id
 _symmetry_equiv_pos_as_xyz
  1  'x, y, z'
loop_
 _atom_site_type_symbol
 _atom_site_label
 _atom_site_symmetry_multiplicity
 _atom_site_fract_x
 _atom_site_fract_y
 _atom_site_fract_z
 _atom_site_occupancy
  Ni  Ni0  1  1.00290510  0.00515013  1.00285514  1
  Ni  Ni1  1  0.16992252  0.16839891  0.17019695  1
  Ni  Ni2  1  1.00334399  0.00422001  0.33684685  1
  Ni  Ni3  1  0.00643323  0.33399734  1.00209997  1
  Fe  Fe4  1  0.17027523  0.50125020  0.16942778  1
  Fe  Fe5  1  1.00272335  0.33476421  0.33742088  1
  Fe  Fe6  1  1.00273952  0.66940536  1.00280794  1
  Fe  Fe7  1  0.16781684  0.83800539  0.17062750  1
  Fe  Fe8  1  1.00227937  0.67057651  0.33720632  1
  Fe  Fe9  1  0.33615862  0.00387048  0.00570263  1
  Fe  Fe10  1  0.50408452  0.17143063  0.17036883  1
  Ni  Ni11  1  0.33585945  0.00475697  0.33574062  1
  Ni  Ni12  1  0.33464615  0.33678808  0.00420803  1
  Fe  Fe13  1  0.50286828  0.50224734  0.16921909  1
  Fe  Fe14  1  0.33683485  0.33634581  0.33611135  1
  Fe  Fe15  1  0.33657375  0.66866353  0.00443174  1
  Fe  Fe16  1  0.50451794  0.83788027  0.17140136  1
  Fe  Fe17  1  0.33815527  0.67029287  0.33559175  1
  Fe  Fe18  1  0.67275672  0.00395598  0.00398271  1
  Ni  Ni19  1  0.83709427  0.16956692  0.17057151  1
  Fe  Fe20  1  0.67038301  0.00426224  0.33797743  1
  Fe  Fe21  1  0.67145614  0.33712735  0.00389815  1
  Cr  Cr22  1  0.83634966  0.50180780  0.16976437  1
  Ni  Ni23  1  0.66876923  0.33875661  0.33819436  1
  Ni  Ni24  1  0.66873385  0.67227754  1.00233382  1
  Fe  Fe25  1  0.83720663  0.83899565  0.17078399  1
  Ni  Ni26  1  0.66966789  0.67062410  0.33777078  1
  Fe  Fe27  1  0.16781340  0.16953921  0.50234660  1
  Fe  Fe28  1  1.00007477  0.00609735  0.66954797  1
  Ni  Ni29  1  0.16888575  0.16953094  0.83673488  1
  Fe  Fe30  1  0.16703086  0.50359385  0.50273177  1
  Ni  Ni31  1  0.00348883  0.33653168  0.67058706  1
  Ni  Ni32  1  0.16942293  0.50410405  0.83797372  1
  Cr  Cr33  1  0.17152374  0.83730518  0.50496259  1
  Fe  Fe34  1  1.00101620  0.66823741  0.66999286  1
  Cr  Cr35  1  0.17197986  0.83798716  0.83520462  1
  Fe  Fe36  1  0.50512131  0.16753782  0.50281030  1
  Ni  Ni37  1  0.33789017  0.00430773  0.67003167  1
  Cr  Cr38  1  0.50510217  0.16954908  0.83833768  1
  Fe  Fe39  1  0.50607260  0.50529812  0.50310535  1
  Cr  Cr40  1  0.33376536  0.33654618  0.66842787  1
  Ni  Ni41  1  0.50490585  0.50472029  0.83795063  1
  Ni  Ni42  1  0.50252408  0.83668724  0.50376189  1
  Fe  Fe43  1  0.33967270  0.66935963  0.67057422  1
  Fe  Fe44  1  0.50586164  0.83520992  0.83528921  1
  Ni  Ni45  1  0.83561281  0.17168238  0.50292112  1
  Ni  Ni46  1  0.67084960  0.99905108  0.66823220  1
  Ni  Ni47  1  0.83756034  0.17155924  0.83678685  1
  Ni  Ni48  1  0.83613720  0.50222591  0.50347047  1
  Fe  Fe49  1  0.67207024  0.33595202  0.66902300  1
  Ni  Ni50  1  0.83600473  0.50219136  0.83690107  1
  Ni  Ni51  1  0.83542475  0.83616853  0.50211931  1
  Ni  Ni52  1  0.67103027  0.67040276  0.66964480  1
  Fe  Fe53  1  0.83593324  0.83653638  0.83631915  1
" 