4910,Ni43Fe5Cr50_16,-219.171394666567, 147.862254910277,Ni43Fe5Cr50,"# generated using pymatgen
 data_Cr28Fe3Ni23
_symmetry_space_group_name_H-M   'P 1'
_cell_length_a   7.51704576
_cell_length_b   7.51704576
_cell_length_c   10.63070806
_cell_angle_alpha   90.00000000
_cell_angle_beta   90.00000000
_cell_angle_gamma   90.00000000
_symmetry_Int_Tables_number   1
_chemical_formula_structural   Cr28Fe3Ni23
_chemical_formula_sum   'Cr28 Fe3 Ni23'
_cell_volume   600.69854384
_cell_formula_units_Z   1
loop_
 _symmetry_equiv_pos_site_id
 _symmetry_equiv_pos_as_xyz
  1  'x, y, z'
loop_
 _atom_site_type_symbol
 _atom_site_label
 _atom_site_symmetry_multiplicity
 _atom_site_fract_x
 _atom_site_fract_y
 _atom_site_fract_z
 _atom_site_occupancy
  Cr  Cr0  1  0.99583778  0.99511820  -0.00141077  1
  Cr  Cr1  1  0.15996964  0.16194874  0.16516153  1
  Ni  Ni2  1  0.99439469  0.99623724  0.32750055  1
  Cr  Cr3  1  0.99493730  0.33169408  0.99553183  1
  Ni  Ni4  1  0.16405497  0.49954135  0.16485701  1
  Ni  Ni5  1  0.99528513  0.32860839  0.32745799  1
  Cr  Cr6  1  -0.00040190  0.66304797  0.99614087  1
  Ni  Ni7  1  0.16492884  0.82851937  0.16370740  1
  Cr  Cr8  1  -0.00097951  0.66515523  0.32903542  1
  Fe  Fe9  1  0.33104084  0.99360707  0.99529879  1
  Cr  Cr10  1  0.49885071  0.16345570  0.16278472  1
  Cr  Cr11  1  0.33042851  0.99457783  0.32968081  1
  Cr  Cr12  1  0.33045948  0.33180679  0.99549886  1
  Cr  Cr13  1  0.49708070  0.49917604  0.16355905  1
  Cr  Cr14  1  0.33038496  0.33267575  0.33150342  1
  Fe  Fe15  1  0.32952538  0.66574514  -0.00281686  1
  Ni  Ni16  1  0.49461180  0.82785385  0.16161972  1
  Ni  Ni17  1  0.32852426  0.66373341  0.32592889  1
  Cr  Cr18  1  0.66244125  -0.00227241  0.99663125  1
  Ni  Ni19  1  0.83053657  0.16326589  0.16547521  1
  Cr  Cr20  1  0.66583451  -0.00247438  0.33041813  1
  Ni  Ni21  1  0.66375467  0.32870800  0.99521634  1
  Cr  Cr22  1  0.82862838  0.49413729  0.16312164  1
  Ni  Ni23  1  0.66478240  0.32760319  0.32935539  1
  Fe  Fe24  1  0.66284299  0.66336090  0.99621864  1
  Ni  Ni25  1  0.83046793  0.83191166  0.16456965  1
  Cr  Cr26  1  0.66257418  0.66523112  0.33017192  1
  Cr  Cr27  1  0.16388938  0.16337671  0.49762821  1
  Cr  Cr28  1  0.99620640  0.99477063  0.66380881  1
  Cr  Cr29  1  0.16435514  0.16236511  0.82735848  1
  Cr  Cr30  1  0.16253351  0.49531331  0.49727205  1
  Ni  Ni31  1  -0.00190386  0.33351264  0.66670934  1
  Ni  Ni32  1  0.16130382  0.49786080  0.82769371  1
  Cr  Cr33  1  0.16159475  0.83134526  0.49692673  1
  Ni  Ni34  1  0.99543352  0.66149384  0.66517129  1
  Ni  Ni35  1  0.16681372  0.82863822  0.82991652  1
  Ni  Ni36  1  0.49564322  0.16424283  0.49803028  1
  Ni  Ni37  1  0.33220585  -0.00161427  0.66617814  1
  Ni  Ni38  1  0.49636581  0.16189595  0.82918859  1
  Cr  Cr39  1  0.49755680  0.49576907  0.49533072  1
  Ni  Ni40  1  0.32908652  0.32764306  0.66374083  1
  Cr  Cr41  1  0.49906213  0.49781510  0.83108837  1
  Cr  Cr42  1  0.49737426  0.82979553  0.49790342  1
  Cr  Cr43  1  0.32820706  0.66312854  0.66479324  1
  Ni  Ni44  1  0.49396105  0.83101113  0.83079299  1
  Cr  Cr45  1  0.83152882  0.16350569  0.49360084  1
  Cr  Cr46  1  0.66078293  0.99622043  0.66288456  1
  Ni  Ni47  1  0.82856206  0.16742942  0.83068866  1
  Cr  Cr48  1  0.82990443  0.49800427  0.49844315  1
  Cr  Cr49  1  0.66228392  0.32872002  0.66485360  1
  Ni  Ni50  1  0.83084590  0.49545010  0.82852568  1
  Ni  Ni51  1  0.83059709  0.82910286  0.49739289  1
  Ni  Ni52  1  0.66616315  0.66460576  0.66473157  1
  Cr  Cr53  1  0.82926100  0.82703943  0.82754476  1
" 