4929,Ni43Fe25Cr31_7,-227.773321240331, 179.919658985722,Ni43Fe25Cr31,"# generated using pymatgen
 data_Cr18Fe13Ni23
_symmetry_space_group_name_H-M   'P 1'
_cell_length_a   7.47246790
_cell_length_b   7.47246790
_cell_length_c   10.56766544
_cell_angle_alpha   90.00000000
_cell_angle_beta   90.00000000
_cell_angle_gamma   90.00000000
_symmetry_Int_Tables_number   1
_chemical_formula_structural   Cr18Fe13Ni23
_chemical_formula_sum   'Cr18 Fe13 Ni23'
_cell_volume   590.07494086
_cell_formula_units_Z   1
loop_
 _symmetry_equiv_pos_site_id
 _symmetry_equiv_pos_as_xyz
  1  'x, y, z'
loop_
 _atom_site_type_symbol
 _atom_site_label
 _atom_site_symmetry_multiplicity
 _atom_site_fract_x
 _atom_site_fract_y
 _atom_site_fract_z
 _atom_site_occupancy
  Ni  Ni0  1  0.99919848  0.00087627  0.99710744  1
  Cr  Cr1  1  0.17022811  0.16586711  0.16456342  1
  Cr  Cr2  1  0.99937437  0.00087851  0.33421386  1
  Ni  Ni3  1  0.99585430  0.33004464  0.99939468  1
  Fe  Fe4  1  0.16445705  0.49950562  0.16581669  1
  Cr  Cr5  1  0.99880836  0.33273470  0.33210179  1
  Fe  Fe6  1  0.99828444  0.66555961  0.99851579  1
  Fe  Fe7  1  0.16630356  0.83293336  0.16463816  1
  Fe  Fe8  1  0.00003485  0.66309480  0.33187500  1
  Ni  Ni9  1  0.33190836  0.99828394  0.99800738  1
  Fe  Fe10  1  0.50240165  0.16667573  0.16636505  1
  Ni  Ni11  1  0.33445691  0.00004240  0.33158296  1
  Cr  Cr12  1  0.33605329  0.33422860  0.99957580  1
  Ni  Ni13  1  0.50316996  0.49730312  0.16713437  1
  Ni  Ni14  1  0.33658158  0.33355620  0.33382350  1
  Cr  Cr15  1  0.33466258  0.66801806  0.00059027  1
  Fe  Fe16  1  0.50013612  0.83453807  0.16624003  1
  Cr  Cr17  1  0.33434364  0.66352134  0.33024594  1
  Fe  Fe18  1  0.66600848  0.00210881  0.99742424  1
  Fe  Fe19  1  0.83034708  0.16847371  0.16445548  1
  Fe  Fe20  1  0.66225671  0.00228601  0.33140447  1
  Ni  Ni21  1  0.66916680  0.33272441  0.99916266  1
  Ni  Ni22  1  0.83110148  0.50038658  0.16602780  1
  Ni  Ni23  1  0.66339465  0.33525754  0.33123199  1
  Cr  Cr24  1  0.66353921  0.66387098  0.99592429  1
  Cr  Cr25  1  0.83146720  0.83174136  0.16704498  1
  Ni  Ni26  1  0.66382441  0.66324966  0.33288062  1
  Cr  Cr27  1  0.17208020  0.16886459  0.50298715  1
  Cr  Cr28  1  0.00019196  0.00111166  0.66883849  1
  Ni  Ni29  1  0.16866387  0.16567999  0.83279472  1
  Ni  Ni30  1  0.16737818  0.49795425  0.49901777  1
  Ni  Ni31  1  0.99879703  0.33357336  0.66776177  1
  Cr  Cr32  1  0.16213122  0.49669761  0.83369251  1
  Cr  Cr33  1  0.16625114  0.83175475  0.50003689  1
  Ni  Ni34  1  -0.00013408  0.66520647  0.66779647  1
  Ni  Ni35  1  0.16551732  0.83546049  0.83523099  1
  Ni  Ni36  1  0.49800328  0.16971677  0.49717787  1
  Fe  Fe37  1  0.33535560  0.00115576  0.66935175  1
  Ni  Ni38  1  0.49822127  0.16650149  0.83419115  1
  Ni  Ni39  1  0.50036550  0.49608943  0.50062884  1
  Fe  Fe40  1  0.33541761  0.33290376  0.66680944  1
  Fe  Fe41  1  0.50154196  0.49747324  0.83195450  1
  Cr  Cr42  1  0.50173282  0.83436675  0.49838167  1
  Cr  Cr43  1  0.33540910  0.66645059  0.66836499  1
  Ni  Ni44  1  0.50044453  0.83685665  0.83401784  1
  Cr  Cr45  1  0.82840462  0.16887209  0.49883246  1
  Cr  Cr46  1  0.66647002  0.00094920  0.66828751  1
  Fe  Fe47  1  0.83302576  0.16807338  0.83429891  1
  Cr  Cr48  1  0.83146332  0.50148499  0.50113064  1
  Ni  Ni49  1  0.66473461  0.33417798  0.66816926  1
  Ni  Ni50  1  0.83221076  0.49928585  0.83210561  1
  Cr  Cr51  1  0.83079919  0.82832707  0.49911673  1
  Ni  Ni52  1  0.66537930  0.66385614  0.66909944  1
  Ni  Ni53  1  0.83319539  0.82980961  0.83299105  1
" 