6618,Ni43Fe5Cr50_18,-218.88010946409, 144.550839353961,Ni43Fe5Cr50,"# generated using pymatgen
 data_Cr28Fe3Ni23
_symmetry_space_group_name_H-M   'P 1'
_cell_length_a   7.51968794
_cell_length_b   7.51968794
_cell_length_c   10.63444467
_cell_angle_alpha   90.00000000
_cell_angle_beta   90.00000000
_cell_angle_gamma   90.00000000
_symmetry_Int_Tables_number   1
_chemical_formula_structural   Cr28Fe3Ni23
_chemical_formula_sum   'Cr28 Fe3 Ni23'
_cell_volume   601.33218866
_cell_formula_units_Z   1
loop_
 _symmetry_equiv_pos_site_id
 _symmetry_equiv_pos_as_xyz
  1  'x, y, z'
loop_
 _atom_site_type_symbol
 _atom_site_label
 _atom_site_symmetry_multiplicity
 _atom_site_fract_x
 _atom_site_fract_y
 _atom_site_fract_z
 _atom_site_occupancy
  Ni  Ni0  1  0.00112910  0.99645260  0.99484480  1
  Ni  Ni1  1  0.16269654  0.16340640  0.16092347  1
  Cr  Cr2  1  -0.00211194  -0.00129890  0.33003849  1
  Cr  Cr3  1  -0.00334312  0.32674937  0.99617965  1
  Fe  Fe4  1  0.16364981  0.49238069  0.16219472  1
  Ni  Ni5  1  0.99573817  0.32838004  0.32964405  1
  Cr  Cr6  1  0.99569819  0.66500193  0.99370263  1
  Cr  Cr7  1  0.16429498  0.82857857  0.16009105  1
  Cr  Cr8  1  0.99624168  0.66160812  0.33208930  1
  Ni  Ni9  1  0.32724720  -0.00248751  0.99336138  1
  Cr  Cr10  1  0.49953323  0.16315674  0.16330794  1
  Cr  Cr11  1  0.32942013  -0.00116652  0.33164959  1
  Ni  Ni12  1  0.32736442  0.32760564  -0.00193268  1
  Ni  Ni13  1  0.49363484  0.49505154  0.16171201  1
  Cr  Cr14  1  0.32925323  0.32870347  0.33092876  1
  Fe  Fe15  1  0.32974146  0.66361828  0.99458444  1
  Cr  Cr16  1  0.49561883  0.82908101  0.16194523  1
  Cr  Cr17  1  0.33008996  0.66049652  0.32861899  1
  Cr  Cr18  1  0.66618355  -0.00325815  0.99548898  1
  Ni  Ni19  1  0.83458688  0.16456477  0.16527979  1
  Ni  Ni20  1  0.66589598  -0.00058551  0.33007579  1
  Cr  Cr21  1  0.66231270  0.33041747  -0.00290395  1
  Cr  Cr22  1  0.82929623  0.49478870  0.16445643  1
  Ni  Ni23  1  0.66441946  0.33073078  0.32920725  1
  Cr  Cr24  1  0.66326944  0.66350721  0.99104066  1
  Cr  Cr25  1  0.83053436  0.83355085  0.16456188  1
  Cr  Cr26  1  0.66263925  0.66274317  0.33368891  1
  Ni  Ni27  1  0.16100002  0.16502615  0.50155861  1
  Ni  Ni28  1  -0.00322977  -0.00284671  0.66502569  1
  Ni  Ni29  1  0.16368581  0.16017626  0.82781440  1
  Cr  Cr30  1  0.16137824  0.49310752  0.49699084  1
  Ni  Ni31  1  -0.00244716  0.32858945  0.66319560  1
  Cr  Cr32  1  0.16245286  0.49257696  0.83039823  1
  Cr  Cr33  1  0.16128445  0.83353952  0.49852852  1
  Cr  Cr34  1  0.99310683  0.66415551  0.66361533  1
  Ni  Ni35  1  0.16368958  0.83323339  0.83046426  1
  Cr  Cr36  1  0.49662197  0.16343976  0.49941468  1
  Ni  Ni37  1  0.32787224  -0.00200496  0.66540966  1
  Cr  Cr38  1  0.49255797  0.16194156  0.82816216  1
  Ni  Ni39  1  0.49909453  0.49506233  0.49740743  1
  Ni  Ni40  1  0.32723425  0.32730010  0.66214095  1
  Cr  Cr41  1  0.49462744  0.49569266  0.82958625  1
  Cr  Cr42  1  0.49780543  0.83215656  0.49759826  1
  Cr  Cr43  1  0.33093815  0.66379688  0.66304072  1
  Ni  Ni44  1  0.49510214  0.83114864  0.82860474  1
  Cr  Cr45  1  0.83100050  0.16325354  0.49562003  1
  Ni  Ni46  1  0.66384485  0.99281210  0.66465580  1
  Cr  Cr47  1  0.83364535  0.16356241  0.82932333  1
  Ni  Ni48  1  0.82831324  0.49535410  0.49741576  1
  Cr  Cr49  1  0.66398509  0.33204876  0.66400847  1
  Ni  Ni50  1  0.83023913  0.49897472  0.82651269  1
  Ni  Ni51  1  0.82778206  0.83037011  0.49906748  1
  Fe  Fe52  1  0.66353547  0.66512934  0.66356094  1
  Ni  Ni53  1  0.83083575  0.83161703  0.82709059  1
" 