6011,Ni43Fe57_0,-242.27327064421, 225.756670870685,Ni43Fe57,"# generated using pymatgen
 data_Fe23Ni31
_symmetry_space_group_name_H-M   'P 1'
_cell_length_a   7.40317358
_cell_length_b   7.40317358
_cell_length_c   10.46966848
_cell_angle_alpha   90.00000000
_cell_angle_beta   90.00000000
_cell_angle_gamma   90.00000000
_symmetry_Int_Tables_number   1
_chemical_formula_structural   Fe23Ni31
_chemical_formula_sum   'Fe23 Ni31'
_cell_volume   573.81090082
_cell_formula_units_Z   1
loop_
 _symmetry_equiv_pos_site_id
 _symmetry_equiv_pos_as_xyz
  1  'x, y, z'
loop_
 _atom_site_type_symbol
 _atom_site_label
 _atom_site_symmetry_multiplicity
 _atom_site_fract_x
 _atom_site_fract_y
 _atom_site_fract_z
 _atom_site_occupancy
  Ni  Ni0  1  0.00674545  1.00294150  0.00550179  1
  Fe  Fe1  1  0.17087250  0.16829816  0.17175141  1
  Fe  Fe2  1  1.00163045  1.00430837  0.33766176  1
  Fe  Fe3  1  1.00288343  0.33624849  0.00476679  1
  Fe  Fe4  1  0.17076485  0.50442474  0.17109309  1
  Ni  Ni5  1  1.00410306  0.33937918  0.33687661  1
  Fe  Fe6  1  0.00437170  0.67107560  1.00372983  1
  Ni  Ni7  1  0.17079039  0.83613146  0.17330885  1
  Ni  Ni8  1  0.00484498  0.67036075  0.33744173  1
  Fe  Fe9  1  0.33823687  1.00384944  0.00577687  1
  Ni  Ni10  1  0.50487311  0.17199907  0.17183176  1
  Ni  Ni11  1  0.33693491  1.00369183  0.33751150  1
  Fe  Fe12  1  0.33688931  0.33702458  1.00420201  1
  Fe  Fe13  1  0.50568817  0.50483420  0.17051250  1
  Fe  Fe14  1  0.33798637  0.33798878  0.33781852  1
  Fe  Fe15  1  0.33713671  0.67166929  1.00391328  1
  Ni  Ni16  1  0.50459533  0.83768606  0.17153441  1
  Fe  Fe17  1  0.33906880  0.67038431  0.33789205  1
  Fe  Fe18  1  0.67260453  0.00576299  0.00534863  1
  Ni  Ni19  1  0.83724527  0.17148364  0.17230987  1
  Ni  Ni20  1  0.66818026  0.00472910  0.33651640  1
  Ni  Ni21  1  0.67006535  0.33832250  1.00392766  1
  Fe  Fe22  1  0.83671264  0.50503341  0.17061777  1
  Ni  Ni23  1  0.67110517  0.33851572  0.33809543  1
  Fe  Fe24  1  0.67164319  0.67189194  1.00379063  1
  Ni  Ni25  1  0.83766568  0.83860741  0.17116020  1
  Ni  Ni26  1  0.67207552  0.67051794  0.33662845  1
  Ni  Ni27  1  0.16924784  0.17229500  0.50228073  1
  Ni  Ni28  1  0.00580424  1.00314829  0.66977427  1
  Ni  Ni29  1  0.16991499  0.17107856  0.83818485  1
  Ni  Ni30  1  0.17161719  0.50261576  0.50450448  1
  Fe  Fe31  1  1.00247771  0.33710030  0.67026206  1
  Ni  Ni32  1  0.17113181  0.50287627  0.83731812  1
  Fe  Fe33  1  0.17149700  0.83635161  0.50385233  1
  Ni  Ni34  1  0.00554972  0.67184723  0.67232901  1
  Ni  Ni35  1  0.17178876  0.83825371  0.83618180  1
  Fe  Fe36  1  0.50366183  0.17041804  0.50323609  1
  Fe  Fe37  1  0.33848647  1.00389557  0.66967521  1
  Fe  Fe38  1  0.50457109  0.17125230  0.83865850  1
  Ni  Ni39  1  0.50410199  0.50501187  0.50321851  1
  Fe  Fe40  1  0.33679676  0.33743558  0.67063778  1
  Ni  Ni41  1  0.50385447  0.50487805  0.83789984  1
  Ni  Ni42  1  0.50714355  0.83639638  0.50334573  1
  Fe  Fe43  1  0.33944759  0.67118391  0.67105770  1
  Ni  Ni44  1  0.50513550  0.83736374  0.83818918  1
  Fe  Fe45  1  0.83587266  0.17154910  0.50425558  1
  Ni  Ni46  1  0.67096595  0.00483259  0.67260581  1
  Ni  Ni47  1  0.83888463  0.17076348  0.83705710  1
  Fe  Fe48  1  0.83777819  0.50593989  0.50467563  1
  Ni  Ni49  1  0.66826342  0.33814572  0.67091224  1
  Ni  Ni50  1  0.83734480  0.50327280  0.83698738  1
  Ni  Ni51  1  0.83627488  0.83856704  0.50377465  1
  Ni  Ni52  1  0.67180493  0.67053267  0.67223259  1
  Ni  Ni53  1  0.83782202  0.83878806  0.83832701  1
" 