2620,Ni43Fe27Cr29_12,-228.255318407444, 178.596940516783,Ni43Fe27Cr29,"# generated using pymatgen
 data_Cr17Fe14Ni23
_symmetry_space_group_name_H-M   'P 1'
_cell_length_a   7.46957530
_cell_length_b   7.46957530
_cell_length_c   10.56357470
_cell_angle_alpha   90.00000000
_cell_angle_beta   90.00000000
_cell_angle_gamma   90.00000000
_symmetry_Int_Tables_number   1
_chemical_formula_structural   Cr17Fe14Ni23
_chemical_formula_sum   'Cr17 Fe14 Ni23'
_cell_volume   589.38995161
_cell_formula_units_Z   1
loop_
 _symmetry_equiv_pos_site_id
 _symmetry_equiv_pos_as_xyz
  1  'x, y, z'
loop_
 _atom_site_type_symbol
 _atom_site_label
 _atom_site_symmetry_multiplicity
 _atom_site_fract_x
 _atom_site_fract_y
 _atom_site_fract_z
 _atom_site_occupancy
  Ni  Ni0  1  0.00305665  0.99761138  0.99695718  1
  Cr  Cr1  1  0.16799059  0.16702582  0.16583554  1
  Cr  Cr2  1  0.00318566  0.99931025  0.33418819  1
  Fe  Fe3  1  -0.00006690  0.33121234  0.99873051  1
  Cr  Cr4  1  0.16569038  0.50033520  0.16559962  1
  Ni  Ni5  1  0.00001031  0.33370057  0.33600307  1
  Ni  Ni6  1  0.00153209  0.67042623  0.00003126  1
  Ni  Ni7  1  0.16986828  0.83146220  0.16690325  1
  Fe  Fe8  1  0.00262986  0.66455147  0.33438726  1
  Ni  Ni9  1  0.33038542  0.99727620  0.99944768  1
  Cr  Cr10  1  0.49854093  0.16493829  0.16728125  1
  Ni  Ni11  1  0.33123150  0.99853930  0.33374346  1
  Fe  Fe12  1  0.33340247  0.33266069  0.99951836  1
  Fe  Fe13  1  0.49958739  0.50080573  0.16705597  1
  Ni  Ni14  1  0.33428257  0.33516883  0.33481952  1
  Fe  Fe15  1  0.33392609  0.66914893  0.99978064  1
  Ni  Ni16  1  0.49705310  0.83211299  0.16632078  1
  Ni  Ni17  1  0.33329259  0.66598211  0.33217705  1
  Fe  Fe18  1  0.66620893  0.99814269  0.99842606  1
  Cr  Cr19  1  0.83297545  0.16870932  0.16504753  1
  Cr  Cr20  1  0.66536626  0.00190285  0.33307493  1
  Ni  Ni21  1  0.66455116  0.33579213  0.00003369  1
  Cr  Cr22  1  0.83489973  0.49944629  0.16846353  1
  Ni  Ni23  1  0.66545202  0.33681938  0.33519522  1
  Fe  Fe24  1  0.66441550  0.66806303  0.99926925  1
  Cr  Cr25  1  0.83249881  0.83097437  0.16603288  1
  Ni  Ni26  1  0.66342608  0.66167205  0.33271902  1
  Fe  Fe27  1  0.16815672  0.16876907  0.49970055  1
  Cr  Cr28  1  0.00216511  0.00189732  0.66767909  1
  Ni  Ni29  1  0.16652206  0.16626925  0.83299266  1
  Ni  Ni30  1  0.16705569  0.49918239  0.49903968  1
  Fe  Fe31  1  0.00125493  0.33263603  0.66444218  1
  Cr  Cr32  1  0.16690072  0.49892245  0.83407650  1
  Fe  Fe33  1  0.16868320  0.83147875  0.49958907  1
  Cr  Cr34  1  0.00124629  0.66731498  0.66501346  1
  Ni  Ni35  1  0.17047973  0.83315233  0.83372759  1
  Ni  Ni36  1  0.49658840  0.16700335  0.49842305  1
  Ni  Ni37  1  0.33045376  0.99940181  0.66613557  1
  Cr  Cr38  1  0.49726193  0.16403208  0.83347697  1
  Fe  Fe39  1  0.49919168  0.50064330  0.49890364  1
  Fe  Fe40  1  0.33178478  0.33310711  0.66428015  1
  Fe  Fe41  1  0.49886558  0.50051374  0.83399173  1
  Cr  Cr42  1  0.49776619  0.83413296  0.50069550  1
  Ni  Ni43  1  0.33400036  0.66599988  0.66776047  1
  Ni  Ni44  1  0.49838055  0.83206549  0.83321399  1
  Ni  Ni45  1  0.83270491  0.17063086  0.49858109  1
  Cr  Cr46  1  0.66757583  0.00111442  0.66861434  1
  Ni  Ni47  1  0.83438038  0.16800296  0.83613095  1
  Ni  Ni48  1  0.83548974  0.49874991  0.49757256  1
  Cr  Cr49  1  0.66628009  0.33496822  0.66332174  1
  Cr  Cr50  1  0.83461972  0.50039642  0.83352321  1
  Cr  Cr51  1  0.83001044  0.82917508  0.49917165  1
  Ni  Ni52  1  0.66379606  0.66333516  0.66868059  1
  Fe  Fe53  1  0.83385545  0.83417730  0.83508258  1
" 