7103,Ni43Fe5Cr50_9,-218.876215603834, 139.31320337172,Ni43Fe5Cr50,"# generated using pymatgen
 data_Cr28Fe3Ni23
_symmetry_space_group_name_H-M   'P 1'
_cell_length_a   7.52189159
_cell_length_b   7.52189159
_cell_length_c   10.63756109
_cell_angle_alpha   90.00000000
_cell_angle_beta   90.00000000
_cell_angle_gamma   90.00000000
_symmetry_Int_Tables_number   1
_chemical_formula_structural   Cr28Fe3Ni23
_chemical_formula_sum   'Cr28 Fe3 Ni23'
_cell_volume   601.86100572
_cell_formula_units_Z   1
loop_
 _symmetry_equiv_pos_site_id
 _symmetry_equiv_pos_as_xyz
  1  'x, y, z'
loop_
 _atom_site_type_symbol
 _atom_site_label
 _atom_site_symmetry_multiplicity
 _atom_site_fract_x
 _atom_site_fract_y
 _atom_site_fract_z
 _atom_site_occupancy
  Ni  Ni0  1  -0.00294548  0.99564900  0.99452456  1
  Cr  Cr1  1  0.16422481  0.16184665  0.15799826  1
  Cr  Cr2  1  -0.00132324  0.99369806  0.32841670  1
  Cr  Cr3  1  0.99200299  0.32987476  0.99445643  1
  Cr  Cr4  1  0.16446446  0.49813461  0.16291659  1
  Fe  Fe5  1  -0.00251429  0.33074439  0.33003055  1
  Cr  Cr6  1  0.99416341  0.66494315  0.99589439  1
  Ni  Ni7  1  0.16613345  0.82839702  0.16102476  1
  Ni  Ni8  1  0.00018427  0.66192609  0.32949323  1
  Ni  Ni9  1  0.33219962  0.99454936  -0.00215761  1
  Ni  Ni10  1  0.49744872  0.16251501  0.16195852  1
  Cr  Cr11  1  0.33255664  0.99383019  0.32603766  1
  Fe  Fe12  1  0.33393458  0.32819837  0.99477617  1
  Cr  Cr13  1  0.49689720  0.49637491  0.15940916  1
  Cr  Cr14  1  0.33092675  0.32921396  0.33055015  1
  Ni  Ni15  1  0.33323783  0.66677979  -0.00307649  1
  Ni  Ni16  1  0.49410581  0.82966601  0.16235958  1
  Ni  Ni17  1  0.32674702  0.66282815  0.32889174  1
  Cr  Cr18  1  0.66096469  0.99602645  0.99616228  1
  Cr  Cr19  1  0.82774993  0.16429045  0.16432039  1
  Ni  Ni20  1  0.66147329  -0.00142454  0.32750502  1
  Ni  Ni21  1  0.66045632  0.32952101  0.99406034  1
  Cr  Cr22  1  0.82778912  0.49566029  0.16434494  1
  Ni  Ni23  1  0.66211601  0.32762297  0.32799610  1
  Ni  Ni24  1  0.65939936  0.66192847  0.99317275  1
  Cr  Cr25  1  0.82896384  0.82941897  0.16224693  1
  Cr  Cr26  1  0.66053151  0.66483991  0.32808920  1
  Cr  Cr27  1  0.16258552  0.16467149  0.49986216  1
  Ni  Ni28  1  0.99207055  -0.00344096  0.66687270  1
  Cr  Cr29  1  0.16427181  0.16198110  0.83076198  1
  Ni  Ni30  1  0.16452815  0.49765303  0.49552515  1
  Cr  Cr31  1  0.99580772  0.33089875  0.66282535  1
  Cr  Cr32  1  0.16807189  0.49682988  0.83032684  1
  Cr  Cr33  1  0.16393037  0.82741153  0.49793904  1
  Cr  Cr34  1  0.99433744  0.66231406  0.66395368  1
  Cr  Cr35  1  0.16491415  0.83033350  0.83083271  1
  Cr  Cr36  1  0.49920732  0.16252769  0.49630654  1
  Cr  Cr37  1  0.33279109  -0.00314635  0.66371475  1
  Ni  Ni38  1  0.49714306  0.16273121  0.83097148  1
  Cr  Cr39  1  0.49479205  0.49793637  0.49902332  1
  Ni  Ni40  1  0.33141082  0.33249110  0.66516012  1
  Fe  Fe41  1  0.49738687  0.49799854  0.83077789  1
  Cr  Cr42  1  0.49854795  0.82874718  0.49738571  1
  Ni  Ni43  1  0.33213778  0.66068031  0.66353771  1
  Ni  Ni44  1  0.49778051  0.82871825  0.82947690  1
  Cr  Cr45  1  0.82811779  0.16079928  0.49466828  1
  Ni  Ni46  1  0.66365789  0.99571166  0.66658645  1
  Ni  Ni47  1  0.82724577  0.16132810  0.82985705  1
  Cr  Cr48  1  0.82852786  0.49704353  0.49222146  1
  Cr  Cr49  1  0.66241001  0.33015568  0.66642279  1
  Ni  Ni50  1  0.82580297  0.49753057  0.83125305  1
  Cr  Cr51  1  0.82707270  0.83138615  0.49892597  1
  Ni  Ni52  1  0.66098728  0.66450770  0.66766284  1
  Ni  Ni53  1  0.82571036  0.83028351  0.82888210  1
" 