5973,Ni43Fe34Cr21_15,-231.120580102887, 190.750106519528,Ni43Fe34Cr21,"# generated using pymatgen
 data_Cr13Fe18Ni23
_symmetry_space_group_name_H-M   'P 1'
_cell_length_a   7.44701418
_cell_length_b   7.44701418
_cell_length_c   10.53166845
_cell_angle_alpha   90.00000000
_cell_angle_beta   90.00000000
_cell_angle_gamma   90.00000000
_symmetry_Int_Tables_number   1
_chemical_formula_structural   Cr13Fe18Ni23
_chemical_formula_sum   'Cr13 Fe18 Ni23'
_cell_volume   584.06548202
_cell_formula_units_Z   1
loop_
 _symmetry_equiv_pos_site_id
 _symmetry_equiv_pos_as_xyz
  1  'x, y, z'
loop_
 _atom_site_type_symbol
 _atom_site_label
 _atom_site_symmetry_multiplicity
 _atom_site_fract_x
 _atom_site_fract_y
 _atom_site_fract_z
 _atom_site_occupancy
  Fe  Fe0  1  1.00120564  0.00169730  0.00389625  1
  Ni  Ni1  1  0.16669967  0.17187906  0.16633451  1
  Cr  Cr2  1  0.00143437  1.00113445  0.33225937  1
  Ni  Ni3  1  1.00060549  0.33729428  1.00083700  1
  Ni  Ni4  1  0.16948515  0.50195948  0.16800167  1
  Cr  Cr5  1  1.00096082  0.33598145  0.33613786  1
  Ni  Ni6  1  0.00305936  0.66683813  0.00308646  1
  Fe  Fe7  1  0.16792323  0.83210509  0.16801272  1
  Fe  Fe8  1  0.00216400  0.66812097  0.33446435  1
  Cr  Cr9  1  0.33404528  0.99936117  0.00490273  1
  Ni  Ni10  1  0.50230835  0.16916620  0.16757860  1
  Cr  Cr11  1  0.33588039  0.00188197  0.33286440  1
  Fe  Fe12  1  0.33343012  0.33507962  0.00424929  1
  Ni  Ni13  1  0.49841638  0.50237444  0.16735798  1
  Ni  Ni14  1  0.33396583  0.33530528  0.33319942  1
  Fe  Fe15  1  0.33383123  0.66729207  0.00383386  1
  Ni  Ni16  1  0.50476602  0.83248260  0.16828885  1
  Ni  Ni17  1  0.33299287  0.66884093  0.33411062  1
  Ni  Ni18  1  0.66550823  0.00156877  0.00301217  1
  Ni  Ni19  1  0.83423410  0.16461507  0.16459781  1
  Ni  Ni20  1  0.66753354  1.00088838  0.33570871  1
  Ni  Ni21  1  0.66945979  0.33581833  0.00386945  1
  Fe  Fe22  1  0.83485277  0.50173851  0.16614714  1
  Cr  Cr23  1  0.66898613  0.33287741  0.33246044  1
  Fe  Fe24  1  0.66943503  0.66777663  0.00322228  1
  Ni  Ni25  1  0.83415436  0.83493147  0.16715867  1
  Fe  Fe26  1  0.66819460  0.66954952  0.33402666  1
  Fe  Fe27  1  0.16805276  0.16860646  0.50194969  1
  Ni  Ni28  1  0.00592062  1.00132933  0.66759589  1
  Fe  Fe29  1  0.16754258  0.16897855  0.83506188  1
  Ni  Ni30  1  0.16915336  0.50266477  0.50170115  1
  Fe  Fe31  1  0.00365198  0.33364569  0.66728421  1
  Fe  Fe32  1  0.16593052  0.50041360  0.83615053  1
  Ni  Ni33  1  0.16720890  0.83315669  0.50082299  1
  Cr  Cr34  1  1.00057390  0.66610276  0.66668607  1
  Fe  Fe35  1  0.16897548  0.83428509  0.83400284  1
  Ni  Ni36  1  0.50025229  0.16690598  0.50164844  1
  Ni  Ni37  1  0.33354969  1.00015410  0.66666787  1
  Cr  Cr38  1  0.50095513  0.16859330  0.83510240  1
  Cr  Cr39  1  0.49713475  0.50070637  0.49841164  1
  Fe  Fe40  1  0.33131084  0.33285654  0.66662493  1
  Cr  Cr41  1  0.49811855  0.50134846  0.83722029  1
  Fe  Fe42  1  0.50119727  0.83512455  0.50040678  1
  Fe  Fe43  1  0.33341760  0.67077633  0.66728198  1
  Fe  Fe44  1  0.50067460  0.83510760  0.83553413  1
  Ni  Ni45  1  0.83440977  0.16425732  0.50392370  1
  Fe  Fe46  1  0.66779783  0.99982848  0.66579090  1
  Cr  Cr47  1  0.83603192  0.16666408  0.83546417  1
  Ni  Ni48  1  0.83689163  0.50302593  0.49970829  1
  Cr  Cr49  1  0.67147550  0.33657070  0.66624242  1
  Ni  Ni50  1  0.83614257  0.50177066  0.83738228  1
  Ni  Ni51  1  0.83630607  0.83698815  0.50044647  1
  Cr  Cr52  1  0.66827657  0.66753576  0.66739729  1
  Cr  Cr53  1  0.83614805  0.83667760  0.83650497  1
" 