1485,Ni43Fe25Cr31_3,-228.012317165434, 185.278425142688,Ni43Fe25Cr31,"# generated using pymatgen
 data_Cr18Fe13Ni23
_symmetry_space_group_name_H-M   'P 1'
_cell_length_a   7.46592598
_cell_length_b   7.46592598
_cell_length_c   10.55841378
_cell_angle_alpha   90.00000000
_cell_angle_beta   90.00000000
_cell_angle_gamma   90.00000000
_symmetry_Int_Tables_number   1
_chemical_formula_structural   Cr18Fe13Ni23
_chemical_formula_sum   'Cr18 Fe13 Ni23'
_cell_volume   588.52651981
_cell_formula_units_Z   1
loop_
 _symmetry_equiv_pos_site_id
 _symmetry_equiv_pos_as_xyz
  1  'x, y, z'
loop_
 _atom_site_type_symbol
 _atom_site_label
 _atom_site_symmetry_multiplicity
 _atom_site_fract_x
 _atom_site_fract_y
 _atom_site_fract_z
 _atom_site_occupancy
  Ni  Ni0  1  0.00382381  0.00060654  0.99940371  1
  Ni  Ni1  1  0.16272916  0.16819097  0.16390375  1
  Ni  Ni2  1  0.00296300  0.00086126  0.33077499  1
  Ni  Ni3  1  0.00181732  0.33379397  0.00008181  1
  Ni  Ni4  1  0.16474085  0.49960648  0.16738428  1
  Fe  Fe5  1  0.00338947  0.33462490  0.33234578  1
  Fe  Fe6  1  0.00151902  0.66667829  0.99866666  1
  Ni  Ni7  1  0.16515855  0.83219989  0.16672026  1
  Fe  Fe8  1  0.00361666  0.66683429  0.33326943  1
  Ni  Ni9  1  0.32838183  0.99889871  0.00078543  1
  Cr  Cr10  1  0.49597279  0.16738538  0.16560371  1
  Cr  Cr11  1  0.33035907  0.99532143  0.33147413  1
  Ni  Ni12  1  0.32856885  0.33496791  0.99991658  1
  Cr  Cr13  1  0.49711446  0.50091557  0.16442729  1
  Fe  Fe14  1  0.32987757  0.33391890  0.33295868  1
  Cr  Cr15  1  0.33164801  0.67074248  0.99802994  1
  Ni  Ni16  1  0.49839298  0.83116620  0.16465684  1
  Ni  Ni17  1  0.32911988  0.66631198  0.33479533  1
  Cr  Cr18  1  0.66779499  0.99860704  0.00072488  1
  Ni  Ni19  1  0.83919940  0.16743866  0.16590389  1
  Cr  Cr20  1  0.66703317  0.00057958  0.33401427  1
  Cr  Cr21  1  0.67152407  0.33575444  0.99753557  1
  Fe  Fe22  1  0.83802866  0.49907004  0.16621779  1
  Cr  Cr23  1  0.67141622  0.33312264  0.33563073  1
  Fe  Fe24  1  0.66819074  0.66741737  0.99722634  1
  Cr  Cr25  1  0.83653411  0.83288289  0.16488495  1
  Cr  Cr26  1  0.66540566  0.66638028  0.33159860  1
  Cr  Cr27  1  0.16716647  0.16736660  0.50043088  1
  Ni  Ni28  1  0.00278155  0.99990090  0.67009961  1
  Ni  Ni29  1  0.16376767  0.16744696  0.83587628  1
  Ni  Ni30  1  0.16323579  0.50248267  0.50027331  1
  Ni  Ni31  1  0.00085872  0.33508111  0.66863019  1
  Fe  Fe32  1  0.16471627  0.50124222  0.83423311  1
  Fe  Fe33  1  0.16759465  0.83227520  0.50122202  1
  Fe  Fe34  1  0.00229741  0.66679924  0.66820239  1
  Ni  Ni35  1  0.16469307  0.83525827  0.83153964  1
  Ni  Ni36  1  0.49820129  0.16380141  0.50194219  1
  Ni  Ni37  1  0.33153415  0.99650299  0.66720024  1
  Cr  Cr38  1  0.49443767  0.16557374  0.83325728  1
  Cr  Cr39  1  0.49618974  0.49991356  0.49979544  1
  Cr  Cr40  1  0.32958298  0.33505484  0.66803521  1
  Fe  Fe41  1  0.49732116  0.50229711  0.83483111  1
  Ni  Ni42  1  0.49857378  0.83400785  0.50246796  1
  Fe  Fe43  1  0.32956855  0.67024183  0.66737619  1
  Ni  Ni44  1  0.50029516  0.83306304  0.83289749  1
  Cr  Cr45  1  0.83594707  0.16476476  0.50335293  1
  Ni  Ni46  1  0.66634192  0.99751500  0.66691391  1
  Fe  Fe47  1  0.83721313  0.16207928  0.83277599  1
  Ni  Ni48  1  0.83898655  0.50134780  0.49978415  1
  Cr  Cr49  1  0.67072602  0.33286726  0.66726199  1
  Fe  Fe50  1  0.83894961  0.50184107  0.83316245  1
  Cr  Cr51  1  0.83730917  0.83277967  0.50145127  1
  Cr  Cr52  1  0.66603211  0.66649579  0.66870711  1
  Ni  Ni53  1  0.83541431  0.83177804  0.83340031  1
" 