5963,Ni43Fe27Cr29_18,-228.107051129244, 185.0960073134,Ni43Fe27Cr29,"# generated using pymatgen
 data_Cr17Fe14Ni23
_symmetry_space_group_name_H-M   'P 1'
_cell_length_a   7.46134518
_cell_length_b   7.46134518
_cell_length_c   10.55193555
_cell_angle_alpha   90.00000000
_cell_angle_beta   90.00000000
_cell_angle_gamma   90.00000000
_symmetry_Int_Tables_number   1
_chemical_formula_structural   Cr17Fe14Ni23
_chemical_formula_sum   'Cr17 Fe14 Ni23'
_cell_volume   587.44389397
_cell_formula_units_Z   1
loop_
 _symmetry_equiv_pos_site_id
 _symmetry_equiv_pos_as_xyz
  1  'x, y, z'
loop_
 _atom_site_type_symbol
 _atom_site_label
 _atom_site_symmetry_multiplicity
 _atom_site_fract_x
 _atom_site_fract_y
 _atom_site_fract_z
 _atom_site_occupancy
  Ni  Ni0  1  0.00456107  0.99982984  0.00109964  1
  Ni  Ni1  1  0.16715473  0.16538737  0.16655282  1
  Cr  Cr2  1  1.00008455  0.99875386  0.33547820  1
  Cr  Cr3  1  0.00079481  0.33450004  0.00180522  1
  Fe  Fe4  1  0.16862050  0.50328058  0.16720645  1
  Cr  Cr5  1  1.00011452  0.33507281  0.33060788  1
  Fe  Fe6  1  0.00191186  0.66641418  0.99946295  1
  Fe  Fe7  1  0.16986837  0.83415987  0.16573595  1
  Ni  Ni8  1  0.00234039  0.66767158  0.33241961  1
  Fe  Fe9  1  0.33241540  0.99892413  0.99950836  1
  Cr  Cr10  1  0.49815558  0.16643229  0.16817925  1
  Ni  Ni11  1  0.33474947  0.99892812  0.33182740  1
  Cr  Cr12  1  0.33247313  0.33458333  0.99835893  1
  Cr  Cr13  1  0.50126233  0.50177103  0.16920079  1
  Ni  Ni14  1  0.33392440  0.33296038  0.33378553  1
  Ni  Ni15  1  0.33271183  0.66994671  1.00004983  1
  Ni  Ni16  1  0.50010801  0.83280675  0.16680836  1
  Fe  Fe17  1  0.33211172  0.66884659  0.33168097  1
  Cr  Cr18  1  0.66410190  0.00054137  0.99870612  1
  Fe  Fe19  1  0.83200826  0.16631343  0.16664106  1
  Ni  Ni20  1  0.66526673  0.00086099  0.33507559  1
  Ni  Ni21  1  0.66785112  0.33589273  1.00014763  1
  Fe  Fe22  1  0.83226757  0.50080465  0.16641914  1
  Ni  Ni23  1  0.66666163  0.33184267  0.33373301  1
  Ni  Ni24  1  0.66499879  0.66605397  1.00017594  1
  Cr  Cr25  1  0.83330158  0.83273638  0.16612445  1
  Fe  Fe26  1  0.66873033  0.66860675  0.33341259  1
  Cr  Cr27  1  0.16932716  0.16621027  0.50285647  1
  Ni  Ni28  1  0.00310831  0.99870475  0.66547742  1
  Ni  Ni29  1  0.16825052  0.16505698  0.83268584  1
  Cr  Cr30  1  0.16852943  0.50043989  0.50147846  1
  Ni  Ni31  1  0.00046611  0.33507955  0.66953987  1
  Ni  Ni32  1  0.16591575  0.50147225  0.83228986  1
  Fe  Fe33  1  0.16665731  0.83224947  0.50211519  1
  Ni  Ni34  1  0.00143800  0.66712918  0.66853760  1
  Ni  Ni35  1  0.16683628  0.83481890  0.83399707  1
  Fe  Fe36  1  0.50081664  0.16723618  0.49967702  1
  Ni  Ni37  1  0.33268949  0.99930540  0.66995626  1
  Ni  Ni38  1  0.49739297  0.16752535  0.83235020  1
  Cr  Cr39  1  0.49938756  0.49865323  0.49996138  1
  Fe  Fe40  1  0.33326469  0.33202370  0.66901983  1
  Cr  Cr41  1  0.50227144  0.50046009  0.83209999  1
  Cr  Cr42  1  0.50019767  0.83276512  0.49907746  1
  Fe  Fe43  1  0.33243934  0.66927157  0.66932920  1
  Fe  Fe44  1  0.49734369  0.83314430  0.83411428  1
  Fe  Fe45  1  0.83207667  0.16773393  0.50152239  1
  Cr  Cr46  1  0.66515226  0.99988760  0.66625856  1
  Cr  Cr47  1  0.83594580  0.16754913  0.83323695  1
  Cr  Cr48  1  0.83323038  0.50304011  0.50164554  1
  Ni  Ni49  1  0.66709218  0.33426415  0.66772895  1
  Ni  Ni50  1  0.83394218  0.50192460  0.83391937  1
  Ni  Ni51  1  0.83484697  0.83335342  0.50072443  1
  Ni  Ni52  1  0.66758951  0.66643438  0.66771497  1
  Cr  Cr53  1  0.83587617  0.83097919  0.83311688  1
" 