3024,Ni43Fe48Cr7_17,-236.660855925338, 212.967342883867,Ni43Fe48Cr7,"# generated using pymatgen
 data_Cr5Fe26Ni23
_symmetry_space_group_name_H-M   'P 1'
_cell_length_a   7.41544685
_cell_length_b   7.41544685
_cell_length_c   10.48702551
_cell_angle_alpha   90.00000000
_cell_angle_beta   90.00000000
_cell_angle_gamma   90.00000000
_symmetry_Int_Tables_number   1
_chemical_formula_structural   Cr5Fe26Ni23
_chemical_formula_sum   'Cr5 Fe26 Ni23'
_cell_volume   576.66949348
_cell_formula_units_Z   1
loop_
 _symmetry_equiv_pos_site_id
 _symmetry_equiv_pos_as_xyz
  1  'x, y, z'
loop_
 _atom_site_type_symbol
 _atom_site_label
 _atom_site_symmetry_multiplicity
 _atom_site_fract_x
 _atom_site_fract_y
 _atom_site_fract_z
 _atom_site_occupancy
  Ni  Ni0  1  1.00176014  1.00199750  0.00474055  1
  Fe  Fe1  1  0.16811655  0.17006026  0.17132176  1
  Fe  Fe2  1  1.00277027  1.00335802  0.33666207  1
  Fe  Fe3  1  1.00139916  0.33482698  0.00356476  1
  Fe  Fe4  1  0.16878025  0.50584838  0.17206633  1
  Ni  Ni5  1  1.00268755  0.33782499  0.33638018  1
  Fe  Fe6  1  1.00272076  0.67045871  0.00355197  1
  Fe  Fe7  1  0.16882788  0.83433010  0.17015715  1
  Ni  Ni8  1  1.00274528  0.67013335  0.33796399  1
  Cr  Cr9  1  0.33767983  1.00342654  1.00216964  1
  Fe  Fe10  1  0.50702289  0.17003753  0.17208979  1
  Fe  Fe11  1  0.33478177  0.00465323  0.33577509  1
  Cr  Cr12  1  0.33765996  0.33890824  0.00426989  1
  Ni  Ni13  1  0.50430821  0.50496583  0.17101895  1
  Fe  Fe14  1  0.33618657  0.33767157  0.33772723  1
  Fe  Fe15  1  0.33828099  0.67094541  1.00328457  1
  Ni  Ni16  1  0.50422980  0.83607058  0.17056897  1
  Fe  Fe17  1  0.33581528  0.66801626  0.33630891  1
  Ni  Ni18  1  0.67158532  0.00358360  0.00392306  1
  Fe  Fe19  1  0.83561803  0.17055609  0.16909584  1
  Fe  Fe20  1  0.67289519  0.00375351  0.33640336  1
  Ni  Ni21  1  0.67006373  0.33692963  0.00382136  1
  Ni  Ni22  1  0.83723700  0.50330022  0.16902638  1
  Fe  Fe23  1  0.67152760  0.33846605  0.33639284  1
  Fe  Fe24  1  0.66960489  0.67042464  0.00434568  1
  Ni  Ni25  1  0.83614518  0.83621999  0.16900646  1
  Fe  Fe26  1  0.67324628  0.66829961  0.33561850  1
  Ni  Ni27  1  0.17042301  0.17189165  0.50356113  1
  Cr  Cr28  1  1.00146423  1.00252816  0.66786726  1
  Ni  Ni29  1  0.16783718  0.17124759  0.83611462  1
  Ni  Ni30  1  0.16845339  0.50050087  0.50305895  1
  Ni  Ni31  1  0.00437859  0.33840851  0.67026984  1
  Fe  Fe32  1  0.16787719  0.50338442  0.83574960  1
  Fe  Fe33  1  0.16898575  0.83533095  0.50193136  1
  Ni  Ni34  1  1.00267064  0.66903809  0.66937428  1
  Ni  Ni35  1  0.16996819  0.83705292  0.83734432  1
  Ni  Ni36  1  0.50176894  0.17091310  0.50437688  1
  Fe  Fe37  1  0.33622394  0.00577775  0.67186685  1
  Fe  Fe38  1  0.50544573  0.16929288  0.83489540  1
  Ni  Ni39  1  0.50470361  0.50163622  0.50250993  1
  Ni  Ni40  1  0.33755832  0.33673075  0.66940907  1
  Fe  Fe41  1  0.50487442  0.50282519  0.83682662  1
  Cr  Cr42  1  0.50503589  0.83717185  0.50300195  1
  Cr  Cr43  1  0.33495740  0.66824332  0.66954142  1
  Ni  Ni44  1  0.50543934  0.83586981  0.83700230  1
  Fe  Fe45  1  0.83528358  0.17244556  0.50342807  1
  Ni  Ni46  1  0.66974954  0.00426233  0.67121645  1
  Ni  Ni47  1  0.83767819  0.17176863  0.83818275  1
  Ni  Ni48  1  0.83783945  0.50385722  0.50413033  1
  Fe  Fe49  1  0.67138647  0.33714687  0.67050025  1
  Fe  Fe50  1  0.83787663  0.50361546  0.83700835  1
  Ni  Ni51  1  0.83662186  0.83497298  0.50342240  1
  Fe  Fe52  1  0.67266350  0.66893019  0.67066583  1
  Fe  Fe53  1  0.83701951  0.83797077  0.83736937  1
" 