4272,Ni43Fe48Cr7_2,-236.73968903315, 211.203600957177,Ni43Fe48Cr7,"# generated using pymatgen
 data_Cr5Fe26Ni23
_symmetry_space_group_name_H-M   'P 1'
_cell_length_a   7.41804898
_cell_length_b   7.41804898
_cell_length_c   10.49070548
_cell_angle_alpha   90.00000000
_cell_angle_beta   90.00000000
_cell_angle_gamma   90.00000000
_symmetry_Int_Tables_number   1
_chemical_formula_structural   Cr5Fe26Ni23
_chemical_formula_sum   'Cr5 Fe26 Ni23'
_cell_volume   577.27677843
_cell_formula_units_Z   1
loop_
 _symmetry_equiv_pos_site_id
 _symmetry_equiv_pos_as_xyz
  1  'x, y, z'
loop_
 _atom_site_type_symbol
 _atom_site_label
 _atom_site_symmetry_multiplicity
 _atom_site_fract_x
 _atom_site_fract_y
 _atom_site_fract_z
 _atom_site_occupancy
  Fe  Fe0  1  1.00293407  0.00424562  1.00259161  1
  Ni  Ni1  1  0.16994165  0.17241764  0.16974475  1
  Fe  Fe2  1  1.00201089  1.00322001  0.33711533  1
  Ni  Ni3  1  0.00456001  0.33422487  0.00479299  1
  Ni  Ni4  1  0.16919096  0.50161192  0.17009415  1
  Fe  Fe5  1  1.00288108  0.33796017  0.33627548  1
  Fe  Fe6  1  0.00388354  0.66892995  0.00402188  1
  Cr  Cr7  1  0.16912321  0.83559869  0.16957405  1
  Ni  Ni8  1  1.00269100  0.67005971  0.33687597  1
  Fe  Fe9  1  0.33680572  0.00560762  1.00171856  1
  Ni  Ni10  1  0.50357372  0.17114726  0.17054616  1
  Fe  Fe11  1  0.33732152  0.00409402  0.33808116  1
  Ni  Ni12  1  0.33578067  0.33629192  1.00304347  1
  Fe  Fe13  1  0.50315164  0.50169161  0.17037260  1
  Fe  Fe14  1  0.33713743  0.33777170  0.33573845  1
  Ni  Ni15  1  0.33756066  0.66864010  1.00176028  1
  Cr  Cr16  1  0.50482522  0.83662122  0.17042818  1
  Ni  Ni17  1  0.33691419  0.66952821  0.33788509  1
  Fe  Fe18  1  0.67017000  0.00435937  1.00299337  1
  Ni  Ni19  1  0.83639109  0.17036123  0.16937988  1
  Fe  Fe20  1  0.67057544  1.00319278  0.33681112  1
  Fe  Fe21  1  0.66851621  0.33606098  0.00446925  1
  Fe  Fe22  1  0.83684406  0.50294585  0.17048507  1
  Ni  Ni23  1  0.67011505  0.33650590  0.33523882  1
  Ni  Ni24  1  0.66908552  0.67050579  0.00417301  1
  Ni  Ni25  1  0.83609582  0.83610925  0.17029324  1
  Ni  Ni26  1  0.67030207  0.66885274  0.33716191  1
  Fe  Fe27  1  0.16919126  0.17090043  0.50320753  1
  Ni  Ni28  1  1.00252806  0.00470044  0.67036663  1
  Ni  Ni29  1  0.17014524  0.17115863  0.83736899  1
  Fe  Fe30  1  0.17045355  0.50419946  0.50335513  1
  Ni  Ni31  1  0.00463879  0.33430554  0.66887605  1
  Ni  Ni32  1  0.17078049  0.50289733  0.83526433  1
  Fe  Fe33  1  0.16984603  0.83481112  0.50242986  1
  Fe  Fe34  1  0.00392705  0.67029593  0.66885495  1
  Fe  Fe35  1  0.16982209  0.83611480  0.83713355  1
  Fe  Fe36  1  0.50399068  0.17058168  0.50165323  1
  Cr  Cr37  1  0.33573317  1.00252883  0.67053904  1
  Ni  Ni38  1  0.50247180  0.16882568  0.83758576  1
  Ni  Ni39  1  0.50334049  0.50529493  0.50343257  1
  Fe  Fe40  1  0.33480585  0.33825479  0.67094428  1
  Fe  Fe41  1  0.50019849  0.50389886  0.83709504  1
  Ni  Ni42  1  0.50419768  0.83550685  0.50302898  1
  Ni  Ni43  1  0.33766324  0.66935944  0.67026016  1
  Fe  Fe44  1  0.50330833  0.83530501  0.83700300  1
  Fe  Fe45  1  0.83672558  0.16997526  0.50256028  1
  Fe  Fe46  1  0.67134724  1.00152602  0.67010728  1
  Fe  Fe47  1  0.83848880  0.16848634  0.83734235  1
  Ni  Ni48  1  0.83724100  0.50431340  0.50229460  1
  Cr  Cr49  1  0.66998475  0.33700832  0.67028272  1
  Cr  Cr50  1  0.83840827  0.50427434  0.83724087  1
  Fe  Fe51  1  0.83577355  0.83543968  0.50295893  1
  Ni  Ni52  1  0.66817611  0.67146820  0.66858063  1
  Fe  Fe53  1  0.83677377  0.83835635  0.83691123  1
" 