956,Ni43Fe25Cr31_11,-227.745481302243, 185.568954864089,Ni43Fe25Cr31,"# generated using pymatgen
 data_Cr18Fe13Ni23
_symmetry_space_group_name_H-M   'P 1'
_cell_length_a   7.46568299
_cell_length_b   7.46568299
_cell_length_c   10.55807014
_cell_angle_alpha   90.00000000
_cell_angle_beta   90.00000000
_cell_angle_gamma   90.00000000
_symmetry_Int_Tables_number   1
_chemical_formula_structural   Cr18Fe13Ni23
_chemical_formula_sum   'Cr18 Fe13 Ni23'
_cell_volume   588.46905843
_cell_formula_units_Z   1
loop_
 _symmetry_equiv_pos_site_id
 _symmetry_equiv_pos_as_xyz
  1  'x, y, z'
loop_
 _atom_site_type_symbol
 _atom_site_label
 _atom_site_symmetry_multiplicity
 _atom_site_fract_x
 _atom_site_fract_y
 _atom_site_fract_z
 _atom_site_occupancy
  Cr  Cr0  1  0.00016219  0.00014466  0.99976199  1
  Fe  Fe1  1  0.16670462  0.16383808  0.16811687  1
  Ni  Ni2  1  0.00202124  1.00008250  0.33499832  1
  Ni  Ni3  1  0.00500836  0.33400976  0.00075003  1
  Fe  Fe4  1  0.16666765  0.50215057  0.16740641  1
  Ni  Ni5  1  0.00137491  0.33238825  0.33376644  1
  Fe  Fe6  1  0.00305873  0.66626886  0.99983717  1
  Ni  Ni7  1  0.16850024  0.83175386  0.16638949  1
  Ni  Ni8  1  0.00342813  0.66753068  0.33375836  1
  Fe  Fe9  1  0.33428604  0.00108308  0.99998908  1
  Ni  Ni10  1  0.49762635  0.16643744  0.16609807  1
  Ni  Ni11  1  0.33072999  0.99873137  0.33256575  1
  Cr  Cr12  1  0.33207194  0.33530770  0.00031497  1
  Fe  Fe13  1  0.49957456  0.50071619  0.16871958  1
  Cr  Cr14  1  0.33169587  0.33369551  0.33339571  1
  Fe  Fe15  1  0.33055511  0.66807415  0.99964667  1
  Cr  Cr16  1  0.49609295  0.83570505  0.16822301  1
  Ni  Ni17  1  0.33179789  0.66729293  0.33219150  1
  Ni  Ni18  1  0.66457823  0.99801980  0.99814897  1
  Cr  Cr19  1  0.83291798  0.16828780  0.16658786  1
  Cr  Cr20  1  0.66820224  1.00001059  0.33482352  1
  Cr  Cr21  1  0.66424612  0.33189492  0.99957508  1
  Cr  Cr22  1  0.83587698  0.49958337  0.16795041  1
  Ni  Ni23  1  0.66717350  0.33298656  0.33237653  1
  Cr  Cr24  1  0.66387247  0.66946488  0.99898358  1
  Cr  Cr25  1  0.83674635  0.83207858  0.16805854  1
  Fe  Fe26  1  0.66673367  0.66706806  0.33485700  1
  Ni  Ni27  1  0.16621379  0.16642503  0.49929178  1
  Fe  Fe28  1  0.99900967  0.99925613  0.66622214  1
  Ni  Ni29  1  0.17100006  0.16687011  0.83322012  1
  Ni  Ni30  1  0.16589361  0.50006489  0.49866591  1
  Cr  Cr31  1  0.00448191  0.33134847  0.66531134  1
  Ni  Ni32  1  0.16720246  0.50149486  0.83497246  1
  Cr  Cr33  1  0.16834004  0.83402162  0.49949410  1
  Fe  Fe34  1  0.99893128  0.66799581  0.66644737  1
  Fe  Fe35  1  0.16626752  0.83458514  0.83387092  1
  Cr  Cr36  1  0.49878117  0.16515598  0.50223896  1
  Fe  Fe37  1  0.33456176  0.00174480  0.66697071  1
  Ni  Ni38  1  0.49718535  0.16410767  0.83234779  1
  Cr  Cr39  1  0.49981915  0.50085114  0.49993136  1
  Ni  Ni40  1  0.33142188  0.33344854  0.66830845  1
  Fe  Fe41  1  0.49952759  0.49834477  0.83089031  1
  Ni  Ni42  1  0.50023648  0.83373852  0.49945899  1
  Cr  Cr43  1  0.33257728  0.66511757  0.66761681  1
  Fe  Fe44  1  0.49974238  0.83599259  0.83196302  1
  Ni  Ni45  1  0.83422590  0.16603106  0.50000438  1
  Ni  Ni46  1  0.66843543  0.99710650  0.66760219  1
  Cr  Cr47  1  0.83200459  0.16618073  0.83349956  1
  Cr  Cr48  1  0.83403250  0.49989017  0.49944282  1
  Ni  Ni49  1  0.66463716  0.33204759  0.66819498  1
  Cr  Cr50  1  0.83525912  0.50141663  0.83266144  1
  Ni  Ni51  1  0.83365355  0.83346808  0.50057247  1
  Ni  Ni52  1  0.66618468  0.67140187  0.66629617  1
  Ni  Ni53  1  0.83360458  0.83222370  0.83214773  1
" 