7973,Ni43Fe57_13,-242.235856473876, 226.853696037963,Ni43Fe57,"# generated using pymatgen
 data_Fe23Ni31
_symmetry_space_group_name_H-M   'P 1'
_cell_length_a   7.39801912
_cell_length_b   7.39801912
_cell_length_c   10.46237897
_cell_angle_alpha   90.00000000
_cell_angle_beta   90.00000000
_cell_angle_gamma   90.00000000
_symmetry_Int_Tables_number   1
_chemical_formula_structural   Fe23Ni31
_chemical_formula_sum   'Fe23 Ni31'
_cell_volume   572.61318699
_cell_formula_units_Z   1
loop_
 _symmetry_equiv_pos_site_id
 _symmetry_equiv_pos_as_xyz
  1  'x, y, z'
loop_
 _atom_site_type_symbol
 _atom_site_label
 _atom_site_symmetry_multiplicity
 _atom_site_fract_x
 _atom_site_fract_y
 _atom_site_fract_z
 _atom_site_occupancy
  Fe  Fe0  1  0.00533469  0.00516691  1.00429417  1
  Ni  Ni1  1  0.17093473  0.17153893  0.17133781  1
  Fe  Fe2  1  0.00505688  0.00593119  0.33886621  1
  Ni  Ni3  1  1.00403203  0.33737697  1.00372366  1
  Fe  Fe4  1  0.17099858  0.50403466  0.17119400  1
  Ni  Ni5  1  0.00485857  0.33748888  0.33935961  1
  Fe  Fe6  1  1.00456911  0.67019609  1.00355850  1
  Fe  Fe7  1  0.17152596  0.83814970  0.17109378  1
  Fe  Fe8  1  1.00435800  0.67054261  0.33895400  1
  Ni  Ni9  1  0.33718280  1.00323417  0.00476497  1
  Fe  Fe10  1  0.50570735  0.17145884  0.17165213  1
  Fe  Fe11  1  0.33815329  0.00599640  0.33743098  1
  Fe  Fe12  1  0.33788963  0.33789058  1.00401500  1
  Fe  Fe13  1  0.50514322  0.50431925  0.17213323  1
  Ni  Ni14  1  0.33728223  0.33883415  0.33624559  1
  Ni  Ni15  1  0.33810741  0.67298287  1.00361018  1
  Ni  Ni16  1  0.50462148  0.83747080  0.17267156  1
  Ni  Ni17  1  0.33727955  0.67145060  0.33855046  1
  Fe  Fe18  1  0.67011118  1.00448769  0.00492930  1
  Ni  Ni19  1  0.83883940  0.17328195  0.17163144  1
  Ni  Ni20  1  0.67187073  0.00504700  0.33757101  1
  Ni  Ni21  1  0.67280114  0.33830488  0.00487372  1
  Ni  Ni22  1  0.83750483  0.50405187  0.17238179  1
  Ni  Ni23  1  0.67185882  0.33656425  0.33809161  1
  Ni  Ni24  1  0.67052470  0.67112861  0.00498780  1
  Fe  Fe25  1  0.83749975  0.83871553  0.17213599  1
  Fe  Fe26  1  0.67085003  0.67023791  0.33782801  1
  Ni  Ni27  1  0.17214396  0.17073716  0.50486614  1
  Ni  Ni28  1  0.00469687  1.00353494  0.67154882  1
  Ni  Ni29  1  0.17213814  0.17131561  0.83779409  1
  Fe  Fe30  1  0.17231499  0.50459673  0.50471596  1
  Fe  Fe31  1  1.00405250  0.33808185  0.67206754  1
  Ni  Ni32  1  0.16946482  0.50456811  0.83790577  1
  Ni  Ni33  1  0.17027545  0.83891188  0.50434211  1
  Ni  Ni34  1  0.00510554  0.67286375  0.67183521  1
  Ni  Ni35  1  0.17213536  0.83811207  0.83842584  1
  Ni  Ni36  1  0.50395688  0.17258721  0.50341854  1
  Fe  Fe37  1  0.33821900  0.00501676  0.67237010  1
  Ni  Ni38  1  0.50418210  0.17039697  0.83895064  1
  Ni  Ni39  1  0.50609353  0.50382454  0.50485643  1
  Ni  Ni40  1  0.33810552  0.33800240  0.67218310  1
  Fe  Fe41  1  0.50397424  0.50466783  0.83736905  1
  Fe  Fe42  1  0.50468709  0.83846284  0.50431814  1
  Fe  Fe43  1  0.33821604  0.67163656  0.67148048  1
  Ni  Ni44  1  0.50459400  0.83862419  0.83623996  1
  Fe  Fe45  1  0.83743158  0.17050039  0.50386723  1
  Ni  Ni46  1  0.67212984  1.00447622  0.67234964  1
  Fe  Fe47  1  0.83830441  0.17150789  0.83847671  1
  Fe  Fe48  1  0.83782874  0.50452858  0.50490786  1
  Ni  Ni49  1  0.67026072  0.33758983  0.67103383  1
  Ni  Ni50  1  0.83818255  0.50497913  0.83744533  1
  Ni  Ni51  1  0.83842028  0.83677327  0.50416479  1
  Ni  Ni52  1  0.67172993  0.67192838  0.67079790  1
  Fe  Fe53  1  0.83838800  0.83781978  0.83631044  1
" 