1210,Ni43Fe5Cr50_3,-219.011099916204, 144.606381577063,Ni43Fe5Cr50,"# generated using pymatgen
 data_Cr28Fe3Ni23
_symmetry_space_group_name_H-M   'P 1'
_cell_length_a   7.52144690
_cell_length_b   7.52144690
_cell_length_c   10.63693222
_cell_angle_alpha   90.00000000
_cell_angle_beta   90.00000000
_cell_angle_gamma   90.00000000
_symmetry_Int_Tables_number   1
_chemical_formula_structural   Cr28Fe3Ni23
_chemical_formula_sum   'Cr28 Fe3 Ni23'
_cell_volume   601.75426901
_cell_formula_units_Z   1
loop_
 _symmetry_equiv_pos_site_id
 _symmetry_equiv_pos_as_xyz
  1  'x, y, z'
loop_
 _atom_site_type_symbol
 _atom_site_label
 _atom_site_symmetry_multiplicity
 _atom_site_fract_x
 _atom_site_fract_y
 _atom_site_fract_z
 _atom_site_occupancy
  Ni  Ni0  1  0.99283339  -0.00327672  -0.00310743  1
  Fe  Fe1  1  0.15979557  0.16187624  0.16396266  1
  Ni  Ni2  1  0.99133534  -0.00104918  0.32793032  1
  Cr  Cr3  1  0.99562844  0.32734887  -0.00229923  1
  Ni  Ni4  1  0.16124955  0.49612224  0.16404886  1
  Ni  Ni5  1  0.99296437  0.32857552  0.32777419  1
  Cr  Cr6  1  -0.00265025  0.66184862  0.99633102  1
  Cr  Cr7  1  0.15936627  0.82796294  0.16456290  1
  Ni  Ni8  1  0.99388955  0.66160416  0.32928640  1
  Cr  Cr9  1  0.32999619  0.99489144  0.99591757  1
  Ni  Ni10  1  0.50208527  0.16268942  0.16485021  1
  Cr  Cr11  1  0.33173828  -0.00279823  0.32975640  1
  Cr  Cr12  1  0.32767927  0.33271762  -0.00159952  1
  Cr  Cr13  1  0.49749769  0.49576836  0.16043953  1
  Cr  Cr14  1  0.33051214  0.33020857  0.32602437  1
  Ni  Ni15  1  0.33025717  0.66233519  0.99321268  1
  Cr  Cr16  1  0.50108789  0.83131268  0.16075984  1
  Cr  Cr17  1  0.33013531  0.66152045  0.32928151  1
  Ni  Ni18  1  0.66567120  0.99627205  -0.00221244  1
  Ni  Ni19  1  0.82887305  0.16054928  0.16465247  1
  Ni  Ni20  1  0.66818716  0.00014249  0.32749200  1
  Cr  Cr21  1  0.66454283  0.32847757  0.99595654  1
  Cr  Cr22  1  0.83023968  0.49755202  0.16554471  1
  Ni  Ni23  1  0.66647949  0.32719090  0.33226296  1
  Ni  Ni24  1  0.66070804  0.66603642  0.99513509  1
  Ni  Ni25  1  0.83086187  0.83419559  0.16293405  1
  Cr  Cr26  1  0.66423694  0.66255667  0.33036935  1
  Cr  Cr27  1  0.16061344  0.16420420  0.49516651  1
  Cr  Cr28  1  0.99450352  0.99545179  0.66544277  1
  Cr  Cr29  1  0.16214685  0.16372156  0.82948702  1
  Cr  Cr30  1  0.16121812  0.49588763  0.49538399  1
  Cr  Cr31  1  0.99384960  0.32979373  0.66434547  1
  Ni  Ni32  1  0.16522594  0.49918864  0.82893186  1
  Cr  Cr33  1  0.15863231  0.82883346  0.49547669  1
  Ni  Ni34  1  0.99399327  0.66063003  0.66368840  1
  Ni  Ni35  1  0.16288359  0.82639251  0.82998751  1
  Cr  Cr36  1  0.49872726  0.16667683  0.49673975  1
  Cr  Cr37  1  0.33009525  0.99565635  0.66362294  1
  Cr  Cr38  1  0.49868638  0.16561103  0.82842856  1
  Ni  Ni39  1  0.49983666  0.49352889  0.49874185  1
  Ni  Ni40  1  0.33128024  0.33459771  0.66421195  1
  Ni  Ni41  1  0.49521266  0.49939489  0.82887443  1
  Cr  Cr42  1  0.49945767  0.82913556  0.49518044  1
  Cr  Cr43  1  0.33105796  0.66353517  0.66435874  1
  Ni  Ni44  1  0.49732039  0.82660544  0.83207737  1
  Ni  Ni45  1  0.82865454  0.16539903  0.49401986  1
  Cr  Cr46  1  0.66476346  0.99514886  0.66369554  1
  Ni  Ni47  1  0.82849357  0.16151568  0.83122042  1
  Fe  Fe48  1  0.82883554  0.49472407  0.49606109  1
  Fe  Fe49  1  0.66321927  0.33177096  0.66225272  1
  Cr  Cr50  1  0.82700059  0.49622867  0.82794106  1
  Cr  Cr51  1  0.83152930  0.82935827  0.49385845  1
  Ni  Ni52  1  0.66313465  0.65991356  0.66304244  1
  Cr  Cr53  1  0.82914723  0.82918524  0.83321609  1
" 