6621,Ni43Fe25Cr31_5,-227.742147461646, 184.183741879856,Ni43Fe25Cr31,"# generated using pymatgen
 data_Cr18Fe13Ni23
_symmetry_space_group_name_H-M   'P 1'
_cell_length_a   7.46693459
_cell_length_b   7.46693459
_cell_length_c   10.55984016
_cell_angle_alpha   90.00000000
_cell_angle_beta   90.00000000
_cell_angle_gamma   90.00000000
_symmetry_Int_Tables_number   1
_chemical_formula_structural   Cr18Fe13Ni23
_chemical_formula_sum   'Cr18 Fe13 Ni23'
_cell_volume   588.76507269
_cell_formula_units_Z   1
loop_
 _symmetry_equiv_pos_site_id
 _symmetry_equiv_pos_as_xyz
  1  'x, y, z'
loop_
 _atom_site_type_symbol
 _atom_site_label
 _atom_site_symmetry_multiplicity
 _atom_site_fract_x
 _atom_site_fract_y
 _atom_site_fract_z
 _atom_site_occupancy
  Cr  Cr0  1  0.99836073  0.99892215  0.00240444  1
  Cr  Cr1  1  0.17035260  0.16959398  0.16850896  1
  Ni  Ni2  1  0.99659533  0.99708274  0.33066203  1
  Cr  Cr3  1  0.99820185  0.33070889  0.99948974  1
  Ni  Ni4  1  0.16824223  0.50165095  0.16767570  1
  Cr  Cr5  1  0.99834639  0.33387684  0.33555032  1
  Ni  Ni6  1  0.00041400  0.66726286  0.00311026  1
  Fe  Fe7  1  0.16650364  0.83090386  0.16996367  1
  Ni  Ni8  1  0.00350516  0.66886844  0.33360346  1
  Cr  Cr9  1  0.33438423  0.99965492  0.00152179  1
  Ni  Ni10  1  0.50118570  0.16740013  0.16895601  1
  Fe  Fe11  1  0.33537036  0.99777300  0.33389286  1
  Fe  Fe12  1  0.33784434  0.33416612  0.00143435  1
  Ni  Ni13  1  0.49863446  0.49913843  0.16714340  1
  Ni  Ni14  1  0.33701433  0.33767143  0.33215946  1
  Cr  Cr15  1  0.33552359  0.66559531  0.00312502  1
  Ni  Ni16  1  0.50340055  0.83325867  0.17015620  1
  Ni  Ni17  1  0.33427862  0.66586251  0.33392378  1
  Cr  Cr18  1  0.66723203  0.00188066  0.00046695  1
  Ni  Ni19  1  0.82974688  0.16455745  0.16954330  1
  Ni  Ni20  1  0.66629040  0.00088245  0.33310210  1
  Ni  Ni21  1  0.66369085  0.33295513  0.00109939  1
  Cr  Cr22  1  0.83310793  0.50279071  0.16685240  1
  Fe  Fe23  1  0.66363565  0.33260382  0.33266945  1
  Ni  Ni24  1  0.66484864  0.66435968  0.00274461  1
  Ni  Ni25  1  0.83188211  0.83211017  0.16694552  1
  Fe  Fe26  1  0.66469269  0.66841735  0.33285479  1
  Cr  Cr27  1  0.17047257  0.16825700  0.49935956  1
  Cr  Cr28  1  0.99907790  0.00329965  0.66746265  1
  Fe  Fe29  1  0.16738877  0.16611096  0.83214172  1
  Ni  Ni30  1  0.16563303  0.50171141  0.50043432  1
  Ni  Ni31  1  0.99816340  0.33316012  0.66522129  1
  Cr  Cr32  1  0.16686381  0.49904997  0.83388466  1
  Fe  Fe33  1  0.16999436  0.83241582  0.49887898  1
  Fe  Fe34  1  0.00152647  0.66340168  0.66331803  1
  Cr  Cr35  1  0.16720771  0.83093363  0.83026917  1
  Ni  Ni36  1  0.50014898  0.16413004  0.49731921  1
  Ni  Ni37  1  0.33538098  0.99833350  0.66455147  1
  Ni  Ni38  1  0.49946959  0.16769831  0.83339916  1
  Fe  Fe39  1  0.49811331  0.50185897  0.49745246  1
  Cr  Cr40  1  0.33472508  0.33492488  0.66859578  1
  Fe  Fe41  1  0.50266692  0.49973670  0.83482290  1
  Ni  Ni42  1  0.50032975  0.83454715  0.50087554  1
  Ni  Ni43  1  0.33619041  0.66752828  0.66308330  1
  Cr  Cr44  1  0.50191875  0.83375508  0.82933521  1
  Fe  Fe45  1  0.83117062  0.16572466  0.49806809  1
  Fe  Fe46  1  0.66297788  0.00198520  0.66469317  1
  Ni  Ni47  1  0.83007883  0.16848051  0.83106188  1
  Fe  Fe48  1  0.83278664  0.50077239  0.50010424  1
  Cr  Cr49  1  0.66773061  0.33330951  0.66366939  1
  Cr  Cr50  1  0.83328897  0.50254427  0.83361868  1
  Cr  Cr51  1  0.83064628  0.83147512  0.50097712  1
  Ni  Ni52  1  0.66263590  0.66526651  0.66482154  1
  Cr  Cr53  1  0.83053582  0.83004871  0.83342920  1
" 