1613,Ni43Fe34Cr21_11,-231.333521422023, 194.841467117184,Ni43Fe34Cr21,"# generated using pymatgen
 data_Cr13Fe18Ni23
_symmetry_space_group_name_H-M   'P 1'
_cell_length_a   7.45064572
_cell_length_b   7.45064572
_cell_length_c   10.53680423
_cell_angle_alpha   90.00000000
_cell_angle_beta   90.00000000
_cell_angle_gamma   90.00000000
_symmetry_Int_Tables_number   1
_chemical_formula_structural   Cr13Fe18Ni23
_chemical_formula_sum   'Cr13 Fe18 Ni23'
_cell_volume   584.92035795
_cell_formula_units_Z   1
loop_
 _symmetry_equiv_pos_site_id
 _symmetry_equiv_pos_as_xyz
  1  'x, y, z'
loop_
 _atom_site_type_symbol
 _atom_site_label
 _atom_site_symmetry_multiplicity
 _atom_site_fract_x
 _atom_site_fract_y
 _atom_site_fract_z
 _atom_site_occupancy
  Fe  Fe0  1  0.00126264  0.00297635  0.00169357  1
  Cr  Cr1  1  0.16712242  0.16816040  0.16731427  1
  Fe  Fe2  1  0.99995837  0.00291671  0.33417836  1
  Ni  Ni3  1  1.00012765  0.33375454  1.00049271  1
  Cr  Cr4  1  0.17084096  0.49930807  0.16717294  1
  Fe  Fe5  1  0.99836922  0.33260073  0.33546958  1
  Cr  Cr6  1  0.00240293  0.66677967  0.00205597  1
  Ni  Ni7  1  0.16801177  0.83541771  0.16781641  1
  Cr  Cr8  1  0.00395720  0.66731339  0.33364058  1
  Ni  Ni9  1  0.33392518  1.00037351  0.99928587  1
  Cr  Cr10  1  0.50187894  0.16917216  0.16735940  1
  Fe  Fe11  1  0.33323783  0.99930135  0.33547814  1
  Ni  Ni12  1  0.33424405  0.33410385  0.99905271  1
  Fe  Fe13  1  0.50171201  0.49930371  0.16602414  1
  Fe  Fe14  1  0.33511641  0.33600918  0.33598184  1
  Ni  Ni15  1  0.33459613  0.66859854  1.00071221  1
  Cr  Cr16  1  0.50118028  0.83387712  0.16698905  1
  Fe  Fe17  1  0.33574647  0.66814992  0.33547182  1
  Ni  Ni18  1  0.66726205  0.00252921  0.00118944  1
  Ni  Ni19  1  0.83436547  0.16787129  0.16822718  1
  Ni  Ni20  1  0.66815116  0.00290974  0.33464767  1
  Ni  Ni21  1  0.66884026  0.33445298  1.00099403  1
  Fe  Fe22  1  0.83281603  0.49771698  0.16612917  1
  Ni  Ni23  1  0.66882356  0.33356248  0.33421196  1
  Ni  Ni24  1  0.66705245  0.66662153  0.00202098  1
  Fe  Fe25  1  0.83513803  0.83828244  0.16691078  1
  Cr  Cr26  1  0.66812708  0.66624562  0.33367059  1
  Ni  Ni27  1  0.16578845  0.16921531  0.50051621  1
  Fe  Fe28  1  0.00478754  0.00285179  0.66775256  1
  Fe  Fe29  1  0.16842413  0.16909550  0.83379839  1
  Fe  Fe30  1  0.16964601  0.50033917  0.50274089  1
  Ni  Ni31  1  0.00263864  0.33488191  0.66641096  1
  Ni  Ni32  1  0.16847385  0.49864656  0.83288826  1
  Fe  Fe33  1  0.17087607  0.83559973  0.50139078  1
  Ni  Ni34  1  0.00503247  0.66580008  0.66737857  1
  Fe  Fe35  1  0.17040486  0.83193393  0.83416645  1
  Cr  Cr36  1  0.49868800  0.16783040  0.49989668  1
  Ni  Ni37  1  0.33234098  1.00056258  0.66789228  1
  Fe  Fe38  1  0.49893212  0.16889448  0.83635240  1
  Ni  Ni39  1  0.49840746  0.50143944  0.50009162  1
  Ni  Ni40  1  0.33211305  0.33423491  0.66813873  1
  Ni  Ni41  1  0.49846844  0.50202534  0.83710559  1
  Ni  Ni42  1  0.49956498  0.83337174  0.50074927  1
  Ni  Ni43  1  0.33217333  0.66849704  0.66693244  1
  Ni  Ni44  1  0.49949982  0.83433002  0.83518081  1
  Fe  Fe45  1  0.83542994  0.16948267  0.49905411  1
  Cr  Cr46  1  0.66435436  0.00334388  0.66837516  1
  Fe  Fe47  1  0.83536133  0.17039923  0.83682847  1
  Fe  Fe48  1  0.83519152  0.49833744  0.50164486  1
  Cr  Cr49  1  0.66749646  0.33450426  0.66908317  1
  Ni  Ni50  1  0.83639968  0.49975378  0.83475468  1
  Cr  Cr51  1  0.83476539  0.83553137  0.50272836  1
  Cr  Cr52  1  0.66576866  0.66576908  0.66780964  1
  Cr  Cr53  1  0.83414383  0.83445714  0.83558523  1
" 