2878,Ni43Fe5Cr50_7,-218.972691329166, 150.088374428391,Ni43Fe5Cr50,"# generated using pymatgen
 data_Cr28Fe3Ni23
_symmetry_space_group_name_H-M   'P 1'
_cell_length_a   7.51471840
_cell_length_b   7.51471840
_cell_length_c   10.62741668
_cell_angle_alpha   90.00000000
_cell_angle_beta   90.00000000
_cell_angle_gamma   90.00000000
_symmetry_Int_Tables_number   1
_chemical_formula_structural   Cr28Fe3Ni23
_chemical_formula_sum   'Cr28 Fe3 Ni23'
_cell_volume   600.14076834
_cell_formula_units_Z   1
loop_
 _symmetry_equiv_pos_site_id
 _symmetry_equiv_pos_as_xyz
  1  'x, y, z'
loop_
 _atom_site_type_symbol
 _atom_site_label
 _atom_site_symmetry_multiplicity
 _atom_site_fract_x
 _atom_site_fract_y
 _atom_site_fract_z
 _atom_site_occupancy
  Cr  Cr0  1  -0.00165783  -0.00257506  0.99581692  1
  Cr  Cr1  1  0.16637569  0.16325615  0.16743877  1
  Fe  Fe2  1  -0.00271943  0.99622550  0.33243197  1
  Cr  Cr3  1  -0.00253250  0.32994270  -0.00080056  1
  Cr  Cr4  1  0.16086705  0.49774148  0.16351434  1
  Ni  Ni5  1  0.99560360  0.33257007  0.33322324  1
  Ni  Ni6  1  -0.00277591  0.66359527  0.99593088  1
  Cr  Cr7  1  0.16445375  0.83001942  0.16367505  1
  Ni  Ni8  1  0.99504773  0.66025380  0.33309275  1
  Ni  Ni9  1  0.33210573  0.99671271  0.99568850  1
  Cr  Cr10  1  0.49675341  0.16231632  0.16365006  1
  Ni  Ni11  1  0.33151824  0.99598142  0.33215835  1
  Ni  Ni12  1  0.33264649  0.32906656  0.99583732  1
  Ni  Ni13  1  0.49860216  0.49543560  0.16393382  1
  Cr  Cr14  1  0.32897114  0.33228175  0.33183324  1
  Cr  Cr15  1  0.33195241  0.66250173  -0.00045236  1
  Ni  Ni16  1  0.49701341  0.83296150  0.16544608  1
  Cr  Cr17  1  0.33141678  0.66323069  0.33005623  1
  Ni  Ni18  1  0.65922085  0.99600530  0.99674560  1
  Cr  Cr19  1  0.82754178  0.16362778  0.16867875  1
  Ni  Ni20  1  0.66176086  0.99452537  0.33183341  1
  Cr  Cr21  1  0.66241144  0.33105107  -0.00255442  1
  Ni  Ni22  1  0.83033593  0.49798508  0.16682382  1
  Ni  Ni23  1  0.66555769  0.33203246  0.33043283  1
  Cr  Cr24  1  0.66215962  0.66205851  -0.00071532  1
  Cr  Cr25  1  0.83012299  0.82871680  0.16432841  1
  Cr  Cr26  1  0.66114064  0.66172633  0.33167082  1
  Ni  Ni27  1  0.16479660  0.16464868  0.49585615  1
  Cr  Cr28  1  -0.00135025  -0.00064842  0.66247551  1
  Cr  Cr29  1  0.16717531  0.16565527  0.82841778  1
  Ni  Ni30  1  0.16218824  0.49510972  0.49785556  1
  Ni  Ni31  1  -0.00010858  0.33228115  0.65870618  1
  Cr  Cr32  1  0.16423328  0.49989563  0.82835115  1
  Cr  Cr33  1  0.16387547  0.82969617  0.49562770  1
  Fe  Fe34  1  -0.00146303  0.66360835  0.66015988  1
  Ni  Ni35  1  0.16542037  0.83002253  0.83039044  1
  Cr  Cr36  1  0.49465693  0.16308184  0.49720369  1
  Ni  Ni37  1  0.32838205  -0.00185571  0.66347994  1
  Ni  Ni38  1  0.49233745  0.16446469  0.83063453  1
  Ni  Ni39  1  0.49673509  0.49390749  0.49659246  1
  Ni  Ni40  1  0.32818884  0.33005679  0.66203678  1
  Ni  Ni41  1  0.49432264  0.49325768  0.82951421  1
  Fe  Fe42  1  0.49688142  0.83128117  0.49506182  1
  Cr  Cr43  1  0.33247453  0.66292586  0.66003623  1
  Cr  Cr44  1  0.49531954  0.83177602  0.82981995  1
  Cr  Cr45  1  0.82936972  0.16451989  0.49306925  1
  Cr  Cr46  1  0.66276796  0.99522270  0.66316247  1
  Cr  Cr47  1  0.82510409  0.16370361  0.83045684  1
  Ni  Ni48  1  0.83195912  0.49833612  0.49565478  1
  Cr  Cr49  1  0.66271041  0.33212183  0.66382090  1
  Cr  Cr50  1  0.83223997  0.49840448  0.82780693  1
  Ni  Ni51  1  0.83100744  0.82805163  0.49445013  1
  Cr  Cr52  1  0.66302052  0.66265379  0.65811759  1
  Cr  Cr53  1  0.83258241  0.82729598  0.83024396  1
" 