2758,Ni43Fe27Cr29_2,-228.156523930496, 182.907399639889,Ni43Fe27Cr29,"# generated using pymatgen
 data_Cr17Fe14Ni23
_symmetry_space_group_name_H-M   'P 1'
_cell_length_a   7.46289346
_cell_length_b   7.46289346
_cell_length_c   10.55412514
_cell_angle_alpha   90.00000000
_cell_angle_beta   90.00000000
_cell_angle_gamma   90.00000000
_symmetry_Int_Tables_number   1
_chemical_formula_structural   Cr17Fe14Ni23
_chemical_formula_sum   'Cr17 Fe14 Ni23'
_cell_volume   587.80966473
_cell_formula_units_Z   1
loop_
 _symmetry_equiv_pos_site_id
 _symmetry_equiv_pos_as_xyz
  1  'x, y, z'
loop_
 _atom_site_type_symbol
 _atom_site_label
 _atom_site_symmetry_multiplicity
 _atom_site_fract_x
 _atom_site_fract_y
 _atom_site_fract_z
 _atom_site_occupancy
  Ni  Ni0  1  0.00057250  0.99804692  1.00004596  1
  Cr  Cr1  1  0.16589430  0.16618574  0.16578449  1
  Ni  Ni2  1  0.99979816  0.00120370  0.33422131  1
  Ni  Ni3  1  0.99887455  0.33484293  0.00056244  1
  Fe  Fe4  1  0.16718837  0.50120724  0.16679387  1
  Ni  Ni5  1  0.99972218  0.33127155  0.33406429  1
  Ni  Ni6  1  0.99974978  0.66773924  0.00214874  1
  Ni  Ni7  1  0.16494480  0.83295207  0.16696102  1
  Cr  Cr8  1  0.00280913  0.66850969  0.33380814  1
  Cr  Cr9  1  0.33427934  0.99820728  0.99893448  1
  Ni  Ni10  1  0.50123117  0.16781847  0.16910683  1
  Fe  Fe11  1  0.33087237  0.99803814  0.33321915  1
  Fe  Fe12  1  0.33224149  0.33517907  0.00178282  1
  Ni  Ni13  1  0.49840685  0.49955394  0.16642642  1
  Fe  Fe14  1  0.33095908  0.33508156  0.33253884  1
  Fe  Fe15  1  0.33278527  0.66624540  0.00190023  1
  Fe  Fe16  1  0.49914448  0.83419954  0.16715374  1
  Ni  Ni17  1  0.33428343  0.66811596  0.33197423  1
  Fe  Fe18  1  0.66911596  0.99813074  0.00173920  1
  Fe  Fe19  1  0.83425565  0.16517463  0.16775164  1
  Fe  Fe20  1  0.66938328  0.99958388  0.33257869  1
  Cr  Cr21  1  0.66602010  0.33447891  0.00191995  1
  Fe  Fe22  1  0.83549941  0.50051233  0.16633535  1
  Fe  Fe23  1  0.66861699  0.33294045  0.33102783  1
  Fe  Fe24  1  0.66825352  0.66830901  0.00078141  1
  Ni  Ni25  1  0.83521887  0.83503284  0.16510660  1
  Cr  Cr26  1  0.66629229  0.66753984  0.33345241  1
  Ni  Ni27  1  0.16549576  0.16668248  0.50065599  1
  Cr  Cr28  1  0.00324853  1.00018972  0.66639274  1
  Fe  Fe29  1  0.16526543  0.16541249  0.83441007  1
  Ni  Ni30  1  0.16717111  0.49839858  0.49700409  1
  Ni  Ni31  1  0.00045313  0.33301251  0.66619044  1
  Cr  Cr32  1  0.16510139  0.50022135  0.83633092  1
  Ni  Ni33  1  0.16830643  0.83570460  0.49769015  1
  Cr  Cr34  1  0.00030706  0.66784232  0.66485045  1
  Ni  Ni35  1  0.16604929  0.83393031  0.83523913  1
  Cr  Cr36  1  0.49955662  0.16567364  0.49723340  1
  Ni  Ni37  1  0.33280745  0.99775140  0.66639191  1
  Cr  Cr38  1  0.49827071  0.16650625  0.83397726  1
  Cr  Cr39  1  0.49869698  0.50155596  0.50072654  1
  Cr  Cr40  1  0.33061215  0.33194866  0.66840229  1
  Ni  Ni41  1  0.50160097  0.50358819  0.83528899  1
  Ni  Ni42  1  0.49904330  0.83465565  0.49868641  1
  Cr  Cr43  1  0.33359912  0.67060164  0.66631554  1
  Ni  Ni44  1  0.50098542  0.83100733  0.83514355  1
  Ni  Ni45  1  0.83623437  0.16592505  0.49650176  1
  Cr  Cr46  1  0.66653665  0.99780771  0.66651467  1
  Cr  Cr47  1  0.83658491  0.16614366  0.83533672  1
  Cr  Cr48  1  0.83478598  0.49967654  0.50149779  1
  Cr  Cr49  1  0.66957593  0.33523854  0.66716768  1
  Ni  Ni50  1  0.83359577  0.50307591  0.83439751  1
  Ni  Ni51  1  0.83342315  0.83625866  0.50005897  1
  Fe  Fe52  1  0.66715637  0.66937712  0.66868786  1
  Ni  Ni53  1  0.83415205  0.83074197  0.83581639  1
" 