3675,Ni43Fe25Cr31_4,-227.838392673757, 184.584665177472,Ni43Fe25Cr31,"# generated using pymatgen
 data_Cr18Fe13Ni23
_symmetry_space_group_name_H-M   'P 1'
_cell_length_a   7.47242343
_cell_length_b   7.47242343
_cell_length_c   10.56760256
_cell_angle_alpha   90.00000000
_cell_angle_beta   90.00000000
_cell_angle_gamma   90.00000000
_symmetry_Int_Tables_number   1
_chemical_formula_structural   Cr18Fe13Ni23
_chemical_formula_sum   'Cr18 Fe13 Ni23'
_cell_volume   590.06440760
_cell_formula_units_Z   1
loop_
 _symmetry_equiv_pos_site_id
 _symmetry_equiv_pos_as_xyz
  1  'x, y, z'
loop_
 _atom_site_type_symbol
 _atom_site_label
 _atom_site_symmetry_multiplicity
 _atom_site_fract_x
 _atom_site_fract_y
 _atom_site_fract_z
 _atom_site_occupancy
  Ni  Ni0  1  0.00178779  -0.00034376  0.00102617  1
  Ni  Ni1  1  0.16591395  0.16322536  0.16574999  1
  Cr  Cr2  1  0.00226177  0.99927837  0.33292026  1
  Ni  Ni3  1  -0.00017225  0.33219248  0.99666602  1
  Cr  Cr4  1  0.16580992  0.49719934  0.16391148  1
  Cr  Cr5  1  0.00001723  0.33023671  0.33434155  1
  Ni  Ni6  1  0.00118097  0.66754664  0.99868206  1
  Ni  Ni7  1  0.16891158  0.83549636  0.16285448  1
  Cr  Cr8  1  0.00042430  0.66907142  0.33471466  1
  Ni  Ni9  1  0.33236867  0.99844134  0.99848299  1
  Cr  Cr10  1  0.49525422  0.16425564  0.16635876  1
  Ni  Ni11  1  0.33174618  0.00028164  0.33360665  1
  Cr  Cr12  1  0.33298059  0.33252394  0.99730922  1
  Fe  Fe13  1  0.49774304  0.50125246  0.16530513  1
  Fe  Fe14  1  0.33102926  0.33023297  0.33486864  1
  Fe  Fe15  1  0.33215875  0.66972534  0.99697573  1
  Fe  Fe16  1  0.49842471  0.83319855  0.16343931  1
  Cr  Cr17  1  0.33111061  0.66847152  0.33326165  1
  Ni  Ni18  1  0.66544612  0.99889832  0.99925668  1
  Ni  Ni19  1  0.83462227  0.16552457  0.16179775  1
  Cr  Cr20  1  0.66637837  0.00010870  0.33220596  1
  Cr  Cr21  1  0.66629319  0.33183408  0.99674625  1
  Cr  Cr22  1  0.83289480  0.50166681  0.16459134  1
  Cr  Cr23  1  0.66525385  0.33188947  0.33150352  1
  Fe  Fe24  1  0.66605702  0.66808444  0.99798016  1
  Fe  Fe25  1  0.83462861  0.83554121  0.16284955  1
  Ni  Ni26  1  0.66384686  0.66726291  0.32811549  1
  Fe  Fe27  1  0.16856502  0.16616711  0.50185464  1
  Ni  Ni28  1  0.00021055  0.00230624  0.66600862  1
  Ni  Ni29  1  0.16657905  0.16662498  0.83411612  1
  Ni  Ni30  1  0.16765971  0.49636707  0.50291714  1
  Fe  Fe31  1  0.00044865  0.33140062  0.66945275  1
  Fe  Fe32  1  0.16537182  0.50076546  0.83293921  1
  Ni  Ni33  1  0.16776610  0.83449513  0.50172463  1
  Cr  Cr34  1  0.00468479  0.66830143  0.66596819  1
  Ni  Ni35  1  0.16785075  0.83584871  0.83469175  1
  Ni  Ni36  1  0.49785123  0.16684672  0.50130336  1
  Cr  Cr37  1  0.33155236  0.99805464  0.66796559  1
  Fe  Fe38  1  0.49929438  0.16316790  0.83167913  1
  Cr  Cr39  1  0.49963826  0.49862880  0.49953520  1
  Ni  Ni40  1  0.33388217  0.33323457  0.66675635  1
  Fe  Fe41  1  0.49855199  0.50118980  0.83035263  1
  Cr  Cr42  1  0.50017677  0.83481694  0.50231301  1
  Ni  Ni43  1  0.33252792  0.66425928  0.66894502  1
  Ni  Ni44  1  0.49912825  0.83347389  0.83335966  1
  Fe  Fe45  1  0.83236357  0.16619555  0.50317115  1
  Ni  Ni46  1  0.66705160  0.00353766  0.66784694  1
  Fe  Fe47  1  0.83568976  0.16364188  0.83361921  1
  Cr  Cr48  1  0.83247883  0.49972215  0.50193685  1
  Ni  Ni49  1  0.66558537  0.33049180  0.66905029  1
  Ni  Ni50  1  0.83283988  0.49778345  0.83254379  1
  Cr  Cr51  1  0.83067835  0.83277565  0.50248451  1
  Ni  Ni52  1  0.66450796  0.66449029  0.66948870  1
  Cr  Cr53  1  0.83326814  0.83289108  0.83302969  1
" 