1437,Ni43Fe57_11,-241.846289493735, 227.730143007666,Ni43Fe57,"# generated using pymatgen
 data_Fe23Ni31
_symmetry_space_group_name_H-M   'P 1'
_cell_length_a   7.39833594
_cell_length_b   7.39833594
_cell_length_c   10.46282703
_cell_angle_alpha   90.00000000
_cell_angle_beta   90.00000000
_cell_angle_gamma   90.00000000
_symmetry_Int_Tables_number   1
_chemical_formula_structural   Fe23Ni31
_chemical_formula_sum   'Fe23 Ni31'
_cell_volume   572.68675795
_cell_formula_units_Z   1
loop_
 _symmetry_equiv_pos_site_id
 _symmetry_equiv_pos_as_xyz
  1  'x, y, z'
loop_
 _atom_site_type_symbol
 _atom_site_label
 _atom_site_symmetry_multiplicity
 _atom_site_fract_x
 _atom_site_fract_y
 _atom_site_fract_z
 _atom_site_occupancy
  Ni  Ni0  1  0.00482150  0.00546059  0.00473125  1
  Fe  Fe1  1  0.17191339  0.17029279  0.17110598  1
  Fe  Fe2  1  0.00490906  1.00347680  0.33779059  1
  Fe  Fe3  1  0.00485012  0.33769917  1.00374257  1
  Fe  Fe4  1  0.17192917  0.50559995  0.17112160  1
  Fe  Fe5  1  0.00471433  0.33899059  0.33901414  1
  Ni  Ni6  1  1.00447516  0.67126629  1.00453244  1
  Ni  Ni7  1  0.17058320  0.83708298  0.17041118  1
  Ni  Ni8  1  1.00401045  0.67151828  0.33843556  1
  Ni  Ni9  1  0.33790172  0.00510870  0.00563465  1
  Ni  Ni10  1  0.50516332  0.17213055  0.17061303  1
  Fe  Fe11  1  0.33790222  1.00384469  0.33819969  1
  Fe  Fe12  1  0.33838980  0.33798289  0.00470211  1
  Ni  Ni13  1  0.50435413  0.50470890  0.17090872  1
  Ni  Ni14  1  0.33780544  0.33723630  0.33893466  1
  Ni  Ni15  1  0.33825087  0.67161408  0.00533391  1
  Ni  Ni16  1  0.50436784  0.83709218  0.17095850  1
  Ni  Ni17  1  0.33815231  0.67106710  0.33789013  1
  Ni  Ni18  1  0.67120941  0.00510417  1.00448306  1
  Ni  Ni19  1  0.83747695  0.17062200  0.17111204  1
  Fe  Fe20  1  0.67112183  1.00411682  0.33722558  1
  Fe  Fe21  1  0.67069064  0.33762705  1.00437946  1
  Fe  Fe22  1  0.83709225  0.50586641  0.17185493  1
  Fe  Fe23  1  0.67074683  0.33891879  0.33844939  1
  Ni  Ni24  1  0.67120434  0.67127035  0.00518162  1
  Ni  Ni25  1  0.83898018  0.83789474  0.17135642  1
  Ni  Ni26  1  0.67176753  0.67152083  0.33778801  1
  Ni  Ni27  1  0.17196333  0.17079249  0.50470653  1
  Fe  Fe28  1  0.00479380  0.00479039  0.67101277  1
  Ni  Ni29  1  0.17190019  0.17144945  0.83826324  1
  Fe  Fe30  1  0.17040709  0.50430376  0.50476173  1
  Ni  Ni31  1  1.00368114  0.33691591  0.67060798  1
  Ni  Ni32  1  0.17189999  0.50501425  0.83761497  1
  Ni  Ni33  1  0.17046541  0.83760335  0.50535352  1
  Fe  Fe34  1  1.00456820  0.67089358  0.67082354  1
  Fe  Fe35  1  0.17281662  0.83798178  0.83839443  1
  Ni  Ni36  1  0.50436358  0.17230260  0.50500500  1
  Ni  Ni37  1  0.33742797  0.00471800  0.67086004  1
  Ni  Ni38  1  0.50423460  0.17215014  0.83831467  1
  Fe  Fe39  1  0.50520804  0.50472002  0.50457002  1
  Fe  Fe40  1  0.33852320  0.33796005  0.67140084  1
  Ni  Ni41  1  0.50423720  0.50431537  0.83776899  1
  Fe  Fe42  1  0.50491054  0.83832092  0.50460289  1
  Ni  Ni43  1  0.33858235  0.67230509  0.67070463  1
  Fe  Fe44  1  0.50341953  0.83769771  0.83850815  1
  Ni  Ni45  1  0.83760373  0.17159733  0.50544620  1
  Fe  Fe46  1  0.67089384  0.00512880  0.67129343  1
  Fe  Fe47  1  0.83812669  0.17247504  0.83805227  1
  Ni  Ni48  1  0.83760091  0.50552654  0.50480645  1
  Ni  Ni49  1  0.67282984  0.33807245  0.67070847  1
  Fe  Fe50  1  0.83784283  0.50376089  0.83707351  1
  Ni  Ni51  1  0.83910393  0.83680608  0.50450597  1
  Ni  Ni52  1  0.67087817  0.67034975  0.67096145  1
  Fe  Fe53  1  0.83769439  0.83769539  0.83874825  1
" 