4211,Ni43Fe57_3,-242.379786703828, 227.638148053766,Ni43Fe57,"# generated using pymatgen
 data_Fe23Ni31
_symmetry_space_group_name_H-M   'P 1'
_cell_length_a   7.40246001
_cell_length_b   7.40246001
_cell_length_c   10.46865934
_cell_angle_alpha   90.00000000
_cell_angle_beta   90.00000000
_cell_angle_gamma   90.00000000
_symmetry_Int_Tables_number   1
_chemical_formula_structural   Fe23Ni31
_chemical_formula_sum   'Fe23 Ni31'
_cell_volume   573.64499356
_cell_formula_units_Z   1
loop_
 _symmetry_equiv_pos_site_id
 _symmetry_equiv_pos_as_xyz
  1  'x, y, z'
loop_
 _atom_site_type_symbol
 _atom_site_label
 _atom_site_symmetry_multiplicity
 _atom_site_fract_x
 _atom_site_fract_y
 _atom_site_fract_z
 _atom_site_occupancy
  Ni  Ni0  1  0.00591354  1.00414752  0.00454569  1
  Ni  Ni1  1  0.17138471  0.17101968  0.17055921  1
  Ni  Ni2  1  0.00600503  0.00489249  0.33833544  1
  Fe  Fe3  1  0.00443697  0.33725169  1.00428417  1
  Ni  Ni4  1  0.17293906  0.50335180  0.17009994  1
  Ni  Ni5  1  1.00328546  0.33735319  0.33650069  1
  Fe  Fe6  1  0.00441424  0.67157722  0.00451470  1
  Ni  Ni7  1  0.17053818  0.83870923  0.17195230  1
  Fe  Fe8  1  0.00436274  0.67095290  0.33746921  1
  Ni  Ni9  1  0.33575140  1.00426742  1.00428439  1
  Fe  Fe10  1  0.50307086  0.17126981  0.17073438  1
  Ni  Ni11  1  0.33608008  1.00333498  0.33778198  1
  Ni  Ni12  1  0.33816645  0.33760307  0.00489359  1
  Ni  Ni13  1  0.50368561  0.50370007  0.17159427  1
  Fe  Fe14  1  0.33654351  0.33704814  0.33675826  1
  Fe  Fe15  1  0.33792130  0.67058620  1.00416239  1
  Fe  Fe16  1  0.50300722  0.83739466  0.17152941  1
  Fe  Fe17  1  0.33698416  0.67059762  0.33797449  1
  Fe  Fe18  1  0.67127182  0.00471058  1.00365384  1
  Fe  Fe19  1  0.83884329  0.17137834  0.17131752  1
  Fe  Fe20  1  0.67196038  0.00486403  0.33877594  1
  Ni  Ni21  1  0.67091999  0.34035013  1.00397851  1
  Fe  Fe22  1  0.83809105  0.50444921  0.17110104  1
  Ni  Ni23  1  0.67219051  0.33962593  0.33818374  1
  Ni  Ni24  1  0.67104399  0.66930420  0.00465231  1
  Ni  Ni25  1  0.83768209  0.83871533  0.17076569  1
  Fe  Fe26  1  0.67174077  0.67139037  0.33783610  1
  Ni  Ni27  1  0.17085840  0.17169133  0.50465007  1
  Ni  Ni28  1  0.00479770  0.00551064  0.67021108  1
  Fe  Fe29  1  0.17009786  0.17057307  0.83777194  1
  Ni  Ni30  1  0.17157384  0.50289535  0.50465703  1
  Ni  Ni31  1  1.00371178  0.33715417  0.67133109  1
  Fe  Fe32  1  0.17026174  0.50458394  0.83732339  1
  Fe  Fe33  1  0.17056836  0.83834490  0.50458692  1
  Fe  Fe34  1  1.00407270  0.67193241  0.67110343  1
  Ni  Ni35  1  0.17105003  0.83861717  0.83720330  1
  Fe  Fe36  1  0.50485070  0.17048909  0.50420988  1
  Ni  Ni37  1  0.33689927  1.00310947  0.67102131  1
  Fe  Fe38  1  0.50506770  0.17082883  0.83814732  1
  Fe  Fe39  1  0.50514756  0.50467942  0.50450575  1
  Fe  Fe40  1  0.33745328  0.33756663  0.67138152  1
  Ni  Ni41  1  0.50451071  0.50398672  0.83695310  1
  Ni  Ni42  1  0.50506947  0.83778352  0.50454795  1
  Ni  Ni43  1  0.33916402  0.67163508  0.67138031  1
  Fe  Fe44  1  0.50527426  0.83717318  0.83646953  1
  Ni  Ni45  1  0.83834608  0.17050303  0.50423570  1
  Ni  Ni46  1  0.67139157  1.00310907  0.67112337  1
  Ni  Ni47  1  0.83752235  0.17048319  0.83782583  1
  Ni  Ni48  1  0.83763508  0.50408691  0.50433958  1
  Fe  Fe49  1  0.67156089  0.33733759  0.67139656  1
  Ni  Ni50  1  0.83595471  0.50399844  0.83807987  1
  Ni  Ni51  1  0.83630332  0.83850422  0.50526472  1
  Ni  Ni52  1  0.67020698  0.67054957  0.67056064  1
  Ni  Ni53  1  0.83799440  0.83860637  0.83705875  1
" 