6852,Ni43Fe34Cr21_17,-231.16027059745, 190.951749832985,Ni43Fe34Cr21,"# generated using pymatgen
 data_Cr13Fe18Ni23
_symmetry_space_group_name_H-M   'P 1'
_cell_length_a   7.44635913
_cell_length_b   7.44635913
_cell_length_c   10.53074208
_cell_angle_alpha   90.00000000
_cell_angle_beta   90.00000000
_cell_angle_gamma   90.00000000
_symmetry_Int_Tables_number   1
_chemical_formula_structural   Cr13Fe18Ni23
_chemical_formula_sum   'Cr13 Fe18 Ni23'
_cell_volume   583.91137061
_cell_formula_units_Z   1
loop_
 _symmetry_equiv_pos_site_id
 _symmetry_equiv_pos_as_xyz
  1  'x, y, z'
loop_
 _atom_site_type_symbol
 _atom_site_label
 _atom_site_symmetry_multiplicity
 _atom_site_fract_x
 _atom_site_fract_y
 _atom_site_fract_z
 _atom_site_occupancy
  Cr  Cr0  1  0.00382362  0.99748501  0.00315196  1
  Fe  Fe1  1  0.16937488  0.16694756  0.16735671  1
  Fe  Fe2  1  1.00014343  0.99788333  0.33550459  1
  Cr  Cr3  1  0.00375589  0.33692761  0.00239879  1
  Ni  Ni4  1  0.16898860  0.50404764  0.16824357  1
  Fe  Fe5  1  1.00072505  0.33749603  0.33427423  1
  Fe  Fe6  1  1.00020952  0.66928113  0.00298871  1
  Ni  Ni7  1  0.16863755  0.83145688  0.16850656  1
  Ni  Ni8  1  0.00256120  0.66869561  0.33431925  1
  Ni  Ni9  1  0.33312874  0.00162803  0.99943059  1
  Ni  Ni10  1  0.49971674  0.16816288  0.16837124  1
  Cr  Cr11  1  0.33230713  1.00044340  0.33635821  1
  Fe  Fe12  1  0.33511344  0.33381186  0.00173876  1
  Fe  Fe13  1  0.50224328  0.50380614  0.16896849  1
  Cr  Cr14  1  0.33444678  0.33539356  0.33430976  1
  Fe  Fe15  1  0.33406102  0.66892529  1.00057010  1
  Cr  Cr16  1  0.50037521  0.83377893  0.16915698  1
  Fe  Fe17  1  0.33502553  0.66787521  0.33674108  1
  Cr  Cr18  1  0.66612838  0.99875035  0.99930447  1
  Cr  Cr19  1  0.83311220  0.16757515  0.17110339  1
  Ni  Ni20  1  0.66731927  1.00041783  0.33581140  1
  Cr  Cr21  1  0.66550799  0.33724164  0.00263803  1
  Ni  Ni22  1  0.83615338  0.50359728  0.17060462  1
  Ni  Ni23  1  0.66690191  0.33688322  0.33383653  1
  Ni  Ni24  1  0.66870535  0.66779875  1.00104489  1
  Ni  Ni25  1  0.83549058  0.83144770  0.17091298  1
  Ni  Ni26  1  0.67081867  0.66734279  0.33649524  1
  Fe  Fe27  1  0.16983738  0.16748467  0.50452417  1
  Ni  Ni28  1  0.00411069  0.99912315  0.66755227  1
  Ni  Ni29  1  0.17087414  0.16846369  0.83236639  1
  Fe  Fe30  1  0.16633894  0.50324502  0.50016903  1
  Fe  Fe31  1  0.00359177  0.33638156  0.66730252  1
  Fe  Fe32  1  0.17038361  0.50204587  0.83502267  1
  Ni  Ni33  1  0.16732872  0.83393360  0.50121117  1
  Ni  Ni34  1  0.00283993  0.66959321  0.66853728  1
  Fe  Fe35  1  0.16886364  0.83517636  0.83389550  1
  Fe  Fe36  1  0.50172229  0.16635241  0.50127885  1
  Fe  Fe37  1  0.33567599  0.99960422  0.66746883  1
  Ni  Ni38  1  0.49640906  0.16729207  0.83244015  1
  Ni  Ni39  1  0.50170146  0.50301000  0.49897366  1
  Fe  Fe40  1  0.33335203  0.33503235  0.66697133  1
  Ni  Ni41  1  0.49880877  0.50324037  0.83668195  1
  Ni  Ni42  1  0.50155567  0.83306956  0.50142673  1
  Cr  Cr43  1  0.33545464  0.66669064  0.66602957  1
  Ni  Ni44  1  0.50073929  0.83317630  0.83355132  1
  Cr  Cr45  1  0.83576778  0.16918014  0.50102065  1
  Ni  Ni46  1  0.66740074  0.99934039  0.66836033  1
  Cr  Cr47  1  0.83643063  0.16608243  0.83250122  1
  Fe  Fe48  1  0.83486999  0.50529112  0.50083930  1
  Cr  Cr49  1  0.66318346  0.33777600  0.66802831  1
  Cr  Cr50  1  0.83551389  0.50409731  0.83305050  1
  Fe  Fe51  1  0.83433265  0.83315836  0.50237801  1
  Ni  Ni52  1  0.66828861  0.66950336  0.66731702  1
  Ni  Ni53  1  0.83486390  0.83257005  0.83197519  1
" 