6937,Ni43Fe25Cr31_8,-227.689312154209, 182.958389914478,Ni43Fe25Cr31,"# generated using pymatgen
 data_Cr18Fe13Ni23
_symmetry_space_group_name_H-M   'P 1'
_cell_length_a   7.46739428
_cell_length_b   7.46739428
_cell_length_c   10.56049026
_cell_angle_alpha   90.00000000
_cell_angle_beta   90.00000000
_cell_angle_gamma   90.00000000
_symmetry_Int_Tables_number   1
_chemical_formula_structural   Cr18Fe13Ni23
_chemical_formula_sum   'Cr18 Fe13 Ni23'
_cell_volume   588.87381823
_cell_formula_units_Z   1
loop_
 _symmetry_equiv_pos_site_id
 _symmetry_equiv_pos_as_xyz
  1  'x, y, z'
loop_
 _atom_site_type_symbol
 _atom_site_label
 _atom_site_symmetry_multiplicity
 _atom_site_fract_x
 _atom_site_fract_y
 _atom_site_fract_z
 _atom_site_occupancy
  Cr  Cr0  1  0.99831677  0.99787007  0.99806762  1
  Cr  Cr1  1  0.16979931  0.16986133  0.16702856  1
  Cr  Cr2  1  0.00108538  0.00133191  0.33477025  1
  Fe  Fe3  1  0.00144876  0.33487391  0.00013561  1
  Fe  Fe4  1  0.16686318  0.49784773  0.16734409  1
  Ni  Ni5  1  0.00137477  0.33481662  0.33404559  1
  Fe  Fe6  1  0.00019489  0.66656861  0.99992258  1
  Cr  Cr7  1  0.16724544  0.83186789  0.16671889  1
  Cr  Cr8  1  0.99820676  0.66507524  0.33263569  1
  Ni  Ni9  1  0.33510816  0.00172814  0.99900453  1
  Ni  Ni10  1  0.49935682  0.16803914  0.16688837  1
  Fe  Fe11  1  0.33495582  0.00289929  0.33335137  1
  Ni  Ni12  1  0.33345665  0.33322511  0.99992551  1
  Fe  Fe13  1  0.49962587  0.49737825  0.16907175  1
  Ni  Ni14  1  0.33394368  0.33428458  0.33342945  1
  Cr  Cr15  1  0.33306499  0.66521237  0.99785483  1
  Cr  Cr16  1  0.50135792  0.83516163  0.16906880  1
  Fe  Fe17  1  0.33483458  0.66178537  0.33377147  1
  Ni  Ni18  1  0.66612195  0.99959937  0.99820152  1
  Cr  Cr19  1  0.83105453  0.16795925  0.16669257  1
  Fe  Fe20  1  0.66585047  0.00099934  0.33081703  1
  Cr  Cr21  1  0.66364431  0.33194947  0.99913332  1
  Fe  Fe22  1  0.83330604  0.50045875  0.16801806  1
  Ni  Ni23  1  0.66461969  0.33708761  0.33289398  1
  Cr  Cr24  1  0.66758867  0.66839032  0.00069026  1
  Ni  Ni25  1  0.83147235  0.83072366  0.16622290  1
  Ni  Ni26  1  0.66586449  0.66396096  0.33222880  1
  Ni  Ni27  1  0.16748584  0.16955871  0.49889215  1
  Ni  Ni28  1  0.00111920  0.99785337  0.66782400  1
  Cr  Cr29  1  0.16838380  0.16682050  0.83398127  1
  Ni  Ni30  1  0.16853616  0.49765768  0.49958552  1
  Cr  Cr31  1  0.00091712  0.33181168  0.66429862  1
  Fe  Fe32  1  0.16892215  0.50107324  0.83288462  1
  Cr  Cr33  1  0.16837300  0.83344655  0.50136543  1
  Fe  Fe34  1  0.00092458  0.66754675  0.66745173  1
  Ni  Ni35  1  0.16665280  0.83200977  0.83183475  1
  Cr  Cr36  1  0.49887278  0.16872410  0.49985186  1
  Ni  Ni37  1  0.33135669  0.99988056  0.66813843  1
  Ni  Ni38  1  0.50052454  0.16632597  0.83360567  1
  Ni  Ni39  1  0.49948644  0.49980140  0.49943661  1
  Ni  Ni40  1  0.33541440  0.33439312  0.66659038  1
  Ni  Ni41  1  0.49822824  0.49912863  0.83084577  1
  Cr  Cr42  1  0.50014241  0.83102102  0.49924268  1
  Fe  Fe43  1  0.33407943  0.66482766  0.66829056  1
  Ni  Ni44  1  0.49976415  0.83450637  0.83203678  1
  Cr  Cr45  1  0.83357574  0.16870090  0.50043720  1
  Fe  Fe46  1  0.66627568  0.00084195  0.67088540  1
  Ni  Ni47  1  0.83088100  0.16457189  0.83279663  1
  Fe  Fe48  1  0.83134650  0.49939878  0.49969793  1
  Ni  Ni49  1  0.66362782  0.33607660  0.66721930  1
  Cr  Cr50  1  0.83352591  0.49994070  0.83246757  1
  Cr  Cr51  1  0.83149406  0.83204689  0.50168704  1
  Ni  Ni52  1  0.66555641  0.66547227  0.66701544  1
  Ni  Ni53  1  0.83351745  0.83435356  0.83244976  1
" 