1900,Ni43Fe5Cr50_4,-218.37231745045, 132.037223205428,Ni43Fe5Cr50,"# generated using pymatgen
 data_Cr28Fe3Ni23
_symmetry_space_group_name_H-M   'P 1'
_cell_length_a   7.52834514
_cell_length_b   7.52834514
_cell_length_c   10.64668779
_cell_angle_alpha   90.00000000
_cell_angle_beta   90.00000000
_cell_angle_gamma   90.00000000
_symmetry_Int_Tables_number   1
_chemical_formula_structural   Cr28Fe3Ni23
_chemical_formula_sum   'Cr28 Fe3 Ni23'
_cell_volume   603.41146984
_cell_formula_units_Z   1
loop_
 _symmetry_equiv_pos_site_id
 _symmetry_equiv_pos_as_xyz
  1  'x, y, z'
loop_
 _atom_site_type_symbol
 _atom_site_label
 _atom_site_symmetry_multiplicity
 _atom_site_fract_x
 _atom_site_fract_y
 _atom_site_fract_z
 _atom_site_occupancy
  Cr  Cr0  1  0.99529796  -0.00084709  -0.00329987  1
  Ni  Ni1  1  0.15733641  0.16347065  0.16464193  1
  Ni  Ni2  1  0.99439249  -0.00008629  0.32955767  1
  Ni  Ni3  1  0.99349583  0.32896845  -0.00159790  1
  Ni  Ni4  1  0.15924269  0.49510858  0.16081247  1
  Ni  Ni5  1  0.99482110  0.32619813  0.32794767  1
  Cr  Cr6  1  -0.00102471  0.65947510  -0.00230024  1
  Ni  Ni7  1  0.16388680  0.82916697  0.16259224  1
  Cr  Cr8  1  0.99463929  0.66089132  0.32763124  1
  Cr  Cr9  1  0.33131990  0.99365908  -0.00243397  1
  Cr  Cr10  1  0.49933887  0.16063997  0.16147254  1
  Cr  Cr11  1  0.32807089  0.99555660  0.32695357  1
  Cr  Cr12  1  0.32844275  0.33042252  0.99531178  1
  Cr  Cr13  1  0.49664840  0.49651497  0.16206151  1
  Cr  Cr14  1  0.32588398  0.32878161  0.32969724  1
  Ni  Ni15  1  0.32974826  0.66269422  0.99580163  1
  Ni  Ni16  1  0.49477840  0.83015341  0.16153167  1
  Cr  Cr17  1  0.33076200  0.66344648  0.32683289  1
  Ni  Ni18  1  0.66158617  -0.00111332  0.99454171  1
  Ni  Ni19  1  0.83171118  0.16451696  0.16258183  1
  Ni  Ni20  1  0.66528789  0.99486720  0.32985296  1
  Ni  Ni21  1  0.66563897  0.32650843  0.99456892  1
  Ni  Ni22  1  0.83277359  0.49113333  0.16186683  1
  Cr  Cr23  1  0.66609133  0.33031188  0.33002685  1
  Cr  Cr24  1  0.65990035  0.66238560  -0.00356970  1
  Cr  Cr25  1  0.82829436  0.83160083  0.16344795  1
  Cr  Cr26  1  0.66226087  0.66302710  0.33197658  1
  Ni  Ni27  1  0.15948448  0.16313516  0.49483947  1
  Cr  Cr28  1  0.99449739  -0.00241258  0.66106123  1
  Cr  Cr29  1  0.16263756  0.16485560  0.82765038  1
  Cr  Cr30  1  0.16364675  0.49368319  0.49822934  1
  Cr  Cr31  1  -0.00369905  0.32816971  0.66224080  1
  Fe  Fe32  1  0.16665388  0.49535371  0.82971667  1
  Cr  Cr33  1  0.16220992  0.83109040  0.49650083  1
  Cr  Cr34  1  0.99533186  0.66197378  0.66251180  1
  Cr  Cr35  1  0.16453429  0.82596034  0.82872055  1
  Cr  Cr36  1  0.49471433  0.16337203  0.49572028  1
  Cr  Cr37  1  0.33062414  -0.00310287  0.66307641  1
  Ni  Ni38  1  0.49866607  0.16414279  0.82993425  1
  Ni  Ni39  1  0.49723365  0.49790707  0.49856660  1
  Ni  Ni40  1  0.33017668  0.33215651  0.66315587  1
  Ni  Ni41  1  0.49322562  0.49570307  0.82803578  1
  Ni  Ni42  1  0.49785353  0.82784112  0.49606293  1
  Ni  Ni43  1  0.33237696  0.65996913  0.66404008  1
  Ni  Ni44  1  0.49465423  0.82797665  0.83014097  1
  Fe  Fe45  1  0.83077320  0.16260495  0.49318705  1
  Cr  Cr46  1  0.66254976  0.99582098  0.66383310  1
  Ni  Ni47  1  0.82643952  0.16416221  0.83188119  1
  Ni  Ni48  1  0.82854296  0.49498555  0.49462788  1
  Cr  Cr49  1  0.66101828  0.32981702  0.66311224  1
  Cr  Cr50  1  0.82916926  0.49332130  0.83205117  1
  Fe  Fe51  1  0.82767381  0.83045640  0.49399619  1
  Cr  Cr52  1  0.66049154  0.66227711  0.65948117  1
  Cr  Cr53  1  0.82805310  0.83148675  0.82927752  1
" 