332,Ni43Fe57_5,-242.255819413646, 220.195280856833,Ni43Fe57,"# generated using pymatgen
 data_Fe23Ni31
_symmetry_space_group_name_H-M   'P 1'
_cell_length_a   7.40861501
_cell_length_b   7.40861501
_cell_length_c   10.47736383
_cell_angle_alpha   90.00000000
_cell_angle_beta   90.00000000
_cell_angle_gamma   90.00000000
_symmetry_Int_Tables_number   1
_chemical_formula_structural   Fe23Ni31
_chemical_formula_sum   'Fe23 Ni31'
_cell_volume   575.07710707
_cell_formula_units_Z   1
loop_
 _symmetry_equiv_pos_site_id
 _symmetry_equiv_pos_as_xyz
  1  'x, y, z'
loop_
 _atom_site_type_symbol
 _atom_site_label
 _atom_site_symmetry_multiplicity
 _atom_site_fract_x
 _atom_site_fract_y
 _atom_site_fract_z
 _atom_site_occupancy
  Fe  Fe0  1  1.00338773  1.00384379  1.00306432  1
  Fe  Fe1  1  0.17093707  0.17062152  0.17133191  1
  Fe  Fe2  1  1.00230741  1.00250837  0.33852009  1
  Fe  Fe3  1  1.00284895  0.33854297  1.00394175  1
  Fe  Fe4  1  0.17030619  0.50409425  0.17083683  1
  Fe  Fe5  1  1.00237661  0.33658492  0.33804456  1
  Ni  Ni6  1  1.00205293  0.67049207  0.00423898  1
  Fe  Fe7  1  0.16996696  0.83706516  0.17165147  1
  Ni  Ni8  1  1.00194889  0.66917369  0.33710458  1
  Fe  Fe9  1  0.33768304  1.00257111  0.00396146  1
  Ni  Ni10  1  0.50391780  0.17034667  0.16985244  1
  Ni  Ni11  1  0.33822503  0.00745732  0.33729334  1
  Ni  Ni12  1  0.33696457  0.33474047  0.00509416  1
  Ni  Ni13  1  0.50379229  0.50458817  0.16930572  1
  Fe  Fe14  1  0.33872740  0.33838644  0.33801831  1
  Fe  Fe15  1  0.33736430  0.66955003  0.00407167  1
  Ni  Ni16  1  0.50313777  0.83710810  0.16968988  1
  Fe  Fe17  1  0.33882993  0.67263108  0.33782177  1
  Fe  Fe18  1  0.67064315  0.00427655  0.00446559  1
  Ni  Ni19  1  0.83749439  0.17047181  0.16945602  1
  Ni  Ni20  1  0.66913483  1.00303273  0.33693865  1
  Fe  Fe21  1  0.67093890  0.33837836  0.00409541  1
  Ni  Ni22  1  0.83773826  0.50395757  0.17003269  1
  Fe  Fe23  1  0.67073630  0.33726778  0.33692868  1
  Ni  Ni24  1  0.67292680  0.67092661  0.00477700  1
  Ni  Ni25  1  0.83777449  0.83738647  0.16943117  1
  Ni  Ni26  1  0.67298496  0.67113565  0.33683409  1
  Ni  Ni27  1  0.17069225  0.17005822  0.50483161  1
  Ni  Ni28  1  1.00390396  1.00317413  0.66959434  1
  Fe  Fe29  1  0.17031398  0.17165444  0.83629187  1
  Ni  Ni30  1  0.17021282  0.50488766  0.50475359  1
  Fe  Fe31  1  1.00290823  0.33635423  0.67012946  1
  Fe  Fe32  1  0.17034676  0.50213398  0.83686863  1
  Ni  Ni33  1  0.17102769  0.83722599  0.50406290  1
  Ni  Ni34  1  1.00185591  0.67010281  0.67048978  1
  Fe  Fe35  1  0.16883033  0.83797722  0.83596706  1
  Ni  Ni36  1  0.50388384  0.17003729  0.50422357  1
  Ni  Ni37  1  0.33758413  0.00785263  0.67090618  1
  Ni  Ni38  1  0.50377615  0.16979763  0.83791220  1
  Ni  Ni39  1  0.50385829  0.50455482  0.50515838  1
  Ni  Ni40  1  0.33716714  0.33583419  0.66963347  1
  Fe  Fe41  1  0.50550556  0.50214684  0.83748155  1
  Ni  Ni42  1  0.50302359  0.83778996  0.50470771  1
  Fe  Fe43  1  0.33726900  0.67256633  0.66999697  1
  Fe  Fe44  1  0.50646498  0.83756827  0.83671822  1
  Ni  Ni45  1  0.83711376  0.17004411  0.50475315  1
  Ni  Ni46  1  0.67030084  1.00337757  0.67016362  1
  Ni  Ni47  1  0.83682928  0.17122934  0.83746109  1
  Ni  Ni48  1  0.83781564  0.50410282  0.50431833  1
  Fe  Fe49  1  0.67104769  0.33609091  0.67074393  1
  Ni  Ni50  1  0.83856049  0.50399819  0.83750921  1
  Ni  Ni51  1  0.83777427  0.83717940  0.50476777  1
  Ni  Ni52  1  0.67317107  0.67043765  0.66995570  1
  Fe  Fe53  1  0.83656750  0.83763584  0.83674927  1
" 