4122,Ni43Fe34Cr21_2,-231.553253163265, 196.730215029061,Ni43Fe34Cr21,"# generated using pymatgen
 data_Cr13Fe18Ni23
_symmetry_space_group_name_H-M   'P 1'
_cell_length_a   7.44576573
_cell_length_b   7.44576573
_cell_length_c   10.52990288
_cell_angle_alpha   90.00000000
_cell_angle_beta   90.00000000
_cell_angle_gamma   90.00000000
_symmetry_Int_Tables_number   1
_chemical_formula_structural   Cr13Fe18Ni23
_chemical_formula_sum   'Cr13 Fe18 Ni23'
_cell_volume   583.77178610
_cell_formula_units_Z   1
loop_
 _symmetry_equiv_pos_site_id
 _symmetry_equiv_pos_as_xyz
  1  'x, y, z'
loop_
 _atom_site_type_symbol
 _atom_site_label
 _atom_site_symmetry_multiplicity
 _atom_site_fract_x
 _atom_site_fract_y
 _atom_site_fract_z
 _atom_site_occupancy
  Fe  Fe0  1  0.00198629  0.99900919  1.00142066  1
  Fe  Fe1  1  0.16779549  0.16593765  0.16777928  1
  Fe  Fe2  1  1.00000260  0.99915163  0.33510721  1
  Ni  Ni3  1  1.00039599  0.33689057  0.99936063  1
  Cr  Cr4  1  0.16906675  0.50170590  0.16832917  1
  Cr  Cr5  1  0.99933814  0.33647462  0.33577314  1
  Ni  Ni6  1  1.00089053  0.66867782  1.00071080  1
  Fe  Fe7  1  0.16844018  0.83541857  0.16742043  1
  Cr  Cr8  1  0.00168595  0.67007744  0.33413134  1
  Ni  Ni9  1  0.33483485  1.00018741  0.00316885  1
  Fe  Fe10  1  0.50275669  0.16576344  0.16806974  1
  Fe  Fe11  1  0.33503534  0.99916110  0.33331551  1
  Cr  Cr12  1  0.33573400  0.33297065  0.99949846  1
  Cr  Cr13  1  0.50272722  0.50329615  0.16825859  1
  Fe  Fe14  1  0.33673541  0.33589267  0.33521484  1
  Ni  Ni15  1  0.33253774  0.67095175  0.99968173  1
  Fe  Fe16  1  0.50278253  0.83525223  0.16801035  1
  Ni  Ni17  1  0.33478831  0.67162429  0.33815809  1
  Ni  Ni18  1  0.66643927  1.00114285  1.00092447  1
  Cr  Cr19  1  0.83485345  0.16687955  0.16786489  1
  Ni  Ni20  1  0.66725851  1.00038691  0.33631643  1
  Ni  Ni21  1  0.66972202  0.33453501  1.00078274  1
  Ni  Ni22  1  0.83394210  0.50251369  0.16452307  1
  Ni  Ni23  1  0.66778085  0.33309353  0.33380878  1
  Ni  Ni24  1  0.67075104  0.66887729  0.00148974  1
  Ni  Ni25  1  0.83380638  0.83586344  0.16721378  1
  Fe  Fe26  1  0.66794093  0.66977132  0.33400858  1
  Cr  Cr27  1  0.16636005  0.16901417  0.50153586  1
  Fe  Fe28  1  0.00145236  0.99823025  0.66747445  1
  Fe  Fe29  1  0.16875023  0.16795889  0.83478082  1
  Fe  Fe30  1  0.17055153  0.50505468  0.50338851  1
  Fe  Fe31  1  0.00454039  0.33733028  0.66966548  1
  Ni  Ni32  1  0.16811046  0.50209927  0.83289031  1
  Ni  Ni33  1  0.16758964  0.83514976  0.50151208  1
  Ni  Ni34  1  0.00203391  0.66975505  0.66852558  1
  Fe  Fe35  1  0.16706303  0.83278561  0.83515451  1
  Cr  Cr36  1  0.50119047  0.16862439  0.50048687  1
  Cr  Cr37  1  0.33706538  0.99961013  0.66992762  1
  Ni  Ni38  1  0.50134936  0.16846973  0.83698257  1
  Ni  Ni39  1  0.49942180  0.50346711  0.50062539  1
  Ni  Ni40  1  0.33514711  0.33674249  0.66847878  1
  Ni  Ni41  1  0.49887387  0.50221749  0.83513164  1
  Ni  Ni42  1  0.50216409  0.83189346  0.50033384  1
  Ni  Ni43  1  0.33228087  0.66747602  0.66655971  1
  Cr  Cr44  1  0.50354879  0.83234719  0.83603521  1
  Fe  Fe45  1  0.83319774  0.16453339  0.50134404  1
  Fe  Fe46  1  0.66886873  0.99753958  0.66754092  1
  Cr  Cr47  1  0.83577185  0.16477007  0.83419664  1
  Cr  Cr48  1  0.83303637  0.50269662  0.50213033  1
  Cr  Cr49  1  0.66659674  0.33351977  0.67005699  1
  Fe  Fe50  1  0.83417883  0.50436655  0.83630431  1
  Ni  Ni51  1  0.83456399  0.83663471  0.50255548  1
  Fe  Fe52  1  0.66651538  0.66903678  0.66841786  1
  Ni  Ni53  1  0.83692124  0.83434266  0.83479574  1
" 