3573,Ni43Fe27Cr29_5,-228.331942368078, 184.536210067494,Ni43Fe27Cr29,"# generated using pymatgen
 data_Cr17Fe14Ni23
_symmetry_space_group_name_H-M   'P 1'
_cell_length_a   7.46294294
_cell_length_b   7.46294294
_cell_length_c   10.55419512
_cell_angle_alpha   90.00000000
_cell_angle_beta   90.00000000
_cell_angle_gamma   90.00000000
_symmetry_Int_Tables_number   1
_chemical_formula_structural   Cr17Fe14Ni23
_chemical_formula_sum   'Cr17 Fe14 Ni23'
_cell_volume   587.82135738
_cell_formula_units_Z   1
loop_
 _symmetry_equiv_pos_site_id
 _symmetry_equiv_pos_as_xyz
  1  'x, y, z'
loop_
 _atom_site_type_symbol
 _atom_site_label
 _atom_site_symmetry_multiplicity
 _atom_site_fract_x
 _atom_site_fract_y
 _atom_site_fract_z
 _atom_site_occupancy
  Ni  Ni0  1  0.00263293  0.99793361  0.99977867  1
  Fe  Fe1  1  0.16772631  0.16754466  0.16663285  1
  Fe  Fe2  1  0.00164268  0.00150459  0.33209449  1
  Ni  Ni3  1  0.00417900  0.33513123  0.99946650  1
  Fe  Fe4  1  0.16476301  0.49911864  0.16579235  1
  Ni  Ni5  1  0.00421193  0.33298398  0.33263396  1
  Ni  Ni6  1  0.00088986  0.66739335  0.00109596  1
  Fe  Fe7  1  0.16453026  0.83381437  0.16511599  1
  Fe  Fe8  1  0.99904557  0.66639565  0.33048913  1
  Ni  Ni9  1  0.33202918  0.00218374  0.00066254  1
  Fe  Fe10  1  0.49910896  0.16555983  0.16638790  1
  Fe  Fe11  1  0.33359999  0.00457433  0.33294372  1
  Ni  Ni12  1  0.33077702  0.33142739  0.00040681  1
  Cr  Cr13  1  0.49706895  0.50074788  0.16590816  1
  Ni  Ni14  1  0.33104291  0.33029710  0.33372859  1
  Fe  Fe15  1  0.33117492  0.66762511  0.99811264  1
  Cr  Cr16  1  0.49898882  0.83524224  0.16594864  1
  Cr  Cr17  1  0.33245352  0.66586784  0.33396057  1
  Ni  Ni18  1  0.66575564  0.99818547  0.99846327  1
  Cr  Cr19  1  0.83555198  0.16649609  0.16537332  1
  Ni  Ni20  1  0.66611836  0.99888794  0.33336579  1
  Cr  Cr21  1  0.66553810  0.33402913  0.99957540  1
  Ni  Ni22  1  0.83720218  0.50058167  0.16795538  1
  Cr  Cr23  1  0.66446427  0.33370759  0.33372744  1
  Cr  Cr24  1  0.67061474  0.66759390  0.99935561  1
  Ni  Ni25  1  0.83468894  0.83490913  0.16729346  1
  Ni  Ni26  1  0.66895771  0.66853743  0.33281845  1
  Ni  Ni27  1  0.16621085  0.16622199  0.49965872  1
  Ni  Ni28  1  0.00442316  0.00069785  0.66820021  1
  Fe  Fe29  1  0.16820071  0.16666697  0.83413766  1
  Cr  Cr30  1  0.16741390  0.49820855  0.50065984  1
  Ni  Ni31  1  0.00165460  0.33211864  0.66857521  1
  Ni  Ni32  1  0.16744589  0.50059735  0.83594667  1
  Cr  Cr33  1  0.16790328  0.83631130  0.50011452  1
  Cr  Cr34  1  0.00076962  0.66769541  0.66940619  1
  Ni  Ni35  1  0.16999549  0.83491969  0.83474900  1
  Fe  Fe36  1  0.49883945  0.16669281  0.49998162  1
  Ni  Ni37  1  0.33242837  0.00128403  0.66698531  1
  Fe  Fe38  1  0.49802960  0.16631593  0.83431503  1
  Ni  Ni39  1  0.49935458  0.49988666  0.50029321  1
  Cr  Cr40  1  0.33375460  0.33175256  0.66659612  1
  Ni  Ni41  1  0.49744469  0.50146268  0.83371901  1
  Cr  Cr42  1  0.49929795  0.83305524  0.50116169  1
  Fe  Fe43  1  0.33305070  0.66701582  0.66969598  1
  Ni  Ni44  1  0.49628412  0.83533107  0.83366341  1
  Cr  Cr45  1  0.83630778  0.16699636  0.50248366  1
  Fe  Fe46  1  0.66549535  0.00228788  0.66900289  1
  Cr  Cr47  1  0.83614350  0.16676227  0.83290388  1
  Cr  Cr48  1  0.83366521  0.49775811  0.49908717  1
  Ni  Ni49  1  0.66480119  0.33438368  0.66716685  1
  Ni  Ni50  1  0.83552928  0.49663964  0.83411284  1
  Cr  Cr51  1  0.83356009  0.83652332  0.49899708  1
  Cr  Cr52  1  0.66644642  0.66563870  0.66875366  1
  Fe  Fe53  1  0.83564208  0.83335177  0.83539519  1
" 