2050,Ni43Fe34Cr21_9,-231.08716827817, 192.006319087272,Ni43Fe34Cr21,"# generated using pymatgen
 data_Cr13Fe18Ni23
_symmetry_space_group_name_H-M   'P 1'
_cell_length_a   7.44870130
_cell_length_b   7.44870130
_cell_length_c   10.53405440
_cell_angle_alpha   90.00000000
_cell_angle_beta   90.00000000
_cell_angle_gamma   90.00000000
_symmetry_Int_Tables_number   1
_chemical_formula_structural   Cr13Fe18Ni23
_chemical_formula_sum   'Cr13 Fe18 Ni23'
_cell_volume   584.46253084
_cell_formula_units_Z   1
loop_
 _symmetry_equiv_pos_site_id
 _symmetry_equiv_pos_as_xyz
  1  'x, y, z'
loop_
 _atom_site_type_symbol
 _atom_site_label
 _atom_site_symmetry_multiplicity
 _atom_site_fract_x
 _atom_site_fract_y
 _atom_site_fract_z
 _atom_site_occupancy
  Fe  Fe0  1  0.99910012  1.00097442  1.00099851  1
  Cr  Cr1  1  0.16749819  0.16535840  0.16683122  1
  Fe  Fe2  1  0.00149160  0.99965020  0.33552641  1
  Ni  Ni3  1  0.99885979  0.33435046  0.99950250  1
  Cr  Cr4  1  0.16872464  0.50380901  0.16783314  1
  Fe  Fe5  1  0.99857591  0.33535208  0.33679908  1
  Cr  Cr6  1  1.00063506  0.66789814  1.00081144  1
  Ni  Ni7  1  0.16904202  0.83469142  0.16840669  1
  Ni  Ni8  1  0.00264860  0.66894489  0.33516898  1
  Ni  Ni9  1  0.33632702  0.99822478  0.00341789  1
  Fe  Fe10  1  0.50308722  0.16548378  0.16767174  1
  Fe  Fe11  1  0.33468030  0.99742940  0.33393794  1
  Cr  Cr12  1  0.33523353  0.33610597  0.00170959  1
  Ni  Ni13  1  0.50363163  0.50322161  0.16718480  1
  Cr  Cr14  1  0.33588233  0.33578288  0.33444279  1
  Ni  Ni15  1  0.33661311  0.66998718  0.00131418  1
  Ni  Ni16  1  0.50124618  0.83319377  0.16788570  1
  Ni  Ni17  1  0.33343641  0.67023731  0.33518270  1
  Ni  Ni18  1  0.66765758  0.99991914  1.00044974  1
  Cr  Cr19  1  0.83290173  0.16758952  0.16702869  1
  Ni  Ni20  1  0.66779946  0.00135597  0.33413976  1
  Ni  Ni21  1  0.66958647  0.33464180  1.00121489  1
  Fe  Fe22  1  0.83213768  0.50284172  0.16833961  1
  Ni  Ni23  1  0.66909622  0.33434203  0.33472075  1
  Ni  Ni24  1  0.66652743  0.66913578  0.00186985  1
  Ni  Ni25  1  0.83340473  0.83459802  0.16834883  1
  Fe  Fe26  1  0.66657136  0.66704398  0.33343400  1
  Fe  Fe27  1  0.16619742  0.16786200  0.50161005  1
  Cr  Cr28  1  1.00095021  0.00249785  0.66791222  1
  Cr  Cr29  1  0.16619688  0.16980303  0.83514375  1
  Fe  Fe30  1  0.16699633  0.50218151  0.50198215  1
  Ni  Ni31  1  0.00128843  0.33623037  0.66659174  1
  Ni  Ni32  1  0.16832023  0.50143798  0.83260101  1
  Ni  Ni33  1  0.16939246  0.83328611  0.49993814  1
  Fe  Fe34  1  1.00037487  0.66490776  0.66782132  1
  Cr  Cr35  1  0.16835018  0.83242906  0.83615002  1
  Cr  Cr36  1  0.50291512  0.16935755  0.50083431  1
  Fe  Fe37  1  0.33467910  1.00023611  0.66675485  1
  Cr  Cr38  1  0.50377022  0.16883986  0.83560198  1
  Ni  Ni39  1  0.50146233  0.50214141  0.50264798  1
  Fe  Fe40  1  0.33440104  0.33717953  0.66721746  1
  Fe  Fe41  1  0.50274065  0.50346222  0.83404431  1
  Fe  Fe42  1  0.49936023  0.83247391  0.50004181  1
  Fe  Fe43  1  0.33546868  0.66628021  0.66690786  1
  Fe  Fe44  1  0.50244571  0.83267674  0.83640037  1
  Ni  Ni45  1  0.83544560  0.17087105  0.50034677  1
  Cr  Cr46  1  0.66801394  1.00046771  0.66925017  1
  Ni  Ni47  1  0.83373407  0.16912340  0.83594262  1
  Fe  Fe48  1  0.83412491  0.49934730  0.50152568  1
  Ni  Ni49  1  0.66956434  0.33735055  0.66776025  1
  Fe  Fe50  1  0.83426394  0.49983810  0.83382752  1
  Cr  Cr51  1  0.83511366  0.83388703  0.49951152  1
  Ni  Ni52  1  0.66624228  0.66590718  0.66826593  1
  Ni  Ni53  1  0.83229244  0.83426240  0.83569838  1
" 