4420,Ni43Fe25Cr31_16,-227.521438930098, 181.112926004623,Ni43Fe25Cr31,"# generated using pymatgen
 data_Cr18Fe13Ni23
_symmetry_space_group_name_H-M   'P 1'
_cell_length_a   7.46992784
_cell_length_b   7.46992784
_cell_length_c   10.56407326
_cell_angle_alpha   90.00000000
_cell_angle_beta   90.00000000
_cell_angle_gamma   90.00000000
_symmetry_Int_Tables_number   1
_chemical_formula_structural   Cr18Fe13Ni23
_chemical_formula_sum   'Cr18 Fe13 Ni23'
_cell_volume   589.47340601
_cell_formula_units_Z   1
loop_
 _symmetry_equiv_pos_site_id
 _symmetry_equiv_pos_as_xyz
  1  'x, y, z'
loop_
 _atom_site_type_symbol
 _atom_site_label
 _atom_site_symmetry_multiplicity
 _atom_site_fract_x
 _atom_site_fract_y
 _atom_site_fract_z
 _atom_site_occupancy
  Ni  Ni0  1  0.99955967  0.99729409  0.00217540  1
  Ni  Ni1  1  0.16399452  0.16536833  0.16816132  1
  Ni  Ni2  1  0.99926831  0.00103580  0.33120639  1
  Cr  Cr3  1  0.00039988  0.33244613  0.00110590  1
  Ni  Ni4  1  0.16670602  0.49866376  0.16384893  1
  Fe  Fe5  1  0.99796934  0.33133222  0.32978177  1
  Fe  Fe6  1  0.99893488  0.66954742  0.00070493  1
  Ni  Ni7  1  0.16563432  0.83545796  0.16431771  1
  Cr  Cr8  1  0.99912248  0.66797554  0.32899294  1
  Fe  Fe9  1  0.33372486  -0.00014802  0.00123942  1
  Fe  Fe10  1  0.49884137  0.16517789  0.16594991  1
  Ni  Ni11  1  0.33052370  0.00265121  0.33118593  1
  Fe  Fe12  1  0.33494848  0.33097788  0.00189820  1
  Cr  Cr13  1  0.50066134  0.50056783  0.16606477  1
  Ni  Ni14  1  0.33213242  0.33080956  0.32806423  1
  Ni  Ni15  1  0.32907156  0.66564627  0.99860664  1
  Cr  Cr16  1  0.50173472  0.83348455  0.16787119  1
  Cr  Cr17  1  0.33081959  0.66722969  0.33519682  1
  Ni  Ni18  1  0.66892052  0.00135312  -0.00018886  1
  Ni  Ni19  1  0.83399433  0.16484767  0.16716672  1
  Ni  Ni20  1  0.66959533  0.00210377  0.33143042  1
  Ni  Ni21  1  0.66469206  0.33050338  0.00171120  1
  Fe  Fe22  1  0.83381191  0.49917353  0.16509904  1
  Fe  Fe23  1  0.66918683  0.33072678  0.33179433  1
  Ni  Ni24  1  0.66761952  0.66750629  0.00137846  1
  Fe  Fe25  1  0.83449232  0.83596531  0.16487557  1
  Ni  Ni26  1  0.67072958  0.66491991  0.33215955  1
  Cr  Cr27  1  0.16202753  0.16464251  0.49601427  1
  Cr  Cr28  1  0.99916884  0.99649591  0.66608342  1
  Cr  Cr29  1  0.16624582  0.16573027  0.83445474  1
  Cr  Cr30  1  0.16424505  0.49849545  0.50181893  1
  Fe  Fe31  1  0.99595041  0.33408156  0.66546638  1
  Fe  Fe32  1  0.16601295  0.50376009  0.83420672  1
  Ni  Ni33  1  0.16601173  0.83402345  0.50128726  1
  Ni  Ni34  1  0.00079855  0.66658511  0.66946678  1
  Fe  Fe35  1  0.16530777  0.83176162  0.83447260  1
  Cr  Cr36  1  0.50152399  0.16452627  0.49797952  1
  Ni  Ni37  1  0.33345429  0.99893927  0.66730496  1
  Ni  Ni38  1  0.50037993  0.16549122  0.83588818  1
  Cr  Cr39  1  0.50268226  0.50165153  0.49928480  1
  Cr  Cr40  1  0.33504565  0.33183368  0.67001424  1
  Cr  Cr41  1  0.50067899  0.50057313  0.83490543  1
  Cr  Cr42  1  0.49945161  0.83355586  0.50053606  1
  Fe  Fe43  1  0.33171745  0.67001273  0.66789269  1
  Cr  Cr44  1  0.50264590  0.83381492  0.83158123  1
  Ni  Ni45  1  0.83325942  0.16919871  0.49990523  1
  Ni  Ni46  1  0.66553714  0.00121827  0.66820992  1
  Cr  Cr47  1  0.83108303  0.16401636  0.83110335  1
  Fe  Fe48  1  0.83358735  0.49900745  0.50145214  1
  Ni  Ni49  1  0.66691433  0.33226774  0.66509986  1
  Cr  Cr50  1  0.83280253  0.50179810  0.83238065  1
  Cr  Cr51  1  0.83168503  0.83535864  0.49891088  1
  Ni  Ni52  1  0.67080340  0.66613825  0.66599131  1
  Ni  Ni53  1  0.83347864  0.83199346  0.83607907  1
" 