1896,Ni43Fe48Cr7_15,-236.928621210721, 211.009583616121,Ni43Fe48Cr7,"# generated using pymatgen
 data_Cr5Fe26Ni23
_symmetry_space_group_name_H-M   'P 1'
_cell_length_a   7.41868450
_cell_length_b   7.41868450
_cell_length_c   10.49160424
_cell_angle_alpha   90.00000000
_cell_angle_beta   90.00000000
_cell_angle_gamma   90.00000000
_symmetry_Int_Tables_number   1
_chemical_formula_structural   Cr5Fe26Ni23
_chemical_formula_sum   'Cr5 Fe26 Ni23'
_cell_volume   577.42516056
_cell_formula_units_Z   1
loop_
 _symmetry_equiv_pos_site_id
 _symmetry_equiv_pos_as_xyz
  1  'x, y, z'
loop_
 _atom_site_type_symbol
 _atom_site_label
 _atom_site_symmetry_multiplicity
 _atom_site_fract_x
 _atom_site_fract_y
 _atom_site_fract_z
 _atom_site_occupancy
  Ni  Ni0  1  1.00313246  1.00133433  1.00270100  1
  Fe  Fe1  1  0.16859819  0.16939088  0.16995066  1
  Ni  Ni2  1  1.00219655  1.00201342  0.33575029  1
  Fe  Fe3  1  0.00341143  0.33420244  1.00155420  1
  Ni  Ni4  1  0.17027003  0.50065511  0.16979424  1
  Fe  Fe5  1  0.00658370  0.33500110  0.33789258  1
  Fe  Fe6  1  1.00286372  0.67156752  1.00296271  1
  Fe  Fe7  1  0.16865389  0.83505885  0.17056742  1
  Ni  Ni8  1  0.00452364  0.67020593  0.33630575  1
  Fe  Fe9  1  0.33589521  0.00510992  0.00327516  1
  Fe  Fe10  1  0.50336268  0.16866147  0.16911671  1
  Ni  Ni11  1  0.33713528  0.00380401  0.33440972  1
  Fe  Fe12  1  0.33502852  0.33398570  1.00217080  1
  Cr  Cr13  1  0.50267766  0.50351641  0.16932153  1
  Ni  Ni14  1  0.33620919  0.33654623  0.33604238  1
  Fe  Fe15  1  0.33466762  0.67098892  0.00378434  1
  Fe  Fe16  1  0.50290819  0.83744112  0.16983051  1
  Ni  Ni17  1  0.33458178  0.66926112  0.33724458  1
  Ni  Ni18  1  0.67125881  0.00486102  0.00484206  1
  Fe  Fe19  1  0.83741170  0.16939734  0.16856776  1
  Ni  Ni20  1  0.67035773  1.00304970  0.33570101  1
  Ni  Ni21  1  0.66896154  0.33557904  1.00009578  1
  Cr  Cr22  1  0.83823614  0.50472587  0.17065744  1
  Cr  Cr23  1  0.66985022  0.33475021  0.34014602  1
  Fe  Fe24  1  0.67229724  0.67195025  1.00165321  1
  Ni  Ni25  1  0.83523809  0.83855464  0.17004588  1
  Fe  Fe26  1  0.66906592  0.67384828  0.33873750  1
  Ni  Ni27  1  0.17126479  0.17135336  0.50258345  1
  Ni  Ni28  1  1.00227954  0.00366753  0.67159073  1
  Ni  Ni29  1  0.16992299  0.17092643  0.83571503  1
  Ni  Ni30  1  0.17076312  0.50074292  0.50308445  1
  Ni  Ni31  1  0.00473259  0.33712005  0.66977030  1
  Fe  Fe32  1  0.16957351  0.50376983  0.83619803  1
  Cr  Cr33  1  0.16758498  0.83888926  0.50594446  1
  Ni  Ni34  1  1.00204488  0.66915455  0.67196630  1
  Fe  Fe35  1  0.16822334  0.83839771  0.83589757  1
  Fe  Fe36  1  0.50052545  0.16730588  0.50394114  1
  Ni  Ni37  1  0.33633751  0.00642783  0.67103435  1
  Fe  Fe38  1  0.50386400  0.17005541  0.83611508  1
  Fe  Fe39  1  0.50079986  0.50460305  0.50418056  1
  Ni  Ni40  1  0.33712636  0.33690376  0.67053069  1
  Fe  Fe41  1  0.50349998  0.50188023  0.83643341  1
  Fe  Fe42  1  0.50214914  0.83797702  0.50358465  1
  Fe  Fe43  1  0.33580227  0.66877824  0.66937515  1
  Cr  Cr44  1  0.50542536  0.83746718  0.83524918  1
  Fe  Fe45  1  0.84022252  0.16717681  0.50452634  1
  Ni  Ni46  1  0.67090994  0.00354344  0.66915014  1
  Fe  Fe47  1  0.83724940  0.16802098  0.83652855  1
  Fe  Fe48  1  0.84065839  0.50500860  0.50443490  1
  Fe  Fe49  1  0.67096972  0.33583777  0.67019273  1
  Fe  Fe50  1  0.83676721  0.50294205  0.83632269  1
  Ni  Ni51  1  0.83436036  0.83701752  0.50359165  1
  Ni  Ni52  1  0.67140760  0.66873467  0.66870784  1
  Ni  Ni53  1  0.83617360  0.83685268  0.83624497  1
" 