6725,Ni43Fe25Cr31_17,-227.681267920463, 181.568760640056,Ni43Fe25Cr31,"# generated using pymatgen
 data_Cr18Fe13Ni23
_symmetry_space_group_name_H-M   'P 1'
_cell_length_a   7.47536109
_cell_length_b   7.47536109
_cell_length_c   10.57175704
_cell_angle_alpha   90.00000000
_cell_angle_beta   90.00000000
_cell_angle_gamma   90.00000000
_symmetry_Int_Tables_number   1
_chemical_formula_structural   Cr18Fe13Ni23
_chemical_formula_sum   'Cr18 Fe13 Ni23'
_cell_volume   590.76060331
_cell_formula_units_Z   1
loop_
 _symmetry_equiv_pos_site_id
 _symmetry_equiv_pos_as_xyz
  1  'x, y, z'
loop_
 _atom_site_type_symbol
 _atom_site_label
 _atom_site_symmetry_multiplicity
 _atom_site_fract_x
 _atom_site_fract_y
 _atom_site_fract_z
 _atom_site_occupancy
  Cr  Cr0  1  -0.00051322  0.00101843  0.00119662  1
  Fe  Fe1  1  0.16637821  0.16652253  0.16374518  1
  Fe  Fe2  1  -0.00016865  0.99678592  0.33322097  1
  Ni  Ni3  1  0.99750443  0.33192195  0.99649298  1
  Cr  Cr4  1  0.16597457  0.50139989  0.16281409  1
  Cr  Cr5  1  0.99822146  0.33181561  0.33342561  1
  Cr  Cr6  1  0.99742347  0.66418447  0.99690863  1
  Fe  Fe7  1  0.16658795  0.83098827  0.16644178  1
  Ni  Ni8  1  -0.00045267  0.66718438  0.33297010  1
  Fe  Fe9  1  0.33344654  0.99933000  0.99924620  1
  Ni  Ni10  1  0.49836398  0.16802421  0.16424771  1
  Cr  Cr11  1  0.32912504  0.99907820  0.32848362  1
  Cr  Cr12  1  0.33318641  0.33239957  0.99694291  1
  Ni  Ni13  1  0.50036658  0.49942641  0.16931494  1
  Cr  Cr14  1  0.33403062  0.33295028  0.33520958  1
  Ni  Ni15  1  0.33554806  0.66731693  0.00014651  1
  Fe  Fe16  1  0.49974041  0.82920527  0.16572228  1
  Ni  Ni17  1  0.33212534  0.66656935  0.33257258  1
  Cr  Cr18  1  0.66510412  0.99907843  0.99595952  1
  Cr  Cr19  1  0.83142676  0.16948433  0.16644273  1
  Cr  Cr20  1  0.66705185  0.00046874  0.33126332  1
  Ni  Ni21  1  0.66654410  0.33362752  0.00003851  1
  Ni  Ni22  1  0.83052840  0.50086392  0.16767857  1
  Ni  Ni23  1  0.66637680  0.33622601  0.33195043  1
  Cr  Cr24  1  0.66552482  0.66476534  0.99829918  1
  Ni  Ni25  1  0.83511868  0.83004136  0.16994027  1
  Ni  Ni26  1  0.66679810  0.66265539  0.33042295  1
  Fe  Fe27  1  0.16367850  0.16408297  0.50366453  1
  Ni  Ni28  1  -0.00040042  0.00224905  0.66487085  1
  Ni  Ni29  1  0.16511172  0.16776603  0.83072071  1
  Fe  Fe30  1  0.16328903  0.50108421  0.49983582  1
  Ni  Ni31  1  0.00122480  0.33214463  0.66725434  1
  Fe  Fe32  1  0.16399336  0.49743751  0.83227053  1
  Fe  Fe33  1  0.16453027  0.83350896  0.50022531  1
  Ni  Ni34  1  0.00019457  0.66359562  0.66665827  1
  Cr  Cr35  1  0.16652023  0.83339015  0.83160718  1
  Cr  Cr36  1  0.50123490  0.16711589  0.50318368  1
  Ni  Ni37  1  0.33177420  0.00168086  0.66902936  1
  Fe  Fe38  1  0.50030516  0.16532845  0.83202403  1
  Fe  Fe39  1  0.50188005  0.50013169  0.49705438  1
  Fe  Fe40  1  0.32929347  0.33119190  0.66792607  1
  Ni  Ni41  1  0.49802894  0.49892506  0.83353295  1
  Cr  Cr42  1  0.49841332  0.83147020  0.50003193  1
  Cr  Cr43  1  0.33193254  0.66388804  0.66594678  1
  Ni  Ni44  1  0.49775061  0.83331377  0.83287072  1
  Ni  Ni45  1  0.83598950  0.16749224  0.50032492  1
  Ni  Ni46  1  0.66701278  0.00110006  0.67047518  1
  Ni  Ni47  1  0.83548631  0.16779902  0.83111387  1
  Fe  Fe48  1  0.83346461  0.49867643  0.49868377  1
  Cr  Cr49  1  0.66811753  0.33238074  0.66719926  1
  Ni  Ni50  1  0.83393968  0.49589397  0.83315885  1
  Cr  Cr51  1  0.83520717  0.83376479  0.50135527  1
  Cr  Cr52  1  0.66789613  0.66680913  0.66994953  1
  Ni  Ni53  1  0.83274173  0.83441872  0.82790693  1
" 