7221,Ni43Fe27Cr29_4,-228.493959961136, 183.100715587185,Ni43Fe27Cr29,"# generated using pymatgen
 data_Cr17Fe14Ni23
_symmetry_space_group_name_H-M   'P 1'
_cell_length_a   7.46464396
_cell_length_b   7.46464396
_cell_length_c   10.55660073
_cell_angle_alpha   90.00000000
_cell_angle_beta   90.00000000
_cell_angle_gamma   90.00000000
_symmetry_Int_Tables_number   1
_chemical_formula_structural   Cr17Fe14Ni23
_chemical_formula_sum   'Cr17 Fe14 Ni23'
_cell_volume   588.22339365
_cell_formula_units_Z   1
loop_
 _symmetry_equiv_pos_site_id
 _symmetry_equiv_pos_as_xyz
  1  'x, y, z'
loop_
 _atom_site_type_symbol
 _atom_site_label
 _atom_site_symmetry_multiplicity
 _atom_site_fract_x
 _atom_site_fract_y
 _atom_site_fract_z
 _atom_site_occupancy
  Ni  Ni0  1  0.99973140  0.00035366  0.00094024  1
  Ni  Ni1  1  0.16530908  0.16630301  0.16435440  1
  Cr  Cr2  1  0.00047352  0.00074015  0.33211939  1
  Ni  Ni3  1  0.99894547  0.33371432  0.00174364  1
  Ni  Ni4  1  0.16658494  0.49940524  0.16554643  1
  Fe  Fe5  1  0.00054241  0.33474697  0.33120213  1
  Fe  Fe6  1  0.00190460  0.66499947  0.00042976  1
  Fe  Fe7  1  0.16793920  0.83072455  0.16439643  1
  Cr  Cr8  1  0.00316897  0.66456237  0.33337066  1
  Ni  Ni9  1  0.33363428  0.99877766  0.00255148  1
  Fe  Fe10  1  0.50153129  0.16732873  0.16437731  1
  Cr  Cr11  1  0.33429989  0.99812397  0.33071980  1
  Cr  Cr12  1  0.33549892  0.33568533  0.00103218  1
  Ni  Ni13  1  0.50029679  0.50352587  0.16474090  1
  Cr  Cr14  1  0.33373787  0.33606818  0.32958850  1
  Ni  Ni15  1  0.33422056  0.66607317  1.00005772  1
  Ni  Ni16  1  0.49716793  0.83061455  0.16501538  1
  Ni  Ni17  1  0.33243498  0.66677661  0.33418065  1
  Cr  Cr18  1  0.66597183  0.00157732  0.99809486  1
  Ni  Ni19  1  0.83712359  0.16925851  0.16503435  1
  Cr  Cr20  1  0.66531229  0.00149411  0.33506809  1
  Ni  Ni21  1  0.66718172  0.33472238  0.00079479  1
  Ni  Ni22  1  0.83358836  0.49802187  0.16425893  1
  Cr  Cr23  1  0.66791869  0.33317730  0.33107475  1
  Fe  Fe24  1  0.66376496  0.66561292  0.99958159  1
  Cr  Cr25  1  0.83264803  0.83205325  0.16345281  1
  Cr  Cr26  1  0.66469161  0.66567810  0.33115150  1
  Cr  Cr27  1  0.16821310  0.16841582  0.50041593  1
  Cr  Cr28  1  0.99803199  0.99865527  0.66732300  1
  Cr  Cr29  1  0.16793523  0.16739966  0.83541767  1
  Fe  Fe30  1  0.16805296  0.50159927  0.50190096  1
  Fe  Fe31  1  0.00069266  0.33592532  0.66763366  1
  Fe  Fe32  1  0.16821882  0.50093635  0.83383271  1
  Ni  Ni33  1  0.16948216  0.83322550  0.50070901  1
  Ni  Ni34  1  0.99995915  0.66511973  0.66678529  1
  Cr  Cr35  1  0.16666967  0.83470225  0.83595818  1
  Ni  Ni36  1  0.49915360  0.16693801  0.50253248  1
  Ni  Ni37  1  0.33560622  0.00110138  0.66662857  1
  Ni  Ni38  1  0.49916589  0.16804283  0.83267926  1
  Cr  Cr39  1  0.50171095  0.50068533  0.50129169  1
  Ni  Ni40  1  0.33479160  0.33496489  0.66851837  1
  Ni  Ni41  1  0.50106572  0.49999475  0.83324237  1
  Ni  Ni42  1  0.49724116  0.83378742  0.50353843  1
  Fe  Fe43  1  0.33288274  0.66765044  0.66794942  1
  Fe  Fe44  1  0.50001609  0.83271746  0.83321174  1
  Fe  Fe45  1  0.83166513  0.16897499  0.50130906  1
  Fe  Fe46  1  0.66437365  0.99951250  0.66860409  1
  Fe  Fe47  1  0.83236119  0.16740428  0.83542894  1
  Ni  Ni48  1  0.83488322  0.49772393  0.50121778  1
  Fe  Fe49  1  0.66662409  0.33300254  0.66808657  1
  Cr  Cr50  1  0.83236216  0.50133038  0.83589476  1
  Cr  Cr51  1  0.83161875  0.83006872  0.50134977  1
  Ni  Ni52  1  0.66737920  0.66672202  0.66842038  1
  Ni  Ni53  1  0.83291382  0.83197348  0.83393539  1
" 