8458,Ni43Fe25Cr31_2,-227.622875674481, 181.760340357722,Ni43Fe25Cr31,"# generated using pymatgen
 data_Cr18Fe13Ni23
_symmetry_space_group_name_H-M   'P 1'
_cell_length_a   7.46918540
_cell_length_b   7.46918540
_cell_length_c   10.56302329
_cell_angle_alpha   90.00000000
_cell_angle_beta   90.00000000
_cell_angle_gamma   90.00000000
_symmetry_Int_Tables_number   1
_chemical_formula_structural   Cr18Fe13Ni23
_chemical_formula_sum   'Cr18 Fe13 Ni23'
_cell_volume   589.29765899
_cell_formula_units_Z   1
loop_
 _symmetry_equiv_pos_site_id
 _symmetry_equiv_pos_as_xyz
  1  'x, y, z'
loop_
 _atom_site_type_symbol
 _atom_site_label
 _atom_site_symmetry_multiplicity
 _atom_site_fract_x
 _atom_site_fract_y
 _atom_site_fract_z
 _atom_site_occupancy
  Ni  Ni0  1  0.99705311  0.99833565  0.00196172  1
  Ni  Ni1  1  0.16691381  0.16347248  0.16896306  1
  Fe  Fe2  1  0.00002881  0.00067541  0.33193129  1
  Cr  Cr3  1  0.99739598  0.32991922  0.99749346  1
  Cr  Cr4  1  0.16675988  0.50187026  0.16550603  1
  Ni  Ni5  1  0.00143871  0.33138125  0.33407599  1
  Fe  Fe6  1  0.99819951  0.67144665  -0.00006906  1
  Ni  Ni7  1  0.16471764  0.83745473  0.16276154  1
  Cr  Cr8  1  0.00071159  0.67000197  0.33384922  1
  Fe  Fe9  1  0.33321286  0.99769472  0.00182376  1
  Fe  Fe10  1  0.50161727  0.16421313  0.16744744  1
  Cr  Cr11  1  0.33368360  0.99812307  0.33468454  1
  Cr  Cr12  1  0.33443232  0.33385591  0.00347283  1
  Ni  Ni13  1  0.50094495  0.49756701  0.16826101  1
  Ni  Ni14  1  0.33204957  0.33278884  0.33274907  1
  Ni  Ni15  1  0.33428518  0.67074715  0.00149794  1
  Fe  Fe16  1  0.50021482  0.83379452  0.16642778  1
  Cr  Cr17  1  0.33451173  0.66677089  0.33261242  1
  Ni  Ni18  1  0.66909928  0.99878978  0.00026829  1
  Fe  Fe19  1  0.83415202  0.16440587  0.16723253  1
  Ni  Ni20  1  0.66831805  0.99696188  0.33183871  1
  Fe  Fe21  1  0.66707517  0.33129456  0.00036838  1
  Cr  Cr22  1  0.83163036  0.50119620  0.16757027  1
  Ni  Ni23  1  0.66630448  0.33005454  0.32867265  1
  Cr  Cr24  1  0.66562287  0.66884384  0.00031968  1
  Ni  Ni25  1  0.83321788  0.83737579  0.16822513  1
  Fe  Fe26  1  0.66577191  0.66850491  0.33222131  1
  Fe  Fe27  1  0.16483649  0.16678250  0.49799434  1
  Cr  Cr28  1  0.99704068  -0.00009320  0.66424687  1
  Cr  Cr29  1  0.16650687  0.16099307  0.83208357  1
  Ni  Ni30  1  0.16578737  0.50066770  0.49998104  1
  Ni  Ni31  1  0.99729946  0.33420787  0.66663154  1
  Cr  Cr32  1  0.16449172  0.50535152  0.83386269  1
  Ni  Ni33  1  0.16636943  0.83273769  0.50149691  1
  Fe  Fe34  1  0.99924536  0.66771453  0.66590327  1
  Ni  Ni35  1  0.16629838  0.83323959  0.83559478  1
  Cr  Cr36  1  0.50176959  0.16531938  0.50097355  1
  Fe  Fe37  1  0.33355315  0.99661377  0.66531685  1
  Cr  Cr38  1  0.50168034  0.16266690  0.83264857  1
  Cr  Cr39  1  0.50203656  0.49989212  0.49848665  1
  Cr  Cr40  1  0.32981247  0.33509547  0.66291889  1
  Cr  Cr41  1  0.50079845  0.49995203  0.83210077  1
  Ni  Ni42  1  0.50181036  0.83388652  0.50208437  1
  Ni  Ni43  1  0.33251250  0.67087976  0.66549886  1
  Fe  Fe44  1  0.49980696  0.83323811  0.83205182  1
  Cr  Cr45  1  0.83121074  0.16589256  0.49735248  1
  Ni  Ni46  1  0.66776087  0.99586406  0.66794451  1
  Ni  Ni47  1  0.83107959  0.16476178  0.83437641  1
  Cr  Cr48  1  0.83279483  0.50030794  0.50012870  1
  Ni  Ni49  1  0.67074854  0.33125233  0.67062470  1
  Ni  Ni50  1  0.83261958  0.50105776  0.83141857  1
  Ni  Ni51  1  0.83165870  0.83402303  0.49800370  1
  Fe  Fe52  1  0.66831217  0.66855569  0.66715940  1
  Ni  Ni53  1  0.83506774  0.83387151  0.83322141  1
" 