3058,Ni44Fe49Cr5_12,-238.132598044082, 216.708046188228,Ni44Fe49Cr5,"# generated using pymatgen
 data_Cr2Fe13Ni12
_symmetry_space_group_name_H-M   'P 1'
_cell_length_a   7.41893124
_cell_length_b   7.41893124
_cell_length_c   10.49195318
_cell_angle_alpha   90.00000000
_cell_angle_beta   90.00000000
_cell_angle_gamma   90.00000000
_symmetry_Int_Tables_number   1
_chemical_formula_structural   Cr2Fe13Ni12
_chemical_formula_sum   'Cr4 Fe26 Ni24'
_cell_volume   577.48277614
_cell_formula_units_Z   2
loop_
 _symmetry_equiv_pos_site_id
 _symmetry_equiv_pos_as_xyz
  1  'x, y, z'
loop_
 _atom_site_type_symbol
 _atom_site_label
 _atom_site_symmetry_multiplicity
 _atom_site_fract_x
 _atom_site_fract_y
 _atom_site_fract_z
 _atom_site_occupancy
  Ni  Ni0  1  0.00371003  1.00230103  1.00200116  1
  Fe  Fe1  1  0.16805517  0.16887548  0.16935221  1
  Ni  Ni2  1  0.00430440  1.00203266  0.33783226  1
  Ni  Ni3  1  1.00223278  0.33781109  0.00387988  1
  Ni  Ni4  1  0.16872039  0.50316705  0.16944709  1
  Fe  Fe5  1  1.00323303  0.33564572  0.33628777  1
  Ni  Ni6  1  0.00436175  0.66978604  0.00328870  1
  Ni  Ni7  1  0.16797130  0.83597462  0.16882619  1
  Ni  Ni8  1  1.00279652  0.66942212  0.33602897  1
  Fe  Fe9  1  0.33501314  0.00372396  1.00238527  1
  Fe  Fe10  1  0.50354228  0.16831044  0.16943083  1
  Ni  Ni11  1  0.33537577  0.00395613  0.33353344  1
  Fe  Fe12  1  0.33390471  0.33512812  1.00205033  1
  Cr  Cr13  1  0.50377736  0.50147432  0.16879230  1
  Fe  Fe14  1  0.33286319  0.33635913  0.33618694  1
  Fe  Fe15  1  0.33469155  0.67071895  1.00241849  1
  Fe  Fe16  1  0.50219384  0.83750741  0.16916549  1
  Fe  Fe17  1  0.33378387  0.66917260  0.33483962  1
  Ni  Ni18  1  0.66872055  0.00459427  0.00404157  1
  Fe  Fe19  1  0.83780479  0.17021603  0.16943545  1
  Fe  Fe20  1  0.67382136  0.00369345  0.33405179  1
  Ni  Ni21  1  0.66993679  0.33590155  1.00151202  1
  Fe  Fe22  1  0.83885889  0.50385686  0.16996453  1
  Ni  Ni23  1  0.67056310  0.33715589  0.33698369  1
  Fe  Fe24  1  0.67333751  0.67148756  1.00239890  1
  Ni  Ni25  1  0.83746288  0.83785274  0.16942083  1
  Fe  Fe26  1  0.67333019  0.67079574  0.33600489  1
  Ni  Ni27  1  0.16879441  0.17172334  0.50319108  1
  Fe  Fe28  1  0.00332106  0.00416167  0.67063188  1
  Ni  Ni29  1  0.16967616  0.17062904  0.83733116  1
  Ni  Ni30  1  0.16896135  0.50198847  0.50259540  1
  Fe  Fe31  1  0.00453930  0.33683817  0.67019959  1
  Ni  Ni32  1  0.16822473  0.50319933  0.83797113  1
  Cr  Cr33  1  0.16880376  0.83651863  0.50419489  1
  Ni  Ni34  1  1.00233452  0.66827406  0.67037672  1
  Ni  Ni35  1  0.16973946  0.83593028  0.83693918  1
  Cr  Cr36  1  0.50282772  0.16907490  0.50287710  1
  Ni  Ni37  1  0.33674887  0.00454102  0.67281215  1
  Ni  Ni38  1  0.50440070  0.17003939  0.83763951  1
  Fe  Fe39  1  0.50376278  0.50271328  0.50249640  1
  Fe  Fe40  1  0.33391257  0.33737791  0.67144888  1
  Fe  Fe41  1  0.50154126  0.50298304  0.83757672  1
  Cr  Cr42  1  0.50422176  0.83660640  0.50100750  1
  Fe  Fe43  1  0.33564035  0.66903350  0.67247048  1
  Ni  Ni44  1  0.50434380  0.83734555  0.83884729  1
  Ni  Ni45  1  0.83718838  0.17008505  0.50351089  1
  Fe  Fe46  1  0.67174107  1.00231004  0.67258140  1
  Fe  Fe47  1  0.83801076  0.16943352  0.83768754  1
  Ni  Ni48  1  0.83750387  0.50313838  0.50192425  1
  Fe  Fe49  1  0.67131085  0.33734137  0.67054331  1
  Fe  Fe50  1  0.83774303  0.50310383  0.83650232  1
  Ni  Ni51  1  0.83627406  0.83652325  0.50396042  1
  Fe  Fe52  1  0.67080349  0.67011607  0.67070583  1
  Fe  Fe53  1  0.83837454  0.83716123  0.83752814  1
" 