2276,Ni44Fe24Cr30_9,-229.164950351846, 186.2616754391,Ni44Fe24Cr30,"# generated using pymatgen
 data_Cr17Fe13Ni24
_symmetry_space_group_name_H-M   'P 1'
_cell_length_a   7.47645521
_cell_length_b   7.47645521
_cell_length_c   10.57330436
_cell_angle_alpha   90.00000000
_cell_angle_beta   90.00000000
_cell_angle_gamma   90.00000000
_symmetry_Int_Tables_number   1
_chemical_formula_structural   Cr17Fe13Ni24
_chemical_formula_sum   'Cr17 Fe13 Ni24'
_cell_volume   591.02003887
_cell_formula_units_Z   1
loop_
 _symmetry_equiv_pos_site_id
 _symmetry_equiv_pos_as_xyz
  1  'x, y, z'
loop_
 _atom_site_type_symbol
 _atom_site_label
 _atom_site_symmetry_multiplicity
 _atom_site_fract_x
 _atom_site_fract_y
 _atom_site_fract_z
 _atom_site_occupancy
  Ni  Ni0  1  0.00369956  0.99917990  0.99770872  1
  Ni  Ni1  1  0.16851962  0.16547138  0.16251371  1
  Cr  Cr2  1  0.00407962  0.00102573  0.33180936  1
  Fe  Fe3  1  0.00113262  0.33064841  0.00002731  1
  Fe  Fe4  1  0.16659834  0.49661105  0.16467153  1
  Ni  Ni5  1  0.00094684  0.33467041  0.33193416  1
  Cr  Cr6  1  0.99762172  0.67120993  0.99781849  1
  Cr  Cr7  1  0.16923763  0.83213881  0.16668714  1
  Fe  Fe8  1  0.00003013  0.66448679  0.33379878  1
  Ni  Ni9  1  0.33227065  0.00233871  0.99739031  1
  Ni  Ni10  1  0.49760817  0.16631604  0.16408880  1
  Ni  Ni11  1  0.33498671  0.99784589  0.33279890  1
  Fe  Fe12  1  0.33336105  0.33069517  0.99880781  1
  Ni  Ni13  1  0.49646882  0.50058906  0.16348039  1
  Cr  Cr14  1  0.33110915  0.32769848  0.33098219  1
  Fe  Fe15  1  0.33360429  0.66847969  0.99818090  1
  Fe  Fe16  1  0.50090662  0.83563836  0.16554370  1
  Fe  Fe17  1  0.33225467  0.66328211  0.33212917  1
  Fe  Fe18  1  0.66472396  0.99933635  0.99809362  1
  Cr  Cr19  1  0.83266445  0.16488215  0.16223620  1
  Fe  Fe20  1  0.66413579  0.00195976  0.33091625  1
  Ni  Ni21  1  0.65894907  0.33332009  0.99703859  1
  Cr  Cr22  1  0.83169951  0.49849672  0.16625104  1
  Cr  Cr23  1  0.66332119  0.33597499  0.33630395  1
  Cr  Cr24  1  0.66438630  0.66620269  0.99706128  1
  Ni  Ni25  1  0.83220311  0.83351379  0.16665418  1
  Ni  Ni26  1  0.66522300  0.66782002  0.32980441  1
  Cr  Cr27  1  0.16767249  0.16392705  0.50213659  1
  Ni  Ni28  1  0.00260317  0.99717658  0.66943155  1
  Ni  Ni29  1  0.16799468  0.16352791  0.83373581  1
  Ni  Ni30  1  0.16379022  0.49990926  0.49872073  1
  Ni  Ni31  1  0.00480247  0.33298354  0.66536922  1
  Cr  Cr32  1  0.16791550  0.49935102  0.83433952  1
  Ni  Ni33  1  0.16641386  0.82906984  0.50103891  1
  Ni  Ni34  1  0.99928904  0.66781052  0.66421146  1
  Ni  Ni35  1  0.16658787  0.83444053  0.83063070  1
  Ni  Ni36  1  0.49846963  0.16417720  0.50283971  1
  Fe  Fe37  1  0.33223935  0.99795387  0.66846580  1
  Ni  Ni38  1  0.49853407  0.16557425  0.83168772  1
  Cr  Cr39  1  0.49707438  0.49943412  0.50354878  1
  Ni  Ni40  1  0.33423183  0.32951614  0.66854703  1
  Ni  Ni41  1  0.49689740  0.49841502  0.83270080  1
  Cr  Cr42  1  0.49544370  0.83484583  0.49676406  1
  Fe  Fe43  1  0.32806290  0.66539496  0.66789419  1
  Ni  Ni44  1  0.49587004  0.83402753  0.83435019  1
  Cr  Cr45  1  0.83171611  0.16854500  0.50242776  1
  Fe  Fe46  1  0.66593485  0.00001657  0.66870062  1
  Cr  Cr47  1  0.83484671  0.16504670  0.83457014  1
  Ni  Ni48  1  0.83560937  0.50057292  0.49988958  1
  Fe  Fe49  1  0.66670434  0.33163190  0.66747872  1
  Cr  Cr50  1  0.83352332  0.49677193  0.83094814  1
  Cr  Cr51  1  0.83273621  0.83344626  0.49759464  1
  Cr  Cr52  1  0.66571639  0.66701399  0.67061596  1
  Ni  Ni53  1  0.83360350  0.83561306  0.83265679  1
" 