7679,Ni44Fe56_13,-242.667081795276, 223.470725225167,Ni44Fe56,"# generated using pymatgen
 data_Fe23Ni31
_symmetry_space_group_name_H-M   'P 1'
_cell_length_a   7.41109757
_cell_length_b   7.41109757
_cell_length_c   10.48087469
_cell_angle_alpha   90.00000000
_cell_angle_beta   90.00000000
_cell_angle_gamma   90.00000000
_symmetry_Int_Tables_number   1
_chemical_formula_structural   Fe23Ni31
_chemical_formula_sum   'Fe23 Ni31'
_cell_volume   575.65540978
_cell_formula_units_Z   1
loop_
 _symmetry_equiv_pos_site_id
 _symmetry_equiv_pos_as_xyz
  1  'x, y, z'
loop_
 _atom_site_type_symbol
 _atom_site_label
 _atom_site_symmetry_multiplicity
 _atom_site_fract_x
 _atom_site_fract_y
 _atom_site_fract_z
 _atom_site_occupancy
  Ni  Ni0  1  1.00359359  1.00326722  0.00394355  1
  Fe  Fe1  1  0.16917526  0.17099998  0.17005500  1
  Fe  Fe2  1  1.00326658  1.00357681  0.33692154  1
  Ni  Ni3  1  1.00324301  0.33734400  0.00438375  1
  Ni  Ni4  1  0.17128764  0.50425339  0.16984866  1
  Fe  Fe5  1  1.00299250  0.33757247  0.33675702  1
  Ni  Ni6  1  0.00594904  0.67071642  1.00342351  1
  Ni  Ni7  1  0.17046413  0.83692816  0.17010063  1
  Ni  Ni8  1  0.00511620  0.67099990  0.33739770  1
  Fe  Fe9  1  0.33602054  1.00335064  1.00332234  1
  Fe  Fe10  1  0.50499027  0.17119776  0.17099081  1
  Fe  Fe11  1  0.33680930  1.00361589  0.33807788  1
  Fe  Fe12  1  0.33655478  0.33753576  0.00384474  1
  Ni  Ni13  1  0.50363522  0.50336821  0.17074442  1
  Fe  Fe14  1  0.33707568  0.33752686  0.33718094  1
  Ni  Ni15  1  0.33555550  0.67069237  0.00395883  1
  Fe  Fe16  1  0.50412609  0.83622800  0.17005141  1
  Fe  Fe17  1  0.33691442  0.67018366  0.33624541  1
  Ni  Ni18  1  0.67069932  0.00511870  1.00372877  1
  Ni  Ni19  1  0.83704721  0.17084757  0.17050985  1
  Fe  Fe20  1  0.67125054  1.00374270  0.33757256  1
  Ni  Ni21  1  0.67067115  0.33586242  1.00328217  1
  Ni  Ni22  1  0.83640408  0.50303655  0.16977549  1
  Ni  Ni23  1  0.67004980  0.33629303  0.33797002  1
  Fe  Fe24  1  0.67143753  0.67020855  1.00298950  1
  Ni  Ni25  1  0.83793544  0.83743936  0.17009579  1
  Fe  Fe26  1  0.67129699  0.66990634  0.33773948  1
  Ni  Ni27  1  0.17093459  0.16994697  0.50296038  1
  Fe  Fe28  1  1.00255012  0.00391763  0.67085380  1
  Ni  Ni29  1  0.16999266  0.16966327  0.83792977  1
  Fe  Fe30  1  0.16975034  0.50400693  0.50291591  1
  Fe  Fe31  1  1.00201941  0.33658240  0.67085813  1
  Fe  Fe32  1  0.16986137  0.50449557  0.83828257  1
  Ni  Ni33  1  0.17125872  0.83777316  0.50392320  1
  Fe  Fe34  1  1.00180582  0.67082642  0.67015621  1
  Ni  Ni35  1  0.17117938  0.83826989  0.83730150  1
  Ni  Ni36  1  0.50347587  0.17063286  0.50436402  1
  Fe  Fe37  1  0.33824435  1.00361682  0.66992544  1
  Fe  Fe38  1  0.50511402  0.16994813  0.83654520  1
  Fe  Fe39  1  0.50477606  0.50340377  0.50400335  1
  Fe  Fe40  1  0.33846846  0.33657905  0.67030010  1
  Ni  Ni41  1  0.50463055  0.50421578  0.83697125  1
  Ni  Ni42  1  0.50312946  0.83710888  0.50340446  1
  Fe  Fe43  1  0.33898208  0.67112895  0.67123077  1
  Ni  Ni44  1  0.50313391  0.83593843  0.83773322  1
  Ni  Ni45  1  0.83691124  0.17146735  0.50394316  1
  Ni  Ni46  1  0.67016315  0.00435363  0.66950985  1
  Ni  Ni47  1  0.83783935  0.17116084  0.83687307  1
  Ni  Ni48  1  0.83624525  0.50325724  0.50325454  1
  Ni  Ni49  1  0.67018496  0.33635391  0.67007601  1
  Ni  Ni50  1  0.83550490  0.50303003  0.83829441  1
  Ni  Ni51  1  0.83693852  0.83659888  0.50394336  1
  Ni  Ni52  1  0.67016865  0.67061399  0.67008949  1
  Ni  Ni53  1  0.83701137  0.83713286  0.83728142  1
" 