7029,Ni44Fe18Cr36_17,-225.0300377661, 171.150802769016,Ni44Fe18Cr36,"# generated using pymatgen
 data_Cr21Fe10Ni23
_symmetry_space_group_name_H-M   'P 1'
_cell_length_a   7.47853910
_cell_length_b   7.47853910
_cell_length_c   10.57625142
_cell_angle_alpha   90.00000000
_cell_angle_beta   90.00000000
_cell_angle_gamma   90.00000000
_symmetry_Int_Tables_number   1
_chemical_formula_structural   Cr21Fe10Ni23
_chemical_formula_sum   'Cr21 Fe10 Ni23'
_cell_volume   591.51437593
_cell_formula_units_Z   1
loop_
 _symmetry_equiv_pos_site_id
 _symmetry_equiv_pos_as_xyz
  1  'x, y, z'
loop_
 _atom_site_type_symbol
 _atom_site_label
 _atom_site_symmetry_multiplicity
 _atom_site_fract_x
 _atom_site_fract_y
 _atom_site_fract_z
 _atom_site_occupancy
  Cr  Cr0  1  0.99838093  -0.00072558  0.00141963  1
  Ni  Ni1  1  0.16613179  0.16381321  0.16438196  1
  Fe  Fe2  1  0.00173633  -0.00054250  0.33191729  1
  Fe  Fe3  1  0.00264834  0.33234443  0.99920965  1
  Ni  Ni4  1  0.16636008  0.49689180  0.16426897  1
  Cr  Cr5  1  0.00088960  0.33013461  0.33303163  1
  Cr  Cr6  1  0.99919008  0.66626549  0.00047464  1
  Ni  Ni7  1  0.16652199  0.83694805  0.16765406  1
  Cr  Cr8  1  0.00188353  0.66695340  0.33021000  1
  Ni  Ni9  1  0.33103440  0.00136611  0.00178832  1
  Cr  Cr10  1  0.49682102  0.16611025  0.16432883  1
  Ni  Ni11  1  0.33320930  0.99804113  0.33223377  1
  Ni  Ni12  1  0.33064788  0.33395093  -0.00062891  1
  Ni  Ni13  1  0.50138712  0.49966940  0.16448313  1
  Cr  Cr14  1  0.32984830  0.33345244  0.33145361  1
  Cr  Cr15  1  0.33311194  0.66309338  0.00178769  1
  Ni  Ni16  1  0.50000137  0.83270820  0.16831413  1
  Cr  Cr17  1  0.33144526  0.66633617  0.33193543  1
  Cr  Cr18  1  0.66680544  0.99591292  0.99847612  1
  Fe  Fe19  1  0.83258239  0.16465225  0.16670214  1
  Ni  Ni20  1  0.66755072  0.99829175  0.33159883  1
  Ni  Ni21  1  0.66329820  0.33461348  0.00040519  1
  Cr  Cr22  1  0.82993777  0.49873676  0.16534225  1
  Fe  Fe23  1  0.66528621  0.33028232  0.33144061  1
  Ni  Ni24  1  0.66489046  0.66524086  0.00107146  1
  Ni  Ni25  1  0.83123561  0.83260926  0.16690000  1
  Fe  Fe26  1  0.66421556  0.66917231  0.33052675  1
  Ni  Ni27  1  0.16454966  0.16029275  0.50086161  1
  Ni  Ni28  1  0.00143022  0.00000278  0.66389241  1
  Ni  Ni29  1  0.16565846  0.16599903  0.83272749  1
  Fe  Fe30  1  0.16455524  0.50059402  0.50177036  1
  Ni  Ni31  1  0.00140232  0.33209429  0.66514132  1
  Ni  Ni32  1  0.16538159  0.49705166  0.83067551  1
  Ni  Ni33  1  0.16672855  0.83646068  0.50068597  1
  Ni  Ni34  1  0.00061857  0.66548612  0.66583558  1
  Cr  Cr35  1  0.16532664  0.83603059  0.82996624  1
  Cr  Cr36  1  0.49820677  0.16435893  0.49889784  1
  Ni  Ni37  1  0.32945342  0.99874637  0.66369859  1
  Cr  Cr38  1  0.49462865  0.16825744  0.83452920  1
  Cr  Cr39  1  0.50280752  0.50087411  0.49963035  1
  Cr  Cr40  1  0.33072711  0.33335563  0.66686142  1
  Ni  Ni41  1  0.50149789  0.49912761  0.83327479  1
  Fe  Fe42  1  0.49711583  0.83377328  0.49898528  1
  Fe  Fe43  1  0.33140509  0.66590334  0.66507366  1
  Cr  Cr44  1  0.49717063  0.83067809  0.83119951  1
  Fe  Fe45  1  0.83497966  0.16485755  0.50030572  1
  Cr  Cr46  1  0.66655941  -0.00071508  0.66720858  1
  Cr  Cr47  1  0.83577670  0.16921042  0.83076917  1
  Cr  Cr48  1  0.83208766  0.49842152  0.50074617  1
  Ni  Ni49  1  0.66716910  0.33431621  0.66497809  1
  Cr  Cr50  1  0.83137806  0.50040262  0.83191064  1
  Cr  Cr51  1  0.83506349  0.83059015  0.50013474  1
  Ni  Ni52  1  0.66581835  0.66580480  0.66710342  1
  Fe  Fe53  1  0.83396373  0.83021417  0.83092109  1
" 