7170,Ni44Fe26Cr28_11,-229.504954283704, 183.19164701324,Ni44Fe26Cr28,"# generated using pymatgen
 data_Cr8Fe7Ni12
_symmetry_space_group_name_H-M   'P 1'
_cell_length_a   7.46684022
_cell_length_b   7.46684022
_cell_length_c   10.55970671
_cell_angle_alpha   90.00000000
_cell_angle_beta   90.00000000
_cell_angle_gamma   90.00000000
_symmetry_Int_Tables_number   1
_chemical_formula_structural   Cr8Fe7Ni12
_chemical_formula_sum   'Cr16 Fe14 Ni24'
_cell_volume   588.74275037
_cell_formula_units_Z   2
loop_
 _symmetry_equiv_pos_site_id
 _symmetry_equiv_pos_as_xyz
  1  'x, y, z'
loop_
 _atom_site_type_symbol
 _atom_site_label
 _atom_site_symmetry_multiplicity
 _atom_site_fract_x
 _atom_site_fract_y
 _atom_site_fract_z
 _atom_site_occupancy
  Fe  Fe0  1  0.00008239  0.00089522  0.99925635  1
  Ni  Ni1  1  0.16666783  0.16651416  0.16550165  1
  Fe  Fe2  1  0.99970058  0.00135844  0.33257164  1
  Ni  Ni3  1  0.99811294  0.33419266  0.00073481  1
  Cr  Cr4  1  0.16591455  0.50026495  0.15845678  1
  Cr  Cr5  1  0.99987928  0.33406981  0.33365833  1
  Ni  Ni6  1  0.99804841  0.66672673  0.99735025  1
  Cr  Cr7  1  0.16718627  0.83585489  0.16225679  1
  Cr  Cr8  1  0.99978552  0.66466331  0.33348935  1
  Ni  Ni9  1  0.33643290  0.00061886  0.99981683  1
  Ni  Ni10  1  0.50140672  0.16558832  0.16496178  1
  Fe  Fe11  1  0.33541011  0.00069727  0.33042347  1
  Ni  Ni12  1  0.33436372  0.32990706  0.00158240  1
  Fe  Fe13  1  0.50274804  0.49971704  0.16296427  1
  Cr  Cr14  1  0.33295570  0.33399445  0.33161506  1
  Ni  Ni15  1  0.33485504  0.66948265  0.00072492  1
  Ni  Ni16  1  0.50142915  0.83504769  0.16529160  1
  Cr  Cr17  1  0.33531064  0.66667118  0.32984727  1
  Ni  Ni18  1  0.66472934  0.00015686  0.99912637  1
  Ni  Ni19  1  0.83227780  0.16746467  0.16544816  1
  Ni  Ni20  1  0.66526866  0.99950321  0.33265897  1
  Ni  Ni21  1  0.66745712  0.33194107  0.00317423  1
  Ni  Ni22  1  0.83088132  0.49835710  0.16406125  1
  Fe  Fe23  1  0.66610358  0.33439533  0.33090257  1
  Ni  Ni24  1  0.66833963  0.66774952  0.99978913  1
  Cr  Cr25  1  0.83181700  0.83406569  0.16641219  1
  Fe  Fe26  1  0.66592353  0.66616137  0.33295969  1
  Fe  Fe27  1  0.16731732  0.16682583  0.50198177  1
  Ni  Ni28  1  0.99989796  0.99729446  0.66595359  1
  Cr  Cr29  1  0.16778171  0.16632561  0.83197536  1
  Ni  Ni30  1  0.16819106  0.49938855  0.50480190  1
  Fe  Fe31  1  0.00011797  0.33522646  0.66712409  1
  Cr  Cr32  1  0.16658258  0.50227530  0.83603852  1
  Cr  Cr33  1  0.16706794  0.83398974  0.49887427  1
  Ni  Ni34  1  0.00104103  0.66764643  0.66656322  1
  Fe  Fe35  1  0.16625652  0.83325862  0.83412463  1
  Cr  Cr36  1  0.49874370  0.16565203  0.50107052  1
  Fe  Fe37  1  0.33253987  0.99620834  0.66875415  1
  Ni  Ni38  1  0.49795297  0.16461609  0.83587389  1
  Ni  Ni39  1  0.49859950  0.50226860  0.49998422  1
  Fe  Fe40  1  0.33245190  0.33458156  0.66704779  1
  Cr  Cr41  1  0.50057482  0.49834883  0.83777336  1
  Ni  Ni42  1  0.50171042  0.83074493  0.50026061  1
  Ni  Ni43  1  0.33313999  0.66665152  0.66671607  1
  Fe  Fe44  1  0.49960782  0.83184552  0.83596069  1
  Cr  Cr45  1  0.83398317  0.16396151  0.49908645  1
  Cr  Cr46  1  0.66592760  0.99722693  0.67200376  1
  Cr  Cr47  1  0.83198347  0.16785419  0.83805406  1
  Fe  Fe48  1  0.83166999  0.50282646  0.50165877  1
  Cr  Cr49  1  0.66608044  0.33379473  0.66854261  1
  Ni  Ni50  1  0.83419457  0.50431476  0.83395467  1
  Ni  Ni51  1  0.83166908  0.83200574  0.49958583  1
  Fe  Fe52  1  0.66759160  0.66757501  0.66762429  1
  Ni  Ni53  1  0.83498710  0.83198267  0.83432470  1
" 