618,Ni44Fe24Cr30_1,-228.444570181882, 185.4157835398,Ni44Fe24Cr30,"# generated using pymatgen
 data_Cr17Fe13Ni24
_symmetry_space_group_name_H-M   'P 1'
_cell_length_a   7.45997018
_cell_length_b   7.45997018
_cell_length_c   10.54999100
_cell_angle_alpha   90.00000000
_cell_angle_beta   90.00000000
_cell_angle_gamma   90.00000000
_symmetry_Int_Tables_number   1
_chemical_formula_structural   Cr17Fe13Ni24
_chemical_formula_sum   'Cr17 Fe13 Ni24'
_cell_volume   587.11918437
_cell_formula_units_Z   1
loop_
 _symmetry_equiv_pos_site_id
 _symmetry_equiv_pos_as_xyz
  1  'x, y, z'
loop_
 _atom_site_type_symbol
 _atom_site_label
 _atom_site_symmetry_multiplicity
 _atom_site_fract_x
 _atom_site_fract_y
 _atom_site_fract_z
 _atom_site_occupancy
  Cr  Cr0  1  0.00128784  0.00156143  0.00293100  1
  Ni  Ni1  1  0.16814806  0.16630802  0.16588624  1
  Ni  Ni2  1  1.00031064  0.99875666  0.33261366  1
  Fe  Fe3  1  0.00226122  0.33118082  0.00083474  1
  Ni  Ni4  1  0.16795752  0.50014384  0.16545869  1
  Cr  Cr5  1  0.00377069  0.33265720  0.33089264  1
  Cr  Cr6  1  0.00180062  0.66668027  0.00108481  1
  Ni  Ni7  1  0.16762441  0.83471532  0.16867483  1
  Ni  Ni8  1  0.99867580  0.66792014  0.33551485  1
  Ni  Ni9  1  0.33522436  0.00150678  1.00035599  1
  Ni  Ni10  1  0.49950141  0.16760374  0.16585944  1
  Cr  Cr11  1  0.33289688  0.00431854  0.33300951  1
  Ni  Ni12  1  0.33370184  0.33192042  0.00119075  1
  Cr  Cr13  1  0.49973570  0.49982101  0.16799354  1
  Ni  Ni14  1  0.33341715  0.33178225  0.33333977  1
  Fe  Fe15  1  0.33281673  0.66919257  0.00065709  1
  Ni  Ni16  1  0.49928760  0.83449599  0.16279467  1
  Cr  Cr17  1  0.33177304  0.66680312  0.33256156  1
  Fe  Fe18  1  0.66518825  0.00335957  0.00089693  1
  Ni  Ni19  1  0.83383268  0.16660315  0.16545253  1
  Cr  Cr20  1  0.66654703  1.00033213  0.33056066  1
  Ni  Ni21  1  0.66618834  0.33071105  0.00067779  1
  Cr  Cr22  1  0.83314728  0.49948816  0.16665596  1
  Fe  Fe23  1  0.66739276  0.33208853  0.33309720  1
  Fe  Fe24  1  0.66472332  0.66910636  0.00116646  1
  Fe  Fe25  1  0.83478027  0.83432360  0.16859197  1
  Ni  Ni26  1  0.67012535  0.66849721  0.33276126  1
  Ni  Ni27  1  0.16865148  0.16513467  0.50168775  1
  Ni  Ni28  1  0.00101001  0.99991094  0.66670171  1
  Fe  Fe29  1  0.16853134  0.16560813  0.83403735  1
  Fe  Fe30  1  0.16565245  0.49841711  0.49961874  1
  Cr  Cr31  1  0.00227440  0.33503379  0.66994151  1
  Fe  Fe32  1  0.16727017  0.49986720  0.83548990  1
  Fe  Fe33  1  0.16399559  0.83649160  0.50105486  1
  Ni  Ni34  1  0.00110825  0.66779328  0.66456975  1
  Ni  Ni35  1  0.16919605  0.83611900  0.83160722  1
  Ni  Ni36  1  0.49763451  0.16913046  0.50294185  1
  Ni  Ni37  1  0.33389889  0.00388261  0.66843150  1
  Fe  Fe38  1  0.50002333  0.16573072  0.83428384  1
  Cr  Cr39  1  0.50197817  0.49680403  0.49782006  1
  Ni  Ni40  1  0.33358859  0.33096010  0.66704006  1
  Cr  Cr41  1  0.49884610  0.49903321  0.83568402  1
  Cr  Cr42  1  0.50006893  0.83646869  0.50233414  1
  Cr  Cr43  1  0.33052847  0.66630156  0.66810187  1
  Fe  Fe44  1  0.49954908  0.83753398  0.83499427  1
  Cr  Cr45  1  0.83449824  0.16542848  0.50148017  1
  Ni  Ni46  1  0.66632237  0.00282689  0.66936046  1
  Ni  Ni47  1  0.83329643  0.16669648  0.83417411  1
  Ni  Ni48  1  0.83432368  0.50232010  0.50025769  1
  Fe  Fe49  1  0.66602241  0.33054784  0.66797794  1
  Cr  Cr50  1  0.83291706  0.49803864  0.83482497  1
  Ni  Ni51  1  0.83731952  0.83268712  0.50030515  1
  Cr  Cr52  1  0.66919958  0.66816123  0.66651802  1
  Cr  Cr53  1  0.83579362  0.83680971  0.83286204  1
" 