3334,Ni44Fe40Cr15_13,-234.282612381455, 205.196399385267,Ni44Fe40Cr15,"# generated using pymatgen
 data_Cr9Fe22Ni23
_symmetry_space_group_name_H-M   'P 1'
_cell_length_a   7.43363391
_cell_length_b   7.43363391
_cell_length_c   10.51274589
_cell_angle_alpha   90.00000000
_cell_angle_beta   90.00000000
_cell_angle_gamma   90.00000000
_symmetry_Int_Tables_number   1
_chemical_formula_structural   Cr9Fe22Ni23
_chemical_formula_sum   'Cr9 Fe22 Ni23'
_cell_volume   580.92291100
_cell_formula_units_Z   1
loop_
 _symmetry_equiv_pos_site_id
 _symmetry_equiv_pos_as_xyz
  1  'x, y, z'
loop_
 _atom_site_type_symbol
 _atom_site_label
 _atom_site_symmetry_multiplicity
 _atom_site_fract_x
 _atom_site_fract_y
 _atom_site_fract_z
 _atom_site_occupancy
  Ni  Ni0  1  0.00368945  0.99983773  0.00237766  1
  Ni  Ni1  1  0.16766029  0.16745107  0.17019329  1
  Ni  Ni2  1  0.00476022  1.00012851  0.33440027  1
  Fe  Fe3  1  1.00183849  0.33438603  1.00195265  1
  Ni  Ni4  1  0.16831651  0.50218897  0.16982280  1
  Ni  Ni5  1  0.00460746  0.33675822  0.33538367  1
  Ni  Ni6  1  0.00278549  0.67061242  1.00147797  1
  Fe  Fe7  1  0.16694272  0.83583883  0.16836298  1
  Ni  Ni8  1  0.00390405  0.66985174  0.33684741  1
  Ni  Ni9  1  0.33339332  1.00189748  1.00098026  1
  Fe  Fe10  1  0.50070245  0.17171732  0.16932964  1
  Ni  Ni11  1  0.33340183  0.00409598  0.33633457  1
  Cr  Cr12  1  0.33659042  0.33519280  1.00199918  1
  Fe  Fe13  1  0.50030919  0.49974849  0.16908931  1
  Ni  Ni14  1  0.33603532  0.33528023  0.33587065  1
  Fe  Fe15  1  0.33449980  0.67002509  1.00137288  1
  Cr  Cr16  1  0.49937497  0.83511140  0.16722400  1
  Fe  Fe17  1  0.33321782  0.66777057  0.33650065  1
  Cr  Cr18  1  0.66934698  0.00373336  1.00187493  1
  Fe  Fe19  1  0.83773167  0.16939303  0.16936595  1
  Cr  Cr20  1  0.66880168  0.00352694  0.33524323  1
  Ni  Ni21  1  0.66812809  0.33666627  1.00170033  1
  Cr  Cr22  1  0.83619808  0.50044530  0.16899112  1
  Ni  Ni23  1  0.66609741  0.33613596  0.33541968  1
  Fe  Fe24  1  0.66923737  0.66753079  1.00065512  1
  Fe  Fe25  1  0.84069609  0.83623460  0.16822846  1
  Cr  Cr26  1  0.67046592  0.66741721  0.33735716  1
  Fe  Fe27  1  0.17128219  0.16859047  0.50113809  1
  Ni  Ni28  1  0.00275183  1.00000611  0.66996677  1
  Ni  Ni29  1  0.16867560  0.16552168  0.83527645  1
  Fe  Fe30  1  0.17051902  0.50222535  0.49990438  1
  Cr  Cr31  1  0.00374434  0.33592096  0.67094716  1
  Fe  Fe32  1  0.17004597  0.50261432  0.83669667  1
  Fe  Fe33  1  0.16933788  0.83592712  0.50164586  1
  Cr  Cr34  1  1.00162966  0.67047415  0.66790775  1
  Ni  Ni35  1  0.16975375  0.83818945  0.83747626  1
  Fe  Fe36  1  0.50063398  0.17070885  0.50308840  1
  Fe  Fe37  1  0.33524944  0.00314760  0.66943673  1
  Ni  Ni38  1  0.50172029  0.16900511  0.83366159  1
  Ni  Ni39  1  0.50279000  0.50280101  0.50193900  1
  Ni  Ni40  1  0.33878750  0.33534708  0.66880366  1
  Ni  Ni41  1  0.50505762  0.50286300  0.83550279  1
  Ni  Ni42  1  0.50001210  0.83486452  0.50466766  1
  Fe  Fe43  1  0.33727810  0.66829723  0.66887215  1
  Fe  Fe44  1  0.50082506  0.83514476  0.83494786  1
  Cr  Cr45  1  0.83687855  0.17077010  0.50181224  1
  Fe  Fe46  1  0.66817035  0.00238447  0.66943680  1
  Fe  Fe47  1  0.83549322  0.16936809  0.83537819  1
  Ni  Ni48  1  0.83422237  0.50220622  0.50093858  1
  Ni  Ni49  1  0.66472464  0.33652340  0.66961756  1
  Ni  Ni50  1  0.83302807  0.50178556  0.83704177  1
  Fe  Fe51  1  0.83602075  0.83424634  0.50264842  1
  Fe  Fe52  1  0.66753369  0.66766934  0.66838739  1
  Fe  Fe53  1  0.83646422  0.83578460  0.83586726  1
" 