5439,Ni44Fe40Cr15_0,-234.041220955847, 200.672603475745,Ni44Fe40Cr15,"# generated using pymatgen
 data_Cr9Fe22Ni23
_symmetry_space_group_name_H-M   'P 1'
_cell_length_a   7.43475159
_cell_length_b   7.43475159
_cell_length_c   10.51432654
_cell_angle_alpha   90.00000000
_cell_angle_beta   90.00000000
_cell_angle_gamma   90.00000000
_symmetry_Int_Tables_number   1
_chemical_formula_structural   Cr9Fe22Ni23
_chemical_formula_sum   'Cr9 Fe22 Ni23'
_cell_volume   581.18498519
_cell_formula_units_Z   1
loop_
 _symmetry_equiv_pos_site_id
 _symmetry_equiv_pos_as_xyz
  1  'x, y, z'
loop_
 _atom_site_type_symbol
 _atom_site_label
 _atom_site_symmetry_multiplicity
 _atom_site_fract_x
 _atom_site_fract_y
 _atom_site_fract_z
 _atom_site_occupancy
  Ni  Ni0  1  1.00195869  1.00016572  1.00099476  1
  Ni  Ni1  1  0.16951700  0.16748940  0.17011426  1
  Ni  Ni2  1  1.00128440  0.00308709  0.33652673  1
  Cr  Cr3  1  0.00260549  0.33425993  1.00088143  1
  Fe  Fe4  1  0.16841810  0.50196173  0.16812043  1
  Ni  Ni5  1  0.00224349  0.33238819  0.33515545  1
  Ni  Ni6  1  0.00267623  0.67156849  1.00191598  1
  Ni  Ni7  1  0.16772774  0.83939237  0.16810332  1
  Cr  Cr8  1  1.00123761  0.67092746  0.33429477  1
  Ni  Ni9  1  0.33564529  1.00166976  1.00161378  1
  Fe  Fe10  1  0.50110092  0.16605040  0.16723689  1
  Fe  Fe11  1  0.33485629  0.00340411  0.33520206  1
  Ni  Ni12  1  0.33677021  0.33483350  1.00104608  1
  Cr  Cr13  1  0.50211240  0.50093389  0.16749466  1
  Ni  Ni14  1  0.33543737  0.33266255  0.33536675  1
  Ni  Ni15  1  0.33470009  0.67022576  1.00033515  1
  Fe  Fe16  1  0.50112542  0.83877621  0.16728526  1
  Cr  Cr17  1  0.33610042  0.67084059  0.33571686  1
  Ni  Ni18  1  0.66917838  1.00186465  0.00224900  1
  Fe  Fe19  1  0.83647761  0.16613987  0.16770918  1
  Fe  Fe20  1  0.66935543  0.00223786  0.33489851  1
  Ni  Ni21  1  0.66774661  0.33388439  0.99992556  1
  Fe  Fe22  1  0.83766067  0.50195402  0.16730508  1
  Cr  Cr23  1  0.66934270  0.33399941  0.33645531  1
  Fe  Fe24  1  0.66948101  0.67021256  1.00124975  1
  Ni  Ni25  1  0.83606883  0.83790501  0.16782416  1
  Cr  Cr26  1  0.66925191  0.67178138  0.33527875  1
  Fe  Fe27  1  0.16830912  0.16590215  0.50140599  1
  Ni  Ni28  1  1.00122530  1.00036667  0.66934188  1
  Ni  Ni29  1  0.16958136  0.16479439  0.83626449  1
  Cr  Cr30  1  0.16758749  0.50099783  0.50129558  1
  Cr  Cr31  1  1.00104422  0.33431609  0.67146607  1
  Fe  Fe32  1  0.16782440  0.50507221  0.83625493  1
  Fe  Fe33  1  0.16793789  0.83780361  0.50386644  1
  Ni  Ni34  1  1.00052020  0.67123577  0.66923556  1
  Ni  Ni35  1  0.16838797  0.83738080  0.83497601  1
  Fe  Fe36  1  0.50208014  0.16727202  0.50248241  1
  Fe  Fe37  1  0.33395621  1.00029792  0.66950081  1
  Fe  Fe38  1  0.50383331  0.16725812  0.83742506  1
  Fe  Fe39  1  0.50320706  0.50280505  0.50412844  1
  Cr  Cr40  1  0.33799709  0.33442517  0.67125356  1
  Ni  Ni41  1  0.50356555  0.50289705  0.83456816  1
  Ni  Ni42  1  0.50229777  0.83817117  0.50297460  1
  Fe  Fe43  1  0.33494989  0.67189599  0.66992820  1
  Fe  Fe44  1  0.50306635  0.83590232  0.83549108  1
  Fe  Fe45  1  0.83611902  0.16654248  0.50318681  1
  Fe  Fe46  1  0.66975070  1.00185841  0.66964713  1
  Ni  Ni47  1  0.83500762  0.16661065  0.83579604  1
  Ni  Ni48  1  0.83451469  0.50154276  0.50291840  1
  Fe  Fe49  1  0.67070848  0.33552270  0.66994728  1
  Ni  Ni50  1  0.83186799  0.50410976  0.83632801  1
  Fe  Fe51  1  0.83568696  0.83670314  0.50369849  1
  Fe  Fe52  1  0.66991480  0.66914603  0.66836612  1
  Ni  Ni53  1  0.83626411  0.83583946  0.83523855  1
" 