1386,Ni44Fe40Cr15_9,-233.77858107581, 196.090527740666,Ni44Fe40Cr15,"# generated using pymatgen
 data_Cr9Fe22Ni23
_symmetry_space_group_name_H-M   'P 1'
_cell_length_a   7.43679415
_cell_length_b   7.43679415
_cell_length_c   10.51721515
_cell_angle_alpha   90.00000000
_cell_angle_beta   90.00000000
_cell_angle_gamma   90.00000000
_symmetry_Int_Tables_number   1
_chemical_formula_structural   Cr9Fe22Ni23
_chemical_formula_sum   'Cr9 Fe22 Ni23'
_cell_volume   581.66412523
_cell_formula_units_Z   1
loop_
 _symmetry_equiv_pos_site_id
 _symmetry_equiv_pos_as_xyz
  1  'x, y, z'
loop_
 _atom_site_type_symbol
 _atom_site_label
 _atom_site_symmetry_multiplicity
 _atom_site_fract_x
 _atom_site_fract_y
 _atom_site_fract_z
 _atom_site_occupancy
  Ni  Ni0  1  1.00125656  0.00339167  0.99911395  1
  Cr  Cr1  1  0.17001132  0.17002206  0.16673652  1
  Cr  Cr2  1  0.99978890  0.00326770  0.33719490  1
  Ni  Ni3  1  1.00182741  0.33519644  0.00206017  1
  Fe  Fe4  1  0.16896741  0.50172347  0.16797255  1
  Fe  Fe5  1  0.00265341  0.33740827  0.33492943  1
  Ni  Ni6  1  0.00469638  0.66750810  1.00029529  1
  Cr  Cr7  1  0.16970468  0.83282243  0.16672666  1
  Ni  Ni8  1  0.00400503  0.66691834  0.33653467  1
  Ni  Ni9  1  0.33617783  0.00242670  1.00012087  1
  Ni  Ni10  1  0.50344179  0.16935301  0.16812640  1
  Fe  Fe11  1  0.33897115  1.00123252  0.33649705  1
  Ni  Ni12  1  0.33561818  0.33617510  1.00176347  1
  Ni  Ni13  1  0.50071620  0.50112619  0.16943507  1
  Fe  Fe14  1  0.33569389  0.33661843  0.33579200  1
  Ni  Ni15  1  0.33371150  0.66750095  1.00130177  1
  Fe  Fe16  1  0.50167213  0.83660622  0.16964681  1
  Ni  Ni17  1  0.33561857  0.66696325  0.33615994  1
  Ni  Ni18  1  0.66866888  0.00529595  0.00230847  1
  Ni  Ni19  1  0.83269315  0.17008669  0.16778730  1
  Ni  Ni20  1  0.66739381  1.00186672  0.33581790  1
  Ni  Ni21  1  0.66865492  0.33273664  1.00135242  1
  Fe  Fe22  1  0.83633603  0.49999748  0.16891649  1
  Cr  Cr23  1  0.66781332  0.33351720  0.33395869  1
  Cr  Cr24  1  0.66763067  0.66849388  1.00178205  1
  Cr  Cr25  1  0.83498014  0.83525207  0.16884082  1
  Ni  Ni26  1  0.66648079  0.67025467  0.33593649  1
  Fe  Fe27  1  0.16903136  0.16898926  0.50185047  1
  Fe  Fe28  1  1.00120037  1.00129748  0.66951437  1
  Fe  Fe29  1  0.16757981  0.16765075  0.83692263  1
  Fe  Fe30  1  0.16908635  0.50187372  0.50064654  1
  Fe  Fe31  1  1.00064817  0.33492396  0.66997454  1
  Ni  Ni32  1  0.16740831  0.50382598  0.83745803  1
  Fe  Fe33  1  0.16904122  0.83523445  0.50172103  1
  Fe  Fe34  1  1.00086887  0.66988259  0.66995774  1
  Ni  Ni35  1  0.16712089  0.83440673  0.83623872  1
  Ni  Ni36  1  0.50142612  0.16687920  0.50135127  1
  Fe  Fe37  1  0.33652172  1.00187715  0.66911091  1
  Ni  Ni38  1  0.50343993  0.16854288  0.83662075  1
  Fe  Fe39  1  0.50157247  0.50295764  0.50070919  1
  Cr  Cr40  1  0.33521116  0.33494157  0.66890244  1
  Fe  Fe41  1  0.50261882  0.50145519  0.83675355  1
  Fe  Fe42  1  0.50356508  0.83609893  0.50110098  1
  Cr  Cr43  1  0.33591062  0.66874147  0.66962014  1
  Fe  Fe44  1  0.50226299  0.83733483  0.83535517  1
  Fe  Fe45  1  0.83457631  0.16700456  0.50332061  1
  Ni  Ni46  1  0.67036361  1.00199495  0.66797606  1
  Ni  Ni47  1  0.83378281  0.16824856  0.83518793  1
  Cr  Cr48  1  0.83561197  0.50403562  0.50297381  1
  Fe  Fe49  1  0.66886909  0.33419190  0.66972569  1
  Fe  Fe50  1  0.83658901  0.50145241  0.83473626  1
  Fe  Fe51  1  0.83349854  0.83615327  0.50270998  1
  Ni  Ni52  1  0.66947940  0.67023237  0.66855971  1
  Ni  Ni53  1  0.83736908  0.83584854  0.83373145  1
" 