6882,Ni44Fe40Cr15_2,-233.764510408073, 205.113455215,Ni44Fe40Cr15,"# generated using pymatgen
 data_Cr9Fe22Ni23
_symmetry_space_group_name_H-M   'P 1'
_cell_length_a   7.42898407
_cell_length_b   7.42898407
_cell_length_c   10.50617003
_cell_angle_alpha   90.00000000
_cell_angle_beta   90.00000000
_cell_angle_gamma   90.00000000
_symmetry_Int_Tables_number   1
_chemical_formula_structural   Cr9Fe22Ni23
_chemical_formula_sum   'Cr9 Fe22 Ni23'
_cell_volume   579.83346870
_cell_formula_units_Z   1
loop_
 _symmetry_equiv_pos_site_id
 _symmetry_equiv_pos_as_xyz
  1  'x, y, z'
loop_
 _atom_site_type_symbol
 _atom_site_label
 _atom_site_symmetry_multiplicity
 _atom_site_fract_x
 _atom_site_fract_y
 _atom_site_fract_z
 _atom_site_occupancy
  Fe  Fe0  1  1.00043746  1.00056802  0.00353857  1
  Ni  Ni1  1  0.16919012  0.16898875  0.17110805  1
  Ni  Ni2  1  0.00352271  0.00354877  0.33513566  1
  Cr  Cr3  1  0.00414438  0.33667169  1.00231284  1
  Ni  Ni4  1  0.17237605  0.50224408  0.16935682  1
  Ni  Ni5  1  0.00311606  0.33467429  0.33695350  1
  Fe  Fe6  1  0.00274135  0.67133682  1.00172843  1
  Fe  Fe7  1  0.16807736  0.83443139  0.17020867  1
  Ni  Ni8  1  1.00222511  0.66946075  0.33433252  1
  Cr  Cr9  1  0.33660939  1.00152359  0.00325035  1
  Fe  Fe10  1  0.50178322  0.17071232  0.16988344  1
  Fe  Fe11  1  0.33444590  0.00401935  0.33587702  1
  Fe  Fe12  1  0.33657345  0.33832694  0.00328875  1
  Ni  Ni13  1  0.50014738  0.50338467  0.16941190  1
  Ni  Ni14  1  0.33606722  0.33532155  0.33468290  1
  Ni  Ni15  1  0.33567067  0.66820530  0.00289780  1
  Fe  Fe16  1  0.50276232  0.83357968  0.16899953  1
  Fe  Fe17  1  0.33752705  0.66794455  0.33451711  1
  Ni  Ni18  1  0.67030828  1.00123408  1.00252038  1
  Fe  Fe19  1  0.83702054  0.16752955  0.17066881  1
  Cr  Cr20  1  0.66899895  0.00296380  0.33584528  1
  Cr  Cr21  1  0.66822920  0.33515936  0.00299197  1
  Cr  Cr22  1  0.83490709  0.50449419  0.17152842  1
  Ni  Ni23  1  0.66849961  0.33662940  0.33659659  1
  Ni  Ni24  1  0.66794232  0.67163705  1.00066782  1
  Ni  Ni25  1  0.83617680  0.83748197  0.16790254  1
  Ni  Ni26  1  0.66874690  0.66816104  0.33808216  1
  Ni  Ni27  1  0.16791287  0.16845841  0.50330015  1
  Fe  Fe28  1  0.00402251  0.00303164  0.66900140  1
  Fe  Fe29  1  0.16946642  0.17035908  0.83426608  1
  Cr  Cr30  1  0.16975144  0.50054163  0.50209662  1
  Fe  Fe31  1  0.00394758  0.33539756  0.66985264  1
  Ni  Ni32  1  0.17041243  0.50295789  0.83573250  1
  Cr  Cr33  1  0.16966092  0.83829600  0.50171776  1
  Ni  Ni34  1  0.00273186  0.66833023  0.67140169  1
  Fe  Fe35  1  0.16900162  0.83337846  0.83441585  1
  Fe  Fe36  1  0.50001934  0.17001875  0.50182700  1
  Ni  Ni37  1  0.33523820  1.00247224  0.66894344  1
  Fe  Fe38  1  0.50132188  0.17008237  0.83597359  1
  Ni  Ni39  1  0.50427514  0.50423355  0.50186720  1
  Fe  Fe40  1  0.33488681  0.33588186  0.66960755  1
  Ni  Ni41  1  0.50115333  0.50431605  0.83640658  1
  Ni  Ni42  1  0.50327609  0.83393309  0.50293330  1
  Ni  Ni43  1  0.33564513  0.67005275  0.67071893  1
  Fe  Fe44  1  0.50228971  0.83315787  0.83565764  1
  Ni  Ni45  1  0.83861180  0.16945280  0.50117930  1
  Cr  Cr46  1  0.66780363  1.00208628  0.66881606  1
  Fe  Fe47  1  0.83689959  0.16911245  0.83571679  1
  Fe  Fe48  1  0.83509539  0.50313022  0.50159278  1
  Cr  Cr49  1  0.66981917  0.33704164  0.66826879  1
  Ni  Ni50  1  0.83612001  0.50503078  0.83452258  1
  Fe  Fe51  1  0.83606394  0.83441065  0.50160760  1
  Fe  Fe52  1  0.66827245  0.66927697  0.66918284  1
  Fe  Fe53  1  0.83639248  0.83366441  0.83744411  1
" 