3560,Ni44Fe40Cr15_8,-234.059802603099, 202.753503692049,Ni44Fe40Cr15,"# generated using pymatgen
 data_Cr9Fe22Ni23
_symmetry_space_group_name_H-M   'P 1'
_cell_length_a   7.43173812
_cell_length_b   7.43173812
_cell_length_c   10.51006485
_cell_angle_alpha   90.00000000
_cell_angle_beta   90.00000000
_cell_angle_gamma   90.00000000
_symmetry_Int_Tables_number   1
_chemical_formula_structural   Cr9Fe22Ni23
_chemical_formula_sum   'Cr9 Fe22 Ni23'
_cell_volume   580.47857030
_cell_formula_units_Z   1
loop_
 _symmetry_equiv_pos_site_id
 _symmetry_equiv_pos_as_xyz
  1  'x, y, z'
loop_
 _atom_site_type_symbol
 _atom_site_label
 _atom_site_symmetry_multiplicity
 _atom_site_fract_x
 _atom_site_fract_y
 _atom_site_fract_z
 _atom_site_occupancy
  Fe  Fe0  1  1.00192720  0.00387806  1.00191682  1
  Fe  Fe1  1  0.16739809  0.16765015  0.16865421  1
  Ni  Ni2  1  0.00404947  0.00441766  0.33546233  1
  Ni  Ni3  1  1.00103948  0.33512102  0.00247756  1
  Cr  Cr4  1  0.16998668  0.50183334  0.16903154  1
  Fe  Fe5  1  1.00086423  0.33334485  0.33639227  1
  Fe  Fe6  1  0.00323162  0.66759314  1.00065489  1
  Ni  Ni7  1  0.17165141  0.83627102  0.16774792  1
  Cr  Cr8  1  1.00144789  0.66881632  0.33571554  1
  Fe  Fe9  1  0.33659494  0.00252416  1.00215681  1
  Fe  Fe10  1  0.50371167  0.17002546  0.16800633  1
  Cr  Cr11  1  0.33401513  0.00285675  0.33543974  1
  Fe  Fe12  1  0.33650461  0.33521436  1.00171538  1
  Fe  Fe13  1  0.50433975  0.50191979  0.17104261  1
  Ni  Ni14  1  0.33761903  0.33546600  0.33595622  1
  Fe  Fe15  1  0.33485058  0.66939011  1.00173124  1
  Ni  Ni16  1  0.50046827  0.83616622  0.17055404  1
  Fe  Fe17  1  0.33840802  0.66785899  0.33645207  1
  Fe  Fe18  1  0.66860329  0.00552973  1.00089373  1
  Ni  Ni19  1  0.83501157  0.17033821  0.16965090  1
  Fe  Fe20  1  0.66947725  0.00430205  0.33557340  1
  Ni  Ni21  1  0.66984516  0.33537750  1.00227367  1
  Ni  Ni22  1  0.83491049  0.49805624  0.17040695  1
  Ni  Ni23  1  0.66861234  0.33782848  0.33504778  1
  Cr  Cr24  1  0.66953344  0.66700946  1.00099957  1
  Cr  Cr25  1  0.83498142  0.83846424  0.16918560  1
  Ni  Ni26  1  0.66669290  0.66600568  0.33545816  1
  Fe  Fe27  1  0.16787815  0.17020407  0.50329175  1
  Ni  Ni28  1  0.00684451  0.00469139  0.67023299  1
  Fe  Fe29  1  0.16813639  0.16896172  0.83517870  1
  Ni  Ni30  1  0.17270146  0.50062544  0.50215940  1
  Ni  Ni31  1  1.00214535  0.33443721  0.66820191  1
  Ni  Ni32  1  0.16959256  0.50187162  0.83607900  1
  Fe  Fe33  1  0.17089858  0.83678445  0.50280871  1
  Cr  Cr34  1  0.00273734  0.66791138  0.67112123  1
  Fe  Fe35  1  0.16929489  0.83692954  0.83641707  1
  Fe  Fe36  1  0.50243272  0.17198654  0.50288587  1
  Ni  Ni37  1  0.33345855  1.00230654  0.66938179  1
  Ni  Ni38  1  0.50270534  0.16879453  0.83592028  1
  Ni  Ni39  1  0.49905711  0.50173616  0.50145678  1
  Fe  Fe40  1  0.33529391  0.33543814  0.66835925  1
  Fe  Fe41  1  0.50246953  0.50048515  0.83520393  1
  Fe  Fe42  1  0.50014568  0.83426475  0.50162846  1
  Fe  Fe43  1  0.33528226  0.66884929  0.66894226  1
  Ni  Ni44  1  0.50053309  0.83758101  0.83537431  1
  Ni  Ni45  1  0.83662056  0.16990486  0.50159296  1
  Cr  Cr46  1  0.66742790  0.00452590  0.67019865  1
  Ni  Ni47  1  0.83539935  0.16927744  0.83588167  1
  Fe  Fe48  1  0.83429636  0.49785778  0.50157319  1
  Ni  Ni49  1  0.66930004  0.33664818  0.66980550  1
  Ni  Ni50  1  0.83815183  0.49969355  0.83541534  1
  Cr  Cr51  1  0.83506102  0.83974044  0.50045155  1
  Cr  Cr52  1  0.66812299  0.66535880  0.67053435  1
  Ni  Ni53  1  0.83651834  0.83815682  0.83758751  1
" 