5389,Ni44Fe24Cr30_14,-228.311737466379, 185.329502599617,Ni44Fe24Cr30,"# generated using pymatgen
 data_Cr17Fe13Ni24
_symmetry_space_group_name_H-M   'P 1'
_cell_length_a   7.46273111
_cell_length_b   7.46273111
_cell_length_c   10.55389554
_cell_angle_alpha   90.00000000
_cell_angle_beta   90.00000000
_cell_angle_gamma   90.00000000
_symmetry_Int_Tables_number   1
_chemical_formula_structural   Cr17Fe13Ni24
_chemical_formula_sum   'Cr17 Fe13 Ni24'
_cell_volume   587.77130319
_cell_formula_units_Z   1
loop_
 _symmetry_equiv_pos_site_id
 _symmetry_equiv_pos_as_xyz
  1  'x, y, z'
loop_
 _atom_site_type_symbol
 _atom_site_label
 _atom_site_symmetry_multiplicity
 _atom_site_fract_x
 _atom_site_fract_y
 _atom_site_fract_z
 _atom_site_occupancy
  Fe  Fe0  1  0.99819072  0.99667268  0.00178433  1
  Cr  Cr1  1  0.16678059  0.16560768  0.16642560  1
  Ni  Ni2  1  0.99947360  0.99870668  0.33175995  1
  Ni  Ni3  1  0.99781135  0.33372162  0.00225970  1
  Cr  Cr4  1  0.16549308  0.50252806  0.16508968  1
  Ni  Ni5  1  0.99899307  0.33392748  0.33441447  1
  Ni  Ni6  1  0.99956760  0.66881098  0.00092161  1
  Ni  Ni7  1  0.16578618  0.83411975  0.16599353  1
  Fe  Fe8  1  0.99726273  0.66686568  0.33238929  1
  Ni  Ni9  1  0.33428272  0.99693952  0.00200047  1
  Ni  Ni10  1  0.50162653  0.16558129  0.16496429  1
  Fe  Fe11  1  0.33417335  0.00034334  0.33173577  1
  Fe  Fe12  1  0.33705383  0.33469449  0.00162280  1
  Ni  Ni13  1  0.50352971  0.50145720  0.16361865  1
  Cr  Cr14  1  0.33474161  0.33387188  0.33437625  1
  Ni  Ni15  1  0.33455677  0.67052278  0.99859778  1
  Fe  Fe16  1  0.49972358  0.83182440  0.16456164  1
  Cr  Cr17  1  0.33539861  0.66680631  0.33309376  1
  Ni  Ni18  1  0.66627077  0.99855033  0.00055388  1
  Fe  Fe19  1  0.83337079  0.16847951  0.16561531  1
  Cr  Cr20  1  0.66744577  0.99890708  0.33195899  1
  Ni  Ni21  1  0.66788453  0.33389437  0.00223788  1
  Ni  Ni22  1  0.83244442  0.50202309  0.16702875  1
  Cr  Cr23  1  0.66711918  0.33577261  0.33413263  1
  Ni  Ni24  1  0.66688219  0.66833808  0.00131892  1
  Fe  Fe25  1  0.83349278  0.83184437  0.16587055  1
  Ni  Ni26  1  0.66866546  0.66701518  0.33225531  1
  Cr  Cr27  1  0.16691250  0.16611066  0.49862459  1
  Fe  Fe28  1  0.99900613  0.99831806  0.66735138  1
  Cr  Cr29  1  0.16606052  0.16591018  0.83595958  1
  Ni  Ni30  1  0.16410154  0.50164599  0.50030652  1
  Ni  Ni31  1  0.99963182  0.33501176  0.66481461  1
  Cr  Cr32  1  0.16725234  0.50110087  0.83636037  1
  Cr  Cr33  1  0.16525428  0.83241976  0.49995605  1
  Fe  Fe34  1  0.00049992  0.66701585  0.66768432  1
  Fe  Fe35  1  0.16801795  0.83388300  0.83486652  1
  Ni  Ni36  1  0.50117554  0.16670016  0.50201702  1
  Ni  Ni37  1  0.33318245  0.99741953  0.66650020  1
  Cr  Cr38  1  0.50156197  0.16694337  0.83368624  1
  Ni  Ni39  1  0.50106875  0.50081822  0.50102673  1
  Cr  Cr40  1  0.33434113  0.33476958  0.66585622  1
  Ni  Ni41  1  0.50118759  0.50259846  0.83610286  1
  Cr  Cr42  1  0.50202958  0.83484421  0.49969923  1
  Fe  Fe43  1  0.33370533  0.66625454  0.66801637  1
  Ni  Ni44  1  0.50071529  0.83333484  0.83465048  1
  Cr  Cr45  1  0.83293602  0.16535377  0.50217544  1
  Fe  Fe46  1  0.66670832  1.00000851  0.66786350  1
  Cr  Cr47  1  0.83324943  0.16646410  0.83431852  1
  Fe  Fe48  1  0.83431639  0.50224207  0.49959160  1
  Ni  Ni49  1  0.66743792  0.33526018  0.66509711  1
  Cr  Cr50  1  0.83215987  0.50038198  0.83498416  1
  Ni  Ni51  1  0.83467966  0.83169512  0.49941988  1
  Cr  Cr52  1  0.66705818  0.66735192  0.66735514  1
  Ni  Ni53  1  0.83334509  0.83393387  0.83475055  1
" 