1622,Ni44Fe18Cr36_16,-225.604272386651, 172.374182836819,Ni44Fe18Cr36,"# generated using pymatgen
 data_Cr21Fe10Ni23
_symmetry_space_group_name_H-M   'P 1'
_cell_length_a   7.48386536
_cell_length_b   7.48386536
_cell_length_c   10.58378389
_cell_angle_alpha   90.00000000
_cell_angle_beta   90.00000000
_cell_angle_gamma   90.00000000
_symmetry_Int_Tables_number   1
_chemical_formula_structural   Cr21Fe10Ni23
_chemical_formula_sum   'Cr21 Fe10 Ni23'
_cell_volume   592.77911502
_cell_formula_units_Z   1
loop_
 _symmetry_equiv_pos_site_id
 _symmetry_equiv_pos_as_xyz
  1  'x, y, z'
loop_
 _atom_site_type_symbol
 _atom_site_label
 _atom_site_symmetry_multiplicity
 _atom_site_fract_x
 _atom_site_fract_y
 _atom_site_fract_z
 _atom_site_occupancy
  Fe  Fe0  1  0.00038507  -0.00046053  -0.00002468  1
  Fe  Fe1  1  0.16625097  0.16184693  0.16512132  1
  Ni  Ni2  1  0.99676672  0.99756356  0.32976069  1
  Cr  Cr3  1  0.99842247  0.32908315  0.99666268  1
  Cr  Cr4  1  0.16794824  0.49935337  0.16599118  1
  Cr  Cr5  1  0.99500603  0.33070501  0.33167488  1
  Cr  Cr6  1  0.00022977  0.66664181  -0.00071484  1
  Ni  Ni7  1  0.16446350  0.83541762  0.16605430  1
  Ni  Ni8  1  0.99837264  0.66881367  0.33321785  1
  Ni  Ni9  1  0.33375291  0.99783871  -0.00048962  1
  Ni  Ni10  1  0.49839123  0.16369256  0.16702060  1
  Fe  Fe11  1  0.33319101  0.00145656  0.32933543  1
  Ni  Ni12  1  0.33176991  0.32926371  0.99798331  1
  Cr  Cr13  1  0.49794361  0.49623353  0.16416820  1
  Fe  Fe14  1  0.33463843  0.32734073  0.33073902  1
  Ni  Ni15  1  0.33145208  0.66932444  0.99737812  1
  Fe  Fe16  1  0.50004887  0.83614005  0.16309916  1
  Cr  Cr17  1  0.32988524  0.66915220  0.33147787  1
  Ni  Ni18  1  0.66301224  -0.00036824  -0.00097394  1
  Ni  Ni19  1  0.83004685  0.15961007  0.16627445  1
  Ni  Ni20  1  0.66659592  0.00337340  0.33279004  1
  Cr  Cr21  1  0.66694405  0.32755760  -0.00075366  1
  Cr  Cr22  1  0.83054015  0.50006800  0.16616566  1
  Ni  Ni23  1  0.66522386  0.32654295  0.33329620  1
  Fe  Fe24  1  0.66314657  0.66900995  0.99863631  1
  Ni  Ni25  1  0.83427174  0.83730018  0.16599439  1
  Cr  Cr26  1  0.66871754  0.66697273  0.33264750  1
  Cr  Cr27  1  0.16563588  0.16441306  0.49848845  1
  Ni  Ni28  1  0.99691729  0.00170540  0.66684297  1
  Fe  Fe29  1  0.16596264  0.16393563  0.83245315  1
  Cr  Cr30  1  0.16510465  0.49733742  0.49897982  1
  Fe  Fe31  1  0.99710793  0.32950548  0.66693748  1
  Fe  Fe32  1  0.16590512  0.49771227  0.83311681  1
  Cr  Cr33  1  0.16062907  0.83457815  0.49682232  1
  Cr  Cr34  1  0.99880620  0.66456117  0.66405850  1
  Ni  Ni35  1  0.16679664  0.83396023  0.83379379  1
  Ni  Ni36  1  0.50112628  0.16618650  0.49692149  1
  Cr  Cr37  1  0.33460936  -0.00073874  0.66742164  1
  Ni  Ni38  1  0.49804781  0.16369713  0.83259791  1
  Cr  Cr39  1  0.49889373  0.49399156  0.49714614  1
  Fe  Fe40  1  0.33187277  0.32912589  0.66760920  1
  Cr  Cr41  1  0.49781022  0.49853522  0.83520190  1
  Cr  Cr42  1  0.50195897  0.83677438  0.49915567  1
  Cr  Cr43  1  0.33100095  0.66708599  0.66825613  1
  Ni  Ni44  1  0.49675252  0.83528168  0.83595630  1
  Ni  Ni45  1  0.83044307  0.16281805  0.49905608  1
  Ni  Ni46  1  0.66690301  0.00280904  0.66499606  1
  Ni  Ni47  1  0.83282808  0.16454226  0.83109001  1
  Ni  Ni48  1  0.83301183  0.49795088  0.49742227  1
  Cr  Cr49  1  0.66797472  0.32807984  0.66430658  1
  Ni  Ni50  1  0.83402000  0.49681267  0.83206223  1
  Ni  Ni51  1  0.83380081  0.83577911  0.49787792  1
  Cr  Cr52  1  0.66650563  0.66730367  0.66538273  1
  Cr  Cr53  1  0.83148279  0.83610791  0.83283961  1
" 