5874,Ni44Fe18Cr36_11,-224.89503611724, 170.263908891723,Ni44Fe18Cr36,"# generated using pymatgen
 data_Cr21Fe10Ni23
_symmetry_space_group_name_H-M   'P 1'
_cell_length_a   7.48021637
_cell_length_b   7.48021637
_cell_length_c   10.57862344
_cell_angle_alpha   90.00000000
_cell_angle_beta   90.00000000
_cell_angle_gamma   90.00000000
_symmetry_Int_Tables_number   1
_chemical_formula_structural   Cr21Fe10Ni23
_chemical_formula_sum   'Cr21 Fe10 Ni23'
_cell_volume   591.91245591
_cell_formula_units_Z   1
loop_
 _symmetry_equiv_pos_site_id
 _symmetry_equiv_pos_as_xyz
  1  'x, y, z'
loop_
 _atom_site_type_symbol
 _atom_site_label
 _atom_site_symmetry_multiplicity
 _atom_site_fract_x
 _atom_site_fract_y
 _atom_site_fract_z
 _atom_site_occupancy
  Ni  Ni0  1  0.00153046  0.99826897  0.99902285  1
  Ni  Ni1  1  0.16705974  0.16365576  0.16541723  1
  Ni  Ni2  1  -0.00005732  0.00055114  0.33243786  1
  Cr  Cr3  1  -0.00010895  0.33220993  0.99840802  1
  Fe  Fe4  1  0.16684484  0.49630086  0.16650235  1
  Cr  Cr5  1  0.00031288  0.33168019  0.33366771  1
  Cr  Cr6  1  0.99778532  0.66637327  0.99897792  1
  Cr  Cr7  1  0.16404535  0.83612582  0.16618883  1
  Cr  Cr8  1  0.99877349  0.66565820  0.33225029  1
  Ni  Ni9  1  0.32984638  0.00067278  -0.00074241  1
  Ni  Ni10  1  0.49743383  0.16936141  0.16618432  1
  Fe  Fe11  1  0.33202202  0.00328901  0.33277222  1
  Cr  Cr12  1  0.33236898  0.33119604  0.00081761  1
  Ni  Ni13  1  0.50273854  0.49603897  0.16504661  1
  Fe  Fe14  1  0.33320777  0.32966520  0.33232862  1
  Cr  Cr15  1  0.33233394  0.66531818  -0.00080004  1
  Cr  Cr16  1  0.49836621  0.83205864  0.16477993  1
  Cr  Cr17  1  0.33225238  0.66396985  0.33219565  1
  Cr  Cr18  1  0.66617930  0.99876461  0.00010697  1
  Cr  Cr19  1  0.83301616  0.16670576  0.16581282  1
  Cr  Cr20  1  0.66582563  0.00064089  0.33478121  1
  Ni  Ni21  1  0.66505699  0.33515596  0.00176821  1
  Ni  Ni22  1  0.82861499  0.49891204  0.16427053  1
  Ni  Ni23  1  0.66352048  0.33139500  0.33137592  1
  Ni  Ni24  1  0.66745639  0.66382335  0.00039958  1
  Fe  Fe25  1  0.83286209  0.83215054  0.16554531  1
  Cr  Cr26  1  0.66629629  0.66573257  0.33259108  1
  Ni  Ni27  1  0.16581267  0.16657066  0.50062920  1
  Ni  Ni28  1  0.99844077  -0.00083894  0.66591839  1
  Fe  Fe29  1  0.16577602  0.16426611  0.83104129  1
  Ni  Ni30  1  0.16389396  0.49601858  0.50045079  1
  Ni  Ni31  1  0.00284587  0.33313956  0.66491582  1
  Ni  Ni32  1  0.16299830  0.49979041  0.83006551  1
  Cr  Cr33  1  0.16436995  0.83406545  0.49917490  1
  Ni  Ni34  1  0.99782646  0.66505510  0.66627601  1
  Ni  Ni35  1  0.16278988  0.83387076  0.83215228  1
  Ni  Ni36  1  0.49824997  0.16471883  0.49881683  1
  Fe  Fe37  1  0.33169290  0.00114471  0.66513439  1
  Cr  Cr38  1  0.49850701  0.16590029  0.83256380  1
  Cr  Cr39  1  0.49945414  0.49797763  0.49923236  1
  Ni  Ni40  1  0.32798654  0.33085394  0.66442640  1
  Cr  Cr41  1  0.50117108  0.49905531  0.83332491  1
  Ni  Ni42  1  0.50182578  0.83534181  0.50128548  1
  Cr  Cr43  1  0.33096704  0.66505548  0.66593983  1
  Cr  Cr44  1  0.49878680  0.83237575  0.83120796  1
  Fe  Fe45  1  0.83348861  0.16421753  0.50001471  1
  Ni  Ni46  1  0.66660445  0.99648539  0.66267102  1
  Cr  Cr47  1  0.83431398  0.16595657  0.83215193  1
  Fe  Fe48  1  0.83381231  0.49943658  0.50028724  1
  Cr  Cr49  1  0.66657929  0.33099270  0.66414648  1
  Fe  Fe50  1  0.83338525  0.50156547  0.83211160  1
  Ni  Ni51  1  0.83198130  0.83344555  0.50146796  1
  Ni  Ni52  1  0.66895597  0.66941680  0.66480644  1
  Fe  Fe53  1  0.83436661  0.83091414  0.83014632  1
" 