4687,Ni44Fe49Cr5_14,-237.910049191184, 214.040874213778,Ni44Fe49Cr5,"# generated using pymatgen
 data_Cr2Fe13Ni12
_symmetry_space_group_name_H-M   'P 1'
_cell_length_a   7.41874225
_cell_length_b   7.41874225
_cell_length_c   10.49168591
_cell_angle_alpha   90.00000000
_cell_angle_beta   90.00000000
_cell_angle_gamma   90.00000000
_symmetry_Int_Tables_number   1
_chemical_formula_structural   Cr2Fe13Ni12
_chemical_formula_sum   'Cr4 Fe26 Ni24'
_cell_volume   577.43864605
_cell_formula_units_Z   2
loop_
 _symmetry_equiv_pos_site_id
 _symmetry_equiv_pos_as_xyz
  1  'x, y, z'
loop_
 _atom_site_type_symbol
 _atom_site_label
 _atom_site_symmetry_multiplicity
 _atom_site_fract_x
 _atom_site_fract_y
 _atom_site_fract_z
 _atom_site_occupancy
  Fe  Fe0  1  1.00228921  1.00322396  1.00296463  1
  Ni  Ni1  1  0.17058446  0.17069812  0.16983229  1
  Fe  Fe2  1  0.00407121  1.00305413  0.33705675  1
  Fe  Fe3  1  0.00358043  0.33537531  0.00437749  1
  Ni  Ni4  1  0.16978047  0.50270166  0.16957127  1
  Fe  Fe5  1  0.00494057  0.33538505  0.33540351  1
  Ni  Ni6  1  0.00427649  0.67021534  0.00536426  1
  Fe  Fe7  1  0.17022721  0.83617774  0.17064060  1
  Fe  Fe8  1  0.00478197  0.67133127  0.33530801  1
  Fe  Fe9  1  0.33651998  1.00325082  0.00414897  1
  Ni  Ni10  1  0.50211013  0.16956001  0.16935619  1
  Ni  Ni11  1  0.33681675  1.00322373  0.33622321  1
  Fe  Fe12  1  0.33632054  0.33643843  1.00318860  1
  Ni  Ni13  1  0.50316363  0.50409777  0.16983316  1
  Fe  Fe14  1  0.33655553  0.33619953  0.33663211  1
  Fe  Fe15  1  0.33680780  0.67007972  0.00433267  1
  Ni  Ni16  1  0.50349315  0.83611406  0.16962273  1
  Ni  Ni17  1  0.33565850  0.67004835  0.33698455  1
  Ni  Ni18  1  0.67022076  0.00431286  0.00352648  1
  Ni  Ni19  1  0.83707174  0.17036565  0.16940920  1
  Fe  Fe20  1  0.66898845  1.00280820  0.33662639  1
  Fe  Fe21  1  0.66987125  0.33566064  0.00460273  1
  Ni  Ni22  1  0.83682321  0.50409251  0.16910786  1
  Fe  Fe23  1  0.66826978  0.33547800  0.33547709  1
  Fe  Fe24  1  0.66989269  0.67137525  0.00407418  1
  Ni  Ni25  1  0.83567719  0.83530960  0.16975029  1
  Fe  Fe26  1  0.66816897  0.67147877  0.33594448  1
  Ni  Ni27  1  0.17077385  0.16996919  0.50433926  1
  Fe  Fe28  1  1.00232018  0.00524882  0.66974665  1
  Ni  Ni29  1  0.17018123  0.17039190  0.83558818  1
  Fe  Fe30  1  0.17256033  0.50253931  0.50219524  1
  Fe  Fe31  1  0.00584000  0.33266037  0.66998627  1
  Fe  Fe32  1  0.17120118  0.50201345  0.83777243  1
  Ni  Ni33  1  0.17191364  0.83774756  0.50287594  1
  Cr  Cr34  1  0.00423457  0.67204994  0.66891462  1
  Fe  Fe35  1  0.16923918  0.83774020  0.83717119  1
  Ni  Ni36  1  0.50111817  0.16849755  0.50316070  1
  Fe  Fe37  1  0.33723672  0.00354964  0.66874762  1
  Fe  Fe38  1  0.50333686  0.16870100  0.83711516  1
  Fe  Fe39  1  0.50078388  0.50426125  0.50256045  1
  Ni  Ni40  1  0.33498176  0.33632090  0.66910286  1
  Fe  Fe41  1  0.50135671  0.50349368  0.83711179  1
  Ni  Ni42  1  0.50288287  0.83629977  0.50461262  1
  Fe  Fe43  1  0.33935251  0.66995808  0.66904330  1
  Fe  Fe44  1  0.50463522  0.83757639  0.83631650  1
  Ni  Ni45  1  0.83787983  0.16813246  0.50390448  1
  Ni  Ni46  1  0.67059611  1.00208170  0.66916216  1
  Ni  Ni47  1  0.83845209  0.16767985  0.83645273  1
  Cr  Cr48  1  0.83613582  0.50383258  0.50218708  1
  Cr  Cr49  1  0.66810431  0.33335589  0.66991891  1
  Cr  Cr50  1  0.83598339  0.50387723  0.83842867  1
  Ni  Ni51  1  0.83497537  0.83781347  0.50379375  1
  Ni  Ni52  1  0.66799477  0.67393953  0.67001433  1
  Ni  Ni53  1  0.83477140  0.83801579  0.83622143  1
" 