2171,Ni44Fe40Cr15_3,-233.971271853101, 199.618734842807,Ni44Fe40Cr15,"# generated using pymatgen
 data_Cr9Fe22Ni23
_symmetry_space_group_name_H-M   'P 1'
_cell_length_a   7.43943853
_cell_length_b   7.43943853
_cell_length_c   10.52095487
_cell_angle_alpha   90.00000000
_cell_angle_beta   90.00000000
_cell_angle_gamma   90.00000000
_symmetry_Int_Tables_number   1
_chemical_formula_structural   Cr9Fe22Ni23
_chemical_formula_sum   'Cr9 Fe22 Ni23'
_cell_volume   582.28483194
_cell_formula_units_Z   1
loop_
 _symmetry_equiv_pos_site_id
 _symmetry_equiv_pos_as_xyz
  1  'x, y, z'
loop_
 _atom_site_type_symbol
 _atom_site_label
 _atom_site_symmetry_multiplicity
 _atom_site_fract_x
 _atom_site_fract_y
 _atom_site_fract_z
 _atom_site_occupancy
  Fe  Fe0  1  1.00163750  0.00199010  1.00128364  1
  Fe  Fe1  1  0.16952790  0.16716429  0.16954258  1
  Ni  Ni2  1  0.00404810  0.00267734  0.33539882  1
  Cr  Cr3  1  1.00177554  0.33421317  1.00105324  1
  Cr  Cr4  1  0.16900494  0.50155927  0.17077351  1
  Ni  Ni5  1  1.00181906  0.33399203  0.33626339  1
  Fe  Fe6  1  0.99992644  0.66905619  1.00028096  1
  Fe  Fe7  1  0.16800165  0.83715667  0.16988681  1
  Ni  Ni8  1  0.00426765  0.66889782  0.33567371  1
  Fe  Fe9  1  0.33583884  0.00471583  1.00070468  1
  Ni  Ni10  1  0.50197326  0.17113487  0.16743288  1
  Fe  Fe11  1  0.33299142  0.00308825  0.33675614  1
  Ni  Ni12  1  0.33720346  0.33345192  1.00104802  1
  Ni  Ni13  1  0.50264335  0.49873979  0.16818289  1
  Ni  Ni14  1  0.33572745  0.33520763  0.33532861  1
  Cr  Cr15  1  0.33564787  0.66790647  1.00060270  1
  Cr  Cr16  1  0.50116822  0.83544820  0.16848113  1
  Ni  Ni17  1  0.33365145  0.66805726  0.33718567  1
  Ni  Ni18  1  0.66872439  0.00270763  1.00008767  1
  Ni  Ni19  1  0.83490298  0.16910967  0.16870147  1
  Cr  Cr20  1  0.66842226  0.00453212  0.33710732  1
  Ni  Ni21  1  0.66694401  0.33486025  0.00292636  1
  Fe  Fe22  1  0.83268720  0.49973366  0.16869937  1
  Ni  Ni23  1  0.66801862  0.33498519  0.33406201  1
  Ni  Ni24  1  0.66919316  0.66799709  1.00079946  1
  Cr  Cr25  1  0.83719806  0.83527381  0.16695946  1
  Cr  Cr26  1  0.66725375  0.66621618  0.33539774  1
  Ni  Ni27  1  0.16797150  0.16731980  0.49993713  1
  Ni  Ni28  1  0.00222545  0.99968881  0.66885399  1
  Ni  Ni29  1  0.16893404  0.16742049  0.83663980  1
  Fe  Fe30  1  0.16961266  0.50297745  0.50016471  1
  Cr  Cr31  1  1.00128375  0.33480819  0.66803606  1
  Ni  Ni32  1  0.16817876  0.50263769  0.83426886  1
  Fe  Fe33  1  0.16937882  0.83564308  0.50181158  1
  Ni  Ni34  1  0.00186301  0.67074148  0.66908764  1
  Fe  Fe35  1  0.16756903  0.83596608  0.83387040  1
  Ni  Ni36  1  0.50169932  0.16849638  0.50199556  1
  Ni  Ni37  1  0.33518075  1.00005061  0.66852442  1
  Fe  Fe38  1  0.50172876  0.16860004  0.83610258  1
  Ni  Ni39  1  0.50201540  0.50232747  0.50170909  1
  Cr  Cr40  1  0.33621805  0.33497125  0.66911304  1
  Fe  Fe41  1  0.50261977  0.50093168  0.83578154  1
  Ni  Ni42  1  0.50113545  0.83474385  0.50357346  1
  Fe  Fe43  1  0.33485573  0.66988737  0.66805382  1
  Fe  Fe44  1  0.50178207  0.83603214  0.83459373  1
  Fe  Fe45  1  0.83445789  0.16876223  0.50118853  1
  Fe  Fe46  1  0.66848927  0.00206054  0.66835291  1
  Fe  Fe47  1  0.83446190  0.16774821  0.83566065  1
  Fe  Fe48  1  0.83444085  0.50123286  0.50174281  1
  Ni  Ni49  1  0.66810587  0.33519105  0.66857827  1
  Fe  Fe50  1  0.83452665  0.50274017  0.83512245  1
  Fe  Fe51  1  0.83649389  0.83557176  0.50300960  1
  Fe  Fe52  1  0.66855635  0.66870083  0.66837346  1
  Fe  Fe53  1  0.83621827  0.83507757  0.83543548  1
" 