2355,Ni44Fe40Cr15_7,-234.837973939563, 208.394789641945,Ni44Fe40Cr15,"# generated using pymatgen
 data_Cr9Fe22Ni23
_symmetry_space_group_name_H-M   'P 1'
_cell_length_a   7.43244622
_cell_length_b   7.43244622
_cell_length_c   10.51106624
_cell_angle_alpha   90.00000000
_cell_angle_beta   90.00000000
_cell_angle_gamma   90.00000000
_symmetry_Int_Tables_number   1
_chemical_formula_structural   Cr9Fe22Ni23
_chemical_formula_sum   'Cr9 Fe22 Ni23'
_cell_volume   580.64450946
_cell_formula_units_Z   1
loop_
 _symmetry_equiv_pos_site_id
 _symmetry_equiv_pos_as_xyz
  1  'x, y, z'
loop_
 _atom_site_type_symbol
 _atom_site_label
 _atom_site_symmetry_multiplicity
 _atom_site_fract_x
 _atom_site_fract_y
 _atom_site_fract_z
 _atom_site_occupancy
  Fe  Fe0  1  0.99975894  1.00020620  0.00303255  1
  Cr  Cr1  1  0.16884929  0.16835313  0.16766731  1
  Ni  Ni2  1  1.00071014  1.00205738  0.33516915  1
  Ni  Ni3  1  1.00160866  0.33527273  1.00135787  1
  Fe  Fe4  1  0.16818476  0.50217211  0.16773979  1
  Fe  Fe5  1  1.00205406  0.33545197  0.33699875  1
  Ni  Ni6  1  1.00216434  0.66844296  0.00293941  1
  Ni  Ni7  1  0.16785487  0.83662423  0.16777100  1
  Ni  Ni8  1  0.00372472  0.67020098  0.33483382  1
  Fe  Fe9  1  0.33717228  1.00138021  1.00132031  1
  Ni  Ni10  1  0.50215323  0.16874630  0.16850599  1
  Fe  Fe11  1  0.33448320  1.00193984  0.33654886  1
  Fe  Fe12  1  0.33656020  0.33578904  1.00087326  1
  Fe  Fe13  1  0.50301673  0.50124924  0.16924894  1
  Fe  Fe14  1  0.33477365  0.33386956  0.33623366  1
  Cr  Cr15  1  0.33487116  0.66962625  0.00298732  1
  Ni  Ni16  1  0.50315764  0.83744716  0.16955201  1
  Cr  Cr17  1  0.33345490  0.67074735  0.33521231  1
  Ni  Ni18  1  0.66857281  0.00337826  0.00310210  1
  Ni  Ni19  1  0.83473602  0.16893259  0.16840315  1
  Fe  Fe20  1  0.66951283  0.00237632  0.33409986  1
  Fe  Fe21  1  0.67000140  0.33635251  1.00146925  1
  Cr  Cr22  1  0.83637191  0.50292409  0.16891997  1
  Fe  Fe23  1  0.67059114  0.33348576  0.33640508  1
  Ni  Ni24  1  0.66879057  0.67126968  1.00221305  1
  Ni  Ni25  1  0.83581868  0.83562632  0.16742200  1
  Fe  Fe26  1  0.67079684  0.67116716  0.33451916  1
  Ni  Ni27  1  0.16767799  0.16865056  0.50166350  1
  Fe  Fe28  1  0.00250866  0.00383434  0.66826108  1
  Fe  Fe29  1  0.16671478  0.16948069  0.83634484  1
  Fe  Fe30  1  0.16620770  0.50351897  0.50314625  1
  Ni  Ni31  1  1.00082340  0.33589082  0.66726571  1
  Ni  Ni32  1  0.16583818  0.50119815  0.83523921  1
  Ni  Ni33  1  0.16860086  0.83651386  0.50321144  1
  Ni  Ni34  1  0.00379636  0.66775939  0.66933371  1
  Fe  Fe35  1  0.16687799  0.83358459  0.83521066  1
  Ni  Ni36  1  0.50230279  0.16694943  0.50007913  1
  Cr  Cr37  1  0.33686386  1.00134414  0.66767076  1
  Fe  Fe38  1  0.50272440  0.16866922  0.83816118  1
  Cr  Cr39  1  0.50488321  0.50487597  0.50369463  1
  Cr  Cr40  1  0.33381850  0.33636461  0.66929695  1
  Fe  Fe41  1  0.50287846  0.50487455  0.83594971  1
  Ni  Ni42  1  0.50228912  0.83660186  0.50261021  1
  Ni  Ni43  1  0.33377488  0.67067453  0.66948364  1
  Ni  Ni44  1  0.50342025  0.83632678  0.83467866  1
  Ni  Ni45  1  0.83697417  0.16979196  0.50184363  1
  Fe  Fe46  1  0.67045615  1.00150791  0.66988255  1
  Fe  Fe47  1  0.83759737  0.16835490  0.83712776  1
  Ni  Ni48  1  0.83799671  0.50220337  0.50238353  1
  Cr  Cr49  1  0.67218295  0.33218324  0.67049181  1
  Ni  Ni50  1  0.83789007  0.50303580  0.83595893  1
  Cr  Cr51  1  0.83530268  0.83335905  0.50350296  1
  Fe  Fe52  1  0.66959330  0.66924870  0.67166680  1
  Fe  Fe53  1  0.83595744  0.83381048  0.83699198  1
" 