6604,Ni44Fe26Cr28_14,-229.574752916411, 189.693252041005,Ni44Fe26Cr28,"# generated using pymatgen
 data_Cr8Fe7Ni12
_symmetry_space_group_name_H-M   'P 1'
_cell_length_a   7.46355471
_cell_length_b   7.46355471
_cell_length_c   10.55506029
_cell_angle_alpha   90.00000000
_cell_angle_beta   90.00000000
_cell_angle_gamma   90.00000000
_symmetry_Int_Tables_number   1
_chemical_formula_structural   Cr8Fe7Ni12
_chemical_formula_sum   'Cr16 Fe14 Ni24'
_cell_volume   587.96592787
_cell_formula_units_Z   2
loop_
 _symmetry_equiv_pos_site_id
 _symmetry_equiv_pos_as_xyz
  1  'x, y, z'
loop_
 _atom_site_type_symbol
 _atom_site_label
 _atom_site_symmetry_multiplicity
 _atom_site_fract_x
 _atom_site_fract_y
 _atom_site_fract_z
 _atom_site_occupancy
  Cr  Cr0  1  0.00080051  0.99990090  0.00204192  1
  Ni  Ni1  1  0.16796876  0.16634683  0.16828159  1
  Fe  Fe2  1  0.00261835  0.99962358  0.33280942  1
  Ni  Ni3  1  0.99940170  0.33589332  0.99905406  1
  Cr  Cr4  1  0.16531673  0.49872072  0.16594536  1
  Ni  Ni5  1  0.00038040  0.33339105  0.33370061  1
  Fe  Fe6  1  0.00143652  0.66506942  0.00042816  1
  Ni  Ni7  1  0.16703340  0.83428279  0.16861658  1
  Fe  Fe8  1  0.00211024  0.66664038  0.33265430  1
  Cr  Cr9  1  0.33438205  1.00019777  0.00207718  1
  Ni  Ni10  1  0.49936029  0.16480913  0.16687321  1
  Ni  Ni11  1  0.33287260  0.99989337  0.33155888  1
  Ni  Ni12  1  0.33409404  0.33398553  0.99926295  1
  Cr  Cr13  1  0.50097147  0.49949672  0.16810967  1
  Ni  Ni14  1  0.33336848  0.33247840  0.33497096  1
  Fe  Fe15  1  0.33190710  0.66608606  0.99978502  1
  Ni  Ni16  1  0.50045729  0.83566661  0.16787447  1
  Ni  Ni17  1  0.33376143  0.66832986  0.33443683  1
  Ni  Ni18  1  0.66594671  0.00213930  0.00073798  1
  Cr  Cr19  1  0.83337038  0.16834235  0.16721667  1
  Fe  Fe20  1  0.66429144  0.00105683  0.33271128  1
  Ni  Ni21  1  0.66720595  0.33318779  0.99898488  1
  Ni  Ni22  1  0.83475055  0.50116377  0.16701391  1
  Fe  Fe23  1  0.66483604  0.33360674  0.33390965  1
  Cr  Cr24  1  0.66726394  0.66570842  0.00126115  1
  Fe  Fe25  1  0.83285771  0.83241501  0.16812403  1
  Ni  Ni26  1  0.66673071  0.66670108  0.33228363  1
  Cr  Cr27  1  0.16715090  0.16877329  0.49925105  1
  Ni  Ni28  1  0.99850578  0.99962807  0.66643794  1
  Cr  Cr29  1  0.16686754  0.16928557  0.83357124  1
  Ni  Ni30  1  0.16772346  0.49929324  0.50046291  1
  Fe  Fe31  1  0.00094124  0.33387004  0.66712478  1
  Fe  Fe32  1  0.16771247  0.50037562  0.83410316  1
  Fe  Fe33  1  0.16668380  0.83190430  0.49884193  1
  Fe  Fe34  1  0.00084997  0.66708862  0.66761525  1
  Ni  Ni35  1  0.16416585  0.83098070  0.83260500  1
  Ni  Ni36  1  0.50039141  0.16845532  0.49922176  1
  Cr  Cr37  1  0.33287848  0.00116105  0.66698182  1
  Ni  Ni38  1  0.50213763  0.16993453  0.83460515  1
  Ni  Ni39  1  0.49834911  0.49871817  0.49907111  1
  Ni  Ni40  1  0.33378607  0.33558320  0.66646785  1
  Ni  Ni41  1  0.49975778  0.49743713  0.83365590  1
  Cr  Cr42  1  0.50169961  0.83331626  0.50024141  1
  Cr  Cr43  1  0.33317635  0.66420425  0.66652273  1
  Cr  Cr44  1  0.50158379  0.83406871  0.83321264  1
  Fe  Fe45  1  0.83266990  0.16669691  0.49993160  1
  Ni  Ni46  1  0.66997419  0.00130417  0.66719065  1
  Fe  Fe47  1  0.83141445  0.16749907  0.83394715  1
  Cr  Cr48  1  0.83412680  0.50088478  0.49930538  1
  Cr  Cr49  1  0.66541363  0.33361308  0.66717191  1
  Fe  Fe50  1  0.83396984  0.49882948  0.83434597  1
  Cr  Cr51  1  0.83349066  0.83450855  0.50091609  1
  Ni  Ni52  1  0.66787189  0.66602641  0.66740560  1
  Cr  Cr53  1  0.83384845  0.83406163  0.83170351  1
" 