8263,Ni44Fe26Cr28_6,-228.894636537489, 185.513073760933,Ni44Fe26Cr28,"# generated using pymatgen
 data_Cr8Fe7Ni12
_symmetry_space_group_name_H-M   'P 1'
_cell_length_a   7.45784126
_cell_length_b   7.45784126
_cell_length_c   10.54698026
_cell_angle_alpha   90.00000000
_cell_angle_beta   90.00000000
_cell_angle_gamma   90.00000000
_symmetry_Int_Tables_number   1
_chemical_formula_structural   Cr8Fe7Ni12
_chemical_formula_sum   'Cr16 Fe14 Ni24'
_cell_volume   586.61667508
_cell_formula_units_Z   2
loop_
 _symmetry_equiv_pos_site_id
 _symmetry_equiv_pos_as_xyz
  1  'x, y, z'
loop_
 _atom_site_type_symbol
 _atom_site_label
 _atom_site_symmetry_multiplicity
 _atom_site_fract_x
 _atom_site_fract_y
 _atom_site_fract_z
 _atom_site_occupancy
  Ni  Ni0  1  0.99915507  0.99932430  0.00232469  1
  Fe  Fe1  1  0.16532932  0.16568091  0.16790646  1
  Ni  Ni2  1  0.00093293  0.00100670  0.33608843  1
  Ni  Ni3  1  0.00204889  0.33438840  0.00288857  1
  Cr  Cr4  1  0.16815128  0.49715744  0.16479896  1
  Ni  Ni5  1  0.99922890  0.33261830  0.33345075  1
  Ni  Ni6  1  0.00147335  0.66655596  0.99868047  1
  Cr  Cr7  1  0.16578602  0.83532956  0.16560683  1
  Cr  Cr8  1  0.00077453  0.66619052  0.33552274  1
  Fe  Fe9  1  0.33361847  0.00241296  0.99992903  1
  Ni  Ni10  1  0.49680460  0.16657630  0.16590687  1
  Ni  Ni11  1  0.33348859  0.00112036  0.33606775  1
  Ni  Ni12  1  0.33509832  0.33476928  0.99960392  1
  Fe  Fe13  1  0.50206909  0.50191217  0.16505264  1
  Cr  Cr14  1  0.33433343  0.33387957  0.33501283  1
  Ni  Ni15  1  0.33330661  0.66683727  0.99762391  1
  Cr  Cr16  1  0.50278720  0.83362787  0.16520143  1
  Cr  Cr17  1  0.33331340  0.66935102  0.33620054  1
  Ni  Ni18  1  0.66613743  1.00056320  0.00077796  1
  Fe  Fe19  1  0.83717867  0.16523178  0.16658198  1
  Cr  Cr20  1  0.66842239  0.00257979  0.33394977  1
  Cr  Cr21  1  0.66810044  0.33166721  0.00241885  1
  Ni  Ni22  1  0.83579189  0.50352253  0.16531084  1
  Cr  Cr23  1  0.67039174  0.33506601  0.33117088  1
  Ni  Ni24  1  0.66754540  0.66705169  0.99991891  1
  Ni  Ni25  1  0.83385896  0.83379427  0.16588214  1
  Fe  Fe26  1  0.66960580  0.66773883  0.33334956  1
  Ni  Ni27  1  0.16456057  0.16941987  0.49971989  1
  Fe  Fe28  1  0.00127956  0.99968737  0.66507824  1
  Cr  Cr29  1  0.16599782  0.17151673  0.83484446  1
  Ni  Ni30  1  0.16720882  0.49633877  0.50269014  1
  Ni  Ni31  1  0.99960321  0.33772111  0.66567008  1
  Ni  Ni32  1  0.16694882  0.50081684  0.83495056  1
  Fe  Fe33  1  0.16542205  0.83537406  0.50065352  1
  Ni  Ni34  1  0.00122219  0.66527540  0.66751956  1
  Fe  Fe35  1  0.16669149  0.83418058  0.83673419  1
  Fe  Fe36  1  0.49972547  0.16810635  0.50002623  1
  Cr  Cr37  1  0.33356624  1.00012373  0.66625637  1
  Ni  Ni38  1  0.49814683  0.16847948  0.83448288  1
  Ni  Ni39  1  0.50072520  0.50337134  0.50007323  1
  Fe  Fe40  1  0.33245771  0.33567627  0.66746309  1
  Ni  Ni41  1  0.49804508  0.50176942  0.83595352  1
  Ni  Ni42  1  0.50439464  0.83164175  0.49985629  1
  Cr  Cr43  1  0.33070988  0.66791555  0.66808220  1
  Fe  Fe44  1  0.49923698  0.83399814  0.83650838  1
  Ni  Ni45  1  0.83926171  0.16602216  0.50068048  1
  Cr  Cr46  1  0.66575509  0.00203461  0.66672678  1
  Cr  Cr47  1  0.83595972  0.16479750  0.83496661  1
  Fe  Fe48  1  0.83485613  0.50034376  0.50080492  1
  Cr  Cr49  1  0.66681616  0.33363166  0.66771918  1
  Fe  Fe50  1  0.83568031  0.49880371  0.83545789  1
  Ni  Ni51  1  0.83326944  0.83341411  0.50145561  1
  Fe  Fe52  1  0.66789712  0.66548512  0.66733925  1
  Cr  Cr53  1  0.83315925  0.83143063  0.83438894  1
" 