3373,Ni44Fe26Cr28_13,-229.138020915498, 187.386439174966,Ni44Fe26Cr28,"# generated using pymatgen
 data_Cr8Fe7Ni12
_symmetry_space_group_name_H-M   'P 1'
_cell_length_a   7.46185799
_cell_length_b   7.46185799
_cell_length_c   10.55266077
_cell_angle_alpha   90.00000000
_cell_angle_beta   90.00000000
_cell_angle_gamma   90.00000000
_symmetry_Int_Tables_number   1
_chemical_formula_structural   Cr8Fe7Ni12
_chemical_formula_sum   'Cr16 Fe14 Ni24'
_cell_volume   587.56502590
_cell_formula_units_Z   2
loop_
 _symmetry_equiv_pos_site_id
 _symmetry_equiv_pos_as_xyz
  1  'x, y, z'
loop_
 _atom_site_type_symbol
 _atom_site_label
 _atom_site_symmetry_multiplicity
 _atom_site_fract_x
 _atom_site_fract_y
 _atom_site_fract_z
 _atom_site_occupancy
  Cr  Cr0  1  0.99964035  0.99810933  0.99928298  1
  Ni  Ni1  1  0.16519609  0.16448991  0.16751779  1
  Ni  Ni2  1  0.99825870  0.00162979  0.33291060  1
  Ni  Ni3  1  0.00223382  0.33310084  0.00195312  1
  Cr  Cr4  1  0.16818385  0.49908478  0.16588178  1
  Ni  Ni5  1  0.99867686  0.33083802  0.33307364  1
  Ni  Ni6  1  0.00118949  0.66788547  1.00023794  1
  Ni  Ni7  1  0.16758993  0.83646239  0.16749004  1
  Cr  Cr8  1  0.99820019  0.66686971  0.33093153  1
  Fe  Fe9  1  0.33382408  0.00188873  0.99950145  1
  Fe  Fe10  1  0.49938925  0.16436783  0.16545796  1
  Fe  Fe11  1  0.33481170  0.99945781  0.33279949  1
  Ni  Ni12  1  0.33325517  0.33105484  0.99796580  1
  Cr  Cr13  1  0.50218578  0.50068302  0.16574540  1
  Cr  Cr14  1  0.33288336  0.33086137  0.33367407  1
  Cr  Cr15  1  0.33184357  0.66859448  0.99729389  1
  Fe  Fe16  1  0.49960620  0.83751487  0.16725829  1
  Fe  Fe17  1  0.33574992  0.67102261  0.33269161  1
  Ni  Ni18  1  0.66516951  0.00091011  0.00106242  1
  Ni  Ni19  1  0.83387663  0.16565314  0.16738733  1
  Ni  Ni20  1  0.66651844  0.99910136  0.33279672  1
  Ni  Ni21  1  0.66549226  0.33071082  0.00047066  1
  Fe  Fe22  1  0.83473113  0.49791306  0.16535975  1
  Cr  Cr23  1  0.66948224  0.33173778  0.33501626  1
  Cr  Cr24  1  0.66907118  0.67095793  1.00023372  1
  Fe  Fe25  1  0.83366483  0.83611691  0.16718881  1
  Ni  Ni26  1  0.66643298  0.67065330  0.33382637  1
  Cr  Cr27  1  0.16435708  0.16409662  0.49946364  1
  Fe  Fe28  1  0.00175371  0.00036673  0.66864662  1
  Ni  Ni29  1  0.16766996  0.16671788  0.83385417  1
  Cr  Cr30  1  0.16707529  0.50204634  0.49989820  1
  Ni  Ni31  1  0.99969501  0.33441845  0.66550779  1
  Fe  Fe32  1  0.16609619  0.49936171  0.83353570  1
  Cr  Cr33  1  0.16861743  0.83459090  0.50097181  1
  Ni  Ni34  1  0.00073298  0.66669398  0.66988439  1
  Fe  Fe35  1  0.16723703  0.83445739  0.83168726  1
  Ni  Ni36  1  0.50333812  0.16458676  0.50085450  1
  Ni  Ni37  1  0.33761121  0.99965333  0.66861870  1
  Ni  Ni38  1  0.49986441  0.16570800  0.83593313  1
  Cr  Cr39  1  0.50148767  0.50424601  0.50165725  1
  Cr  Cr40  1  0.33435835  0.33162551  0.66942901  1
  Ni  Ni41  1  0.49954282  0.50060387  0.83338946  1
  Fe  Fe42  1  0.50068391  0.83721995  0.50134836  1
  Ni  Ni43  1  0.33366192  0.66924815  0.66843968  1
  Ni  Ni44  1  0.50120674  0.83459123  0.83176598  1
  Ni  Ni45  1  0.83251174  0.16597453  0.50154372  1
  Ni  Ni46  1  0.66490558  1.00031567  0.66737512  1
  Cr  Cr47  1  0.83311351  0.16545162  0.83232507  1
  Fe  Fe48  1  0.83455501  0.49916254  0.50191081  1
  Fe  Fe49  1  0.66648538  0.33197333  0.66721265  1
  Cr  Cr50  1  0.83283820  0.49969271  0.83450763  1
  Cr  Cr51  1  0.83309528  0.83599871  0.50234278  1
  Fe  Fe52  1  0.66592343  0.66851662  0.66866739  1
  Ni  Ni53  1  0.83320261  0.83378936  0.83299789  1
" 