8285,Ni44Fe56_6,-242.409576144059, 226.865951033456,Ni44Fe56,"# generated using pymatgen
 data_Fe23Ni31
_symmetry_space_group_name_H-M   'P 1'
_cell_length_a   7.40366598
_cell_length_b   7.40366598
_cell_length_c   10.47036484
_cell_angle_alpha   90.00000000
_cell_angle_beta   90.00000000
_cell_angle_gamma   90.00000000
_symmetry_Int_Tables_number   1
_chemical_formula_structural   Fe23Ni31
_chemical_formula_sum   'Fe23 Ni31'
_cell_volume   573.92540411
_cell_formula_units_Z   1
loop_
 _symmetry_equiv_pos_site_id
 _symmetry_equiv_pos_as_xyz
  1  'x, y, z'
loop_
 _atom_site_type_symbol
 _atom_site_label
 _atom_site_symmetry_multiplicity
 _atom_site_fract_x
 _atom_site_fract_y
 _atom_site_fract_z
 _atom_site_occupancy
  Ni  Ni0  1  1.00404385  0.00453138  0.00470583  1
  Fe  Fe1  1  0.17023508  0.17129776  0.17123064  1
  Fe  Fe2  1  1.00353221  1.00303898  0.33795821  1
  Ni  Ni3  1  0.00542812  0.33803120  0.00505881  1
  Ni  Ni4  1  0.17151012  0.50458994  0.17034943  1
  Fe  Fe5  1  1.00335385  0.33834838  0.33727267  1
  Ni  Ni6  1  1.00396584  0.67047195  1.00401943  1
  Ni  Ni7  1  0.17035334  0.83690198  0.17133555  1
  Ni  Ni8  1  1.00353761  0.67010212  0.33786782  1
  Ni  Ni9  1  0.33840608  0.00476599  0.00495589  1
  Fe  Fe10  1  0.50376359  0.17101304  0.17181930  1
  Fe  Fe11  1  0.33820950  1.00351278  0.33857427  1
  Ni  Ni12  1  0.33657503  0.33712053  1.00308056  1
  Fe  Fe13  1  0.50436441  0.50550982  0.17036264  1
  Ni  Ni14  1  0.33692691  0.33737469  0.33850476  1
  Ni  Ni15  1  0.33775645  0.67076413  0.00551894  1
  Fe  Fe16  1  0.50518587  0.83634733  0.17157622  1
  Fe  Fe17  1  0.33813255  0.67091921  0.33766912  1
  Ni  Ni18  1  0.67068186  1.00340735  0.00472613  1
  Fe  Fe19  1  0.83865905  0.17040218  0.17044815  1
  Ni  Ni20  1  0.67073926  1.00394958  0.33797027  1
  Fe  Fe21  1  0.67092468  0.33771932  1.00364056  1
  Ni  Ni22  1  0.83731984  0.50479109  0.16981154  1
  Fe  Fe23  1  0.67076105  0.33837735  0.33772983  1
  Ni  Ni24  1  0.67129919  0.67244980  1.00363400  1
  Ni  Ni25  1  0.83850735  0.83706960  0.17014866  1
  Ni  Ni26  1  0.67242483  0.67251818  0.33852810  1
  Ni  Ni27  1  0.17103404  0.17183437  0.50433971  1
  Ni  Ni28  1  1.00299572  0.00521323  0.66974767  1
  Fe  Fe29  1  0.16968186  0.16983040  0.83684792  1
  Fe  Fe30  1  0.17054993  0.50426459  0.50338033  1
  Ni  Ni31  1  1.00392314  0.33809053  0.66974827  1
  Fe  Fe32  1  0.16987534  0.50524764  0.83807190  1
  Fe  Fe33  1  0.17045415  0.83945490  0.50531114  1
  Ni  Ni34  1  0.00434428  0.66970699  0.67070828  1
  Ni  Ni35  1  0.17088711  0.83754298  0.83748200  1
  Ni  Ni36  1  0.50424164  0.17135904  0.50516575  1
  Ni  Ni37  1  0.33906641  0.00431971  0.67025897  1
  Fe  Fe38  1  0.50465092  0.16910171  0.83742825  1
  Fe  Fe39  1  0.50497138  0.50381160  0.50477545  1
  Fe  Fe40  1  0.33645677  0.33717295  0.67080987  1
  Ni  Ni41  1  0.50268706  0.50351504  0.83778643  1
  Ni  Ni42  1  0.50489721  0.83728603  0.50475137  1
  Ni  Ni43  1  0.33737529  0.67020953  0.66956074  1
  Fe  Fe44  1  0.50424384  0.83718541  0.83710995  1
  Ni  Ni45  1  0.83735316  0.17045422  0.50321734  1
  Ni  Ni46  1  0.67098028  0.00480984  0.67041320  1
  Ni  Ni47  1  0.83778592  0.17055749  0.83808718  1
  Fe  Fe48  1  0.83735393  0.50395886  0.50349577  1
  Fe  Fe49  1  0.67194866  0.33687979  0.67149130  1
  Fe  Fe50  1  0.83818959  0.50477069  0.83839570  1
  Ni  Ni51  1  0.83743944  0.83777497  0.50507798  1
  Fe  Fe52  1  0.67170949  0.67233565  0.67145207  1
  Ni  Ni53  1  0.83944873  0.83912900  0.83773091  1
" 