3519,Ni44Fe40Cr15_17,-234.499870784984, 206.047159984478,Ni44Fe40Cr15,"# generated using pymatgen
 data_Cr9Fe22Ni23
_symmetry_space_group_name_H-M   'P 1'
_cell_length_a   7.43107809
_cell_length_b   7.43107809
_cell_length_c   10.50913142
_cell_angle_alpha   90.00000000
_cell_angle_beta   90.00000000
_cell_angle_gamma   90.00000000
_symmetry_Int_Tables_number   1
_chemical_formula_structural   Cr9Fe22Ni23
_chemical_formula_sum   'Cr9 Fe22 Ni23'
_cell_volume   580.32392234
_cell_formula_units_Z   1
loop_
 _symmetry_equiv_pos_site_id
 _symmetry_equiv_pos_as_xyz
  1  'x, y, z'
loop_
 _atom_site_type_symbol
 _atom_site_label
 _atom_site_symmetry_multiplicity
 _atom_site_fract_x
 _atom_site_fract_y
 _atom_site_fract_z
 _atom_site_occupancy
  Ni  Ni0  1  1.00167816  1.00174388  0.00560836  1
  Ni  Ni1  1  0.16701105  0.16871903  0.16959007  1
  Fe  Fe2  1  0.00396337  0.00388711  0.33567434  1
  Ni  Ni3  1  0.00246998  0.33620399  0.00450381  1
  Ni  Ni4  1  0.17100431  0.50131975  0.16785301  1
  Fe  Fe5  1  0.00442394  0.33424064  0.33476280  1
  Fe  Fe6  1  0.00351470  0.66680898  0.00310644  1
  Fe  Fe7  1  0.17168460  0.83636180  0.16785062  1
  Cr  Cr8  1  0.00464954  0.66849361  0.33234517  1
  Fe  Fe9  1  0.33787143  1.00222941  0.00387564  1
  Fe  Fe10  1  0.50175988  0.17020552  0.17069283  1
  Fe  Fe11  1  0.33591977  0.00264405  0.33621978  1
  Fe  Fe12  1  0.33512357  0.33685280  0.00481261  1
  Ni  Ni13  1  0.50167495  0.50416271  0.17092379  1
  Ni  Ni14  1  0.33519394  0.33589174  0.33489808  1
  Ni  Ni15  1  0.33497432  0.66951750  0.00410894  1
  Ni  Ni16  1  0.50190474  0.83489610  0.17184859  1
  Ni  Ni17  1  0.33540062  0.66822165  0.33597961  1
  Fe  Fe18  1  0.66773262  0.00301911  0.00475975  1
  Ni  Ni19  1  0.83683977  0.16838519  0.17098423  1
  Ni  Ni20  1  0.66902349  0.00298489  0.33460050  1
  Ni  Ni21  1  0.66886995  0.33383270  0.00466420  1
  Fe  Fe22  1  0.83531658  0.49898237  0.16823394  1
  Fe  Fe23  1  0.66741073  0.33629018  0.33529398  1
  Cr  Cr24  1  0.66834564  0.66999135  0.00395574  1
  Fe  Fe25  1  0.83561677  0.83801969  0.16999838  1
  Fe  Fe26  1  0.66657705  0.66936908  0.33626454  1
  Ni  Ni27  1  0.16886941  0.16737106  0.50147314  1
  Ni  Ni28  1  0.00307559  0.99949886  0.66518348  1
  Cr  Cr29  1  0.16842205  0.16931935  0.83601701  1
  Fe  Fe30  1  0.17317684  0.50184341  0.50159581  1
  Cr  Cr31  1  0.00478085  0.33732666  0.66632186  1
  Ni  Ni32  1  0.16847817  0.50326204  0.83606186  1
  Fe  Fe33  1  0.17121617  0.83509119  0.50314650  1
  Ni  Ni34  1  1.00161553  0.66945773  0.67030977  1
  Cr  Cr35  1  0.17012942  0.83601537  0.83578265  1
  Ni  Ni36  1  0.50019138  0.17010497  0.50110634  1
  Ni  Ni37  1  0.33628574  0.00363429  0.66722291  1
  Fe  Fe38  1  0.49995913  0.16897371  0.83702397  1
  Ni  Ni39  1  0.50237782  0.50439299  0.50168519  1
  Ni  Ni40  1  0.33523296  0.33509222  0.66845443  1
  Cr  Cr41  1  0.50088360  0.50423554  0.83505280  1
  Fe  Fe42  1  0.50123211  0.83648696  0.50110913  1
  Fe  Fe43  1  0.33566926  0.66922200  0.66715761  1
  Ni  Ni44  1  0.50221223  0.83535640  0.83455405  1
  Fe  Fe45  1  0.83456215  0.16808954  0.49926383  1
  Cr  Cr46  1  0.66755057  1.00134102  0.67123935  1
  Cr  Cr47  1  0.83767175  0.16847577  0.83634028  1
  Fe  Fe48  1  0.83495182  0.50350284  0.50210407  1
  Cr  Cr49  1  0.66660394  0.33603479  0.66804847  1
  Ni  Ni50  1  0.83643665  0.50328019  0.83667243  1
  Fe  Fe51  1  0.83522270  0.83604747  0.50164173  1
  Ni  Ni52  1  0.67071442  0.67047666  0.66693252  1
  Fe  Fe53  1  0.83721347  0.83348341  0.83578027  1
" 