3799,Ni44Fe24Cr30_18,-228.376072697107, 184.371290406438,Ni44Fe24Cr30,"# generated using pymatgen
 data_Cr17Fe13Ni24
_symmetry_space_group_name_H-M   'P 1'
_cell_length_a   7.46762514
_cell_length_b   7.46762514
_cell_length_c   10.56081675
_cell_angle_alpha   90.00000000
_cell_angle_beta   90.00000000
_cell_angle_gamma   90.00000000
_symmetry_Int_Tables_number   1
_chemical_formula_structural   Cr17Fe13Ni24
_chemical_formula_sum   'Cr17 Fe13 Ni24'
_cell_volume   588.92843728
_cell_formula_units_Z   1
loop_
 _symmetry_equiv_pos_site_id
 _symmetry_equiv_pos_as_xyz
  1  'x, y, z'
loop_
 _atom_site_type_symbol
 _atom_site_label
 _atom_site_symmetry_multiplicity
 _atom_site_fract_x
 _atom_site_fract_y
 _atom_site_fract_z
 _atom_site_occupancy
  Fe  Fe0  1  0.99920470  0.00114983  0.99735536  1
  Cr  Cr1  1  0.16661381  0.16610185  0.16761158  1
  Ni  Ni2  1  0.99898094  0.00010112  0.33636348  1
  Fe  Fe3  1  0.99842115  0.33005437  0.99850077  1
  Cr  Cr4  1  0.16739775  0.49938480  0.16498697  1
  Cr  Cr5  1  0.99820188  0.33032587  0.33696943  1
  Fe  Fe6  1  0.99841805  0.66924700  0.99696440  1
  Cr  Cr7  1  0.16554311  0.83404760  0.16448635  1
  Fe  Fe8  1  0.99866905  0.66993094  0.33710891  1
  Fe  Fe9  1  0.33702291  0.00189217  0.99800204  1
  Ni  Ni10  1  0.50135712  0.16591432  0.16493836  1
  Cr  Cr11  1  0.33536739  0.99832635  0.33523838  1
  Ni  Ni12  1  0.33468762  0.33075350  0.00054334  1
  Ni  Ni13  1  0.49963340  0.49809329  0.16626402  1
  Fe  Fe14  1  0.33636653  0.33043187  0.33373412  1
  Fe  Fe15  1  0.33625857  0.66795848  0.99970316  1
  Ni  Ni16  1  0.50203447  0.83591534  0.16661254  1
  Cr  Cr17  1  0.33750186  0.66751788  0.33161647  1
  Ni  Ni18  1  0.66629226  0.00175527  0.00102737  1
  Fe  Fe19  1  0.83071794  0.16527183  0.16656196  1
  Ni  Ni20  1  0.66659855  0.00108168  0.33411048  1
  Ni  Ni21  1  0.66392235  0.33058324  0.00203151  1
  Cr  Cr22  1  0.83426999  0.50084489  0.16705725  1
  Cr  Cr23  1  0.66523159  0.33358857  0.33280300  1
  Cr  Cr24  1  0.66498434  0.66799648  0.00064519  1
  Cr  Cr25  1  0.83261543  0.83756338  0.16975145  1
  Fe  Fe26  1  0.66642756  0.66998314  0.33607264  1
  Fe  Fe27  1  0.16837862  0.16174974  0.50180947  1
  Ni  Ni28  1  0.00284929  0.99771883  0.66640169  1
  Ni  Ni29  1  0.16851068  0.16426896  0.83290204  1
  Cr  Cr30  1  0.16916050  0.50020912  0.50055941  1
  Cr  Cr31  1  0.99688386  0.32837356  0.66539774  1
  Cr  Cr32  1  0.16813140  0.50069944  0.83426372  1
  Ni  Ni33  1  0.16482041  0.83313695  0.50160515  1
  Ni  Ni34  1  0.99991870  0.67043770  0.66610020  1
  Ni  Ni35  1  0.16550392  0.83523643  0.83406115  1
  Ni  Ni36  1  0.50190167  0.16674074  0.50315659  1
  Ni  Ni37  1  0.33190400  0.99909910  0.66666745  1
  Ni  Ni38  1  0.49838072  0.16665804  0.83220739  1
  Ni  Ni39  1  0.49932394  0.49891373  0.50192683  1
  Fe  Fe40  1  0.33370720  0.33077684  0.66636633  1
  Cr  Cr41  1  0.49989834  0.49635640  0.83007044  1
  Ni  Ni42  1  0.50169827  0.83413278  0.50147240  1
  Ni  Ni43  1  0.33345745  0.67110076  0.66670538  1
  Cr  Cr44  1  0.50284256  0.83737096  0.82988116  1
  Ni  Ni45  1  0.83123037  0.16243526  0.49950724  1
  Fe  Fe46  1  0.66786397  0.99927130  0.66433369  1
  Cr  Cr47  1  0.82755737  0.16331224  0.83462918  1
  Fe  Fe48  1  0.82975123  0.50220510  0.50218449  1
  Ni  Ni49  1  0.66456613  0.33187257  0.66467124  1
  Cr  Cr50  1  0.83166086  0.50188755  0.83044206  1
  Ni  Ni51  1  0.83359801  0.83639435  0.50058865  1
  Ni  Ni52  1  0.66587728  0.66657566  0.66245106  1
  Ni  Ni53  1  0.83579483  0.83516269  0.83048921  1
" 