7481,Ni44Fe56_19,-242.261463130386, 229.095764550667,Ni44Fe56,"# generated using pymatgen
 data_Fe23Ni31
_symmetry_space_group_name_H-M   'P 1'
_cell_length_a   7.39936283
_cell_length_b   7.39936283
_cell_length_c   10.46427927
_cell_angle_alpha   90.00000000
_cell_angle_beta   90.00000000
_cell_angle_gamma   90.00000000
_symmetry_Int_Tables_number   1
_chemical_formula_structural   Fe23Ni31
_chemical_formula_sum   'Fe23 Ni31'
_cell_volume   572.92525752
_cell_formula_units_Z   1
loop_
 _symmetry_equiv_pos_site_id
 _symmetry_equiv_pos_as_xyz
  1  'x, y, z'
loop_
 _atom_site_type_symbol
 _atom_site_label
 _atom_site_symmetry_multiplicity
 _atom_site_fract_x
 _atom_site_fract_y
 _atom_site_fract_z
 _atom_site_occupancy
  Ni  Ni0  1  0.00592793  0.00513181  0.00543997  1
  Ni  Ni1  1  0.17096750  0.17119549  0.17227349  1
  Fe  Fe2  1  1.00404054  1.00421468  0.33790631  1
  Fe  Fe3  1  1.00435026  0.33723218  0.00556884  1
  Ni  Ni4  1  0.17095807  0.50517818  0.17082475  1
  Ni  Ni5  1  0.00505924  0.33778821  0.33731286  1
  Fe  Fe6  1  1.00396235  0.67185142  0.00508056  1
  Fe  Fe7  1  0.17132088  0.83790706  0.17065287  1
  Ni  Ni8  1  0.00543968  0.66997945  0.33753144  1
  Ni  Ni9  1  0.33664699  1.00437969  1.00399463  1
  Ni  Ni10  1  0.50493971  0.17119479  0.17141287  1
  Fe  Fe11  1  0.33800759  1.00435313  0.33723690  1
  Fe  Fe12  1  0.33866194  0.33707437  1.00437217  1
  Ni  Ni13  1  0.50495296  0.50518167  0.17221563  1
  Fe  Fe14  1  0.33765965  0.33872341  0.33818939  1
  Fe  Fe15  1  0.33858192  0.67154286  1.00426539  1
  Fe  Fe16  1  0.50471666  0.83760330  0.17127260  1
  Ni  Ni17  1  0.33789819  0.67085270  0.33656865  1
  Fe  Fe18  1  0.67101653  0.00471708  1.00442722  1
  Ni  Ni19  1  0.83781420  0.17082668  0.17120138  1
  Ni  Ni20  1  0.67113206  0.00470929  0.33619118  1
  Ni  Ni21  1  0.67114357  0.33889866  0.00517930  1
  Ni  Ni22  1  0.83781085  0.50556082  0.17200422  1
  Fe  Fe23  1  0.67169536  0.33847104  0.33729689  1
  Ni  Ni24  1  0.67039234  0.67006753  0.00463975  1
  Fe  Fe25  1  0.83768193  0.83760048  0.17103637  1
  Ni  Ni26  1  0.67038271  0.67172341  0.33812458  1
  Ni  Ni27  1  0.17095715  0.17182741  0.50440116  1
  Ni  Ni28  1  1.00408196  0.00557403  0.67064210  1
  Ni  Ni29  1  0.17150053  0.17060689  0.83705068  1
  Ni  Ni30  1  0.17096199  0.50498665  0.50488492  1
  Ni  Ni31  1  0.00494842  0.33658919  0.67219456  1
  Fe  Fe32  1  0.17250247  0.50509620  0.83691541  1
  Fe  Fe33  1  0.17132496  0.83831109  0.50500198  1
  Fe  Fe34  1  0.00473676  0.67095541  0.67095560  1
  Ni  Ni35  1  0.17025756  0.83830272  0.83715399  1
  Ni  Ni36  1  0.50506824  0.17093662  0.50477588  1
  Fe  Fe37  1  0.33790801  0.00611918  0.67227924  1
  Ni  Ni38  1  0.50419257  0.17148945  0.83753147  1
  Fe  Fe39  1  0.50373480  0.50349643  0.50495872  1
  Ni  Ni40  1  0.33762734  0.33907386  0.67160449  1
  Ni  Ni41  1  0.50506522  0.50480530  0.83731401  1
  Fe  Fe42  1  0.50428977  0.83864059  0.50454005  1
  Ni  Ni43  1  0.33800536  0.67069575  0.67203176  1
  Ni  Ni44  1  0.50542927  0.83742710  0.83763778  1
  Ni  Ni45  1  0.83769602  0.17056419  0.50488167  1
  Ni  Ni46  1  0.67201138  0.00519608  0.67315689  1
  Fe  Fe47  1  0.83748137  0.17020200  0.83730344  1
  Fe  Fe48  1  0.83874377  0.50279766  0.50375986  1
  Ni  Ni49  1  0.67114525  0.33696440  0.67064175  1
  Fe  Fe50  1  0.83685081  0.50472713  0.83857446  1
  Fe  Fe51  1  0.83810627  0.83924928  0.50477611  1
  Fe  Fe52  1  0.67115667  0.67095506  0.67215116  1
  Ni  Ni53  1  0.83803374  0.83743017  0.83763991  1
" 