260,Ni44Fe40Cr15_11,-234.535137152723, 208.969116463328,Ni44Fe40Cr15,"# generated using pymatgen
 data_Cr9Fe22Ni23
_symmetry_space_group_name_H-M   'P 1'
_cell_length_a   7.43563265
_cell_length_b   7.43563265
_cell_length_c   10.51557254
_cell_angle_alpha   90.00000000
_cell_angle_beta   90.00000000
_cell_angle_gamma   90.00000000
_symmetry_Int_Tables_number   1
_chemical_formula_structural   Cr9Fe22Ni23
_chemical_formula_sum   'Cr9 Fe22 Ni23'
_cell_volume   581.39162982
_cell_formula_units_Z   1
loop_
 _symmetry_equiv_pos_site_id
 _symmetry_equiv_pos_as_xyz
  1  'x, y, z'
loop_
 _atom_site_type_symbol
 _atom_site_label
 _atom_site_symmetry_multiplicity
 _atom_site_fract_x
 _atom_site_fract_y
 _atom_site_fract_z
 _atom_site_occupancy
  Cr  Cr0  1  0.00417613  1.00178376  1.00118081  1
  Fe  Fe1  1  0.17086706  0.17085267  0.16923136  1
  Ni  Ni2  1  0.00231004  0.00232683  0.33693940  1
  Fe  Fe3  1  0.00387950  0.33701057  1.00025852  1
  Fe  Fe4  1  0.16960860  0.50030271  0.16956315  1
  Ni  Ni5  1  0.00493771  0.33385543  0.33729873  1
  Ni  Ni6  1  1.00189782  0.66960531  1.00034213  1
  Cr  Cr7  1  0.16754636  0.83404997  0.16991712  1
  Ni  Ni8  1  0.00352974  0.67005066  0.33683287  1
  Ni  Ni9  1  0.33582793  0.00380982  1.00185576  1
  Ni  Ni10  1  0.50132294  0.16892256  0.16677933  1
  Fe  Fe11  1  0.33382442  0.00281546  0.33529353  1
  Fe  Fe12  1  0.33470917  0.33458301  1.00171406  1
  Ni  Ni13  1  0.50156118  0.50002958  0.16908975  1
  Ni  Ni14  1  0.33503586  0.33650630  0.33370893  1
  Cr  Cr15  1  0.33436739  0.66875553  1.00094521  1
  Fe  Fe16  1  0.50279184  0.83669496  0.17069217  1
  Ni  Ni17  1  0.33697141  0.66800523  0.33656031  1
  Fe  Fe18  1  0.66645159  1.00200447  1.00099301  1
  Cr  Cr19  1  0.83464231  0.16879937  0.16871086  1
  Fe  Fe20  1  0.66830491  1.00004324  0.33594883  1
  Ni  Ni21  1  0.66675959  0.33460237  0.99939957  1
  Cr  Cr22  1  0.83809438  0.50290839  0.16903071  1
  Cr  Cr23  1  0.66740966  0.33637705  0.33838393  1
  Cr  Cr24  1  0.66847628  0.66797773  1.00191234  1
  Fe  Fe25  1  0.83371720  0.83545359  0.17112955  1
  Fe  Fe26  1  0.66832729  0.66963063  0.33683428  1
  Fe  Fe27  1  0.16857739  0.16841470  0.50284146  1
  Ni  Ni28  1  0.00248628  0.00256021  0.66821570  1
  Ni  Ni29  1  0.16967358  0.16921919  0.83502705  1
  Fe  Fe30  1  0.16996195  0.50342584  0.50288378  1
  Ni  Ni31  1  0.00235489  0.33367741  0.66809192  1
  Ni  Ni32  1  0.16724806  0.50227971  0.83492395  1
  Ni  Ni33  1  0.16835232  0.83497402  0.50393480  1
  Ni  Ni34  1  0.00349479  0.67002713  0.66926120  1
  Ni  Ni35  1  0.16844409  0.83522656  0.83308008  1
  Cr  Cr36  1  0.50047215  0.16916750  0.50431127  1
  Fe  Fe37  1  0.33332534  1.00161792  0.67004740  1
  Fe  Fe38  1  0.50008700  0.16910905  0.83540439  1
  Ni  Ni39  1  0.50025745  0.50204390  0.50286362  1
  Ni  Ni40  1  0.33514481  0.33666891  0.66992953  1
  Fe  Fe41  1  0.49935244  0.49938145  0.83404232  1
  Ni  Ni42  1  0.50032266  0.83501919  0.50104255  1
  Ni  Ni43  1  0.33496040  0.66884033  0.66875770  1
  Fe  Fe44  1  0.49898393  0.83793908  0.83387090  1
  Fe  Fe45  1  0.83720300  0.16719723  0.50312326  1
  Fe  Fe46  1  0.67045961  1.00187875  0.66852332  1
  Fe  Fe47  1  0.83671644  0.16995200  0.83414992  1
  Fe  Fe48  1  0.83782592  0.50343564  0.50271423  1
  Ni  Ni49  1  0.66913475  0.33480035  0.66964446  1
  Fe  Fe50  1  0.83867030  0.50023176  0.83499542  1
  Ni  Ni51  1  0.83761332  0.83579284  0.50071987  1
  Cr  Cr52  1  0.66746342  0.66778603  0.66766273  1
  Fe  Fe53  1  0.83813826  0.83564897  0.83346382  1
" 