32,Ni44Fe24Cr30_10,-228.439376593182, 181.537873713572,Ni44Fe24Cr30,"# generated using pymatgen
 data_Cr17Fe13Ni24
_symmetry_space_group_name_H-M   'P 1'
_cell_length_a   7.46622448
_cell_length_b   7.46622448
_cell_length_c   10.55883592
_cell_angle_alpha   90.00000000
_cell_angle_beta   90.00000000
_cell_angle_gamma   90.00000000
_symmetry_Int_Tables_number   1
_chemical_formula_structural   Cr17Fe13Ni24
_chemical_formula_sum   'Cr17 Fe13 Ni24'
_cell_volume   588.59711262
_cell_formula_units_Z   1
loop_
 _symmetry_equiv_pos_site_id
 _symmetry_equiv_pos_as_xyz
  1  'x, y, z'
loop_
 _atom_site_type_symbol
 _atom_site_label
 _atom_site_symmetry_multiplicity
 _atom_site_fract_x
 _atom_site_fract_y
 _atom_site_fract_z
 _atom_site_occupancy
  Ni  Ni0  1  0.99568999  0.99989429  0.00070328  1
  Ni  Ni1  1  0.16934088  0.16021684  0.16712962  1
  Fe  Fe2  1  0.00199482  0.99937634  0.33229099  1
  Cr  Cr3  1  0.99774870  0.33195143  0.00154070  1
  Cr  Cr4  1  0.16761149  0.50246817  0.16765930  1
  Cr  Cr5  1  0.99799407  0.33251781  0.33434757  1
  Cr  Cr6  1  0.99584872  0.66800549  0.00041082  1
  Ni  Ni7  1  0.16674524  0.83765543  0.16686817  1
  Cr  Cr8  1  0.00009567  0.66667929  0.33197360  1
  Fe  Fe9  1  0.33501798  0.99833727  0.00199189  1
  Ni  Ni10  1  0.50038450  0.16591371  0.16655009  1
  Ni  Ni11  1  0.33577566  0.99704419  0.33217293  1
  Cr  Cr12  1  0.33538652  0.33257840  0.00210823  1
  Ni  Ni13  1  0.50433959  0.49978269  0.16740128  1
  Cr  Cr14  1  0.33293510  0.33260442  0.33264044  1
  Cr  Cr15  1  0.33781067  0.66832259  0.00035570  1
  Fe  Fe16  1  0.50208782  0.83426235  0.16684384  1
  Ni  Ni17  1  0.33485561  0.67086884  0.33371391  1
  Ni  Ni18  1  0.66725457  0.99813750  0.99949366  1
  Cr  Cr19  1  0.83077553  0.16427999  0.16766034  1
  Ni  Ni20  1  0.66526657  0.99904833  0.33295452  1
  Fe  Fe21  1  0.66788911  0.33469503  0.00083986  1
  Ni  Ni22  1  0.82676208  0.50248020  0.16736583  1
  Ni  Ni23  1  0.66772278  0.33193978  0.33225221  1
  Ni  Ni24  1  0.66681008  0.66952455  0.99970437  1
  Ni  Ni25  1  0.83277339  0.83331751  0.16652673  1
  Fe  Fe26  1  0.66512572  0.66675119  0.33144064  1
  Fe  Fe27  1  0.16563327  0.16471777  0.50143870  1
  Fe  Fe28  1  0.99995899  0.00028678  0.66685951  1
  Cr  Cr29  1  0.16632661  0.16491137  0.83325019  1
  Fe  Fe30  1  0.16523479  0.50187512  0.50167475  1
  Ni  Ni31  1  0.99768195  0.33408913  0.66480576  1
  Cr  Cr32  1  0.16564072  0.49984853  0.83064181  1
  Ni  Ni33  1  0.16700479  0.83568621  0.50016424  1
  Ni  Ni34  1  0.99758631  0.66494956  0.66677556  1
  Cr  Cr35  1  0.16471062  0.83539370  0.83439217  1
  Cr  Cr36  1  0.50085404  0.16576739  0.50029284  1
  Ni  Ni37  1  0.33658139  0.99997612  0.66597865  1
  Cr  Cr38  1  0.50130382  0.16697374  0.83381675  1
  Cr  Cr39  1  0.50280085  0.49989435  0.49975110  1
  Ni  Ni40  1  0.33142778  0.33251883  0.66583454  1
  Fe  Fe41  1  0.50379473  0.50102083  0.83307323  1
  Fe  Fe42  1  0.50023734  0.83425041  0.49988055  1
  Cr  Cr43  1  0.33456712  0.66865321  0.66638903  1
  Ni  Ni44  1  0.50342342  0.83476460  0.83218634  1
  Fe  Fe45  1  0.83277115  0.16654505  0.50105659  1
  Ni  Ni46  1  0.66755544  0.99913867  0.66750017  1
  Ni  Ni47  1  0.83158214  0.16625866  0.83139331  1
  Ni  Ni48  1  0.83256699  0.49977616  0.50068035  1
  Fe  Fe49  1  0.66859678  0.33331769  0.66649983  1
  Ni  Ni50  1  0.82987381  0.50037014  0.83207973  1
  Cr  Cr51  1  0.83368120  0.83293154  0.50031714  1
  Fe  Fe52  1  0.66836398  0.66677298  0.66869879  1
  Ni  Ni53  1  0.83117383  0.83363453  0.83260454  1
" 