5140,Ni44Fe18Cr36_0,-224.831483955311, 167.811632445689,Ni44Fe18Cr36,"# generated using pymatgen
 data_Cr21Fe10Ni23
_symmetry_space_group_name_H-M   'P 1'
_cell_length_a   7.48627397
_cell_length_b   7.48627397
_cell_length_c   10.58719018
_cell_angle_alpha   90.00000000
_cell_angle_beta   90.00000000
_cell_angle_gamma   90.00000000
_symmetry_Int_Tables_number   1
_chemical_formula_structural   Cr21Fe10Ni23
_chemical_formula_sum   'Cr21 Fe10 Ni23'
_cell_volume   593.35164023
_cell_formula_units_Z   1
loop_
 _symmetry_equiv_pos_site_id
 _symmetry_equiv_pos_as_xyz
  1  'x, y, z'
loop_
 _atom_site_type_symbol
 _atom_site_label
 _atom_site_symmetry_multiplicity
 _atom_site_fract_x
 _atom_site_fract_y
 _atom_site_fract_z
 _atom_site_occupancy
  Fe  Fe0  1  -0.00050146  0.99640562  0.00100591  1
  Ni  Ni1  1  0.16727267  0.16958665  0.16532282  1
  Cr  Cr2  1  0.00164349  0.00146747  0.33007372  1
  Cr  Cr3  1  -0.00107560  0.33391321  0.00017271  1
  Ni  Ni4  1  0.16768800  0.49949610  0.16582757  1
  Ni  Ni5  1  0.99527758  0.33409365  0.33124257  1
  Fe  Fe6  1  0.00152560  0.66560009  0.00086562  1
  Fe  Fe7  1  0.16613288  0.82843739  0.16598127  1
  Ni  Ni8  1  -0.00105352  0.66136674  0.32732154  1
  Cr  Cr9  1  0.33004532  0.99753098  0.00127055  1
  Ni  Ni10  1  0.49806610  0.16778812  0.16530213  1
  Cr  Cr11  1  0.33480094  -0.00058223  0.32967074  1
  Fe  Fe12  1  0.33270463  0.33592805  0.00104831  1
  Ni  Ni13  1  0.49534692  0.49787002  0.16525470  1
  Fe  Fe14  1  0.33332925  0.33487704  0.33051065  1
  Ni  Ni15  1  0.33073830  0.66770559  -0.00109041  1
  Ni  Ni16  1  0.50012903  0.83201037  0.16479699  1
  Ni  Ni17  1  0.33344358  0.66547168  0.32943643  1
  Fe  Fe18  1  0.66301714  0.99748702  0.00121160  1
  Cr  Cr19  1  0.82995811  0.16457594  0.16424514  1
  Fe  Fe20  1  0.66580674  -0.00003049  0.33131451  1
  Ni  Ni21  1  0.66488393  0.33299464  0.00170946  1
  Ni  Ni22  1  0.83357671  0.49967828  0.16603150  1
  Ni  Ni23  1  0.66565314  0.33267166  0.33285646  1
  Cr  Cr24  1  0.66345807  0.66224536  0.00282549  1
  Ni  Ni25  1  0.83292121  0.83109152  0.16469802  1
  Cr  Cr26  1  0.66456729  0.66011737  0.32983686  1
  Cr  Cr27  1  0.16591282  0.16801933  0.49785407  1
  Ni  Ni28  1  0.99816372  0.99721720  0.66649737  1
  Cr  Cr29  1  0.16557424  0.16879431  0.83222130  1
  Cr  Cr30  1  0.16738948  0.50050666  0.49664893  1
  Cr  Cr31  1  0.99618783  0.33351179  0.66337150  1
  Ni  Ni32  1  0.16814362  0.50304797  0.83180393  1
  Cr  Cr33  1  0.16356583  0.82767785  0.49880738  1
  Ni  Ni34  1  -0.00007519  0.66524567  0.66746340  1
  Fe  Fe35  1  0.16530553  0.82944763  0.83159719  1
  Ni  Ni36  1  0.50249250  0.16905950  0.49841363  1
  Cr  Cr37  1  0.33209045  0.99832422  0.66550607  1
  Cr  Cr38  1  0.50088024  0.16691789  0.83395549  1
  Ni  Ni39  1  0.49777135  0.49469124  0.49855437  1
  Ni  Ni40  1  0.33426881  0.33256528  0.66486237  1
  Cr  Cr41  1  0.49492545  0.49699255  0.83248159  1
  Cr  Cr42  1  0.49893046  0.83079148  0.49878095  1
  Fe  Fe43  1  0.33122584  0.66290301  0.66619408  1
  Fe  Fe44  1  0.49786710  0.83115181  0.83284885  1
  Ni  Ni45  1  0.82816684  0.16606581  0.50017295  1
  Ni  Ni46  1  0.66434177  0.00018848  0.66447336  1
  Cr  Cr47  1  0.82925579  0.16295208  0.83247047  1
  Ni  Ni48  1  0.83217982  0.49740284  0.49736154  1
  Ni  Ni49  1  0.66322629  0.33094229  0.66230018  1
  Cr  Cr50  1  0.83273079  0.49877805  0.83290616  1
  Cr  Cr51  1  0.83389797  0.83276178  0.49753362  1
  Cr  Cr52  1  0.66509087  0.66124688  0.66366211  1
  Cr  Cr53  1  0.83179193  0.83365675  0.83317247  1
" 