8566,Ni44Fe26Cr28_19,-229.304657890823, 181.979597210128,Ni44Fe26Cr28,"# generated using pymatgen
 data_Cr8Fe7Ni12
_symmetry_space_group_name_H-M   'P 1'
_cell_length_a   7.46347459
_cell_length_b   7.46347459
_cell_length_c   10.55494698
_cell_angle_alpha   90.00000000
_cell_angle_beta   90.00000000
_cell_angle_gamma   90.00000000
_symmetry_Int_Tables_number   1
_chemical_formula_structural   Cr8Fe7Ni12
_chemical_formula_sum   'Cr16 Fe14 Ni24'
_cell_volume   587.94699194
_cell_formula_units_Z   2
loop_
 _symmetry_equiv_pos_site_id
 _symmetry_equiv_pos_as_xyz
  1  'x, y, z'
loop_
 _atom_site_type_symbol
 _atom_site_label
 _atom_site_symmetry_multiplicity
 _atom_site_fract_x
 _atom_site_fract_y
 _atom_site_fract_z
 _atom_site_occupancy
  Cr  Cr0  1  0.00314156  0.99799267  0.00221294  1
  Fe  Fe1  1  0.16877935  0.16551634  0.16803557  1
  Fe  Fe2  1  0.99930777  0.99956977  0.33503673  1
  Cr  Cr3  1  0.99980838  0.33409086  0.00083517  1
  Cr  Cr4  1  0.16912377  0.50005120  0.16899685  1
  Fe  Fe5  1  0.99862822  0.33415006  0.33546812  1
  Cr  Cr6  1  0.99590455  0.66846761  0.99948849  1
  Fe  Fe7  1  0.16722238  0.83418029  0.16987520  1
  Ni  Ni8  1  0.99990497  0.66759845  0.33538311  1
  Ni  Ni9  1  0.33294505  0.99995022  0.99933480  1
  Cr  Cr10  1  0.50028025  0.16635451  0.16736132  1
  Ni  Ni11  1  0.33229832  0.00175398  0.33336732  1
  Ni  Ni12  1  0.33570468  0.33162441  0.99913430  1
  Fe  Fe13  1  0.50172235  0.49992437  0.16618315  1
  Ni  Ni14  1  0.33296922  0.33030545  0.33547983  1
  Fe  Fe15  1  0.33623822  0.66788566  1.00020134  1
  Ni  Ni16  1  0.49789754  0.83301176  0.16652384  1
  Fe  Fe17  1  0.33332316  0.66857173  0.33347917  1
  Cr  Cr18  1  0.66566529  0.99661280  0.99992881  1
  Cr  Cr19  1  0.83342553  0.16789692  0.16935740  1
  Ni  Ni20  1  0.66607452  0.00049090  0.33525684  1
  Ni  Ni21  1  0.66407361  0.33802999  1.00018936  1
  Ni  Ni22  1  0.83369302  0.50102377  0.16636809  1
  Ni  Ni23  1  0.66666630  0.33350681  0.33428076  1
  Ni  Ni24  1  0.66631029  0.66552263  0.00145068  1
  Ni  Ni25  1  0.83286067  0.83294149  0.16878978  1
  Cr  Cr26  1  0.67068851  0.66684711  0.33074497  1
  Ni  Ni27  1  0.16536347  0.16415822  0.49738760  1
  Ni  Ni28  1  0.00080461  0.99787666  0.66561144  1
  Ni  Ni29  1  0.16803221  0.16382868  0.83584524  1
  Fe  Fe30  1  0.16485526  0.50018651  0.49758984  1
  Cr  Cr31  1  0.00062255  0.33351026  0.66471217  1
  Cr  Cr32  1  0.16698527  0.50110223  0.83194522  1
  Ni  Ni33  1  0.16492304  0.83369483  0.49888006  1
  Ni  Ni34  1  0.99634179  0.66966568  0.66536533  1
  Fe  Fe35  1  0.16590926  0.83373467  0.83207001  1
  Ni  Ni36  1  0.50238052  0.16626068  0.49991762  1
  Cr  Cr37  1  0.33274738  0.00296943  0.66798362  1
  Fe  Fe38  1  0.50058188  0.17026655  0.83468388  1
  Cr  Cr39  1  0.50164072  0.49991146  0.49821599  1
  Cr  Cr40  1  0.33565454  0.33094001  0.66559466  1
  Ni  Ni41  1  0.50281731  0.50225903  0.83623333  1
  Cr  Cr42  1  0.50043296  0.83546704  0.49931503  1
  Cr  Cr43  1  0.33324817  0.66713445  0.66520848  1
  Fe  Fe44  1  0.50082081  0.83172649  0.83436188  1
  Ni  Ni45  1  0.83283232  0.16692165  0.49959814  1
  Fe  Fe46  1  0.66908947  0.00057881  0.66535415  1
  Cr  Cr47  1  0.83312995  0.16721342  0.83264260  1
  Ni  Ni48  1  0.83457386  0.49966308  0.50079512  1
  Ni  Ni49  1  0.66659543  0.33516513  0.66691231  1
  Ni  Ni50  1  0.82957148  0.50203246  0.83316642  1
  Fe  Fe51  1  0.83491161  0.83479943  0.50002951  1
  Ni  Ni52  1  0.67038166  0.66598720  0.66864110  1
  Fe  Fe53  1  0.83302082  0.83200004  0.83210117  1
" 