281,Ni44Fe49Cr5_9,-237.591354134244, 213.517376950729,Ni44Fe49Cr5,"# generated using pymatgen
 data_Cr2Fe13Ni12
_symmetry_space_group_name_H-M   'P 1'
_cell_length_a   7.41655009
_cell_length_b   7.41655009
_cell_length_c   10.48858572
_cell_angle_alpha   90.00000000
_cell_angle_beta   90.00000000
_cell_angle_gamma   90.00000000
_symmetry_Int_Tables_number   1
_chemical_formula_structural   Cr2Fe13Ni12
_chemical_formula_sum   'Cr4 Fe26 Ni24'
_cell_volume   576.92691527
_cell_formula_units_Z   2
loop_
 _symmetry_equiv_pos_site_id
 _symmetry_equiv_pos_as_xyz
  1  'x, y, z'
loop_
 _atom_site_type_symbol
 _atom_site_label
 _atom_site_symmetry_multiplicity
 _atom_site_fract_x
 _atom_site_fract_y
 _atom_site_fract_z
 _atom_site_occupancy
  Fe  Fe0  1  1.00321174  0.00370131  0.00362992  1
  Ni  Ni1  1  0.17002374  0.16933818  0.17106159  1
  Ni  Ni2  1  1.00338806  0.00377760  0.33691593  1
  Ni  Ni3  1  1.00328888  0.33597597  0.00445863  1
  Fe  Fe4  1  0.17005178  0.50458647  0.17062554  1
  Fe  Fe5  1  1.00305609  0.33577969  0.33685865  1
  Fe  Fe6  1  0.00507698  0.67089118  0.00382579  1
  Fe  Fe7  1  0.17093534  0.83668839  0.16992757  1
  Ni  Ni8  1  0.00455771  0.66911882  0.33511104  1
  Fe  Fe9  1  0.33720895  1.00275591  1.00285648  1
  Ni  Ni10  1  0.50290745  0.16994675  0.17060273  1
  Fe  Fe11  1  0.33628942  0.00369253  0.33712604  1
  Cr  Cr12  1  0.33682246  0.33761576  1.00247121  1
  Ni  Ni13  1  0.50400809  0.50330719  0.17171753  1
  Fe  Fe14  1  0.33641871  0.33554684  0.33637655  1
  Ni  Ni15  1  0.33485393  0.67083733  1.00272601  1
  Ni  Ni16  1  0.50369038  0.83696126  0.17037001  1
  Fe  Fe17  1  0.33683252  0.67097505  0.33563047  1
  Ni  Ni18  1  0.67029035  0.00517889  1.00306755  1
  Fe  Fe19  1  0.83544435  0.16938222  0.17020771  1
  Ni  Ni20  1  0.66928275  0.00464794  0.33593808  1
  Ni  Ni21  1  0.67080297  0.33330408  0.00429401  1
  Fe  Fe22  1  0.83693676  0.50230971  0.17097135  1
  Fe  Fe23  1  0.67073701  0.33632124  0.33666609  1
  Cr  Cr24  1  0.66822750  0.67194182  0.00408947  1
  Ni  Ni25  1  0.83764880  0.83609846  0.17069716  1
  Fe  Fe26  1  0.67032174  0.67018887  0.33529813  1
  Ni  Ni27  1  0.17107525  0.16984965  0.50352015  1
  Fe  Fe28  1  0.00459263  0.00381764  0.67068266  1
  Ni  Ni29  1  0.17080217  0.16813569  0.83563131  1
  Fe  Fe30  1  0.16877459  0.50270047  0.50336354  1
  Fe  Fe31  1  0.00425421  0.33504791  0.66916985  1
  Fe  Fe32  1  0.17101735  0.50463626  0.83621846  1
  Fe  Fe33  1  0.17074054  0.83743092  0.50395337  1
  Ni  Ni34  1  0.00525712  0.66912895  0.67059092  1
  Ni  Ni35  1  0.16884359  0.83757774  0.83744897  1
  Ni  Ni36  1  0.50186155  0.17046653  0.50290618  1
  Ni  Ni37  1  0.33796192  0.00402013  0.66977918  1
  Ni  Ni38  1  0.50264715  0.17035965  0.83670084  1
  Fe  Fe39  1  0.50403582  0.50210235  0.50343056  1
  Fe  Fe40  1  0.33703184  0.33551692  0.67039106  1
  Ni  Ni41  1  0.50257087  0.50248899  0.83496988  1
  Fe  Fe42  1  0.50250579  0.83846908  0.50315245  1
  Fe  Fe43  1  0.33684617  0.67100743  0.67114215  1
  Fe  Fe44  1  0.50220267  0.83828393  0.83630484  1
  Ni  Ni45  1  0.83727590  0.17183332  0.50374408  1
  Ni  Ni46  1  0.66850690  0.00468098  0.67120853  1
  Fe  Fe47  1  0.83617971  0.16810561  0.83687652  1
  Ni  Ni48  1  0.83671484  0.50325901  0.50274542  1
  Fe  Fe49  1  0.66892448  0.33553925  0.66942334  1
  Cr  Cr50  1  0.83597839  0.50443448  0.83683003  1
  Cr  Cr51  1  0.83734938  0.83574854  0.50393434  1
  Fe  Fe52  1  0.66879654  0.67067068  0.67042309  1
  Ni  Ni53  1  0.83877470  0.83765501  0.83577354  1
" 