4051,Ni44Fe40Cr15_12,-234.052691158983, 203.286724794356,Ni44Fe40Cr15,"# generated using pymatgen
 data_Cr9Fe22Ni23
_symmetry_space_group_name_H-M   'P 1'
_cell_length_a   7.43217302
_cell_length_b   7.43217302
_cell_length_c   10.51067988
_cell_angle_alpha   90.00000000
_cell_angle_beta   90.00000000
_cell_angle_gamma   90.00000000
_symmetry_Int_Tables_number   1
_chemical_formula_structural   Cr9Fe22Ni23
_chemical_formula_sum   'Cr9 Fe22 Ni23'
_cell_volume   580.58048204
_cell_formula_units_Z   1
loop_
 _symmetry_equiv_pos_site_id
 _symmetry_equiv_pos_as_xyz
  1  'x, y, z'
loop_
 _atom_site_type_symbol
 _atom_site_label
 _atom_site_symmetry_multiplicity
 _atom_site_fract_x
 _atom_site_fract_y
 _atom_site_fract_z
 _atom_site_occupancy
  Cr  Cr0  1  0.00277406  0.00352630  0.00266197  1
  Cr  Cr1  1  0.16894891  0.17147750  0.16967284  1
  Ni  Ni2  1  1.00213996  0.00446572  0.33722785  1
  Ni  Ni3  1  0.00337740  0.33758781  1.00205119  1
  Ni  Ni4  1  0.16987933  0.50364919  0.16778184  1
  Ni  Ni5  1  1.00165036  0.33467528  0.33593291  1
  Fe  Fe6  1  0.00265329  0.66702202  0.00257829  1
  Fe  Fe7  1  0.16978265  0.83465646  0.16841279  1
  Cr  Cr8  1  1.00188723  0.66824434  0.33588551  1
  Ni  Ni9  1  0.33752428  1.00185164  1.00136236  1
  Ni  Ni10  1  0.50346735  0.16884238  0.16749186  1
  Cr  Cr11  1  0.33314916  1.00167675  0.33590861  1
  Ni  Ni12  1  0.33463760  0.33555530  1.00156199  1
  Fe  Fe13  1  0.50177489  0.50230303  0.16952198  1
  Fe  Fe14  1  0.33478794  0.33849340  0.33503499  1
  Fe  Fe15  1  0.33533381  0.66822381  1.00227497  1
  Fe  Fe16  1  0.50242990  0.83465188  0.16753453  1
  Fe  Fe17  1  0.33623256  0.66735782  0.33621688  1
  Fe  Fe18  1  0.66736652  1.00210889  1.00223127  1
  Ni  Ni19  1  0.83424293  0.16887828  0.17037561  1
  Cr  Cr20  1  0.67120904  1.00173493  0.33445858  1
  Cr  Cr21  1  0.66976858  0.33589353  1.00231433  1
  Fe  Fe22  1  0.83577010  0.50134812  0.16946899  1
  Fe  Fe23  1  0.67104583  0.33711692  0.33536536  1
  Ni  Ni24  1  0.66874124  0.67020293  0.00269057  1
  Fe  Fe25  1  0.83482503  0.83531654  0.16811929  1
  Ni  Ni26  1  0.66720352  0.66694205  0.33617033  1
  Ni  Ni27  1  0.16666674  0.16957716  0.50281300  1
  Ni  Ni28  1  0.00499141  0.00397145  0.66736346  1
  Ni  Ni29  1  0.17069644  0.17008538  0.83469828  1
  Ni  Ni30  1  0.16938827  0.50251162  0.50315812  1
  Ni  Ni31  1  1.00188931  0.33461428  0.66905466  1
  Fe  Fe32  1  0.16853176  0.50096400  0.83587916  1
  Fe  Fe33  1  0.16842967  0.83641528  0.50416985  1
  Fe  Fe34  1  0.00385550  0.66902054  0.66867214  1
  Fe  Fe35  1  0.16973125  0.83701842  0.83445472  1
  Cr  Cr36  1  0.50189766  0.17048260  0.50361643  1
  Ni  Ni37  1  0.33247570  1.00103113  0.66995976  1
  Ni  Ni38  1  0.50054557  0.16852118  0.83624207  1
  Fe  Fe39  1  0.50203862  0.50258819  0.50187278  1
  Fe  Fe40  1  0.33454513  0.33551464  0.67014816  1
  Fe  Fe41  1  0.50165391  0.50155615  0.83563919  1
  Fe  Fe42  1  0.50065837  0.83250538  0.50246286  1
  Ni  Ni43  1  0.33490995  0.66978009  0.66819792  1
  Fe  Fe44  1  0.50102722  0.83699067  0.83703778  1
  Ni  Ni45  1  0.83871076  0.17014663  0.50213915  1
  Cr  Cr46  1  0.66978021  0.00364058  0.67060194  1
  Ni  Ni47  1  0.83579693  0.16885059  0.83452405  1
  Ni  Ni48  1  0.83601436  0.50191537  0.50233724  1
  Ni  Ni49  1  0.67089807  0.33704460  0.66911544  1
  Fe  Fe50  1  0.83685384  0.50106109  0.83527833  1
  Fe  Fe51  1  0.83794461  0.83599435  0.50238567  1
  Cr  Cr52  1  0.66845079  0.66664503  0.66799058  1
  Ni  Ni53  1  0.83570877  0.83444509  0.83657390  1
" 