7318,Ni44Fe49Cr5_4,-238.272341909129, 217.643394109989,Ni44Fe49Cr5,"# generated using pymatgen
 data_Cr2Fe13Ni12
_symmetry_space_group_name_H-M   'P 1'
_cell_length_a   7.41120012
_cell_length_b   7.41120012
_cell_length_c   10.48101972
_cell_angle_alpha   90.00000000
_cell_angle_beta   90.00000000
_cell_angle_gamma   90.00000000
_symmetry_Int_Tables_number   1
_chemical_formula_structural   Cr2Fe13Ni12
_chemical_formula_sum   'Cr4 Fe26 Ni24'
_cell_volume   575.67930714
_cell_formula_units_Z   2
loop_
 _symmetry_equiv_pos_site_id
 _symmetry_equiv_pos_as_xyz
  1  'x, y, z'
loop_
 _atom_site_type_symbol
 _atom_site_label
 _atom_site_symmetry_multiplicity
 _atom_site_fract_x
 _atom_site_fract_y
 _atom_site_fract_z
 _atom_site_occupancy
  Fe  Fe0  1  0.00561997  1.00131037  0.00455286  1
  Ni  Ni1  1  0.17152810  0.16882543  0.17048835  1
  Ni  Ni2  1  0.00456976  0.00391265  0.33635884  1
  Cr  Cr3  1  1.00271725  0.33659744  0.00641354  1
  Fe  Fe4  1  0.17191956  0.50457308  0.17092084  1
  Fe  Fe5  1  0.00384863  0.33628395  0.33737729  1
  Fe  Fe6  1  1.00358028  0.67277311  0.00480752  1
  Ni  Ni7  1  0.17101895  0.83763238  0.16985980  1
  Fe  Fe8  1  0.00393332  0.67011368  0.33661734  1
  Ni  Ni9  1  0.33633651  1.00199088  1.00324785  1
  Ni  Ni10  1  0.50357973  0.17002758  0.16963356  1
  Ni  Ni11  1  0.33520110  1.00243669  0.33651903  1
  Fe  Fe12  1  0.33990975  0.33607827  0.00505610  1
  Fe  Fe13  1  0.50334608  0.50324708  0.17028618  1
  Ni  Ni14  1  0.33704975  0.33790306  0.33524971  1
  Ni  Ni15  1  0.33802099  0.67285502  0.00565979  1
  Ni  Ni16  1  0.50243321  0.83808584  0.17025892  1
  Fe  Fe17  1  0.33748243  0.67092398  0.33724654  1
  Fe  Fe18  1  0.66855089  1.00320287  0.00441217  1
  Fe  Fe19  1  0.83612541  0.16944306  0.17153968  1
  Fe  Fe20  1  0.67023067  0.00383876  0.33681340  1
  Ni  Ni21  1  0.66924958  0.33864917  0.00426478  1
  Ni  Ni22  1  0.83664762  0.50369330  0.17004026  1
  Ni  Ni23  1  0.67137412  0.33869872  0.33624001  1
  Fe  Fe24  1  0.66969844  0.66998596  1.00355191  1
  Fe  Fe25  1  0.83745530  0.83773482  0.17053048  1
  Fe  Fe26  1  0.66988688  0.67025116  0.33777481  1
  Fe  Fe27  1  0.16866607  0.17074576  0.50310163  1
  Ni  Ni28  1  0.00470708  0.00420630  0.67030983  1
  Fe  Fe29  1  0.17274567  0.16807339  0.83657680  1
  Fe  Fe30  1  0.17089604  0.50338138  0.50421761  1
  Ni  Ni31  1  1.00271435  0.33601511  0.66762428  1
  Cr  Cr32  1  0.17132010  0.50567229  0.83654735  1
  Fe  Fe33  1  0.17052786  0.83717540  0.50379254  1
  Fe  Fe34  1  1.00213973  0.67114459  0.66987975  1
  Ni  Ni35  1  0.17048508  0.83819710  0.83730084  1
  Cr  Cr36  1  0.50512019  0.16997096  0.50464408  1
  Fe  Fe37  1  0.33672899  1.00260913  0.67133352  1
  Fe  Fe38  1  0.50217175  0.17068231  0.83762839  1
  Ni  Ni39  1  0.50429065  0.50572389  0.50367358  1
  Fe  Fe40  1  0.33781764  0.33753425  0.67010314  1
  Ni  Ni41  1  0.50520301  0.50353447  0.83721811  1
  Ni  Ni42  1  0.50286985  0.83549810  0.50435897  1
  Ni  Ni43  1  0.33892480  0.67159278  0.66884830  1
  Fe  Fe44  1  0.50307448  0.83643631  0.83686608  1
  Ni  Ni45  1  0.83879314  0.17138252  0.50293620  1
  Ni  Ni46  1  0.67120440  1.00215391  0.67001530  1
  Cr  Cr47  1  0.83572585  0.17035627  0.83619984  1
  Ni  Ni48  1  0.83736590  0.50254043  0.50584481  1
  Ni  Ni49  1  0.67171195  0.33954655  0.67080115  1
  Fe  Fe50  1  0.83459756  0.50591201  0.83620564  1
  Fe  Fe51  1  0.83606082  0.83735144  0.50426941  1
  Ni  Ni52  1  0.66907520  0.66959777  0.67093850  1
  Fe  Fe53  1  0.83720749  0.83535718  0.83650272  1
" 