1527,Ni44Fe18Cr36_4,-225.255297451971, 172.547412312776,Ni44Fe18Cr36,"# generated using pymatgen
 data_Cr21Fe10Ni23
_symmetry_space_group_name_H-M   'P 1'
_cell_length_a   7.48358487
_cell_length_b   7.48358487
_cell_length_c   10.58338722
_cell_angle_alpha   90.00000000
_cell_angle_beta   90.00000000
_cell_angle_gamma   90.00000000
_symmetry_Int_Tables_number   1
_chemical_formula_structural   Cr21Fe10Ni23
_chemical_formula_sum   'Cr21 Fe10 Ni23'
_cell_volume   592.71246711
_cell_formula_units_Z   1
loop_
 _symmetry_equiv_pos_site_id
 _symmetry_equiv_pos_as_xyz
  1  'x, y, z'
loop_
 _atom_site_type_symbol
 _atom_site_label
 _atom_site_symmetry_multiplicity
 _atom_site_fract_x
 _atom_site_fract_y
 _atom_site_fract_z
 _atom_site_occupancy
  Cr  Cr0  1  0.99880308  0.99737489  0.99826007  1
  Ni  Ni1  1  0.16645223  0.16482642  0.16704666  1
  Cr  Cr2  1  0.00198699  0.99470248  0.33474223  1
  Ni  Ni3  1  -0.00039217  0.33160252  0.00083534  1
  Fe  Fe4  1  0.16602718  0.50130504  0.16780967  1
  Fe  Fe5  1  0.00637223  0.33310090  0.33200084  1
  Fe  Fe6  1  -0.00002494  0.66580734  0.00192918  1
  Ni  Ni7  1  0.16776405  0.83220645  0.16577945  1
  Ni  Ni8  1  -0.00031382  0.66694187  0.33062452  1
  Ni  Ni9  1  0.33208353  0.99690130  0.00412725  1
  Fe  Fe10  1  0.49720092  0.16188951  0.16827813  1
  Ni  Ni11  1  0.33268708  0.99887620  0.33158477  1
  Cr  Cr12  1  0.33131644  0.33207925  0.00222536  1
  Cr  Cr13  1  0.49866639  0.50251112  0.16746517  1
  Ni  Ni14  1  0.33371680  0.33177975  0.33309040  1
  Ni  Ni15  1  0.33318591  0.66742125  0.00179697  1
  Ni  Ni16  1  0.49698644  0.83278103  0.16513546  1
  Ni  Ni17  1  0.33099597  0.66586685  0.33358118  1
  Fe  Fe18  1  0.66519572  0.99667887  0.00051923  1
  Cr  Cr19  1  0.83257462  0.16558451  0.16821562  1
  Fe  Fe20  1  0.66206096  0.99557672  0.33239365  1
  Cr  Cr21  1  0.66491678  0.33253088  0.99824745  1
  Cr  Cr22  1  0.83379032  0.49942930  0.16780234  1
  Fe  Fe23  1  0.66106513  0.33259858  0.33312092  1
  Ni  Ni24  1  0.66636302  0.66871041  -0.00002644  1
  Ni  Ni25  1  0.83049251  0.83118578  0.16625151  1
  Fe  Fe26  1  0.66259384  0.66912403  0.33260605  1
  Ni  Ni27  1  0.16768214  0.16710260  0.49829704  1
  Cr  Cr28  1  0.99845310  0.99747111  0.66352144  1
  Cr  Cr29  1  0.16458199  0.16631781  0.83017724  1
  Ni  Ni30  1  0.16723195  0.49905710  0.49691934  1
  Ni  Ni31  1  0.00145710  0.33287061  0.66400063  1
  Cr  Cr32  1  0.16630712  0.49935583  0.83272227  1
  Ni  Ni33  1  0.16897578  0.83069576  0.49683373  1
  Cr  Cr34  1  0.99815498  0.66778023  0.66376174  1
  Cr  Cr35  1  0.16905824  0.83115968  0.83350913  1
  Ni  Ni36  1  0.49694136  0.16534894  0.49502218  1
  Cr  Cr37  1  0.33210124  0.00010148  0.66085314  1
  Cr  Cr38  1  0.49697004  0.16231617  0.83436925  1
  Ni  Ni39  1  0.49717241  0.50068187  0.49882376  1
  Ni  Ni40  1  0.33114472  0.33413214  0.66121696  1
  Cr  Cr41  1  0.49681651  0.50314801  0.82934788  1
  Ni  Ni42  1  0.49713057  0.83050732  0.49729345  1
  Fe  Fe43  1  0.33263872  0.66445673  0.66112733  1
  Cr  Cr44  1  0.49762620  0.83042038  0.83400926  1
  Cr  Cr45  1  0.83330990  0.16707492  0.49698328  1
  Cr  Cr46  1  0.66671739  0.99644294  0.66549810  1
  Ni  Ni47  1  0.83388923  0.16506610  0.83291075  1
  Cr  Cr48  1  0.83247490  0.49875246  0.49502047  1
  Cr  Cr49  1  0.66217545  0.33315274  0.66575998  1
  Cr  Cr50  1  0.83347094  0.49905417  0.83346503  1
  Fe  Fe51  1  0.83039545  0.83004087  0.49645113  1
  Ni  Ni52  1  0.66488094  0.66690937  0.66300439  1
  Ni  Ni53  1  0.83000971  0.83152471  0.83399339  1
" 