100,Ni44Fe26Cr28_0,-229.151268867767, 188.239356045044,Ni44Fe26Cr28,"# generated using pymatgen
 data_Cr8Fe7Ni12
_symmetry_space_group_name_H-M   'P 1'
_cell_length_a   7.46505284
_cell_length_b   7.46505284
_cell_length_c   10.55717897
_cell_angle_alpha   90.00000000
_cell_angle_beta   90.00000000
_cell_angle_gamma   90.00000000
_symmetry_Int_Tables_number   1
_chemical_formula_structural   Cr8Fe7Ni12
_chemical_formula_sum   'Cr16 Fe14 Ni24'
_cell_volume   588.32005849
_cell_formula_units_Z   2
loop_
 _symmetry_equiv_pos_site_id
 _symmetry_equiv_pos_as_xyz
  1  'x, y, z'
loop_
 _atom_site_type_symbol
 _atom_site_label
 _atom_site_symmetry_multiplicity
 _atom_site_fract_x
 _atom_site_fract_y
 _atom_site_fract_z
 _atom_site_occupancy
  Cr  Cr0  1  0.00014319  0.99866358  0.99874759  1
  Fe  Fe1  1  0.16844141  0.16634073  0.16508788  1
  Ni  Ni2  1  0.99895825  0.99971799  0.33345294  1
  Cr  Cr3  1  0.99847857  0.33463835  0.00035202  1
  Fe  Fe4  1  0.16982946  0.50293614  0.16538229  1
  Cr  Cr5  1  0.00120286  0.33213612  0.33238471  1
  Ni  Ni6  1  0.00044913  0.66683888  0.99949828  1
  Ni  Ni7  1  0.16541808  0.83349086  0.16514967  1
  Cr  Cr8  1  0.00154516  0.66783732  0.33203577  1
  Fe  Fe9  1  0.33224205  0.00061259  0.00079573  1
  Ni  Ni10  1  0.49972682  0.16759174  0.16471348  1
  Cr  Cr11  1  0.33310647  0.00035790  0.33373137  1
  Ni  Ni12  1  0.33459877  0.33507143  0.00024845  1
  Ni  Ni13  1  0.50140043  0.50045730  0.16457668  1
  Cr  Cr14  1  0.33392423  0.33566139  0.33340209  1
  Ni  Ni15  1  0.33247218  0.66447788  0.99972276  1
  Cr  Cr16  1  0.49846704  0.83271589  0.16745746  1
  Ni  Ni17  1  0.33367823  0.66726181  0.33418748  1
  Cr  Cr18  1  0.66839851  0.00114535  0.99936788  1
  Fe  Fe19  1  0.83200991  0.16531760  0.16678070  1
  Ni  Ni20  1  0.66842320  0.99993696  0.33605673  1
  Ni  Ni21  1  0.66558658  0.33561302  0.00081095  1
  Ni  Ni22  1  0.83269578  0.50186401  0.16495758  1
  Cr  Cr23  1  0.66533205  0.33317595  0.32957769  1
  Ni  Ni24  1  0.66738586  0.66372784  0.99980047  1
  Fe  Fe25  1  0.83248227  0.83209250  0.16669807  1
  Ni  Ni26  1  0.66563250  0.66884442  0.33228021  1
  Fe  Fe27  1  0.16635827  0.16836771  0.50140478  1
  Cr  Cr28  1  0.99944759  0.00045784  0.66785708  1
  Ni  Ni29  1  0.16698498  0.16877704  0.83351695  1
  Ni  Ni30  1  0.16704097  0.50170919  0.50155221  1
  Ni  Ni31  1  1.00011331  0.33274488  0.66763813  1
  Fe  Fe32  1  0.16752153  0.49919452  0.83327338  1
  Ni  Ni33  1  0.16700979  0.83307800  0.49960174  1
  Cr  Cr34  1  0.00112328  0.66643151  0.66928603  1
  Fe  Fe35  1  0.16639080  0.83217260  0.83494663  1
  Ni  Ni36  1  0.50226432  0.16476321  0.50195052  1
  Cr  Cr37  1  0.33301551  0.99869137  0.66633822  1
  Cr  Cr38  1  0.49931043  0.16918824  0.83448860  1
  Cr  Cr39  1  0.50055927  0.50039571  0.50125263  1
  Fe  Fe40  1  0.33216742  0.33537425  0.66707654  1
  Fe  Fe41  1  0.50151818  0.49990335  0.83415761  1
  Fe  Fe42  1  0.50087905  0.83184370  0.50011576  1
  Ni  Ni43  1  0.33404149  0.66592772  0.66630249  1
  Cr  Cr44  1  0.49934972  0.83118251  0.83387209  1
  Fe  Fe45  1  0.83313840  0.16609171  0.50119664  1
  Fe  Fe46  1  0.66815737  0.99938783  0.66630430  1
  Ni  Ni47  1  0.83395678  0.16958960  0.83171280  1
  Cr  Cr48  1  0.83416634  0.49989327  0.50117178  1
  Ni  Ni49  1  0.66753153  0.33308659  0.66873473  1
  Ni  Ni50  1  0.83286233  0.50012147  0.83375358  1
  Fe  Fe51  1  0.83181665  0.83399067  0.50023801  1
  Ni  Ni52  1  0.66536014  0.66600215  0.66829148  1
  Ni  Ni53  1  0.83310036  0.83032260  0.83392317  1
" 