5229,Ni44Fe40Cr15_18,-234.160417314203, 204.363504908777,Ni44Fe40Cr15,"# generated using pymatgen
 data_Cr9Fe22Ni23
_symmetry_space_group_name_H-M   'P 1'
_cell_length_a   7.43245262
_cell_length_b   7.43245262
_cell_length_c   10.51107530
_cell_angle_alpha   90.00000000
_cell_angle_beta   90.00000000
_cell_angle_gamma   90.00000000
_symmetry_Int_Tables_number   1
_chemical_formula_structural   Cr9Fe22Ni23
_chemical_formula_sum   'Cr9 Fe22 Ni23'
_cell_volume   580.64600956
_cell_formula_units_Z   1
loop_
 _symmetry_equiv_pos_site_id
 _symmetry_equiv_pos_as_xyz
  1  'x, y, z'
loop_
 _atom_site_type_symbol
 _atom_site_label
 _atom_site_symmetry_multiplicity
 _atom_site_fract_x
 _atom_site_fract_y
 _atom_site_fract_z
 _atom_site_occupancy
  Fe  Fe0  1  0.00358172  0.00390255  1.00095030  1
  Ni  Ni1  1  0.16791470  0.16907619  0.16889438  1
  Fe  Fe2  1  1.00221833  0.00262785  0.33521597  1
  Fe  Fe3  1  1.00077789  0.33539292  1.00158615  1
  Cr  Cr4  1  0.16865797  0.50033536  0.16890199  1
  Fe  Fe5  1  1.00118832  0.33760359  0.33550378  1
  Fe  Fe6  1  1.00058224  0.66768430  1.00027806  1
  Cr  Cr7  1  0.17093790  0.83732330  0.16944585  1
  Ni  Ni8  1  1.00110776  0.66912176  0.33911389  1
  Fe  Fe9  1  0.33531267  0.00248507  1.00092853  1
  Cr  Cr10  1  0.50122195  0.16989001  0.17066275  1
  Fe  Fe11  1  0.33692977  1.00135353  0.33600772  1
  Ni  Ni12  1  0.33485839  0.33576734  1.00083440  1
  Ni  Ni13  1  0.50491699  0.50317127  0.16925388  1
  Ni  Ni14  1  0.33589503  0.33570538  0.33657357  1
  Fe  Fe15  1  0.33876039  0.66865922  1.00059979  1
  Ni  Ni16  1  0.50210472  0.83390548  0.16901980  1
  Fe  Fe17  1  0.33787955  0.66830470  0.33723174  1
  Cr  Cr18  1  0.66922085  1.00089038  1.00169708  1
  Fe  Fe19  1  0.83716870  0.17169874  0.16988558  1
  Fe  Fe20  1  0.66782976  1.00115077  0.33680936  1
  Ni  Ni21  1  0.66915827  0.33844442  1.00132791  1
  Ni  Ni22  1  0.83370644  0.50074223  0.16930050  1
  Ni  Ni23  1  0.66839518  0.33734360  0.33557392  1
  Ni  Ni24  1  0.66825738  0.66762845  0.00240097  1
  Cr  Cr25  1  0.83398799  0.83363831  0.17012154  1
  Ni  Ni26  1  0.66914264  0.66891273  0.33541504  1
  Cr  Cr27  1  0.17079353  0.17010361  0.50229961  1
  Fe  Fe28  1  0.00233967  1.00124882  0.67081438  1
  Fe  Fe29  1  0.16971135  0.16915519  0.83579188  1
  Ni  Ni30  1  0.16737095  0.50279140  0.50197299  1
  Ni  Ni31  1  0.00385659  0.33645547  0.67027890  1
  Fe  Fe32  1  0.16907763  0.50197429  0.83556992  1
  Fe  Fe33  1  0.16784447  0.83396642  0.50165454  1
  Fe  Fe34  1  1.00219898  0.66823796  0.66869156  1
  Ni  Ni35  1  0.16793056  0.83708896  0.83586162  1
  Fe  Fe36  1  0.50232682  0.16982962  0.50270024  1
  Fe  Fe37  1  0.33698673  0.00319873  0.67004672  1
  Ni  Ni38  1  0.50116168  0.16980199  0.83304185  1
  Fe  Fe39  1  0.50215439  0.50062823  0.50044067  1
  Ni  Ni40  1  0.33464911  0.33457974  0.66957147  1
  Ni  Ni41  1  0.50323529  0.49989197  0.83734785  1
  Ni  Ni42  1  0.50240584  0.83742872  0.50046267  1
  Cr  Cr43  1  0.33457269  0.66784308  0.66867402  1
  Ni  Ni44  1  0.50150299  0.83728671  0.83749757  1
  Cr  Cr45  1  0.83389196  0.17027160  0.50231919  1
  Ni  Ni46  1  0.66891288  1.00225578  0.66934726  1
  Fe  Fe47  1  0.83513851  0.16920068  0.83449723  1
  Ni  Ni48  1  0.83722487  0.50313909  0.50137762  1
  Fe  Fe49  1  0.66833867  0.33500813  0.67010311  1
  Ni  Ni50  1  0.83609958  0.50188640  0.83630757  1
  Fe  Fe51  1  0.83628908  0.83414347  0.50167621  1
  Cr  Cr52  1  0.67039456  0.67048603  0.66934656  1
  Ni  Ni53  1  0.83755096  0.83501229  0.83444615  1
" 