2250,Ni44Fe26Cr28_18,-229.234318010694, 186.025679844778,Ni44Fe26Cr28,"# generated using pymatgen
 data_Cr8Fe7Ni12
_symmetry_space_group_name_H-M   'P 1'
_cell_length_a   7.46059450
_cell_length_b   7.46059450
_cell_length_c   10.55087392
_cell_angle_alpha   90.00000000
_cell_angle_beta   90.00000000
_cell_angle_gamma   90.00000000
_symmetry_Int_Tables_number   1
_chemical_formula_structural   Cr8Fe7Ni12
_chemical_formula_sum   'Cr16 Fe14 Ni24'
_cell_volume   587.26660400
_cell_formula_units_Z   2
loop_
 _symmetry_equiv_pos_site_id
 _symmetry_equiv_pos_as_xyz
  1  'x, y, z'
loop_
 _atom_site_type_symbol
 _atom_site_label
 _atom_site_symmetry_multiplicity
 _atom_site_fract_x
 _atom_site_fract_y
 _atom_site_fract_z
 _atom_site_occupancy
  Ni  Ni0  1  0.00293500  0.99859549  0.00126479  1
  Fe  Fe1  1  0.16988876  0.16550299  0.16644652  1
  Fe  Fe2  1  0.00272509  0.99781226  0.33549398  1
  Cr  Cr3  1  1.00012791  0.33468759  0.99869376  1
  Cr  Cr4  1  0.16867851  0.50309331  0.16651148  1
  Cr  Cr5  1  0.00240820  0.33280422  0.33648133  1
  Ni  Ni6  1  0.00129388  0.66843784  0.99890332  1
  Ni  Ni7  1  0.16767166  0.83443696  0.16512131  1
  Fe  Fe8  1  0.00223357  0.66922194  0.33497438  1
  Ni  Ni9  1  0.33179557  0.00141795  0.00093843  1
  Ni  Ni10  1  0.49984957  0.16895809  0.16719868  1
  Ni  Ni11  1  0.33267206  0.00176815  0.33405649  1
  Ni  Ni12  1  0.33590815  0.33361613  0.00160386  1
  Ni  Ni13  1  0.50013237  0.49788746  0.16808767  1
  Fe  Fe14  1  0.33594787  0.33234271  0.33350934  1
  Ni  Ni15  1  0.33231260  0.66609990  0.99941291  1
  Cr  Cr16  1  0.49730063  0.83357745  0.16896614  1
  Ni  Ni17  1  0.33308410  0.66822169  0.33347929  1
  Cr  Cr18  1  0.66672416  0.00080236  0.99810125  1
  Cr  Cr19  1  0.83328600  0.16680114  0.16654458  1
  Ni  Ni20  1  0.66643294  0.00129388  0.33674514  1
  Fe  Fe21  1  0.66439840  0.33431913  0.99962717  1
  Ni  Ni22  1  0.83268032  0.49967305  0.16789093  1
  Fe  Fe23  1  0.66487331  0.33259097  0.33353292  1
  Cr  Cr24  1  0.66750326  0.66454916  0.00087885  1
  Cr  Cr25  1  0.83702252  0.83393018  0.16938102  1
  Ni  Ni26  1  0.66816218  0.66619127  0.33332568  1
  Fe  Fe27  1  0.16879008  0.16607973  0.49990639  1
  Cr  Cr28  1  1.00033489  0.00044004  0.66552590  1
  Cr  Cr29  1  0.16580754  0.16819271  0.83469809  1
  Ni  Ni30  1  0.16522724  0.50294146  0.50159160  1
  Ni  Ni31  1  0.99970197  0.33500997  0.66603165  1
  Ni  Ni32  1  0.16788002  0.50253037  0.83258179  1
  Ni  Ni33  1  0.16690194  0.83097772  0.50067337  1
  Ni  Ni34  1  0.00182575  0.66610444  0.66683554  1
  Fe  Fe35  1  0.16510886  0.83188854  0.83507199  1
  Ni  Ni36  1  0.50300891  0.16529280  0.50052373  1
  Fe  Fe37  1  0.33254343  0.99988845  0.66561856  1
  Fe  Fe38  1  0.49946908  0.16880731  0.83486156  1
  Cr  Cr39  1  0.49773341  0.50103086  0.49757077  1
  Cr  Cr40  1  0.33204889  0.33387375  0.66514717  1
  Ni  Ni41  1  0.49631586  0.49971561  0.83616440  1
  Cr  Cr42  1  0.49916120  0.83443473  0.50067635  1
  Ni  Ni43  1  0.33089821  0.66742632  0.66820129  1
  Cr  Cr44  1  0.49723283  0.83390969  0.83160694  1
  Ni  Ni45  1  0.83334710  0.16622019  0.50040103  1
  Fe  Fe46  1  0.66818507  0.00158427  0.66694913  1
  Ni  Ni47  1  0.83362306  0.16603187  0.83379556  1
  Fe  Fe48  1  0.83500482  0.50114571  0.49956543  1
  Cr  Cr49  1  0.66849462  0.33320900  0.66891106  1
  Fe  Fe50  1  0.83636349  0.50118975  0.83369345  1
  Fe  Fe51  1  0.83495072  0.83323786  0.49897192  1
  Cr  Cr52  1  0.66854616  0.66774496  0.66750698  1
  Ni  Ni53  1  0.83680017  0.83581251  0.83310104  1
" 