7970,Ni44Fe18Cr36_8,-224.70228277508, 170.635609111044,Ni44Fe18Cr36,"# generated using pymatgen
 data_Cr21Fe10Ni23
_symmetry_space_group_name_H-M   'P 1'
_cell_length_a   7.47931184
_cell_length_b   7.47931184
_cell_length_c   10.57734424
_cell_angle_alpha   90.00000000
_cell_angle_beta   90.00000000
_cell_angle_gamma   90.00000000
_symmetry_Int_Tables_number   1
_chemical_formula_structural   Cr21Fe10Ni23
_chemical_formula_sum   'Cr21 Fe10 Ni23'
_cell_volume   591.69775315
_cell_formula_units_Z   1
loop_
 _symmetry_equiv_pos_site_id
 _symmetry_equiv_pos_as_xyz
  1  'x, y, z'
loop_
 _atom_site_type_symbol
 _atom_site_label
 _atom_site_symmetry_multiplicity
 _atom_site_fract_x
 _atom_site_fract_y
 _atom_site_fract_z
 _atom_site_occupancy
  Ni  Ni0  1  0.00093087  0.00055753  0.99778384  1
  Cr  Cr1  1  0.16648935  0.16534183  0.16384600  1
  Cr  Cr2  1  0.00154510  0.99517682  0.33166844  1
  Ni  Ni3  1  0.00032071  0.33216056  0.99572854  1
  Cr  Cr4  1  0.16837757  0.49908282  0.16482919  1
  Cr  Cr5  1  -0.00052334  0.33596935  0.33195161  1
  Cr  Cr6  1  0.99915264  0.66526485  0.00127896  1
  Ni  Ni7  1  0.16968192  0.83484669  0.16444095  1
  Cr  Cr8  1  0.00030553  0.66584000  0.33473875  1
  Ni  Ni9  1  0.33259072  -0.00070470  0.00062417  1
  Ni  Ni10  1  0.49691102  0.16638799  0.16739904  1
  Ni  Ni11  1  0.33392723  0.99907532  0.33296579  1
  Ni  Ni12  1  0.33262351  0.33268161  0.99870052  1
  Ni  Ni13  1  0.49919114  0.49906449  0.16336304  1
  Ni  Ni14  1  0.33539189  0.33231379  0.33373618  1
  Fe  Fe15  1  0.33444333  0.66561138  0.99883014  1
  Fe  Fe16  1  0.49648349  0.83154280  0.16430690  1
  Cr  Cr17  1  0.33144542  0.66634614  0.33316870  1
  Cr  Cr18  1  0.66421083  0.99802855  -0.00024720  1
  Ni  Ni19  1  0.83247664  0.16708006  0.16291248  1
  Cr  Cr20  1  0.66198829  -0.00051839  0.33258494  1
  Cr  Cr21  1  0.66411125  0.33358425  0.00014864  1
  Ni  Ni22  1  0.83015593  0.49746779  0.16359887  1
  Cr  Cr23  1  0.66275956  0.33320166  0.33103895  1
  Ni  Ni24  1  0.66360641  0.66493130  0.99803045  1
  Cr  Cr25  1  0.83292993  0.83231107  0.16491933  1
  Cr  Cr26  1  0.66619645  0.66454807  0.33283289  1
  Cr  Cr27  1  0.16570072  0.16501052  0.49992900  1
  Ni  Ni28  1  0.00078486  0.99759224  0.66793679  1
  Fe  Fe29  1  0.16680076  0.16628689  0.83340027  1
  Ni  Ni30  1  0.16753324  0.50022130  0.50029078  1
  Fe  Fe31  1  0.99915514  0.33247060  0.66785430  1
  Ni  Ni32  1  0.16654590  0.49788743  0.83267690  1
  Ni  Ni33  1  0.16948097  0.83348914  0.50050507  1
  Cr  Cr34  1  0.00087170  0.66507052  0.66277099  1
  Cr  Cr35  1  0.16882664  0.83352310  0.83323515  1
  Fe  Fe36  1  0.49614864  0.16590990  0.49862968  1
  Ni  Ni37  1  0.33144495  0.99753976  0.66459512  1
  Cr  Cr38  1  0.49727355  0.16443820  0.83198172  1
  Ni  Ni39  1  0.49933159  0.50274278  0.50039752  1
  Cr  Cr40  1  0.33174738  0.33502673  0.66527065  1
  Ni  Ni41  1  0.49813263  0.50351433  0.83318199  1
  Ni  Ni42  1  0.49688564  0.83142133  0.50123339  1
  Fe  Fe43  1  0.33483352  0.66755139  0.66566132  1
  Ni  Ni44  1  0.49917630  0.82911707  0.83311182  1
  Cr  Cr45  1  0.83247072  0.16565688  0.49978016  1
  Cr  Cr46  1  0.66398075  0.99600890  0.66559851  1
  Fe  Fe47  1  0.83602879  0.16555945  0.83282421  1
  Ni  Ni48  1  0.83103243  0.49916309  0.50098245  1
  Cr  Cr49  1  0.66376505  0.33561243  0.66603439  1
  Fe  Fe50  1  0.83149064  0.50144985  0.83268402  1
  Fe  Fe51  1  0.83196309  0.83041642  0.50078505  1
  Ni  Ni52  1  0.66530046  0.66565991  0.66635697  1
  Fe  Fe53  1  0.83129722  0.83019288  0.83283831  1
" 