5018,Ni44Fe56_15,-242.475020156215, 225.558899960776,Ni44Fe56,"# generated using pymatgen
 data_Fe23Ni31
_symmetry_space_group_name_H-M   'P 1'
_cell_length_a   7.40216674
_cell_length_b   7.40216674
_cell_length_c   10.46824460
_cell_angle_alpha   90.00000000
_cell_angle_beta   90.00000000
_cell_angle_gamma   90.00000000
_symmetry_Int_Tables_number   1
_chemical_formula_structural   Fe23Ni31
_chemical_formula_sum   'Fe23 Ni31'
_cell_volume   573.57681675
_cell_formula_units_Z   1
loop_
 _symmetry_equiv_pos_site_id
 _symmetry_equiv_pos_as_xyz
  1  'x, y, z'
loop_
 _atom_site_type_symbol
 _atom_site_label
 _atom_site_symmetry_multiplicity
 _atom_site_fract_x
 _atom_site_fract_y
 _atom_site_fract_z
 _atom_site_occupancy
  Ni  Ni0  1  0.00489840  0.00473230  0.00445561  1
  Ni  Ni1  1  0.17164895  0.17193046  0.17144742  1
  Ni  Ni2  1  1.00403419  1.00430855  0.33732745  1
  Ni  Ni3  1  0.00507056  0.33636789  0.00623963  1
  Ni  Ni4  1  0.16965539  0.50345941  0.17202557  1
  Fe  Fe5  1  0.00491222  0.33879595  0.33736329  1
  Fe  Fe6  1  0.00546463  0.67021648  0.00554702  1
  Ni  Ni7  1  0.17264305  0.83793842  0.17119042  1
  Ni  Ni8  1  1.00416209  0.67347418  0.33785368  1
  Ni  Ni9  1  0.33653422  0.00522683  0.00505305  1
  Ni  Ni10  1  0.50404225  0.16932942  0.17112695  1
  Fe  Fe11  1  0.33719461  1.00413485  0.33719546  1
  Ni  Ni12  1  0.33802397  0.33766560  0.00514182  1
  Fe  Fe13  1  0.50286772  0.50376605  0.17197658  1
  Ni  Ni14  1  0.33939633  0.33791189  0.33697474  1
  Fe  Fe15  1  0.33705804  0.67132220  0.00533127  1
  Ni  Ni16  1  0.50581388  0.83845394  0.17191045  1
  Ni  Ni17  1  0.33828052  0.67039614  0.33738348  1
  Fe  Fe18  1  0.67038555  0.00464817  1.00421034  1
  Fe  Fe19  1  0.83857730  0.17071666  0.17125859  1
  Fe  Fe20  1  0.67073026  0.00470731  0.33765792  1
  Fe  Fe21  1  0.67174180  0.33641342  0.00625368  1
  Ni  Ni22  1  0.83849593  0.50443237  0.17194812  1
  Ni  Ni23  1  0.66996272  0.33843668  0.33746452  1
  Ni  Ni24  1  0.67057010  0.67034129  0.00696704  1
  Fe  Fe25  1  0.83981569  0.83819819  0.17099692  1
  Fe  Fe26  1  0.67113375  0.67094969  0.33769384  1
  Ni  Ni27  1  0.17027933  0.17260594  0.50316987  1
  Ni  Ni28  1  0.00488598  1.00430784  0.67137009  1
  Ni  Ni29  1  0.17010736  0.17341253  0.83816129  1
  Ni  Ni30  1  0.17134275  0.50202596  0.50319521  1
  Ni  Ni31  1  0.00457288  0.33687315  0.66958811  1
  Ni  Ni32  1  0.17105142  0.50247302  0.83780660  1
  Fe  Fe33  1  0.17138508  0.83770446  0.50281750  1
  Fe  Fe34  1  0.00511509  0.67083567  0.67016191  1
  Fe  Fe35  1  0.17045122  0.83941368  0.83849131  1
  Fe  Fe36  1  0.50300195  0.17170912  0.50308344  1
  Ni  Ni37  1  0.33627685  0.00531899  0.66997432  1
  Fe  Fe38  1  0.50310135  0.17023693  0.83857710  1
  Ni  Ni39  1  0.50340423  0.50538343  0.50380684  1
  Ni  Ni40  1  0.33773846  0.33688004  0.67083787  1
  Fe  Fe41  1  0.50533048  0.50436344  0.83700838  1
  Ni  Ni42  1  0.50616162  0.83781094  0.50378491  1
  Fe  Fe43  1  0.33684328  0.67104313  0.66986258  1
  Ni  Ni44  1  0.50536641  0.83689835  0.83730141  1
  Fe  Fe45  1  0.83768939  0.17106119  0.50432370  1
  Fe  Fe46  1  0.67085210  0.00448884  0.67145641  1
  Ni  Ni47  1  0.83857606  0.17086875  0.83785926  1
  Fe  Fe48  1  0.83756302  0.50511409  0.50286920  1
  Fe  Fe49  1  0.67126752  0.33652247  0.66978579  1
  Fe  Fe50  1  0.83813618  0.50438508  0.83903324  1
  Ni  Ni51  1  0.83609148  0.83879777  0.50407630  1
  Ni  Ni52  1  0.67168097  0.67029867  0.66942933  1
  Ni  Ni53  1  0.83527161  0.83755038  0.83883136  1
" 