5937,Ni44Fe49Cr5_19,-238.49274552798, 214.025990285273,Ni44Fe49Cr5,"# generated using pymatgen
 data_Cr2Fe13Ni12
_symmetry_space_group_name_H-M   'P 1'
_cell_length_a   7.41986484
_cell_length_b   7.41986484
_cell_length_c   10.49327348
_cell_angle_alpha   90.00000000
_cell_angle_beta   90.00000000
_cell_angle_gamma   90.00000000
_symmetry_Int_Tables_number   1
_chemical_formula_structural   Cr2Fe13Ni12
_chemical_formula_sum   'Cr4 Fe26 Ni24'
_cell_volume   577.70081458
_cell_formula_units_Z   2
loop_
 _symmetry_equiv_pos_site_id
 _symmetry_equiv_pos_as_xyz
  1  'x, y, z'
loop_
 _atom_site_type_symbol
 _atom_site_label
 _atom_site_symmetry_multiplicity
 _atom_site_fract_x
 _atom_site_fract_y
 _atom_site_fract_z
 _atom_site_occupancy
  Fe  Fe0  1  0.00335646  1.00290785  0.00327836  1
  Fe  Fe1  1  0.17007669  0.16962763  0.17038914  1
  Ni  Ni2  1  0.00350103  1.00281105  0.33613644  1
  Fe  Fe3  1  1.00315890  0.33748792  1.00273684  1
  Ni  Ni4  1  0.16761067  0.50401714  0.17081720  1
  Ni  Ni5  1  1.00287459  0.33723996  0.33606317  1
  Fe  Fe6  1  0.00477151  0.66913978  0.00376861  1
  Ni  Ni7  1  0.17062383  0.83599409  0.16956758  1
  Ni  Ni8  1  1.00315599  0.66948646  0.33542402  1
  Fe  Fe9  1  0.33726657  1.00299638  1.00314096  1
  Ni  Ni10  1  0.50389604  0.16819567  0.17025498  1
  Ni  Ni11  1  0.33678673  1.00304226  0.33625343  1
  Fe  Fe12  1  0.33648179  0.33642603  1.00246441  1
  Fe  Fe13  1  0.50215574  0.50269062  0.17073353  1
  Fe  Fe14  1  0.33596280  0.33527582  0.33660768  1
  Fe  Fe15  1  0.33477076  0.67012022  1.00305387  1
  Ni  Ni16  1  0.50202879  0.83919834  0.17160359  1
  Fe  Fe17  1  0.33556580  0.67084388  0.33633220  1
  Fe  Fe18  1  0.66891993  0.00461366  0.00336699  1
  Fe  Fe19  1  0.83638409  0.16977790  0.17064572  1
  Ni  Ni20  1  0.66925712  0.00332306  0.33511248  1
  Fe  Fe21  1  0.66989868  0.33499275  0.00373831  1
  Ni  Ni22  1  0.83821764  0.50214823  0.17113423  1
  Ni  Ni23  1  0.67015030  0.33645744  0.33570388  1
  Cr  Cr24  1  0.66944592  0.66970219  0.00367414  1
  Fe  Fe25  1  0.83745443  0.83706310  0.17104401  1
  Fe  Fe26  1  0.67110189  0.67003558  0.33666035  1
  Ni  Ni27  1  0.17082659  0.16928492  0.50245996  1
  Cr  Cr28  1  0.00520723  0.00526727  0.66955793  1
  Ni  Ni29  1  0.17134187  0.17069542  0.83662324  1
  Fe  Fe30  1  0.16993528  0.50224327  0.50276189  1
  Ni  Ni31  1  0.00420113  0.33691224  0.67043250  1
  Ni  Ni32  1  0.16835627  0.50216378  0.83594163  1
  Ni  Ni33  1  0.17193442  0.83790583  0.50248146  1
  Cr  Cr34  1  1.00308059  0.66786600  0.67085972  1
  Fe  Fe35  1  0.17211094  0.83656771  0.83764184  1
  Fe  Fe36  1  0.50186392  0.17038461  0.50213332  1
  Ni  Ni37  1  0.33695298  0.00377764  0.67079693  1
  Ni  Ni38  1  0.50213261  0.16857258  0.83625080  1
  Fe  Fe39  1  0.50279297  0.50325376  0.50378061  1
  Ni  Ni40  1  0.33586882  0.33655161  0.67033162  1
  Fe  Fe41  1  0.50181451  0.50230440  0.83503481  1
  Fe  Fe42  1  0.50186056  0.83589501  0.50290101  1
  Ni  Ni43  1  0.33880517  0.66920725  0.67112618  1
  Ni  Ni44  1  0.50184173  0.83798464  0.83518973  1
  Fe  Fe45  1  0.83770441  0.17144095  0.50096414  1
  Cr  Cr46  1  0.66820321  1.00243608  0.67029720  1
  Fe  Fe47  1  0.83678944  0.17183364  0.83792419  1
  Ni  Ni48  1  0.83558426  0.50233944  0.50299795  1
  Fe  Fe49  1  0.66952760  0.33873723  0.66963618  1
  Ni  Ni50  1  0.83736860  0.50188070  0.83540721  1
  Fe  Fe51  1  0.83668928  0.83585505  0.50063138  1
  Ni  Ni52  1  0.66783942  0.66829676  0.66995701  1
  Fe  Fe53  1  0.83618396  0.83641969  0.83786589  1
" 