604,Ni44Fe24Cr30_19,-228.235177726371, 182.933185848572,Ni44Fe24Cr30,"# generated using pymatgen
 data_Cr17Fe13Ni24
_symmetry_space_group_name_H-M   'P 1'
_cell_length_a   7.46595861
_cell_length_b   7.46595861
_cell_length_c   10.55845992
_cell_angle_alpha   90.00000000
_cell_angle_beta   90.00000000
_cell_angle_gamma   90.00000000
_symmetry_Int_Tables_number   1
_chemical_formula_structural   Cr17Fe13Ni24
_chemical_formula_sum   'Cr17 Fe13 Ni24'
_cell_volume   588.53423579
_cell_formula_units_Z   1
loop_
 _symmetry_equiv_pos_site_id
 _symmetry_equiv_pos_as_xyz
  1  'x, y, z'
loop_
 _atom_site_type_symbol
 _atom_site_label
 _atom_site_symmetry_multiplicity
 _atom_site_fract_x
 _atom_site_fract_y
 _atom_site_fract_z
 _atom_site_occupancy
  Fe  Fe0  1  0.99926187  0.99999975  0.99972239  1
  Cr  Cr1  1  0.16722675  0.16555415  0.16618329  1
  Ni  Ni2  1  0.00050450  0.00024856  0.33467094  1
  Ni  Ni3  1  0.00201686  0.33151385  0.99839964  1
  Fe  Fe4  1  0.16692828  0.49830784  0.16594585  1
  Ni  Ni5  1  0.00305746  0.33143685  0.33593298  1
  Fe  Fe6  1  0.99861924  0.66717647  0.99972877  1
  Ni  Ni7  1  0.16409096  0.83461429  0.16508459  1
  Cr  Cr8  1  0.00177742  0.66847692  0.33214286  1
  Fe  Fe9  1  0.33130915  0.00056557  0.99817084  1
  Cr  Cr10  1  0.49993944  0.16616379  0.16753054  1
  Fe  Fe11  1  0.33016828  0.99992357  0.33634248  1
  Fe  Fe12  1  0.33505658  0.33414750  0.99852260  1
  Cr  Cr13  1  0.50299000  0.49847518  0.16915661  1
  Ni  Ni14  1  0.33027272  0.33341520  0.33367889  1
  Cr  Cr15  1  0.33254654  0.66663885  0.99975413  1
  Cr  Cr16  1  0.49876153  0.83625382  0.16850024  1
  Cr  Cr17  1  0.33223780  0.66621588  0.33639963  1
  Ni  Ni18  1  0.66877259  0.00032015  0.00099108  1
  Cr  Cr19  1  0.83336448  0.16923516  0.17066870  1
  Ni  Ni20  1  0.66962225  0.99831552  0.33560589  1
  Ni  Ni21  1  0.66929521  0.33351260  0.99726299  1
  Cr  Cr22  1  0.83495129  0.50063389  0.16472235  1
  Ni  Ni23  1  0.66689575  0.33297488  0.33622454  1
  Ni  Ni24  1  0.66574742  0.66714986  0.99895271  1
  Fe  Fe25  1  0.83299132  0.83532871  0.16602420  1
  Ni  Ni26  1  0.66687783  0.66932592  0.33517967  1
  Ni  Ni27  1  0.16559495  0.16618476  0.50166547  1
  Ni  Ni28  1  0.00240886  0.00034333  0.66607088  1
  Fe  Fe29  1  0.16707087  0.16556938  0.83145541  1
  Fe  Fe30  1  0.16818337  0.49844084  0.50276443  1
  Ni  Ni31  1  0.00156103  0.33118640  0.66528688  1
  Cr  Cr32  1  0.16371229  0.50101284  0.83046418  1
  Ni  Ni33  1  0.16633025  0.83505745  0.50318895  1
  Ni  Ni34  1  0.00299502  0.66812519  0.66673821  1
  Ni  Ni35  1  0.16550176  0.83465763  0.83207822  1
  Cr  Cr36  1  0.49854325  0.16615610  0.49914252  1
  Ni  Ni37  1  0.33086356  0.99957644  0.66659459  1
  Cr  Cr38  1  0.49990612  0.16622700  0.83391550  1
  Fe  Fe39  1  0.49797930  0.49897169  0.50091903  1
  Ni  Ni40  1  0.33274219  0.33320896  0.66761476  1
  Ni  Ni41  1  0.50029846  0.49849242  0.83162702  1
  Ni  Ni42  1  0.49858110  0.83438257  0.50081375  1
  Ni  Ni43  1  0.33138824  0.66686832  0.66477137  1
  Cr  Cr44  1  0.49717702  0.83438478  0.83092822  1
  Fe  Fe45  1  0.83520631  0.16398422  0.50049194  1
  Ni  Ni46  1  0.66758431  0.00125570  0.66399029  1
  Cr  Cr47  1  0.83506956  0.16807815  0.82960279  1
  Cr  Cr48  1  0.83545033  0.49829655  0.50214184  1
  Ni  Ni49  1  0.66643353  0.33251918  0.66724759  1
  Fe  Fe50  1  0.83284648  0.50005719  0.83275722  1
  Fe  Fe51  1  0.83489754  0.83541710  0.50120254  1
  Cr  Cr52  1  0.66450238  0.66686929  0.66621711  1
  Cr  Cr53  1  0.83582665  0.83269011  0.83274819  1
" 