5394,Ni44Fe26Cr28_8,-228.970783741219, 185.78115059799,Ni44Fe26Cr28,"# generated using pymatgen
 data_Cr8Fe7Ni12
_symmetry_space_group_name_H-M   'P 1'
_cell_length_a   7.45798108
_cell_length_b   7.45798108
_cell_length_c   10.54717799
_cell_angle_alpha   90.00000000
_cell_angle_beta   90.00000000
_cell_angle_gamma   90.00000000
_symmetry_Int_Tables_number   1
_chemical_formula_structural   Cr8Fe7Ni12
_chemical_formula_sum   'Cr16 Fe14 Ni24'
_cell_volume   586.64966859
_cell_formula_units_Z   2
loop_
 _symmetry_equiv_pos_site_id
 _symmetry_equiv_pos_as_xyz
  1  'x, y, z'
loop_
 _atom_site_type_symbol
 _atom_site_label
 _atom_site_symmetry_multiplicity
 _atom_site_fract_x
 _atom_site_fract_y
 _atom_site_fract_z
 _atom_site_occupancy
  Cr  Cr0  1  0.00109280  0.00143573  0.99965047  1
  Ni  Ni1  1  0.16830068  0.16390755  0.16904105  1
  Fe  Fe2  1  0.00374028  0.00169148  0.33377445  1
  Cr  Cr3  1  0.99838307  0.33157139  0.99931241  1
  Cr  Cr4  1  0.16581643  0.50132252  0.16565120  1
  Ni  Ni5  1  0.99982598  0.33292488  0.33389537  1
  Fe  Fe6  1  0.99995443  0.66798759  0.99859172  1
  Fe  Fe7  1  0.17006856  0.83505628  0.16667647  1
  Ni  Ni8  1  0.00100065  0.66816633  0.33631439  1
  Fe  Fe9  1  0.33505274  0.99876896  0.00100219  1
  Ni  Ni10  1  0.50032571  0.16544248  0.16685897  1
  Fe  Fe11  1  0.33180698  0.00259221  0.33349732  1
  Cr  Cr12  1  0.33518004  0.33435104  0.00240300  1
  Ni  Ni13  1  0.50357521  0.50135674  0.16636863  1
  Cr  Cr14  1  0.33560106  0.33342004  0.33548684  1
  Ni  Ni15  1  0.33621029  0.67151299  0.00194494  1
  Ni  Ni16  1  0.49971488  0.83512388  0.16390334  1
  Cr  Cr17  1  0.33476323  0.66781534  0.33309107  1
  Fe  Fe18  1  0.66497118  1.00037989  0.00095686  1
  Fe  Fe19  1  0.83210379  0.16878061  0.16836920  1
  Cr  Cr20  1  0.66641741  0.00186542  0.33300539  1
  Ni  Ni21  1  0.66803005  0.33375788  0.00251163  1
  Cr  Cr22  1  0.83248938  0.50049320  0.16836771  1
  Ni  Ni23  1  0.66765420  0.33420450  0.33304062  1
  Ni  Ni24  1  0.66433756  0.66786125  0.00084165  1
  Cr  Cr25  1  0.83360960  0.83225918  0.16859076  1
  Fe  Fe26  1  0.66813610  0.66363354  0.33454578  1
  Ni  Ni27  1  0.16974300  0.16664012  0.50008569  1
  Cr  Cr28  1  0.00101786  0.99923083  0.66737490  1
  Ni  Ni29  1  0.16808545  0.16341951  0.83272470  1
  Ni  Ni30  1  0.16505723  0.50132074  0.50229888  1
  Cr  Cr31  1  0.00064545  0.33491291  0.66844738  1
  Cr  Cr32  1  0.16570693  0.50289796  0.83329283  1
  Fe  Fe33  1  0.16642845  0.83283487  0.50175000  1
  Ni  Ni34  1  1.00056193  0.66804875  0.66725556  1
  Ni  Ni35  1  0.16771197  0.83447042  0.83453594  1
  Ni  Ni36  1  0.49872944  0.16798258  0.50273056  1
  Ni  Ni37  1  0.33397187  0.99991957  0.66728923  1
  Cr  Cr38  1  0.50075289  0.16468063  0.83138861  1
  Ni  Ni39  1  0.50283127  0.49942753  0.50220619  1
  Fe  Fe40  1  0.33511748  0.33333460  0.66432672  1
  Cr  Cr41  1  0.50323263  0.50213745  0.83270240  1
  Cr  Cr42  1  0.50150818  0.83501689  0.50344710  1
  Ni  Ni43  1  0.33352127  0.66858222  0.66685995  1
  Fe  Fe44  1  0.49960951  0.83309615  0.83366465  1
  Cr  Cr45  1  0.83286905  0.16821121  0.49927740  1
  Ni  Ni46  1  0.66576381  1.00008313  0.66945619  1
  Fe  Fe47  1  0.83270186  0.16813479  0.83355433  1
  Ni  Ni48  1  0.83402227  0.50358656  0.49947319  1
  Ni  Ni49  1  0.66639739  0.33461331  0.66615487  1
  Ni  Ni50  1  0.83272001  0.50333772  0.83418514  1
  Fe  Fe51  1  0.83522341  0.83039133  0.50090055  1
  Ni  Ni52  1  0.66773067  0.66704021  0.66619570  1
  Fe  Fe53  1  0.83299986  0.83178854  0.83355132  1
" 