2314,Ni44Fe18Cr36_5,-224.995899218086, 171.841949324873,Ni44Fe18Cr36,"# generated using pymatgen
 data_Cr21Fe10Ni23
_symmetry_space_group_name_H-M   'P 1'
_cell_length_a   7.48323372
_cell_length_b   7.48323372
_cell_length_c   10.58289062
_cell_angle_alpha   90.00000000
_cell_angle_beta   90.00000000
_cell_angle_gamma   90.00000000
_symmetry_Int_Tables_number   1
_chemical_formula_structural   Cr21Fe10Ni23
_chemical_formula_sum   'Cr21 Fe10 Ni23'
_cell_volume   592.62903719
_cell_formula_units_Z   1
loop_
 _symmetry_equiv_pos_site_id
 _symmetry_equiv_pos_as_xyz
  1  'x, y, z'
loop_
 _atom_site_type_symbol
 _atom_site_label
 _atom_site_symmetry_multiplicity
 _atom_site_fract_x
 _atom_site_fract_y
 _atom_site_fract_z
 _atom_site_occupancy
  Fe  Fe0  1  -0.00093727  0.99594563  0.00119246  1
  Ni  Ni1  1  0.16642769  0.16543113  0.16774589  1
  Ni  Ni2  1  0.00105459  0.00051665  0.32996880  1
  Cr  Cr3  1  0.99849670  0.33203151  0.00179293  1
  Ni  Ni4  1  0.16597589  0.49639467  0.16643606  1
  Ni  Ni5  1  0.00175748  0.33159903  0.33265745  1
  Ni  Ni6  1  -0.00034102  0.66797148  0.00026291  1
  Fe  Fe7  1  0.16419549  0.83406214  0.16604306  1
  Cr  Cr8  1  0.99878702  0.66349914  0.33010082  1
  Fe  Fe9  1  0.33288860  -0.00083836  0.99866247  1
  Cr  Cr10  1  0.49661140  0.16607497  0.16548111  1
  Ni  Ni11  1  0.33148933  0.00085395  0.33299984  1
  Fe  Fe12  1  0.33294323  0.33191672  0.00072039  1
  Ni  Ni13  1  0.49761632  0.49785992  0.16361944  1
  Ni  Ni14  1  0.32991461  0.33092806  0.33301001  1
  Cr  Cr15  1  0.33079312  0.66949996  0.00066326  1
  Cr  Cr16  1  0.50156364  0.83433988  0.16761403  1
  Cr  Cr17  1  0.33332330  0.66545731  0.33224104  1
  Ni  Ni18  1  0.66384526  0.99791847  0.99691698  1
  Cr  Cr19  1  0.83220611  0.16242335  0.16671390  1
  Ni  Ni20  1  0.66434911  0.99855858  0.33448915  1
  Ni  Ni21  1  0.66452198  0.33126100  -0.00073244  1
  Ni  Ni22  1  0.83319959  0.50097736  0.16321554  1
  Cr  Cr23  1  0.66625960  0.33381981  0.33245989  1
  Ni  Ni24  1  0.66629609  0.66736721  0.00071021  1
  Ni  Ni25  1  0.83348671  0.83228775  0.16458371  1
  Cr  Cr26  1  0.66497293  0.66503966  0.33191915  1
  Fe  Fe27  1  0.16881294  0.16586511  0.49707952  1
  Fe  Fe28  1  0.00123890  0.99833069  0.66518987  1
  Cr  Cr29  1  0.16799482  0.16542185  0.83242156  1
  Fe  Fe30  1  0.16757667  0.49651240  0.49784101  1
  Cr  Cr31  1  -0.00050653  0.33121410  0.66204604  1
  Cr  Cr32  1  0.16628101  0.49958673  0.83053424  1
  Cr  Cr33  1  0.16583295  0.83474997  0.49841488  1
  Fe  Fe34  1  -0.00076928  0.66579543  0.66457786  1
  Fe  Fe35  1  0.16672868  0.83380416  0.83199955  1
  Ni  Ni36  1  0.49479125  0.16430570  0.49919824  1
  Ni  Ni37  1  0.33312495  -0.00050008  0.66642878  1
  Ni  Ni38  1  0.49649784  0.16274187  0.83327690  1
  Ni  Ni39  1  0.49749646  0.49744040  0.49963579  1
  Ni  Ni40  1  0.33268894  0.32861222  0.66372916  1
  Cr  Cr41  1  0.49862279  0.49798765  0.83497054  1
  Ni  Ni42  1  0.49835351  0.83491673  0.49954758  1
  Cr  Cr43  1  0.33472631  0.66796687  0.66429479  1
  Ni  Ni44  1  0.49962947  0.83471831  0.83123779  1
  Cr  Cr45  1  0.83361391  0.16305913  0.49654510  1
  Fe  Fe46  1  0.65961378  0.99881528  0.66521933  1
  Cr  Cr47  1  0.83048546  0.16302582  0.83315608  1
  Ni  Ni48  1  0.83331677  0.49991555  0.49991158  1
  Cr  Cr49  1  0.66408377  0.33114548  0.66547676  1
  Cr  Cr50  1  0.83191710  0.50164615  0.83327615  1
  Cr  Cr51  1  0.83095020  0.83243003  0.49941975  1
  Ni  Ni52  1  0.66459593  0.66746423  0.66413842  1
  Cr  Cr53  1  0.83220334  0.83143068  0.83054410  1
" 