8188,Ni44Fe56_9,-241.538206159665, 223.46497069484,Ni44Fe56,"# generated using pymatgen
 data_Fe23Ni31
_symmetry_space_group_name_H-M   'P 1'
_cell_length_a   7.39734156
_cell_length_b   7.39734156
_cell_length_c   10.46142076
_cell_angle_alpha   90.00000000
_cell_angle_beta   90.00000000
_cell_angle_gamma   90.00000000
_symmetry_Int_Tables_number   1
_chemical_formula_structural   Fe23Ni31
_chemical_formula_sum   'Fe23 Ni31'
_cell_volume   572.45587180
_cell_formula_units_Z   1
loop_
 _symmetry_equiv_pos_site_id
 _symmetry_equiv_pos_as_xyz
  1  'x, y, z'
loop_
 _atom_site_type_symbol
 _atom_site_label
 _atom_site_symmetry_multiplicity
 _atom_site_fract_x
 _atom_site_fract_y
 _atom_site_fract_z
 _atom_site_occupancy
  Ni  Ni0  1  0.00503733  1.00309644  0.00503905  1
  Ni  Ni1  1  0.17010852  0.17218801  0.17076498  1
  Ni  Ni2  1  1.00454951  1.00319493  0.33762869  1
  Ni  Ni3  1  1.00427713  0.33839364  0.00546061  1
  Ni  Ni4  1  0.17053035  0.50329100  0.17196343  1
  Ni  Ni5  1  1.00454771  0.33829056  0.33754060  1
  Ni  Ni6  1  1.00461198  0.67264110  1.00470430  1
  Fe  Fe7  1  0.17066204  0.83771773  0.17117982  1
  Ni  Ni8  1  0.00488167  0.67264773  0.33839891  1
  Ni  Ni9  1  0.33806151  1.00420314  1.00437047  1
  Fe  Fe10  1  0.50458559  0.17301514  0.17065547  1
  Fe  Fe11  1  0.33707076  0.00522244  0.33785920  1
  Ni  Ni12  1  0.33949941  0.33796487  0.00489278  1
  Ni  Ni13  1  0.50521583  0.50550982  0.17129114  1
  Ni  Ni14  1  0.33931958  0.33862946  0.33787277  1
  Fe  Fe15  1  0.33746408  0.67126488  1.00438693  1
  Ni  Ni16  1  0.50453919  0.83755287  0.17062170  1
  Fe  Fe17  1  0.33761308  0.67094929  0.33844158  1
  Fe  Fe18  1  0.67149196  0.00522046  1.00391998  1
  Ni  Ni19  1  0.83949091  0.17286579  0.17129270  1
  Fe  Fe20  1  0.67188042  0.00514501  0.33836856  1
  Ni  Ni21  1  0.67035758  0.33839212  0.00488992  1
  Ni  Ni22  1  0.83838822  0.50329749  0.17086302  1
  Ni  Ni23  1  0.67026675  0.33829628  0.33811309  1
  Fe  Fe24  1  0.67157740  0.67125295  0.00498003  1
  Fe  Fe25  1  0.83888726  0.83759163  0.17092593  1
  Fe  Fe26  1  0.67195805  0.67040562  0.33784765  1
  Ni  Ni27  1  0.17095620  0.17121833  0.50548722  1
  Ni  Ni28  1  1.00378038  1.00367950  0.67146571  1
  Fe  Fe29  1  0.17164424  0.17020960  0.83824328  1
  Fe  Fe30  1  0.17157449  0.50491153  0.50440473  1
  Ni  Ni31  1  1.00454778  0.33753319  0.67113526  1
  Fe  Fe32  1  0.17197146  0.50537532  0.83842545  1
  Ni  Ni33  1  0.17240665  0.83923603  0.50477734  1
  Fe  Fe34  1  1.00458974  0.67117425  0.67144773  1
  Ni  Ni35  1  0.17153920  0.83836549  0.83806588  1
  Fe  Fe36  1  0.50458401  0.17164615  0.50550779  1
  Fe  Fe37  1  0.33818434  0.00515303  0.67176023  1
  Ni  Ni38  1  0.50453939  0.17115865  0.83811836  1
  Fe  Fe39  1  0.50393705  0.50451819  0.50453213  1
  Ni  Ni40  1  0.33904366  0.33941478  0.67137202  1
  Fe  Fe41  1  0.50444460  0.50495249  0.83815346  1
  Ni  Ni42  1  0.50405008  0.83812811  0.50596729  1
  Ni  Ni43  1  0.33836292  0.67147104  0.67146572  1
  Ni  Ni44  1  0.50454010  0.83879872  0.83754481  1
  Fe  Fe45  1  0.83856813  0.17092479  0.50452822  1
  Ni  Ni46  1  0.67198673  1.00436572  0.67146164  1
  Fe  Fe47  1  0.83763320  0.17006477  0.83815584  1
  Ni  Ni48  1  0.83802399  0.50368415  0.50481671  1
  Ni  Ni49  1  0.67054215  0.33753129  0.67113047  1
  Fe  Fe50  1  0.83771860  0.50510118  0.83816977  1
  Fe  Fe51  1  0.83896348  0.83856332  0.50516519  1
  Fe  Fe52  1  0.67136251  0.67131556  0.67130462  1
  Ni  Ni53  1  0.83805536  0.83768869  0.83754410  1
" 