845,Ni44Fe49Cr5_3,-238.532074924376, 215.537295817471,Ni44Fe49Cr5,"# generated using pymatgen
 data_Cr2Fe13Ni12
_symmetry_space_group_name_H-M   'P 1'
_cell_length_a   7.41903053
_cell_length_b   7.41903053
_cell_length_c   10.49209359
_cell_angle_alpha   90.00000000
_cell_angle_beta   90.00000000
_cell_angle_gamma   90.00000000
_symmetry_Int_Tables_number   1
_chemical_formula_structural   Cr2Fe13Ni12
_chemical_formula_sum   'Cr4 Fe26 Ni24'
_cell_volume   577.50596198
_cell_formula_units_Z   2
loop_
 _symmetry_equiv_pos_site_id
 _symmetry_equiv_pos_as_xyz
  1  'x, y, z'
loop_
 _atom_site_type_symbol
 _atom_site_label
 _atom_site_symmetry_multiplicity
 _atom_site_fract_x
 _atom_site_fract_y
 _atom_site_fract_z
 _atom_site_occupancy
  Fe  Fe0  1  0.00490835  0.00384792  1.00207908  1
  Fe  Fe1  1  0.17130682  0.16885532  0.17003326  1
  Fe  Fe2  1  1.00231702  0.00325568  0.33824627  1
  Fe  Fe3  1  0.00453899  0.33371935  1.00142280  1
  Cr  Cr4  1  0.17165771  0.50235145  0.17071930  1
  Ni  Ni5  1  1.00213571  0.33752208  0.33797549  1
  Cr  Cr6  1  1.00242628  0.66935700  1.00300249  1
  Ni  Ni7  1  0.16933978  0.83920086  0.17116296  1
  Ni  Ni8  1  0.00490993  0.67009516  0.33782321  1
  Ni  Ni9  1  0.33794730  0.00387451  0.00395298  1
  Fe  Fe10  1  0.50194977  0.16887545  0.16994000  1
  Fe  Fe11  1  0.33577941  0.00400996  0.33789975  1
  Ni  Ni12  1  0.33925191  0.33489322  1.00227326  1
  Ni  Ni13  1  0.50442146  0.50134569  0.17083089  1
  Fe  Fe14  1  0.33787961  0.33717671  0.33801534  1
  Cr  Cr15  1  0.33653950  0.67107017  1.00099986  1
  Fe  Fe16  1  0.50440853  0.83717402  0.17134844  1
  Ni  Ni17  1  0.33535470  0.67184927  0.33745680  1
  Ni  Ni18  1  0.66885196  0.00432160  1.00155212  1
  Cr  Cr19  1  0.83543734  0.16959159  0.16843696  1
  Ni  Ni20  1  0.66862614  0.00432630  0.33855524  1
  Ni  Ni21  1  0.66972712  0.33611085  1.00317474  1
  Fe  Fe22  1  0.83478549  0.50520432  0.17170732  1
  Ni  Ni23  1  0.67058737  0.33453882  0.33747874  1
  Fe  Fe24  1  0.66770436  0.66950169  0.00359937  1
  Ni  Ni25  1  0.83667265  0.83838004  0.17077613  1
  Fe  Fe26  1  0.67042487  0.66900112  0.33617657  1
  Fe  Fe27  1  0.16924311  0.17129538  0.50370045  1
  Fe  Fe28  1  0.00349016  1.00318653  0.66930670  1
  Fe  Fe29  1  0.17185027  0.17047476  0.83637904  1
  Ni  Ni30  1  0.17029162  0.50516294  0.50484633  1
  Fe  Fe31  1  1.00286739  0.33669206  0.66841670  1
  Fe  Fe32  1  0.17071207  0.49960880  0.83370562  1
  Ni  Ni33  1  0.16996918  0.83618479  0.50343230  1
  Fe  Fe34  1  1.00047371  0.67026292  0.66936149  1
  Fe  Fe35  1  0.17075345  0.83871996  0.83424897  1
  Ni  Ni36  1  0.50414677  0.16949582  0.50320840  1
  Ni  Ni37  1  0.33764998  1.00198559  0.66915829  1
  Ni  Ni38  1  0.50336829  0.16949518  0.83734885  1
  Fe  Fe39  1  0.50304789  0.50292268  0.50348206  1
  Fe  Fe40  1  0.33985147  0.33449671  0.66998742  1
  Ni  Ni41  1  0.50452586  0.50078981  0.83464935  1
  Fe  Fe42  1  0.50315310  0.83611466  0.50439983  1
  Ni  Ni43  1  0.33373796  0.67002181  0.67060066  1
  Fe  Fe44  1  0.50465395  0.83734105  0.83427433  1
  Ni  Ni45  1  0.83486447  0.16962220  0.50471069  1
  Ni  Ni46  1  0.66969148  0.00577707  0.66972201  1
  Fe  Fe47  1  0.83460025  0.17143092  0.83565030  1
  Ni  Ni48  1  0.83681924  0.50251937  0.50146337  1
  Ni  Ni49  1  0.67197016  0.33576482  0.66902308  1
  Ni  Ni50  1  0.83544635  0.50255072  0.83788508  1
  Fe  Fe51  1  0.83604334  0.83680471  0.50249871  1
  Fe  Fe52  1  0.66864338  0.66911663  0.67012834  1
  Fe  Fe53  1  0.83299308  0.83745999  0.83652032  1
" 