2777,Ni44Fe18Cr36_15,-225.047704748469, 171.570596224655,Ni44Fe18Cr36,"# generated using pymatgen
 data_Cr21Fe10Ni23
_symmetry_space_group_name_H-M   'P 1'
_cell_length_a   7.48344454
_cell_length_b   7.48344454
_cell_length_c   10.58318876
_cell_angle_alpha   90.00000000
_cell_angle_beta   90.00000000
_cell_angle_gamma   90.00000000
_symmetry_Int_Tables_number   1
_chemical_formula_structural   Cr21Fe10Ni23
_chemical_formula_sum   'Cr21 Fe10 Ni23'
_cell_volume   592.67912558
_cell_formula_units_Z   1
loop_
 _symmetry_equiv_pos_site_id
 _symmetry_equiv_pos_as_xyz
  1  'x, y, z'
loop_
 _atom_site_type_symbol
 _atom_site_label
 _atom_site_symmetry_multiplicity
 _atom_site_fract_x
 _atom_site_fract_y
 _atom_site_fract_z
 _atom_site_occupancy
  Cr  Cr0  1  0.99730250  0.00106899  0.99841147  1
  Ni  Ni1  1  0.16577807  0.16868438  0.16477024  1
  Cr  Cr2  1  0.99860707  0.00094806  0.32950531  1
  Fe  Fe3  1  0.99619679  0.33200772  0.00077090  1
  Cr  Cr4  1  0.16470252  0.49821120  0.16583080  1
  Ni  Ni5  1  0.99548716  0.33394406  0.32781108  1
  Fe  Fe6  1  0.99654040  0.66660094  0.99854324  1
  Cr  Cr7  1  0.16374323  0.82750765  0.16654385  1
  Fe  Fe8  1  0.99741794  0.66504359  0.33189768  1
  Cr  Cr9  1  0.33309388  -0.00096693  0.00228171  1
  Ni  Ni10  1  0.50103862  0.16787407  0.16522349  1
  Cr  Cr11  1  0.33373432  0.99751342  0.32741163  1
  Ni  Ni12  1  0.33182957  0.33290982  0.00098310  1
  Ni  Ni13  1  0.49845339  0.49673177  0.16349693  1
  Ni  Ni14  1  0.33209453  0.33396057  0.32970388  1
  Ni  Ni15  1  0.33466156  0.66332643  0.00166056  1
  Fe  Fe16  1  0.50209037  0.82997301  0.16387624  1
  Ni  Ni17  1  0.33444305  0.66271834  0.33192395  1
  Ni  Ni18  1  0.66879607  0.99808314  0.00239440  1
  Ni  Ni19  1  0.82930136  0.16624430  0.16545800  1
  Ni  Ni20  1  0.66739181  0.99861310  0.32555866  1
  Fe  Fe21  1  0.66583440  0.33105691  0.00004191  1
  Ni  Ni22  1  0.83046906  0.49905505  0.16364390  1
  Fe  Fe23  1  0.66397283  0.33359504  0.32951987  1
  Fe  Fe24  1  0.66717880  0.66475524  0.00016621  1
  Ni  Ni25  1  0.83016124  0.83185296  0.16426752  1
  Cr  Cr26  1  0.66450161  0.66354966  0.33156889  1
  Cr  Cr27  1  0.16573353  0.16527050  0.49921634  1
  Fe  Fe28  1  0.00027553  0.99725714  0.66890882  1
  Fe  Fe29  1  0.16474372  0.16647008  0.83385651  1
  Cr  Cr30  1  0.16384013  0.49908655  0.49381760  1
  Cr  Cr31  1  0.99687147  0.33302358  0.66843090  1
  Cr  Cr32  1  0.16572094  0.49918928  0.83762038  1
  Ni  Ni33  1  0.16548856  0.83030428  0.50026796  1
  Ni  Ni34  1  0.99697719  0.66555333  0.66656373  1
  Fe  Fe35  1  0.16433436  0.83083658  0.83254344  1
  Cr  Cr36  1  0.49854264  0.16755488  0.49794012  1
  Ni  Ni37  1  0.32727172  0.99865344  0.66815028  1
  Cr  Cr38  1  0.49880056  0.16644134  0.83178153  1
  Ni  Ni39  1  0.49876255  0.49842208  0.49916079  1
  Ni  Ni40  1  0.32996701  0.33073031  0.66556359  1
  Cr  Cr41  1  0.49930917  0.49834098  0.83354130  1
  Cr  Cr42  1  0.49965816  0.83419990  0.49875713  1
  Cr  Cr43  1  0.33375194  0.66475327  0.66348355  1
  Cr  Cr44  1  0.50141680  0.83227676  0.83530827  1
  Cr  Cr45  1  0.83089248  0.16659479  0.49455738  1
  Cr  Cr46  1  0.66719380  0.99858026  0.66669805  1
  Ni  Ni47  1  0.83258614  0.16476943  0.83477036  1
  Ni  Ni48  1  0.83212928  0.50064589  0.49749919  1
  Cr  Cr49  1  0.66700021  0.33814976  0.66403461  1
  Ni  Ni50  1  0.83409234  0.50077714  0.83591875  1
  Cr  Cr51  1  0.83537070  0.83202220  0.49938965  1
  Ni  Ni52  1  0.67065303  0.66469900  0.66698183  1
  Ni  Ni53  1  0.83463434  0.83137521  0.83281297  1
" 