6922,Ni44Fe18Cr36_9,-225.115788209359, 173.665481305812,Ni44Fe18Cr36,"# generated using pymatgen
 data_Cr21Fe10Ni23
_symmetry_space_group_name_H-M   'P 1'
_cell_length_a   7.47979145
_cell_length_b   7.47979145
_cell_length_c   10.57802251
_cell_angle_alpha   90.00000000
_cell_angle_beta   90.00000000
_cell_angle_gamma   90.00000000
_symmetry_Int_Tables_number   1
_chemical_formula_structural   Cr21Fe10Ni23
_chemical_formula_sum   'Cr21 Fe10 Ni23'
_cell_volume   591.81158805
_cell_formula_units_Z   1
loop_
 _symmetry_equiv_pos_site_id
 _symmetry_equiv_pos_as_xyz
  1  'x, y, z'
loop_
 _atom_site_type_symbol
 _atom_site_label
 _atom_site_symmetry_multiplicity
 _atom_site_fract_x
 _atom_site_fract_y
 _atom_site_fract_z
 _atom_site_occupancy
  Fe  Fe0  1  0.99553841  -0.00057063  0.00179151  1
  Ni  Ni1  1  0.16362521  0.16344045  0.16537257  1
  Ni  Ni2  1  0.99856473  -0.00056517  0.33078738  1
  Ni  Ni3  1  0.99715283  0.33296233  0.00054708  1
  Cr  Cr4  1  0.16321145  0.49754375  0.16712248  1
  Ni  Ni5  1  0.99810228  0.32917016  0.33123639  1
  Cr  Cr6  1  0.99628818  0.66711811  0.99838152  1
  Ni  Ni7  1  0.16551798  0.83501922  0.16438373  1
  Ni  Ni8  1  -0.00068855  0.66877868  0.33130821  1
  Fe  Fe9  1  0.33240336  0.99854430  0.00198311  1
  Ni  Ni10  1  0.50071218  0.16321195  0.16382787  1
  Cr  Cr11  1  0.33101163  0.00095826  0.33277278  1
  Cr  Cr12  1  0.33258334  0.33143448  0.00009034  1
  Fe  Fe13  1  0.50137719  0.49865577  0.16289059  1
  Cr  Cr14  1  0.33200334  0.32889184  0.33201284  1
  Fe  Fe15  1  0.33355338  0.66558056  0.00037337  1
  Fe  Fe16  1  0.50065871  0.83546810  0.16368071  1
  Cr  Cr17  1  0.33049635  0.66765618  0.32992682  1
  Ni  Ni18  1  0.66663921  0.99879286  0.00096985  1
  Ni  Ni19  1  0.83298446  0.16521003  0.16474653  1
  Ni  Ni20  1  0.66858981  0.00160325  0.33101170  1
  Ni  Ni21  1  0.66693251  0.33300259  -0.00050610  1
  Ni  Ni22  1  0.83227225  0.49798599  0.16464609  1
  Cr  Cr23  1  0.66762035  0.32907019  0.32991272  1
  Ni  Ni24  1  0.66747485  0.66592544  0.00003262  1
  Ni  Ni25  1  0.83234485  0.83459215  0.16571550  1
  Cr  Cr26  1  0.66955119  0.66743590  0.32762319  1
  Ni  Ni27  1  0.16026659  0.16422399  0.49833133  1
  Ni  Ni28  1  0.00001770  0.99709408  0.66599012  1
  Cr  Cr29  1  0.16395526  0.16451726  0.83527168  1
  Cr  Cr30  1  0.16264374  0.49895478  0.49842405  1
  Fe  Fe31  1  0.99734589  0.33097114  0.66632207  1
  Fe  Fe32  1  0.16285833  0.49911742  0.83325220  1
  Ni  Ni33  1  0.16276289  0.83516087  0.49980935  1
  Ni  Ni34  1  -0.00041393  0.66756702  0.66807213  1
  Fe  Fe35  1  0.16262180  0.83236089  0.83312779  1
  Fe  Fe36  1  0.50193829  0.16575631  0.49784155  1
  Cr  Cr37  1  0.33053318  0.00138336  0.66467554  1
  Fe  Fe38  1  0.50241907  0.16691868  0.83505657  1
  Cr  Cr39  1  0.50064238  0.50012412  0.49832346  1
  Cr  Cr40  1  0.33456173  0.33036311  0.66568495  1
  Ni  Ni41  1  0.50073312  0.49905263  0.83479146  1
  Cr  Cr42  1  0.49962852  0.83232958  0.49686274  1
  Cr  Cr43  1  0.32908817  0.66595248  0.66773337  1
  Cr  Cr44  1  0.49978967  0.83363838  0.83550361  1
  Ni  Ni45  1  0.83597436  0.16565412  0.49897218  1
  Cr  Cr46  1  0.66817682  0.00262104  0.66453224  1
  Cr  Cr47  1  0.83358196  0.16564172  0.83450240  1
  Cr  Cr48  1  0.83402162  0.49679318  0.49917591  1
  Ni  Ni49  1  0.66593784  0.33115987  0.66760630  1
  Ni  Ni50  1  0.83101472  0.49809822  0.83234835  1
  Cr  Cr51  1  0.83456199  0.83453799  0.49803102  1
  Cr  Cr52  1  0.66991860  0.66430824  0.66813487  1
  Ni  Ni53  1  0.83289644  0.83278100  0.83297961  1
" 