2700,Ni44Fe18Cr36_7,-225.142254713108, 170.237657476372,Ni44Fe18Cr36,"# generated using pymatgen
 data_Cr21Fe10Ni23
_symmetry_space_group_name_H-M   'P 1'
_cell_length_a   7.48704716
_cell_length_b   7.48704716
_cell_length_c   10.58828363
_cell_angle_alpha   90.00000000
_cell_angle_beta   90.00000000
_cell_angle_gamma   90.00000000
_symmetry_Int_Tables_number   1
_chemical_formula_structural   Cr21Fe10Ni23
_chemical_formula_sum   'Cr21 Fe10 Ni23'
_cell_volume   593.53550518
_cell_formula_units_Z   1
loop_
 _symmetry_equiv_pos_site_id
 _symmetry_equiv_pos_as_xyz
  1  'x, y, z'
loop_
 _atom_site_type_symbol
 _atom_site_label
 _atom_site_symmetry_multiplicity
 _atom_site_fract_x
 _atom_site_fract_y
 _atom_site_fract_z
 _atom_site_occupancy
  Cr  Cr0  1  0.99615358  0.99717498  -0.00008524  1
  Fe  Fe1  1  0.16378539  0.16205430  0.16711682  1
  Ni  Ni2  1  0.99844921  0.99648665  0.33159801  1
  Cr  Cr3  1  0.99687237  0.33265297  0.99736522  1
  Cr  Cr4  1  0.16581425  0.49709695  0.16432273  1
  Ni  Ni5  1  0.99458210  0.33141882  0.33086309  1
  Cr  Cr6  1  0.00138620  0.66616448  0.99544897  1
  Fe  Fe7  1  0.16634046  0.83125342  0.16618599  1
  Ni  Ni8  1  0.99684704  0.66752366  0.33190148  1
  Cr  Cr9  1  0.33457614  0.99354897  -0.00130263  1
  Cr  Cr10  1  0.49650952  0.16516548  0.16302361  1
  Ni  Ni11  1  0.32991757  0.99391251  0.33231416  1
  Ni  Ni12  1  0.33348798  0.33439139  0.99731221  1
  Ni  Ni13  1  0.49757900  0.50188112  0.16434119  1
  Cr  Cr14  1  0.33286856  0.33011643  0.33041916  1
  Ni  Ni15  1  0.33377064  0.66498095  0.99669113  1
  Ni  Ni16  1  0.50117019  0.83093449  0.16609572  1
  Cr  Cr17  1  0.33436304  0.66966754  0.33282968  1
  Ni  Ni18  1  0.66456880  0.99850120  0.99848786  1
  Fe  Fe19  1  0.83207890  0.16387476  0.16607099  1
  Cr  Cr20  1  0.66391450  0.99684793  0.33143328  1
  Cr  Cr21  1  0.66497200  0.33088277  0.99614100  1
  Fe  Fe22  1  0.83037118  0.50227058  0.16711377  1
  Cr  Cr23  1  0.66760690  0.33331346  0.33316140  1
  Cr  Cr24  1  0.66294405  0.66733873  0.00069129  1
  Ni  Ni25  1  0.83229275  0.83357697  0.16661285  1
  Fe  Fe26  1  0.66895774  0.66739349  0.33099415  1
  Cr  Cr27  1  0.16382876  0.16275509  0.49569431  1
  Fe  Fe28  1  0.99588072  0.99748050  0.66435205  1
  Cr  Cr29  1  0.16523542  0.16418380  0.83209289  1
  Cr  Cr30  1  0.16408422  0.49971569  0.49838707  1
  Cr  Cr31  1  0.99430429  0.33265733  0.66569105  1
  Ni  Ni32  1  0.16978774  0.50043778  0.83356432  1
  Fe  Fe33  1  0.16257525  0.83238514  0.49943234  1
  Cr  Cr34  1  0.00009968  0.66593837  0.66805337  1
  Ni  Ni35  1  0.16925901  0.83097949  0.83066964  1
  Cr  Cr36  1  0.49946686  0.16281457  0.50242644  1
  Fe  Fe37  1  0.33372667  0.99486078  0.66581968  1
  Fe  Fe38  1  0.50118670  0.16387260  0.83140324  1
  Cr  Cr39  1  0.50158237  0.50193048  0.49944823  1
  Cr  Cr40  1  0.33419527  0.33507078  0.66865053  1
  Ni  Ni41  1  0.49807491  0.50112065  0.83189380  1
  Fe  Fe42  1  0.50103189  0.83282273  0.50140287  1
  Ni  Ni43  1  0.33390994  0.67025242  0.66827844  1
  Ni  Ni44  1  0.49857836  0.83093845  0.83038361  1
  Ni  Ni45  1  0.83303844  0.16209349  0.49903483  1
  Ni  Ni46  1  0.66528236  0.99858083  0.66635584  1
  Ni  Ni47  1  0.82900188  0.16331920  0.83046396  1
  Ni  Ni48  1  0.83152648  0.50173722  0.49669982  1
  Ni  Ni49  1  0.66765769  0.33115720  0.66690555  1
  Ni  Ni50  1  0.82849720  0.49796058  0.83001639  1
  Ni  Ni51  1  0.83168861  0.83242117  0.49855001  1
  Ni  Ni52  1  0.66408439  0.66610091  0.66358770  1
  Cr  Cr53  1  0.82811190  0.83386485  0.83147118  1
" 