3030,Ni44Fe56_18,-242.145130222549, 227.323863592389,Ni44Fe56,"# generated using pymatgen
 data_Fe23Ni31
_symmetry_space_group_name_H-M   'P 1'
_cell_length_a   7.40068615
_cell_length_b   7.40068615
_cell_length_c   10.46615072
_cell_angle_alpha   90.00000000
_cell_angle_beta   90.00000000
_cell_angle_gamma   90.00000000
_symmetry_Int_Tables_number   1
_chemical_formula_structural   Fe23Ni31
_chemical_formula_sum   'Fe23 Ni31'
_cell_volume   573.23270235
_cell_formula_units_Z   1
loop_
 _symmetry_equiv_pos_site_id
 _symmetry_equiv_pos_as_xyz
  1  'x, y, z'
loop_
 _atom_site_type_symbol
 _atom_site_label
 _atom_site_symmetry_multiplicity
 _atom_site_fract_x
 _atom_site_fract_y
 _atom_site_fract_z
 _atom_site_occupancy
  Ni  Ni0  1  1.00337293  0.00507171  1.00425950  1
  Fe  Fe1  1  0.17093579  0.17094231  0.17091608  1
  Ni  Ni2  1  1.00396736  1.00339071  0.33775913  1
  Ni  Ni3  1  1.00427942  0.33688174  0.00509099  1
  Ni  Ni4  1  0.17262573  0.50518419  0.17157885  1
  Fe  Fe5  1  0.00530440  0.33766560  0.33796612  1
  Fe  Fe6  1  0.00595046  0.67167070  0.00464960  1
  Fe  Fe7  1  0.17091269  0.83847243  0.17154440  1
  Ni  Ni8  1  1.00435374  0.67272570  0.33780174  1
  Ni  Ni9  1  0.33794148  1.00417431  0.00464808  1
  Ni  Ni10  1  0.50514956  0.17133035  0.17075042  1
  Ni  Ni11  1  0.33714254  1.00429455  0.33725790  1
  Ni  Ni12  1  0.33741990  0.33816787  1.00437831  1
  Fe  Fe13  1  0.50445102  0.50378482  0.17146510  1
  Ni  Ni14  1  0.33932582  0.33771996  0.33791122  1
  Ni  Ni15  1  0.33793537  0.67110940  0.00448429  1
  Fe  Fe16  1  0.50441175  0.83843384  0.17066791  1
  Ni  Ni17  1  0.33714141  0.67143727  0.33830216  1
  Ni  Ni18  1  0.67213319  0.00456042  0.00486940  1
  Ni  Ni19  1  0.83606323  0.17004433  0.17163176  1
  Fe  Fe20  1  0.67124124  0.00465539  0.33681237  1
  Fe  Fe21  1  0.67085715  0.33595828  0.00487954  1
  Fe  Fe22  1  0.83783347  0.50380510  0.17199376  1
  Ni  Ni23  1  0.67105351  0.33733442  0.33758358  1
  Fe  Fe24  1  0.67083638  0.67209397  1.00418692  1
  Ni  Ni25  1  0.83734577  0.83860757  0.17102103  1
  Fe  Fe26  1  0.67132203  0.67144387  0.33857643  1
  Ni  Ni27  1  0.17167726  0.17104954  0.50414695  1
  Fe  Fe28  1  0.00463994  0.00471897  0.67083519  1
  Ni  Ni29  1  0.17122404  0.17164649  0.83882672  1
  Fe  Fe30  1  0.16986042  0.50480234  0.50463351  1
  Ni  Ni31  1  1.00381509  0.33757021  0.67005683  1
  Ni  Ni32  1  0.17251614  0.50516836  0.83661658  1
  Ni  Ni33  1  0.17166526  0.83732763  0.50425660  1
  Ni  Ni34  1  1.00420648  0.67158607  0.67165609  1
  Ni  Ni35  1  0.17213843  0.83663584  0.83843922  1
  Fe  Fe36  1  0.50478099  0.17132439  0.50356032  1
  Fe  Fe37  1  0.33704418  1.00440127  0.67106882  1
  Fe  Fe38  1  0.50319858  0.17129963  0.83866262  1
  Fe  Fe39  1  0.50496192  0.50424672  0.50480160  1
  Ni  Ni40  1  0.33790039  0.33795808  0.67115935  1
  Fe  Fe41  1  0.50302615  0.50412316  0.83718450  1
  Fe  Fe42  1  0.50454145  0.83787952  0.50464835  1
  Ni  Ni43  1  0.33752039  0.67120543  0.67066449  1
  Fe  Fe44  1  0.50326205  0.83802784  0.83813256  1
  Ni  Ni45  1  0.83731003  0.17156836  0.50409445  1
  Fe  Fe46  1  0.67176699  0.00463745  0.67160958  1
  Ni  Ni47  1  0.83710244  0.17124886  0.83772398  1
  Ni  Ni48  1  0.83680076  0.50467850  0.50420880  1
  Ni  Ni49  1  0.67173288  0.33758114  0.67204432  1
  Fe  Fe50  1  0.83949492  0.50377933  0.83634566  1
  Ni  Ni51  1  0.83771396  0.83720442  0.50509176  1
  Ni  Ni52  1  0.67172533  0.67119032  0.67066807  1
  Fe  Fe53  1  0.83917340  0.83828651  0.83798366  1
" 