3201,Ni44Fe24Cr30_7,-228.972101348715, 188.430240333602,Ni44Fe24Cr30,"# generated using pymatgen
 data_Cr17Fe13Ni24
_symmetry_space_group_name_H-M   'P 1'
_cell_length_a   7.46565998
_cell_length_b   7.46565998
_cell_length_c   10.55803759
_cell_angle_alpha   90.00000000
_cell_angle_beta   90.00000000
_cell_angle_gamma   90.00000000
_symmetry_Int_Tables_number   1
_chemical_formula_structural   Cr17Fe13Ni24
_chemical_formula_sum   'Cr17 Fe13 Ni24'
_cell_volume   588.46361593
_cell_formula_units_Z   1
loop_
 _symmetry_equiv_pos_site_id
 _symmetry_equiv_pos_as_xyz
  1  'x, y, z'
loop_
 _atom_site_type_symbol
 _atom_site_label
 _atom_site_symmetry_multiplicity
 _atom_site_fract_x
 _atom_site_fract_y
 _atom_site_fract_z
 _atom_site_occupancy
  Fe  Fe0  1  0.00215003  0.99921939  0.99910560  1
  Ni  Ni1  1  0.16863314  0.16698414  0.16429355  1
  Cr  Cr2  1  0.00140716  0.00048746  0.33379380  1
  Cr  Cr3  1  0.00185622  0.33324174  0.99952927  1
  Ni  Ni4  1  0.16945619  0.50076117  0.16709840  1
  Cr  Cr5  1  0.00117030  0.33408857  0.33452045  1
  Ni  Ni6  1  0.00152335  0.66860091  0.00155083  1
  Ni  Ni7  1  0.16478993  0.83253215  0.16603703  1
  Fe  Fe8  1  0.00136805  0.66659083  0.33322726  1
  Fe  Fe9  1  0.33163827  0.00121931  0.99888134  1
  Cr  Cr10  1  0.49910438  0.17069061  0.16611760  1
  Cr  Cr11  1  0.33374139  0.99901274  0.33446872  1
  Ni  Ni12  1  0.33310554  0.33159412  0.00179305  1
  Ni  Ni13  1  0.49919057  0.49839758  0.16756565  1
  Fe  Fe14  1  0.33542146  0.33511099  0.33384958  1
  Cr  Cr15  1  0.33224503  0.66703656  0.00093200  1
  Cr  Cr16  1  0.50100712  0.83169709  0.16698949  1
  Fe  Fe17  1  0.33408090  0.66497418  0.33431804  1
  Fe  Fe18  1  0.66649047  0.00105527  0.99828282  1
  Cr  Cr19  1  0.83230298  0.16553509  0.16653232  1
  Ni  Ni20  1  0.66553625  0.00023206  0.33504944  1
  Ni  Ni21  1  0.66515993  0.33241190  0.99989720  1
  Cr  Cr22  1  0.83088611  0.50237741  0.16590782  1
  Ni  Ni23  1  0.66527512  0.33492298  0.33532522  1
  Ni  Ni24  1  0.66700295  0.66710412  0.00054849  1
  Cr  Cr25  1  0.83488969  0.83236527  0.16548776  1
  Ni  Ni26  1  0.66445376  0.66512459  0.33430720  1
  Ni  Ni27  1  0.16853021  0.16609841  0.50261146  1
  Ni  Ni28  1  0.00411791  0.00204308  0.66693892  1
  Fe  Fe29  1  0.16778535  0.16503857  0.83282169  1
  Fe  Fe30  1  0.17060158  0.50082589  0.49958280  1
  Cr  Cr31  1  0.99988858  0.33104577  0.66622811  1
  Fe  Fe32  1  0.16784661  0.50037206  0.83402294  1
  Ni  Ni33  1  0.16789065  0.83386965  0.50129273  1
  Cr  Cr34  1  0.00247823  0.66692240  0.66615760  1
  Ni  Ni35  1  0.16713564  0.83596822  0.83294950  1
  Ni  Ni36  1  0.49970511  0.16992108  0.50052396  1
  Ni  Ni37  1  0.33145761  0.99911568  0.66708412  1
  Fe  Fe38  1  0.49965644  0.16656992  0.83357601  1
  Ni  Ni39  1  0.50111956  0.49905386  0.50005309  1
  Ni  Ni40  1  0.33380911  0.33254460  0.66565811  1
  Cr  Cr41  1  0.50007949  0.49843407  0.83245607  1
  Ni  Ni42  1  0.49908782  0.83130233  0.50122491  1
  Ni  Ni43  1  0.33434382  0.66861946  0.66558820  1
  Fe  Fe44  1  0.49903659  0.83441870  0.83252646  1
  Fe  Fe45  1  0.83113327  0.16747904  0.50037997  1
  Cr  Cr46  1  0.66473410  0.00108765  0.66577734  1
  Ni  Ni47  1  0.83287370  0.16588246  0.83353962  1
  Fe  Fe48  1  0.82974612  0.49953656  0.49943884  1
  Ni  Ni49  1  0.66565463  0.33345411  0.66505488  1
  Cr  Cr50  1  0.83118059  0.49998001  0.83391077  1
  Cr  Cr51  1  0.83361677  0.83283533  0.49921233  1
  Ni  Ni52  1  0.66272462  0.66531308  0.66542187  1
  Cr  Cr53  1  0.83489806  0.83391821  0.83557623  1
" 