6291,Ni44Fe40Cr15_10,-234.434624250901, 202.469247125299,Ni44Fe40Cr15,"# generated using pymatgen
 data_Cr9Fe22Ni23
_symmetry_space_group_name_H-M   'P 1'
_cell_length_a   7.43758160
_cell_length_b   7.43758160
_cell_length_c   10.51832877
_cell_angle_alpha   90.00000000
_cell_angle_beta   90.00000000
_cell_angle_gamma   90.00000000
_symmetry_Int_Tables_number   1
_chemical_formula_structural   Cr9Fe22Ni23
_chemical_formula_sum   'Cr9 Fe22 Ni23'
_cell_volume   581.84891377
_cell_formula_units_Z   1
loop_
 _symmetry_equiv_pos_site_id
 _symmetry_equiv_pos_as_xyz
  1  'x, y, z'
loop_
 _atom_site_type_symbol
 _atom_site_label
 _atom_site_symmetry_multiplicity
 _atom_site_fract_x
 _atom_site_fract_y
 _atom_site_fract_z
 _atom_site_occupancy
  Fe  Fe0  1  1.00119713  1.00185470  1.00141440  1
  Cr  Cr1  1  0.16731267  0.16987062  0.16826686  1
  Fe  Fe2  1  0.00239564  1.00179269  0.33688401  1
  Fe  Fe3  1  1.00161807  0.33800192  1.00124495  1
  Fe  Fe4  1  0.16993644  0.50322401  0.16895140  1
  Ni  Ni5  1  1.00160253  0.33801043  0.33538575  1
  Fe  Fe6  1  0.00378060  0.66569912  0.00265033  1
  Ni  Ni7  1  0.16814043  0.83282164  0.16959868  1
  Ni  Ni8  1  1.00142339  0.66583224  0.33478147  1
  Cr  Cr9  1  0.33721154  0.00312050  0.00382011  1
  Ni  Ni10  1  0.50359231  0.17256071  0.16866669  1
  Cr  Cr11  1  0.33623670  0.00235132  0.33457843  1
  Ni  Ni12  1  0.33485678  0.33628432  1.00108559  1
  Ni  Ni13  1  0.50315853  0.50146732  0.16875604  1
  Ni  Ni14  1  0.33448801  0.33609536  0.33538338  1
  Ni  Ni15  1  0.33640294  0.66676631  0.00461883  1
  Ni  Ni16  1  0.50184407  0.83232848  0.16731374  1
  Fe  Fe17  1  0.33546791  0.66623847  0.33472483  1
  Fe  Fe18  1  0.66750012  0.00298138  1.00111673  1
  Fe  Fe19  1  0.83378851  0.17120512  0.16870854  1
  Cr  Cr20  1  0.66679864  0.00208906  0.33439862  1
  Fe  Fe21  1  0.66628874  0.33635164  0.00201586  1
  Ni  Ni22  1  0.83395866  0.50104472  0.16871950  1
  Fe  Fe23  1  0.66861195  0.33794120  0.33592554  1
  Ni  Ni24  1  0.66935517  0.66840275  1.00083746  1
  Cr  Cr25  1  0.83673058  0.83385536  0.16799119  1
  Ni  Ni26  1  0.66967616  0.66725880  0.33616700  1
  Fe  Fe27  1  0.16770182  0.17245283  0.50223470  1
  Fe  Fe28  1  1.00187678  0.00399327  0.66757266  1
  Fe  Fe29  1  0.16965607  0.17105321  0.83494737  1
  Ni  Ni30  1  0.16984031  0.50182699  0.50130675  1
  Ni  Ni31  1  0.00381162  0.33488046  0.66925252  1
  Ni  Ni32  1  0.16985734  0.50122831  0.83625547  1
  Fe  Fe33  1  0.16827093  0.83386221  0.50168806  1
  Cr  Cr34  1  1.00055054  0.66388192  0.66794771  1
  Cr  Cr35  1  0.16925067  0.83414687  0.83492575  1
  Fe  Fe36  1  0.50129078  0.17141568  0.50313203  1
  Ni  Ni37  1  0.33669530  0.00364653  0.66769757  1
  Ni  Ni38  1  0.50292759  0.16911675  0.83423403  1
  Ni  Ni39  1  0.49982143  0.50202194  0.50155148  1
  Ni  Ni40  1  0.33258470  0.33464965  0.66948617  1
  Fe  Fe41  1  0.49833074  0.50198367  0.83636288  1
  Fe  Fe42  1  0.50193609  0.83355827  0.50247593  1
  Ni  Ni43  1  0.33518871  0.66827382  0.66776826  1
  Fe  Fe44  1  0.50186227  0.83471856  0.83578270  1
  Ni  Ni45  1  0.83675404  0.16782253  0.50162496  1
  Ni  Ni46  1  0.66777748  1.00159711  0.66962459  1
  Fe  Fe47  1  0.83678676  0.16810628  0.83476550  1
  Ni  Ni48  1  0.83607204  0.50002928  0.50032680  1
  Cr  Cr49  1  0.67014077  0.33613094  0.66743911  1
  Fe  Fe50  1  0.83625369  0.50037521  0.83775143  1
  Fe  Fe51  1  0.83578089  0.83446547  0.50062262  1
  Cr  Cr52  1  0.66898682  0.66924311  0.66891124  1
  Fe  Fe53  1  0.83358747  0.83703682  0.83727366  1
" 