2198,Ni44Fe26Cr28_1,-229.241569395867, 187.5958563316,Ni44Fe26Cr28,"# generated using pymatgen
 data_Cr8Fe7Ni12
_symmetry_space_group_name_H-M   'P 1'
_cell_length_a   7.46247561
_cell_length_b   7.46247561
_cell_length_c   10.55353421
_cell_angle_alpha   90.00000000
_cell_angle_beta   90.00000000
_cell_angle_gamma   90.00000000
_symmetry_Int_Tables_number   1
_chemical_formula_structural   Cr8Fe7Ni12
_chemical_formula_sum   'Cr16 Fe14 Ni24'
_cell_volume   587.71093532
_cell_formula_units_Z   2
loop_
 _symmetry_equiv_pos_site_id
 _symmetry_equiv_pos_as_xyz
  1  'x, y, z'
loop_
 _atom_site_type_symbol
 _atom_site_label
 _atom_site_symmetry_multiplicity
 _atom_site_fract_x
 _atom_site_fract_y
 _atom_site_fract_z
 _atom_site_occupancy
  Ni  Ni0  1  0.00122279  0.00040521  0.00209431  1
  Cr  Cr1  1  0.16666224  0.16926337  0.16495601  1
  Cr  Cr2  1  0.00046551  0.00218956  0.33400491  1
  Ni  Ni3  1  0.99984391  0.33542201  0.99984671  1
  Ni  Ni4  1  0.16680936  0.50118487  0.16815564  1
  Ni  Ni5  1  1.00023512  0.33494535  0.33412922  1
  Fe  Fe6  1  0.00034619  0.66417423  0.00152600  1
  Ni  Ni7  1  0.16616633  0.83004452  0.16515414  1
  Cr  Cr8  1  0.00121272  0.66545772  0.33352854  1
  Fe  Fe9  1  0.33295268  0.00075150  1.00025772  1
  Ni  Ni10  1  0.50230644  0.17084737  0.16777817  1
  Cr  Cr11  1  0.33415830  1.00005438  0.33244246  1
  Cr  Cr12  1  0.33388723  0.33549741  0.99950634  1
  Fe  Fe13  1  0.50020505  0.49935402  0.16866744  1
  Fe  Fe14  1  0.33373609  0.33525016  0.33416006  1
  Fe  Fe15  1  0.33256774  0.66582832  0.00082604  1
  Cr  Cr16  1  0.49949649  0.83148613  0.16651335  1
  Ni  Ni17  1  0.33500255  0.66453833  0.33472990  1
  Cr  Cr18  1  0.66627318  0.00112124  0.00174683  1
  Ni  Ni19  1  0.83317196  0.16975955  0.16731010  1
  Cr  Cr20  1  0.66619687  0.00123906  0.33434025  1
  Ni  Ni21  1  0.66774233  0.33662738  0.00218860  1
  Fe  Fe22  1  0.83383596  0.49897604  0.16677140  1
  Fe  Fe23  1  0.66667452  0.33510549  0.33397910  1
  Fe  Fe24  1  0.66764349  0.66407921  0.00044938  1
  Ni  Ni25  1  0.83455383  0.83141229  0.16548034  1
  Ni  Ni26  1  0.66506291  0.66427337  0.33281332  1
  Ni  Ni27  1  0.16854858  0.16882808  0.50145804  1
  Ni  Ni28  1  0.00361451  0.00211622  0.66491842  1
  Ni  Ni29  1  0.16731586  0.16801519  0.83413122  1
  Fe  Fe30  1  0.17013068  0.49850370  0.49892766  1
  Cr  Cr31  1  0.00106801  0.33506788  0.66727449  1
  Ni  Ni32  1  0.16740352  0.49964018  0.83335824  1
  Fe  Fe33  1  0.17104127  0.83394744  0.50099896  1
  Cr  Cr34  1  0.00250068  0.66418316  0.66566834  1
  Cr  Cr35  1  0.16804907  0.83486127  0.83433714  1
  Ni  Ni36  1  0.49822369  0.16883314  0.50139241  1
  Ni  Ni37  1  0.33409360  1.00020267  0.66669727  1
  Cr  Cr38  1  0.49925049  0.16620548  0.83188604  1
  Ni  Ni39  1  0.50026379  0.49953890  0.49955771  1
  Fe  Fe40  1  0.33415258  0.33318325  0.66625157  1
  Fe  Fe41  1  0.50020385  0.50053946  0.83350470  1
  Ni  Ni42  1  0.49882269  0.83267818  0.50135840  1
  Fe  Fe43  1  0.33453466  0.66663199  0.66588265  1
  Ni  Ni44  1  0.49854673  0.83181007  0.83332995  1
  Fe  Fe45  1  0.83164806  0.16986682  0.50126574  1
  Ni  Ni46  1  0.66338917  0.00149932  0.66491361  1
  Cr  Cr47  1  0.83475150  0.16808730  0.83173074  1
  Ni  Ni48  1  0.83194382  0.49809993  0.49820136  1
  Ni  Ni49  1  0.66534395  0.33478597  0.66556667  1
  Ni  Ni50  1  0.83342613  0.49926820  0.83660662  1
  Cr  Cr51  1  0.83205951  0.83294872  0.50195796  1
  Cr  Cr52  1  0.66508462  0.66453522  0.66836203  1
  Cr  Cr53  1  0.83269918  0.83337612  0.83364776  1
" 