7753,Ni44Fe49Cr5_2,-237.819705143546, 216.506143978905,Ni44Fe49Cr5,"# generated using pymatgen
 data_Cr2Fe13Ni12
_symmetry_space_group_name_H-M   'P 1'
_cell_length_a   7.41255823
_cell_length_b   7.41255823
_cell_length_c   10.48294038
_cell_angle_alpha   90.00000000
_cell_angle_beta   90.00000000
_cell_angle_gamma   90.00000000
_symmetry_Int_Tables_number   1
_chemical_formula_structural   Cr2Fe13Ni12
_chemical_formula_sum   'Cr4 Fe26 Ni24'
_cell_volume   575.99584596
_cell_formula_units_Z   2
loop_
 _symmetry_equiv_pos_site_id
 _symmetry_equiv_pos_as_xyz
  1  'x, y, z'
loop_
 _atom_site_type_symbol
 _atom_site_label
 _atom_site_symmetry_multiplicity
 _atom_site_fract_x
 _atom_site_fract_y
 _atom_site_fract_z
 _atom_site_occupancy
  Ni  Ni0  1  0.00409275  0.00450536  0.00379459  1
  Fe  Fe1  1  0.16980292  0.17106651  0.17053035  1
  Fe  Fe2  1  0.00434552  0.00493530  0.33794785  1
  Ni  Ni3  1  0.00405302  0.33680093  1.00352010  1
  Ni  Ni4  1  0.16963269  0.50267758  0.17011746  1
  Ni  Ni5  1  0.00472385  0.33648935  0.33705889  1
  Ni  Ni6  1  0.00489314  0.66971797  1.00344947  1
  Fe  Fe7  1  0.16971975  0.83684064  0.16973533  1
  Fe  Fe8  1  0.00485960  0.66875528  0.33801698  1
  Fe  Fe9  1  0.33508041  0.00426710  1.00254047  1
  Fe  Fe10  1  0.50384019  0.17054473  0.17027832  1
  Fe  Fe11  1  0.33612158  0.00466094  0.33836105  1
  Fe  Fe12  1  0.33485459  0.33603972  1.00338460  1
  Cr  Cr13  1  0.50280900  0.50300455  0.16993114  1
  Ni  Ni14  1  0.33580467  0.33595863  0.33776255  1
  Fe  Fe15  1  0.33403362  0.67071730  1.00169214  1
  Cr  Cr16  1  0.50318074  0.83749714  0.17069257  1
  Fe  Fe17  1  0.33541974  0.66920978  0.33935372  1
  Ni  Ni18  1  0.67035885  0.00530361  1.00188707  1
  Ni  Ni19  1  0.83750522  0.17112186  0.17020332  1
  Fe  Fe20  1  0.67055865  0.00542121  0.33800472  1
  Fe  Fe21  1  0.67302997  0.33545327  1.00227317  1
  Fe  Fe22  1  0.83908618  0.50202608  0.16989805  1
  Fe  Fe23  1  0.67101797  0.33663380  0.33801865  1
  Fe  Fe24  1  0.67248017  0.66993641  1.00149514  1
  Cr  Cr25  1  0.83786064  0.83844017  0.16924109  1
  Ni  Ni26  1  0.67049337  0.67025452  0.33944242  1
  Ni  Ni27  1  0.17058073  0.17178321  0.50294474  1
  Cr  Cr28  1  0.00434769  1.00320629  0.67094752  1
  Ni  Ni29  1  0.17015682  0.17116524  0.83841492  1
  Ni  Ni30  1  0.17138391  0.50297404  0.50432655  1
  Fe  Fe31  1  1.00354467  0.33972299  0.67083195  1
  Ni  Ni32  1  0.17019753  0.50365662  0.83658084  1
  Ni  Ni33  1  0.17118658  0.83627059  0.50186755  1
  Ni  Ni34  1  0.00426540  0.66958161  0.66984966  1
  Ni  Ni35  1  0.17151868  0.83620944  0.83854982  1
  Fe  Fe36  1  0.50267774  0.17023283  0.50359070  1
  Fe  Fe37  1  0.33834614  1.00252708  0.67012716  1
  Fe  Fe38  1  0.50364464  0.17076969  0.83715313  1
  Ni  Ni39  1  0.50328948  0.50457988  0.50375389  1
  Fe  Fe40  1  0.33679346  0.33834873  0.66962189  1
  Fe  Fe41  1  0.50349648  0.50334069  0.83607480  1
  Ni  Ni42  1  0.50487299  0.83605432  0.50363763  1
  Ni  Ni43  1  0.33729323  0.67016723  0.66963140  1
  Fe  Fe44  1  0.50342869  0.83691587  0.83674693  1
  Fe  Fe45  1  0.83670216  0.17092912  0.50279633  1
  Fe  Fe46  1  0.66902622  1.00263408  0.67057906  1
  Ni  Ni47  1  0.83632663  0.17108708  0.83795771  1
  Fe  Fe48  1  0.83712350  0.50490310  0.50431399  1
  Ni  Ni49  1  0.66948400  0.33741880  0.66975688  1
  Ni  Ni50  1  0.83691000  0.50310543  0.83776762  1
  Ni  Ni51  1  0.83496687  0.83685526  0.50337417  1
  Ni  Ni52  1  0.66946957  0.66969854  0.67080349  1
  Fe  Fe53  1  0.83778316  0.83605829  0.83784427  1
" 