6721,Ni44Fe49Cr5_7,-237.747303691122, 214.45693235391,Ni44Fe49Cr5,"# generated using pymatgen
 data_Cr2Fe13Ni12
_symmetry_space_group_name_H-M   'P 1'
_cell_length_a   7.41468916
_cell_length_b   7.41468916
_cell_length_c   10.48595397
_cell_angle_alpha   90.00000000
_cell_angle_beta   90.00000000
_cell_angle_gamma   90.00000000
_symmetry_Int_Tables_number   1
_chemical_formula_structural   Cr2Fe13Ni12
_chemical_formula_sum   'Cr4 Fe26 Ni24'
_cell_volume   576.49274437
_cell_formula_units_Z   2
loop_
 _symmetry_equiv_pos_site_id
 _symmetry_equiv_pos_as_xyz
  1  'x, y, z'
loop_
 _atom_site_type_symbol
 _atom_site_label
 _atom_site_symmetry_multiplicity
 _atom_site_fract_x
 _atom_site_fract_y
 _atom_site_fract_z
 _atom_site_occupancy
  Cr  Cr0  1  1.00255273  1.00280960  1.00283064  1
  Fe  Fe1  1  0.17159676  0.17298157  0.17250040  1
  Cr  Cr2  1  1.00304313  1.00143854  0.33749971  1
  Fe  Fe3  1  0.00379086  0.33814850  1.00281485  1
  Fe  Fe4  1  0.17029231  0.50489459  0.16989950  1
  Fe  Fe5  1  0.00516324  0.33866660  0.33779301  1
  Fe  Fe6  1  1.00336064  0.66973396  1.00332296  1
  Fe  Fe7  1  0.17193240  0.83229131  0.17069197  1
  Ni  Ni8  1  1.00351907  0.66945615  0.33638435  1
  Cr  Cr9  1  0.33840640  1.00236998  1.00321382  1
  Fe  Fe10  1  0.50559253  0.17072010  0.17155666  1
  Ni  Ni11  1  0.33750164  0.00375241  0.33686409  1
  Fe  Fe12  1  0.33777231  0.33817734  0.00430175  1
  Ni  Ni13  1  0.50184876  0.50359761  0.17015008  1
  Ni  Ni14  1  0.33957899  0.33752488  0.33664279  1
  Ni  Ni15  1  0.33668584  0.66798047  1.00285580  1
  Fe  Fe16  1  0.50443909  0.83488165  0.17168248  1
  Ni  Ni17  1  0.33576014  0.66938897  0.33771979  1
  Ni  Ni18  1  0.67056254  0.00493936  0.00379184  1
  Fe  Fe19  1  0.83348178  0.17259639  0.17001534  1
  Fe  Fe20  1  0.66762245  1.00288689  0.33705089  1
  Fe  Fe21  1  0.66887953  0.33702028  1.00321249  1
  Fe  Fe22  1  0.83581196  0.50434783  0.17174272  1
  Ni  Ni23  1  0.66929582  0.33741469  0.33722278  1
  Fe  Fe24  1  0.66908582  0.67164653  1.00288951  1
  Ni  Ni25  1  0.83520682  0.83677329  0.17027019  1
  Fe  Fe26  1  0.66895332  0.66956681  0.33791163  1
  Ni  Ni27  1  0.17057559  0.17125935  0.50481840  1
  Ni  Ni28  1  0.00369695  0.00418150  0.67091121  1
  Fe  Fe29  1  0.16968118  0.17185568  0.83380510  1
  Fe  Fe30  1  0.17017490  0.50297729  0.50233627  1
  Fe  Fe31  1  1.00090711  0.33511211  0.67022842  1
  Ni  Ni32  1  0.17373367  0.50271546  0.83837606  1
  Fe  Fe33  1  0.17150340  0.83689992  0.50369583  1
  Cr  Cr34  1  1.00310753  0.67125405  0.66997790  1
  Ni  Ni35  1  0.17062009  0.83579417  0.83609116  1
  Fe  Fe36  1  0.50538193  0.17031473  0.50295195  1
  Fe  Fe37  1  0.33791636  1.00280069  0.66911270  1
  Fe  Fe38  1  0.50533139  0.17064923  0.83594187  1
  Ni  Ni39  1  0.50278042  0.50439197  0.50333190  1
  Fe  Fe40  1  0.33788304  0.33739524  0.66951576  1
  Ni  Ni41  1  0.50191679  0.50319110  0.83740114  1
  Ni  Ni42  1  0.50394143  0.83528603  0.50301448  1
  Fe  Fe43  1  0.34015851  0.67039598  0.67101937  1
  Fe  Fe44  1  0.50505591  0.83541270  0.83532787  1
  Ni  Ni45  1  0.83807338  0.17035398  0.50335654  1
  Ni  Ni46  1  0.67155057  0.00476776  0.66978803  1
  Ni  Ni47  1  0.83634325  0.16926687  0.83652645  1
  Ni  Ni48  1  0.83460262  0.50243761  0.50203454  1
  Ni  Ni49  1  0.66900689  0.33718279  0.67070898  1
  Fe  Fe50  1  0.83632230  0.50324030  0.83664008  1
  Ni  Ni51  1  0.83414286  0.83763021  0.50364973  1
  Ni  Ni52  1  0.66924639  0.66850092  0.67039793  1
  Ni  Ni53  1  0.83526777  0.83938514  0.83686743  1
" 