4591,Ni44Fe18Cr36_13,-225.472259177771, 176.417134072911,Ni44Fe18Cr36,"# generated using pymatgen
 data_Cr21Fe10Ni23
_symmetry_space_group_name_H-M   'P 1'
_cell_length_a   7.48401427
_cell_length_b   7.48401427
_cell_length_c   10.58399449
_cell_angle_alpha   90.00000000
_cell_angle_beta   90.00000000
_cell_angle_gamma   90.00000000
_symmetry_Int_Tables_number   1
_chemical_formula_structural   Cr21Fe10Ni23
_chemical_formula_sum   'Cr21 Fe10 Ni23'
_cell_volume   592.81450221
_cell_formula_units_Z   1
loop_
 _symmetry_equiv_pos_site_id
 _symmetry_equiv_pos_as_xyz
  1  'x, y, z'
loop_
 _atom_site_type_symbol
 _atom_site_label
 _atom_site_symmetry_multiplicity
 _atom_site_fract_x
 _atom_site_fract_y
 _atom_site_fract_z
 _atom_site_occupancy
  Ni  Ni0  1  0.99869300  0.00109222  0.99697480  1
  Cr  Cr1  1  0.16417365  0.16479640  0.16641971  1
  Ni  Ni2  1  -0.00031165  0.00073076  0.33409143  1
  Fe  Fe3  1  -0.00093906  0.33161315  0.99798430  1
  Ni  Ni4  1  0.16639501  0.49794597  0.16796774  1
  Ni  Ni5  1  0.00130615  0.33117212  0.33258737  1
  Ni  Ni6  1  0.99806510  0.66385130  -0.00075147  1
  Cr  Cr7  1  0.16689857  0.83313219  0.16456170  1
  Cr  Cr8  1  0.00105888  0.66432812  0.33439904  1
  Ni  Ni9  1  0.33155361  0.99839288  0.99789713  1
  Cr  Cr10  1  0.49817042  0.16513908  0.16816590  1
  Ni  Ni11  1  0.33262871  0.99836950  0.33390981  1
  Cr  Cr12  1  0.33164517  0.33305507  0.99731251  1
  Ni  Ni13  1  0.49823997  0.50046368  0.16516057  1
  Ni  Ni14  1  0.32995808  0.33251179  0.33354722  1
  Cr  Cr15  1  0.33367243  0.66555155  -0.00056794  1
  Ni  Ni16  1  0.49824641  0.83113610  0.16679598  1
  Ni  Ni17  1  0.33239579  0.66567115  0.33152784  1
  Cr  Cr18  1  0.66487730  0.99857210  -0.00050284  1
  Fe  Fe19  1  0.83401677  0.16549122  0.16548887  1
  Fe  Fe20  1  0.66420476  0.99829794  0.33287346  1
  Fe  Fe21  1  0.66662071  0.33379693  0.99858504  1
  Cr  Cr22  1  0.83237182  0.49744089  0.16286794  1
  Cr  Cr23  1  0.66567356  0.33107636  0.33052770  1
  Ni  Ni24  1  0.66445444  0.66411582  0.99807219  1
  Cr  Cr25  1  0.83269138  0.83338989  0.16506815  1
  Cr  Cr26  1  0.66396546  0.66739960  0.33223065  1
  Ni  Ni27  1  0.16636247  0.16365031  0.49735683  1
  Ni  Ni28  1  0.99749486  -0.00102948  0.66548063  1
  Ni  Ni29  1  0.16314716  0.16579400  0.83258694  1
  Fe  Fe30  1  0.16599681  0.49739356  0.49756479  1
  Cr  Cr31  1  0.00220795  0.33124227  0.66603505  1
  Ni  Ni32  1  0.16755875  0.49681442  0.83124749  1
  Ni  Ni33  1  0.16595339  0.83468918  0.49740360  1
  Cr  Cr34  1  -0.00048862  0.66595827  0.66249557  1
  Cr  Cr35  1  0.16573674  0.83431647  0.83464492  1
  Fe  Fe36  1  0.49581982  0.16390058  0.49829420  1
  Cr  Cr37  1  0.33221129  0.00000436  0.66625226  1
  Cr  Cr38  1  0.49810557  0.16600021  0.83077191  1
  Cr  Cr39  1  0.49765891  0.49861074  0.50012496  1
  Ni  Ni40  1  0.33131733  0.33378141  0.66550697  1
  Ni  Ni41  1  0.49837808  0.50103438  0.83168256  1
  Fe  Fe42  1  0.49798339  0.83390807  0.49852818  1
  Fe  Fe43  1  0.33329484  0.66459999  0.66586761  1
  Ni  Ni44  1  0.49967803  0.82963980  0.83134600  1
  Cr  Cr45  1  0.83361206  0.16413296  0.49746412  1
  Ni  Ni46  1  0.66602124  0.99635120  0.66434271  1
  Ni  Ni47  1  0.83498729  0.16457574  0.83376385  1
  Ni  Ni48  1  0.83243099  0.50023299  0.49868728  1
  Cr  Cr49  1  0.66402713  0.33148599  0.66710306  1
  Cr  Cr50  1  0.83039170  0.49866265  0.83453642  1
  Fe  Fe51  1  0.83307104  0.83346630  0.49985509  1
  Fe  Fe52  1  0.66339074  0.66759924  0.66557140  1
  Cr  Cr53  1  0.83171414  0.83344014  0.83108034  1
" 