5468,Ni44Fe24Cr30_13,-228.049399223302, 180.854126667372,Ni44Fe24Cr30,"# generated using pymatgen
 data_Cr17Fe13Ni24
_symmetry_space_group_name_H-M   'P 1'
_cell_length_a   7.46445186
_cell_length_b   7.46445186
_cell_length_c   10.55632905
_cell_angle_alpha   90.00000000
_cell_angle_beta   90.00000000
_cell_angle_gamma   90.00000000
_symmetry_Int_Tables_number   1
_chemical_formula_structural   Cr17Fe13Ni24
_chemical_formula_sum   'Cr17 Fe13 Ni24'
_cell_volume   588.17798047
_cell_formula_units_Z   1
loop_
 _symmetry_equiv_pos_site_id
 _symmetry_equiv_pos_as_xyz
  1  'x, y, z'
loop_
 _atom_site_type_symbol
 _atom_site_label
 _atom_site_symmetry_multiplicity
 _atom_site_fract_x
 _atom_site_fract_y
 _atom_site_fract_z
 _atom_site_occupancy
  Ni  Ni0  1  0.99948360  0.99902225  0.99774738  1
  Cr  Cr1  1  0.17073804  0.16435945  0.16705756  1
  Ni  Ni2  1  0.99668370  0.00096156  0.33451387  1
  Cr  Cr3  1  0.00050948  0.33354056  0.00290628  1
  Ni  Ni4  1  0.16761920  0.50274632  0.16632284  1
  Cr  Cr5  1  0.00032365  0.33313694  0.33063739  1
  Ni  Ni6  1  0.00040129  0.66740469  0.00042614  1
  Cr  Cr7  1  0.16550975  0.83456263  0.16818627  1
  Ni  Ni8  1  0.00088307  0.66736152  0.33026432  1
  Ni  Ni9  1  0.33514206  0.99855852  0.00036237  1
  Ni  Ni10  1  0.49976519  0.16391318  0.16712442  1
  Fe  Fe11  1  0.33541177  0.00171502  0.33387354  1
  Fe  Fe12  1  0.33296547  0.33295272  0.99982222  1
  Cr  Cr13  1  0.49937489  0.49988125  0.16615024  1
  Ni  Ni14  1  0.33456945  0.33375859  0.33369329  1
  Fe  Fe15  1  0.33324146  0.66836513  0.99915287  1
  Fe  Fe16  1  0.50047462  0.83442001  0.16759816  1
  Ni  Ni17  1  0.33503037  0.66678654  0.33381481  1
  Ni  Ni18  1  0.66624700  0.99781789  0.00138225  1
  Fe  Fe19  1  0.83289482  0.16289188  0.16670517  1
  Ni  Ni20  1  0.66553913  0.99930720  0.33193790  1
  Cr  Cr21  1  0.66875164  0.33121825  0.00147741  1
  Ni  Ni22  1  0.83326702  0.50655076  0.16713508  1
  Cr  Cr23  1  0.66682287  0.32989944  0.33398116  1
  Ni  Ni24  1  0.66659728  0.67001310  0.00050842  1
  Fe  Fe25  1  0.83265770  0.83442032  0.16575768  1
  Fe  Fe26  1  0.66589872  0.66807007  0.33226361  1
  Ni  Ni27  1  0.16676202  0.16650317  0.49951389  1
  Fe  Fe28  1  0.99996811  0.00258932  0.66796529  1
  Ni  Ni29  1  0.16677073  0.16496368  0.83368125  1
  Cr  Cr30  1  0.16813419  0.49878746  0.49857820  1
  Ni  Ni31  1  0.00170271  0.32915364  0.66712407  1
  Fe  Fe32  1  0.16711858  0.49652417  0.83514171  1
  Cr  Cr33  1  0.16625522  0.83645441  0.49709767  1
  Cr  Cr34  1  0.00250731  0.66793065  0.66899140  1
  Fe  Fe35  1  0.16648789  0.83535225  0.83686139  1
  Fe  Fe36  1  0.50046154  0.16651404  0.49949727  1
  Cr  Cr37  1  0.33530847  0.99926068  0.66445811  1
  Cr  Cr38  1  0.50000648  0.16871967  0.83412677  1
  Ni  Ni39  1  0.49908232  0.49946767  0.50024167  1
  Ni  Ni40  1  0.33191488  0.33288636  0.66679654  1
  Ni  Ni41  1  0.49752713  0.50150671  0.83471383  1
  Ni  Ni42  1  0.50121427  0.83394598  0.49659927  1
  Cr  Cr43  1  0.33430700  0.66767906  0.66937685  1
  Fe  Fe44  1  0.50319468  0.83543154  0.83563750  1
  Ni  Ni45  1  0.83394575  0.16436058  0.50288267  1
  Ni  Ni46  1  0.66780258  0.00161568  0.66727658  1
  Ni  Ni47  1  0.83515209  0.16238357  0.83248408  1
  Cr  Cr48  1  0.83126215  0.49949997  0.50071514  1
  Fe  Fe49  1  0.66489106  0.33130023  0.66641210  1
  Cr  Cr50  1  0.82987051  0.50035551  0.83203865  1
  Cr  Cr51  1  0.83334836  0.83531204  0.49873642  1
  Cr  Cr52  1  0.66351092  0.67141415  0.66608114  1
  Ni  Ni53  1  0.83407903  0.83584124  0.83555710  1
" 