8933,Ni44Fe49Cr5_5,-237.620478103858, 217.647470469295,Ni44Fe49Cr5,"# generated using pymatgen
 data_Cr2Fe13Ni12
_symmetry_space_group_name_H-M   'P 1'
_cell_length_a   7.40855734
_cell_length_b   7.40855734
_cell_length_c   10.47728226
_cell_angle_alpha   90.00000000
_cell_angle_beta   90.00000000
_cell_angle_gamma   90.00000000
_symmetry_Int_Tables_number   1
_chemical_formula_structural   Cr2Fe13Ni12
_chemical_formula_sum   'Cr4 Fe26 Ni24'
_cell_volume   575.06367693
_cell_formula_units_Z   2
loop_
 _symmetry_equiv_pos_site_id
 _symmetry_equiv_pos_as_xyz
  1  'x, y, z'
loop_
 _atom_site_type_symbol
 _atom_site_label
 _atom_site_symmetry_multiplicity
 _atom_site_fract_x
 _atom_site_fract_y
 _atom_site_fract_z
 _atom_site_occupancy
  Fe  Fe0  1  0.00545366  1.00369245  1.00295969  1
  Ni  Ni1  1  0.17329566  0.17129187  0.17160773  1
  Ni  Ni2  1  0.00515239  1.00332078  0.33795703  1
  Fe  Fe3  1  0.00803020  0.33692794  0.00445070  1
  Ni  Ni4  1  0.17069679  0.50366810  0.16966163  1
  Fe  Fe5  1  0.00435377  0.33774581  0.33773798  1
  Fe  Fe6  1  0.00503292  0.67122578  0.00493334  1
  Fe  Fe7  1  0.16963428  0.83742560  0.17099941  1
  Ni  Ni8  1  1.00285333  0.67014399  0.33685964  1
  Ni  Ni9  1  0.33655504  0.00520133  0.00411344  1
  Fe  Fe10  1  0.50140390  0.16999209  0.17096628  1
  Ni  Ni11  1  0.33609491  0.00460208  0.33612222  1
  Ni  Ni12  1  0.33598707  0.33652524  1.00387995  1
  Fe  Fe13  1  0.50355182  0.50445802  0.17120825  1
  Fe  Fe14  1  0.33608391  0.33783679  0.33579787  1
  Fe  Fe15  1  0.33712843  0.67023760  1.00350495  1
  Fe  Fe16  1  0.50423188  0.83739395  0.17105988  1
  Fe  Fe17  1  0.33678254  0.67157628  0.33803487  1
  Fe  Fe18  1  0.66925896  1.00209592  1.00301920  1
  Cr  Cr19  1  0.83745847  0.16942810  0.17071081  1
  Ni  Ni20  1  0.67059038  1.00278682  0.33640200  1
  Cr  Cr21  1  0.66913891  0.33749677  0.00436505  1
  Ni  Ni22  1  0.83801729  0.50699520  0.17238295  1
  Fe  Fe23  1  0.67140809  0.33822035  0.33716930  1
  Fe  Fe24  1  0.66967898  0.67281747  0.00499411  1
  Ni  Ni25  1  0.83626340  0.83508471  0.17077817  1
  Ni  Ni26  1  0.67186528  0.66964768  0.33674170  1
  Fe  Fe27  1  0.16879961  0.16996121  0.50380187  1
  Ni  Ni28  1  0.00402524  0.00419648  0.67077582  1
  Ni  Ni29  1  0.17263853  0.17008481  0.83644100  1
  Ni  Ni30  1  0.17043283  0.50570907  0.50471363  1
  Fe  Fe31  1  0.00470704  0.33641631  0.66965347  1
  Fe  Fe32  1  0.17222004  0.50406049  0.83717231  1
  Ni  Ni33  1  0.17065616  0.83592935  0.50356365  1
  Ni  Ni34  1  0.00450764  0.67111427  0.66997420  1
  Ni  Ni35  1  0.17064531  0.83762527  0.83750899  1
  Cr  Cr36  1  0.50486600  0.16927796  0.50339281  1
  Ni  Ni37  1  0.33615794  1.00374113  0.67160515  1
  Ni  Ni38  1  0.50251820  0.16974758  0.83697816  1
  Fe  Fe39  1  0.50377799  0.50587122  0.50422676  1
  Fe  Fe40  1  0.33653102  0.33799762  0.67203688  1
  Fe  Fe41  1  0.50133306  0.50479341  0.83640969  1
  Fe  Fe42  1  0.50368982  0.83600509  0.50402112  1
  Ni  Ni43  1  0.33718644  0.67005721  0.67093523  1
  Fe  Fe44  1  0.50359180  0.83812449  0.83676188  1
  Ni  Ni45  1  0.83718343  0.17042961  0.50477313  1
  Ni  Ni46  1  0.67165979  1.00369899  0.67240304  1
  Fe  Fe47  1  0.83832469  0.16737121  0.83580015  1
  Fe  Fe48  1  0.83784919  0.50436875  0.50368159  1
  Fe  Fe49  1  0.67060629  0.33689255  0.67078930  1
  Cr  Cr50  1  0.83810849  0.50585811  0.83622495  1
  Fe  Fe51  1  0.83784954  0.83742453  0.50388783  1
  Ni  Ni52  1  0.67014655  0.67058213  0.67016427  1
  Ni  Ni53  1  0.83714906  0.83798642  0.83704892  1
" 