6422,Ni44Fe18Cr36_6,-224.729414211549, 164.130552185878,Ni44Fe18Cr36,"# generated using pymatgen
 data_Cr21Fe10Ni23
_symmetry_space_group_name_H-M   'P 1'
_cell_length_a   7.48918082
_cell_length_b   7.48918082
_cell_length_c   10.59130108
_cell_angle_alpha   90.00000000
_cell_angle_beta   90.00000000
_cell_angle_gamma   90.00000000
_symmetry_Int_Tables_number   1
_chemical_formula_structural   Cr21Fe10Ni23
_chemical_formula_sum   'Cr21 Fe10 Ni23'
_cell_volume   594.04308700
_cell_formula_units_Z   1
loop_
 _symmetry_equiv_pos_site_id
 _symmetry_equiv_pos_as_xyz
  1  'x, y, z'
loop_
 _atom_site_type_symbol
 _atom_site_label
 _atom_site_symmetry_multiplicity
 _atom_site_fract_x
 _atom_site_fract_y
 _atom_site_fract_z
 _atom_site_occupancy
  Ni  Ni0  1  0.00300356  0.99491277  0.99829183  1
  Fe  Fe1  1  0.16794092  0.16291182  0.16444017  1
  Cr  Cr2  1  0.99808354  0.99783931  0.33257132  1
  Cr  Cr3  1  0.00421399  0.33237750  0.99844833  1
  Fe  Fe4  1  0.16889850  0.50119948  0.16455928  1
  Cr  Cr5  1  0.00157791  0.33245547  0.33265447  1
  Ni  Ni6  1  0.00283609  0.66800338  -0.00014247  1
  Ni  Ni7  1  0.16522428  0.83098140  0.16455860  1
  Fe  Fe8  1  0.00101676  0.66768201  0.33115929  1
  Ni  Ni9  1  0.32805713  0.99796945  0.99800353  1
  Cr  Cr10  1  0.49677533  0.16489275  0.16545447  1
  Ni  Ni11  1  0.33223246  0.99779770  0.33064473  1
  Fe  Fe12  1  0.33090337  0.33301819  0.99672206  1
  Ni  Ni13  1  0.49622773  0.49928600  0.16597102  1
  Ni  Ni14  1  0.33245788  0.33473691  0.32836638  1
  Ni  Ni15  1  0.32922314  0.66360105  0.99797264  1
  Cr  Cr16  1  0.49376667  0.83155484  0.16661912  1
  Ni  Ni17  1  0.33187452  0.66339699  0.33016836  1
  Cr  Cr18  1  0.66570880  0.99713608  0.99628848  1
  Cr  Cr19  1  0.83241188  0.16479968  0.16469224  1
  Ni  Ni20  1  0.66640309  0.99639161  0.33304747  1
  Cr  Cr21  1  0.66050066  0.33313677  0.99670058  1
  Cr  Cr22  1  0.83226857  0.49982696  0.16641814  1
  Fe  Fe23  1  0.66299881  0.33076325  0.33217376  1
  Cr  Cr24  1  0.66385560  0.66540110  0.99691427  1
  Fe  Fe25  1  0.83279967  0.83119367  0.16554293  1
  Fe  Fe26  1  0.66432536  0.66641075  0.33143595  1
  Cr  Cr27  1  0.16626167  0.16461022  0.50102670  1
  Ni  Ni28  1  -0.00079504  0.99685065  0.66576739  1
  Ni  Ni29  1  0.16681843  0.16294583  0.83180332  1
  Cr  Cr30  1  0.16591455  0.50003792  0.50009920  1
  Ni  Ni31  1  0.00045042  0.33193044  0.66543114  1
  Ni  Ni32  1  0.16612247  0.50063565  0.83193326  1
  Cr  Cr33  1  0.16682311  0.83141070  0.50059938  1
  Ni  Ni34  1  -0.00090817  0.66662188  0.66595830  1
  Ni  Ni35  1  0.16418643  0.83195450  0.83189526  1
  Cr  Cr36  1  0.49711149  0.16506861  0.49705033  1
  Ni  Ni37  1  0.33011924  -0.00008779  0.66728808  1
  Ni  Ni38  1  0.49438063  0.16655192  0.83145200  1
  Cr  Cr39  1  0.49757866  0.49899527  0.49907215  1
  Ni  Ni40  1  0.33174366  0.33269474  0.66967902  1
  Ni  Ni41  1  0.49574168  0.49780871  0.83045444  1
  Cr  Cr42  1  0.49549654  0.83132271  0.49744454  1
  Fe  Fe43  1  0.32935469  0.66393024  0.66806994  1
  Cr  Cr44  1  0.49266336  0.83201368  0.83104311  1
  Ni  Ni45  1  0.83111866  0.16477397  0.49960897  1
  Cr  Cr46  1  0.66560615  0.99808858  0.66514443  1
  Cr  Cr47  1  0.83465385  0.16590776  0.83061610  1
  Cr  Cr48  1  0.83216453  0.49773506  0.49967363  1
  Ni  Ni49  1  0.66308803  0.33226228  0.66506421  1
  Cr  Cr50  1  0.83414662  0.49926675  0.82932505  1
  Ni  Ni51  1  0.83229290  0.83113342  0.49815470  1
  Fe  Fe52  1  0.66574345  0.66494424  0.66589503  1
  Fe  Fe53  1  0.83674112  0.83112052  0.83097873  1
" 