5440,Ni44Fe24Cr30_8,-228.464003073783, 185.882524299706,Ni44Fe24Cr30,"# generated using pymatgen
 data_Cr17Fe13Ni24
_symmetry_space_group_name_H-M   'P 1'
_cell_length_a   7.46175046
_cell_length_b   7.46175046
_cell_length_c   10.55250870
_cell_angle_alpha   90.00000000
_cell_angle_beta   90.00000000
_cell_angle_gamma   90.00000000
_symmetry_Int_Tables_number   1
_chemical_formula_structural   Cr17Fe13Ni24
_chemical_formula_sum   'Cr17 Fe13 Ni24'
_cell_volume   587.53962316
_cell_formula_units_Z   1
loop_
 _symmetry_equiv_pos_site_id
 _symmetry_equiv_pos_as_xyz
  1  'x, y, z'
loop_
 _atom_site_type_symbol
 _atom_site_label
 _atom_site_symmetry_multiplicity
 _atom_site_fract_x
 _atom_site_fract_y
 _atom_site_fract_z
 _atom_site_occupancy
  Cr  Cr0  1  0.99798307  0.99965931  0.99965564  1
  Cr  Cr1  1  0.16703536  0.16651617  0.16970611  1
  Ni  Ni2  1  0.00222700  0.00116225  0.33539252  1
  Cr  Cr3  1  0.00234829  0.33654342  0.99866958  1
  Fe  Fe4  1  0.16996370  0.49946058  0.16791853  1
  Ni  Ni5  1  0.00207052  0.33438237  0.33418922  1
  Cr  Cr6  1  0.00045395  0.66480721  1.00005206  1
  Cr  Cr7  1  0.16996467  0.83309196  0.16725439  1
  Cr  Cr8  1  1.00000155  0.66554583  0.33356523  1
  Fe  Fe9  1  0.33789601  0.00157557  0.99898381  1
  Cr  Cr10  1  0.50114771  0.16821979  0.16561467  1
  Ni  Ni11  1  0.33335059  0.99937104  0.33689350  1
  Ni  Ni12  1  0.33553590  0.33524787  0.99794874  1
  Ni  Ni13  1  0.50125569  0.50230010  0.16821090  1
  Fe  Fe14  1  0.33375200  0.33558155  0.33506454  1
  Fe  Fe15  1  0.33665330  0.66457557  0.00046714  1
  Ni  Ni16  1  0.49921573  0.83087724  0.16764488  1
  Ni  Ni17  1  0.33642052  0.66619912  0.33302908  1
  Ni  Ni18  1  0.66363502  0.99917351  0.99934511  1
  Cr  Cr19  1  0.83285877  0.16885362  0.16720265  1
  Cr  Cr20  1  0.66554192  0.99787909  0.33303715  1
  Ni  Ni21  1  0.66282822  0.33372485  0.99985101  1
  Ni  Ni22  1  0.83110043  0.49951020  0.16965437  1
  Fe  Fe23  1  0.66598209  0.33782011  0.33440762  1
  Cr  Cr24  1  0.66571572  0.66799977  0.99939204  1
  Fe  Fe25  1  0.83022700  0.83255583  0.16743620  1
  Ni  Ni26  1  0.66435356  0.66589373  0.33448500  1
  Fe  Fe27  1  0.16947067  0.16831700  0.49932326  1
  Cr  Cr28  1  0.00210065  0.00125317  0.66630144  1
  Ni  Ni29  1  0.17042968  0.16891256  0.83164632  1
  Ni  Ni30  1  0.16806525  0.50017132  0.49859437  1
  Ni  Ni31  1  0.00219271  0.33574470  0.66811458  1
  Ni  Ni32  1  0.16807932  0.49768897  0.83483726  1
  Ni  Ni33  1  0.16832214  0.83490343  0.49813004  1
  Cr  Cr34  1  0.99903348  0.66412668  0.66743329  1
  Cr  Cr35  1  0.16913737  0.83410281  0.83527439  1
  Ni  Ni36  1  0.49848942  0.16902692  0.50023605  1
  Fe  Fe37  1  0.33449959  0.00359560  0.66600133  1
  Ni  Ni38  1  0.49867990  0.16789618  0.83515792  1
  Ni  Ni39  1  0.50114946  0.49959973  0.49892606  1
  Fe  Fe40  1  0.33386888  0.33252363  0.66787823  1
  Ni  Ni41  1  0.50104341  0.49859959  0.83392136  1
  Fe  Fe42  1  0.49819341  0.83225935  0.49869809  1
  Cr  Cr43  1  0.33555899  0.66557279  0.66715141  1
  Ni  Ni44  1  0.50089005  0.83455474  0.83439718  1
  Cr  Cr45  1  0.83415787  0.16989632  0.49872897  1
  Cr  Cr46  1  0.66338281  0.99912913  0.66828533  1
  Cr  Cr47  1  0.83182391  0.16952927  0.83511967  1
  Fe  Fe48  1  0.83234255  0.49959156  0.50039299  1
  Ni  Ni49  1  0.66501865  0.33589613  0.66750646  1
  Ni  Ni50  1  0.83201320  0.49983354  0.83063849  1
  Fe  Fe51  1  0.83312333  0.83129221  0.49971506  1
  Fe  Fe52  1  0.66747299  0.66443185  0.66756039  1
  Ni  Ni53  1  0.83110954  0.83219066  0.83412587  1
" 