5129,Ni44Fe24Cr30_4,-228.702966473311, 184.707309608472,Ni44Fe24Cr30,"# generated using pymatgen
 data_Cr17Fe13Ni24
_symmetry_space_group_name_H-M   'P 1'
_cell_length_a   7.46574018
_cell_length_b   7.46574018
_cell_length_c   10.55815102
_cell_angle_alpha   90.00000000
_cell_angle_beta   90.00000000
_cell_angle_gamma   90.00000000
_symmetry_Int_Tables_number   1
_chemical_formula_structural   Cr17Fe13Ni24
_chemical_formula_sum   'Cr17 Fe13 Ni24'
_cell_volume   588.48258244
_cell_formula_units_Z   1
loop_
 _symmetry_equiv_pos_site_id
 _symmetry_equiv_pos_as_xyz
  1  'x, y, z'
loop_
 _atom_site_type_symbol
 _atom_site_label
 _atom_site_symmetry_multiplicity
 _atom_site_fract_x
 _atom_site_fract_y
 _atom_site_fract_z
 _atom_site_occupancy
  Fe  Fe0  1  0.00230566  0.99963043  0.00197227  1
  Fe  Fe1  1  0.16840190  0.16696407  0.16693415  1
  Cr  Cr2  1  0.00151135  0.99903322  0.33424773  1
  Ni  Ni3  1  0.99960986  0.33349599  0.00293608  1
  Ni  Ni4  1  0.16333208  0.50182804  0.16689474  1
  Ni  Ni5  1  0.00163751  0.33367085  0.33068368  1
  Fe  Fe6  1  0.00408503  0.66594724  0.00116733  1
  Ni  Ni7  1  0.16542382  0.83151564  0.16613659  1
  Ni  Ni8  1  0.99962273  0.66661157  0.33232579  1
  Ni  Ni9  1  0.33255250  0.99676189  0.00206802  1
  Ni  Ni10  1  0.50087092  0.16578408  0.16854685  1
  Fe  Fe11  1  0.33229444  0.00067068  0.33264180  1
  Cr  Cr12  1  0.33203996  0.33659911  0.99932901  1
  Cr  Cr13  1  0.49832420  0.50104504  0.16989430  1
  Ni  Ni14  1  0.33127266  0.33281348  0.33290678  1
  Ni  Ni15  1  0.33218954  0.66936545  0.99635331  1
  Cr  Cr16  1  0.49730522  0.83359213  0.16523887  1
  Cr  Cr17  1  0.33175014  0.66716483  0.33710297  1
  Fe  Fe18  1  0.66623070  1.00000534  0.00181661  1
  Ni  Ni19  1  0.83447643  0.16768206  0.16618336  1
  Cr  Cr20  1  0.66780671  0.99817280  0.33309247  1
  Cr  Cr21  1  0.66787307  0.33434429  0.00053639  1
  Fe  Fe22  1  0.83487891  0.50067494  0.16858334  1
  Ni  Ni23  1  0.66718816  0.33366404  0.33220507  1
  Fe  Fe24  1  0.66459980  0.66695199  0.99940175  1
  Fe  Fe25  1  0.83485220  0.83148476  0.16553127  1
  Ni  Ni26  1  0.66850544  0.66682862  0.33351971  1
  Ni  Ni27  1  0.16711510  0.16883224  0.49785561  1
  Ni  Ni28  1  1.00005250  0.99668999  0.66581866  1
  Cr  Cr29  1  0.16592860  0.16536076  0.83498240  1
  Ni  Ni30  1  0.16653631  0.50077423  0.50030162  1
  Cr  Cr31  1  0.00477957  0.33434244  0.66737962  1
  Ni  Ni32  1  0.16768295  0.50419598  0.83334963  1
  Fe  Fe33  1  0.16550361  0.83193588  0.50140669  1
  Ni  Ni34  1  0.00156457  0.66959250  0.66631176  1
  Ni  Ni35  1  0.16798480  0.83035296  0.83337479  1
  Cr  Cr36  1  0.49843497  0.16737736  0.49882792  1
  Cr  Cr37  1  0.33078310  0.99720592  0.66540580  1
  Cr  Cr38  1  0.50041130  0.16435490  0.83213111  1
  Fe  Fe39  1  0.49886466  0.50020023  0.50056331  1
  Ni  Ni40  1  0.33388330  0.33704749  0.66663537  1
  Ni  Ni41  1  0.49853485  0.50408809  0.82994244  1
  Ni  Ni42  1  0.50073489  0.83092358  0.50037870  1
  Ni  Ni43  1  0.33437384  0.66568578  0.66778661  1
  Ni  Ni44  1  0.49914781  0.83125271  0.83520813  1
  Cr  Cr45  1  0.83442204  0.16761969  0.50424329  1
  Fe  Fe46  1  0.66525529  0.99481807  0.66537103  1
  Cr  Cr47  1  0.83361509  0.16517145  0.83004811  1
  Cr  Cr48  1  0.83486815  0.50174875  0.49738622  1
  Fe  Fe49  1  0.66424684  0.33800078  0.66635294  1
  Cr  Cr50  1  0.83594263  0.50136126  0.83388233  1
  Fe  Fe51  1  0.83422012  0.83144888  0.50164372  1
  Ni  Ni52  1  0.66444766  0.66841352  0.66620536  1
  Cr  Cr53  1  0.83445286  0.83363033  0.83368492  1
" 