3510,Ni44Fe26Cr28_17,-229.291590147372, 187.390096545866,Ni44Fe26Cr28,"# generated using pymatgen
 data_Cr8Fe7Ni12
_symmetry_space_group_name_H-M   'P 1'
_cell_length_a   7.45987433
_cell_length_b   7.45987433
_cell_length_c   10.54985546
_cell_angle_alpha   90.00000000
_cell_angle_beta   90.00000000
_cell_angle_gamma   90.00000000
_symmetry_Int_Tables_number   1
_chemical_formula_structural   Cr8Fe7Ni12
_chemical_formula_sum   'Cr16 Fe14 Ni24'
_cell_volume   587.09655555
_cell_formula_units_Z   2
loop_
 _symmetry_equiv_pos_site_id
 _symmetry_equiv_pos_as_xyz
  1  'x, y, z'
loop_
 _atom_site_type_symbol
 _atom_site_label
 _atom_site_symmetry_multiplicity
 _atom_site_fract_x
 _atom_site_fract_y
 _atom_site_fract_z
 _atom_site_occupancy
  Ni  Ni0  1  1.00040735  0.00162637  0.99963219  1
  Cr  Cr1  1  0.16668850  0.16691168  0.16822910  1
  Ni  Ni2  1  0.99941668  0.99905528  0.33483226  1
  Fe  Fe3  1  0.00188721  0.33329263  1.00032041  1
  Ni  Ni4  1  0.16753874  0.50199989  0.16548129  1
  Cr  Cr5  1  0.99865489  0.33233709  0.33367969  1
  Cr  Cr6  1  0.00100324  0.66928003  0.00137037  1
  Ni  Ni7  1  0.16756133  0.83236978  0.16767654  1
  Ni  Ni8  1  0.99865779  0.66959299  0.33130552  1
  Ni  Ni9  1  0.33175275  0.00073901  0.99997677  1
  Cr  Cr10  1  0.50187553  0.16661520  0.16612351  1
  Fe  Fe11  1  0.33304349  0.99833632  0.33244981  1
  Ni  Ni12  1  0.33358230  0.33324814  1.00014532  1
  Fe  Fe13  1  0.49911024  0.50254252  0.16790682  1
  Fe  Fe14  1  0.33463304  0.33667350  0.33315540  1
  Ni  Ni15  1  0.33290320  0.66752870  0.00205582  1
  Ni  Ni16  1  0.50046981  0.83343544  0.16735227  1
  Ni  Ni17  1  0.33570345  0.66685145  0.32998130  1
  Fe  Fe18  1  0.66805264  1.00020440  1.00032581  1
  Fe  Fe19  1  0.83395366  0.16515818  0.16742348  1
  Fe  Fe20  1  0.67073497  0.99828265  0.33363284  1
  Fe  Fe21  1  0.66827810  0.33229800  0.00091066  1
  Ni  Ni22  1  0.83357503  0.50006582  0.16809770  1
  Ni  Ni23  1  0.66662232  0.33594427  0.33376865  1
  Cr  Cr24  1  0.66752110  0.66774470  0.00385911  1
  Ni  Ni25  1  0.83342498  0.83390617  0.16953984  1
  Ni  Ni26  1  0.66706486  0.66556026  0.33300842  1
  Ni  Ni27  1  0.16483201  0.16685113  0.49857934  1
  Ni  Ni28  1  0.99800190  0.00173811  0.66711111  1
  Ni  Ni29  1  0.16557099  0.16701123  0.83549789  1
  Cr  Cr30  1  0.16818818  0.50145070  0.49968960  1
  Cr  Cr31  1  0.99887769  0.33041918  0.66761401  1
  Fe  Fe32  1  0.16772829  0.50166922  0.83604271  1
  Cr  Cr33  1  0.16447429  0.83434991  0.49949811  1
  Cr  Cr34  1  0.99990490  0.66980940  0.66879859  1
  Ni  Ni35  1  0.16551746  0.83573007  0.83441613  1
  Cr  Cr36  1  0.50246213  0.16839154  0.50009528  1
  Cr  Cr37  1  0.33072276  0.00104625  0.66863760  1
  Fe  Fe38  1  0.50150769  0.16612095  0.83564010  1
  Fe  Fe39  1  0.50254894  0.50044533  0.49885032  1
  Cr  Cr40  1  0.33433801  0.33295053  0.66606491  1
  Cr  Cr41  1  0.49998595  0.49859767  0.83382090  1
  Cr  Cr42  1  0.50268148  0.83217580  0.50039235  1
  Ni  Ni43  1  0.33354534  0.66649605  0.66915675  1
  Cr  Cr44  1  0.50029276  0.83509868  0.83395691  1
  Ni  Ni45  1  0.83300076  0.16561837  0.50093272  1
  Ni  Ni46  1  0.67167748  0.00311414  0.66819410  1
  Fe  Fe47  1  0.83363874  0.16451232  0.83368923  1
  Fe  Fe48  1  0.83116498  0.50006319  0.49763499  1
  Ni  Ni49  1  0.66875476  0.33200888  0.66728264  1
  Fe  Fe50  1  0.83486571  0.49902068  0.83530301  1
  Ni  Ni51  1  0.83331611  0.83584616  0.49933821  1
  Cr  Cr52  1  0.66855117  0.66641639  0.66487248  1
  Ni  Ni53  1  0.83569505  0.83741034  0.83261182  1
" 