2609,Ni44Fe24Cr30_5,-228.880429725638, 193.294179234133,Ni44Fe24Cr30,"# generated using pymatgen
 data_Cr17Fe13Ni24
_symmetry_space_group_name_H-M   'P 1'
_cell_length_a   7.45835632
_cell_length_b   7.45835632
_cell_length_c   10.54770865
_cell_angle_alpha   90.00000000
_cell_angle_beta   90.00000000
_cell_angle_gamma   90.00000000
_symmetry_Int_Tables_number   1
_chemical_formula_structural   Cr17Fe13Ni24
_chemical_formula_sum   'Cr17 Fe13 Ni24'
_cell_volume   586.73822176
_cell_formula_units_Z   1
loop_
 _symmetry_equiv_pos_site_id
 _symmetry_equiv_pos_as_xyz
  1  'x, y, z'
loop_
 _atom_site_type_symbol
 _atom_site_label
 _atom_site_symmetry_multiplicity
 _atom_site_fract_x
 _atom_site_fract_y
 _atom_site_fract_z
 _atom_site_occupancy
  Cr  Cr0  1  0.00284925  0.99945983  0.99998483  1
  Ni  Ni1  1  0.17026847  0.16909305  0.17005578  1
  Cr  Cr2  1  0.00212484  0.00183871  0.33326529  1
  Cr  Cr3  1  0.00243761  0.33487782  0.99978023  1
  Cr  Cr4  1  0.16754356  0.50114574  0.16926833  1
  Ni  Ni5  1  0.00334508  0.33405681  0.33434517  1
  Ni  Ni6  1  1.00042130  0.66714439  1.00055978  1
  Fe  Fe7  1  0.16717035  0.83319189  0.16764294  1
  Ni  Ni8  1  1.00015053  0.66701064  0.33210875  1
  Cr  Cr9  1  0.33344139  0.00199933  0.00096841  1
  Ni  Ni10  1  0.49838057  0.16944787  0.16719555  1
  Fe  Fe11  1  0.33404040  0.00171907  0.33460865  1
  Fe  Fe12  1  0.33465210  0.33514290  1.00051268  1
  Ni  Ni13  1  0.49921252  0.49979409  0.16761133  1
  Ni  Ni14  1  0.33265742  0.33349322  0.33418333  1
  Fe  Fe15  1  0.33156827  0.66577459  0.99907663  1
  Cr  Cr16  1  0.49999755  0.83351977  0.16785036  1
  Ni  Ni17  1  0.33521765  0.66555401  0.33392246  1
  Fe  Fe18  1  0.66742191  0.00119549  0.99973220  1
  Cr  Cr19  1  0.83288487  0.16815375  0.16540150  1
  Cr  Cr20  1  0.66620870  0.99890821  0.33508450  1
  Fe  Fe21  1  0.66489936  0.33341815  0.99918536  1
  Fe  Fe22  1  0.83290822  0.50185006  0.16827879  1
  Cr  Cr23  1  0.66514859  0.33543805  0.33444626  1
  Cr  Cr24  1  0.66663598  0.66586683  0.00111865  1
  Ni  Ni25  1  0.83436560  0.83075208  0.16863102  1
  Ni  Ni26  1  0.66618661  0.66743558  0.33407533  1
  Ni  Ni27  1  0.16747481  0.16851919  0.49899380  1
  Fe  Fe28  1  0.00344021  0.00178191  0.66743020  1
  Ni  Ni29  1  0.16868910  0.16695233  0.83267234  1
  Ni  Ni30  1  0.16861412  0.50092978  0.49883180  1
  Cr  Cr31  1  0.00113508  0.33308629  0.66790488  1
  Ni  Ni32  1  0.16726213  0.50319021  0.83402871  1
  Cr  Cr33  1  0.17030319  0.83151996  0.50152831  1
  Fe  Fe34  1  0.00336015  0.66580471  0.66825146  1
  Ni  Ni35  1  0.16980060  0.83153952  0.83291594  1
  Fe  Fe36  1  0.49810374  0.16760579  0.50121851  1
  Ni  Ni37  1  0.33326549  0.99985665  0.66749998  1
  Ni  Ni38  1  0.50151896  0.16694419  0.83495549  1
  Fe  Fe39  1  0.49704133  0.50120162  0.49936796  1
  Cr  Cr40  1  0.33389780  0.33476385  0.66752945  1
  Fe  Fe41  1  0.49965017  0.49950715  0.83487087  1
  Ni  Ni42  1  0.49938556  0.83282183  0.49967955  1
  Ni  Ni43  1  0.33424144  0.66842568  0.66969671  1
  Ni  Ni44  1  0.49755584  0.83464304  0.83390297  1
  Ni  Ni45  1  0.83420872  0.16803324  0.50237327  1
  Cr  Cr46  1  0.66580701  0.00135929  0.66642818  1
  Ni  Ni47  1  0.83178183  0.16966791  0.83363483  1
  Cr  Cr48  1  0.83609134  0.50018728  0.49843249  1
  Ni  Ni49  1  0.66737168  0.33383338  0.66935036  1
  Ni  Ni50  1  0.83469728  0.49911929  0.83487761  1
  Fe  Fe51  1  0.83559254  0.83368191  0.49945809  1
  Cr  Cr52  1  0.66439300  0.66486442  0.66510240  1
  Cr  Cr53  1  0.83464157  0.83434101  0.83163309  1
" 