3718,Ni44Fe49Cr5_17,-237.895170709611, 216.131659790887,Ni44Fe49Cr5,"# generated using pymatgen
 data_Cr2Fe13Ni12
_symmetry_space_group_name_H-M   'P 1'
_cell_length_a   7.41535743
_cell_length_b   7.41535743
_cell_length_c   10.48689905
_cell_angle_alpha   90.00000000
_cell_angle_beta   90.00000000
_cell_angle_gamma   90.00000000
_symmetry_Int_Tables_number   1
_chemical_formula_structural   Cr2Fe13Ni12
_chemical_formula_sum   'Cr4 Fe26 Ni24'
_cell_volume   576.64863269
_cell_formula_units_Z   2
loop_
 _symmetry_equiv_pos_site_id
 _symmetry_equiv_pos_as_xyz
  1  'x, y, z'
loop_
 _atom_site_type_symbol
 _atom_site_label
 _atom_site_symmetry_multiplicity
 _atom_site_fract_x
 _atom_site_fract_y
 _atom_site_fract_z
 _atom_site_occupancy
  Fe  Fe0  1  0.00479811  0.00580483  1.00336036  1
  Ni  Ni1  1  0.17097407  0.16939521  0.16995658  1
  Fe  Fe2  1  0.00503151  0.00662335  0.33883610  1
  Ni  Ni3  1  1.00228264  0.33883702  0.00575738  1
  Ni  Ni4  1  0.17212777  0.50288048  0.17074326  1
  Fe  Fe5  1  0.00367607  0.33597343  0.33638470  1
  Fe  Fe6  1  0.00618214  0.66859823  1.00271687  1
  Fe  Fe7  1  0.17226954  0.83730723  0.17131481  1
  Fe  Fe8  1  0.00461067  0.66780476  0.33875379  1
  Ni  Ni9  1  0.33844466  1.00198022  0.00356495  1
  Ni  Ni10  1  0.50225865  0.17090063  0.16928060  1
  Ni  Ni11  1  0.33716118  1.00314055  0.33711045  1
  Ni  Ni12  1  0.33555740  0.33586932  0.00524013  1
  Ni  Ni13  1  0.50251078  0.50390251  0.16967292  1
  Ni  Ni14  1  0.33769517  0.33590937  0.33694128  1
  Fe  Fe15  1  0.33451262  0.66973268  0.00408847  1
  Fe  Fe16  1  0.50165189  0.83753904  0.17001464  1
  Fe  Fe17  1  0.33740606  0.66887294  0.33786722  1
  Fe  Fe18  1  0.66968612  0.00656079  1.00220532  1
  Ni  Ni19  1  0.83746114  0.16958484  0.17046086  1
  Fe  Fe20  1  0.66865956  0.00678290  0.33820853  1
  Fe  Fe21  1  0.67067988  0.33442429  0.00584984  1
  Ni  Ni22  1  0.83586546  0.50400806  0.16931218  1
  Ni  Ni23  1  0.67120320  0.33726496  0.33518415  1
  Fe  Fe24  1  0.66952607  0.66947657  0.00421888  1
  Cr  Cr25  1  0.83711452  0.83844507  0.17181274  1
  Fe  Fe26  1  0.66826031  0.66804858  0.33777668  1
  Ni  Ni27  1  0.17039309  0.16871969  0.50456012  1
  Ni  Ni28  1  1.00078279  1.00274096  0.66962427  1
  Cr  Cr29  1  0.16889623  0.17135472  0.83570410  1
  Fe  Fe30  1  0.16692002  0.50207420  0.50274882  1
  Ni  Ni31  1  1.00158814  0.33773963  0.66829593  1
  Ni  Ni32  1  0.17050626  0.50319758  0.83648532  1
  Ni  Ni33  1  0.16832464  0.83920733  0.50338468  1
  Ni  Ni34  1  1.00295874  0.66950627  0.67076998  1
  Fe  Fe35  1  0.16838970  0.83645117  0.83679052  1
  Fe  Fe36  1  0.50446305  0.17040016  0.50193292  1
  Fe  Fe37  1  0.33582246  0.00415857  0.66860465  1
  Fe  Fe38  1  0.50430013  0.16911398  0.83782811  1
  Ni  Ni39  1  0.50413689  0.50292078  0.50294840  1
  Fe  Fe40  1  0.33559236  0.33529960  0.66784034  1
  Cr  Cr41  1  0.50362122  0.50199295  0.83753960  1
  Fe  Fe42  1  0.50520906  0.83858258  0.50260966  1
  Cr  Cr43  1  0.33503982  0.67116639  0.66777457  1
  Fe  Fe44  1  0.50398912  0.83996617  0.83742422  1
  Ni  Ni45  1  0.83830175  0.16913119  0.50287508  1
  Ni  Ni46  1  0.66964143  0.00440463  0.66989225  1
  Ni  Ni47  1  0.83655077  0.16863001  0.83711375  1
  Ni  Ni48  1  0.83416830  0.50452712  0.50421170  1
  Fe  Fe49  1  0.67282812  0.33518818  0.66814221  1
  Fe  Fe50  1  0.84013014  0.50127427  0.83698428  1
  Ni  Ni51  1  0.83765420  0.83698997  0.50440716  1
  Fe  Fe52  1  0.67297294  0.67127656  0.66914827  1
  Fe  Fe53  1  0.83742018  0.83652618  0.83593411  1
" 