267,Ni44Fe18Cr36_2,-225.109084142339, 172.888011316321,Ni44Fe18Cr36,"# generated using pymatgen
 data_Cr21Fe10Ni23
_symmetry_space_group_name_H-M   'P 1'
_cell_length_a   7.48261349
_cell_length_b   7.48261349
_cell_length_c   10.58201347
_cell_angle_alpha   90.00000000
_cell_angle_beta   90.00000000
_cell_angle_gamma   90.00000000
_symmetry_Int_Tables_number   1
_chemical_formula_structural   Cr21Fe10Ni23
_chemical_formula_sum   'Cr21 Fe10 Ni23'
_cell_volume   592.48169202
_cell_formula_units_Z   1
loop_
 _symmetry_equiv_pos_site_id
 _symmetry_equiv_pos_as_xyz
  1  'x, y, z'
loop_
 _atom_site_type_symbol
 _atom_site_label
 _atom_site_symmetry_multiplicity
 _atom_site_fract_x
 _atom_site_fract_y
 _atom_site_fract_z
 _atom_site_occupancy
  Fe  Fe0  1  0.99593408  0.99698456  0.00063314  1
  Cr  Cr1  1  0.16629438  0.16546644  0.16758721  1
  Ni  Ni2  1  0.99753673  -0.00063300  0.33182596  1
  Cr  Cr3  1  0.99789497  0.32950031  0.99759024  1
  Cr  Cr4  1  0.16500728  0.49843888  0.16531894  1
  Ni  Ni5  1  0.99857962  0.33002875  0.33576913  1
  Ni  Ni6  1  0.00174915  0.66823246  0.00056252  1
  Fe  Fe7  1  0.16298496  0.83196646  0.16590038  1
  Ni  Ni8  1  0.00129359  0.66738916  0.33294926  1
  Fe  Fe9  1  0.33163157  0.99613802  -0.00099301  1
  Cr  Cr10  1  0.49640005  0.16417145  0.16584886  1
  Fe  Fe11  1  0.32943220  0.99802843  0.33516913  1
  Fe  Fe12  1  0.33231153  0.33543681  0.99691253  1
  Cr  Cr13  1  0.49758184  0.49943630  0.16563667  1
  Fe  Fe14  1  0.32874539  0.33176518  0.33534202  1
  Ni  Ni15  1  0.33130023  0.66591988  0.99635835  1
  Cr  Cr16  1  0.50106705  0.83304673  0.16613540  1
  Cr  Cr17  1  0.33164375  0.66726358  0.33692747  1
  Ni  Ni18  1  0.66790339  -0.00087250  -0.00067619  1
  Ni  Ni19  1  0.83334983  0.16100864  0.16650177  1
  Ni  Ni20  1  0.66750311  -0.00086399  0.33272020  1
  Cr  Cr21  1  0.66675154  0.32984906  0.99748613  1
  Cr  Cr22  1  0.83450209  0.50367443  0.16797406  1
  Cr  Cr23  1  0.66784575  0.33045778  0.33342983  1
  Ni  Ni24  1  0.66402949  0.66822951  0.00050860  1
  Ni  Ni25  1  0.83327880  0.83373470  0.16540061  1
  Fe  Fe26  1  0.66882800  0.66843906  0.33390733  1
  Ni  Ni27  1  0.16334812  0.16534132  0.49802927  1
  Ni  Ni28  1  -0.00009969  0.00367592  0.66420317  1
  Cr  Cr29  1  0.16464252  0.16510213  0.83113904  1
  Ni  Ni30  1  0.16306925  0.49764445  0.49886922  1
  Ni  Ni31  1  0.99739447  0.32937719  0.66338431  1
  Ni  Ni32  1  0.16785104  0.49915615  0.83315654  1
  Ni  Ni33  1  0.16654171  0.83413267  0.49912005  1
  Cr  Cr34  1  0.00480313  0.66421503  0.66395153  1
  Cr  Cr35  1  0.16536931  0.83194196  0.83199370  1
  Cr  Cr36  1  0.49796573  0.16234954  0.49861820  1
  Ni  Ni37  1  0.33053608  0.99649242  0.66217233  1
  Cr  Cr38  1  0.49908413  0.16355193  0.83196944  1
  Fe  Fe39  1  0.49848803  0.49929204  0.49918505  1
  Cr  Cr40  1  0.33043117  0.33610551  0.66531629  1
  Ni  Ni41  1  0.49656823  0.50050657  0.83346297  1
  Ni  Ni42  1  0.49770632  0.83317973  0.49930899  1
  Ni  Ni43  1  0.33293157  0.66642328  0.66456684  1
  Cr  Cr44  1  0.49926296  0.83249193  0.83092352  1
  Ni  Ni45  1  0.83458242  0.16655263  0.50026483  1
  Fe  Fe46  1  0.66681990  0.00077072  0.66410283  1
  Ni  Ni47  1  0.83216138  0.16372248  0.82921850  1
  Ni  Ni48  1  0.83521920  0.49723888  0.49732654  1
  Fe  Fe49  1  0.66750717  0.33116297  0.66484918  1
  Cr  Cr50  1  0.83402950  0.50050509  0.83146028  1
  Cr  Cr51  1  0.83312924  0.83322978  0.49826543  1
  Cr  Cr52  1  0.66114327  0.66360570  0.66295202  1
  Cr  Cr53  1  0.83196612  0.83382749  0.83329604  1
" 