8537,Ni44Fe26Cr28_2,-228.995776095878, 187.953231431783,Ni44Fe26Cr28,"# generated using pymatgen
 data_Cr8Fe7Ni12
_symmetry_space_group_name_H-M   'P 1'
_cell_length_a   7.45687404
_cell_length_b   7.45687404
_cell_length_c   10.54561241
_cell_angle_alpha   90.00000000
_cell_angle_beta   90.00000000
_cell_angle_gamma   90.00000000
_symmetry_Int_Tables_number   1
_chemical_formula_structural   Cr8Fe7Ni12
_chemical_formula_sum   'Cr16 Fe14 Ni24'
_cell_volume   586.38846671
_cell_formula_units_Z   2
loop_
 _symmetry_equiv_pos_site_id
 _symmetry_equiv_pos_as_xyz
  1  'x, y, z'
loop_
 _atom_site_type_symbol
 _atom_site_label
 _atom_site_symmetry_multiplicity
 _atom_site_fract_x
 _atom_site_fract_y
 _atom_site_fract_z
 _atom_site_occupancy
  Cr  Cr0  1  0.00238850  0.00350220  0.99965683  1
  Fe  Fe1  1  0.16624432  0.17159965  0.16796785  1
  Ni  Ni2  1  0.00151622  0.00237900  0.33572741  1
  Ni  Ni3  1  0.99913415  0.33326842  0.00240479  1
  Ni  Ni4  1  0.16916618  0.49861641  0.16708245  1
  Fe  Fe5  1  0.00358186  0.33101154  0.33243080  1
  Cr  Cr6  1  0.00431140  0.66366392  0.99852383  1
  Fe  Fe7  1  0.16813742  0.83222011  0.16599680  1
  Cr  Cr8  1  0.00290271  0.66737515  0.33380123  1
  Ni  Ni9  1  0.33465291  0.99953872  0.00404035  1
  Fe  Fe10  1  0.50128137  0.17190210  0.16623129  1
  Cr  Cr11  1  0.33175802  0.00123833  0.33067468  1
  Cr  Cr12  1  0.33366628  0.33567220  0.99743772  1
  Ni  Ni13  1  0.49915924  0.50125256  0.16960964  1
  Ni  Ni14  1  0.33497871  0.33677570  0.33590173  1
  Ni  Ni15  1  0.33546064  0.66722960  0.00228591  1
  Fe  Fe16  1  0.49995194  0.83192206  0.16502248  1
  Fe  Fe17  1  0.33390123  0.66523767  0.33334960  1
  Ni  Ni18  1  0.66573851  0.00386875  0.00170619  1
  Ni  Ni19  1  0.83528386  0.16948466  0.16765898  1
  Cr  Cr20  1  0.66854898  0.00320360  0.33328004  1
  Ni  Ni21  1  0.66766923  0.33435759  0.00312129  1
  Ni  Ni22  1  0.83349633  0.49716151  0.16736438  1
  Fe  Fe23  1  0.66753596  0.33411335  0.33260885  1
  Ni  Ni24  1  0.66369531  0.66393056  0.00259856  1
  Cr  Cr25  1  0.83288086  0.83366510  0.16494959  1
  Fe  Fe26  1  0.66450557  0.66564313  0.33160260  1
  Ni  Ni27  1  0.16670057  0.16882152  0.49943528  1
  Ni  Ni28  1  0.00360627  0.00147791  0.66582416  1
  Ni  Ni29  1  0.16719775  0.16549414  0.83401763  1
  Ni  Ni30  1  0.16992119  0.49975306  0.50090513  1
  Cr  Cr31  1  0.99964259  0.33317969  0.66874746  1
  Fe  Fe32  1  0.16982317  0.50145058  0.83284356  1
  Fe  Fe33  1  0.16690229  0.83535207  0.50287218  1
  Ni  Ni34  1  0.00537200  0.66824279  0.66781627  1
  Ni  Ni35  1  0.17049074  0.83505434  0.83217874  1
  Cr  Cr36  1  0.49804940  0.16834585  0.50392530  1
  Ni  Ni37  1  0.33002460  0.99951575  0.66733262  1
  Cr  Cr38  1  0.49988729  0.16790785  0.83317224  1
  Fe  Fe39  1  0.49908561  0.49895673  0.50130732  1
  Fe  Fe40  1  0.33121455  0.33525866  0.66741687  1
  Ni  Ni41  1  0.49917134  0.50174846  0.83138093  1
  Cr  Cr42  1  0.49927552  0.83134028  0.50221176  1
  Ni  Ni43  1  0.33244854  0.66605038  0.66598080  1
  Cr  Cr44  1  0.49870146  0.83308394  0.83641845  1
  Ni  Ni45  1  0.83652222  0.16744636  0.50065561  1
  Fe  Fe46  1  0.66897330  0.00361446  0.66825982  1
  Ni  Ni47  1  0.83465568  0.16800580  0.83421956  1
  Cr  Cr48  1  0.83464381  0.49980364  0.49777392  1
  Ni  Ni49  1  0.66609696  0.33443054  0.66631489  1
  Cr  Cr50  1  0.83183527  0.49905257  0.83770854  1
  Cr  Cr51  1  0.83452426  0.83442244  0.50475694  1
  Fe  Fe52  1  0.66628306  0.66424162  0.66856857  1
  Cr  Cr53  1  0.83423952  0.83495165  0.83175625  1
" 