1089,Ni44Fe56_14,-241.671546902717, 222.579519792497,Ni44Fe56,"# generated using pymatgen
 data_Fe23Ni31
_symmetry_space_group_name_H-M   'P 1'
_cell_length_a   7.39946349
_cell_length_b   7.39946349
_cell_length_c   10.46442163
_cell_angle_alpha   90.00000000
_cell_angle_beta   90.00000000
_cell_angle_gamma   90.00000000
_symmetry_Int_Tables_number   1
_chemical_formula_structural   Fe23Ni31
_chemical_formula_sum   'Fe23 Ni31'
_cell_volume   572.94864059
_cell_formula_units_Z   1
loop_
 _symmetry_equiv_pos_site_id
 _symmetry_equiv_pos_as_xyz
  1  'x, y, z'
loop_
 _atom_site_type_symbol
 _atom_site_label
 _atom_site_symmetry_multiplicity
 _atom_site_fract_x
 _atom_site_fract_y
 _atom_site_fract_z
 _atom_site_occupancy
  Ni  Ni0  1  0.00611792  1.00447960  0.00485782  1
  Fe  Fe1  1  0.17061761  0.17200030  0.17087113  1
  Fe  Fe2  1  1.00394736  1.00394421  0.33826645  1
  Ni  Ni3  1  1.00411400  0.33825684  1.00358492  1
  Ni  Ni4  1  0.17115104  0.50432413  0.17104756  1
  Ni  Ni5  1  1.00393152  0.33897375  0.33844234  1
  Ni  Ni6  1  1.00412442  0.67096542  0.00465293  1
  Fe  Fe7  1  0.17088972  0.83740485  0.17108191  1
  Ni  Ni8  1  0.00474656  0.67014623  0.33772937  1
  Ni  Ni9  1  0.33755250  0.00483557  1.00338648  1
  Ni  Ni10  1  0.50480785  0.17182811  0.17079007  1
  Ni  Ni11  1  0.33878692  1.00412910  0.33925074  1
  Fe  Fe12  1  0.33741699  0.33795452  1.00420364  1
  Ni  Ni13  1  0.50472044  0.50386594  0.17125124  1
  Fe  Fe14  1  0.33838161  0.33837934  0.33811027  1
  Fe  Fe15  1  0.33749320  0.67118241  0.00482044  1
  Fe  Fe16  1  0.50539291  0.83749584  0.17165430  1
  Ni  Ni17  1  0.33760974  0.67213993  0.33808411  1
  Fe  Fe18  1  0.67219656  1.00456552  0.00483820  1
  Ni  Ni19  1  0.83737108  0.17138769  0.17140222  1
  Ni  Ni20  1  0.66980418  0.00493894  0.33716980  1
  Ni  Ni21  1  0.67121356  0.33871541  1.00429402  1
  Ni  Ni22  1  0.83782794  0.50467379  0.17094550  1
  Ni  Ni23  1  0.67179776  0.33779569  0.33844100  1
  Ni  Ni24  1  0.67156857  0.67014180  0.00465068  1
  Ni  Ni25  1  0.83783056  0.83763772  0.17094662  1
  Ni  Ni26  1  0.67134292  0.67096219  0.33844181  1
  Ni  Ni27  1  0.17161302  0.17090386  0.50427657  1
  Ni  Ni28  1  1.00446908  1.00338586  0.67075844  1
  Ni  Ni29  1  0.17102446  0.17089594  0.83862650  1
  Fe  Fe30  1  0.17059380  0.50574524  0.50402870  1
  Fe  Fe31  1  0.00480054  0.33712833  0.67102085  1
  Fe  Fe32  1  0.17144103  0.50505152  0.83822723  1
  Ni  Ni33  1  0.17160543  0.83907175  0.50498658  1
  Ni  Ni34  1  0.00492759  0.67195342  0.67131690  1
  Ni  Ni35  1  0.17184014  0.83897360  0.83756523  1
  Fe  Fe36  1  0.50483848  0.17011503  0.50402904  1
  Fe  Fe37  1  0.33699267  1.00424085  0.67138678  1
  Fe  Fe38  1  0.50358354  0.17040432  0.83823070  1
  Fe  Fe39  1  0.50443292  0.50539668  0.50396682  1
  Ni  Ni40  1  0.33817843  0.33764700  0.67106094  1
  Fe  Fe41  1  0.50373970  0.50470310  0.83844022  1
  Ni  Ni42  1  0.50466260  0.83790235  0.50427804  1
  Fe  Fe43  1  0.33762773  0.67247063  0.67090356  1
  Ni  Ni44  1  0.50423834  0.83778845  0.83827854  1
  Fe  Fe45  1  0.83803699  0.17005098  0.50410189  1
  Ni  Ni46  1  0.67105081  1.00455446  0.67187726  1
  Fe  Fe47  1  0.83846427  0.17005591  0.83851906  1
  Ni  Ni48  1  0.83743659  0.50490633  0.50397519  1
  Fe  Fe49  1  0.67191133  0.33776537  0.67117406  1
  Fe  Fe50  1  0.83851927  0.50526322  0.83845740  1
  Ni  Ni51  1  0.83743044  0.83672455  0.50519177  1
  Fe  Fe52  1  0.67158254  0.67200546  0.67096299  1
  Fe  Fe53  1  0.83881139  0.83837953  0.83775175  1
" 