696,Ni44Fe40Cr15_1,-234.015395249698, 208.360632728372,Ni44Fe40Cr15,"# generated using pymatgen
 data_Cr9Fe22Ni23
_symmetry_space_group_name_H-M   'P 1'
_cell_length_a   7.42217897
_cell_length_b   7.42217897
_cell_length_c   10.49654617
_cell_angle_alpha   90.00000000
_cell_angle_beta   90.00000000
_cell_angle_gamma   90.00000000
_symmetry_Int_Tables_number   1
_chemical_formula_structural   Cr9Fe22Ni23
_chemical_formula_sum   'Cr9 Fe22 Ni23'
_cell_volume   578.24151037
_cell_formula_units_Z   1
loop_
 _symmetry_equiv_pos_site_id
 _symmetry_equiv_pos_as_xyz
  1  'x, y, z'
loop_
 _atom_site_type_symbol
 _atom_site_label
 _atom_site_symmetry_multiplicity
 _atom_site_fract_x
 _atom_site_fract_y
 _atom_site_fract_z
 _atom_site_occupancy
  Ni  Ni0  1  0.00567905  0.00426286  0.00310934  1
  Ni  Ni1  1  0.16728497  0.16974919  0.16925273  1
  Fe  Fe2  1  0.00440537  1.00258716  0.33653799  1
  Ni  Ni3  1  0.00536527  0.33542782  0.00542492  1
  Ni  Ni4  1  0.16935940  0.50149799  0.16942436  1
  Fe  Fe5  1  0.00512457  0.33636609  0.33553554  1
  Cr  Cr6  1  1.00264179  0.66915041  1.00186387  1
  Ni  Ni7  1  0.17025688  0.83764425  0.17021739  1
  Ni  Ni8  1  0.00310549  0.66852209  0.33741716  1
  Fe  Fe9  1  0.33427344  1.00227584  1.00148431  1
  Cr  Cr10  1  0.50222865  0.16819740  0.16911196  1
  Fe  Fe11  1  0.33393882  0.00441327  0.33681937  1
  Ni  Ni12  1  0.33530666  0.33477382  1.00213707  1
  Cr  Cr13  1  0.50206249  0.50547104  0.16709113  1
  Fe  Fe14  1  0.33286447  0.33512275  0.33737565  1
  Fe  Fe15  1  0.33470142  0.67044185  1.00242010  1
  Ni  Ni16  1  0.50184821  0.83644202  0.16784060  1
  Cr  Cr17  1  0.33361469  0.67002246  0.33491655  1
  Fe  Fe18  1  0.66960045  0.00329708  1.00195105  1
  Ni  Ni19  1  0.83973903  0.16965391  0.16812062  1
  Ni  Ni20  1  0.66860567  0.00320057  0.33592969  1
  Fe  Fe21  1  0.67162786  0.33740347  1.00120642  1
  Fe  Fe22  1  0.83890755  0.50190235  0.16898858  1
  Cr  Cr23  1  0.67033990  0.33604382  0.33738713  1
  Ni  Ni24  1  0.66803026  0.67029664  0.00328246  1
  Cr  Cr25  1  0.83544203  0.83826913  0.17096348  1
  Fe  Fe26  1  0.67190641  0.67021103  0.33765521  1
  Ni  Ni27  1  0.16991820  0.17065146  0.50356118  1
  Ni  Ni28  1  0.00550010  1.00140332  0.66981684  1
  Fe  Fe29  1  0.17109487  0.17157424  0.83594226  1
  Fe  Fe30  1  0.16799185  0.50263544  0.50332439  1
  Ni  Ni31  1  0.00569127  0.33862923  0.66980501  1
  Fe  Fe32  1  0.16977422  0.50010446  0.83644369  1
  Fe  Fe33  1  0.16719566  0.83749121  0.50402207  1
  Ni  Ni34  1  1.00266355  0.66911012  0.66993522  1
  Fe  Fe35  1  0.17011619  0.83751187  0.83514417  1
  Fe  Fe36  1  0.50132455  0.16932979  0.50472739  1
  Ni  Ni37  1  0.33607688  0.00505475  0.66970652  1
  Ni  Ni38  1  0.50183858  0.17082288  0.83459245  1
  Ni  Ni39  1  0.50112304  0.50241478  0.50587745  1
  Fe  Fe40  1  0.33623333  0.33623213  0.67026303  1
  Ni  Ni41  1  0.50232370  0.50437325  0.83628586  1
  Cr  Cr42  1  0.50490484  0.83495716  0.50285732  1
  Fe  Fe43  1  0.33500040  0.67033502  0.67060377  1
  Fe  Fe44  1  0.50463202  0.83588322  0.83609665  1
  Cr  Cr45  1  0.83933429  0.16600328  0.50612529  1
  Ni  Ni46  1  0.66743756  1.00185943  0.67078603  1
  Cr  Cr47  1  0.83952356  0.16907115  0.83597090  1
  Fe  Fe48  1  0.83765075  0.50504062  0.50507868  1
  Fe  Fe49  1  0.66933360  0.33743057  0.67019094  1
  Ni  Ni50  1  0.83541394  0.50338115  0.83540341  1
  Ni  Ni51  1  0.83814099  0.83578938  0.50426054  1
  Ni  Ni52  1  0.67058741  0.66874169  0.66867781  1
  Fe  Fe53  1  0.83413457  0.83474275  0.83425712  1
" 