6708,Ni44Fe49Cr5_18,-237.645804414302, 215.47970290919,Ni44Fe49Cr5,"# generated using pymatgen
 data_Cr2Fe13Ni12
_symmetry_space_group_name_H-M   'P 1'
_cell_length_a   7.40978482
_cell_length_b   7.40978482
_cell_length_c   10.47901819
_cell_angle_alpha   90.00000000
_cell_angle_beta   90.00000000
_cell_angle_gamma   90.00000000
_symmetry_Int_Tables_number   1
_chemical_formula_structural   Cr2Fe13Ni12
_chemical_formula_sum   'Cr4 Fe26 Ni24'
_cell_volume   575.34956170
_cell_formula_units_Z   2
loop_
 _symmetry_equiv_pos_site_id
 _symmetry_equiv_pos_as_xyz
  1  'x, y, z'
loop_
 _atom_site_type_symbol
 _atom_site_label
 _atom_site_symmetry_multiplicity
 _atom_site_fract_x
 _atom_site_fract_y
 _atom_site_fract_z
 _atom_site_occupancy
  Ni  Ni0  1  0.00467115  1.00285197  1.00361828  1
  Fe  Fe1  1  0.17116403  0.17073050  0.17049678  1
  Fe  Fe2  1  1.00213864  0.00497648  0.33545610  1
  Fe  Fe3  1  1.00304706  0.33721054  0.00395882  1
  Fe  Fe4  1  0.17122686  0.50328196  0.17098555  1
  Ni  Ni5  1  1.00340996  0.33865241  0.33656584  1
  Fe  Fe6  1  1.00298194  0.66998358  1.00302105  1
  Fe  Fe7  1  0.17097492  0.83757954  0.17037873  1
  Fe  Fe8  1  1.00274052  0.66930497  0.33709113  1
  Fe  Fe9  1  0.33782498  0.00402118  1.00365150  1
  Ni  Ni10  1  0.50288324  0.16996483  0.17103407  1
  Ni  Ni11  1  0.33819171  0.00471382  0.33416713  1
  Ni  Ni12  1  0.33777275  0.33675704  1.00356046  1
  Fe  Fe13  1  0.50445967  0.50330452  0.17066043  1
  Ni  Ni14  1  0.33804344  0.33723312  0.33759249  1
  Fe  Fe15  1  0.33793729  0.67074154  1.00368892  1
  Ni  Ni16  1  0.50320910  0.83797799  0.17134932  1
  Fe  Fe17  1  0.33794812  0.66856077  0.33572624  1
  Fe  Fe18  1  0.67029786  0.00395532  0.00420429  1
  Fe  Fe19  1  0.83617634  0.17073321  0.17037337  1
  Ni  Ni20  1  0.67048528  0.00416067  0.33739160  1
  Ni  Ni21  1  0.66979839  0.33872132  1.00383222  1
  Ni  Ni22  1  0.83762085  0.50342849  0.17083775  1
  Ni  Ni23  1  0.67013732  0.33727836  0.33785129  1
  Ni  Ni24  1  0.67115692  0.66997184  1.00379625  1
  Fe  Fe25  1  0.83615691  0.83736365  0.17049242  1
  Fe  Fe26  1  0.67090502  0.66946696  0.33612358  1
  Cr  Cr27  1  0.17141361  0.17168627  0.50324334  1
  Fe  Fe28  1  1.00198267  1.00340844  0.67324554  1
  Ni  Ni29  1  0.17026849  0.17022791  0.83761602  1
  Fe  Fe30  1  0.17093053  0.50399299  0.50354815  1
  Fe  Fe31  1  1.00282478  0.33796542  0.67144749  1
  Fe  Fe32  1  0.16964962  0.50439858  0.83706223  1
  Cr  Cr33  1  0.16926970  0.83672469  0.50394914  1
  Ni  Ni34  1  0.00435602  0.67074695  0.67147445  1
  Ni  Ni35  1  0.17123823  0.83785583  0.83676982  1
  Ni  Ni36  1  0.50499378  0.17321932  0.50406240  1
  Ni  Ni37  1  0.33699757  0.00480005  0.67345527  1
  Fe  Fe38  1  0.50426893  0.17012753  0.83700020  1
  Ni  Ni39  1  0.50391029  0.50068610  0.50191608  1
  Fe  Fe40  1  0.33826106  0.33802435  0.67090195  1
  Fe  Fe41  1  0.50397892  0.50313459  0.83790856  1
  Cr  Cr42  1  0.50456421  0.83828945  0.50282967  1
  Fe  Fe43  1  0.33585953  0.66919275  0.67216896  1
  Ni  Ni44  1  0.50242625  0.83763185  0.83763603  1
  Fe  Fe45  1  0.83430651  0.17060620  0.50384876  1
  Fe  Fe46  1  0.67153481  0.00581661  0.67081156  1
  Ni  Ni47  1  0.83809425  0.17187096  0.83699546  1
  Fe  Fe48  1  0.83733592  0.50289921  0.50310522  1
  Ni  Ni49  1  0.67018457  0.33610791  0.66990377  1
  Ni  Ni50  1  0.83787336  0.50270433  0.83790180  1
  Ni  Ni51  1  0.83815043  0.83701535  0.50272380  1
  Cr  Cr52  1  0.67269448  0.66957578  0.67092250  1
  Ni  Ni53  1  0.83792711  0.83701987  0.83830213  1
" 