5840,Ni44Fe56_1,-241.809525014308, 223.028479782392,Ni44Fe56,"# generated using pymatgen
 data_Fe23Ni31
_symmetry_space_group_name_H-M   'P 1'
_cell_length_a   7.40123595
_cell_length_b   7.40123595
_cell_length_c   10.46692826
_cell_angle_alpha   90.00000000
_cell_angle_beta   90.00000000
_cell_angle_gamma   90.00000000
_symmetry_Int_Tables_number   1
_chemical_formula_structural   Fe23Ni31
_chemical_formula_sum   'Fe23 Ni31'
_cell_volume   573.36046892
_cell_formula_units_Z   1
loop_
 _symmetry_equiv_pos_site_id
 _symmetry_equiv_pos_as_xyz
  1  'x, y, z'
loop_
 _atom_site_type_symbol
 _atom_site_label
 _atom_site_symmetry_multiplicity
 _atom_site_fract_x
 _atom_site_fract_y
 _atom_site_fract_z
 _atom_site_occupancy
  Ni  Ni0  1  0.00488444  0.00461504  1.00417179  1
  Ni  Ni1  1  0.17062793  0.17093082  0.17075348  1
  Fe  Fe2  1  1.00367590  1.00417532  0.33743579  1
  Fe  Fe3  1  0.00494754  0.33624329  1.00437035  1
  Fe  Fe4  1  0.17159506  0.50396556  0.17138547  1
  Ni  Ni5  1  1.00402147  0.33828592  0.33724131  1
  Ni  Ni6  1  0.00488740  0.67054062  1.00417246  1
  Fe  Fe7  1  0.17203066  0.83839780  0.17074711  1
  Ni  Ni8  1  0.00518926  0.66951920  0.33840258  1
  Ni  Ni9  1  0.33850564  0.00507910  0.00483019  1
  Ni  Ni10  1  0.50471569  0.17128693  0.17065000  1
  Fe  Fe11  1  0.33812758  0.00452248  0.33777607  1
  Fe  Fe12  1  0.33716163  0.33666189  0.00458369  1
  Ni  Ni13  1  0.50506397  0.50492255  0.17110178  1
  Fe  Fe14  1  0.33854833  0.33854867  0.33783822  1
  Fe  Fe15  1  0.33742654  0.67235297  0.00452091  1
  Ni  Ni16  1  0.50542081  0.83713271  0.17110632  1
  Ni  Ni17  1  0.33759075  0.67140093  0.33794338  1
  Ni  Ni18  1  0.66994651  0.00543662  1.00416885  1
  Ni  Ni19  1  0.83799325  0.17057096  0.17110516  1
  Ni  Ni20  1  0.66984550  0.00552896  0.33779613  1
  Fe  Fe21  1  0.67123187  0.33666401  0.00556372  1
  Fe  Fe22  1  0.83708810  0.50352846  0.17215533  1
  Ni  Ni23  1  0.67172955  0.33676949  0.33794534  1
  Fe  Fe24  1  0.67132956  0.67271512  0.00450661  1
  Fe  Fe25  1  0.83672617  0.83876073  0.17088484  1
  Ni  Ni26  1  0.67055776  0.67104097  0.33749214  1
  Ni  Ni27  1  0.17192668  0.17101577  0.50462250  1
  Fe  Fe28  1  0.00529865  1.00305442  0.67174585  1
  Ni  Ni29  1  0.17132182  0.17103224  0.83796292  1
  Ni  Ni30  1  0.17111161  0.50462099  0.50451688  1
  Ni  Ni31  1  1.00442813  0.33847361  0.67157134  1
  Ni  Ni32  1  0.17131546  0.50442474  0.83761804  1
  Ni  Ni33  1  0.16959395  0.83770004  0.50487190  1
  Ni  Ni34  1  0.00477854  0.66941683  0.67076549  1
  Ni  Ni35  1  0.16978507  0.83787850  0.83807128  1
  Ni  Ni36  1  0.50400365  0.17217811  0.50376873  1
  Ni  Ni37  1  0.33822921  1.00428538  0.67126635  1
  Fe  Fe38  1  0.50340151  0.16991930  0.83799054  1
  Ni  Ni39  1  0.50517241  0.50381563  0.50446781  1
  Fe  Fe40  1  0.33707387  0.33866573  0.67091336  1
  Fe  Fe41  1  0.50361719  0.50535174  0.83743251  1
  Fe  Fe42  1  0.50388744  0.83702341  0.50404092  1
  Ni  Ni43  1  0.33751190  0.67211218  0.67157431  1
  Fe  Fe44  1  0.50326965  0.83807073  0.83812480  1
  Fe  Fe45  1  0.83819062  0.17217146  0.50346584  1
  Fe  Fe46  1  0.67138412  1.00332541  0.67104880  1
  Fe  Fe47  1  0.83930375  0.17062202  0.83869920  1
  Ni  Ni48  1  0.83705430  0.50614294  0.50451850  1
  Fe  Fe49  1  0.67062168  0.33897073  0.67014511  1
  Fe  Fe50  1  0.83966719  0.50522413  0.83687473  1
  Ni  Ni51  1  0.83821405  0.83653063  0.50406191  1
  Ni  Ni52  1  0.67104401  0.67094309  0.67087128  1
  Ni  Ni53  1  0.83800817  0.83751665  0.83842364  1
" 