7878,Ni44Fe49Cr5_16,-237.809075294125, 215.168444572374,Ni44Fe49Cr5,"# generated using pymatgen
 data_Cr2Fe13Ni12
_symmetry_space_group_name_H-M   'P 1'
_cell_length_a   7.41205015
_cell_length_b   7.41205015
_cell_length_c   10.48222185
_cell_angle_alpha   90.00000000
_cell_angle_beta   90.00000000
_cell_angle_gamma   90.00000000
_symmetry_Int_Tables_number   1
_chemical_formula_structural   Cr2Fe13Ni12
_chemical_formula_sum   'Cr4 Fe26 Ni24'
_cell_volume   575.87741412
_cell_formula_units_Z   2
loop_
 _symmetry_equiv_pos_site_id
 _symmetry_equiv_pos_as_xyz
  1  'x, y, z'
loop_
 _atom_site_type_symbol
 _atom_site_label
 _atom_site_symmetry_multiplicity
 _atom_site_fract_x
 _atom_site_fract_y
 _atom_site_fract_z
 _atom_site_occupancy
  Fe  Fe0  1  1.00301433  0.00372110  1.00325378  1
  Fe  Fe1  1  0.17037597  0.16802544  0.17001245  1
  Fe  Fe2  1  1.00206233  1.00361365  0.33752480  1
  Ni  Ni3  1  0.00386594  0.33640951  1.00275539  1
  Cr  Cr4  1  0.17129773  0.50473358  0.17073598  1
  Fe  Fe5  1  1.00235769  0.33487497  0.33671924  1
  Ni  Ni6  1  1.00360857  0.67068310  1.00311624  1
  Ni  Ni7  1  0.17019237  0.83719630  0.17008947  1
  Ni  Ni8  1  0.00475158  0.67227430  0.33607802  1
  Fe  Fe9  1  0.33596035  1.00322171  1.00361470  1
  Fe  Fe10  1  0.50446185  0.16947454  0.17143495  1
  Fe  Fe11  1  0.33766093  1.00344638  0.33743085  1
  Fe  Fe12  1  0.33703444  0.33758275  1.00184441  1
  Ni  Ni13  1  0.50278473  0.50270341  0.17128290  1
  Fe  Fe14  1  0.33876808  0.33644989  0.33871279  1
  Fe  Fe15  1  0.33571666  0.67032800  1.00343605  1
  Ni  Ni16  1  0.50254844  0.83752978  0.17058283  1
  Fe  Fe17  1  0.33708032  0.67123842  0.33682919  1
  Fe  Fe18  1  0.67215265  0.00504035  0.00457604  1
  Ni  Ni19  1  0.83631567  0.16939058  0.17140213  1
  Ni  Ni20  1  0.66988107  0.00562167  0.33719164  1
  Fe  Fe21  1  0.67131244  0.33599178  0.00437498  1
  Fe  Fe22  1  0.83713342  0.50306617  0.17063816  1
  Ni  Ni23  1  0.66867855  0.33442520  0.33508058  1
  Cr  Cr24  1  0.67196963  0.67022319  0.00560910  1
  Ni  Ni25  1  0.83838558  0.83984313  0.17107941  1
  Cr  Cr26  1  0.67126070  0.67135010  0.33493902  1
  Ni  Ni27  1  0.17096804  0.17077681  0.50325742  1
  Ni  Ni28  1  0.00452613  1.00338276  0.67025436  1
  Ni  Ni29  1  0.16969208  0.17164147  0.83739788  1
  Fe  Fe30  1  0.17112705  0.50303050  0.50406026  1
  Fe  Fe31  1  0.00540424  0.33542176  0.67194520  1
  Ni  Ni32  1  0.17199493  0.50346026  0.83631208  1
  Fe  Fe33  1  0.16927133  0.83820599  0.50350216  1
  Ni  Ni34  1  1.00261858  0.67181611  0.67193682  1
  Fe  Fe35  1  0.16953750  0.83700026  0.83718820  1
  Ni  Ni36  1  0.50338705  0.17054564  0.50369944  1
  Ni  Ni37  1  0.33642221  0.00599634  0.67036046  1
  Fe  Fe38  1  0.50314781  0.17082788  0.83613691  1
  Fe  Fe39  1  0.50207483  0.50155512  0.50470561  1
  Ni  Ni40  1  0.33723574  0.33537168  0.67034707  1
  Ni  Ni41  1  0.50119699  0.50342848  0.83559821  1
  Fe  Fe42  1  0.50373011  0.83948282  0.50425858  1
  Fe  Fe43  1  0.33681898  0.67024352  0.67086454  1
  Fe  Fe44  1  0.50289674  0.83793366  0.83634429  1
  Ni  Ni45  1  0.83677375  0.16778531  0.50400275  1
  Fe  Fe46  1  0.67114858  1.00322385  0.66964127  1
  Ni  Ni47  1  0.83765921  0.16904877  0.83572201  1
  Cr  Cr48  1  0.83778759  0.50348543  0.50474312  1
  Fe  Fe49  1  0.66939899  0.33595780  0.67062706  1
  Fe  Fe50  1  0.83879247  0.50295737  0.83614452  1
  Ni  Ni51  1  0.83766505  0.83967944  0.50417519  1
  Ni  Ni52  1  0.67074564  0.67100426  0.67089348  1
  Ni  Ni53  1  0.83768654  0.83861783  0.83587618  1
" 