6376,Ni44Fe24Cr30_11,-229.087798110361, 183.008128140417,Ni44Fe24Cr30,"# generated using pymatgen
 data_Cr17Fe13Ni24
_symmetry_space_group_name_H-M   'P 1'
_cell_length_a   7.47017026
_cell_length_b   7.47017026
_cell_length_c   10.56441610
_cell_angle_alpha   90.00000000
_cell_angle_beta   90.00000000
_cell_angle_gamma   90.00000000
_symmetry_Int_Tables_number   1
_chemical_formula_structural   Cr17Fe13Ni24
_chemical_formula_sum   'Cr17 Fe13 Ni24'
_cell_volume   589.53079957
_cell_formula_units_Z   1
loop_
 _symmetry_equiv_pos_site_id
 _symmetry_equiv_pos_as_xyz
  1  'x, y, z'
loop_
 _atom_site_type_symbol
 _atom_site_label
 _atom_site_symmetry_multiplicity
 _atom_site_fract_x
 _atom_site_fract_y
 _atom_site_fract_z
 _atom_site_occupancy
  Cr  Cr0  1  0.00179607  0.99878973  0.00206194  1
  Fe  Fe1  1  0.16706818  0.16572637  0.16873321  1
  Ni  Ni2  1  0.00100618  0.00125671  0.33352463  1
  Ni  Ni3  1  0.99580404  0.33541340  0.99700481  1
  Cr  Cr4  1  0.16617330  0.49682386  0.16702924  1
  Ni  Ni5  1  0.00012569  0.33075965  0.33618276  1
  Ni  Ni6  1  0.99843555  0.66548453  0.99911789  1
  Ni  Ni7  1  0.16942045  0.83361841  0.16911605  1
  Cr  Cr8  1  0.00185585  0.66667321  0.33407075  1
  Ni  Ni9  1  0.33656171  0.99902206  0.00275964  1
  Fe  Fe10  1  0.49823180  0.16730841  0.16842674  1
  Ni  Ni11  1  0.33340760  -0.00014965  0.33236446  1
  Cr  Cr12  1  0.33638981  0.33297465  0.99871506  1
  Fe  Fe13  1  0.50100580  0.49846484  0.16879439  1
  Ni  Ni14  1  0.33506820  0.33339250  0.33379383  1
  Cr  Cr15  1  0.33280319  0.66737625  0.00226563  1
  Fe  Fe16  1  0.50086698  0.83375264  0.16905676  1
  Ni  Ni17  1  0.33613096  0.66653201  0.33375700  1
  Fe  Fe18  1  0.66495818  0.00239977  0.00212219  1
  Cr  Cr19  1  0.83124571  0.16808782  0.16968953  1
  Ni  Ni20  1  0.66475156  0.99967753  0.33262919  1
  Ni  Ni21  1  0.66673472  0.33403121  0.99739773  1
  Cr  Cr22  1  0.83176765  0.49857906  0.16816697  1
  Ni  Ni23  1  0.66420445  0.33301364  0.33588604  1
  Fe  Fe24  1  0.66641353  0.66371946  0.00182344  1
  Fe  Fe25  1  0.83357434  0.83223371  0.16830321  1
  Ni  Ni26  1  0.66276365  0.66513449  0.33321048  1
  Ni  Ni27  1  0.16891044  0.17049134  0.49466383  1
  Cr  Cr28  1  0.99852648  0.00150104  0.66263442  1
  Cr  Cr29  1  0.16879494  0.16874960  0.83522094  1
  Ni  Ni30  1  0.16979570  0.49948279  0.49985684  1
  Cr  Cr31  1  0.99830657  0.33242431  0.66624536  1
  Ni  Ni32  1  0.16603431  0.50060406  0.83238534  1
  Fe  Fe33  1  0.16910987  0.83484916  0.49772039  1
  Fe  Fe34  1  0.00076246  0.66301066  0.66478780  1
  Cr  Cr35  1  0.16748942  0.82998299  0.82969306  1
  Ni  Ni36  1  0.49895018  0.16687941  0.49648851  1
  Cr  Cr37  1  0.33400851  0.00284855  0.66407654  1
  Ni  Ni38  1  0.50180403  0.16807144  0.83567868  1
  Fe  Fe39  1  0.49855829  0.49826941  0.49872074  1
  Ni  Ni40  1  0.33449664  0.33701986  0.66693498  1
  Ni  Ni41  1  0.50052424  0.49971023  0.83211938  1
  Fe  Fe42  1  0.49714650  0.83366351  0.49770381  1
  Ni  Ni43  1  0.33387649  0.66322096  0.66360045  1
  Cr  Cr44  1  0.49999604  0.83357921  0.83244102  1
  Ni  Ni45  1  0.83140512  0.16562503  0.49434582  1
  Cr  Cr46  1  0.66651969  0.00352167  0.66657223  1
  Ni  Ni47  1  0.82972032  0.16838629  0.83631500  1
  Fe  Fe48  1  0.83316786  0.49610907  0.49748978  1
  Cr  Cr49  1  0.66492817  0.33282704  0.66596940  1
  Ni  Ni50  1  0.83203403  0.50028245  0.83377887  1
  Cr  Cr51  1  0.82920229  0.83187420  0.49774745  1
  Fe  Fe52  1  0.66462734  0.66399382  0.66463897  1
  Cr  Cr53  1  0.83145252  0.83163921  0.83488037  1
" 