1568,Ni44Fe24Cr30_6,-229.259017223008, 184.335993147711,Ni44Fe24Cr30,"# generated using pymatgen
 data_Cr17Fe13Ni24
_symmetry_space_group_name_H-M   'P 1'
_cell_length_a   7.47058079
_cell_length_b   7.47058079
_cell_length_c   10.56499667
_cell_angle_alpha   90.00000000
_cell_angle_beta   90.00000000
_cell_angle_gamma   90.00000000
_symmetry_Int_Tables_number   1
_chemical_formula_structural   Cr17Fe13Ni24
_chemical_formula_sum   'Cr17 Fe13 Ni24'
_cell_volume   589.62799852
_cell_formula_units_Z   1
loop_
 _symmetry_equiv_pos_site_id
 _symmetry_equiv_pos_as_xyz
  1  'x, y, z'
loop_
 _atom_site_type_symbol
 _atom_site_label
 _atom_site_symmetry_multiplicity
 _atom_site_fract_x
 _atom_site_fract_y
 _atom_site_fract_z
 _atom_site_occupancy
  Cr  Cr0  1  0.99920020  0.00178782  0.99727531  1
  Fe  Fe1  1  0.16470899  0.16621879  0.16531758  1
  Ni  Ni2  1  0.00138080  0.99937985  0.33471706  1
  Ni  Ni3  1  0.99854359  0.33306730  0.99960050  1
  Fe  Fe4  1  0.16479204  0.49983461  0.16462129  1
  Cr  Cr5  1  0.99828965  0.33226897  0.33280347  1
  Ni  Ni6  1  0.99590173  0.66321771  0.00179758  1
  Cr  Cr7  1  0.16376356  0.83396275  0.16722456  1
  Ni  Ni8  1  0.99815981  0.66760021  0.33160956  1
  Ni  Ni9  1  0.33408293  0.00185795  0.99856704  1
  Cr  Cr10  1  0.50003241  0.16586531  0.16393982  1
  Ni  Ni11  1  0.33337699  0.99836936  0.33540562  1
  Ni  Ni12  1  0.33158705  0.33188792  0.00119547  1
  Ni  Ni13  1  0.50138973  0.49788344  0.16298810  1
  Cr  Cr14  1  0.33281111  0.33120051  0.33084566  1
  Cr  Cr15  1  0.33658669  0.66745097  0.99841242  1
  Fe  Fe16  1  0.50152408  0.83274828  0.16454938  1
  Fe  Fe17  1  0.33251127  0.66852065  0.33142410  1
  Ni  Ni18  1  0.66611413  0.99825835  0.00164251  1
  Fe  Fe19  1  0.83300758  0.16635406  0.16435629  1
  Fe  Fe20  1  0.66789516  0.00007564  0.33234324  1
  Ni  Ni21  1  0.66839087  0.33522330  0.99847856  1
  Ni  Ni22  1  0.83302766  0.50124456  0.16389679  1
  Cr  Cr23  1  0.66774087  0.33314388  0.33550700  1
  Ni  Ni24  1  0.66779935  0.66549854  0.99940773  1
  Ni  Ni25  1  0.83345069  0.83283346  0.16571014  1
  Cr  Cr26  1  0.66610524  0.66692671  0.33077018  1
  Ni  Ni27  1  0.16801401  0.16299708  0.50005205  1
  Fe  Fe28  1  0.99958005  0.00310195  0.66634494  1
  Ni  Ni29  1  0.16655903  0.16715800  0.83440602  1
  Cr  Cr30  1  0.16484630  0.50373718  0.49728226  1
  Fe  Fe31  1  0.99709849  0.32970504  0.66714543  1
  Cr  Cr32  1  0.16446298  0.49866108  0.83614166  1
  Ni  Ni33  1  0.16775161  0.83637473  0.49945212  1
  Cr  Cr34  1  0.99756371  0.66550354  0.66727177  1
  Cr  Cr35  1  0.16774017  0.83547477  0.83102729  1
  Ni  Ni36  1  0.50041467  0.16313964  0.49971783  1
  Ni  Ni37  1  0.33373641  0.00068823  0.66559749  1
  Cr  Cr38  1  0.50133624  0.16584037  0.83636245  1
  Cr  Cr39  1  0.50101634  0.49834669  0.50287337  1
  Cr  Cr40  1  0.33117507  0.33010902  0.66764216  1
  Fe  Fe41  1  0.50262998  0.50000405  0.83392470  1
  Fe  Fe42  1  0.49833972  0.83417373  0.50193526  1
  Fe  Fe43  1  0.33603922  0.66998438  0.66719566  1
  Ni  Ni44  1  0.50165147  0.83525092  0.83259982  1
  Fe  Fe45  1  0.83445839  0.16606411  0.50232239  1
  Ni  Ni46  1  0.66468292  0.99910265  0.66463600  1
  Ni  Ni47  1  0.83193932  0.16855623  0.83242498  1
  Ni  Ni48  1  0.83272489  0.49968501  0.50202303  1
  Fe  Fe49  1  0.66857048  0.33129463  0.66689811  1
  Ni  Ni50  1  0.83106985  0.49762995  0.83398502  1
  Cr  Cr51  1  0.83500633  0.83293589  0.49865911  1
  Ni  Ni52  1  0.66609379  0.66616449  0.66906569  1
  Cr  Cr53  1  0.83055484  0.83286623  0.83583690  1
" 