8151,Ni44Fe56_8,-241.945544398575, 220.972902375336,Ni44Fe56,"# generated using pymatgen
 data_Fe23Ni31
_symmetry_space_group_name_H-M   'P 1'
_cell_length_a   7.40409272
_cell_length_b   7.40409272
_cell_length_c   10.47096834
_cell_angle_alpha   90.00000000
_cell_angle_beta   90.00000000
_cell_angle_gamma   90.00000000
_symmetry_Int_Tables_number   1
_chemical_formula_structural   Fe23Ni31
_chemical_formula_sum   'Fe23 Ni31'
_cell_volume   574.02465222
_cell_formula_units_Z   1
loop_
 _symmetry_equiv_pos_site_id
 _symmetry_equiv_pos_as_xyz
  1  'x, y, z'
loop_
 _atom_site_type_symbol
 _atom_site_label
 _atom_site_symmetry_multiplicity
 _atom_site_fract_x
 _atom_site_fract_y
 _atom_site_fract_z
 _atom_site_occupancy
  Fe  Fe0  1  0.00592794  0.00446765  1.00363041  1
  Ni  Ni1  1  0.17239651  0.17171138  0.17180382  1
  Fe  Fe2  1  1.00320014  1.00369670  0.33827239  1
  Fe  Fe3  1  0.00614122  0.33765429  0.00487422  1
  Ni  Ni4  1  0.17054261  0.50409921  0.17070889  1
  Ni  Ni5  1  1.00376383  0.33783030  0.33759137  1
  Fe  Fe6  1  0.00527600  0.67063411  1.00411349  1
  Fe  Fe7  1  0.17189973  0.83763670  0.17132258  1
  Ni  Ni8  1  0.00457587  0.66986435  0.33738076  1
  Ni  Ni9  1  0.33766876  0.00486981  1.00394184  1
  Ni  Ni10  1  0.50341277  0.17054629  0.17056087  1
  Fe  Fe11  1  0.33809045  1.00425057  0.33722384  1
  Ni  Ni12  1  0.33731694  0.33722204  0.00498861  1
  Fe  Fe13  1  0.50305259  0.50362972  0.17146544  1
  Fe  Fe14  1  0.33813686  0.33849410  0.33736599  1
  Ni  Ni15  1  0.33732899  0.67066388  1.00364297  1
  Fe  Fe16  1  0.50300563  0.83779846  0.17043170  1
  Ni  Ni17  1  0.33702417  0.67067304  0.33749306  1
  Fe  Fe18  1  0.66903343  1.00417746  1.00397098  1
  Fe  Fe19  1  0.83792657  0.17160611  0.17210836  1
  Ni  Ni20  1  0.67114830  0.00506228  0.33738232  1
  Fe  Fe21  1  0.66931631  0.33744395  0.00458625  1
  Fe  Fe22  1  0.83808405  0.50314880  0.17155012  1
  Ni  Ni23  1  0.67195763  0.33666236  0.33749540  1
  Fe  Fe24  1  0.66989095  0.67113118  1.00346518  1
  Fe  Fe25  1  0.83785070  0.83799663  0.17140988  1
  Ni  Ni26  1  0.67115269  0.67102628  0.33747746  1
  Fe  Fe27  1  0.17029144  0.17139886  0.50482560  1
  Ni  Ni28  1  1.00335223  0.00425504  0.67092971  1
  Ni  Ni29  1  0.17278150  0.17103188  0.83747847  1
  Ni  Ni30  1  0.17075855  0.50550527  0.50436523  1
  Fe  Fe31  1  0.00453643  0.33780545  0.67044724  1
  Fe  Fe32  1  0.17153789  0.50443487  0.83766688  1
  Ni  Ni33  1  0.16995020  0.83653193  0.50426851  1
  Ni  Ni34  1  1.00369320  0.67107834  0.67103103  1
  Fe  Fe35  1  0.17127260  0.83809312  0.83682271  1
  Ni  Ni36  1  0.50461182  0.17117263  0.50416409  1
  Ni  Ni37  1  0.33776417  0.00507714  0.67132067  1
  Ni  Ni38  1  0.50252923  0.16987733  0.83802852  1
  Ni  Ni39  1  0.50414870  0.50352987  0.50406320  1
  Ni  Ni40  1  0.33741984  0.33740958  0.67097310  1
  Fe  Fe41  1  0.50418738  0.50452963  0.83711311  1
  Fe  Fe42  1  0.50487148  0.83682209  0.50479813  1
  Ni  Ni43  1  0.33741592  0.67026835  0.67161428  1
  Ni  Ni44  1  0.50485488  0.83863899  0.83723244  1
  Ni  Ni45  1  0.83632980  0.17036861  0.50450407  1
  Ni  Ni46  1  0.67163505  0.00426238  0.67148136  1
  Fe  Fe47  1  0.83717952  0.17001709  0.83690307  1
  Ni  Ni48  1  0.83784855  0.50538500  0.50350619  1
  Fe  Fe49  1  0.67041452  0.33758842  0.67009068  1
  Ni  Ni50  1  0.83813377  0.50609817  0.83744313  1
  Ni  Ni51  1  0.83830574  0.83699943  0.50421139  1
  Ni  Ni52  1  0.67164900  0.67142082  0.67059434  1
  Ni  Ni53  1  0.83697825  0.83597537  0.83743792  1
" 