7505,Ni44Fe24Cr30_17,-228.276635311244, 185.028576975679,Ni44Fe24Cr30,"# generated using pymatgen
 data_Cr17Fe13Ni24
_symmetry_space_group_name_H-M   'P 1'
_cell_length_a   7.46165017
_cell_length_b   7.46165017
_cell_length_c   10.55236687
_cell_angle_alpha   90.00000000
_cell_angle_beta   90.00000000
_cell_angle_gamma   90.00000000
_symmetry_Int_Tables_number   1
_chemical_formula_structural   Cr17Fe13Ni24
_chemical_formula_sum   'Cr17 Fe13 Ni24'
_cell_volume   587.51593343
_cell_formula_units_Z   1
loop_
 _symmetry_equiv_pos_site_id
 _symmetry_equiv_pos_as_xyz
  1  'x, y, z'
loop_
 _atom_site_type_symbol
 _atom_site_label
 _atom_site_symmetry_multiplicity
 _atom_site_fract_x
 _atom_site_fract_y
 _atom_site_fract_z
 _atom_site_occupancy
  Cr  Cr0  1  0.99934308  0.00041855  0.99896317  1
  Cr  Cr1  1  0.16724007  0.16689359  0.16693115  1
  Ni  Ni2  1  0.99863468  1.00013689  0.33138022  1
  Ni  Ni3  1  0.00041716  0.33352571  0.99881013  1
  Ni  Ni4  1  0.16455918  0.50059962  0.16392833  1
  Ni  Ni5  1  0.00040499  0.33159180  0.33274648  1
  Ni  Ni6  1  0.00161850  0.66650567  1.00021430  1
  Ni  Ni7  1  0.16755248  0.83369586  0.16621789  1
  Cr  Cr8  1  0.00070170  0.66762921  0.33398431  1
  Fe  Fe9  1  0.33505561  0.99874536  0.99938011  1
  Cr  Cr10  1  0.50171393  0.16645133  0.16669556  1
  Fe  Fe11  1  0.33517399  0.99909661  0.33345452  1
  Fe  Fe12  1  0.33413104  0.33603120  0.99884762  1
  Fe  Fe13  1  0.49948199  0.50227401  0.16302856  1
  Cr  Cr14  1  0.33408004  0.33702733  0.33397379  1
  Ni  Ni15  1  0.33466158  0.66649169  0.00238527  1
  Ni  Ni16  1  0.49999559  0.83515481  0.16550448  1
  Cr  Cr17  1  0.33499825  0.66686418  0.33090762  1
  Cr  Cr18  1  0.66798482  1.00007637  0.99889870  1
  Fe  Fe19  1  0.83453380  0.16561583  0.16709322  1
  Fe  Fe20  1  0.66713789  0.99828054  0.33384481  1
  Ni  Ni21  1  0.66656109  0.33366927  0.99918445  1
  Cr  Cr22  1  0.83360461  0.49920266  0.16512453  1
  Cr  Cr23  1  0.66633334  0.33374553  0.33303658  1
  Ni  Ni24  1  0.66433954  0.66681694  0.99950421  1
  Ni  Ni25  1  0.83335758  0.83262495  0.16664325  1
  Cr  Cr26  1  0.66476664  0.66870964  0.33409176  1
  Cr  Cr27  1  0.16906121  0.16602763  0.50110843  1
  Cr  Cr28  1  0.99716537  0.00090759  0.67024924  1
  Fe  Fe29  1  0.16913821  0.17095571  0.83387506  1
  Cr  Cr30  1  0.16286603  0.50001857  0.50350045  1
  Ni  Ni31  1  0.99970971  0.33418571  0.66901900  1
  Fe  Fe32  1  0.16870839  0.50050634  0.83416390  1
  Cr  Cr33  1  0.16876882  0.83484171  0.50079719  1
  Ni  Ni34  1  0.99900576  0.66590526  0.66799390  1
  Cr  Cr35  1  0.16908073  0.83149964  0.83454669  1
  Ni  Ni36  1  0.50123929  0.16283927  0.50216509  1
  Fe  Fe37  1  0.33696292  1.00010920  0.66843397  1
  Ni  Ni38  1  0.50034828  0.16742158  0.83193187  1
  Cr  Cr39  1  0.50415587  0.50039291  0.50406468  1
  Fe  Fe40  1  0.33560889  0.33416239  0.66929120  1
  Ni  Ni41  1  0.50333828  0.50045273  0.83491532  1
  Ni  Ni42  1  0.50104625  0.83728894  0.50208692  1
  Ni  Ni43  1  0.33591968  0.66672411  0.66787056  1
  Ni  Ni44  1  0.49977049  0.83334396  0.83303143  1
  Cr  Cr45  1  0.83276036  0.16970655  0.49868244  1
  Ni  Ni46  1  0.66492793  0.00039827  0.66669357  1
  Fe  Fe47  1  0.82994232  0.17066673  0.83281009  1
  Ni  Ni48  1  0.83402148  0.50046318  0.50310279  1
  Ni  Ni49  1  0.66671547  0.33262531  0.66806524  1
  Ni  Ni50  1  0.83407440  0.49984543  0.83301657  1
  Fe  Fe51  1  0.83141708  0.83363051  0.50163058  1
  Ni  Ni52  1  0.66582004  0.66796493  0.66807653  1
  Fe  Fe53  1  0.82957424  0.82877138  0.83363292  1
" 