6226,Ni44Fe26Cr28_12,-229.473650994402, 186.9818465717,Ni44Fe26Cr28,"# generated using pymatgen
 data_Cr8Fe7Ni12
_symmetry_space_group_name_H-M   'P 1'
_cell_length_a   7.45758711
_cell_length_b   7.45758711
_cell_length_c   10.54662083
_cell_angle_alpha   90.00000000
_cell_angle_beta   90.00000000
_cell_angle_gamma   90.00000000
_symmetry_Int_Tables_number   1
_chemical_formula_structural   Cr8Fe7Ni12
_chemical_formula_sum   'Cr16 Fe14 Ni24'
_cell_volume   586.55670259
_cell_formula_units_Z   2
loop_
 _symmetry_equiv_pos_site_id
 _symmetry_equiv_pos_as_xyz
  1  'x, y, z'
loop_
 _atom_site_type_symbol
 _atom_site_label
 _atom_site_symmetry_multiplicity
 _atom_site_fract_x
 _atom_site_fract_y
 _atom_site_fract_z
 _atom_site_occupancy
  Fe  Fe0  1  0.00111961  0.00065075  0.00363135  1
  Ni  Ni1  1  0.16769113  0.16765891  0.16949601  1
  Fe  Fe2  1  0.00106113  0.99883091  0.33362643  1
  Cr  Cr3  1  0.00150811  0.33633382  0.00151840  1
  Fe  Fe4  1  0.16905027  0.50079092  0.17007953  1
  Fe  Fe5  1  0.00295497  0.33649584  0.33207090  1
  Cr  Cr6  1  0.00230726  0.66877693  0.00137442  1
  Ni  Ni7  1  0.16471263  0.83679482  0.16909441  1
  Ni  Ni8  1  1.00056679  0.66698316  0.33273748  1
  Cr  Cr9  1  0.33184789  0.00150902  0.99997693  1
  Ni  Ni10  1  0.49692372  0.17049763  0.16966998  1
  Ni  Ni11  1  0.33259374  0.00299412  0.33499732  1
  Ni  Ni12  1  0.33452762  0.33367151  0.00227459  1
  Ni  Ni13  1  0.50234911  0.49846130  0.16925687  1
  Fe  Fe14  1  0.33511670  0.33604063  0.33418642  1
  Cr  Cr15  1  0.33304313  0.66412982  0.00231413  1
  Cr  Cr16  1  0.50077879  0.83000344  0.17013261  1
  Ni  Ni17  1  0.33215849  0.66794153  0.33394897  1
  Cr  Cr18  1  0.66638856  0.00260089  0.00395967  1
  Fe  Fe19  1  0.83416941  0.16698329  0.17087258  1
  Fe  Fe20  1  0.66533052  0.99836963  0.33402101  1
  Cr  Cr21  1  0.66393882  0.33581988  0.00151398  1
  Ni  Ni22  1  0.83245011  0.50203843  0.16849145  1
  Ni  Ni23  1  0.66721675  0.33279094  0.33136197  1
  Ni  Ni24  1  0.66957133  0.66480479  0.00115994  1
  Ni  Ni25  1  0.83616262  0.83101590  0.17017459  1
  Ni  Ni26  1  0.66875087  0.66371495  0.33497849  1
  Ni  Ni27  1  0.17165765  0.17003839  0.50005236  1
  Cr  Cr28  1  0.00239764  0.99849623  0.66598907  1
  Cr  Cr29  1  0.16991775  0.16872520  0.83215003  1
  Fe  Fe30  1  0.16879001  0.49989874  0.50100217  1
  Fe  Fe31  1  0.00633266  0.33626241  0.66608050  1
  Ni  Ni32  1  0.17030743  0.50054161  0.83034005  1
  Cr  Cr33  1  0.16753712  0.83287156  0.49999416  1
  Ni  Ni34  1  0.00093356  0.66612676  0.66870177  1
  Ni  Ni35  1  0.16662673  0.83124180  0.83309448  1
  Ni  Ni36  1  0.49867376  0.16783966  0.49951967  1
  Ni  Ni37  1  0.33569675  0.00152784  0.66633341  1
  Ni  Ni38  1  0.49869048  0.17038047  0.83261094  1
  Fe  Fe39  1  0.49872157  0.50098192  0.49835169  1
  Ni  Ni40  1  0.33679427  0.33473062  0.66530891  1
  Ni  Ni41  1  0.49842216  0.50051318  0.83411549  1
  Fe  Fe42  1  0.50031630  0.83462811  0.49898271  1
  Ni  Ni43  1  0.33170683  0.66650492  0.66626070  1
  Cr  Cr44  1  0.49901563  0.83225113  0.83179411  1
  Cr  Cr45  1  0.83562548  0.16721958  0.49743052  1
  Fe  Fe46  1  0.66372041  0.99920994  0.66408834  1
  Cr  Cr47  1  0.83442676  0.16774474  0.83310303  1
  Cr  Cr48  1  0.83532383  0.50243002  0.50175424  1
  Cr  Cr49  1  0.66572424  0.33358060  0.66933552  1
  Fe  Fe50  1  0.83441304  0.50237950  0.83262202  1
  Ni  Ni51  1  0.83157584  0.83127570  0.49923876  1
  Fe  Fe52  1  0.66366234  0.66757347  0.66543110  1
  Cr  Cr53  1  0.83295117  0.83257366  0.83364532  1
" 