6076,Ni44Fe49Cr5_6,-237.198988982346, 215.351254824383,Ni44Fe49Cr5,"# generated using pymatgen
 data_Cr2Fe13Ni12
_symmetry_space_group_name_H-M   'P 1'
_cell_length_a   7.41079894
_cell_length_b   7.41079894
_cell_length_c   10.48045236
_cell_angle_alpha   90.00000000
_cell_angle_beta   90.00000000
_cell_angle_gamma   90.00000000
_symmetry_Int_Tables_number   1
_chemical_formula_structural   Cr2Fe13Ni12
_chemical_formula_sum   'Cr4 Fe26 Ni24'
_cell_volume   575.58582433
_cell_formula_units_Z   2
loop_
 _symmetry_equiv_pos_site_id
 _symmetry_equiv_pos_as_xyz
  1  'x, y, z'
loop_
 _atom_site_type_symbol
 _atom_site_label
 _atom_site_symmetry_multiplicity
 _atom_site_fract_x
 _atom_site_fract_y
 _atom_site_fract_z
 _atom_site_occupancy
  Fe  Fe0  1  1.00356579  0.00391083  1.00349660  1
  Fe  Fe1  1  0.17116962  0.17325255  0.16969923  1
  Fe  Fe2  1  1.00175894  0.00473948  0.33823326  1
  Ni  Ni3  1  0.00472925  0.33959615  0.00475693  1
  Ni  Ni4  1  0.17147211  0.50321288  0.17003093  1
  Ni  Ni5  1  0.00442775  0.33818145  0.33729033  1
  Ni  Ni6  1  1.00227855  0.66795383  1.00299641  1
  Cr  Cr7  1  0.16991431  0.83643021  0.16903257  1
  Ni  Ni8  1  1.00242479  0.66866123  0.33799577  1
  Ni  Ni9  1  0.33814498  0.00546362  1.00373461  1
  Ni  Ni10  1  0.50425737  0.17254657  0.17111957  1
  Fe  Fe11  1  0.33800099  0.00414920  0.33813411  1
  Ni  Ni12  1  0.33625638  0.33630282  0.00529214  1
  Ni  Ni13  1  0.50351715  0.50330595  0.17023755  1
  Fe  Fe14  1  0.33759761  0.33872159  0.33616124  1
  Fe  Fe15  1  0.33766537  0.66873345  1.00325108  1
  Fe  Fe16  1  0.50476579  0.83640711  0.17147493  1
  Fe  Fe17  1  0.33794036  0.66851691  0.33832395  1
  Cr  Cr18  1  0.66853915  1.00318786  1.00376330  1
  Ni  Ni19  1  0.83763639  0.17118652  0.17021105  1
  Fe  Fe20  1  0.67162741  0.00439256  0.33730303  1
  Fe  Fe21  1  0.67032591  0.33891214  0.00422333  1
  Fe  Fe22  1  0.83717557  0.50344724  0.17033504  1
  Ni  Ni23  1  0.67056734  0.33708986  0.33666160  1
  Ni  Ni24  1  0.67203195  0.66984931  0.00383974  1
  Fe  Fe25  1  0.83584982  0.83535672  0.17070918  1
  Ni  Ni26  1  0.67138173  0.67093321  0.33726828  1
  Fe  Fe27  1  0.17104694  0.16995020  0.50418019  1
  Fe  Fe28  1  1.00212989  0.00415785  0.66965528  1
  Cr  Cr29  1  0.16881166  0.16883581  0.83841162  1
  Fe  Fe30  1  0.17109756  0.50339020  0.50209232  1
  Fe  Fe31  1  1.00194875  0.33544720  0.66991080  1
  Fe  Fe32  1  0.16984972  0.50416812  0.83906879  1
  Ni  Ni33  1  0.17173831  0.83811405  0.50392902  1
  Cr  Cr34  1  1.00235140  0.66914283  0.67031053  1
  Fe  Fe35  1  0.17050259  0.83627703  0.83779937  1
  Fe  Fe36  1  0.50370416  0.16960965  0.50363896  1
  Ni  Ni37  1  0.33939237  0.00420947  0.66981048  1
  Fe  Fe38  1  0.50519654  0.17111029  0.83681586  1
  Ni  Ni39  1  0.50373974  0.50503949  0.50375033  1
  Fe  Fe40  1  0.33908963  0.33821857  0.67022292  1
  Ni  Ni41  1  0.50437133  0.50482267  0.83739681  1
  Ni  Ni42  1  0.50240098  0.83535857  0.50362664  1
  Fe  Fe43  1  0.33991626  0.67133695  0.66980392  1
  Fe  Fe44  1  0.50448663  0.83644433  0.83556909  1
  Ni  Ni45  1  0.83807251  0.17039431  0.50491888  1
  Ni  Ni46  1  0.66857705  1.00366022  0.67001726  1
  Ni  Ni47  1  0.83742111  0.17069431  0.83625355  1
  Fe  Fe48  1  0.83584239  0.50378085  0.50278070  1
  Fe  Fe49  1  0.67034318  0.33690247  0.67020581  1
  Ni  Ni50  1  0.83469740  0.50308520  0.83853174  1
  Fe  Fe51  1  0.83550698  0.83731114  0.50345742  1
  Ni  Ni52  1  0.66993639  0.67142369  0.67027589  1
  Ni  Ni53  1  0.83773875  0.83760585  0.83692262  1
" 