6259,Ni44Fe26Cr28_4,-229.072976664508, 182.30077671834,Ni44Fe26Cr28,"# generated using pymatgen
 data_Cr8Fe7Ni12
_symmetry_space_group_name_H-M   'P 1'
_cell_length_a   7.46352534
_cell_length_b   7.46352534
_cell_length_c   10.55501876
_cell_angle_alpha   90.00000000
_cell_angle_beta   90.00000000
_cell_angle_gamma   90.00000000
_symmetry_Int_Tables_number   1
_chemical_formula_structural   Cr8Fe7Ni12
_chemical_formula_sum   'Cr16 Fe14 Ni24'
_cell_volume   587.95898694
_cell_formula_units_Z   2
loop_
 _symmetry_equiv_pos_site_id
 _symmetry_equiv_pos_as_xyz
  1  'x, y, z'
loop_
 _atom_site_type_symbol
 _atom_site_label
 _atom_site_symmetry_multiplicity
 _atom_site_fract_x
 _atom_site_fract_y
 _atom_site_fract_z
 _atom_site_occupancy
  Ni  Ni0  1  0.00236971  0.00034434  0.00182143  1
  Ni  Ni1  1  0.16717924  0.16617807  0.16753216  1
  Ni  Ni2  1  0.00056849  0.00333117  0.33288386  1
  Cr  Cr3  1  0.00091857  0.33380529  0.00291975  1
  Ni  Ni4  1  0.16722026  0.49862641  0.16749755  1
  Ni  Ni5  1  0.00121176  0.33254684  0.33370494  1
  Cr  Cr6  1  0.99988859  0.66675225  0.00038073  1
  Ni  Ni7  1  0.16563663  0.83599064  0.16794741  1
  Ni  Ni8  1  0.00080337  0.66453750  0.33361188  1
  Ni  Ni9  1  0.33286321  0.00202158  0.00151964  1
  Ni  Ni10  1  0.49932669  0.16990141  0.16701194  1
  Fe  Fe11  1  0.33174071  0.00358288  0.33348407  1
  Ni  Ni12  1  0.33526615  0.33292251  0.00175921  1
  Ni  Ni13  1  0.50097941  0.49583410  0.16759103  1
  Fe  Fe14  1  0.33256298  0.33057575  0.33184580  1
  Cr  Cr15  1  0.33379536  0.66630749  1.00010076  1
  Cr  Cr16  1  0.49893934  0.83445653  0.16951786  1
  Cr  Cr17  1  0.33216709  0.66569783  0.33176940  1
  Cr  Cr18  1  0.66658200  0.00088456  0.99938686  1
  Ni  Ni19  1  0.83409378  0.16839801  0.16803453  1
  Ni  Ni20  1  0.66656110  0.00368897  0.33429512  1
  Fe  Fe21  1  0.66545039  0.33374157  0.00068855  1
  Ni  Ni22  1  0.83274727  0.49750612  0.17032535  1
  Fe  Fe23  1  0.66936366  0.33114324  0.33352340  1
  Cr  Cr24  1  0.66715205  0.66544463  0.00108482  1
  Cr  Cr25  1  0.83652857  0.83483726  0.16906522  1
  Ni  Ni26  1  0.66824542  0.66548418  0.33183781  1
  Fe  Fe27  1  0.16692830  0.16423514  0.49863408  1
  Ni  Ni28  1  0.00081323  0.99958128  0.66616302  1
  Cr  Cr29  1  0.16766099  0.16380300  0.83558839  1
  Fe  Fe30  1  0.16492197  0.50007297  0.49785825  1
  Cr  Cr31  1  0.99964329  0.33431626  0.66441469  1
  Fe  Fe32  1  0.16711043  0.50045997  0.83354495  1
  Fe  Fe33  1  0.16609427  0.83584055  0.50011682  1
  Fe  Fe34  1  0.00205367  0.66828563  0.66758525  1
  Ni  Ni35  1  0.16732599  0.83469721  0.83162852  1
  Ni  Ni36  1  0.50129963  0.16711218  0.50104197  1
  Ni  Ni37  1  0.33390086  0.99972729  0.66601934  1
  Fe  Fe38  1  0.49908427  0.16773724  0.83305985  1
  Cr  Cr39  1  0.50100643  0.49860994  0.49804508  1
  Cr  Cr40  1  0.33318163  0.33324783  0.66644961  1
  Ni  Ni41  1  0.50063250  0.49890528  0.83381709  1
  Cr  Cr42  1  0.49927584  0.83492542  0.49943950  1
  Fe  Fe43  1  0.33180967  0.66827109  0.66841275  1
  Fe  Fe44  1  0.49770266  0.83553098  0.83243026  1
  Ni  Ni45  1  0.83346903  0.16687019  0.50040869  1
  Ni  Ni46  1  0.66586843  0.00187541  0.66743166  1
  Cr  Cr47  1  0.83364612  0.16701360  0.83304491  1
  Fe  Fe48  1  0.83297933  0.49868276  0.49822012  1
  Ni  Ni49  1  0.66642967  0.33230976  0.66678416  1
  Ni  Ni50  1  0.83092450  0.50021906  0.83169601  1
  Cr  Cr51  1  0.83537089  0.83461576  0.49915732  1
  Cr  Cr52  1  0.66685837  0.66723815  0.66830188  1
  Fe  Fe53  1  0.83658837  0.83401706  0.83230691  1
" 