7972,Ni44Fe24Cr30_16,-228.225746620875, 181.802797763773,Ni44Fe24Cr30,"# generated using pymatgen
 data_Cr17Fe13Ni24
_symmetry_space_group_name_H-M   'P 1'
_cell_length_a   7.45959074
_cell_length_b   7.45959074
_cell_length_c   10.54945439
_cell_angle_alpha   90.00000000
_cell_angle_beta   90.00000000
_cell_angle_gamma   90.00000000
_symmetry_Int_Tables_number   1
_chemical_formula_structural   Cr17Fe13Ni24
_chemical_formula_sum   'Cr17 Fe13 Ni24'
_cell_volume   587.02960037
_cell_formula_units_Z   1
loop_
 _symmetry_equiv_pos_site_id
 _symmetry_equiv_pos_as_xyz
  1  'x, y, z'
loop_
 _atom_site_type_symbol
 _atom_site_label
 _atom_site_symmetry_multiplicity
 _atom_site_fract_x
 _atom_site_fract_y
 _atom_site_fract_z
 _atom_site_occupancy
  Ni  Ni0  1  0.00228981  0.00256098  0.00188463  1
  Fe  Fe1  1  0.16414652  0.16785387  0.16602373  1
  Ni  Ni2  1  0.99894289  1.00040850  0.33492284  1
  Ni  Ni3  1  0.99994245  0.33524066  0.00329094  1
  Ni  Ni4  1  0.16599241  0.50013382  0.16539265  1
  Ni  Ni5  1  0.99862649  0.33448517  0.33184386  1
  Fe  Fe6  1  0.00203699  0.66498158  1.00004286  1
  Cr  Cr7  1  0.16694291  0.83270205  0.16676677  1
  Ni  Ni8  1  0.99970206  0.66660406  0.33483200  1
  Ni  Ni9  1  0.33381643  0.99793151  0.99846701  1
  Cr  Cr10  1  0.50129511  0.16567753  0.16276733  1
  Cr  Cr11  1  0.33378728  0.99929696  0.33524437  1
  Fe  Fe12  1  0.33395118  0.33520705  1.00033356  1
  Fe  Fe13  1  0.50024535  0.50213624  0.16548177  1
  Cr  Cr14  1  0.33343489  0.33574382  0.33177482  1
  Ni  Ni15  1  0.33327723  0.66695605  0.00100303  1
  Fe  Fe16  1  0.49977649  0.83143275  0.16654621  1
  Fe  Fe17  1  0.33276716  0.66654501  0.33302831  1
  Ni  Ni18  1  0.66568516  0.00130165  0.00147484  1
  Fe  Fe19  1  0.83629915  0.16849155  0.16620609  1
  Fe  Fe20  1  0.66868629  0.00076810  0.33518509  1
  Ni  Ni21  1  0.66851358  0.33494695  0.99975337  1
  Ni  Ni22  1  0.83559043  0.49979473  0.16684240  1
  Cr  Cr23  1  0.66815284  0.33537969  0.33487760  1
  Cr  Cr24  1  0.66482522  0.66517999  0.99969752  1
  Cr  Cr25  1  0.83276125  0.83422139  0.16695786  1
  Fe  Fe26  1  0.66848529  0.66738087  0.33446175  1
  Cr  Cr27  1  0.16850724  0.16811215  0.49983549  1
  Cr  Cr28  1  0.00156769  0.99706354  0.66407645  1
  Cr  Cr29  1  0.17026876  0.16733591  0.83461308  1
  Cr  Cr30  1  0.16587044  0.50205213  0.50047958  1
  Cr  Cr31  1  0.99738106  0.33572341  0.66577080  1
  Fe  Fe32  1  0.16709520  0.50227452  0.83576206  1
  Ni  Ni33  1  0.16668145  0.83206119  0.50014853  1
  Ni  Ni34  1  0.00116863  0.66758610  0.66868556  1
  Ni  Ni35  1  0.16920196  0.83263221  0.83524605  1
  Ni  Ni36  1  0.50165528  0.16747551  0.50460200  1
  Fe  Fe37  1  0.33531990  0.99939796  0.66727687  1
  Fe  Fe38  1  0.50097983  0.16767561  0.83503652  1
  Fe  Fe39  1  0.50150161  0.50061197  0.50152208  1
  Ni  Ni40  1  0.33814758  0.33425566  0.66879298  1
  Ni  Ni41  1  0.50006331  0.49785670  0.83489264  1
  Ni  Ni42  1  0.50105638  0.83467420  0.49688109  1
  Cr  Cr43  1  0.33391711  0.66928451  0.66733666  1
  Ni  Ni44  1  0.49721963  0.83475979  0.83721589  1
  Ni  Ni45  1  0.83107878  0.16783816  0.49736113  1
  Cr  Cr46  1  0.66632235  1.00045722  0.66641925  1
  Cr  Cr47  1  0.83141516  0.16885415  0.83654514  1
  Ni  Ni48  1  0.83364383  0.50182309  0.50047508  1
  Ni  Ni49  1  0.66478625  0.33491532  0.66683407  1
  Ni  Ni50  1  0.83378850  0.49919638  0.83446447  1
  Ni  Ni51  1  0.83447165  0.83166272  0.49806323  1
  Cr  Cr52  1  0.66820598  0.66600323  0.66696945  1
  Cr  Cr53  1  0.83570175  0.83204430  0.83658075  1
" 