4630,Ni44Fe24Cr30_0,-228.746215734502, 188.59275168885,Ni44Fe24Cr30,"# generated using pymatgen
 data_Cr17Fe13Ni24
_symmetry_space_group_name_H-M   'P 1'
_cell_length_a   7.46223990
_cell_length_b   7.46223990
_cell_length_c   10.55320087
_cell_angle_alpha   90.00000000
_cell_angle_beta   90.00000000
_cell_angle_gamma   90.00000000
_symmetry_Int_Tables_number   1
_chemical_formula_structural   Cr17Fe13Ni24
_chemical_formula_sum   'Cr17 Fe13 Ni24'
_cell_volume   587.65524629
_cell_formula_units_Z   1
loop_
 _symmetry_equiv_pos_site_id
 _symmetry_equiv_pos_as_xyz
  1  'x, y, z'
loop_
 _atom_site_type_symbol
 _atom_site_label
 _atom_site_symmetry_multiplicity
 _atom_site_fract_x
 _atom_site_fract_y
 _atom_site_fract_z
 _atom_site_occupancy
  Fe  Fe0  1  0.00295775  0.00321907  0.99929825  1
  Ni  Ni1  1  0.16950337  0.16795961  0.16621048  1
  Ni  Ni2  1  0.99935355  0.00123929  0.33430741  1
  Fe  Fe3  1  0.00309219  0.33109580  0.99941372  1
  Ni  Ni4  1  0.16747850  0.49716562  0.16986888  1
  Ni  Ni5  1  0.00274965  0.33210787  0.33296673  1
  Cr  Cr6  1  0.00326914  0.66667449  0.00058054  1
  Cr  Cr7  1  0.16984217  0.83763345  0.16901666  1
  Cr  Cr8  1  0.00309648  0.66867928  0.33642501  1
  Ni  Ni9  1  0.33577848  0.00121210  0.99877006  1
  Ni  Ni10  1  0.49818087  0.16436675  0.16926235  1
  Fe  Fe11  1  0.33496986  0.00264341  0.33280297  1
  Cr  Cr12  1  0.33363199  0.33315785  1.00014287  1
  Fe  Fe13  1  0.49787198  0.49915471  0.16896307  1
  Ni  Ni14  1  0.33499962  0.33466587  0.33200590  1
  Cr  Cr15  1  0.33333897  0.66557908  0.00103150  1
  Ni  Ni16  1  0.49964117  0.83721501  0.16538160  1
  Fe  Fe17  1  0.33472176  0.66551595  0.33452274  1
  Ni  Ni18  1  0.66465110  0.00118679  1.00012687  1
  Cr  Cr19  1  0.83456685  0.16728373  0.16836107  1
  Ni  Ni20  1  0.66657964  0.00230325  0.33436172  1
  Cr  Cr21  1  0.66335941  0.33110289  0.00066373  1
  Cr  Cr22  1  0.83372837  0.49859440  0.16556360  1
  Ni  Ni23  1  0.66335311  0.33040342  0.33471884  1
  Fe  Fe24  1  0.66274497  0.66807931  0.00038554  1
  Cr  Cr25  1  0.83151547  0.83522548  0.16556663  1
  Cr  Cr26  1  0.66515155  0.66840519  0.33183727  1
  Cr  Cr27  1  0.16954226  0.16711073  0.49864852  1
  Cr  Cr28  1  0.99822154  0.99935714  0.66638271  1
  Fe  Fe29  1  0.16697693  0.16698299  0.83432234  1
  Fe  Fe30  1  0.16990010  0.50060312  0.50072720  1
  Ni  Ni31  1  0.99990146  0.33443535  0.66855518  1
  Ni  Ni32  1  0.16623554  0.50095785  0.83122279  1
  Ni  Ni33  1  0.16739807  0.83393185  0.50052826  1
  Ni  Ni34  1  0.00448448  0.66780450  0.66548126  1
  Ni  Ni35  1  0.16879072  0.83477297  0.83235822  1
  Ni  Ni36  1  0.50109504  0.16799971  0.49929957  1
  Fe  Fe37  1  0.33419263  1.00017642  0.66865123  1
  Ni  Ni38  1  0.50054324  0.16461942  0.83225420  1
  Ni  Ni39  1  0.50012991  0.49810608  0.49999977  1
  Cr  Cr40  1  0.33566418  0.33522140  0.66850581  1
  Ni  Ni41  1  0.50102203  0.50010075  0.83226174  1
  Cr  Cr42  1  0.49824587  0.83605829  0.50260989  1
  Ni  Ni43  1  0.33162133  0.66678933  0.66742268  1
  Fe  Fe44  1  0.49854878  0.83368248  0.83300318  1
  Fe  Fe45  1  0.83177323  0.16614149  0.49917474  1
  Ni  Ni46  1  0.66636038  0.00271968  0.66676882  1
  Fe  Fe47  1  0.83256132  0.16726458  0.83321755  1
  Cr  Cr48  1  0.83356653  0.49781196  0.50276045  1
  Ni  Ni49  1  0.66560370  0.32973421  0.66629822  1
  Cr  Cr50  1  0.83292165  0.49954775  0.83268267  1
  Ni  Ni51  1  0.83402931  0.83457311  0.50049643  1
  Fe  Fe52  1  0.66588950  0.66627135  0.66630300  1
  Cr  Cr53  1  0.83204764  0.83275118  0.83490291  1
" 