3663,Ni44Fe49Cr5_1,-237.987879456003, 213.789930551829,Ni44Fe49Cr5,"# generated using pymatgen
 data_Cr2Fe13Ni12
_symmetry_space_group_name_H-M   'P 1'
_cell_length_a   7.41547040
_cell_length_b   7.41547040
_cell_length_c   10.48705881
_cell_angle_alpha   90.00000000
_cell_angle_beta   90.00000000
_cell_angle_gamma   90.00000000
_symmetry_Int_Tables_number   1
_chemical_formula_structural   Cr2Fe13Ni12
_chemical_formula_sum   'Cr4 Fe26 Ni24'
_cell_volume   576.67498666
_cell_formula_units_Z   2
loop_
 _symmetry_equiv_pos_site_id
 _symmetry_equiv_pos_as_xyz
  1  'x, y, z'
loop_
 _atom_site_type_symbol
 _atom_site_label
 _atom_site_symmetry_multiplicity
 _atom_site_fract_x
 _atom_site_fract_y
 _atom_site_fract_z
 _atom_site_occupancy
  Fe  Fe0  1  1.00345018  0.00734166  0.00356223  1
  Fe  Fe1  1  0.17187893  0.16979671  0.16887205  1
  Fe  Fe2  1  1.00309321  1.00134361  0.33670927  1
  Ni  Ni3  1  0.00351407  0.33842785  0.00360506  1
  Ni  Ni4  1  0.17019324  0.50353951  0.17086689  1
  Fe  Fe5  1  1.00286168  0.33595969  0.33542738  1
  Cr  Cr6  1  1.00310690  0.67006212  0.00543494  1
  Ni  Ni7  1  0.17065423  0.83704456  0.17010315  1
  Ni  Ni8  1  0.00348175  0.66859922  0.33664993  1
  Ni  Ni9  1  0.33837417  0.00429417  0.00408584  1
  Ni  Ni10  1  0.50564520  0.16926662  0.16928922  1
  Ni  Ni11  1  0.33844084  0.00459749  0.33699964  1
  Ni  Ni12  1  0.33610857  0.33435132  1.00291220  1
  Cr  Cr13  1  0.50280126  0.50355814  0.17022247  1
  Fe  Fe14  1  0.33574568  0.33482304  0.33661061  1
  Fe  Fe15  1  0.33778569  0.67069158  1.00315468  1
  Ni  Ni16  1  0.50281198  0.83763758  0.17063126  1
  Fe  Fe17  1  0.33543912  0.67465119  0.33632905  1
  Ni  Ni18  1  0.66834838  0.00412027  0.00398054  1
  Ni  Ni19  1  0.83712556  0.16974810  0.16940662  1
  Ni  Ni20  1  0.66729402  1.00326683  0.33750869  1
  Ni  Ni21  1  0.67103732  0.33481693  1.00329863  1
  Fe  Fe22  1  0.83721923  0.50232060  0.17129225  1
  Fe  Fe23  1  0.67195029  0.33428800  0.33631104  1
  Fe  Fe24  1  0.66821193  0.67066523  1.00301067  1
  Fe  Fe25  1  0.83514187  0.83832905  0.17221998  1
  Ni  Ni26  1  0.67437222  0.67270177  0.33707380  1
  Fe  Fe27  1  0.17181290  0.16820749  0.50448435  1
  Fe  Fe28  1  0.00377080  0.00378935  0.67031246  1
  Ni  Ni29  1  0.16859547  0.17037948  0.83758146  1
  Fe  Fe30  1  0.16869893  0.50442896  0.50314426  1
  Fe  Fe31  1  0.00540346  0.33534466  0.67124692  1
  Fe  Fe32  1  0.17024066  0.50117210  0.83653151  1
  Ni  Ni33  1  0.16925484  0.83663910  0.50444216  1
  Ni  Ni34  1  0.00351386  0.66909630  0.66926096  1
  Fe  Fe35  1  0.17030999  0.83930174  0.83577338  1
  Ni  Ni36  1  0.50327115  0.16911344  0.50324746  1
  Ni  Ni37  1  0.33819778  0.00454358  0.66956579  1
  Fe  Fe38  1  0.50220507  0.16872541  0.83766819  1
  Cr  Cr39  1  0.50231538  0.50488815  0.50157663  1
  Ni  Ni40  1  0.33473697  0.33469850  0.67072866  1
  Fe  Fe41  1  0.50230738  0.50195109  0.83790034  1
  Ni  Ni42  1  0.50351948  0.83785044  0.50367376  1
  Fe  Fe43  1  0.33623363  0.67165258  0.67094037  1
  Fe  Fe44  1  0.50355417  0.83934727  0.83691543  1
  Fe  Fe45  1  0.83667579  0.16704205  0.50242615  1
  Ni  Ni46  1  0.66836217  1.00245900  0.66894288  1
  Ni  Ni47  1  0.83825288  0.16934911  0.83719803  1
  Fe  Fe48  1  0.83876987  0.50596331  0.50254724  1
  Cr  Cr49  1  0.66992450  0.33368101  0.67008602  1
  Fe  Fe50  1  0.83763182  0.50232888  0.83685398  1
  Ni  Ni51  1  0.83764891  0.83756556  0.50424141  1
  Fe  Fe52  1  0.67002205  0.67294091  0.67006860  1
  Fe  Fe53  1  0.83647711  0.83909218  0.83486801  1
" 