5300,Ni44Fe26Cr28_16,-229.04034213043, 188.122137668517,Ni44Fe26Cr28,"# generated using pymatgen
 data_Cr8Fe7Ni12
_symmetry_space_group_name_H-M   'P 1'
_cell_length_a   7.45492225
_cell_length_b   7.45492225
_cell_length_c   10.54285216
_cell_angle_alpha   90.00000000
_cell_angle_beta   90.00000000
_cell_angle_gamma   90.00000000
_symmetry_Int_Tables_number   1
_chemical_formula_structural   Cr8Fe7Ni12
_chemical_formula_sum   'Cr16 Fe14 Ni24'
_cell_volume   585.92813662
_cell_formula_units_Z   2
loop_
 _symmetry_equiv_pos_site_id
 _symmetry_equiv_pos_as_xyz
  1  'x, y, z'
loop_
 _atom_site_type_symbol
 _atom_site_label
 _atom_site_symmetry_multiplicity
 _atom_site_fract_x
 _atom_site_fract_y
 _atom_site_fract_z
 _atom_site_occupancy
  Fe  Fe0  1  0.99875517  0.00096578  0.00161923  1
  Cr  Cr1  1  0.16680346  0.16752121  0.16846760  1
  Ni  Ni2  1  0.99805112  1.00032764  0.33440043  1
  Ni  Ni3  1  0.00199751  0.33611073  0.00168220  1
  Ni  Ni4  1  0.16574525  0.49974608  0.16753798  1
  Fe  Fe5  1  0.99717458  0.33406201  0.33372109  1
  Ni  Ni6  1  0.00099664  0.66648917  0.00186005  1
  Cr  Cr7  1  0.16804806  0.83342326  0.16622758  1
  Cr  Cr8  1  1.00042968  0.66866283  0.33490136  1
  Fe  Fe9  1  0.33469169  1.00038236  0.00138048  1
  Fe  Fe10  1  0.50194682  0.16828716  0.17123829  1
  Ni  Ni11  1  0.33499345  0.00222120  0.33591376  1
  Cr  Cr12  1  0.33426865  0.33551760  0.00150596  1
  Fe  Fe13  1  0.50155601  0.50120600  0.16834784  1
  Fe  Fe14  1  0.33585371  0.33332690  0.33484545  1
  Ni  Ni15  1  0.33304682  0.66378202  1.00001828  1
  Cr  Cr16  1  0.50042757  0.83407447  0.16867462  1
  Cr  Cr17  1  0.33203906  0.66514246  0.33757984  1
  Cr  Cr18  1  0.67037925  0.00182748  0.00181331  1
  Ni  Ni19  1  0.83440890  0.16929155  0.16969463  1
  Ni  Ni20  1  0.66987090  0.00381214  0.33561352  1
  Cr  Cr21  1  0.66726790  0.33407798  0.00200982  1
  Ni  Ni22  1  0.83470216  0.49937630  0.16662803  1
  Ni  Ni23  1  0.66667719  0.33229720  0.33390983  1
  Ni  Ni24  1  0.66837144  0.66746697  0.00117095  1
  Ni  Ni25  1  0.83339092  0.83365445  0.16591750  1
  Cr  Cr26  1  0.67010713  0.66724799  0.33465713  1
  Cr  Cr27  1  0.16605080  0.16686159  0.50096392  1
  Ni  Ni28  1  0.99924832  0.99774100  0.66654271  1
  Cr  Cr29  1  0.16659603  0.16817994  0.83322804  1
  Fe  Fe30  1  0.16515542  0.49981928  0.50348965  1
  Fe  Fe31  1  0.99935200  0.33606934  0.66576352  1
  Ni  Ni32  1  0.16643426  0.50209778  0.83256870  1
  Ni  Ni33  1  0.16859972  0.83446824  0.50181231  1
  Ni  Ni34  1  0.00209651  0.66917095  0.66579570  1
  Cr  Cr35  1  0.16802600  0.83300554  0.83587576  1
  Ni  Ni36  1  0.50175968  0.16774773  0.50030393  1
  Fe  Fe37  1  0.33539730  1.00007500  0.66435705  1
  Cr  Cr38  1  0.50053197  0.16608069  0.83197247  1
  Fe  Fe39  1  0.50320094  0.49878237  0.50235200  1
  Ni  Ni40  1  0.33469904  0.33657330  0.66676248  1
  Fe  Fe41  1  0.49955336  0.50208276  0.83221537  1
  Fe  Fe42  1  0.50299386  0.83665182  0.50141098  1
  Fe  Fe43  1  0.33402906  0.66622008  0.66583800  1
  Cr  Cr44  1  0.50226726  0.83196675  0.83260513  1
  Ni  Ni45  1  0.83226783  0.16921749  0.50104484  1
  Ni  Ni46  1  0.66980060  0.00101856  0.66410845  1
  Cr  Cr47  1  0.83495460  0.16944443  0.83077279  1
  Ni  Ni48  1  0.83273573  0.49901942  0.50182335  1
  Ni  Ni49  1  0.66389419  0.33394435  0.66567885  1
  Cr  Cr50  1  0.83404692  0.50262718  0.83360120  1
  Ni  Ni51  1  0.83431041  0.83425848  0.50268016  1
  Ni  Ni52  1  0.66864738  0.66753182  0.66634630  1
  Fe  Fe53  1  0.83526498  0.83295839  0.83266481  1
" 