995,Ni44Fe18Cr36_14,-225.126549401435, 171.101240911871,Ni44Fe18Cr36,"# generated using pymatgen
 data_Cr21Fe10Ni23
_symmetry_space_group_name_H-M   'P 1'
_cell_length_a   7.48296530
_cell_length_b   7.48296530
_cell_length_c   10.58251102
_cell_angle_alpha   90.00000000
_cell_angle_beta   90.00000000
_cell_angle_gamma   90.00000000
_symmetry_Int_Tables_number   1
_chemical_formula_structural   Cr21Fe10Ni23
_chemical_formula_sum   'Cr21 Fe10 Ni23'
_cell_volume   592.56526712
_cell_formula_units_Z   1
loop_
 _symmetry_equiv_pos_site_id
 _symmetry_equiv_pos_as_xyz
  1  'x, y, z'
loop_
 _atom_site_type_symbol
 _atom_site_label
 _atom_site_symmetry_multiplicity
 _atom_site_fract_x
 _atom_site_fract_y
 _atom_site_fract_z
 _atom_site_occupancy
  Ni  Ni0  1  -0.00067968  0.99832339  -0.00089615  1
  Ni  Ni1  1  0.16377994  0.16484844  0.16281813  1
  Cr  Cr2  1  0.99744713  0.00056395  0.33399500  1
  Fe  Fe3  1  0.99877775  0.33236018  0.00019552  1
  Cr  Cr4  1  0.16355839  0.49763068  0.16372141  1
  Cr  Cr5  1  0.99562295  0.33006231  0.32981527  1
  Ni  Ni6  1  0.99679788  0.66567373  0.99594211  1
  Cr  Cr7  1  0.16636252  0.83346896  0.16657776  1
  Cr  Cr8  1  0.99617983  0.66623601  0.33336534  1
  Ni  Ni9  1  0.33022509  -0.00066101  0.00063157  1
  Cr  Cr10  1  0.49885360  0.16071360  0.16379304  1
  Fe  Fe11  1  0.33421910  0.99793519  0.33211012  1
  Fe  Fe12  1  0.32969454  0.33075236  -0.00095500  1
  Cr  Cr13  1  0.49995814  0.50351370  0.16734493  1
  Cr  Cr14  1  0.33274318  0.33124812  0.33441094  1
  Cr  Cr15  1  0.33190833  0.66778186  0.99801816  1
  Ni  Ni16  1  0.50242179  0.83332215  0.16650058  1
  Ni  Ni17  1  0.33502500  0.66804305  0.33315817  1
  Ni  Ni18  1  0.66731254  0.99675754  0.00072882  1
  Ni  Ni19  1  0.83426867  0.16309517  0.16412574  1
  Ni  Ni20  1  0.66594800  0.99744515  0.33176179  1
  Cr  Cr21  1  0.66836013  0.33309566  0.00047427  1
  Ni  Ni22  1  0.83278134  0.50101407  0.16367623  1
  Cr  Cr23  1  0.66850613  0.33221669  0.33469946  1
  Ni  Ni24  1  0.66971474  0.66737457  0.00038649  1
  Ni  Ni25  1  0.82864537  0.83273857  0.16307617  1
  Ni  Ni26  1  0.66469398  0.66733571  0.33173111  1
  Fe  Fe27  1  0.16551589  0.16435627  0.49905242  1
  Fe  Fe28  1  0.99584123  0.99593179  0.66456720  1
  Cr  Cr29  1  0.16524129  0.16599535  0.83476976  1
  Cr  Cr30  1  0.16623843  0.50044852  0.49865184  1
  Cr  Cr31  1  0.99697702  0.33265592  0.66414354  1
  Ni  Ni32  1  0.16300845  0.50057214  0.83359571  1
  Fe  Fe33  1  0.16399663  0.83316315  0.49904579  1
  Fe  Fe34  1  0.99539124  0.66760684  0.66678148  1
  Ni  Ni35  1  0.16111168  0.83046166  0.83223216  1
  Ni  Ni36  1  0.50087739  0.16602859  0.50107084  1
  Cr  Cr37  1  0.33072190  0.99883544  0.66403485  1
  Cr  Cr38  1  0.50029036  0.16507478  0.83183621  1
  Ni  Ni39  1  0.50075187  0.49809697  0.50013452  1
  Fe  Fe40  1  0.33533973  0.33248913  0.66393747  1
  Cr  Cr41  1  0.49931826  0.49793431  0.83021749  1
  Cr  Cr42  1  0.50174380  0.83184061  0.49515097  1
  Cr  Cr43  1  0.33088387  0.66561631  0.66625227  1
  Cr  Cr44  1  0.50271394  0.83379362  0.83484496  1
  Ni  Ni45  1  0.83009016  0.16323849  0.50039430  1
  Ni  Ni46  1  0.66820334  -0.00012818  0.66427922  1
  Cr  Cr47  1  0.83109726  0.16251447  0.83229909  1
  Ni  Ni48  1  0.82966153  0.50041870  0.50081097  1
  Ni  Ni49  1  0.66625727  0.33282223  0.66187761  1
  Fe  Fe50  1  0.83370891  0.50209490  0.83207249  1
  Ni  Ni51  1  0.83178579  0.83319102  0.50162874  1
  Ni  Ni52  1  0.66887738  0.66400715  0.66479437  1
  Fe  Fe53  1  0.83379484  0.83061584  0.83288264  1
" 