7895,Ni44Fe26Cr28_5,-229.063338749171, 185.087261799311,Ni44Fe26Cr28,"# generated using pymatgen
 data_Cr8Fe7Ni12
_symmetry_space_group_name_H-M   'P 1'
_cell_length_a   7.46016924
_cell_length_b   7.46016924
_cell_length_c   10.55027252
_cell_angle_alpha   90.00000000
_cell_angle_beta   90.00000000
_cell_angle_gamma   90.00000000
_symmetry_Int_Tables_number   1
_chemical_formula_structural   Cr8Fe7Ni12
_chemical_formula_sum   'Cr16 Fe14 Ni24'
_cell_volume   587.16618619
_cell_formula_units_Z   2
loop_
 _symmetry_equiv_pos_site_id
 _symmetry_equiv_pos_as_xyz
  1  'x, y, z'
loop_
 _atom_site_type_symbol
 _atom_site_label
 _atom_site_symmetry_multiplicity
 _atom_site_fract_x
 _atom_site_fract_y
 _atom_site_fract_z
 _atom_site_occupancy
  Fe  Fe0  1  0.99721913  0.99840573  0.00098106  1
  Cr  Cr1  1  0.16641572  0.16593543  0.16785845  1
  Ni  Ni2  1  0.00196737  0.99692460  0.33159369  1
  Fe  Fe3  1  0.99601812  0.33250571  0.00199198  1
  Cr  Cr4  1  0.16702344  0.50170606  0.16642182  1
  Cr  Cr5  1  0.99666967  0.33505907  0.33645017  1
  Fe  Fe6  1  0.99834337  0.67068161  0.00199511  1
  Ni  Ni7  1  0.16633629  0.83332391  0.16889635  1
  Ni  Ni8  1  0.00072768  0.66909845  0.33365891  1
  Cr  Cr9  1  0.33546196  0.99889637  0.99861052  1
  Fe  Fe10  1  0.50380003  0.16557540  0.16855803  1
  Ni  Ni11  1  0.33449708  0.99896766  0.33373523  1
  Cr  Cr12  1  0.34067427  0.33334413  0.00168870  1
  Fe  Fe13  1  0.50372118  0.50044777  0.16892699  1
  Fe  Fe14  1  0.33558858  0.33409077  0.33508942  1
  Cr  Cr15  1  0.33473925  0.66929095  0.99943969  1
  Fe  Fe16  1  0.50197278  0.83526544  0.16846069  1
  Fe  Fe17  1  0.33292342  0.66701512  0.33452173  1
  Ni  Ni18  1  0.66901345  0.00235658  1.00007438  1
  Ni  Ni19  1  0.83103759  0.16636854  0.16602639  1
  Fe  Fe20  1  0.66752336  0.00234909  0.33097837  1
  Ni  Ni21  1  0.66853737  0.33176831  0.00124998  1
  Ni  Ni22  1  0.83202451  0.50069606  0.16818433  1
  Ni  Ni23  1  0.66413504  0.33483570  0.33262917  1
  Cr  Cr24  1  0.66686671  0.66698407  1.00035419  1
  Ni  Ni25  1  0.83328994  0.83448778  0.16783517  1
  Fe  Fe26  1  0.66793718  0.66570288  0.33250074  1
  Cr  Cr27  1  0.16991102  0.16671732  0.50058443  1
  Cr  Cr28  1  0.00081196  0.99929452  0.66794374  1
  Cr  Cr29  1  0.16637685  0.16908736  0.83341008  1
  Ni  Ni30  1  0.17002926  0.50206774  0.50071506  1
  Fe  Fe31  1  0.99961863  0.33574858  0.66573734  1
  Cr  Cr32  1  0.16853007  0.50028765  0.83462675  1
  Ni  Ni33  1  0.16872483  0.83152968  0.49792926  1
  Cr  Cr34  1  0.00068258  0.66891799  0.66549316  1
  Ni  Ni35  1  0.16730942  0.83355628  0.83405118  1
  Ni  Ni36  1  0.50106815  0.16890502  0.49953658  1
  Fe  Fe37  1  0.33661451  0.99946176  0.66739338  1
  Ni  Ni38  1  0.50344148  0.16726039  0.83239781  1
  Ni  Ni39  1  0.49996498  0.49979686  0.50002927  1
  Ni  Ni40  1  0.33853306  0.33469487  0.66556537  1
  Ni  Ni41  1  0.50089731  0.49995091  0.83236534  1
  Cr  Cr42  1  0.50120435  0.83387859  0.50113429  1
  Ni  Ni43  1  0.33501502  0.66646019  0.66752961  1
  Ni  Ni44  1  0.50203971  0.83394289  0.83133372  1
  Cr  Cr45  1  0.82978817  0.16620103  0.50124393  1
  Fe  Fe46  1  0.66488166  0.00081849  0.66981828  1
  Ni  Ni47  1  0.83063660  0.16635383  0.83532025  1
  Fe  Fe48  1  0.83052066  0.50104714  0.50014032  1
  Ni  Ni49  1  0.66388126  0.33374150  0.66745841  1
  Cr  Cr50  1  0.83223596  0.49917179  0.83356485  1
  Cr  Cr51  1  0.83160264  0.83348444  0.49800158  1
  Ni  Ni52  1  0.66464680  0.66453874  0.66775662  1
  Ni  Ni53  1  0.83146290  0.83589561  0.83510247  1
" 