1863,Ni44Fe18Cr36_12,-225.077296425972, 171.252413394645,Ni44Fe18Cr36,"# generated using pymatgen
 data_Cr21Fe10Ni23
_symmetry_space_group_name_H-M   'P 1'
_cell_length_a   7.48178141
_cell_length_b   7.48178141
_cell_length_c   10.58083674
_cell_angle_alpha   90.00000000
_cell_angle_beta   90.00000000
_cell_angle_gamma   90.00000000
_symmetry_Int_Tables_number   1
_chemical_formula_structural   Cr21Fe10Ni23
_chemical_formula_sum   'Cr21 Fe10 Ni23'
_cell_volume   592.28405990
_cell_formula_units_Z   1
loop_
 _symmetry_equiv_pos_site_id
 _symmetry_equiv_pos_as_xyz
  1  'x, y, z'
loop_
 _atom_site_type_symbol
 _atom_site_label
 _atom_site_symmetry_multiplicity
 _atom_site_fract_x
 _atom_site_fract_y
 _atom_site_fract_z
 _atom_site_occupancy
  Fe  Fe0  1  -0.00017379  -0.00007893  0.99679643  1
  Ni  Ni1  1  0.16868872  0.16298275  0.16404649  1
  Cr  Cr2  1  0.00025367  0.99529442  0.33112727  1
  Ni  Ni3  1  0.00043238  0.33111332  0.99693580  1
  Cr  Cr4  1  0.16543126  0.50039345  0.16506977  1
  Cr  Cr5  1  0.00184312  0.33346405  0.33110857  1
  Ni  Ni6  1  0.00051301  0.66863136  0.99860202  1
  Ni  Ni7  1  0.16686895  0.83581525  0.16215951  1
  Ni  Ni8  1  0.00158355  0.66922726  0.33578600  1
  Ni  Ni9  1  0.33157905  0.99878171  0.99668141  1
  Ni  Ni10  1  0.49637874  0.16294642  0.16839120  1
  Ni  Ni11  1  0.33337588  0.00069728  0.33355601  1
  Cr  Cr12  1  0.33282887  0.33089801  0.00165404  1
  Ni  Ni13  1  0.49919306  0.49875778  0.16432910  1
  Ni  Ni14  1  0.33593832  0.32939814  0.32998574  1
  Fe  Fe15  1  0.33463790  0.66706258  0.99763440  1
  Cr  Cr16  1  0.49739463  0.83438539  0.16407785  1
  Cr  Cr17  1  0.32957963  0.66656082  0.33105541  1
  Ni  Ni18  1  0.66358082  0.99793505  0.99650473  1
  Cr  Cr19  1  0.83201275  0.16423500  0.16459297  1
  Ni  Ni20  1  0.66203974  0.00094668  0.33459680  1
  Cr  Cr21  1  0.66251990  0.33147659  0.00037588  1
  Cr  Cr22  1  0.83136632  0.50024376  0.16535843  1
  Ni  Ni23  1  0.66027886  0.32917652  0.32967565  1
  Ni  Ni24  1  0.66568546  0.66789823  0.99593159  1
  Cr  Cr25  1  0.83166990  0.83242321  0.16401490  1
  Cr  Cr26  1  0.66617665  0.66720332  0.33367124  1
  Cr  Cr27  1  0.17042115  0.16704453  0.50071682  1
  Cr  Cr28  1  -0.00008067  0.99781869  0.66904730  1
  Ni  Ni29  1  0.16525671  0.16275513  0.83246289  1
  Fe  Fe30  1  0.16731491  0.50018581  0.49903206  1
  Fe  Fe31  1  0.99828754  0.33093247  0.66760326  1
  Cr  Cr32  1  0.16687194  0.49542148  0.83105561  1
  Ni  Ni33  1  0.16870983  0.83578516  0.49921182  1
  Cr  Cr34  1  -0.00082853  0.66877147  0.66057009  1
  Fe  Fe35  1  0.16815772  0.83157551  0.83518252  1
  Fe  Fe36  1  0.49922281  0.16400255  0.49820851  1
  Fe  Fe37  1  0.33428124  -0.00093100  0.66782424  1
  Fe  Fe38  1  0.49597361  0.16587266  0.83285468  1
  Cr  Cr39  1  0.49879490  0.49731252  0.50022626  1
  Ni  Ni40  1  0.33409747  0.32999426  0.66719576  1
  Ni  Ni41  1  0.50062611  0.50199457  0.83235988  1
  Ni  Ni42  1  0.49790079  0.83414343  0.49993881  1
  Cr  Cr43  1  0.33360924  0.66649490  0.66676718  1
  Ni  Ni44  1  0.50029508  0.83354642  0.83352144  1
  Cr  Cr45  1  0.83111372  0.16637734  0.49862382  1
  Cr  Cr46  1  0.66520953  0.99776761  0.66628658  1
  Fe  Fe47  1  0.83059599  0.16554985  0.83402640  1
  Cr  Cr48  1  0.83097002  0.49724895  0.49991800  1
  Ni  Ni49  1  0.66029100  0.33085749  0.66904631  1
  Cr  Cr50  1  0.83115811  0.49876797  0.83144625  1
  Ni  Ni51  1  0.83061674  0.83233130  0.49857442  1
  Ni  Ni52  1  0.66495424  0.66588746  0.66692999  1
  Fe  Fe53  1  0.83133059  0.83145119  0.83447901  1
" 