167,Ni44Fe49Cr5_10,-237.332557972863, 215.032098514672,Ni44Fe49Cr5,"# generated using pymatgen
 data_Cr2Fe13Ni12
_symmetry_space_group_name_H-M   'P 1'
_cell_length_a   7.41088115
_cell_length_b   7.41088115
_cell_length_c   10.48056863
_cell_angle_alpha   90.00000000
_cell_angle_beta   90.00000000
_cell_angle_gamma   90.00000000
_symmetry_Int_Tables_number   1
_chemical_formula_structural   Cr2Fe13Ni12
_chemical_formula_sum   'Cr4 Fe26 Ni24'
_cell_volume   575.60498085
_cell_formula_units_Z   2
loop_
 _symmetry_equiv_pos_site_id
 _symmetry_equiv_pos_as_xyz
  1  'x, y, z'
loop_
 _atom_site_type_symbol
 _atom_site_label
 _atom_site_symmetry_multiplicity
 _atom_site_fract_x
 _atom_site_fract_y
 _atom_site_fract_z
 _atom_site_occupancy
  Ni  Ni0  1  1.00282517  1.00317130  0.00446584  1
  Ni  Ni1  1  0.17203803  0.17111783  0.17148979  1
  Fe  Fe2  1  0.00642965  1.00256098  0.33800307  1
  Ni  Ni3  1  0.00472810  0.33599855  1.00202057  1
  Fe  Fe4  1  0.17240021  0.50438426  0.17071417  1
  Fe  Fe5  1  0.00799761  0.33700450  0.33847635  1
  Fe  Fe6  1  0.00472503  0.67105729  1.00304991  1
  Fe  Fe7  1  0.17080410  0.83685323  0.17081109  1
  Ni  Ni8  1  0.00540589  0.67165662  0.33682897  1
  Fe  Fe9  1  0.33627288  0.00445235  0.00434629  1
  Fe  Fe10  1  0.50076486  0.17025084  0.16951640  1
  Ni  Ni11  1  0.33595370  1.00324067  0.33661152  1
  Ni  Ni12  1  0.33788494  0.33813505  0.00537632  1
  Ni  Ni13  1  0.50104828  0.50606479  0.16985959  1
  Fe  Fe14  1  0.33507633  0.33711608  0.33727985  1
  Ni  Ni15  1  0.33755787  0.66970735  0.00429137  1
  Ni  Ni16  1  0.50362743  0.83481305  0.17007823  1
  Ni  Ni17  1  0.33581290  0.67065348  0.33683377  1
  Fe  Fe18  1  0.66974920  1.00247209  1.00326879  1
  Cr  Cr19  1  0.84078784  0.16841347  0.16887735  1
  Cr  Cr20  1  0.67025025  1.00345874  0.33758921  1
  Fe  Fe21  1  0.66879776  0.33743337  1.00231855  1
  Cr  Cr22  1  0.83752640  0.50692328  0.17017820  1
  Cr  Cr23  1  0.66893403  0.33696459  0.33800173  1
  Fe  Fe24  1  0.66953797  0.67145729  1.00337955  1
  Ni  Ni25  1  0.83659881  0.83588409  0.16956747  1
  Fe  Fe26  1  0.66933380  0.67221023  0.33712202  1
  Ni  Ni27  1  0.17058824  0.17200931  0.50334322  1
  Ni  Ni28  1  1.00256523  1.00284685  0.66942642  1
  Ni  Ni29  1  0.17029170  0.17180908  0.83653630  1
  Ni  Ni30  1  0.17088452  0.50254696  0.50338719  1
  Fe  Fe31  1  0.00471064  0.33722182  0.67046057  1
  Fe  Fe32  1  0.17092819  0.50445454  0.83669811  1
  Fe  Fe33  1  0.16997195  0.83749104  0.50371006  1
  Ni  Ni34  1  0.00447384  0.67209658  0.67133541  1
  Fe  Fe35  1  0.17024860  0.83728580  0.83684617  1
  Ni  Ni36  1  0.50156812  0.17066969  0.50526987  1
  Fe  Fe37  1  0.33683844  0.00433671  0.66998869  1
  Fe  Fe38  1  0.50380871  0.17027735  0.83636537  1
  Fe  Fe39  1  0.50275131  0.50343722  0.50453522  1
  Ni  Ni40  1  0.33905997  0.33779567  0.66971104  1
  Fe  Fe41  1  0.50324028  0.50399954  0.83744706  1
  Fe  Fe42  1  0.50226394  0.83714514  0.50418467  1
  Ni  Ni43  1  0.33641742  0.66995364  0.67024025  1
  Ni  Ni44  1  0.50482995  0.83612678  0.83662654  1
  Ni  Ni45  1  0.83921760  0.16983072  0.50593817  1
  Fe  Fe46  1  0.67063909  1.00343957  0.67003547  1
  Fe  Fe47  1  0.83739477  0.16959851  0.83701263  1
  Fe  Fe48  1  0.83849261  0.50364748  0.50446131  1
  Ni  Ni49  1  0.66970534  0.33587971  0.67086135  1
  Fe  Fe50  1  0.83720546  0.50391028  0.83718573  1
  Ni  Ni51  1  0.83692487  0.83615909  0.50383233  1
  Fe  Fe52  1  0.67073170  0.67072150  0.67086681  1
  Ni  Ni53  1  0.83600927  0.83648485  0.83796884  1
" 