4002,Ni44Fe56_10,-242.350164490343, 224.99821379572,Ni44Fe56,"# generated using pymatgen
 data_Fe23Ni31
_symmetry_space_group_name_H-M   'P 1'
_cell_length_a   7.40503230
_cell_length_b   7.40503230
_cell_length_c   10.47229711
_cell_angle_alpha   90.00000000
_cell_angle_beta   90.00000000
_cell_angle_gamma   90.00000000
_symmetry_Int_Tables_number   1
_chemical_formula_structural   Fe23Ni31
_chemical_formula_sum   'Fe23 Ni31'
_cell_volume   574.24321116
_cell_formula_units_Z   1
loop_
 _symmetry_equiv_pos_site_id
 _symmetry_equiv_pos_as_xyz
  1  'x, y, z'
loop_
 _atom_site_type_symbol
 _atom_site_label
 _atom_site_symmetry_multiplicity
 _atom_site_fract_x
 _atom_site_fract_y
 _atom_site_fract_z
 _atom_site_occupancy
  Ni  Ni0  1  1.00360171  0.00515755  0.00424166  1
  Fe  Fe1  1  0.17228343  0.16956150  0.17018031  1
  Fe  Fe2  1  0.00526450  1.00312659  0.33674538  1
  Fe  Fe3  1  1.00287584  0.33740820  1.00320323  1
  Fe  Fe4  1  0.17008446  0.50465703  0.17211945  1
  Fe  Fe5  1  1.00334716  0.33730649  0.33906854  1
  Fe  Fe6  1  0.00518659  0.67361576  0.00445331  1
  Ni  Ni7  1  0.17157725  0.83769289  0.17200914  1
  Ni  Ni8  1  1.00335471  0.66952227  0.33768424  1
  Ni  Ni9  1  0.33721266  1.00402306  1.00278381  1
  Fe  Fe10  1  0.50391828  0.16862032  0.16950234  1
  Ni  Ni11  1  0.33915692  0.00530599  0.33798357  1
  Ni  Ni12  1  0.33512583  0.33888833  1.00344309  1
  Ni  Ni13  1  0.50305491  0.50328046  0.17174618  1
  Ni  Ni14  1  0.33600358  0.33708894  0.33778073  1
  Ni  Ni15  1  0.33748355  0.66927495  0.00461353  1
  Ni  Ni16  1  0.50323892  0.83507236  0.17032166  1
  Ni  Ni17  1  0.33722686  0.67027999  0.33687941  1
  Ni  Ni18  1  0.67244481  1.00296498  1.00411785  1
  Ni  Ni19  1  0.83791558  0.17217565  0.17071353  1
  Ni  Ni20  1  0.67157656  0.00427720  0.33624942  1
  Fe  Fe21  1  0.66840998  0.33731995  1.00331816  1
  Fe  Fe22  1  0.83571007  0.50714521  0.16995135  1
  Fe  Fe23  1  0.66907430  0.33823465  0.33848744  1
  Ni  Ni24  1  0.67184250  0.67180079  1.00309399  1
  Ni  Ni25  1  0.83857064  0.83976137  0.17123950  1
  Ni  Ni26  1  0.67180292  0.67201984  0.33827431  1
  Fe  Fe27  1  0.17140882  0.17322048  0.50435711  1
  Fe  Fe28  1  0.00510185  0.00586703  0.67192135  1
  Fe  Fe29  1  0.17031014  0.17139001  0.83808425  1
  Ni  Ni30  1  0.17280115  0.50576134  0.50406378  1
  Ni  Ni31  1  0.00436374  0.33733898  0.67101893  1
  Fe  Fe32  1  0.16955910  0.50455305  0.83641357  1
  Fe  Fe33  1  0.17161381  0.83693457  0.50355208  1
  Fe  Fe34  1  1.00386197  0.66958252  0.67031263  1
  Ni  Ni35  1  0.17167455  0.83718771  0.83711285  1
  Fe  Fe36  1  0.50452970  0.17167478  0.50548140  1
  Fe  Fe37  1  0.33882474  0.00563879  0.67172013  1
  Ni  Ni38  1  0.50467983  0.17269845  0.83724700  1
  Ni  Ni39  1  0.50269146  0.50442123  0.50434531  1
  Ni  Ni40  1  0.33629072  0.33892950  0.67132843  1
  Ni  Ni41  1  0.50275507  0.50311933  0.83666254  1
  Fe  Fe42  1  0.50439137  0.83745053  0.50307595  1
  Ni  Ni43  1  0.33712849  0.67119790  0.67116099  1
  Fe  Fe44  1  0.50607653  0.83745814  0.83861131  1
  Ni  Ni45  1  0.83796537  0.16824854  0.50425077  1
  Ni  Ni46  1  0.67255786  1.00280315  0.67198416  1
  Ni  Ni47  1  0.83677734  0.17063325  0.83775678  1
  Fe  Fe48  1  0.83793717  0.50271349  0.50531610  1
  Ni  Ni49  1  0.67157811  0.33536729  0.67046691  1
  Ni  Ni50  1  0.83604097  0.50348877  0.83708162  1
  Fe  Fe51  1  0.83705902  0.83641628  0.50408565  1
  Fe  Fe52  1  0.66965616  0.66841848  0.67162035  1
  Ni  Ni53  1  0.84113872  0.83802241  0.83688120  1
" 