1317,Ni44Fe18Cr36_3,-225.355654361871, 174.621963514626,Ni44Fe18Cr36,"# generated using pymatgen
 data_Cr21Fe10Ni23
_symmetry_space_group_name_H-M   'P 1'
_cell_length_a   7.48248873
_cell_length_b   7.48248873
_cell_length_c   10.58183704
_cell_angle_alpha   90.00000000
_cell_angle_beta   90.00000000
_cell_angle_gamma   90.00000000
_symmetry_Int_Tables_number   1
_chemical_formula_structural   Cr21Fe10Ni23
_chemical_formula_sum   'Cr21 Fe10 Ni23'
_cell_volume   592.45205752
_cell_formula_units_Z   1
loop_
 _symmetry_equiv_pos_site_id
 _symmetry_equiv_pos_as_xyz
  1  'x, y, z'
loop_
 _atom_site_type_symbol
 _atom_site_label
 _atom_site_symmetry_multiplicity
 _atom_site_fract_x
 _atom_site_fract_y
 _atom_site_fract_z
 _atom_site_occupancy
  Fe  Fe0  1  0.99819849  0.00209751  -0.00037812  1
  Ni  Ni1  1  0.16254899  0.16669907  0.16608206  1
  Fe  Fe2  1  0.99647279  0.00320084  0.33208774  1
  Cr  Cr3  1  0.99720527  0.33148930  0.99796873  1
  Cr  Cr4  1  0.16857227  0.49668876  0.16475716  1
  Ni  Ni5  1  0.99719426  0.33009357  0.33491383  1
  Cr  Cr6  1  0.99543811  0.66736866  0.99754835  1
  Fe  Fe7  1  0.16075832  0.83788953  0.16699987  1
  Cr  Cr8  1  0.99706335  0.66152142  0.33237456  1
  Cr  Cr9  1  0.33227568  0.00267010  0.99894093  1
  Ni  Ni10  1  0.50133068  0.16811520  0.16397692  1
  Cr  Cr11  1  0.33630040  0.00226837  0.33345837  1
  Ni  Ni12  1  0.33349555  0.32664903  -0.00073112  1
  Fe  Fe13  1  0.50352102  0.49256562  0.16599266  1
  Cr  Cr14  1  0.33414234  0.32877948  0.33459972  1
  Cr  Cr15  1  0.33396865  0.66817832  0.00409955  1
  Cr  Cr16  1  0.50160906  0.83351473  0.16917844  1
  Cr  Cr17  1  0.33317375  0.66589962  0.33256161  1
  Cr  Cr18  1  0.66350779  -0.00008235  0.99702367  1
  Ni  Ni19  1  0.83161306  0.16515878  0.16806608  1
  Ni  Ni20  1  0.66538793  0.00287296  0.33305744  1
  Ni  Ni21  1  0.66477353  0.33039950  0.00227334  1
  Ni  Ni22  1  0.83212577  0.49582570  0.16622602  1
  Ni  Ni23  1  0.66853825  0.32770107  0.33121220  1
  Cr  Cr24  1  0.66838561  0.66528054  0.99874651  1
  Ni  Ni25  1  0.83344023  0.83679436  0.16551960  1
  Cr  Cr26  1  0.66618140  0.66426503  0.33346214  1
  Fe  Fe27  1  0.16712948  0.16480645  0.50044638  1
  Ni  Ni28  1  -0.00026673  0.00185215  0.66594837  1
  Ni  Ni29  1  0.16526587  0.16521244  0.82959002  1
  Ni  Ni30  1  0.16857689  0.49628584  0.50060895  1
  Cr  Cr31  1  0.99780647  0.33147087  0.66106008  1
  Cr  Cr32  1  0.17100337  0.49591346  0.83088190  1
  Cr  Cr33  1  0.16614222  0.83215095  0.49905005  1
  Cr  Cr34  1  0.99508707  0.66227424  0.66602532  1
  Cr  Cr35  1  0.16706299  0.83414307  0.83168798  1
  Ni  Ni36  1  0.50560701  0.16632606  0.50268373  1
  Ni  Ni37  1  0.33458095  0.00088218  0.66534242  1
  Fe  Fe38  1  0.49627831  0.16610950  0.82996048  1
  Ni  Ni39  1  0.49840358  0.49708284  0.49985224  1
  Fe  Fe40  1  0.33567617  0.33001259  0.66352822  1
  Cr  Cr41  1  0.49903462  0.49674585  0.83417424  1
  Ni  Ni42  1  0.50007619  0.83291605  0.50238869  1
  Ni  Ni43  1  0.33485481  0.66720485  0.66207622  1
  Ni  Ni44  1  0.50054763  0.83141803  0.82613432  1
  Ni  Ni45  1  0.83061195  0.16758003  0.49676933  1
  Ni  Ni46  1  0.66235072  0.00042218  0.66578390  1
  Cr  Cr47  1  0.82941868  0.16483412  0.83133633  1
  Fe  Fe48  1  0.82699802  0.49660537  0.49803322  1
  Ni  Ni49  1  0.66514954  0.33215503  0.66399575  1
  Fe  Fe50  1  0.82891954  0.49660776  0.83133718  1
  Cr  Cr51  1  0.82852532  0.84095683  0.50151853  1
  Ni  Ni52  1  0.66206877  0.66452567  0.66568692  1
  Fe  Fe53  1  0.83014991  0.83388273  0.82836283  1
" 