4436,Ni44Fe56_2,-242.071678131742, 225.065268781001,Ni44Fe56,"# generated using pymatgen
 data_Fe23Ni31
_symmetry_space_group_name_H-M   'P 1'
_cell_length_a   7.40503203
_cell_length_b   7.40503203
_cell_length_c   10.47229672
_cell_angle_alpha   90.00000000
_cell_angle_beta   90.00000000
_cell_angle_gamma   90.00000000
_symmetry_Int_Tables_number   1
_chemical_formula_structural   Fe23Ni31
_chemical_formula_sum   'Fe23 Ni31'
_cell_volume   574.24314752
_cell_formula_units_Z   1
loop_
 _symmetry_equiv_pos_site_id
 _symmetry_equiv_pos_as_xyz
  1  'x, y, z'
loop_
 _atom_site_type_symbol
 _atom_site_label
 _atom_site_symmetry_multiplicity
 _atom_site_fract_x
 _atom_site_fract_y
 _atom_site_fract_z
 _atom_site_occupancy
  Fe  Fe0  1  0.00479630  1.00292404  0.00530277  1
  Ni  Ni1  1  0.17071658  0.17071117  0.17099524  1
  Ni  Ni2  1  1.00361051  1.00403428  0.33817811  1
  Fe  Fe3  1  0.00433490  0.33910993  1.00385889  1
  Fe  Fe4  1  0.17030581  0.50466135  0.17057104  1
  Fe  Fe5  1  1.00379584  0.33777804  0.33834749  1
  Ni  Ni6  1  1.00364238  0.67148130  1.00373513  1
  Ni  Ni7  1  0.17180373  0.83778912  0.17085802  1
  Ni  Ni8  1  1.00313204  0.67206919  0.33796474  1
  Fe  Fe9  1  0.33751920  1.00288490  0.00425654  1
  Fe  Fe10  1  0.50415543  0.17052523  0.17078231  1
  Fe  Fe11  1  0.33687168  1.00346076  0.33773539  1
  Ni  Ni12  1  0.33744235  0.33746382  1.00296914  1
  Fe  Fe13  1  0.50440408  0.50469169  0.17017021  1
  Ni  Ni14  1  0.33745518  0.33679491  0.33849297  1
  Ni  Ni15  1  0.33777816  0.67000388  0.00494200  1
  Ni  Ni16  1  0.50359467  0.83730749  0.17018163  1
  Fe  Fe17  1  0.33690649  0.67167713  0.33794773  1
  Fe  Fe18  1  0.67024769  1.00299587  1.00357582  1
  Ni  Ni19  1  0.83796038  0.17215359  0.17074670  1
  Fe  Fe20  1  0.67114398  1.00382591  0.33806029  1
  Fe  Fe21  1  0.67063737  0.33911245  1.00396905  1
  Ni  Ni22  1  0.83747808  0.50377635  0.17052020  1
  Fe  Fe23  1  0.67208005  0.33781227  0.33773546  1
  Ni  Ni24  1  0.67114058  0.67180875  1.00321913  1
  Ni  Ni25  1  0.83716107  0.83664027  0.17139704  1
  Ni  Ni26  1  0.67161980  0.67160785  0.33804967  1
  Ni  Ni27  1  0.17101367  0.17103030  0.50446884  1
  Fe  Fe28  1  0.00444438  1.00406846  0.67016518  1
  Fe  Fe29  1  0.17128182  0.17142299  0.83766180  1
  Ni  Ni30  1  0.16955275  0.50428872  0.50356519  1
  Ni  Ni31  1  0.00468986  0.33694669  0.67050582  1
  Ni  Ni32  1  0.17033444  0.50459231  0.83815107  1
  Ni  Ni33  1  0.17215167  0.83724173  0.50384749  1
  Fe  Fe34  1  0.00443686  0.67053332  0.67113929  1
  Ni  Ni35  1  0.17134281  0.83684580  0.83786338  1
  Ni  Ni36  1  0.50439105  0.16988614  0.50340803  1
  Fe  Fe37  1  0.33784051  1.00394126  0.67057094  1
  Ni  Ni38  1  0.50411329  0.17076459  0.83796616  1
  Fe  Fe39  1  0.50335999  0.50386290  0.50423140  1
  Fe  Fe40  1  0.33755898  0.33734029  0.67085304  1
  Ni  Ni41  1  0.50441898  0.50380359  0.83720498  1
  Ni  Ni42  1  0.50326609  0.83837343  0.50444286  1
  Ni  Ni43  1  0.33776297  0.67043660  0.67075289  1
  Ni  Ni44  1  0.50376813  0.83799084  0.83793898  1
  Ni  Ni45  1  0.83715998  0.17248472  0.50397826  1
  Ni  Ni46  1  0.67108410  0.00420244  0.67052056  1
  Fe  Fe47  1  0.83702130  0.17070909  0.83687938  1
  Ni  Ni48  1  0.83828997  0.50316563  0.50418297  1
  Fe  Fe49  1  0.67102407  0.33734825  0.67085363  1
  Ni  Ni50  1  0.83781032  0.50424493  0.83785963  1
  Fe  Fe51  1  0.83791952  0.83813554  0.50369152  1
  Fe  Fe52  1  0.67089405  0.67081603  0.67128384  1
  Ni  Ni53  1  0.83745340  0.83654118  0.83756947  1
" 