5787,Ni44Fe56_7,-242.089398142345, 224.388019968608,Ni44Fe56,"# generated using pymatgen
 data_Fe23Ni31
_symmetry_space_group_name_H-M   'P 1'
_cell_length_a   7.40270132
_cell_length_b   7.40270132
_cell_length_c   10.46900061
_cell_angle_alpha   90.00000000
_cell_angle_beta   90.00000000
_cell_angle_gamma   90.00000000
_symmetry_Int_Tables_number   1
_chemical_formula_structural   Fe23Ni31
_chemical_formula_sum   'Fe23 Ni31'
_cell_volume   573.70109624
_cell_formula_units_Z   1
loop_
 _symmetry_equiv_pos_site_id
 _symmetry_equiv_pos_as_xyz
  1  'x, y, z'
loop_
 _atom_site_type_symbol
 _atom_site_label
 _atom_site_symmetry_multiplicity
 _atom_site_fract_x
 _atom_site_fract_y
 _atom_site_fract_z
 _atom_site_occupancy
  Ni  Ni0  1  0.00474157  0.00519257  0.00445122  1
  Ni  Ni1  1  0.17198160  0.17082846  0.17072937  1
  Fe  Fe2  1  0.00442710  1.00396748  0.33732992  1
  Ni  Ni3  1  1.00388802  0.33750251  0.00497387  1
  Fe  Fe4  1  0.16995342  0.50418970  0.17117128  1
  Ni  Ni5  1  0.00538597  0.33793199  0.33787770  1
  Ni  Ni6  1  0.00436274  0.67034147  0.00471771  1
  Ni  Ni7  1  0.16952538  0.83823784  0.17024515  1
  Ni  Ni8  1  1.00330642  0.67021418  0.33787113  1
  Ni  Ni9  1  0.33823994  0.00435582  0.00446188  1
  Ni  Ni10  1  0.50303049  0.17242802  0.17094819  1
  Fe  Fe11  1  0.33679258  1.00428560  0.33737673  1
  Fe  Fe12  1  0.33820623  0.33715406  0.00485367  1
  Fe  Fe13  1  0.50451863  0.50455640  0.17102697  1
  Ni  Ni14  1  0.33665897  0.33633566  0.33777302  1
  Ni  Ni15  1  0.33786010  0.67193871  0.00493225  1
  Fe  Fe16  1  0.50449977  0.83806691  0.17041954  1
  Fe  Fe17  1  0.33716927  0.67027200  0.33836386  1
  Ni  Ni18  1  0.67006069  0.00483058  0.00456045  1
  Fe  Fe19  1  0.83848859  0.17088564  0.17092336  1
  Fe  Fe20  1  0.67182098  1.00433034  0.33813875  1
  Ni  Ni21  1  0.67165623  0.33712721  0.00498684  1
  Ni  Ni22  1  0.83765192  0.50520140  0.17083301  1
  Fe  Fe23  1  0.67136055  0.33871974  0.33725220  1
  Ni  Ni24  1  0.67081676  0.67108174  1.00387809  1
  Ni  Ni25  1  0.83924880  0.83614636  0.17098813  1
  Ni  Ni26  1  0.67185044  0.67180950  0.33824671  1
  Fe  Fe27  1  0.17121759  0.17043267  0.50353992  1
  Fe  Fe28  1  1.00389547  1.00250987  0.67083359  1
  Fe  Fe29  1  0.17196791  0.17029055  0.83855596  1
  Fe  Fe30  1  0.17065465  0.50536829  0.50419876  1
  Fe  Fe31  1  1.00419876  0.33774235  0.67070965  1
  Fe  Fe32  1  0.17166384  0.50537351  0.83766983  1
  Ni  Ni33  1  0.17036649  0.83749224  0.50493151  1
  Ni  Ni34  1  1.00406682  0.67022172  0.67044878  1
  Fe  Fe35  1  0.17241061  0.83737462  0.83782518  1
  Fe  Fe36  1  0.50457647  0.16969537  0.50448653  1
  Ni  Ni37  1  0.33907403  0.00456460  0.67033611  1
  Ni  Ni38  1  0.50368066  0.17202910  0.83701249  1
  Ni  Ni39  1  0.50395104  0.50422916  0.50449672  1
  Fe  Fe40  1  0.33885613  0.33849378  0.67064799  1
  Ni  Ni41  1  0.50404414  0.50369547  0.83844225  1
  Ni  Ni42  1  0.50396216  0.83626078  0.50460670  1
  Ni  Ni43  1  0.33785929  0.67182250  0.66970112  1
  Ni  Ni44  1  0.50490483  0.83731952  0.83806578  1
  Ni  Ni45  1  0.83834926  0.17094465  0.50388028  1
  Ni  Ni46  1  0.66953755  1.00419393  0.67070071  1
  Fe  Fe47  1  0.83598825  0.17056854  0.83761400  1
  Fe  Fe48  1  0.83760188  0.50587725  0.50346000  1
  Fe  Fe49  1  0.66998199  0.33811284  0.67151193  1
  Fe  Fe50  1  0.83637394  0.50501275  0.83871683  1
  Ni  Ni51  1  0.83870678  0.83798314  0.50445376  1
  Ni  Ni52  1  0.67111248  0.67183120  0.67091808  1
  Ni  Ni53  1  0.83818515  0.83731901  0.83759585  1
" 