4139,Ni44Fe56_11,-241.856058081494, 224.059647277553,Ni44Fe56,"# generated using pymatgen
 data_Fe23Ni31
_symmetry_space_group_name_H-M   'P 1'
_cell_length_a   7.40117226
_cell_length_b   7.40117226
_cell_length_c   10.46683818
_cell_angle_alpha   90.00000000
_cell_angle_beta   90.00000000
_cell_angle_gamma   90.00000000
_symmetry_Int_Tables_number   1
_chemical_formula_structural   Fe23Ni31
_chemical_formula_sum   'Fe23 Ni31'
_cell_volume   573.34566684
_cell_formula_units_Z   1
loop_
 _symmetry_equiv_pos_site_id
 _symmetry_equiv_pos_as_xyz
  1  'x, y, z'
loop_
 _atom_site_type_symbol
 _atom_site_label
 _atom_site_symmetry_multiplicity
 _atom_site_fract_x
 _atom_site_fract_y
 _atom_site_fract_z
 _atom_site_occupancy
  Ni  Ni0  1  1.00408126  1.00417566  0.00456295  1
  Ni  Ni1  1  0.17111606  0.17061188  0.17103110  1
  Fe  Fe2  1  0.00505132  1.00438823  0.33773475  1
  Ni  Ni3  1  0.00473615  0.33812905  1.00441639  1
  Ni  Ni4  1  0.17161473  0.50453053  0.17116502  1
  Fe  Fe5  1  0.00474636  0.33760502  0.33755022  1
  Ni  Ni6  1  0.00453789  0.67104553  1.00441297  1
  Ni  Ni7  1  0.17146491  0.83820786  0.17088339  1
  Ni  Ni8  1  0.00489279  0.67099614  0.33778338  1
  Fe  Fe9  1  0.33753752  0.00466658  0.00480598  1
  Fe  Fe10  1  0.50424305  0.17147760  0.17114880  1
  Ni  Ni11  1  0.33816959  0.00468461  0.33793402  1
  Ni  Ni12  1  0.33774795  0.33797785  1.00436879  1
  Ni  Ni13  1  0.50456992  0.50453466  0.17090516  1
  Ni  Ni14  1  0.33766858  0.33781790  0.33812906  1
  Fe  Fe15  1  0.33778913  0.67068882  0.00447754  1
  Fe  Fe16  1  0.50436048  0.83775605  0.17127283  1
  Ni  Ni17  1  0.33686344  0.67084949  0.33769565  1
  Ni  Ni18  1  0.67136835  0.00462793  1.00441325  1
  Ni  Ni19  1  0.83781663  0.17110721  0.17094521  1
  Ni  Ni20  1  0.67109498  0.00484232  0.33782522  1
  Ni  Ni21  1  0.67086631  0.33752484  0.00461004  1
  Ni  Ni22  1  0.83716565  0.50418546  0.17073089  1
  Fe  Fe23  1  0.67097146  0.33796284  0.33778908  1
  Ni  Ni24  1  0.67152038  0.67119914  1.00421918  1
  Fe  Fe25  1  0.83814384  0.83760769  0.17086947  1
  Fe  Fe26  1  0.67079144  0.67108637  0.33757721  1
  Ni  Ni27  1  0.17136469  0.17047501  0.50442438  1
  Fe  Fe28  1  1.00423668  1.00420427  0.67101656  1
  Fe  Fe29  1  0.17091396  0.17162896  0.83805999  1
  Fe  Fe30  1  0.17057525  0.50475822  0.50442316  1
  Fe  Fe31  1  1.00417328  0.33799717  0.67116749  1
  Ni  Ni32  1  0.17153563  0.50436345  0.83784907  1
  Ni  Ni33  1  0.17136429  0.83834437  0.50468182  1
  Ni  Ni34  1  0.00506656  0.67108211  0.67115373  1
  Fe  Fe35  1  0.17077984  0.83693929  0.83768880  1
  Fe  Fe36  1  0.50481483  0.17075596  0.50442346  1
  Fe  Fe37  1  0.33775357  1.00426585  0.67069701  1
  Fe  Fe38  1  0.50493161  0.17156643  0.83778039  1
  Fe  Fe39  1  0.50441542  0.50438774  0.50448416  1
  Fe  Fe40  1  0.33790796  0.33802682  0.67127213  1
  Ni  Ni41  1  0.50452107  0.50436181  0.83780637  1
  Fe  Fe42  1  0.50456526  0.83820733  0.50435910  1
  Ni  Ni43  1  0.33685903  0.67092933  0.67098178  1
  Fe  Fe44  1  0.50481690  0.83725169  0.83771815  1
  Ni  Ni45  1  0.83777566  0.17097614  0.50472552  1
  Ni  Ni46  1  0.67127039  0.00510719  0.67111236  1
  Fe  Fe47  1  0.83750472  0.17146692  0.83793761  1
  Ni  Ni48  1  0.83712324  0.50452772  0.50468184  1
  Ni  Ni49  1  0.67111630  0.33700978  0.67110829  1
  Ni  Ni50  1  0.83729493  0.50471418  0.83793762  1
  Ni  Ni51  1  0.83777918  0.83784707  0.50429160  1
  Fe  Fe52  1  0.67132907  0.67099411  0.67144687  1
  Ni  Ni53  1  0.83759845  0.83784174  0.83783116  1
" 