2584,Ni44Fe24Cr30_12,-228.204736522588, 184.593876885066,Ni44Fe24Cr30,"# generated using pymatgen
 data_Cr17Fe13Ni24
_symmetry_space_group_name_H-M   'P 1'
_cell_length_a   7.45850266
_cell_length_b   7.45850266
_cell_length_c   10.54791561
_cell_angle_alpha   90.00000000
_cell_angle_beta   90.00000000
_cell_angle_gamma   90.00000000
_symmetry_Int_Tables_number   1
_chemical_formula_structural   Cr17Fe13Ni24
_chemical_formula_sum   'Cr17 Fe13 Ni24'
_cell_volume   586.77276005
_cell_formula_units_Z   1
loop_
 _symmetry_equiv_pos_site_id
 _symmetry_equiv_pos_as_xyz
  1  'x, y, z'
loop_
 _atom_site_type_symbol
 _atom_site_label
 _atom_site_symmetry_multiplicity
 _atom_site_fract_x
 _atom_site_fract_y
 _atom_site_fract_z
 _atom_site_occupancy
  Fe  Fe0  1  0.00223037  0.99860070  0.00100636  1
  Ni  Ni1  1  0.16987450  0.16630425  0.16846798  1
  Ni  Ni2  1  0.00317378  0.00081752  0.33312119  1
  Cr  Cr3  1  0.00154990  0.33618461  1.00012160  1
  Fe  Fe4  1  0.16784544  0.49955722  0.16826734  1
  Ni  Ni5  1  0.00181150  0.33427476  0.33378651  1
  Ni  Ni6  1  0.99940205  0.66746378  0.99974372  1
  Fe  Fe7  1  0.16741338  0.83527165  0.16862207  1
  Ni  Ni8  1  0.00116725  0.66662574  0.33337453  1
  Ni  Ni9  1  0.33405837  0.00250842  0.00194208  1
  Ni  Ni10  1  0.49603897  0.16689772  0.16674487  1
  Ni  Ni11  1  0.33320656  0.99872996  0.33426904  1
  Ni  Ni12  1  0.33469403  0.33327830  0.00081337  1
  Ni  Ni13  1  0.49983353  0.50135445  0.16807388  1
  Fe  Fe14  1  0.33209947  0.33334417  0.33200319  1
  Cr  Cr15  1  0.33262861  0.66594855  0.00182583  1
  Fe  Fe16  1  0.50004052  0.83494720  0.16971029  1
  Ni  Ni17  1  0.33474846  0.66917724  0.33358119  1
  Cr  Cr18  1  0.66658482  1.00054183  1.00022797  1
  Cr  Cr19  1  0.83578389  0.16536068  0.16962182  1
  Ni  Ni20  1  0.66533752  0.99808750  0.33270358  1
  Cr  Cr21  1  0.66549278  0.33455938  0.99803804  1
  Fe  Fe22  1  0.83451875  0.50322067  0.16849253  1
  Cr  Cr23  1  0.66820598  0.33496974  0.33449017  1
  Fe  Fe24  1  0.66889490  0.66587566  1.00045554  1
  Fe  Fe25  1  0.83426215  0.83229378  0.16816376  1
  Ni  Ni26  1  0.66580213  0.66781205  0.33334034  1
  Ni  Ni27  1  0.16832424  0.16492500  0.49946756  1
  Ni  Ni28  1  0.00176533  0.99960398  0.66787969  1
  Cr  Cr29  1  0.16956098  0.16759308  0.83375885  1
  Cr  Cr30  1  0.16654433  0.49989908  0.49925266  1
  Cr  Cr31  1  0.00072289  0.33415403  0.66755031  1
  Ni  Ni32  1  0.16709043  0.49921993  0.83488401  1
  Ni  Ni33  1  0.16833558  0.83659598  0.50019032  1
  Fe  Fe34  1  0.99799220  0.66765425  0.66841149  1
  Cr  Cr35  1  0.16388923  0.83441508  0.83324434  1
  Cr  Cr36  1  0.49674934  0.16611524  0.49983136  1
  Fe  Fe37  1  0.33229225  0.00196233  0.66508307  1
  Fe  Fe38  1  0.49883744  0.16972185  0.83461866  1
  Fe  Fe39  1  0.50112805  0.50362692  0.50012596  1
  Ni  Ni40  1  0.33425142  0.33415135  0.66884381  1
  Ni  Ni41  1  0.50163257  0.49847307  0.83323517  1
  Ni  Ni42  1  0.49937765  0.83254739  0.49825904  1
  Cr  Cr43  1  0.33434807  0.66679699  0.66598795  1
  Cr  Cr44  1  0.50262839  0.83348364  0.83402881  1
  Cr  Cr45  1  0.83710995  0.16737205  0.49849526  1
  Cr  Cr46  1  0.66800510  0.99940693  0.66835868  1
  Fe  Fe47  1  0.83414402  0.16624448  0.83356558  1
  Ni  Ni48  1  0.83319997  0.50343421  0.49942759  1
  Cr  Cr49  1  0.66677661  0.33640834  0.66919069  1
  Ni  Ni50  1  0.83299302  0.50437527  0.83421271  1
  Cr  Cr51  1  0.83393220  0.83122080  0.49997435  1
  Ni  Ni52  1  0.66771081  0.66595430  0.66780455  1
  Ni  Ni53  1  0.83489130  0.83156986  0.83424170  1
" 