4230,Ni44Fe49Cr5_0,-237.749317737678, 212.791565037716,Ni44Fe49Cr5,"# generated using pymatgen
 data_Cr2Fe13Ni12
_symmetry_space_group_name_H-M   'P 1'
_cell_length_a   7.41720721
_cell_length_b   7.41720721
_cell_length_c   10.48951504
_cell_angle_alpha   90.00000000
_cell_angle_beta   90.00000000
_cell_angle_gamma   90.00000000
_symmetry_Int_Tables_number   1
_chemical_formula_structural   Cr2Fe13Ni12
_chemical_formula_sum   'Cr4 Fe26 Ni24'
_cell_volume   577.08027996
_cell_formula_units_Z   2
loop_
 _symmetry_equiv_pos_site_id
 _symmetry_equiv_pos_as_xyz
  1  'x, y, z'
loop_
 _atom_site_type_symbol
 _atom_site_label
 _atom_site_symmetry_multiplicity
 _atom_site_fract_x
 _atom_site_fract_y
 _atom_site_fract_z
 _atom_site_occupancy
  Fe  Fe0  1  0.00347891  1.00311575  1.00298498  1
  Ni  Ni1  1  0.17094505  0.17141953  0.16934018  1
  Fe  Fe2  1  1.00283548  0.00424262  0.33626459  1
  Ni  Ni3  1  0.00465286  0.33710346  0.00369078  1
  Ni  Ni4  1  0.17035096  0.50097967  0.17094849  1
  Fe  Fe5  1  1.00293689  0.33662544  0.33684412  1
  Ni  Ni6  1  1.00186045  0.66900467  1.00320052  1
  Fe  Fe7  1  0.16935541  0.83696473  0.17050740  1
  Fe  Fe8  1  1.00298061  0.66921130  0.33527593  1
  Ni  Ni9  1  0.33537114  0.00536690  0.00553783  1
  Fe  Fe10  1  0.50311755  0.17016530  0.16963644  1
  Fe  Fe11  1  0.33758693  0.00375190  0.33681607  1
  Ni  Ni12  1  0.33432655  0.33552080  0.00397777  1
  Ni  Ni13  1  0.50362704  0.50264551  0.16996689  1
  Fe  Fe14  1  0.33743684  0.33705492  0.33593735  1
  Cr  Cr15  1  0.33586481  0.66950191  0.00393479  1
  Fe  Fe16  1  0.50424712  0.83728335  0.17047955  1
  Fe  Fe17  1  0.33787276  0.66927069  0.33649769  1
  Ni  Ni18  1  0.67091080  1.00257430  0.00504980  1
  Fe  Fe19  1  0.83661654  0.17052364  0.17027361  1
  Ni  Ni20  1  0.66896074  0.00381206  0.33657153  1
  Fe  Fe21  1  0.67014593  0.33782408  0.00434254  1
  Fe  Fe22  1  0.83693453  0.50361909  0.16993337  1
  Ni  Ni23  1  0.67059046  0.33705271  0.33657793  1
  Ni  Ni24  1  0.67249818  0.67005324  0.00456854  1
  Ni  Ni25  1  0.83494432  0.83657278  0.16929721  1
  Ni  Ni26  1  0.66900414  0.66921711  0.33543655  1
  Ni  Ni27  1  0.17085713  0.17166280  0.50398780  1
  Ni  Ni28  1  0.00538394  0.00502684  0.67152363  1
  Ni  Ni29  1  0.16922765  0.17188901  0.83675194  1
  Ni  Ni30  1  0.17063306  0.50151426  0.50312888  1
  Ni  Ni31  1  0.00360402  0.33625961  0.66929430  1
  Ni  Ni32  1  0.16897852  0.50088647  0.83599825  1
  Fe  Fe33  1  0.17166263  0.83712588  0.50375553  1
  Fe  Fe34  1  0.00343917  0.66961709  0.67140376  1
  Fe  Fe35  1  0.16769457  0.83803974  0.83582090  1
  Fe  Fe36  1  0.50331280  0.16998974  0.50372400  1
  Ni  Ni37  1  0.33435129  1.00266700  0.66797362  1
  Cr  Cr38  1  0.50203166  0.17102503  0.83726498  1
  Fe  Fe39  1  0.50359378  0.50315698  0.50283322  1
  Fe  Fe40  1  0.33556173  0.33661989  0.66973533  1
  Fe  Fe41  1  0.50420368  0.50268998  0.83636254  1
  Fe  Fe42  1  0.50142522  0.83693022  0.50378162  1
  Fe  Fe43  1  0.33604454  0.66925366  0.66923667  1
  Cr  Cr44  1  0.50717195  0.83677960  0.83606190  1
  Fe  Fe45  1  0.83713226  0.17210296  0.50375827  1
  Ni  Ni46  1  0.67034403  0.00362954  0.66846194  1
  Fe  Fe47  1  0.83878889  0.16995301  0.83604775  1
  Fe  Fe48  1  0.83693708  0.50113282  0.50357118  1
  Ni  Ni49  1  0.67167524  0.33811048  0.66923301  1
  Fe  Fe50  1  0.83721905  0.50339085  0.83657221  1
  Cr  Cr51  1  0.83465221  0.83698697  0.50433882  1
  Ni  Ni52  1  0.66931542  0.66834053  0.67007384  1
  Ni  Ni53  1  0.83673372  0.83616980  0.83683986  1
" 