3824,Ni44Fe40Cr15_16,-233.857473162408, 206.780636690227,Ni44Fe40Cr15,"# generated using pymatgen
 data_Cr9Fe22Ni23
_symmetry_space_group_name_H-M   'P 1'
_cell_length_a   7.42966091
_cell_length_b   7.42966091
_cell_length_c   10.50712722
_cell_angle_alpha   90.00000000
_cell_angle_beta   90.00000000
_cell_angle_gamma   90.00000000
_symmetry_Int_Tables_number   1
_chemical_formula_structural   Cr9Fe22Ni23
_chemical_formula_sum   'Cr9 Fe22 Ni23'
_cell_volume   579.99196376
_cell_formula_units_Z   1
loop_
 _symmetry_equiv_pos_site_id
 _symmetry_equiv_pos_as_xyz
  1  'x, y, z'
loop_
 _atom_site_type_symbol
 _atom_site_label
 _atom_site_symmetry_multiplicity
 _atom_site_fract_x
 _atom_site_fract_y
 _atom_site_fract_z
 _atom_site_occupancy
  Fe  Fe0  1  0.99973846  1.00215726  1.00230009  1
  Cr  Cr1  1  0.16734588  0.16954715  0.16817679  1
  Ni  Ni2  1  1.00192712  1.00185155  0.33638311  1
  Ni  Ni3  1  1.00107266  0.33551406  1.00246670  1
  Fe  Fe4  1  0.16677730  0.50180255  0.16905213  1
  Ni  Ni5  1  1.00159364  0.33608016  0.33764494  1
  Ni  Ni6  1  1.00083242  0.67035223  0.00505966  1
  Ni  Ni7  1  0.16680146  0.83498879  0.17066716  1
  Fe  Fe8  1  1.00166942  0.66967429  0.33579416  1
  Cr  Cr9  1  0.33598839  0.00315545  1.00072537  1
  Ni  Ni10  1  0.50446277  0.17111197  0.17018704  1
  Fe  Fe11  1  0.33515586  0.00392785  0.33544003  1
  Ni  Ni12  1  0.33769686  0.33551177  1.00216668  1
  Fe  Fe13  1  0.50337586  0.50020983  0.16839287  1
  Fe  Fe14  1  0.33620191  0.33445084  0.33622189  1
  Cr  Cr15  1  0.33682377  0.66935978  0.00327198  1
  Fe  Fe16  1  0.50403310  0.83933404  0.16946463  1
  Fe  Fe17  1  0.33288158  0.66919685  0.33444859  1
  Fe  Fe18  1  0.67059238  0.00312504  0.00299984  1
  Ni  Ni19  1  0.83466949  0.16905433  0.16943897  1
  Ni  Ni20  1  0.67139613  0.00407213  0.33515965  1
  Ni  Ni21  1  0.66879586  0.33622490  0.00418197  1
  Fe  Fe22  1  0.83743415  0.50007399  0.16843486  1
  Ni  Ni23  1  0.67095565  0.33439609  0.33555781  1
  Ni  Ni24  1  0.67018961  0.66925986  0.00298534  1
  Ni  Ni25  1  0.83662167  0.83697456  0.16749218  1
  Cr  Cr26  1  0.67193238  0.66860007  0.33354394  1
  Ni  Ni27  1  0.16821684  0.16956063  0.50230803  1
  Ni  Ni28  1  1.00151643  1.00136463  0.67000963  1
  Fe  Fe29  1  0.16773970  0.17003075  0.83540799  1
  Fe  Fe30  1  0.16728773  0.50328922  0.50310029  1
  Fe  Fe31  1  1.00169107  0.33183668  0.66717481  1
  Cr  Cr32  1  0.16903806  0.50001292  0.83492990  1
  Ni  Ni33  1  0.16669015  0.83716756  0.50178867  1
  Fe  Fe34  1  1.00194233  0.67028477  0.66790547  1
  Fe  Fe35  1  0.16656273  0.83448396  0.83562229  1
  Fe  Fe36  1  0.50401515  0.16908936  0.50155087  1
  Cr  Cr37  1  0.33472487  0.00363275  0.66971741  1
  Fe  Fe38  1  0.50526414  0.17238649  0.83586460  1
  Cr  Cr39  1  0.50369428  0.50099746  0.50493448  1
  Ni  Ni40  1  0.33641018  0.33585773  0.66917303  1
  Ni  Ni41  1  0.50354558  0.50227576  0.83547451  1
  Cr  Cr42  1  0.50378208  0.83758710  0.50116017  1
  Fe  Fe43  1  0.33599651  0.66997740  0.67030672  1
  Ni  Ni44  1  0.50565653  0.83531254  0.83550261  1
  Fe  Fe45  1  0.83607650  0.16760425  0.50173328  1
  Ni  Ni46  1  0.67151113  0.00360421  0.66952458  1
  Fe  Fe47  1  0.83442004  0.16836752  0.83639462  1
  Ni  Ni48  1  0.83686472  0.50143474  0.50349780  1
  Ni  Ni49  1  0.66911361  0.33470160  0.66832911  1
  Cr  Cr50  1  0.83421856  0.50180989  0.83628778  1
  Ni  Ni51  1  0.83766343  0.83640670  0.50401734  1
  Fe  Fe52  1  0.67014072  0.67055556  0.67024872  1
  Fe  Fe53  1  0.83511750  0.83622680  0.83624328  1
" 