2203,Ni44Fe40Cr15_15,-234.091083181543, 204.490895369623,Ni44Fe40Cr15,"# generated using pymatgen
 data_Cr9Fe22Ni23
_symmetry_space_group_name_H-M   'P 1'
_cell_length_a   7.42894309
_cell_length_b   7.42894309
_cell_length_c   10.50611208
_cell_angle_alpha   90.00000000
_cell_angle_beta   90.00000000
_cell_angle_gamma   90.00000000
_symmetry_Int_Tables_number   1
_chemical_formula_structural   Cr9Fe22Ni23
_chemical_formula_sum   'Cr9 Fe22 Ni23'
_cell_volume   579.82387322
_cell_formula_units_Z   1
loop_
 _symmetry_equiv_pos_site_id
 _symmetry_equiv_pos_as_xyz
  1  'x, y, z'
loop_
 _atom_site_type_symbol
 _atom_site_label
 _atom_site_symmetry_multiplicity
 _atom_site_fract_x
 _atom_site_fract_y
 _atom_site_fract_z
 _atom_site_occupancy
  Fe  Fe0  1  1.00181407  1.00195345  0.00440394  1
  Ni  Ni1  1  0.16865581  0.16583923  0.16985882  1
  Ni  Ni2  1  0.00456410  0.00272646  0.33605305  1
  Ni  Ni3  1  0.99970816  0.33570446  1.00204859  1
  Cr  Cr4  1  0.17048514  0.50237759  0.16871527  1
  Cr  Cr5  1  1.00087878  0.33447870  0.33879650  1
  Fe  Fe6  1  1.00046554  0.67117670  1.00164123  1
  Fe  Fe7  1  0.16925766  0.83929573  0.16973952  1
  Cr  Cr8  1  1.00039455  0.67040700  0.33618665  1
  Ni  Ni9  1  0.33719338  1.00205947  0.00292912  1
  Fe  Fe10  1  0.50311631  0.16740995  0.16995087  1
  Ni  Ni11  1  0.33654508  1.00244089  0.33538094  1
  Cr  Cr12  1  0.33524971  0.33252621  1.00211383  1
  Ni  Ni13  1  0.50564363  0.50306229  0.17102345  1
  Fe  Fe14  1  0.33684722  0.33356197  0.33542619  1
  Cr  Cr15  1  0.33691774  0.67335970  1.00210880  1
  Fe  Fe16  1  0.50427106  0.83676105  0.16991968  1
  Fe  Fe17  1  0.33640515  0.67139253  0.33586821  1
  Ni  Ni18  1  0.66781597  1.00180314  1.00218321  1
  Fe  Fe19  1  0.83597898  0.16839262  0.16854285  1
  Fe  Fe20  1  0.67098392  0.00279164  0.33534441  1
  Fe  Fe21  1  0.66993642  0.33470570  0.00352503  1
  Fe  Fe22  1  0.83366685  0.50275579  0.16797011  1
  Ni  Ni23  1  0.66905755  0.33558199  0.33387895  1
  Ni  Ni24  1  0.67068097  0.67091313  0.00325768  1
  Ni  Ni25  1  0.83525519  0.83771458  0.16881761  1
  Ni  Ni26  1  0.66836547  0.66989235  0.33537169  1
  Fe  Fe27  1  0.17006994  0.16874837  0.50286267  1
  Fe  Fe28  1  1.00031524  1.00088927  0.66752492  1
  Cr  Cr29  1  0.16748953  0.16614263  0.83391786  1
  Ni  Ni30  1  0.16968024  0.50482946  0.50528866  1
  Ni  Ni31  1  1.00222266  0.33668714  0.66760328  1
  Fe  Fe32  1  0.16562693  0.50242686  0.83456254  1
  Ni  Ni33  1  0.16895873  0.83672685  0.50136949  1
  Ni  Ni34  1  1.00163833  0.66893474  0.67014247  1
  Ni  Ni35  1  0.16744909  0.83605445  0.83731046  1
  Ni  Ni36  1  0.50327862  0.16761255  0.50125744  1
  Fe  Fe37  1  0.33662326  1.00072957  0.66837961  1
  Ni  Ni38  1  0.50393623  0.16638615  0.83666602  1
  Cr  Cr39  1  0.50291038  0.50256473  0.50112723  1
  Fe  Fe40  1  0.33530909  0.33541983  0.66838655  1
  Cr  Cr41  1  0.50406324  0.50312950  0.83499576  1
  Fe  Fe42  1  0.50300736  0.83729629  0.50223998  1
  Fe  Fe43  1  0.33345336  0.67125801  0.66960425  1
  Fe  Fe44  1  0.50450755  0.83882461  0.83524335  1
  Ni  Ni45  1  0.83484706  0.16647525  0.50175413  1
  Fe  Fe46  1  0.67085428  1.00221093  0.66998130  1
  Ni  Ni47  1  0.83573693  0.16811998  0.83804671  1
  Ni  Ni48  1  0.83507465  0.50311001  0.50227860  1
  Cr  Cr49  1  0.67305212  0.33427452  0.67065060  1
  Ni  Ni50  1  0.83630466  0.50383785  0.83821110  1
  Fe  Fe51  1  0.83517211  0.83586527  0.50234621  1
  Ni  Ni52  1  0.67123218  0.67245988  0.66905977  1
  Fe  Fe53  1  0.83552017  0.83638931  0.83662118  1
" 