2971,Ni44Fe56_0,-242.656991960769, 227.7720365625,Ni44Fe56,"# generated using pymatgen
 data_Fe23Ni31
_symmetry_space_group_name_H-M   'P 1'
_cell_length_a   7.40408428
_cell_length_b   7.40408428
_cell_length_c   10.47095641
_cell_angle_alpha   90.00000000
_cell_angle_beta   90.00000000
_cell_angle_gamma   90.00000000
_symmetry_Int_Tables_number   1
_chemical_formula_structural   Fe23Ni31
_chemical_formula_sum   'Fe23 Ni31'
_cell_volume   574.02268886
_cell_formula_units_Z   1
loop_
 _symmetry_equiv_pos_site_id
 _symmetry_equiv_pos_as_xyz
  1  'x, y, z'
loop_
 _atom_site_type_symbol
 _atom_site_label
 _atom_site_symmetry_multiplicity
 _atom_site_fract_x
 _atom_site_fract_y
 _atom_site_fract_z
 _atom_site_occupancy
  Fe  Fe0  1  1.00413704  0.00485016  1.00409938  1
  Fe  Fe1  1  0.17148109  0.17186316  0.17107223  1
  Fe  Fe2  1  0.00484156  0.00428349  0.33805596  1
  Ni  Ni3  1  0.00479607  0.33777143  1.00414994  1
  Ni  Ni4  1  0.17224770  0.50482365  0.17033167  1
  Ni  Ni5  1  0.00564643  0.33677429  0.33751112  1
  Ni  Ni6  1  0.00532653  0.67039351  0.00435291  1
  Ni  Ni7  1  0.17224121  0.83662642  0.17106866  1
  Fe  Fe8  1  0.00532620  0.66999500  0.33754122  1
  Fe  Fe9  1  0.33738564  0.00468930  1.00417357  1
  Fe  Fe10  1  0.50376171  0.17123481  0.16984955  1
  Fe  Fe11  1  0.33728093  1.00346258  0.33797767  1
  Ni  Ni12  1  0.33668155  0.33817053  1.00412225  1
  Ni  Ni13  1  0.50319099  0.50518686  0.17104651  1
  Ni  Ni14  1  0.33549168  0.33804831  0.33799129  1
  Ni  Ni15  1  0.33690303  0.67074948  1.00404207  1
  Ni  Ni16  1  0.50320971  0.83627169  0.16986355  1
  Ni  Ni17  1  0.33836554  0.67095124  0.33844893  1
  Ni  Ni18  1  0.67092339  0.00435957  1.00399747  1
  Ni  Ni19  1  0.83768109  0.17128828  0.17007668  1
  Fe  Fe20  1  0.67063180  1.00415545  0.33773967  1
  Ni  Ni21  1  0.67127619  0.33564525  1.00377029  1
  Fe  Fe22  1  0.83790356  0.50457405  0.17075984  1
  Fe  Fe23  1  0.67087601  0.33857815  0.33690838  1
  Fe  Fe24  1  0.67067690  0.66956176  1.00394088  1
  Fe  Fe25  1  0.83727184  0.83694461  0.17059922  1
  Ni  Ni26  1  0.66995790  0.67294918  0.33718305  1
  Ni  Ni27  1  0.17028174  0.17133130  0.50329148  1
  Fe  Fe28  1  1.00318362  0.00436289  0.67060103  1
  Ni  Ni29  1  0.17085566  0.17089042  0.83873841  1
  Ni  Ni30  1  0.17102492  0.50401589  0.50436581  1
  Ni  Ni31  1  0.00515600  0.33702224  0.67109899  1
  Fe  Fe32  1  0.17016108  0.50294699  0.83836664  1
  Ni  Ni33  1  0.17191496  0.83740379  0.50410077  1
  Fe  Fe34  1  1.00270241  0.67111329  0.67103882  1
  Fe  Fe35  1  0.17044974  0.83758313  0.83821082  1
  Fe  Fe36  1  0.50409709  0.17021515  0.50484815  1
  Fe  Fe37  1  0.33773788  0.00449474  0.67060564  1
  Ni  Ni38  1  0.50411143  0.17174922  0.83832864  1
  Fe  Fe39  1  0.50418351  0.50535351  0.50370538  1
  Fe  Fe40  1  0.33799062  0.33719107  0.67123061  1
  Ni  Ni41  1  0.50458973  0.50408785  0.83784179  1
  Ni  Ni42  1  0.50408133  0.83702421  0.50447166  1
  Fe  Fe43  1  0.33813075  0.67106968  0.67037284  1
  Fe  Fe44  1  0.50578703  0.83826582  0.83735862  1
  Ni  Ni45  1  0.83804393  0.17132279  0.50545841  1
  Ni  Ni46  1  0.67098438  1.00282085  0.67014847  1
  Ni  Ni47  1  0.83779042  0.17087604  0.83721529  1
  Ni  Ni48  1  0.83765934  0.50367362  0.50366093  1
  Fe  Fe49  1  0.67179448  0.33767155  0.67206624  1
  Ni  Ni50  1  0.83656565  0.50421488  0.83864463  1
  Ni  Ni51  1  0.83675861  0.83776339  0.50339284  1
  Ni  Ni52  1  0.67062895  0.67327794  0.67159115  1
  Ni  Ni53  1  0.83742582  0.83765990  0.83817633  1
" 