2737,Ni44Fe26Cr28_7,-229.005583752731, 182.851845348099,Ni44Fe26Cr28,"# generated using pymatgen
 data_Cr8Fe7Ni12
_symmetry_space_group_name_H-M   'P 1'
_cell_length_a   7.46474029
_cell_length_b   7.46474029
_cell_length_c   10.55673696
_cell_angle_alpha   90.00000000
_cell_angle_beta   90.00000000
_cell_angle_gamma   90.00000000
_symmetry_Int_Tables_number   1
_chemical_formula_structural   Cr8Fe7Ni12
_chemical_formula_sum   'Cr16 Fe14 Ni24'
_cell_volume   588.24616729
_cell_formula_units_Z   2
loop_
 _symmetry_equiv_pos_site_id
 _symmetry_equiv_pos_as_xyz
  1  'x, y, z'
loop_
 _atom_site_type_symbol
 _atom_site_label
 _atom_site_symmetry_multiplicity
 _atom_site_fract_x
 _atom_site_fract_y
 _atom_site_fract_z
 _atom_site_occupancy
  Ni  Ni0  1  0.00097841  0.99971300  0.99613180  1
  Cr  Cr1  1  0.16697071  0.16624591  0.16605986  1
  Ni  Ni2  1  0.00160911  0.99877015  0.33733300  1
  Cr  Cr3  1  0.00193178  0.33520034  0.99898431  1
  Ni  Ni4  1  0.17050668  0.49938173  0.16728903  1
  Fe  Fe5  1  0.99955974  0.33528741  0.33441781  1
  Cr  Cr6  1  0.00077310  0.66565089  0.99919842  1
  Cr  Cr7  1  0.16774638  0.83445418  0.16787164  1
  Cr  Cr8  1  0.99989825  0.66561720  0.33363164  1
  Fe  Fe9  1  0.33440426  0.99894045  0.99841724  1
  Fe  Fe10  1  0.49883756  0.16789361  0.16724972  1
  Ni  Ni11  1  0.33354927  0.99973479  0.33320299  1
  Ni  Ni12  1  0.33425048  0.33346441  0.99955616  1
  Fe  Fe13  1  0.49948119  0.50137236  0.16702562  1
  Ni  Ni14  1  0.33395125  0.33432258  0.33129046  1
  Ni  Ni15  1  0.33446086  0.66672258  0.00064425  1
  Fe  Fe16  1  0.49977149  0.83133416  0.16733565  1
  Fe  Fe17  1  0.33510579  0.66671967  0.33340347  1
  Fe  Fe18  1  0.66542027  0.99947935  0.99782502  1
  Cr  Cr19  1  0.83436760  0.16561653  0.16985446  1
  Cr  Cr20  1  0.66564752  0.99883618  0.33603605  1
  Cr  Cr21  1  0.66598742  0.33425654  0.00056911  1
  Ni  Ni22  1  0.83089726  0.50053044  0.16754894  1
  Ni  Ni23  1  0.66597925  0.33655378  0.33302816  1
  Ni  Ni24  1  0.66467485  0.66829303  1.00012318  1
  Cr  Cr25  1  0.83233447  0.83386234  0.16419531  1
  Ni  Ni26  1  0.66683416  0.66507393  0.33321057  1
  Cr  Cr27  1  0.16547940  0.16817042  0.50011256  1
  Ni  Ni28  1  0.00033639  0.99833031  0.66686727  1
  Fe  Fe29  1  0.16659616  0.16737915  0.83297888  1
  Ni  Ni30  1  0.16663175  0.50016390  0.50112158  1
  Ni  Ni31  1  0.00160849  0.33543911  0.66744426  1
  Ni  Ni32  1  0.16833884  0.50164548  0.83236986  1
  Fe  Fe33  1  0.16675269  0.83141086  0.50092371  1
  Ni  Ni34  1  0.00020370  0.66663075  0.66742098  1
  Ni  Ni35  1  0.16576094  0.83279466  0.83313296  1
  Cr  Cr36  1  0.49845283  0.16870581  0.49916769  1
  Cr  Cr37  1  0.33330401  0.99977070  0.66783259  1
  Ni  Ni38  1  0.49987943  0.16633608  0.83567014  1
  Cr  Cr39  1  0.49872314  0.50200562  0.50143623  1
  Ni  Ni40  1  0.33031495  0.33370169  0.66940424  1
  Cr  Cr41  1  0.49860566  0.50150095  0.83103178  1
  Ni  Ni42  1  0.50055416  0.83044781  0.49972531  1
  Fe  Fe43  1  0.33039095  0.66733259  0.66712858  1
  Fe  Fe44  1  0.49972583  0.83252496  0.83438109  1
  Fe  Fe45  1  0.83534540  0.16840638  0.50026399  1
  Cr  Cr46  1  0.66659875  0.99871464  0.66645307  1
  Ni  Ni47  1  0.83480127  0.16359879  0.83224516  1
  Ni  Ni48  1  0.83436084  0.50209053  0.50063052  1
  Cr  Cr49  1  0.66778140  0.33334720  0.66669962  1
  Fe  Fe50  1  0.83435075  0.50117478  0.83186701  1
  Ni  Ni51  1  0.83388513  0.83225967  0.50142094  1
  Ni  Ni52  1  0.66966303  0.66850203  0.66641210  1
  Fe  Fe53  1  0.83397057  0.83263315  0.83276955  1
" 