6795,Ni44Fe49Cr5_13,-237.383014628511, 212.374134151695,Ni44Fe49Cr5,"# generated using pymatgen
 data_Cr2Fe13Ni12
_symmetry_space_group_name_H-M   'P 1'
_cell_length_a   7.41220716
_cell_length_b   7.41220716
_cell_length_c   10.48244389
_cell_angle_alpha   90.00000000
_cell_angle_beta   90.00000000
_cell_angle_gamma   90.00000000
_symmetry_Int_Tables_number   1
_chemical_formula_structural   Cr2Fe13Ni12
_chemical_formula_sum   'Cr4 Fe26 Ni24'
_cell_volume   575.91400968
_cell_formula_units_Z   2
loop_
 _symmetry_equiv_pos_site_id
 _symmetry_equiv_pos_as_xyz
  1  'x, y, z'
loop_
 _atom_site_type_symbol
 _atom_site_label
 _atom_site_symmetry_multiplicity
 _atom_site_fract_x
 _atom_site_fract_y
 _atom_site_fract_z
 _atom_site_occupancy
  Ni  Ni0  1  0.00391762  1.00191295  0.00488237  1
  Ni  Ni1  1  0.17051530  0.16904678  0.17046599  1
  Fe  Fe2  1  0.00593452  1.00357165  0.33654472  1
  Fe  Fe3  1  0.00513294  0.33687413  0.00451809  1
  Ni  Ni4  1  0.17017195  0.50404945  0.16999627  1
  Fe  Fe5  1  0.00405592  0.33651632  0.33703004  1
  Ni  Ni6  1  1.00306551  0.66988174  1.00345896  1
  Ni  Ni7  1  0.16939554  0.83800273  0.17107240  1
  Fe  Fe8  1  0.00383443  0.67100860  0.33657351  1
  Ni  Ni9  1  0.33784743  0.00521442  1.00361154  1
  Ni  Ni10  1  0.50277689  0.17154904  0.16882846  1
  Ni  Ni11  1  0.33547114  1.00316898  0.33619634  1
  Ni  Ni12  1  0.33704720  0.33654510  1.00344240  1
  Ni  Ni13  1  0.50429085  0.50271729  0.17120933  1
  Fe  Fe14  1  0.33668367  0.33729043  0.33558597  1
  Fe  Fe15  1  0.33658915  0.67136215  1.00328844  1
  Fe  Fe16  1  0.50143809  0.83701613  0.16967625  1
  Fe  Fe17  1  0.33752420  0.67085557  0.33744157  1
  Ni  Ni18  1  0.66932882  1.00301970  0.00439400  1
  Fe  Fe19  1  0.83814890  0.17114130  0.16920789  1
  Cr  Cr20  1  0.66979576  1.00279248  0.33618478  1
  Fe  Fe21  1  0.66911263  0.33721685  0.00438886  1
  Fe  Fe22  1  0.83781014  0.50343647  0.17027351  1
  Fe  Fe23  1  0.67035893  0.33939068  0.33627704  1
  Fe  Fe24  1  0.67012573  0.67071500  1.00333542  1
  Fe  Fe25  1  0.83849823  0.83651670  0.16945458  1
  Fe  Fe26  1  0.66973928  0.66897196  0.33789661  1
  Fe  Fe27  1  0.16832405  0.17121603  0.50288504  1
  Fe  Fe28  1  1.00369524  1.00288419  0.67004164  1
  Ni  Ni29  1  0.17130061  0.16969526  0.83811236  1
  Fe  Fe30  1  0.17088360  0.50442144  0.50369592  1
  Fe  Fe31  1  0.00478791  0.33772646  0.66954859  1
  Fe  Fe32  1  0.17148010  0.50351385  0.83728075  1
  Fe  Fe33  1  0.17011335  0.83545900  0.50279517  1
  Fe  Fe34  1  0.00379832  0.67048595  0.67072491  1
  Ni  Ni35  1  0.16981234  0.83719005  0.83774117  1
  Cr  Cr36  1  0.50298874  0.17185653  0.50484540  1
  Cr  Cr37  1  0.33843668  1.00342304  0.67197841  1
  Ni  Ni38  1  0.50246266  0.17106622  0.83800511  1
  Ni  Ni39  1  0.50450103  0.50519852  0.50373504  1
  Ni  Ni40  1  0.33610016  0.34012552  0.67078064  1
  Ni  Ni41  1  0.50435972  0.50364635  0.83614960  1
  Ni  Ni42  1  0.50390436  0.83399896  0.50321989  1
  Ni  Ni43  1  0.33693927  0.66755844  0.67002809  1
  Ni  Ni44  1  0.50337895  0.83638763  0.83786230  1
  Fe  Fe45  1  0.83816223  0.17081536  0.50481894  1
  Ni  Ni46  1  0.67216050  1.00197583  0.67021320  1
  Cr  Cr47  1  0.83713789  0.17047611  0.83666618  1
  Ni  Ni48  1  0.83665462  0.50434829  0.50316643  1
  Fe  Fe49  1  0.66920704  0.33912635  0.67043199  1
  Ni  Ni50  1  0.83653780  0.50513503  0.83726874  1
  Ni  Ni51  1  0.83837038  0.83596461  0.50560905  1
  Fe  Fe52  1  0.66907376  0.67020896  0.66986858  1
  Fe  Fe53  1  0.83658194  0.83607545  0.83705552  1
" 