1375,Ni44Fe56_12,-243.218012513283, 229.357985645944,Ni44Fe56,"# generated using pymatgen
 data_Fe23Ni31
_symmetry_space_group_name_H-M   'P 1'
_cell_length_a   7.40911636
_cell_length_b   7.40911636
_cell_length_c   10.47807284
_cell_angle_alpha   90.00000000
_cell_angle_beta   90.00000000
_cell_angle_gamma   90.00000000
_symmetry_Int_Tables_number   1
_chemical_formula_structural   Fe23Ni31
_chemical_formula_sum   'Fe23 Ni31'
_cell_volume   575.19386297
_cell_formula_units_Z   1
loop_
 _symmetry_equiv_pos_site_id
 _symmetry_equiv_pos_as_xyz
  1  'x, y, z'
loop_
 _atom_site_type_symbol
 _atom_site_label
 _atom_site_symmetry_multiplicity
 _atom_site_fract_x
 _atom_site_fract_y
 _atom_site_fract_z
 _atom_site_occupancy
  Ni  Ni0  1  0.00436872  0.00414149  1.00350068  1
  Ni  Ni1  1  0.17026929  0.17031807  0.17087484  1
  Ni  Ni2  1  0.00420933  0.00440643  0.33745722  1
  Ni  Ni3  1  0.00391348  0.33683427  1.00366824  1
  Fe  Fe4  1  0.17072712  0.50400838  0.17066251  1
  Ni  Ni5  1  0.00407074  0.33664663  0.33716071  1
  Ni  Ni6  1  0.00391612  0.67075249  1.00341388  1
  Ni  Ni7  1  0.17110197  0.83761622  0.17074166  1
  Fe  Fe8  1  0.00408019  0.67057515  0.33722848  1
  Fe  Fe9  1  0.33690146  1.00373861  0.00409435  1
  Fe  Fe10  1  0.50361054  0.17030561  0.17086442  1
  Ni  Ni11  1  0.33690434  1.00369981  0.33746227  1
  Fe  Fe12  1  0.33691048  0.33740061  0.00392149  1
  Fe  Fe13  1  0.50371217  0.50407960  0.17056402  1
  Ni  Ni14  1  0.33690118  0.33721613  0.33750457  1
  Fe  Fe15  1  0.33705859  0.67059012  1.00371037  1
  Ni  Ni16  1  0.50382573  0.83703277  0.17082929  1
  Ni  Ni17  1  0.33760802  0.67081240  0.33725815  1
  Fe  Fe18  1  0.67103392  1.00384944  0.00398077  1
  Fe  Fe19  1  0.83747351  0.17023896  0.17063454  1
  Ni  Ni20  1  0.67061580  1.00370231  0.33721067  1
  Ni  Ni21  1  0.67068803  0.33754494  1.00346024  1
  Fe  Fe22  1  0.83728767  0.50406191  0.17043550  1
  Ni  Ni23  1  0.67075342  0.33735163  0.33758597  1
  Ni  Ni24  1  0.67028727  0.67044008  1.00354406  1
  Fe  Fe25  1  0.83740436  0.83742748  0.17054851  1
  Ni  Ni26  1  0.67004578  0.67067399  0.33737179  1
  Ni  Ni27  1  0.17028443  0.17040529  0.50360814  1
  Fe  Fe28  1  0.00408071  1.00388289  0.67057568  1
  Ni  Ni29  1  0.16999913  0.17043420  0.83724730  1
  Ni  Ni30  1  0.17042193  0.50398217  0.50356978  1
  Ni  Ni31  1  0.00403484  0.33679003  0.67089794  1
  Ni  Ni32  1  0.17044491  0.50393832  0.83745124  1
  Ni  Ni33  1  0.17113479  0.83734006  0.50351592  1
  Fe  Fe34  1  0.00410979  0.67022650  0.67073497  1
  Ni  Ni35  1  0.17115419  0.83735486  0.83747024  1
  Fe  Fe36  1  0.50374951  0.17076068  0.50353652  1
  Fe  Fe37  1  0.33703799  1.00359851  0.67053216  1
  Fe  Fe38  1  0.50380698  0.17084722  0.83732897  1
  Fe  Fe39  1  0.50372151  0.50389785  0.50392273  1
  Fe  Fe40  1  0.33702129  0.33768884  0.67050567  1
  Ni  Ni41  1  0.50444872  0.50452076  0.83733889  1
  Fe  Fe42  1  0.50379291  0.83707097  0.50379066  1
  Ni  Ni43  1  0.33768311  0.67078860  0.67089471  1
  Ni  Ni44  1  0.50374732  0.83677869  0.83741750  1
  Ni  Ni45  1  0.83719051  0.17110326  0.50339959  1
  Fe  Fe46  1  0.67061003  1.00382623  0.67047793  1
  Ni  Ni47  1  0.83741107  0.17113764  0.83749325  1
  Ni  Ni48  1  0.83692492  0.50341095  0.50369913  1
  Fe  Fe49  1  0.67082342  0.33765942  0.67068988  1
  Ni  Ni50  1  0.83683444  0.50336787  0.83733188  1
  Fe  Fe51  1  0.83758912  0.83726837  0.50373628  1
  Ni  Ni52  1  0.66999948  0.67065193  0.67081345  1
  Fe  Fe53  1  0.83737443  0.83691308  0.83744111  1
" 