8095,Ni44Fe56_4,-242.300320917567, 227.594594243831,Ni44Fe56,"# generated using pymatgen
 data_Fe23Ni31
_symmetry_space_group_name_H-M   'P 1'
_cell_length_a   7.40346061
_cell_length_b   7.40346061
_cell_length_c   10.47007441
_cell_angle_alpha   90.00000000
_cell_angle_beta   90.00000000
_cell_angle_gamma   90.00000000
_symmetry_Int_Tables_number   1
_chemical_formula_structural   Fe23Ni31
_chemical_formula_sum   'Fe23 Ni31'
_cell_volume   573.87764617
_cell_formula_units_Z   1
loop_
 _symmetry_equiv_pos_site_id
 _symmetry_equiv_pos_as_xyz
  1  'x, y, z'
loop_
 _atom_site_type_symbol
 _atom_site_label
 _atom_site_symmetry_multiplicity
 _atom_site_fract_x
 _atom_site_fract_y
 _atom_site_fract_z
 _atom_site_occupancy
  Fe  Fe0  1  1.00274029  1.00334516  0.00442289  1
  Fe  Fe1  1  0.17019025  0.17007988  0.17168403  1
  Ni  Ni2  1  0.00443793  1.00321892  0.33713952  1
  Fe  Fe3  1  1.00370246  0.33883711  0.00454611  1
  Ni  Ni4  1  0.17119624  0.50202169  0.17168516  1
  Ni  Ni5  1  1.00423742  0.33793794  0.33773492  1
  Fe  Fe6  1  1.00229338  0.67058985  0.00484115  1
  Fe  Fe7  1  0.17054911  0.83558810  0.17134837  1
  Ni  Ni8  1  0.00519425  0.67101082  0.33759982  1
  Fe  Fe9  1  0.34045088  1.00398426  0.00430025  1
  Fe  Fe10  1  0.50572138  0.17151357  0.17054120  1
  Ni  Ni11  1  0.33775172  0.00441914  0.33702724  1
  Fe  Fe12  1  0.33922915  0.33839769  1.00379065  1
  Fe  Fe13  1  0.50559892  0.50550118  0.17039863  1
  Ni  Ni14  1  0.33802378  0.33686334  0.33658343  1
  Ni  Ni15  1  0.33642456  0.67181352  0.00441167  1
  Ni  Ni16  1  0.50595431  0.83874938  0.17131760  1
  Fe  Fe17  1  0.33725421  0.67060294  0.33707218  1
  Ni  Ni18  1  0.67153128  0.00504776  1.00382280  1
  Fe  Fe19  1  0.83698828  0.17148954  0.17219264  1
  Ni  Ni20  1  0.67051484  0.00499122  0.33819782  1
  Ni  Ni21  1  0.67150959  0.33688789  1.00381747  1
  Ni  Ni22  1  0.83855098  0.50502719  0.17191773  1
  Ni  Ni23  1  0.67080189  0.33701914  0.33750074  1
  Ni  Ni24  1  0.66999864  0.67129069  0.00448228  1
  Ni  Ni25  1  0.83545044  0.83841088  0.17208870  1
  Fe  Fe26  1  0.67157059  0.67087094  0.33752364  1
  Ni  Ni27  1  0.16978149  0.17225589  0.50331889  1
  Fe  Fe28  1  0.00445509  0.00473572  0.67066602  1
  Ni  Ni29  1  0.17051147  0.17228951  0.83788762  1
  Ni  Ni30  1  0.17195900  0.50298649  0.50428214  1
  Ni  Ni31  1  1.00427974  0.33782651  0.67091816  1
  Ni  Ni32  1  0.17117399  0.50289693  0.83723162  1
  Fe  Fe33  1  0.17068870  0.83727660  0.50388766  1
  Ni  Ni34  1  0.00507228  0.67083317  0.67259853  1
  Fe  Fe35  1  0.17285614  0.83748351  0.83765216  1
  Fe  Fe36  1  0.50364600  0.17335508  0.50416730  1
  Fe  Fe37  1  0.33719507  0.00499438  0.67057975  1
  Ni  Ni38  1  0.50340377  0.17041206  0.83656707  1
  Ni  Ni39  1  0.50327649  0.50552719  0.50339638  1
  Ni  Ni40  1  0.33786044  0.33803245  0.67148913  1
  Ni  Ni41  1  0.50299696  0.50505809  0.83854556  1
  Fe  Fe42  1  0.50345177  0.83823072  0.50416664  1
  Ni  Ni43  1  0.33740377  0.67104972  0.67102596  1
  Ni  Ni44  1  0.50668128  0.83748943  0.83703742  1
  Ni  Ni45  1  0.83847726  0.16902447  0.50375386  1
  Fe  Fe46  1  0.67131872  1.00421451  0.67088411  1
  Fe  Fe47  1  0.83657692  0.17156111  0.83687275  1
  Fe  Fe48  1  0.83825605  0.50240455  0.50432987  1
  Ni  Ni49  1  0.67035381  0.33763221  0.67132999  1
  Fe  Fe50  1  0.83626106  0.50417545  0.83795139  1
  Fe  Fe51  1  0.83882620  0.83631482  0.50428097  1
  Ni  Ni52  1  0.67060281  0.67026723  0.67132066  1
  Ni  Ni53  1  0.83666508  0.83806061  0.83776791  1
" 