8069,Ni44Fe49Cr5_8,-237.653370128531, 212.745209046947,Ni44Fe49Cr5,"# generated using pymatgen
 data_Cr2Fe13Ni12
_symmetry_space_group_name_H-M   'P 1'
_cell_length_a   7.41387262
_cell_length_b   7.41387262
_cell_length_c   10.48479921
_cell_angle_alpha   90.00000000
_cell_angle_beta   90.00000000
_cell_angle_gamma   90.00000000
_symmetry_Int_Tables_number   1
_chemical_formula_structural   Cr2Fe13Ni12
_chemical_formula_sum   'Cr4 Fe26 Ni24'
_cell_volume   576.30230756
_cell_formula_units_Z   2
loop_
 _symmetry_equiv_pos_site_id
 _symmetry_equiv_pos_as_xyz
  1  'x, y, z'
loop_
 _atom_site_type_symbol
 _atom_site_label
 _atom_site_symmetry_multiplicity
 _atom_site_fract_x
 _atom_site_fract_y
 _atom_site_fract_z
 _atom_site_occupancy
  Ni  Ni0  1  1.00182043  1.00199896  0.00434240  1
  Fe  Fe1  1  0.16931593  0.16983598  0.17048125  1
  Fe  Fe2  1  1.00265610  1.00140082  0.33574332  1
  Fe  Fe3  1  1.00123432  0.33830945  0.00560386  1
  Fe  Fe4  1  0.17028925  0.50406735  0.17050123  1
  Ni  Ni5  1  1.00339654  0.33716429  0.33592087  1
  Ni  Ni6  1  0.00448551  0.67147914  0.00393725  1
  Fe  Fe7  1  0.17038095  0.83662067  0.16948521  1
  Fe  Fe8  1  1.00329337  0.67007424  0.33693042  1
  Fe  Fe9  1  0.33850945  1.00028168  1.00323730  1
  Fe  Fe10  1  0.50496803  0.16983993  0.17028571  1
  Fe  Fe11  1  0.33928011  1.00160915  0.33730683  1
  Fe  Fe12  1  0.33798380  0.33766669  0.00474679  1
  Fe  Fe13  1  0.50392326  0.50398037  0.17006470  1
  Ni  Ni14  1  0.33663490  0.33821662  0.33560387  1
  Ni  Ni15  1  0.33670675  0.66978492  1.00237608  1
  Fe  Fe16  1  0.50419317  0.83693033  0.17007991  1
  Ni  Ni17  1  0.33741582  0.67010593  0.33869937  1
  Ni  Ni18  1  0.67099181  0.00382653  1.00311266  1
  Ni  Ni19  1  0.83628050  0.17042402  0.17055959  1
  Ni  Ni20  1  0.67087267  1.00272656  0.33728744  1
  Ni  Ni21  1  0.66939761  0.33618412  1.00347570  1
  Fe  Fe22  1  0.83636884  0.50346827  0.16984793  1
  Fe  Fe23  1  0.66968715  0.33752492  0.33550407  1
  Fe  Fe24  1  0.67088828  0.67166330  0.00378493  1
  Fe  Fe25  1  0.83636699  0.83807334  0.17033299  1
  Ni  Ni26  1  0.66954978  0.67228090  0.33476706  1
  Cr  Cr27  1  0.17121196  0.16885519  0.50153636  1
  Ni  Ni28  1  1.00189828  1.00073893  0.66974922  1
  Cr  Cr29  1  0.17021596  0.16813712  0.84027308  1
  Ni  Ni30  1  0.16879351  0.50603212  0.50205169  1
  Cr  Cr31  1  1.00230485  0.33794032  0.67151675  1
  Ni  Ni32  1  0.16810352  0.50667639  0.83912785  1
  Ni  Ni33  1  0.16968880  0.83430818  0.50379962  1
  Ni  Ni34  1  1.00235043  0.67160966  0.66942399  1
  Ni  Ni35  1  0.16997796  0.83478349  0.83597746  1
  Ni  Ni36  1  0.50686178  0.17039005  0.50178314  1
  Ni  Ni37  1  0.33885244  1.00188433  0.67014982  1
  Ni  Ni38  1  0.50647453  0.16900581  0.83841886  1
  Fe  Fe39  1  0.50441444  0.50610313  0.50187437  1
  Cr  Cr40  1  0.33920376  0.33905271  0.67069002  1
  Fe  Fe41  1  0.50338942  0.50516464  0.83875607  1
  Ni  Ni42  1  0.50504913  0.83701598  0.50364475  1
  Fe  Fe43  1  0.33573066  0.67253982  0.67037877  1
  Ni  Ni44  1  0.50475080  0.83726144  0.83732901  1
  Fe  Fe45  1  0.83642248  0.16814264  0.50136847  1
  Fe  Fe46  1  0.67019808  1.00277474  0.66977220  1
  Fe  Fe47  1  0.83607847  0.16806558  0.83902199  1
  Fe  Fe48  1  0.83523764  0.50602835  0.50238093  1
  Fe  Fe49  1  0.67087295  0.33624480  0.67143320  1
  Fe  Fe50  1  0.83540990  0.50614924  0.83838248  1
  Ni  Ni51  1  0.83578624  0.83527073  0.50270606  1
  Ni  Ni52  1  0.66957762  0.67101553  0.67151414  1
  Fe  Fe53  1  0.83790686  0.83692441  0.83657475  1
" 