1429,Ni44Fe56_16,-243.233619476794, 226.310624940109,Ni44Fe56,"# generated using pymatgen
 data_Fe23Ni31
_symmetry_space_group_name_H-M   'P 1'
_cell_length_a   7.40875589
_cell_length_b   7.40875589
_cell_length_c   10.47756306
_cell_angle_alpha   90.00000000
_cell_angle_beta   90.00000000
_cell_angle_gamma   90.00000000
_symmetry_Int_Tables_number   1
_chemical_formula_structural   Fe23Ni31
_chemical_formula_sum   'Fe23 Ni31'
_cell_volume   575.10991369
_cell_formula_units_Z   1
loop_
 _symmetry_equiv_pos_site_id
 _symmetry_equiv_pos_as_xyz
  1  'x, y, z'
loop_
 _atom_site_type_symbol
 _atom_site_label
 _atom_site_symmetry_multiplicity
 _atom_site_fract_x
 _atom_site_fract_y
 _atom_site_fract_z
 _atom_site_occupancy
  Ni  Ni0  1  0.00422098  0.00472532  0.00405903  1
  Fe  Fe1  1  0.17024233  0.17076596  0.17033245  1
  Fe  Fe2  1  1.00386445  1.00384003  0.33730385  1
  Ni  Ni3  1  1.00387216  0.33672808  1.00364731  1
  Ni  Ni4  1  0.17033878  0.50381470  0.17068031  1
  Ni  Ni5  1  0.00407819  0.33708756  0.33707864  1
  Fe  Fe6  1  1.00346152  0.67009816  1.00371808  1
  Fe  Fe7  1  0.17050552  0.83722949  0.17093870  1
  Fe  Fe8  1  0.00412186  0.67046809  0.33754313  1
  Fe  Fe9  1  0.33738174  0.00407514  0.00413658  1
  Fe  Fe10  1  0.50416465  0.17072668  0.17075921  1
  Ni  Ni11  1  0.33750651  1.00354857  0.33737298  1
  Fe  Fe12  1  0.33707133  0.33743163  1.00370833  1
  Fe  Fe13  1  0.50433732  0.50411807  0.17033124  1
  Fe  Fe14  1  0.33729443  0.33743317  0.33723710  1
  Fe  Fe15  1  0.33734726  0.67029713  1.00389872  1
  Ni  Ni16  1  0.50369331  0.83754002  0.17072739  1
  Ni  Ni17  1  0.33778500  0.67087443  0.33713783  1
  Fe  Fe18  1  0.67107036  0.00407560  1.00389885  1
  Ni  Ni19  1  0.83727289  0.17094287  0.17052512  1
  Ni  Ni20  1  0.67021189  1.00356519  0.33684419  1
  Ni  Ni21  1  0.67096632  0.33772997  0.00393635  1
  Ni  Ni22  1  0.83776309  0.50316882  0.17052515  1
  Fe  Fe23  1  0.67076920  0.33717534  0.33702708  1
  Ni  Ni24  1  0.67001166  0.67030255  1.00382504  1
  Fe  Fe25  1  0.83708370  0.83705547  0.17032963  1
  Ni  Ni26  1  0.66992240  0.67086881  0.33736882  1
  Fe  Fe27  1  0.17024097  0.17060394  0.50411066  1
  Ni  Ni28  1  1.00381551  0.00459527  0.67036758  1
  Ni  Ni29  1  0.17007508  0.17093370  0.83716555  1
  Ni  Ni30  1  0.17034109  0.50419637  0.50392893  1
  Ni  Ni31  1  0.00417280  0.33699414  0.67107544  1
  Ni  Ni32  1  0.17058459  0.50349974  0.83719322  1
  Ni  Ni33  1  0.17164565  0.83699967  0.50392881  1
  Ni  Ni34  1  0.00417607  0.67021177  0.67078060  1
  Fe  Fe35  1  0.17019694  0.83715057  0.83689465  1
  Fe  Fe36  1  0.50398785  0.17032269  0.50374515  1
  Fe  Fe37  1  0.33709011  1.00333640  0.67036316  1
  Fe  Fe38  1  0.50424602  0.17087151  0.83729783  1
  Fe  Fe39  1  0.50390294  0.50448916  0.50414298  1
  Fe  Fe40  1  0.33687933  0.33765601  0.67085612  1
  Ni  Ni41  1  0.50373715  0.50465722  0.83730993  1
  Ni  Ni42  1  0.50339746  0.83750719  0.50391807  1
  Ni  Ni43  1  0.33761297  0.67051206  0.67072541  1
  Ni  Ni44  1  0.50408720  0.83714577  0.83715636  1
  Ni  Ni45  1  0.83721477  0.17094809  0.50392800  1
  Ni  Ni46  1  0.67066201  1.00365031  0.67101940  1
  Ni  Ni47  1  0.83770306  0.17058167  0.83734862  1
  Ni  Ni48  1  0.83772204  0.50319455  0.50396696  1
  Fe  Fe49  1  0.67126727  0.33751240  0.67087826  1
  Ni  Ni50  1  0.83747964  0.50356583  0.83731063  1
  Fe  Fe51  1  0.83727799  0.83708907  0.50436759  1
  Ni  Ni52  1  0.67001255  0.67086799  0.67060817  1
  Ni  Ni53  1  0.83654678  0.83765472  0.83715543  1
" 