5107,Ni44Fe40Cr15_19,-234.708855111201, 208.315436967662,Ni44Fe40Cr15,"# generated using pymatgen
 data_Cr9Fe22Ni23
_symmetry_space_group_name_H-M   'P 1'
_cell_length_a   7.43246859
_cell_length_b   7.43246859
_cell_length_c   10.51109788
_cell_angle_alpha   90.00000000
_cell_angle_beta   90.00000000
_cell_angle_gamma   90.00000000
_symmetry_Int_Tables_number   1
_chemical_formula_structural   Cr9Fe22Ni23
_chemical_formula_sum   'Cr9 Fe22 Ni23'
_cell_volume   580.64975160
_cell_formula_units_Z   1
loop_
 _symmetry_equiv_pos_site_id
 _symmetry_equiv_pos_as_xyz
  1  'x, y, z'
loop_
 _atom_site_type_symbol
 _atom_site_label
 _atom_site_symmetry_multiplicity
 _atom_site_fract_x
 _atom_site_fract_y
 _atom_site_fract_z
 _atom_site_occupancy
  Fe  Fe0  1  0.00522773  0.00253439  0.00331775  1
  Fe  Fe1  1  0.16838718  0.16894207  0.16833055  1
  Ni  Ni2  1  0.00287411  1.00090177  0.33499112  1
  Ni  Ni3  1  0.00445000  0.33580571  0.00297398  1
  Ni  Ni4  1  0.16908379  0.50244656  0.17024678  1
  Fe  Fe5  1  0.00273191  0.33571067  0.33529592  1
  Fe  Fe6  1  0.00317236  0.66994644  0.00280746  1
  Ni  Ni7  1  0.16897913  0.83599792  0.16934279  1
  Ni  Ni8  1  0.00403556  0.67060704  0.33530981  1
  Fe  Fe9  1  0.33383929  0.00284148  1.00133520  1
  Fe  Fe10  1  0.50089255  0.16895414  0.16868084  1
  Fe  Fe11  1  0.33428685  1.00068000  0.33595270  1
  Ni  Ni12  1  0.33509139  0.33448192  1.00087418  1
  Cr  Cr13  1  0.50095899  0.50302943  0.16941191  1
  Ni  Ni14  1  0.33580092  0.33621496  0.33668694  1
  Fe  Fe15  1  0.33538299  0.67014115  0.00277685  1
  Ni  Ni16  1  0.50020132  0.83538890  0.16993681  1
  Ni  Ni17  1  0.33409908  0.66849322  0.33622138  1
  Cr  Cr18  1  0.66784672  1.00138287  0.00289250  1
  Ni  Ni19  1  0.83779387  0.16904516  0.16989318  1
  Cr  Cr20  1  0.66940269  1.00200097  0.33596480  1
  Fe  Fe21  1  0.66811245  0.33604973  1.00144571  1
  Cr  Cr22  1  0.83647300  0.50064749  0.16933810  1
  Ni  Ni23  1  0.66747048  0.33505148  0.33577826  1
  Fe  Fe24  1  0.66842654  0.66850897  1.00113131  1
  Ni  Ni25  1  0.83779795  0.83742357  0.16969285  1
  Ni  Ni26  1  0.66884753  0.66932280  0.33759948  1
  Fe  Fe27  1  0.16903797  0.16890945  0.50207975  1
  Ni  Ni28  1  0.00346990  0.99981815  0.66987653  1
  Ni  Ni29  1  0.16846726  0.16771927  0.83588476  1
  Fe  Fe30  1  0.17012055  0.50383864  0.50147519  1
  Fe  Fe31  1  0.00389250  0.33495516  0.66840970  1
  Cr  Cr32  1  0.16968029  0.50203738  0.83466260  1
  Ni  Ni33  1  0.16814412  0.83546809  0.50155817  1
  Ni  Ni34  1  1.00218830  0.67041462  0.66919875  1
  Ni  Ni35  1  0.16839067  0.83714173  0.83608431  1
  Fe  Fe36  1  0.50035638  0.17068785  0.50087960  1
  Cr  Cr37  1  0.33489640  0.00271881  0.67019912  1
  Ni  Ni38  1  0.50012587  0.17114847  0.83702592  1
  Ni  Ni39  1  0.50233689  0.50343148  0.50164783  1
  Fe  Fe40  1  0.33462107  0.33612998  0.66887491  1
  Ni  Ni41  1  0.50359178  0.50326522  0.83599004  1
  Ni  Ni42  1  0.50115286  0.83196369  0.50131660  1
  Fe  Fe43  1  0.33625933  0.66941629  0.66775327  1
  Ni  Ni44  1  0.50133990  0.83256680  0.83572664  1
  Fe  Fe45  1  0.83757754  0.16895014  0.50106202  1
  Cr  Cr46  1  0.66884656  1.00047277  0.66811649  1
  Cr  Cr47  1  0.83895494  0.16982311  0.83600472  1
  Fe  Fe48  1  0.83569912  0.50459255  0.50112044  1
  Cr  Cr49  1  0.66635515  0.33694696  0.67003164  1
  Fe  Fe50  1  0.83482228  0.50460826  0.83649725  1
  Fe  Fe51  1  0.83748435  0.83343442  0.50176258  1
  Fe  Fe52  1  0.66885833  0.66964632  0.66864818  1
  Fe  Fe53  1  0.83727888  0.83295910  0.83549937  1
" 