4373,Ni44Fe24Cr30_3,-228.174982897712, 173.288759620423,Ni44Fe24Cr30,"# generated using pymatgen
 data_Cr17Fe13Ni24
_symmetry_space_group_name_H-M   'P 1'
_cell_length_a   7.47038612
_cell_length_b   7.47038612
_cell_length_c   10.56472136
_cell_angle_alpha   90.00000000
_cell_angle_beta   90.00000000
_cell_angle_gamma   90.00000000
_symmetry_Int_Tables_number   1
_chemical_formula_structural   Cr17Fe13Ni24
_chemical_formula_sum   'Cr17 Fe13 Ni24'
_cell_volume   589.58190575
_cell_formula_units_Z   1
loop_
 _symmetry_equiv_pos_site_id
 _symmetry_equiv_pos_as_xyz
  1  'x, y, z'
loop_
 _atom_site_type_symbol
 _atom_site_label
 _atom_site_symmetry_multiplicity
 _atom_site_fract_x
 _atom_site_fract_y
 _atom_site_fract_z
 _atom_site_occupancy
  Ni  Ni0  1  0.99800597  0.00012206  0.00070697  1
  Ni  Ni1  1  0.16670860  0.16490884  0.16423994  1
  Fe  Fe2  1  0.99837437  0.00344670  0.33295587  1
  Fe  Fe3  1  0.99832764  0.32963799  0.99770069  1
  Cr  Cr4  1  0.16589739  0.49865020  0.16604740  1
  Cr  Cr5  1  0.00113232  0.33129482  0.33523544  1
  Ni  Ni6  1  0.99663504  0.66734062  0.99831187  1
  Cr  Cr7  1  0.16701135  0.83538123  0.16653681  1
  Cr  Cr8  1  0.99706979  0.66997835  0.33220846  1
  Ni  Ni9  1  0.33407902  0.00151067  0.00079255  1
  Ni  Ni10  1  0.50040090  0.16345071  0.16464585  1
  Ni  Ni11  1  0.33538882  0.00126871  0.33164623  1
  Fe  Fe12  1  0.33270585  0.33102977  -0.00007595  1
  Cr  Cr13  1  0.50079837  0.49910349  0.16650717  1
  Ni  Ni14  1  0.33273218  0.33017394  0.33367383  1
  Cr  Cr15  1  0.33412367  0.66878522  0.99808299  1
  Ni  Ni16  1  0.50185987  0.83638317  0.16618884  1
  Fe  Fe17  1  0.33676597  0.66706799  0.33389449  1
  Ni  Ni18  1  0.66695506  0.99946524  0.00003357  1
  Ni  Ni19  1  0.83171034  0.16408947  0.16524006  1
  Ni  Ni20  1  0.66583292  0.99701563  0.33291042  1
  Ni  Ni21  1  0.66702304  0.33208324  0.99969500  1
  Cr  Cr22  1  0.83265546  0.49937462  0.16240383  1
  Cr  Cr23  1  0.66538991  0.32953575  0.33323269  1
  Ni  Ni24  1  0.66813322  0.66833891  0.99846005  1
  Fe  Fe25  1  0.83052959  0.83647543  0.16499375  1
  Fe  Fe26  1  0.66330572  0.66952359  0.33332347  1
  Ni  Ni27  1  0.16418526  0.16685163  0.50046452  1
  Ni  Ni28  1  0.99719197  0.00141850  0.66471549  1
  Fe  Fe29  1  0.16385932  0.16608523  0.83430290  1
  Ni  Ni30  1  0.16909462  0.49942717  0.49975735  1
  Ni  Ni31  1  -0.00000331  0.33187178  0.66736171  1
  Ni  Ni32  1  0.16350209  0.49824397  0.83459620  1
  Cr  Cr33  1  0.16785272  0.83479433  0.49819242  1
  Cr  Cr34  1  0.99857643  0.66663942  0.66749609  1
  Cr  Cr35  1  0.16604133  0.83446523  0.83434447  1
  Cr  Cr36  1  0.50112398  0.16385244  0.49835161  1
  Cr  Cr37  1  0.33422314  0.99857909  0.66743199  1
  Cr  Cr38  1  0.50396403  0.16341167  0.83722837  1
  Ni  Ni39  1  0.49719504  0.50407053  0.49971212  1
  Cr  Cr40  1  0.33138930  0.33392438  0.66663097  1
  Fe  Fe41  1  0.50134936  0.50030411  0.83390801  1
  Ni  Ni42  1  0.50192216  0.83095637  0.50022559  1
  Fe  Fe43  1  0.33435336  0.66502598  0.66760067  1
  Ni  Ni44  1  0.50304265  0.83197792  0.83287204  1
  Ni  Ni45  1  0.83533132  0.16232719  0.50138842  1
  Fe  Fe46  1  0.67011398  0.99771342  0.66692700  1
  Ni  Ni47  1  0.83476407  0.16671136  0.83279088  1
  Cr  Cr48  1  0.83230356  0.49925821  0.50020124  1
  Cr  Cr49  1  0.66749604  0.33341550  0.66544818  1
  Fe  Fe50  1  0.83250008  0.49896491  0.83536001  1
  Ni  Ni51  1  0.83021680  0.83666727  0.49977217  1
  Fe  Fe52  1  0.66474908  0.66938795  0.66718202  1
  Fe  Fe53  1  0.83204300  0.83615182  0.83407898  1
" 