8726,Ni44Fe26Cr28_3,-229.240408552273, 188.307663885089,Ni44Fe26Cr28,"# generated using pymatgen
 data_Cr8Fe7Ni12
_symmetry_space_group_name_H-M   'P 1'
_cell_length_a   7.45980284
_cell_length_b   7.45980284
_cell_length_c   10.54975435
_cell_angle_alpha   90.00000000
_cell_angle_beta   90.00000000
_cell_angle_gamma   90.00000000
_symmetry_Int_Tables_number   1
_chemical_formula_structural   Cr8Fe7Ni12
_chemical_formula_sum   'Cr16 Fe14 Ni24'
_cell_volume   587.07967674
_cell_formula_units_Z   2
loop_
 _symmetry_equiv_pos_site_id
 _symmetry_equiv_pos_as_xyz
  1  'x, y, z'
loop_
 _atom_site_type_symbol
 _atom_site_label
 _atom_site_symmetry_multiplicity
 _atom_site_fract_x
 _atom_site_fract_y
 _atom_site_fract_z
 _atom_site_occupancy
  Cr  Cr0  1  0.00192079  0.99942574  0.00160496  1
  Ni  Ni1  1  0.16763674  0.16706388  0.16714375  1
  Cr  Cr2  1  0.99910424  1.00000308  0.33425913  1
  Ni  Ni3  1  0.00138192  0.33555051  0.00321225  1
  Fe  Fe4  1  0.16634956  0.50166806  0.16863682  1
  Fe  Fe5  1  0.00361305  0.33370817  0.33309420  1
  Ni  Ni6  1  0.00170398  0.66703808  0.99846102  1
  Fe  Fe7  1  0.16968580  0.83283482  0.16939260  1
  Ni  Ni8  1  0.00300118  0.66713253  0.33564636  1
  Ni  Ni9  1  0.33348013  0.99684898  0.99995471  1
  Cr  Cr10  1  0.49562120  0.16322272  0.16708880  1
  Ni  Ni11  1  0.33386113  0.99884446  0.33496537  1
  Cr  Cr12  1  0.33112948  0.33526308  0.99988977  1
  Ni  Ni13  1  0.50209558  0.50407854  0.16861663  1
  Ni  Ni14  1  0.33273730  0.33502559  0.33412321  1
  Cr  Cr15  1  0.33295266  0.66869373  0.00153109  1
  Ni  Ni16  1  0.50035997  0.83348733  0.16852885  1
  Ni  Ni17  1  0.33239199  0.66770492  0.33357547  1
  Ni  Ni18  1  0.66641252  0.99697255  0.99996055  1
  Fe  Fe19  1  0.83322671  0.16748830  0.16753929  1
  Ni  Ni20  1  0.66629259  0.99916643  0.33675308  1
  Cr  Cr21  1  0.66822136  0.33402188  0.00252256  1
  Ni  Ni22  1  0.83673882  0.50356829  0.16671440  1
  Cr  Cr23  1  0.66780768  0.33158781  0.33349193  1
  Fe  Fe24  1  0.66792138  0.66963980  0.00117393  1
  Cr  Cr25  1  0.83359676  0.83116510  0.16741822  1
  Fe  Fe26  1  0.66605978  0.66982549  0.33389525  1
  Ni  Ni27  1  0.16912923  0.16385557  0.49963074  1
  Ni  Ni28  1  1.00022832  0.99769312  0.66630085  1
  Ni  Ni29  1  0.16711730  0.16443743  0.83441585  1
  Fe  Fe30  1  0.16745298  0.50172821  0.49945856  1
  Cr  Cr31  1  0.00135849  0.32994370  0.66498411  1
  Ni  Ni32  1  0.16502387  0.50238145  0.83304475  1
  Ni  Ni33  1  0.16705713  0.83395953  0.50082331  1
  Fe  Fe34  1  0.00225115  0.66935613  0.66669091  1
  Fe  Fe35  1  0.16713828  0.83391382  0.83148176  1
  Ni  Ni36  1  0.49866824  0.16504967  0.50096727  1
  Fe  Fe37  1  0.33196676  0.99869524  0.66566328  1
  Cr  Cr38  1  0.49809828  0.16330017  0.83268722  1
  Cr  Cr39  1  0.49978119  0.50185817  0.50032051  1
  Cr  Cr40  1  0.33334913  0.33557140  0.66700589  1
  Cr  Cr41  1  0.50169639  0.50252304  0.83286878  1
  Fe  Fe42  1  0.49984220  0.83564568  0.49949377  1
  Ni  Ni43  1  0.33332300  0.67066876  0.66668906  1
  Fe  Fe44  1  0.50006197  0.83413709  0.83370835  1
  Ni  Ni45  1  0.83377621  0.16450297  0.50049886  1
  Fe  Fe46  1  0.66740366  0.99938348  0.66465085  1
  Cr  Cr47  1  0.83463143  0.16601219  0.83444907  1
  Cr  Cr48  1  0.83468943  0.50398075  0.50105512  1
  Ni  Ni49  1  0.66731802  0.33279412  0.66529361  1
  Cr  Cr50  1  0.83519556  0.50425047  0.83295290  1
  Ni  Ni51  1  0.83496606  0.83387425  0.50225562  1
  Ni  Ni52  1  0.66530435  0.67146414  0.66723272  1
  Fe  Fe53  1  0.83408875  0.83421124  0.83240377  1
" 