8347,Ni44Fe26Cr28_10,-229.309249215218, 187.580380069284,Ni44Fe26Cr28,"# generated using pymatgen
 data_Cr8Fe7Ni12
_symmetry_space_group_name_H-M   'P 1'
_cell_length_a   7.46158921
_cell_length_b   7.46158921
_cell_length_c   10.55228066
_cell_angle_alpha   90.00000000
_cell_angle_beta   90.00000000
_cell_angle_gamma   90.00000000
_symmetry_Int_Tables_number   1
_chemical_formula_structural   Cr8Fe7Ni12
_chemical_formula_sum   'Cr16 Fe14 Ni24'
_cell_volume   587.50153442
_cell_formula_units_Z   2
loop_
 _symmetry_equiv_pos_site_id
 _symmetry_equiv_pos_as_xyz
  1  'x, y, z'
loop_
 _atom_site_type_symbol
 _atom_site_label
 _atom_site_symmetry_multiplicity
 _atom_site_fract_x
 _atom_site_fract_y
 _atom_site_fract_z
 _atom_site_occupancy
  Ni  Ni0  1  0.00069102  0.99930387  0.00084396  1
  Ni  Ni1  1  0.16553522  0.16640431  0.16666568  1
  Fe  Fe2  1  0.00230907  1.00001121  0.33147690  1
  Cr  Cr3  1  0.00432118  0.33273947  0.99826016  1
  Ni  Ni4  1  0.16929214  0.50027977  0.16835572  1
  Ni  Ni5  1  0.00217617  0.33404907  0.33199076  1
  Cr  Cr6  1  0.00059594  0.66720412  0.99930884  1
  Ni  Ni7  1  0.16754913  0.83454914  0.16672808  1
  Cr  Cr8  1  0.00184699  0.66746852  0.33539356  1
  Ni  Ni9  1  0.33305368  0.99952237  0.99988042  1
  Cr  Cr10  1  0.49938120  0.16781440  0.16667333  1
  Cr  Cr11  1  0.33514523  0.99867815  0.33275815  1
  Ni  Ni12  1  0.33033392  0.33249832  0.00044623  1
  Cr  Cr13  1  0.49794428  0.50202210  0.16663406  1
  Ni  Ni14  1  0.33115401  0.33462634  0.33454919  1
  Fe  Fe15  1  0.33108939  0.66921136  0.00073255  1
  Ni  Ni16  1  0.49910328  0.83260927  0.16300290  1
  Ni  Ni17  1  0.33336134  0.66706340  0.33484903  1
  Ni  Ni18  1  0.66746356  0.99652150  0.99967071  1
  Ni  Ni19  1  0.83635073  0.16439152  0.16731950  1
  Cr  Cr20  1  0.66601480  0.99858265  0.33334490  1
  Cr  Cr21  1  0.66936153  0.33169378  0.99921744  1
  Cr  Cr22  1  0.83366497  0.50014836  0.16712154  1
  Fe  Fe23  1  0.66603800  0.33437976  0.33501462  1
  Fe  Fe24  1  0.66718994  0.67110903  0.99930270  1
  Ni  Ni25  1  0.83456703  0.83675021  0.16643244  1
  Cr  Cr26  1  0.66533328  0.67073207  0.33406615  1
  Cr  Cr27  1  0.16720241  0.16478150  0.49967073  1
  Fe  Fe28  1  0.00169221  0.99830795  0.66896869  1
  Ni  Ni29  1  0.16858729  0.16413958  0.83439182  1
  Fe  Fe30  1  0.16823054  0.50042896  0.50082560  1
  Cr  Cr31  1  0.00253330  0.33677094  0.67195897  1
  Ni  Ni32  1  0.16844918  0.50234640  0.83237586  1
  Ni  Ni33  1  0.16740263  0.83162343  0.50202731  1
  Ni  Ni34  1  0.00048984  0.66778470  0.66619302  1
  Ni  Ni35  1  0.16612053  0.83450912  0.83266062  1
  Ni  Ni36  1  0.50040826  0.16833866  0.50219232  1
  Fe  Fe37  1  0.33262489  0.99844870  0.66704867  1
  Cr  Cr38  1  0.49895341  0.16595569  0.83224655  1
  Fe  Fe39  1  0.49801085  0.49932264  0.50025730  1
  Ni  Ni40  1  0.33347413  0.33247826  0.66638248  1
  Cr  Cr41  1  0.49890275  0.50150964  0.83536978  1
  Ni  Ni42  1  0.49724209  0.83372852  0.50292134  1
  Fe  Fe43  1  0.33051994  0.66656708  0.66620187  1
  Fe  Fe44  1  0.49874882  0.83360548  0.83458316  1
  Cr  Cr45  1  0.83445605  0.16801903  0.50009105  1
  Fe  Fe46  1  0.66675125  0.00066796  0.66702049  1
  Fe  Fe47  1  0.83577572  0.16353341  0.83429934  1
  Ni  Ni48  1  0.83319423  0.49999688  0.50054001  1
  Fe  Fe49  1  0.66693139  0.33507865  0.66675421  1
  Ni  Ni50  1  0.83340024  0.50311789  0.83297817  1
  Fe  Fe51  1  0.83546921  0.83492453  0.50201955  1
  Cr  Cr52  1  0.66839617  0.66908856  0.66676679  1
  Ni  Ni53  1  0.83491703  0.83431315  0.83296614  1
" 