6429,Ni44Fe40Cr15_5,-234.224881955826, 203.711992678679,Ni44Fe40Cr15,"# generated using pymatgen
 data_Cr9Fe22Ni23
_symmetry_space_group_name_H-M   'P 1'
_cell_length_a   7.43187554
_cell_length_b   7.43187554
_cell_length_c   10.51025919
_cell_angle_alpha   90.00000000
_cell_angle_beta   90.00000000
_cell_angle_gamma   90.00000000
_symmetry_Int_Tables_number   1
_chemical_formula_structural   Cr9Fe22Ni23
_chemical_formula_sum   'Cr9 Fe22 Ni23'
_cell_volume   580.51077125
_cell_formula_units_Z   1
loop_
 _symmetry_equiv_pos_site_id
 _symmetry_equiv_pos_as_xyz
  1  'x, y, z'
loop_
 _atom_site_type_symbol
 _atom_site_label
 _atom_site_symmetry_multiplicity
 _atom_site_fract_x
 _atom_site_fract_y
 _atom_site_fract_z
 _atom_site_occupancy
  Fe  Fe0  1  0.00468423  1.00039130  0.00249811  1
  Fe  Fe1  1  0.17000003  0.16866474  0.16821645  1
  Cr  Cr2  1  1.00181062  1.00148104  0.33495637  1
  Fe  Fe3  1  1.00205113  0.33593647  1.00108756  1
  Cr  Cr4  1  0.16838957  0.50414649  0.17078862  1
  Fe  Fe5  1  1.00159611  0.33626699  0.33723678  1
  Ni  Ni6  1  1.00103743  0.66974812  1.00113082  1
  Ni  Ni7  1  0.16880379  0.83517436  0.16741073  1
  Ni  Ni8  1  1.00178379  0.66851986  0.33728612  1
  Ni  Ni9  1  0.33304755  0.00376437  0.00366421  1
  Ni  Ni10  1  0.50399988  0.16947173  0.17013140  1
  Cr  Cr11  1  0.33578303  0.00453798  0.33453897  1
  Fe  Fe12  1  0.33717368  0.33574933  1.00142749  1
  Fe  Fe13  1  0.50232927  0.50188648  0.16816331  1
  Ni  Ni14  1  0.33679111  0.33554430  0.33658906  1
  Ni  Ni15  1  0.33570166  0.66923491  0.00312297  1
  Fe  Fe16  1  0.50118202  0.83550823  0.16788106  1
  Fe  Fe17  1  0.33396372  0.66806033  0.33589577  1
  Cr  Cr18  1  0.66859749  1.00215188  0.00284458  1
  Fe  Fe19  1  0.83554955  0.16980737  0.16931206  1
  Ni  Ni20  1  0.66991706  0.00443074  0.33572875  1
  Fe  Fe21  1  0.66787508  0.33783010  1.00171668  1
  Fe  Fe22  1  0.83538876  0.50240085  0.16856763  1
  Fe  Fe23  1  0.66875259  0.33421984  0.33629145  1
  Ni  Ni24  1  0.67036021  0.66629648  0.00352074  1
  Fe  Fe25  1  0.83643269  0.83488844  0.16841746  1
  Cr  Cr26  1  0.67050570  0.66844818  0.33388035  1
  Ni  Ni27  1  0.16902797  0.17072008  0.50266896  1
  Cr  Cr28  1  0.00371344  1.00153182  0.66946148  1
  Fe  Fe29  1  0.17127517  0.17006605  0.83547556  1
  Fe  Fe30  1  0.16908088  0.50251920  0.50294571  1
  Ni  Ni31  1  0.00246377  0.33699714  0.66835813  1
  Ni  Ni32  1  0.16804724  0.50346436  0.83414476  1
  Ni  Ni33  1  0.16829864  0.83363946  0.50310243  1
  Ni  Ni34  1  0.00337788  0.66795853  0.66868309  1
  Ni  Ni35  1  0.16803003  0.83405731  0.83658505  1
  Fe  Fe36  1  0.50242182  0.17165113  0.50315292  1
  Ni  Ni37  1  0.33517145  0.00485810  0.66911607  1
  Ni  Ni38  1  0.50294567  0.17106613  0.83335939  1
  Ni  Ni39  1  0.50199421  0.49935392  0.50188654  1
  Ni  Ni40  1  0.33656976  0.33481760  0.66947733  1
  Ni  Ni41  1  0.50196136  0.49959005  0.83728715  1
  Cr  Cr42  1  0.50058261  0.83697826  0.50363102  1
  Ni  Ni43  1  0.33294483  0.66742519  0.66830034  1
  Cr  Cr44  1  0.49986027  0.83608527  0.83523385  1
  Fe  Fe45  1  0.83435532  0.17086975  0.50253997  1
  Fe  Fe46  1  0.66844174  0.00593222  0.66893180  1
  Fe  Fe47  1  0.83542675  0.17117095  0.83524624  1
  Ni  Ni48  1  0.83748692  0.50008072  0.50214494  1
  Ni  Ni49  1  0.66806678  0.33476902  0.66888606  1
  Fe  Fe50  1  0.83653576  0.50203691  0.83581286  1
  Fe  Fe51  1  0.83766771  0.83499448  0.50190636  1
  Cr  Cr52  1  0.67064303  0.66669925  0.67035906  1
  Fe  Fe53  1  0.83788134  0.83388627  0.83677755  1
" 