2381,Ni44Fe18Cr36_18,-225.11148738428, 173.842370299738,Ni44Fe18Cr36,"# generated using pymatgen
 data_Cr21Fe10Ni23
_symmetry_space_group_name_H-M   'P 1'
_cell_length_a   7.48006788
_cell_length_b   7.48006788
_cell_length_c   10.57841345
_cell_angle_alpha   90.00000000
_cell_angle_beta   90.00000000
_cell_angle_gamma   90.00000000
_symmetry_Int_Tables_number   1
_chemical_formula_structural   Cr21Fe10Ni23
_chemical_formula_sum   'Cr21 Fe10 Ni23'
_cell_volume   591.87720683
_cell_formula_units_Z   1
loop_
 _symmetry_equiv_pos_site_id
 _symmetry_equiv_pos_as_xyz
  1  'x, y, z'
loop_
 _atom_site_type_symbol
 _atom_site_label
 _atom_site_symmetry_multiplicity
 _atom_site_fract_x
 _atom_site_fract_y
 _atom_site_fract_z
 _atom_site_occupancy
  Ni  Ni0  1  0.99698497  0.00144059  0.99883731  1
  Cr  Cr1  1  0.16595319  0.16229769  0.16558689  1
  Fe  Fe2  1  0.99802927  0.99396003  0.33290575  1
  Ni  Ni3  1  0.99704348  0.33279973  0.99685727  1
  Cr  Cr4  1  0.16784390  0.50233317  0.16465451  1
  Cr  Cr5  1  0.99708339  0.33542705  0.33169690  1
  Cr  Cr6  1  0.99680544  0.66157725  0.99912018  1
  Cr  Cr7  1  0.16675440  0.83275993  0.16533334  1
  Fe  Fe8  1  0.99727688  0.66957068  0.33405281  1
  Ni  Ni9  1  0.33730430  0.99911844  0.00001242  1
  Ni  Ni10  1  0.50261435  0.16489978  0.16534997  1
  Ni  Ni11  1  0.33605262  0.99543253  0.33231105  1
  Cr  Cr12  1  0.33303788  0.33233199  0.99814897  1
  Ni  Ni13  1  0.50228823  0.50027767  0.16757038  1
  Cr  Cr14  1  0.33421981  0.33164728  0.33302293  1
  Fe  Fe15  1  0.33513669  0.66687583  0.99838125  1
  Fe  Fe16  1  0.49989668  0.83393686  0.16704121  1
  Ni  Ni17  1  0.33635128  0.66902654  0.33267437  1
  Ni  Ni18  1  0.66309011  -0.00042372  0.99911349  1
  Cr  Cr19  1  0.82927182  0.16443493  0.16414431  1
  Ni  Ni20  1  0.66391670  0.99427543  0.33100835  1
  Fe  Fe21  1  0.66640123  0.33067054  0.99758856  1
  Fe  Fe22  1  0.82899692  0.49906499  0.16661550  1
  Fe  Fe23  1  0.66316377  0.33504872  0.33205331  1
  Cr  Cr24  1  0.66441263  0.66687982  -0.00085207  1
  Fe  Fe25  1  0.82943012  0.83296289  0.16722798  1
  Ni  Ni26  1  0.66638277  0.66769808  0.33368074  1
  Cr  Cr27  1  0.16568728  0.16186417  0.49860942  1
  Fe  Fe28  1  0.99756480  0.99823480  0.66526391  1
  Cr  Cr29  1  0.16338611  0.16517881  0.83307260  1
  Cr  Cr30  1  0.16958694  0.50215750  0.49888746  1
  Cr  Cr31  1  0.99855400  0.33432924  0.66835347  1
  Ni  Ni32  1  0.16796201  0.49790309  0.83429271  1
  Ni  Ni33  1  0.16500930  0.83324967  0.49604704  1
  Cr  Cr34  1  0.99481910  0.66504207  0.66421500  1
  Cr  Cr35  1  0.16755695  0.83206480  0.83485368  1
  Cr  Cr36  1  0.50098708  0.16878712  0.49855440  1
  Cr  Cr37  1  0.33469752  -0.00074443  0.66475452  1
  Fe  Fe38  1  0.50192549  0.16719250  0.83356180  1
  Ni  Ni39  1  0.50343236  0.50231999  0.49960993  1
  Ni  Ni40  1  0.33523200  0.33378260  0.66707188  1
  Ni  Ni41  1  0.50053656  0.49903542  0.83051161  1
  Ni  Ni42  1  0.50007004  0.82884533  0.49552097  1
  Cr  Cr43  1  0.33629418  0.66533141  0.66695729  1
  Ni  Ni44  1  0.49929951  0.83076740  0.83573435  1
  Cr  Cr45  1  0.83037232  0.16497840  0.49941635  1
  Cr  Cr46  1  0.66476399  0.99560675  0.66740260  1
  Ni  Ni47  1  0.83046265  0.16789062  0.83495857  1
  Ni  Ni48  1  0.82640904  0.50223331  0.49745135  1
  Ni  Ni49  1  0.66505144  0.33617670  0.66761984  1
  Ni  Ni50  1  0.82900670  0.49462190  0.83315624  1
  Ni  Ni51  1  0.83211830  0.83096180  0.49691660  1
  Ni  Ni52  1  0.66576526  0.66377796  0.66405588  1
  Cr  Cr53  1  0.83070835  0.83508848  0.83201496  1
" 