636,Ni44Fe56_17,-242.727205355644, 226.960839024728,Ni44Fe56,"# generated using pymatgen
 data_Fe23Ni31
_symmetry_space_group_name_H-M   'P 1'
_cell_length_a   7.40490969
_cell_length_b   7.40490969
_cell_length_c   10.47212371
_cell_angle_alpha   90.00000000
_cell_angle_beta   90.00000000
_cell_angle_gamma   90.00000000
_symmetry_Int_Tables_number   1
_chemical_formula_structural   Fe23Ni31
_chemical_formula_sum   'Fe23 Ni31'
_cell_volume   574.21468739
_cell_formula_units_Z   1
loop_
 _symmetry_equiv_pos_site_id
 _symmetry_equiv_pos_as_xyz
  1  'x, y, z'
loop_
 _atom_site_type_symbol
 _atom_site_label
 _atom_site_symmetry_multiplicity
 _atom_site_fract_x
 _atom_site_fract_y
 _atom_site_fract_z
 _atom_site_occupancy
  Fe  Fe0  1  0.00507934  1.00373465  0.00419657  1
  Ni  Ni1  1  0.17205635  0.17054683  0.17111451  1
  Ni  Ni2  1  0.00507037  0.00461617  0.33666672  1
  Ni  Ni3  1  1.00408477  0.33719045  0.00488210  1
  Fe  Fe4  1  0.17061858  0.50486467  0.17016673  1
  Fe  Fe5  1  0.00427137  0.33738709  0.33738644  1
  Ni  Ni6  1  1.00231347  0.67026433  1.00385037  1
  Ni  Ni7  1  0.17061015  0.83795242  0.17079726  1
  Ni  Ni8  1  1.00217910  0.67109836  0.33779439  1
  Ni  Ni9  1  0.33789840  0.00512748  1.00404850  1
  Ni  Ni10  1  0.50234099  0.17054677  0.17111588  1
  Ni  Ni11  1  0.33710338  0.00541723  0.33768987  1
  Ni  Ni12  1  0.33710173  0.33605651  0.00423589  1
  Fe  Fe13  1  0.50422959  0.50507202  0.17111414  1
  Fe  Fe14  1  0.33741352  0.33687502  0.33794657  1
  Ni  Ni15  1  0.33887563  0.67140510  0.00498096  1
  Ni  Ni16  1  0.50411559  0.83762791  0.17172710  1
  Fe  Fe17  1  0.33720864  0.67195598  0.33752777  1
  Fe  Fe18  1  0.67009314  1.00363023  1.00391837  1
  Fe  Fe19  1  0.83794713  0.17000946  0.17060826  1
  Fe  Fe20  1  0.67096954  1.00338162  0.33710922  1
  Fe  Fe21  1  0.67061300  0.33820434  1.00412571  1
  Ni  Ni22  1  0.83785940  0.50585605  0.17131165  1
  Fe  Fe23  1  0.67090188  0.33748753  0.33766433  1
  Ni  Ni24  1  0.67140000  0.67106229  0.00469090  1
  Ni  Ni25  1  0.83786100  0.83505866  0.17076092  1
  Ni  Ni26  1  0.67153085  0.67030184  0.33695457  1
  Ni  Ni27  1  0.17165430  0.17065748  0.50436817  1
  Ni  Ni28  1  0.00450421  0.00596992  0.67122806  1
  Ni  Ni29  1  0.17162226  0.17132053  0.83710449  1
  Fe  Fe30  1  0.17187969  0.50324523  0.50468541  1
  Ni  Ni31  1  1.00418305  0.33600556  0.67033417  1
  Fe  Fe32  1  0.17058581  0.50349369  0.83773696  1
  Fe  Fe33  1  0.17177915  0.83837647  0.50359870  1
  Fe  Fe34  1  0.00470046  0.67086472  0.67113882  1
  Fe  Fe35  1  0.17082727  0.83841288  0.83784937  1
  Ni  Ni36  1  0.50253060  0.17145240  0.50477371  1
  Ni  Ni37  1  0.33718527  0.00519590  0.67084953  1
  Ni  Ni38  1  0.50256399  0.17052315  0.83669908  1
  Ni  Ni39  1  0.50464519  0.50413895  0.50436615  1
  Ni  Ni40  1  0.33718627  0.33645833  0.67096242  1
  Fe  Fe41  1  0.50472850  0.50429238  0.83686360  1
  Fe  Fe42  1  0.50353101  0.83757511  0.50447049  1
  Ni  Ni43  1  0.33974532  0.67093367  0.67064632  1
  Ni  Ni44  1  0.50434108  0.83741484  0.83691583  1
  Fe  Fe45  1  0.83776916  0.17117617  0.50486208  1
  Fe  Fe46  1  0.67026252  0.00443934  0.67156070  1
  Ni  Ni47  1  0.83839771  0.17164237  0.83743329  1
  Fe  Fe48  1  0.83697007  0.50362826  0.50399165  1
  Fe  Fe49  1  0.67019245  0.33728440  0.67079591  1
  Ni  Ni50  1  0.83805395  0.50528117  0.83659445  1
  Fe  Fe51  1  0.83727780  0.83778156  0.50385101  1
  Ni  Ni52  1  0.67044848  0.67061142  0.67093933  1
  Ni  Ni53  1  0.83725660  0.83566215  0.83756371  1
" 