6509,Ni44Fe26Cr28_9,-229.211876378332, 184.338297028856,Ni44Fe26Cr28,"# generated using pymatgen
 data_Cr8Fe7Ni12
_symmetry_space_group_name_H-M   'P 1'
_cell_length_a   7.46457341
_cell_length_b   7.46457341
_cell_length_c   10.55650095
_cell_angle_alpha   90.00000000
_cell_angle_beta   90.00000000
_cell_angle_gamma   90.00000000
_symmetry_Int_Tables_number   1
_chemical_formula_structural   Cr8Fe7Ni12
_chemical_formula_sum   'Cr16 Fe14 Ni24'
_cell_volume   588.20671478
_cell_formula_units_Z   2
loop_
 _symmetry_equiv_pos_site_id
 _symmetry_equiv_pos_as_xyz
  1  'x, y, z'
loop_
 _atom_site_type_symbol
 _atom_site_label
 _atom_site_symmetry_multiplicity
 _atom_site_fract_x
 _atom_site_fract_y
 _atom_site_fract_z
 _atom_site_occupancy
  Ni  Ni0  1  0.00152760  0.99937179  0.00115905  1
  Ni  Ni1  1  0.16660660  0.16654034  0.16751628  1
  Fe  Fe2  1  0.00349355  0.99992521  0.33194424  1
  Cr  Cr3  1  1.00014779  0.33257448  0.00040021  1
  Fe  Fe4  1  0.16902587  0.49883890  0.16587034  1
  Cr  Cr5  1  0.00092663  0.33410515  0.33350497  1
  Fe  Fe6  1  0.99916256  0.66937466  0.00066719  1
  Fe  Fe7  1  0.16677562  0.83574112  0.16544755  1
  Cr  Cr8  1  0.00063393  0.66597352  0.33489656  1
  Cr  Cr9  1  0.33380752  0.99983242  0.99709141  1
  Cr  Cr10  1  0.49833110  0.16588546  0.16933941  1
  Ni  Ni11  1  0.33385000  0.00147644  0.33416288  1
  Ni  Ni12  1  0.33150793  0.33328918  0.00098049  1
  Fe  Fe13  1  0.49981514  0.49992395  0.16607167  1
  Ni  Ni14  1  0.33278055  0.33219661  0.33478521  1
  Ni  Ni15  1  0.33423751  0.66806567  0.00287206  1
  Ni  Ni16  1  0.50073526  0.83025044  0.16686256  1
  Cr  Cr17  1  0.33427484  0.66785140  0.33359512  1
  Cr  Cr18  1  0.66632413  0.99728261  0.99803404  1
  Ni  Ni19  1  0.83571517  0.16614448  0.16954382  1
  Ni  Ni20  1  0.66507953  0.99929628  0.33054173  1
  Cr  Cr21  1  0.66734944  0.33328451  0.00048093  1
  Ni  Ni22  1  0.83245337  0.50337604  0.16722204  1
  Fe  Fe23  1  0.66473469  0.33527525  0.33245193  1
  Ni  Ni24  1  0.66712264  0.66750702  0.00104047  1
  Fe  Fe25  1  0.83291995  0.83511776  0.16680748  1
  Ni  Ni26  1  0.66659494  0.66664363  0.33152935  1
  Ni  Ni27  1  0.16908395  0.16720953  0.50009947  1
  Ni  Ni28  1  0.00219766  0.00083389  0.66688688  1
  Ni  Ni29  1  0.16947060  0.16426513  0.83286965  1
  Ni  Ni30  1  0.17144514  0.49874451  0.50092465  1
  Cr  Cr31  1  0.00081489  0.33404671  0.66724361  1
  Cr  Cr32  1  0.16865585  0.50170271  0.83694966  1
  Fe  Fe33  1  0.16808529  0.83707572  0.50215174  1
  Cr  Cr34  1  0.00053933  0.66636334  0.66530071  1
  Ni  Ni35  1  0.16609145  0.83440599  0.83220557  1
  Fe  Fe36  1  0.49834638  0.16651779  0.50023650  1
  Ni  Ni37  1  0.33370629  0.00086883  0.66778342  1
  Ni  Ni38  1  0.49685191  0.16737460  0.82963836  1
  Fe  Fe39  1  0.50087233  0.49820442  0.50088701  1
  Fe  Fe40  1  0.33426283  0.33219864  0.66561389  1
  Cr  Cr41  1  0.49880965  0.50108738  0.83473118  1
  Cr  Cr42  1  0.50124288  0.83391141  0.50161221  1
  Ni  Ni43  1  0.33464784  0.66819684  0.66549931  1
  Fe  Fe44  1  0.49912966  0.83191786  0.83180600  1
  Cr  Cr45  1  0.83161264  0.16391265  0.49849949  1
  Ni  Ni46  1  0.66453879  0.99917152  0.67039472  1
  Cr  Cr47  1  0.83443770  0.16403657  0.83222207  1
  Fe  Fe48  1  0.83040183  0.49983492  0.50021962  1
  Fe  Fe49  1  0.66479126  0.33328696  0.66712630  1
  Ni  Ni50  1  0.83095050  0.50528064  0.83252169  1
  Cr  Cr51  1  0.83194851  0.83476631  0.49896976  1
  Ni  Ni52  1  0.66577262  0.66663870  0.66781753  1
  Ni  Ni53  1  0.83430776  0.83195149  0.83391941  1
" 