8506,Ni44Fe24Cr30_2,-228.483101052221, 186.795263248372,Ni44Fe24Cr30,"# generated using pymatgen
 data_Cr17Fe13Ni24
_symmetry_space_group_name_H-M   'P 1'
_cell_length_a   7.46198109
_cell_length_b   7.46198109
_cell_length_c   10.55283485
_cell_angle_alpha   90.00000000
_cell_angle_beta   90.00000000
_cell_angle_gamma   90.00000000
_symmetry_Int_Tables_number   1
_chemical_formula_structural   Cr17Fe13Ni24
_chemical_formula_sum   'Cr17 Fe13 Ni24'
_cell_volume   587.59410406
_cell_formula_units_Z   1
loop_
 _symmetry_equiv_pos_site_id
 _symmetry_equiv_pos_as_xyz
  1  'x, y, z'
loop_
 _atom_site_type_symbol
 _atom_site_label
 _atom_site_symmetry_multiplicity
 _atom_site_fract_x
 _atom_site_fract_y
 _atom_site_fract_z
 _atom_site_occupancy
  Ni  Ni0  1  0.99887377  0.00100712  0.99806054  1
  Ni  Ni1  1  0.16706479  0.16741589  0.16848879  1
  Ni  Ni2  1  0.00094555  0.00208233  0.33381465  1
  Cr  Cr3  1  1.00011142  0.33156920  0.00179083  1
  Ni  Ni4  1  0.16564852  0.50035238  0.16730330  1
  Cr  Cr5  1  0.99852084  0.33211221  0.33303252  1
  Fe  Fe6  1  0.99921428  0.66792318  0.99998002  1
  Cr  Cr7  1  0.16476123  0.83368963  0.16958212  1
  Ni  Ni8  1  1.00007530  0.66661788  0.33260537  1
  Cr  Cr9  1  0.33215053  0.00132350  0.99968717  1
  Ni  Ni10  1  0.50220608  0.16881593  0.16754309  1
  Ni  Ni11  1  0.33398758  1.00022818  0.33504349  1
  Cr  Cr12  1  0.33464819  0.33427563  0.99989975  1
  Fe  Fe13  1  0.50191585  0.49933145  0.16772675  1
  Cr  Cr14  1  0.33466975  0.33321324  0.33209862  1
  Cr  Cr15  1  0.33392337  0.66541999  0.00046277  1
  Cr  Cr16  1  0.50222677  0.83468347  0.16968045  1
  Ni  Ni17  1  0.33547779  0.66785156  0.33319923  1
  Fe  Fe18  1  0.66891926  0.00255242  0.99975889  1
  Fe  Fe19  1  0.83272420  0.16696964  0.16723336  1
  Ni  Ni20  1  0.66608545  0.00207133  0.33391184  1
  Ni  Ni21  1  0.66673041  0.33368127  0.00092276  1
  Fe  Fe22  1  0.83225891  0.49990882  0.16710034  1
  Ni  Ni23  1  0.66731648  0.33380863  0.33372347  1
  Ni  Ni24  1  0.66783397  0.66516437  0.99956198  1
  Cr  Cr25  1  0.83403089  0.83300583  0.16599702  1
  Ni  Ni26  1  0.66546205  0.66513817  0.33529581  1
  Ni  Ni27  1  0.16843545  0.16476167  0.50071193  1
  Ni  Ni28  1  0.00265206  0.00128984  0.66914147  1
  Ni  Ni29  1  0.16768485  0.16479821  0.83181667  1
  Cr  Cr30  1  0.16754040  0.50071854  0.50165909  1
  Cr  Cr31  1  0.00149452  0.33075231  0.66619600  1
  Fe  Fe32  1  0.16924584  0.50201421  0.83251807  1
  Cr  Cr33  1  0.16679032  0.83555656  0.49888421  1
  Fe  Fe34  1  0.99997583  0.66931833  0.66835063  1
  Ni  Ni35  1  0.16226540  0.83473896  0.83237757  1
  Ni  Ni36  1  0.49969852  0.16776203  0.49928291  1
  Fe  Fe37  1  0.33206077  0.00173309  0.66700853  1
  Ni  Ni38  1  0.49933505  0.16965489  0.83419109  1
  Ni  Ni39  1  0.50291920  0.50038472  0.50010993  1
  Fe  Fe40  1  0.33492919  0.33293639  0.66768327  1
  Ni  Ni41  1  0.50074398  0.49857676  0.83342152  1
  Fe  Fe42  1  0.49907103  0.83273766  0.49910606  1
  Ni  Ni43  1  0.33509354  0.66620636  0.66814492  1
  Cr  Cr44  1  0.50218031  0.83325819  0.83278879  1
  Fe  Fe45  1  0.83356390  0.16700732  0.49861901  1
  Cr  Cr46  1  0.66764718  0.99967200  0.66783815  1
  Fe  Fe47  1  0.83388243  0.16361775  0.83516698  1
  Fe  Fe48  1  0.83086831  0.50057506  0.49932479  1
  Cr  Cr49  1  0.66572651  0.33469207  0.66576095  1
  Cr  Cr50  1  0.83193897  0.50381520  0.83396443  1
  Cr  Cr51  1  0.83370016  0.83206432  0.49954684  1
  Ni  Ni52  1  0.66419944  0.66614570  0.66616012  1
  Ni  Ni53  1  0.83690601  0.83333103  0.83505352  1
" 