6904,Ni44Fe18Cr36_19,-224.643375842911, 165.90485432655,Ni44Fe18Cr36,"# generated using pymatgen
 data_Cr21Fe10Ni23
_symmetry_space_group_name_H-M   'P 1'
_cell_length_a   7.48483886
_cell_length_b   7.48483886
_cell_length_c   10.58516062
_cell_angle_alpha   90.00000000
_cell_angle_beta   90.00000000
_cell_angle_gamma   90.00000000
_symmetry_Int_Tables_number   1
_chemical_formula_structural   Cr21Fe10Ni23
_chemical_formula_sum   'Cr21 Fe10 Ni23'
_cell_volume   593.01047081
_cell_formula_units_Z   1
loop_
 _symmetry_equiv_pos_site_id
 _symmetry_equiv_pos_as_xyz
  1  'x, y, z'
loop_
 _atom_site_type_symbol
 _atom_site_label
 _atom_site_symmetry_multiplicity
 _atom_site_fract_x
 _atom_site_fract_y
 _atom_site_fract_z
 _atom_site_occupancy
  Ni  Ni0  1  0.99814447  0.00021698  0.99831228  1
  Fe  Fe1  1  0.16417928  0.16541565  0.16543298  1
  Ni  Ni2  1  -0.00086247  -0.00076640  0.33207389  1
  Cr  Cr3  1  0.00036705  0.32963242  0.99819482  1
  Ni  Ni4  1  0.16496175  0.49889498  0.16699642  1
  Fe  Fe5  1  -0.00044047  0.32892720  0.33170330  1
  Cr  Cr6  1  0.00130123  0.66648260  0.99546492  1
  Cr  Cr7  1  0.16556054  0.83259980  0.16455627  1
  Ni  Ni8  1  -0.00070209  0.66681668  0.33101196  1
  Ni  Ni9  1  0.33143573  0.99759077  0.99811973  1
  Cr  Cr10  1  0.49879951  0.16387925  0.16304056  1
  Cr  Cr11  1  0.32896224  0.00188353  0.33362455  1
  Cr  Cr12  1  0.33060620  0.33411700  0.99850055  1
  Fe  Fe13  1  0.49573590  0.50089826  0.16670948  1
  Ni  Ni14  1  0.32973912  0.33392878  0.33031726  1
  Ni  Ni15  1  0.33324978  0.66650438  0.99843276  1
  Ni  Ni16  1  0.49861458  0.83253395  0.16368086  1
  Fe  Fe17  1  0.33218934  0.66553502  0.32947777  1
  Ni  Ni18  1  0.66716927  0.99755714  0.99861068  1
  Fe  Fe19  1  0.83400125  0.16248488  0.16619615  1
  Cr  Cr20  1  0.66674192  0.99844882  0.33330899  1
  Fe  Fe21  1  0.66579169  0.33054628  -0.00110708  1
  Cr  Cr22  1  0.83408343  0.49754913  0.16847557  1
  Ni  Ni23  1  0.66426848  0.33269405  0.33026500  1
  Cr  Cr24  1  0.66434278  0.66604009  0.99855620  1
  Fe  Fe25  1  0.83264339  0.83370121  0.16522016  1
  Ni  Ni26  1  0.66562473  0.66478034  0.32879667  1
  Ni  Ni27  1  0.16195331  0.16673242  0.49730303  1
  Ni  Ni28  1  0.99867128  0.00185603  0.66596782  1
  Ni  Ni29  1  0.16373684  0.16317448  0.83254760  1
  Cr  Cr30  1  0.16488046  0.49957871  0.49920715  1
  Ni  Ni31  1  0.00309632  0.32728969  0.66581334  1
  Fe  Fe32  1  0.16921954  0.49952411  0.83136449  1
  Fe  Fe33  1  0.16301014  0.83326070  0.49899160  1
  Cr  Cr34  1  0.00118823  0.66793240  0.66957912  1
  Ni  Ni35  1  0.16675230  0.83565882  0.83271142  1
  Cr  Cr36  1  0.49822935  0.16754261  0.50151299  1
  Cr  Cr37  1  0.32904869  0.99869485  0.66401769  1
  Cr  Cr38  1  0.49766600  0.16327685  0.83229584  1
  Cr  Cr39  1  0.49746914  0.49877784  0.49640502  1
  Ni  Ni40  1  0.32781548  0.33340331  0.66727716  1
  Ni  Ni41  1  0.49653650  0.49954627  0.83341913  1
  Cr  Cr42  1  0.49661530  0.83073843  0.49971048  1
  Ni  Ni43  1  0.33163626  0.66414400  0.66887601  1
  Ni  Ni44  1  0.49708733  0.83263607  0.83388323  1
  Ni  Ni45  1  0.83637249  0.16504676  0.49922479  1
  Ni  Ni46  1  0.66940678  0.99812219  0.66698136  1
  Fe  Fe47  1  0.83373639  0.16073491  0.83153653  1
  Cr  Cr48  1  0.83434702  0.49687003  0.49658168  1
  Cr  Cr49  1  0.66626698  0.33048448  0.66636925  1
  Cr  Cr50  1  0.83359077  0.49549883  0.83009593  1
  Cr  Cr51  1  0.83422874  0.83201229  0.49821505  1
  Cr  Cr52  1  0.66340484  0.66828323  0.66814012  1
  Ni  Ni53  1  0.83334667  0.83610867  0.83382125  1
" 