3087,Ni44Fe40Cr15_6,-234.391512966543, 208.751926615094,Ni44Fe40Cr15,"# generated using pymatgen
 data_Cr9Fe22Ni23
_symmetry_space_group_name_H-M   'P 1'
_cell_length_a   7.42992165
_cell_length_b   7.42992165
_cell_length_c   10.50749597
_cell_angle_alpha   90.00000000
_cell_angle_beta   90.00000000
_cell_angle_gamma   90.00000000
_symmetry_Int_Tables_number   1
_chemical_formula_structural   Cr9Fe22Ni23
_chemical_formula_sum   'Cr9 Fe22 Ni23'
_cell_volume   580.05303150
_cell_formula_units_Z   1
loop_
 _symmetry_equiv_pos_site_id
 _symmetry_equiv_pos_as_xyz
  1  'x, y, z'
loop_
 _atom_site_type_symbol
 _atom_site_label
 _atom_site_symmetry_multiplicity
 _atom_site_fract_x
 _atom_site_fract_y
 _atom_site_fract_z
 _atom_site_occupancy
  Fe  Fe0  1  1.00067213  0.00508679  0.00500301  1
  Ni  Ni1  1  0.16764429  0.17113383  0.16899032  1
  Ni  Ni2  1  0.00354253  1.00207598  0.33513043  1
  Fe  Fe3  1  1.00088698  0.33311509  0.00291019  1
  Ni  Ni4  1  0.17070115  0.50111649  0.17066055  1
  Fe  Fe5  1  1.00095112  0.33182353  0.33440843  1
  Cr  Cr6  1  1.00078812  0.66849759  0.00512788  1
  Ni  Ni7  1  0.16956748  0.83527626  0.17084718  1
  Fe  Fe8  1  1.00086171  0.67106817  0.33412177  1
  Cr  Cr9  1  0.33381293  0.00395026  0.00447367  1
  Fe  Fe10  1  0.50328203  0.16813457  0.17080173  1
  Fe  Fe11  1  0.33647522  0.00321388  0.33531265  1
  Ni  Ni12  1  0.33532717  0.33651718  0.00507429  1
  Fe  Fe13  1  0.50238760  0.50224516  0.16868415  1
  Fe  Fe14  1  0.33646674  0.33240486  0.33496258  1
  Fe  Fe15  1  0.33853105  0.66819883  0.00454401  1
  Ni  Ni16  1  0.50467291  0.83538620  0.16835214  1
  Fe  Fe17  1  0.33821789  0.67161700  0.33450241  1
  Ni  Ni18  1  0.66961230  1.00187848  0.00499013  1
  Ni  Ni19  1  0.83470851  0.16779500  0.16952932  1
  Ni  Ni20  1  0.66920322  0.00311353  0.33582809  1
  Fe  Fe21  1  0.66994815  0.33627491  0.00397223  1
  Fe  Fe22  1  0.83564598  0.50181865  0.17152027  1
  Ni  Ni23  1  0.66727478  0.33583400  0.33535797  1
  Ni  Ni24  1  0.66893239  0.66741333  0.00432660  1
  Ni  Ni25  1  0.83376967  0.83805354  0.17057796  1
  Fe  Fe26  1  0.66884987  0.67124675  0.33502663  1
  Ni  Ni27  1  0.16900251  0.17038887  0.50248980  1
  Ni  Ni28  1  0.00252189  0.00316488  0.66832145  1
  Fe  Fe29  1  0.16729032  0.17031468  0.83578975  1
  Cr  Cr30  1  0.16978302  0.50176916  0.50147089  1
  Ni  Ni31  1  0.00285299  0.33374676  0.66979660  1
  Cr  Cr32  1  0.17075407  0.50201490  0.83466327  1
  Fe  Fe33  1  0.16772955  0.83783898  0.50074755  1
  Ni  Ni34  1  0.00252663  0.67086515  0.66800978  1
  Fe  Fe35  1  0.16922366  0.83667275  0.83567536  1
  Ni  Ni36  1  0.50315726  0.16880695  0.50107635  1
  Cr  Cr37  1  0.33619528  0.00377057  0.66795514  1
  Cr  Cr38  1  0.50556742  0.17007625  0.83664898  1
  Fe  Fe39  1  0.50228078  0.50125848  0.50169771  1
  Ni  Ni40  1  0.33696384  0.33553317  0.66708414  1
  Ni  Ni41  1  0.50054171  0.50214623  0.83575649  1
  Ni  Ni42  1  0.50432181  0.83715723  0.50211385  1
  Fe  Fe43  1  0.33566570  0.67072019  0.66833290  1
  Fe  Fe44  1  0.50298477  0.83461742  0.83738474  1
  Fe  Fe45  1  0.83624156  0.16690645  0.50178240  1
  Ni  Ni46  1  0.67011007  0.00281703  0.66627411  1
  Ni  Ni47  1  0.83617226  0.16821670  0.83448882  1
  Cr  Cr48  1  0.83781461  0.50235788  0.50259181  1
  Fe  Fe49  1  0.66999628  0.33315347  0.66800288  1
  Fe  Fe50  1  0.83345621  0.49949061  0.83539639  1
  Ni  Ni51  1  0.83552045  0.83806622  0.50110410  1
  Cr  Cr52  1  0.66866460  0.66887530  0.66877676  1
  Cr  Cr53  1  0.83484084  0.83987787  0.83644545  1
" 