5929,Ni44Fe18Cr36_1,-225.267683605969, 174.326718321018,Ni44Fe18Cr36,"# generated using pymatgen
 data_Cr21Fe10Ni23
_symmetry_space_group_name_H-M   'P 1'
_cell_length_a   7.47993669
_cell_length_b   7.47993669
_cell_length_c   10.57822791
_cell_angle_alpha   90.00000000
_cell_angle_beta   90.00000000
_cell_angle_gamma   90.00000000
_symmetry_Int_Tables_number   1
_chemical_formula_structural   Cr21Fe10Ni23
_chemical_formula_sum   'Cr21 Fe10 Ni23'
_cell_volume   591.84606376
_cell_formula_units_Z   1
loop_
 _symmetry_equiv_pos_site_id
 _symmetry_equiv_pos_as_xyz
  1  'x, y, z'
loop_
 _atom_site_type_symbol
 _atom_site_label
 _atom_site_symmetry_multiplicity
 _atom_site_fract_x
 _atom_site_fract_y
 _atom_site_fract_z
 _atom_site_occupancy
  Fe  Fe0  1  0.00011915  0.99682415  0.00205600  1
  Fe  Fe1  1  0.16357394  0.16589998  0.16551620  1
  Ni  Ni2  1  -0.00082782  0.99693899  0.33086987  1
  Fe  Fe3  1  -0.00008979  0.33565771  0.00091230  1
  Ni  Ni4  1  0.16395311  0.49943707  0.16425501  1
  Cr  Cr5  1  -0.00071110  0.33361523  0.33035011  1
  Ni  Ni6  1  -0.00016336  0.66481568  0.00100555  1
  Ni  Ni7  1  0.16176800  0.83098559  0.16478087  1
  Ni  Ni8  1  0.99703542  0.66779708  0.33180241  1
  Cr  Cr9  1  0.33219380  0.99657629  0.99751289  1
  Cr  Cr10  1  0.49855844  0.16551982  0.16755034  1
  Cr  Cr11  1  0.33207529  -0.00067842  0.33397297  1
  Ni  Ni12  1  0.32979625  0.33285045  0.00065286  1
  Cr  Cr13  1  0.49683783  0.50178873  0.16508248  1
  Fe  Fe14  1  0.33092537  0.33089377  0.33287232  1
  Ni  Ni15  1  0.33012812  0.66719415  -0.00020865  1
  Ni  Ni16  1  0.50179717  0.83105556  0.16622983  1
  Cr  Cr17  1  0.33111153  0.66777424  0.33082001  1
  Cr  Cr18  1  0.66479498  0.99810537  -0.00012885  1
  Fe  Fe19  1  0.83534066  0.16332981  0.16647960  1
  Ni  Ni20  1  0.66655514  0.99649440  0.33244193  1
  Cr  Cr21  1  0.66822278  0.33396570  0.99852517  1
  Ni  Ni22  1  0.83585788  0.50317015  0.16545053  1
  Cr  Cr23  1  0.66676584  0.33279170  0.33163018  1
  Ni  Ni24  1  0.66749627  0.66596856  0.00011159  1
  Ni  Ni25  1  0.83387330  0.83182630  0.16790847  1
  Ni  Ni26  1  0.66931689  0.66876394  0.33192450  1
  Ni  Ni27  1  0.16710340  0.16615041  0.49882897  1
  Cr  Cr28  1  0.00090745  -0.00082613  0.66478509  1
  Cr  Cr29  1  0.16619645  0.16772393  0.83264376  1
  Cr  Cr30  1  0.16570330  0.49704133  0.49918718  1
  Ni  Ni31  1  0.99742165  0.33356757  0.66592258  1
  Cr  Cr32  1  0.16556546  0.49856254  0.83387567  1
  Fe  Fe33  1  0.16426631  0.83489496  0.49666962  1
  Cr  Cr34  1  0.99736489  0.66381801  0.66431669  1
  Fe  Fe35  1  0.16676294  0.83119680  0.83552592  1
  Ni  Ni36  1  0.49828947  0.16492637  0.50113623  1
  Cr  Cr37  1  0.33477272  -0.00056012  0.66594818  1
  Ni  Ni38  1  0.49876639  0.16533130  0.82898885  1
  Cr  Cr39  1  0.49981920  0.49824230  0.49938499  1
  Ni  Ni40  1  0.33369438  0.32887695  0.66416499  1
  Cr  Cr41  1  0.49923765  0.49959223  0.83297834  1
  Fe  Fe42  1  0.50262722  0.83471427  0.49911629  1
  Cr  Cr43  1  0.33291225  0.66904588  0.66741449  1
  Ni  Ni44  1  0.50056928  0.83230911  0.83211643  1
  Cr  Cr45  1  0.83200847  0.16245597  0.50058713  1
  Ni  Ni46  1  0.66222428  -0.00014513  0.66510169  1
  Cr  Cr47  1  0.83203927  0.16623268  0.83161692  1
  Fe  Fe48  1  0.83145757  0.50001609  0.50007765  1
  Ni  Ni49  1  0.66623593  0.33214092  0.66661432  1
  Ni  Ni50  1  0.83271483  0.50020752  0.83091116  1
  Fe  Fe51  1  0.83053860  0.83208115  0.49679921  1
  Ni  Ni52  1  0.66697110  0.66541784  0.66535195  1
  Cr  Cr53  1  0.83099928  0.83109813  0.83303405  1
" 