5024,Ni44Fe18Cr36_10,-225.045667414162, 169.961351423851,Ni44Fe18Cr36,"# generated using pymatgen
 data_Cr21Fe10Ni23
_symmetry_space_group_name_H-M   'P 1'
_cell_length_a   7.48584006
_cell_length_b   7.48584006
_cell_length_c   10.58657654
_cell_angle_alpha   90.00000000
_cell_angle_beta   90.00000000
_cell_angle_gamma   90.00000000
_symmetry_Int_Tables_number   1
_chemical_formula_structural   Cr21Fe10Ni23
_chemical_formula_sum   'Cr21 Fe10 Ni23'
_cell_volume   593.24847313
_cell_formula_units_Z   1
loop_
 _symmetry_equiv_pos_site_id
 _symmetry_equiv_pos_as_xyz
  1  'x, y, z'
loop_
 _atom_site_type_symbol
 _atom_site_label
 _atom_site_symmetry_multiplicity
 _atom_site_fract_x
 _atom_site_fract_y
 _atom_site_fract_z
 _atom_site_occupancy
  Cr  Cr0  1  0.00077291  -0.00071545  -0.00060483  1
  Ni  Ni1  1  0.16802019  0.16460719  0.16603287  1
  Fe  Fe2  1  0.00245646  0.99854652  0.33310700  1
  Cr  Cr3  1  0.00365660  0.33377673  -0.00091750  1
  Ni  Ni4  1  0.16586391  0.49997947  0.16541601  1
  Ni  Ni5  1  0.99866475  0.33208401  0.33070213  1
  Fe  Fe6  1  0.00260846  0.66384583  0.00128028  1
  Ni  Ni7  1  0.16702619  0.83166695  0.16745790  1
  Ni  Ni8  1  0.00073810  0.66544546  0.33055471  1
  Ni  Ni9  1  0.33098458  0.00096110  0.00022650  1
  Fe  Fe10  1  0.49522457  0.16657098  0.16493755  1
  Ni  Ni11  1  0.32920297  0.99784272  0.33328110  1
  Ni  Ni12  1  0.32988503  0.33275101  -0.00121531  1
  Ni  Ni13  1  0.49684919  0.49725770  0.16575527  1
  Cr  Cr14  1  0.33107379  0.33040106  0.33003096  1
  Fe  Fe15  1  0.33022277  0.66267832  0.00011512  1
  Cr  Cr16  1  0.49449011  0.83368728  0.16415957  1
  Ni  Ni17  1  0.32874526  0.66822248  0.33053634  1
  Ni  Ni18  1  0.66271370  0.99797893  -0.00085889  1
  Cr  Cr19  1  0.83173312  0.16690142  0.16775005  1
  Cr  Cr20  1  0.66423187  -0.00022594  0.33315452  1
  Cr  Cr21  1  0.66289686  0.33307681  0.00083278  1
  Ni  Ni22  1  0.83355773  0.49823109  0.16825994  1
  Ni  Ni23  1  0.66729169  0.33162601  0.33153914  1
  Cr  Cr24  1  0.66544232  0.66496265  -0.00050039  1
  Cr  Cr25  1  0.83515754  0.83126074  0.16349742  1
  Cr  Cr26  1  0.66531313  0.66482888  0.33197128  1
  Ni  Ni27  1  0.16491364  0.16135180  0.49919425  1
  Fe  Fe28  1  -0.00007514  -0.00033416  0.66334194  1
  Ni  Ni29  1  0.16692705  0.16637450  0.83098000  1
  Cr  Cr30  1  0.16346414  0.49869305  0.49698416  1
  Ni  Ni31  1  -0.00039037  0.33016655  0.66608414  1
  Ni  Ni32  1  0.16647178  0.49764138  0.83318713  1
  Fe  Fe33  1  0.16542341  0.83443233  0.49666311  1
  Fe  Fe34  1  0.99821248  0.66659919  0.66414396  1
  Cr  Cr35  1  0.16591736  0.83263916  0.83272941  1
  Ni  Ni36  1  0.49867729  0.16175698  0.49877476  1
  Ni  Ni37  1  0.33192951  -0.00020542  0.66306999  1
  Cr  Cr38  1  0.49711809  0.16451713  0.83406737  1
  Cr  Cr39  1  0.49971229  0.49782185  0.49841568  1
  Cr  Cr40  1  0.32869983  0.32997533  0.66803022  1
  Ni  Ni41  1  0.49678466  0.49872962  0.83184614  1
  Fe  Fe42  1  0.49774849  0.83493504  0.49959331  1
  Cr  Cr43  1  0.33348167  0.66625060  0.66519267  1
  Cr  Cr44  1  0.49880005  0.83325833  0.83242515  1
  Fe  Fe45  1  0.83290563  0.16556257  0.49938148  1
  Ni  Ni46  1  0.66583037  0.99648183  0.66294897  1
  Cr  Cr47  1  0.83213927  0.16397633  0.82886704  1
  Cr  Cr48  1  0.83297336  0.49828729  0.49865262  1
  Fe  Fe49  1  0.66441124  0.33078852  0.66407824  1
  Cr  Cr50  1  0.83307807  0.49953393  0.82886494  1
  Ni  Ni51  1  0.83357723  0.83385696  0.50084622  1
  Ni  Ni52  1  0.66692455  0.66816010  0.66480297  1
  Cr  Cr53  1  0.83173947  0.83271849  0.83255186  1
" 