3953,Ni44Fe49Cr5_15,-237.861620284219, 217.217537966962,Ni44Fe49Cr5,"# generated using pymatgen
 data_Cr2Fe13Ni12
_symmetry_space_group_name_H-M   'P 1'
_cell_length_a   7.41038261
_cell_length_b   7.41038261
_cell_length_c   10.47986359
_cell_angle_alpha   90.00000000
_cell_angle_beta   90.00000000
_cell_angle_gamma   90.00000000
_symmetry_Int_Tables_number   1
_chemical_formula_structural   Cr2Fe13Ni12
_chemical_formula_sum   'Cr4 Fe26 Ni24'
_cell_volume   575.48882317
_cell_formula_units_Z   2
loop_
 _symmetry_equiv_pos_site_id
 _symmetry_equiv_pos_as_xyz
  1  'x, y, z'
loop_
 _atom_site_type_symbol
 _atom_site_label
 _atom_site_symmetry_multiplicity
 _atom_site_fract_x
 _atom_site_fract_y
 _atom_site_fract_z
 _atom_site_occupancy
  Fe  Fe0  1  1.00311138  0.00432625  1.00319024  1
  Fe  Fe1  1  0.17076196  0.16882711  0.16996312  1
  Fe  Fe2  1  0.00392936  1.00380193  0.33590890  1
  Fe  Fe3  1  1.00208243  0.33617880  1.00248830  1
  Cr  Cr4  1  0.17068943  0.50319287  0.16981092  1
  Fe  Fe5  1  1.00215433  0.33685095  0.33790988  1
  Ni  Ni6  1  1.00214707  0.67109743  1.00207002  1
  Fe  Fe7  1  0.17035686  0.83856913  0.17078160  1
  Fe  Fe8  1  0.00430653  0.67082276  0.33690736  1
  Ni  Ni9  1  0.33684795  0.00476520  0.00384600  1
  Fe  Fe10  1  0.50441369  0.17027128  0.17059226  1
  Ni  Ni11  1  0.33786466  1.00254373  0.33739045  1
  Ni  Ni12  1  0.33783047  0.33548121  1.00325931  1
  Fe  Fe13  1  0.50606882  0.50374563  0.17050890  1
  Fe  Fe14  1  0.33920955  0.33700110  0.33745436  1
  Fe  Fe15  1  0.33919742  0.67164102  1.00366102  1
  Ni  Ni16  1  0.50365557  0.83761003  0.17091957  1
  Ni  Ni17  1  0.33732011  0.67158716  0.33855486  1
  Ni  Ni18  1  0.67033390  1.00373262  1.00292145  1
  Ni  Ni19  1  0.83735526  0.17034322  0.17057471  1
  Ni  Ni20  1  0.66963625  0.00519802  0.33765284  1
  Ni  Ni21  1  0.67046919  0.33761762  1.00369094  1
  Ni  Ni22  1  0.83629976  0.50354906  0.17068546  1
  Fe  Fe23  1  0.67010870  0.33662619  0.33722053  1
  Ni  Ni24  1  0.67189607  0.67011846  0.00483048  1
  Fe  Fe25  1  0.83661473  0.83691567  0.16987518  1
  Fe  Fe26  1  0.66876976  0.67022982  0.33645573  1
  Cr  Cr27  1  0.17132234  0.17194198  0.50174621  1
  Cr  Cr28  1  1.00348529  0.00497131  0.67186434  1
  Ni  Ni29  1  0.17118454  0.17188087  0.83911843  1
  Ni  Ni30  1  0.17084528  0.50500492  0.50453172  1
  Ni  Ni31  1  1.00294606  0.33912976  0.67102394  1
  Fe  Fe32  1  0.16941244  0.50355382  0.83700529  1
  Fe  Fe33  1  0.17307749  0.83447901  0.50247244  1
  Fe  Fe34  1  1.00379340  0.66748284  0.67157715  1
  Fe  Fe35  1  0.17026150  0.83696737  0.83822707  1
  Ni  Ni36  1  0.50459105  0.16982824  0.50409757  1
  Fe  Fe37  1  0.33942542  1.00322415  0.67146619  1
  Fe  Fe38  1  0.50443792  0.16998193  0.83756381  1
  Ni  Ni39  1  0.50274781  0.50430118  0.50295917  1
  Fe  Fe40  1  0.33760387  0.33820256  0.67118179  1
  Fe  Fe41  1  0.50501908  0.50380688  0.83710969  1
  Fe  Fe42  1  0.50256277  0.83692611  0.50338067  1
  Fe  Fe43  1  0.33713664  0.67005463  0.66954579  1
  Ni  Ni44  1  0.50422317  0.83722604  0.83653873  1
  Ni  Ni45  1  0.83494648  0.17241643  0.50340007  1
  Fe  Fe46  1  0.66900419  0.00474108  0.67128581  1
  Ni  Ni47  1  0.83760315  0.17112705  0.83749425  1
  Ni  Ni48  1  0.83787493  0.50280768  0.50368940  1
  Fe  Fe49  1  0.67158922  0.33743660  0.67021194  1
  Ni  Ni50  1  0.83793537  0.50423482  0.83709052  1
  Cr  Cr51  1  0.83540700  0.83667017  0.50274273  1
  Ni  Ni52  1  0.66962840  0.66931096  0.67059328  1
  Ni  Ni53  1  0.83496499  0.83610835  0.83941865  1
" 