7629,Ni44Fe26Cr28_15,-229.208747951391, 183.789767537117,Ni44Fe26Cr28,"# generated using pymatgen
 data_Cr8Fe7Ni12
_symmetry_space_group_name_H-M   'P 1'
_cell_length_a   7.46354267
_cell_length_b   7.46354267
_cell_length_c   10.55504327
_cell_angle_alpha   90.00000000
_cell_angle_beta   90.00000000
_cell_angle_gamma   90.00000000
_symmetry_Int_Tables_number   1
_chemical_formula_structural   Cr8Fe7Ni12
_chemical_formula_sum   'Cr16 Fe14 Ni24'
_cell_volume   587.96308358
_cell_formula_units_Z   2
loop_
 _symmetry_equiv_pos_site_id
 _symmetry_equiv_pos_as_xyz
  1  'x, y, z'
loop_
 _atom_site_type_symbol
 _atom_site_label
 _atom_site_symmetry_multiplicity
 _atom_site_fract_x
 _atom_site_fract_y
 _atom_site_fract_z
 _atom_site_occupancy
  Cr  Cr0  1  0.99754404  0.00031204  0.99934925  1
  Ni  Ni1  1  0.16661968  0.16809535  0.16850020  1
  Ni  Ni2  1  1.00008506  0.00163915  0.33348458  1
  Ni  Ni3  1  1.00022317  0.33449920  0.00066057  1
  Fe  Fe4  1  0.16742430  0.49737156  0.16570791  1
  Cr  Cr5  1  0.00094361  0.33179093  0.33533984  1
  Ni  Ni6  1  0.00219554  0.66600151  0.00075086  1
  Fe  Fe7  1  0.16556519  0.83512497  0.16649705  1
  Cr  Cr8  1  0.00069375  0.66855723  0.33288960  1
  Cr  Cr9  1  0.33577997  0.00242226  0.00209055  1
  Ni  Ni10  1  0.49985703  0.16777824  0.16806840  1
  Fe  Fe11  1  0.33257164  0.00232545  0.33467018  1
  Ni  Ni12  1  0.33355567  0.33374923  0.00052826  1
  Cr  Cr13  1  0.49864051  0.49714119  0.16461176  1
  Ni  Ni14  1  0.33481139  0.33076368  0.33431505  1
  Ni  Ni15  1  0.32953758  0.66459798  0.99935024  1
  Cr  Cr16  1  0.50139172  0.83490071  0.16714432  1
  Cr  Cr17  1  0.33333838  0.66612597  0.33443670  1
  Ni  Ni18  1  0.66775656  0.00440614  0.00128895  1
  Ni  Ni19  1  0.83416490  0.16526297  0.16592444  1
  Fe  Fe20  1  0.66768579  0.00392705  0.33339170  1
  Ni  Ni21  1  0.66665733  0.32990821  0.99903406  1
  Cr  Cr22  1  0.83424597  0.49855229  0.16725843  1
  Fe  Fe23  1  0.66542912  0.32990252  0.33503886  1
  Cr  Cr24  1  0.66822720  0.66846487  0.99890985  1
  Ni  Ni25  1  0.83558867  0.83666139  0.16652689  1
  Cr  Cr26  1  0.66657264  0.66733743  0.33613717  1
  Fe  Fe27  1  0.16871175  0.16455510  0.49922080  1
  Fe  Fe28  1  0.99972074  0.00036231  0.66620332  1
  Cr  Cr29  1  0.16644577  0.16669425  0.83223197  1
  Ni  Ni30  1  0.16962909  0.49916948  0.50022537  1
  Cr  Cr31  1  0.99827052  0.33305847  0.66538807  1
  Fe  Fe32  1  0.16868435  0.50124094  0.83493025  1
  Fe  Fe33  1  0.16842635  0.83532390  0.50086166  1
  Cr  Cr34  1  0.00089203  0.66586000  0.66669219  1
  Fe  Fe35  1  0.16795027  0.83129008  0.83309452  1
  Fe  Fe36  1  0.50215327  0.16633160  0.50020864  1
  Ni  Ni37  1  0.33494833  0.99928947  0.66380208  1
  Ni  Ni38  1  0.50127198  0.16791517  0.83350438  1
  Ni  Ni39  1  0.49896794  0.50056342  0.50202550  1
  Cr  Cr40  1  0.33619806  0.33380577  0.66677461  1
  Ni  Ni41  1  0.50135429  0.49955474  0.83315073  1
  Ni  Ni42  1  0.49911617  0.83412898  0.50212465  1
  Ni  Ni43  1  0.33460092  0.66796742  0.66573382  1
  Cr  Cr44  1  0.49965142  0.83364217  0.83178952  1
  Ni  Ni45  1  0.83394964  0.16573914  0.50097876  1
  Ni  Ni46  1  0.66573737  0.00191872  0.66733513  1
  Fe  Fe47  1  0.82907586  0.16878224  0.83344801  1
  Fe  Fe48  1  0.83037649  0.49862186  0.50155271  1
  Ni  Ni49  1  0.66662341  0.33284819  0.66598968  1
  Ni  Ni50  1  0.83302854  0.49986206  0.83308623  1
  Cr  Cr51  1  0.83179858  0.83652611  0.50143443  1
  Ni  Ni52  1  0.66540539  0.66601270  0.66615935  1
  Fe  Fe53  1  0.83258445  0.83399558  0.83282735  1
" 