7403,Ni44Fe49Cr5_11,-237.642132939952, 212.049568648422,Ni44Fe49Cr5,"# generated using pymatgen
 data_Cr2Fe13Ni12
_symmetry_space_group_name_H-M   'P 1'
_cell_length_a   7.41323461
_cell_length_b   7.41323461
_cell_length_c   10.48389693
_cell_angle_alpha   90.00000000
_cell_angle_beta   90.00000000
_cell_angle_gamma   90.00000000
_symmetry_Int_Tables_number   1
_chemical_formula_structural   Cr2Fe13Ni12
_chemical_formula_sum   'Cr4 Fe26 Ni24'
_cell_volume   576.15353638
_cell_formula_units_Z   2
loop_
 _symmetry_equiv_pos_site_id
 _symmetry_equiv_pos_as_xyz
  1  'x, y, z'
loop_
 _atom_site_type_symbol
 _atom_site_label
 _atom_site_symmetry_multiplicity
 _atom_site_fract_x
 _atom_site_fract_y
 _atom_site_fract_z
 _atom_site_occupancy
  Ni  Ni0  1  1.00293045  0.00456229  0.00491998  1
  Ni  Ni1  1  0.17077574  0.16951500  0.16969675  1
  Fe  Fe2  1  0.00380642  0.00422805  0.33514587  1
  Ni  Ni3  1  0.00380592  0.33635047  1.00341249  1
  Fe  Fe4  1  0.17148711  0.50402254  0.16979967  1
  Fe  Fe5  1  1.00261192  0.33741809  0.33687055  1
  Fe  Fe6  1  1.00311764  0.66982287  0.00406614  1
  Ni  Ni7  1  0.16946776  0.83849748  0.17105027  1
  Fe  Fe8  1  1.00322706  0.66923883  0.33672650  1
  Ni  Ni9  1  0.33718144  1.00356651  0.00447032  1
  Ni  Ni10  1  0.50250908  0.17117802  0.16982864  1
  Fe  Fe11  1  0.33797674  1.00335602  0.33614277  1
  Ni  Ni12  1  0.33664182  0.33768391  0.00372153  1
  Ni  Ni13  1  0.50453494  0.50294526  0.17076044  1
  Fe  Fe14  1  0.33804957  0.33716459  0.33660938  1
  Ni  Ni15  1  0.33724022  0.66963979  0.00528400  1
  Ni  Ni16  1  0.50388987  0.83676444  0.16972438  1
  Fe  Fe17  1  0.33830591  0.67036996  0.33633585  1
  Ni  Ni18  1  0.67077630  0.00395986  0.00438034  1
  Fe  Fe19  1  0.83627693  0.16946051  0.16979347  1
  Fe  Fe20  1  0.66910065  0.00396840  0.33604176  1
  Ni  Ni21  1  0.67044163  0.33641108  0.00418671  1
  Fe  Fe22  1  0.83614202  0.50365414  0.17064462  1
  Ni  Ni23  1  0.67061919  0.33735966  0.33726005  1
  Fe  Fe24  1  0.66960639  0.67001022  0.00371414  1
  Ni  Ni25  1  0.83753032  0.83647218  0.16965312  1
  Ni  Ni26  1  0.66925292  0.66898626  0.33687520  1
  Fe  Fe27  1  0.17034757  0.17038394  0.50399249  1
  Fe  Fe28  1  1.00353163  0.00493943  0.67083906  1
  Ni  Ni29  1  0.17075952  0.17133720  0.83625425  1
  Fe  Fe30  1  0.16929958  0.50351750  0.50341833  1
  Fe  Fe31  1  0.00468732  0.33781151  0.67078320  1
  Fe  Fe32  1  0.16975985  0.50066637  0.83766585  1
  Fe  Fe33  1  0.17073573  0.83698529  0.50281078  1
  Ni  Ni34  1  1.00249991  0.66935118  0.66977616  1
  Cr  Cr35  1  0.16945664  0.83976116  0.83767824  1
  Fe  Fe36  1  0.50371892  0.16952975  0.50271565  1
  Fe  Fe37  1  0.33829440  0.00559232  0.66964393  1
  Fe  Fe38  1  0.50273835  0.17031297  0.83834657  1
  Fe  Fe39  1  0.50458126  0.50418868  0.50204304  1
  Ni  Ni40  1  0.33490573  0.33572780  0.67026742  1
  Ni  Ni41  1  0.50536044  0.50304458  0.83771453  1
  Ni  Ni42  1  0.50330985  0.83772052  0.50369498  1
  Cr  Cr43  1  0.33738468  0.66883701  0.66877522  1
  Fe  Fe44  1  0.50624488  0.83750628  0.83757359  1
  Fe  Fe45  1  0.83682143  0.17096012  0.50280121  1
  Ni  Ni46  1  0.67030144  1.00262390  0.67038503  1
  Fe  Fe47  1  0.83766955  0.16993758  0.83829433  1
  Ni  Ni48  1  0.83736516  0.50337309  0.50334806  1
  Cr  Cr49  1  0.67001090  0.33698595  0.66996029  1
  Ni  Ni50  1  0.83620902  0.50474616  0.83703129  1
  Cr  Cr51  1  0.83572579  0.83488668  0.50532153  1
  Ni  Ni52  1  0.67170818  0.67187069  0.67103421  1
  Fe  Fe53  1  0.83526051  0.83679011  0.83670998  1
" 