8293,Ni44Fe56_5,-242.328810735015, 226.923708016,Ni44Fe56,"# generated using pymatgen
 data_Fe23Ni31
_symmetry_space_group_name_H-M   'P 1'
_cell_length_a   7.40297632
_cell_length_b   7.40297632
_cell_length_c   10.46938951
_cell_angle_alpha   90.00000000
_cell_angle_beta   90.00000000
_cell_angle_gamma   90.00000000
_symmetry_Int_Tables_number   1
_chemical_formula_structural   Fe23Ni31
_chemical_formula_sum   'Fe23 Ni31'
_cell_volume   573.76503382
_cell_formula_units_Z   1
loop_
 _symmetry_equiv_pos_site_id
 _symmetry_equiv_pos_as_xyz
  1  'x, y, z'
loop_
 _atom_site_type_symbol
 _atom_site_label
 _atom_site_symmetry_multiplicity
 _atom_site_fract_x
 _atom_site_fract_y
 _atom_site_fract_z
 _atom_site_occupancy
  Fe  Fe0  1  1.00276810  0.00539908  0.00468388  1
  Fe  Fe1  1  0.17123416  0.17218123  0.17162694  1
  Ni  Ni2  1  0.00514901  1.00368612  0.33773230  1
  Ni  Ni3  1  0.00484636  0.33857529  0.00457760  1
  Fe  Fe4  1  0.17017854  0.50361821  0.17105052  1
  Ni  Ni5  1  0.00495311  0.33790662  0.33792317  1
  Ni  Ni6  1  1.00411105  0.67157260  1.00422960  1
  Fe  Fe7  1  0.17006701  0.83705717  0.17146959  1
  Ni  Ni8  1  1.00199002  0.67180491  0.33836454  1
  Fe  Fe9  1  0.33777549  0.00441604  1.00387193  1
  Fe  Fe10  1  0.50533386  0.17134423  0.17060983  1
  Ni  Ni11  1  0.33881667  0.00495338  0.33683424  1
  Ni  Ni12  1  0.33760404  0.33620132  1.00289457  1
  Ni  Ni13  1  0.50377425  0.50444937  0.17015644  1
  Ni  Ni14  1  0.33861242  0.33650839  0.33948121  1
  Fe  Fe15  1  0.33840543  0.66945710  1.00342751  1
  Fe  Fe16  1  0.50636228  0.83745003  0.17087660  1
  Fe  Fe17  1  0.33680605  0.67008094  0.33857043  1
  Ni  Ni18  1  0.66956770  1.00393840  1.00396597  1
  Ni  Ni19  1  0.83949435  0.17130667  0.17082230  1
  Fe  Fe20  1  0.67309683  1.00363167  0.33652537  1
  Ni  Ni21  1  0.67037335  0.33713316  0.00569303  1
  Fe  Fe22  1  0.83717148  0.50516566  0.17059405  1
  Fe  Fe23  1  0.67126389  0.33800224  0.33719096  1
  Ni  Ni24  1  0.67163677  0.67180616  1.00316118  1
  Ni  Ni25  1  0.83827853  0.83834107  0.16970401  1
  Ni  Ni26  1  0.67119844  0.67154537  0.33740291  1
  Ni  Ni27  1  0.17027614  0.17033457  0.50426596  1
  Ni  Ni28  1  0.00585067  1.00409891  0.67156794  1
  Ni  Ni29  1  0.17008917  0.17073972  0.83853079  1
  Fe  Fe30  1  0.17020000  0.50607636  0.50421049  1
  Ni  Ni31  1  1.00242023  0.33809343  0.67073177  1
  Fe  Fe32  1  0.16969973  0.50588865  0.83752536  1
  Ni  Ni33  1  0.17106823  0.84086392  0.50366834  1
  Ni  Ni34  1  0.00468444  0.67104020  0.67061632  1
  Ni  Ni35  1  0.17186167  0.83973161  0.83849330  1
  Fe  Fe36  1  0.50443938  0.16957773  0.50478376  1
  Ni  Ni37  1  0.33841263  1.00361566  0.67106777  1
  Fe  Fe38  1  0.50434764  0.17033421  0.83769821  1
  Ni  Ni39  1  0.50549517  0.50414237  0.50548601  1
  Fe  Fe40  1  0.33525502  0.33732578  0.67072903  1
  Fe  Fe41  1  0.50349293  0.50425822  0.83754904  1
  Ni  Ni42  1  0.50427502  0.83680945  0.50276331  1
  Ni  Ni43  1  0.33752606  0.67314708  0.67022906  1
  Ni  Ni44  1  0.50382691  0.83654920  0.83812401  1
  Fe  Fe45  1  0.83820965  0.17009436  0.50402026  1
  Fe  Fe46  1  0.67137439  1.00296411  0.67188889  1
  Fe  Fe47  1  0.83786724  0.17084487  0.83869928  1
  Ni  Ni48  1  0.83614983  0.50369571  0.50238376  1
  Ni  Ni49  1  0.67094681  0.33763459  0.67121546  1
  Ni  Ni50  1  0.83598599  0.50300482  0.83950911  1
  Ni  Ni51  1  0.83800238  0.83725532  0.50563014  1
  Fe  Fe52  1  0.67187697  0.67073878  0.67081254  1
  Fe  Fe53  1  0.83917618  0.83728758  0.83803904  1
" 