999,Ni44Fe24Cr30_15,-228.304379146264, 183.946096951345,Ni44Fe24Cr30,"# generated using pymatgen
 data_Cr17Fe13Ni24
_symmetry_space_group_name_H-M   'P 1'
_cell_length_a   7.46378453
_cell_length_b   7.46378453
_cell_length_c   10.55538531
_cell_angle_alpha   90.00000000
_cell_angle_beta   90.00000000
_cell_angle_gamma   90.00000000
_symmetry_Int_Tables_number   1
_chemical_formula_structural   Cr17Fe13Ni24
_chemical_formula_sum   'Cr17 Fe13 Ni24'
_cell_volume   588.02024428
_cell_formula_units_Z   1
loop_
 _symmetry_equiv_pos_site_id
 _symmetry_equiv_pos_as_xyz
  1  'x, y, z'
loop_
 _atom_site_type_symbol
 _atom_site_label
 _atom_site_symmetry_multiplicity
 _atom_site_fract_x
 _atom_site_fract_y
 _atom_site_fract_z
 _atom_site_occupancy
  Ni  Ni0  1  0.00079749  0.00043052  0.99917554  1
  Ni  Ni1  1  0.16766344  0.16799185  0.16485683  1
  Cr  Cr2  1  0.00157134  0.99936767  0.33270099  1
  Ni  Ni3  1  0.00241467  0.33177962  0.00175148  1
  Ni  Ni4  1  0.16602802  0.50009520  0.16734441  1
  Fe  Fe5  1  0.00187815  0.33413522  0.33285386  1
  Cr  Cr6  1  0.00050445  0.66929224  0.00080330  1
  Fe  Fe7  1  0.16764283  0.83327035  0.16612415  1
  Ni  Ni8  1  0.00205464  0.66593064  0.33280445  1
  Fe  Fe9  1  0.33242477  0.00088302  1.00017831  1
  Ni  Ni10  1  0.49911802  0.16425295  0.16718416  1
  Cr  Cr11  1  0.33283968  0.00173478  0.33350826  1
  Fe  Fe12  1  0.33164223  0.32879685  0.00154070  1
  Cr  Cr13  1  0.49803064  0.50003153  0.16594922  1
  Ni  Ni14  1  0.33360270  0.33307836  0.33282458  1
  Fe  Fe15  1  0.33275541  0.67111073  0.00064602  1
  Fe  Fe16  1  0.49980731  0.83552410  0.16558781  1
  Ni  Ni17  1  0.33092307  0.66553334  0.33224291  1
  Ni  Ni18  1  0.66596352  0.99844593  0.99993070  1
  Cr  Cr19  1  0.83362720  0.16673148  0.16766995  1
  Ni  Ni20  1  0.66616975  0.00250241  0.33277521  1
  Cr  Cr21  1  0.66649301  0.33156808  0.99864994  1
  Ni  Ni22  1  0.83661386  0.50119633  0.16819182  1
  Fe  Fe23  1  0.66578645  0.33261113  0.33478642  1
  Fe  Fe24  1  0.66806927  0.67028772  0.00134103  1
  Fe  Fe25  1  0.83331342  0.83462150  0.16639034  1
  Cr  Cr26  1  0.66779513  0.66696712  0.33154193  1
  Ni  Ni27  1  0.16644119  0.16603820  0.50035785  1
  Ni  Ni28  1  0.00148756  1.00008775  0.66830242  1
  Ni  Ni29  1  0.16591285  0.16284681  0.83640209  1
  Cr  Cr30  1  0.16734477  0.50213104  0.49945716  1
  Cr  Cr31  1  0.99981275  0.32948695  0.66718554  1
  Cr  Cr32  1  0.16723090  0.49989438  0.83497631  1
  Fe  Fe33  1  0.16661801  0.83449964  0.50178721  1
  Fe  Fe34  1  0.00125827  0.66903417  0.66656886  1
  Ni  Ni35  1  0.16847335  0.83590613  0.83118836  1
  Ni  Ni36  1  0.50109606  0.16613695  0.49870813  1
  Fe  Fe37  1  0.33350237  0.00090953  0.66777309  1
  Ni  Ni38  1  0.49981206  0.16134334  0.83416344  1
  Ni  Ni39  1  0.49921347  0.50024091  0.49827694  1
  Cr  Cr40  1  0.33502034  0.33114222  0.66758793  1
  Cr  Cr41  1  0.49764945  0.50215980  0.83531095  1
  Cr  Cr42  1  0.49833759  0.83460141  0.50047778  1
  Ni  Ni43  1  0.33256192  0.66980130  0.66684618  1
  Ni  Ni44  1  0.49891866  0.83632874  0.83524706  1
  Ni  Ni45  1  0.83335684  0.16618843  0.49892606  1
  Ni  Ni46  1  0.66768415  0.00160958  0.66884474  1
  Ni  Ni47  1  0.83450049  0.16285202  0.83422461  1
  Ni  Ni48  1  0.83446395  0.49931828  0.49745693  1
  Cr  Cr49  1  0.66580725  0.33070257  0.66403453  1
  Cr  Cr50  1  0.83546959  0.49952254  0.83389098  1
  Cr  Cr51  1  0.83456267  0.83561907  0.50162187  1
  Cr  Cr52  1  0.66570654  0.66715301  0.66911276  1
  Fe  Fe53  1  0.83403055  0.83807868  0.83371995  1
" 