8888,Ni44Fe40Cr15_4,-233.939344953232, 203.990108080494,Ni44Fe40Cr15,"# generated using pymatgen
 data_Cr9Fe22Ni23
_symmetry_space_group_name_H-M   'P 1'
_cell_length_a   7.42861361
_cell_length_b   7.42861361
_cell_length_c   10.50564612
_cell_angle_alpha   90.00000000
_cell_angle_beta   90.00000000
_cell_angle_gamma   90.00000000
_symmetry_Int_Tables_number   1
_chemical_formula_structural   Cr9Fe22Ni23
_chemical_formula_sum   'Cr9 Fe22 Ni23'
_cell_volume   579.74672880
_cell_formula_units_Z   1
loop_
 _symmetry_equiv_pos_site_id
 _symmetry_equiv_pos_as_xyz
  1  'x, y, z'
loop_
 _atom_site_type_symbol
 _atom_site_label
 _atom_site_symmetry_multiplicity
 _atom_site_fract_x
 _atom_site_fract_y
 _atom_site_fract_z
 _atom_site_occupancy
  Fe  Fe0  1  0.00324512  1.00245793  1.00155886  1
  Fe  Fe1  1  0.17056178  0.16995338  0.16842954  1
  Fe  Fe2  1  0.00386643  0.00307056  0.33784829  1
  Ni  Ni3  1  1.00044900  0.33318860  1.00231524  1
  Cr  Cr4  1  0.17290821  0.50277654  0.16795091  1
  Cr  Cr5  1  0.00299443  0.33780521  0.33721869  1
  Cr  Cr6  1  0.00355128  0.66730168  1.00141061  1
  Cr  Cr7  1  0.17035480  0.83912948  0.17142997  1
  Fe  Fe8  1  0.00268706  0.67030052  0.33715200  1
  Ni  Ni9  1  0.33910428  1.00104338  1.00184043  1
  Fe  Fe10  1  0.50244445  0.16864392  0.16921273  1
  Ni  Ni11  1  0.33759908  0.00330036  0.33661918  1
  Fe  Fe12  1  0.33587601  0.33496895  1.00092489  1
  Ni  Ni13  1  0.50449903  0.50049958  0.16819428  1
  Ni  Ni14  1  0.33857851  0.33517870  0.33672879  1
  Ni  Ni15  1  0.33962538  0.67040708  1.00013113  1
  Fe  Fe16  1  0.50375031  0.83381437  0.16936465  1
  Ni  Ni17  1  0.33762766  0.66928044  0.33635387  1
  Ni  Ni18  1  0.66928598  1.00228680  0.00324824  1
  Fe  Fe19  1  0.83506756  0.17011884  0.16866070  1
  Fe  Fe20  1  0.66727661  0.00341213  0.33342662  1
  Fe  Fe21  1  0.66740613  0.33552750  0.00477817  1
  Ni  Ni22  1  0.83219606  0.50277978  0.17047228  1
  Ni  Ni23  1  0.66752178  0.33563202  0.33615714  1
  Fe  Fe24  1  0.66797376  0.67090043  0.00462147  1
  Ni  Ni25  1  0.83440099  0.83830600  0.17162595  1
  Fe  Fe26  1  0.66743798  0.66673072  0.33462473  1
  Ni  Ni27  1  0.16986992  0.16717124  0.50227008  1
  Ni  Ni28  1  1.00028589  1.00055556  0.67126766  1
  Ni  Ni29  1  0.16926802  0.16692855  0.83798157  1
  Ni  Ni30  1  0.17324539  0.50536941  0.50220802  1
  Cr  Cr31  1  0.00691897  0.33648618  0.66908127  1
  Ni  Ni32  1  0.17144178  0.50289949  0.83621189  1
  Ni  Ni33  1  0.16815797  0.83602372  0.50218389  1
  Ni  Ni34  1  0.00383681  0.67173086  0.66721686  1
  Ni  Ni35  1  0.16918849  0.83678336  0.83458393  1
  Fe  Fe36  1  0.49816811  0.17082584  0.50309571  1
  Fe  Fe37  1  0.32962728  0.00266670  0.66898841  1
  Cr  Cr38  1  0.50348334  0.17073099  0.83149348  1
  Ni  Ni39  1  0.50274883  0.50155219  0.50270505  1
  Ni  Ni40  1  0.33700736  0.33799755  0.66745725  1
  Ni  Ni41  1  0.50174555  0.50356750  0.83664194  1
  Cr  Cr42  1  0.50128161  0.83598624  0.50329817  1
  Ni  Ni43  1  0.33570300  0.66828025  0.67140952  1
  Fe  Fe44  1  0.50109983  0.83455591  0.83577227  1
  Cr  Cr45  1  0.83203379  0.16724896  0.50473319  1
  Fe  Fe46  1  0.66930976  0.99926288  0.67116719  1
  Fe  Fe47  1  0.83771071  0.16762096  0.83667577  1
  Fe  Fe48  1  0.83613023  0.50597128  0.50221539  1
  Fe  Fe49  1  0.66779429  0.33938958  0.66663161  1
  Cr  Cr50  1  0.83287913  0.50170829  0.83521544  1
  Fe  Fe51  1  0.83793771  0.83378649  0.50192586  1
  Fe  Fe52  1  0.66889880  0.66871322  0.66911645  1
  Fe  Fe53  1  0.83562973  0.83706391  0.83584477  1
" 