4312,Ni44Fe40Cr15_14,-234.533979922548, 211.34568948416,Ni44Fe40Cr15,"# generated using pymatgen
 data_Cr9Fe22Ni23
_symmetry_space_group_name_H-M   'P 1'
_cell_length_a   7.42883516
_cell_length_b   7.42883516
_cell_length_c   10.50595944
_cell_angle_alpha   90.00000000
_cell_angle_beta   90.00000000
_cell_angle_gamma   90.00000000
_symmetry_Int_Tables_number   1
_chemical_formula_structural   Cr9Fe22Ni23
_chemical_formula_sum   'Cr9 Fe22 Ni23'
_cell_volume   579.79860158
_cell_formula_units_Z   1
loop_
 _symmetry_equiv_pos_site_id
 _symmetry_equiv_pos_as_xyz
  1  'x, y, z'
loop_
 _atom_site_type_symbol
 _atom_site_label
 _atom_site_symmetry_multiplicity
 _atom_site_fract_x
 _atom_site_fract_y
 _atom_site_fract_z
 _atom_site_occupancy
  Cr  Cr0  1  0.00511170  0.00329242  0.00457265  1
  Fe  Fe1  1  0.16987478  0.16946715  0.16964823  1
  Ni  Ni2  1  0.00303062  0.00276021  0.33605912  1
  Fe  Fe3  1  0.00468350  0.33723245  1.00253455  1
  Ni  Ni4  1  0.17049343  0.50484515  0.16882010  1
  Fe  Fe5  1  0.00409016  0.33385086  0.33540478  1
  Fe  Fe6  1  0.00676150  0.66861962  1.00245806  1
  Ni  Ni7  1  0.17052470  0.83395196  0.16882652  1
  Fe  Fe8  1  0.00520589  0.67134291  0.33552570  1
  Ni  Ni9  1  0.33646800  1.00226307  1.00191812  1
  Ni  Ni10  1  0.50438631  0.16867490  0.16789913  1
  Ni  Ni11  1  0.33403080  1.00163371  0.33536632  1
  Fe  Fe12  1  0.33517620  0.33475743  0.00262571  1
  Fe  Fe13  1  0.49984807  0.50160924  0.17051250  1
  Fe  Fe14  1  0.33640109  0.33555494  0.33639304  1
  Ni  Ni15  1  0.33383918  0.66972171  1.00247783  1
  Fe  Fe16  1  0.50089400  0.83709885  0.16989235  1
  Ni  Ni17  1  0.33628504  0.66900665  0.33648032  1
  Ni  Ni18  1  0.66654712  0.00408629  0.00408367  1
  Ni  Ni19  1  0.83316242  0.16871108  0.16985008  1
  Fe  Fe20  1  0.66861828  0.00332883  0.33603051  1
  Fe  Fe21  1  0.66784677  0.33264910  0.00389898  1
  Cr  Cr22  1  0.83698859  0.50099599  0.16821410  1
  Ni  Ni23  1  0.66820285  0.33576080  0.33583287  1
  Cr  Cr24  1  0.66838132  0.66922649  0.00388571  1
  Fe  Fe25  1  0.83640545  0.83822816  0.17031785  1
  Fe  Fe26  1  0.66692234  0.67099047  0.33644259  1
  Fe  Fe27  1  0.16921051  0.16909702  0.50246344  1
  Ni  Ni28  1  0.00280213  0.00267947  0.66730560  1
  Ni  Ni29  1  0.17043642  0.17020561  0.83633257  1
  Fe  Fe30  1  0.17216333  0.50266849  0.50260843  1
  Fe  Fe31  1  0.00369440  0.33476663  0.66977068  1
  Ni  Ni32  1  0.16856962  0.50396403  0.83558662  1
  Ni  Ni33  1  0.16915658  0.83484077  0.50271279  1
  Fe  Fe34  1  0.00570634  0.66960573  0.66972332  1
  Ni  Ni35  1  0.17073977  0.83354851  0.83617746  1
  Ni  Ni36  1  0.50509237  0.17018566  0.50325931  1
  Cr  Cr37  1  0.33469927  0.00296813  0.67042204  1
  Fe  Fe38  1  0.50083628  0.16813598  0.83651055  1
  Ni  Ni39  1  0.50065352  0.50157126  0.50080986  1
  Ni  Ni40  1  0.33522299  0.33702678  0.66794206  1
  Cr  Cr41  1  0.50080509  0.50072658  0.83579781  1
  Ni  Ni42  1  0.50116862  0.83596629  0.50159773  1
  Fe  Fe43  1  0.33401997  0.66865114  0.66829710  1
  Fe  Fe44  1  0.49930354  0.83861336  0.83687625  1
  Ni  Ni45  1  0.83455556  0.16794394  0.50299452  1
  Ni  Ni46  1  0.67052186  0.00417414  0.66752287  1
  Cr  Cr47  1  0.83367660  0.17071836  0.83458588  1
  Cr  Cr48  1  0.83571757  0.50021978  0.50339393  1
  Ni  Ni49  1  0.66864344  0.33495446  0.66944814  1
  Fe  Fe50  1  0.84001646  0.50101641  0.83575028  1
  Fe  Fe51  1  0.83593112  0.83919230  0.50246562  1
  Cr  Cr52  1  0.66816184  0.66907828  0.66797418  1
  Cr  Cr53  1  0.83719731  0.83670304  0.83458217  1
" 