8075,Ni44Fe56_3,-242.456239657604, 225.867378978945,Ni44Fe56,"# generated using pymatgen
 data_Fe23Ni31
_symmetry_space_group_name_H-M   'P 1'
_cell_length_a   7.40250034
_cell_length_b   7.40250034
_cell_length_c   10.46871638
_cell_angle_alpha   90.00000000
_cell_angle_beta   90.00000000
_cell_angle_gamma   90.00000000
_symmetry_Int_Tables_number   1
_chemical_formula_structural   Fe23Ni31
_chemical_formula_sum   'Fe23 Ni31'
_cell_volume   573.65436998
_cell_formula_units_Z   1
loop_
 _symmetry_equiv_pos_site_id
 _symmetry_equiv_pos_as_xyz
  1  'x, y, z'
loop_
 _atom_site_type_symbol
 _atom_site_label
 _atom_site_symmetry_multiplicity
 _atom_site_fract_x
 _atom_site_fract_y
 _atom_site_fract_z
 _atom_site_occupancy
  Ni  Ni0  1  0.00539518  1.00288135  1.00412628  1
  Fe  Fe1  1  0.17039024  0.16976845  0.17075522  1
  Ni  Ni2  1  1.00391608  1.00330236  0.33786373  1
  Fe  Fe3  1  0.00442464  0.33740247  1.00352638  1
  Fe  Fe4  1  0.17049953  0.50490891  0.17116008  1
  Fe  Fe5  1  1.00434870  0.33688687  0.33866595  1
  Ni  Ni6  1  1.00313395  0.67285523  1.00411259  1
  Ni  Ni7  1  0.17069574  0.83679947  0.17100099  1
  Fe  Fe8  1  0.00474281  0.67154401  0.33729295  1
  Ni  Ni9  1  0.33588211  0.00516208  0.00523834  1
  Fe  Fe10  1  0.50479013  0.17058497  0.17063434  1
  Fe  Fe11  1  0.33773638  0.00447451  0.33783458  1
  Ni  Ni12  1  0.33884289  0.33689788  1.00402581  1
  Fe  Fe13  1  0.50497201  0.50440015  0.17070367  1
  Ni  Ni14  1  0.33838578  0.33870034  0.33818748  1
  Fe  Fe15  1  0.33741217  0.67074205  0.00491608  1
  Fe  Fe16  1  0.50476250  0.83810013  0.17117621  1
  Ni  Ni17  1  0.33723852  0.67040892  0.33751951  1
  Fe  Fe18  1  0.67165907  0.00450359  0.00483524  1
  Ni  Ni19  1  0.83672503  0.17012249  0.17076957  1
  Ni  Ni20  1  0.67297119  0.00446678  0.33776903  1
  Ni  Ni21  1  0.66996426  0.33916878  1.00392225  1
  Fe  Fe22  1  0.83760416  0.50488839  0.17053318  1
  Ni  Ni23  1  0.67035022  0.33776450  0.33819873  1
  Ni  Ni24  1  0.67224122  0.66990339  0.00532365  1
  Ni  Ni25  1  0.83788944  0.83864000  0.17153486  1
  Fe  Fe26  1  0.67080599  0.67152505  0.33769563  1
  Ni  Ni27  1  0.17102311  0.17181407  0.50371871  1
  Ni  Ni28  1  0.00557549  1.00416976  0.67109021  1
  Ni  Ni29  1  0.17138599  0.17222105  0.83806309  1
  Ni  Ni30  1  0.17288176  0.50435038  0.50390259  1
  Ni  Ni31  1  0.00447420  0.33673028  0.67119310  1
  Ni  Ni32  1  0.17318652  0.50404489  0.83807603  1
  Ni  Ni33  1  0.17069221  0.83689874  0.50453977  1
  Fe  Fe34  1  0.00461934  0.67069205  0.67122162  1
  Fe  Fe35  1  0.17093733  0.83895880  0.83812056  1
  Fe  Fe36  1  0.50381917  0.17098046  0.50461489  1
  Ni  Ni37  1  0.33569057  0.00486842  0.66997794  1
  Ni  Ni38  1  0.50466925  0.17256187  0.83776893  1
  Fe  Fe39  1  0.50401452  0.50407893  0.50461447  1
  Ni  Ni40  1  0.33785037  0.33708693  0.67086310  1
  Ni  Ni41  1  0.50290068  0.50372715  0.83786303  1
  Fe  Fe42  1  0.50381157  0.83802776  0.50428135  1
  Fe  Fe43  1  0.33729792  0.67005083  0.67026669  1
  Fe  Fe44  1  0.50431266  0.83810301  0.83762194  1
  Ni  Ni45  1  0.83713955  0.17000106  0.50444969  1
  Fe  Fe46  1  0.67166392  0.00538129  0.67062241  1
  Ni  Ni47  1  0.83702285  0.16960229  0.83786392  1
  Fe  Fe48  1  0.83859896  0.50400037  0.50478416  1
  Ni  Ni49  1  0.67075896  0.33937120  0.67095901  1
  Fe  Fe50  1  0.83705497  0.50355856  0.83776520  1
  Ni  Ni51  1  0.83747984  0.83871960  0.50334348  1
  Ni  Ni52  1  0.67144911  0.67002675  0.67032148  1
  Ni  Ni53  1  0.83734003  0.83860114  0.83820106  1
" 