8365,Ni45Fe31Cr22_14,-231.686863108293, 197.441923682411,Ni45Fe31Cr22,"# generated using pymatgen
 data_Cr13Fe17Ni24
_symmetry_space_group_name_H-M   'P 1'
_cell_length_a   7.45027128
_cell_length_b   7.45027128
_cell_length_c   10.53627469
_cell_angle_alpha   90.00000000
_cell_angle_beta   90.00000000
_cell_angle_gamma   90.00000000
_symmetry_Int_Tables_number   1
_chemical_formula_structural   Cr13Fe17Ni24
_chemical_formula_sum   'Cr13 Fe17 Ni24'
_cell_volume   584.83217468
_cell_formula_units_Z   1
loop_
 _symmetry_equiv_pos_site_id
 _symmetry_equiv_pos_as_xyz
  1  'x, y, z'
loop_
 _atom_site_type_symbol
 _atom_site_label
 _atom_site_symmetry_multiplicity
 _atom_site_fract_x
 _atom_site_fract_y
 _atom_site_fract_z
 _atom_site_occupancy
  Fe  Fe0  1  0.99834320  0.00144280  0.00382039  1
  Ni  Ni1  1  0.16444525  0.16787546  0.16526435  1
  Fe  Fe2  1  1.00078490  0.00343183  0.33320549  1
  Ni  Ni3  1  0.00182644  0.33748926  0.00166351  1
  Ni  Ni4  1  0.16757723  0.50055532  0.16792333  1
  Ni  Ni5  1  0.00301157  0.33503946  0.33316973  1
  Ni  Ni6  1  0.00121455  0.66477721  0.00284690  1
  Ni  Ni7  1  0.16667350  0.83553842  0.16730053  1
  Fe  Fe8  1  0.00367485  0.66597194  0.33177854  1
  Ni  Ni9  1  0.33394457  0.00284739  0.00208642  1
  Fe  Fe10  1  0.49927604  0.17203209  0.16726862  1
  Cr  Cr11  1  0.33592555  0.00380763  0.33495969  1
  Fe  Fe12  1  0.33660694  0.33615076  0.00250180  1
  Ni  Ni13  1  0.50287202  0.49964404  0.16830905  1
  Ni  Ni14  1  0.33075788  0.33465395  0.33268201  1
  Fe  Fe15  1  0.33488177  0.66448307  0.00306339  1
  Cr  Cr16  1  0.49938221  0.83161624  0.16600656  1
  Ni  Ni17  1  0.33105523  0.66726757  0.33485550  1
  Cr  Cr18  1  0.66381695  0.00235407  0.00159917  1
  Fe  Fe19  1  0.83506975  0.17048639  0.16825450  1
  Ni  Ni20  1  0.66900030  0.00290414  0.33515776  1
  Ni  Ni21  1  0.66945296  0.33609660  1.00026363  1
  Ni  Ni22  1  0.83416898  0.49834254  0.16702002  1
  Ni  Ni23  1  0.66888641  0.33056593  0.33273382  1
  Ni  Ni24  1  0.67063618  0.66617599  1.00012741  1
  Fe  Fe25  1  0.83776248  0.83296046  0.16678906  1
  Cr  Cr26  1  0.66981900  0.66967752  0.33164959  1
  Ni  Ni27  1  0.16379191  0.16842879  0.50072907  1
  Fe  Fe28  1  1.00014412  0.00192186  0.66655866  1
  Cr  Cr29  1  0.16549616  0.16661955  0.83794575  1
  Ni  Ni30  1  0.16891096  0.49961414  0.49934784  1
  Cr  Cr31  1  0.00244262  0.33599269  0.66965511  1
  Fe  Fe32  1  0.17189620  0.50049528  0.83683701  1
  Fe  Fe33  1  0.16654785  0.83344427  0.49911999  1
  Cr  Cr34  1  0.00136942  0.66569876  0.66723571  1
  Cr  Cr35  1  0.16822423  0.83448994  0.83686673  1
  Fe  Fe36  1  0.50180686  0.17138479  0.49980245  1
  Cr  Cr37  1  0.33629759  0.00327860  0.66516311  1
  Ni  Ni38  1  0.50193303  0.17048955  0.83503196  1
  Cr  Cr39  1  0.49982506  0.50142743  0.49947168  1
  Ni  Ni40  1  0.33309039  0.33432131  0.66806778  1
  Ni  Ni41  1  0.50242236  0.50140021  0.83507904  1
  Ni  Ni42  1  0.50078475  0.83363767  0.50064858  1
  Fe  Fe43  1  0.33472509  0.66575402  0.66722143  1
  Ni  Ni44  1  0.49929260  0.83143823  0.83675518  1
  Ni  Ni45  1  0.83618730  0.16556302  0.49978315  1
  Cr  Cr46  1  0.66692241  0.00134154  0.66803059  1
  Ni  Ni47  1  0.83425292  0.16949742  0.83533248  1
  Cr  Cr48  1  0.83345548  0.49607114  0.49801987  1
  Fe  Fe49  1  0.66613353  0.33316117  0.66955294  1
  Fe  Fe50  1  0.83392727  0.49976699  0.83830272  1
  Fe  Fe51  1  0.83632197  0.83607821  0.49894166  1
  Cr  Cr52  1  0.66951526  0.66923331  0.67127921  1
  Fe  Fe53  1  0.83421384  0.83605993  0.83771745  1
" 