1235,Ni45Fe31Cr22_5,-231.315641824717, 194.9582212686,Ni45Fe31Cr22,"# generated using pymatgen
 data_Cr13Fe17Ni24
_symmetry_space_group_name_H-M   'P 1'
_cell_length_a   7.45121180
_cell_length_b   7.45121180
_cell_length_c   10.53760479
_cell_angle_alpha   90.00000000
_cell_angle_beta   90.00000000
_cell_angle_gamma   90.00000000
_symmetry_Int_Tables_number   1
_chemical_formula_structural   Cr13Fe17Ni24
_chemical_formula_sum   'Cr13 Fe17 Ni24'
_cell_volume   585.05369073
_cell_formula_units_Z   1
loop_
 _symmetry_equiv_pos_site_id
 _symmetry_equiv_pos_as_xyz
  1  'x, y, z'
loop_
 _atom_site_type_symbol
 _atom_site_label
 _atom_site_symmetry_multiplicity
 _atom_site_fract_x
 _atom_site_fract_y
 _atom_site_fract_z
 _atom_site_occupancy
  Ni  Ni0  1  0.00223424  1.00008814  0.99993813  1
  Ni  Ni1  1  0.16832783  0.16349754  0.16857340  1
  Fe  Fe2  1  0.00167810  0.99949950  0.33167487  1
  Cr  Cr3  1  1.00041938  0.33485787  1.00028475  1
  Ni  Ni4  1  0.16848050  0.50170769  0.16818510  1
  Cr  Cr5  1  0.00152199  0.33768202  0.33398482  1
  Cr  Cr6  1  1.00094613  0.66752585  0.00116084  1
  Fe  Fe7  1  0.16627434  0.83540455  0.16753980  1
  Ni  Ni8  1  0.99896211  0.66732622  0.33371041  1
  Ni  Ni9  1  0.33351756  1.00029031  1.00009453  1
  Fe  Fe10  1  0.50157810  0.16857058  0.16728222  1
  Ni  Ni11  1  0.33462424  0.00362820  0.33451148  1
  Cr  Cr12  1  0.33446374  0.33498451  0.00239444  1
  Ni  Ni13  1  0.50411509  0.50208443  0.16572273  1
  Cr  Cr14  1  0.33513306  0.33177405  0.33386993  1
  Ni  Ni15  1  0.33467670  0.66900283  1.00009566  1
  Cr  Cr16  1  0.50215333  0.83395354  0.16707776  1
  Cr  Cr17  1  0.33242629  0.66761094  0.33147047  1
  Ni  Ni18  1  0.66745441  1.00070456  0.99849753  1
  Cr  Cr19  1  0.83393985  0.16598428  0.16492496  1
  Ni  Ni20  1  0.66576891  0.00192669  0.33394679  1
  Ni  Ni21  1  0.66731261  0.33522878  1.00015800  1
  Ni  Ni22  1  0.83047831  0.50236525  0.17007136  1
  Ni  Ni23  1  0.66759798  0.33422012  0.33372828  1
  Ni  Ni24  1  0.66732909  0.66739751  0.99991921  1
  Fe  Fe25  1  0.83503005  0.83275247  0.16770368  1
  Ni  Ni26  1  0.67217202  0.66695282  0.33301721  1
  Fe  Fe27  1  0.16932501  0.16750729  0.50318205  1
  Fe  Fe28  1  0.99957205  0.00130613  0.67145497  1
  Ni  Ni29  1  0.16780465  0.16628264  0.83236555  1
  Fe  Fe30  1  0.16538668  0.50158950  0.50404627  1
  Ni  Ni31  1  0.00246417  0.33518508  0.66825272  1
  Ni  Ni32  1  0.16927741  0.50039014  0.83122081  1
  Cr  Cr33  1  0.16743026  0.83525172  0.50195473  1
  Fe  Fe34  1  0.99844248  0.66582427  0.66970946  1
  Fe  Fe35  1  0.16740430  0.83421100  0.83405659  1
  Fe  Fe36  1  0.50181987  0.16616868  0.50198224  1
  Fe  Fe37  1  0.33590622  0.00302998  0.66967636  1
  Fe  Fe38  1  0.50271867  0.16768256  0.83424480  1
  Cr  Cr39  1  0.50294944  0.50098527  0.50220219  1
  Fe  Fe40  1  0.33527223  0.33414369  0.66913711  1
  Fe  Fe41  1  0.50231640  0.50241614  0.83413152  1
  Cr  Cr42  1  0.50199600  0.83431520  0.50206940  1
  Ni  Ni43  1  0.33291104  0.66789420  0.67091870  1
  Fe  Fe44  1  0.50076444  0.83321056  0.83472729  1
  Cr  Cr45  1  0.83462680  0.16842742  0.50245353  1
  Ni  Ni46  1  0.66666829  0.00140638  0.67014311  1
  Fe  Fe47  1  0.83475496  0.16814730  0.83363407  1
  Fe  Fe48  1  0.83448778  0.50215570  0.50232137  1
  Ni  Ni49  1  0.66969786  0.33351330  0.66894374  1
  Ni  Ni50  1  0.83198043  0.50138505  0.83179389  1
  Cr  Cr51  1  0.83347224  0.83385269  0.49916010  1
  Ni  Ni52  1  0.66761223  0.66830930  0.66983573  1
  Ni  Ni53  1  0.83170432  0.83576976  0.83422552  1
" 