3240,Ni45Fe31Cr22_2,-231.871757806041, 192.189392346105,Ni45Fe31Cr22,"# generated using pymatgen
 data_Cr13Fe17Ni24
_symmetry_space_group_name_H-M   'P 1'
_cell_length_a   7.45266801
_cell_length_b   7.45266801
_cell_length_c   10.53966418
_cell_angle_alpha   90.00000000
_cell_angle_beta   90.00000000
_cell_angle_gamma   90.00000000
_symmetry_Int_Tables_number   1
_chemical_formula_structural   Cr13Fe17Ni24
_chemical_formula_sum   'Cr13 Fe17 Ni24'
_cell_volume   585.39677300
_cell_formula_units_Z   1
loop_
 _symmetry_equiv_pos_site_id
 _symmetry_equiv_pos_as_xyz
  1  'x, y, z'
loop_
 _atom_site_type_symbol
 _atom_site_label
 _atom_site_symmetry_multiplicity
 _atom_site_fract_x
 _atom_site_fract_y
 _atom_site_fract_z
 _atom_site_occupancy
  Ni  Ni0  1  0.99968418  1.00032856  1.00066527  1
  Fe  Fe1  1  0.16310385  0.16778937  0.16876361  1
  Fe  Fe2  1  0.99796177  0.00198859  0.33441469  1
  Fe  Fe3  1  0.99852290  0.33423914  1.00049138  1
  Fe  Fe4  1  0.16328764  0.50135294  0.16963165  1
  Fe  Fe5  1  0.00193447  0.33468669  0.33459090  1
  Ni  Ni6  1  0.99948384  0.66865544  1.00068895  1
  Cr  Cr7  1  0.16503558  0.83255796  0.16803500  1
  Ni  Ni8  1  0.99985797  0.66722142  0.33501280  1
  Cr  Cr9  1  0.33253823  0.99898696  1.00013284  1
  Cr  Cr10  1  0.50363393  0.16639718  0.16859401  1
  Fe  Fe11  1  0.33565641  1.00004610  0.33524408  1
  Cr  Cr12  1  0.33241081  0.33472581  0.00160183  1
  Cr  Cr13  1  0.50130152  0.50303741  0.16721932  1
  Fe  Fe14  1  0.33040592  0.33424829  0.33569751  1
  Fe  Fe15  1  0.33401213  0.66851940  0.99924723  1
  Ni  Ni16  1  0.50302368  0.83271366  0.16754847  1
  Ni  Ni17  1  0.33328952  0.66923597  0.33251017  1
  Fe  Fe18  1  0.67168758  0.99849122  1.00086592  1
  Ni  Ni19  1  0.83637710  0.16754248  0.16474858  1
  Fe  Fe20  1  0.66923132  0.99713070  0.33546792  1
  Ni  Ni21  1  0.67051650  0.33555222  1.00018184  1
  Ni  Ni22  1  0.83632737  0.50136324  0.16684600  1
  Cr  Cr23  1  0.67036582  0.33147835  0.33630383  1
  Ni  Ni24  1  0.66980978  0.66798818  0.00160700  1
  Ni  Ni25  1  0.83451382  0.83401439  0.16744709  1
  Fe  Fe26  1  0.66966034  0.67110181  0.33352702  1
  Ni  Ni27  1  0.16796993  0.16863235  0.50063391  1
  Ni  Ni28  1  0.99935149  0.00196687  0.66830620  1
  Ni  Ni29  1  0.16535336  0.16622330  0.83307059  1
  Ni  Ni30  1  0.16800823  0.49978954  0.49854422  1
  Cr  Cr31  1  0.00157722  0.33262219  0.66695796  1
  Fe  Fe32  1  0.16581644  0.50019009  0.83500910  1
  Cr  Cr33  1  0.16588199  0.83495571  0.50173730  1
  Cr  Cr34  1  0.99771609  0.66951593  0.66700351  1
  Ni  Ni35  1  0.16455973  0.83460302  0.83492483  1
  Ni  Ni36  1  0.49953869  0.16537745  0.50177727  1
  Fe  Fe37  1  0.33397221  0.00226665  0.66755048  1
  Cr  Cr38  1  0.50369031  0.16927914  0.83201085  1
  Cr  Cr39  1  0.49962644  0.50244366  0.50097687  1
  Ni  Ni40  1  0.33277870  0.33230742  0.66573341  1
  Fe  Fe41  1  0.50332493  0.50330834  0.83522616  1
  Ni  Ni42  1  0.50311762  0.83556392  0.50052443  1
  Cr  Cr43  1  0.33443895  0.66799621  0.67153346  1
  Fe  Fe44  1  0.50469124  0.83456324  0.83443321  1
  Ni  Ni45  1  0.83517963  0.16390523  0.50149487  1
  Ni  Ni46  1  0.66985232  0.99925347  0.66651920  1
  Ni  Ni47  1  0.83602031  0.16520106  0.83679429  1
  Fe  Fe48  1  0.83617575  0.50279820  0.49877968  1
  Cr  Cr49  1  0.66920155  0.33432050  0.66674220  1
  Fe  Fe50  1  0.83388507  0.50214873  0.83699686  1
  Ni  Ni51  1  0.83283363  0.83544499  0.50022358  1
  Ni  Ni52  1  0.66848301  0.67137134  0.66655125  1
  Ni  Ni53  1  0.83541649  0.83465331  0.83495470  1
" 