7843,Ni45Fe31Cr22_17,-231.705263031532, 190.695370138483,Ni45Fe31Cr22,"# generated using pymatgen
 data_Cr13Fe17Ni24
_symmetry_space_group_name_H-M   'P 1'
_cell_length_a   7.45516873
_cell_length_b   7.45516873
_cell_length_c   10.54320072
_cell_angle_alpha   90.00000000
_cell_angle_beta   90.00000000
_cell_angle_gamma   90.00000000
_symmetry_Int_Tables_number   1
_chemical_formula_structural   Cr13Fe17Ni24
_chemical_formula_sum   'Cr13 Fe17 Ni24'
_cell_volume   585.98625408
_cell_formula_units_Z   1
loop_
 _symmetry_equiv_pos_site_id
 _symmetry_equiv_pos_as_xyz
  1  'x, y, z'
loop_
 _atom_site_type_symbol
 _atom_site_label
 _atom_site_symmetry_multiplicity
 _atom_site_fract_x
 _atom_site_fract_y
 _atom_site_fract_z
 _atom_site_occupancy
  Cr  Cr0  1  1.00027869  0.00081230  0.99993874  1
  Cr  Cr1  1  0.16735136  0.16893128  0.16749885  1
  Ni  Ni2  1  0.00123713  0.99955802  0.33465686  1
  Ni  Ni3  1  0.00261693  0.33568167  0.99987696  1
  Ni  Ni4  1  0.16561872  0.50287500  0.16656304  1
  Ni  Ni5  1  0.00099847  0.33550058  0.33442263  1
  Fe  Fe6  1  0.00191970  0.66579598  0.00082813  1
  Ni  Ni7  1  0.16772660  0.83119967  0.16951972  1
  Ni  Ni8  1  0.00144938  0.66733233  0.33302943  1
  Ni  Ni9  1  0.33653421  0.00221644  0.99938243  1
  Ni  Ni10  1  0.50310675  0.16425452  0.16626960  1
  Ni  Ni11  1  0.33436210  0.99893569  0.33475335  1
  Ni  Ni12  1  0.33279099  0.33331781  1.00014410  1
  Ni  Ni13  1  0.49976656  0.50258451  0.16845314  1
  Cr  Cr14  1  0.33340452  0.33454328  0.33381832  1
  Cr  Cr15  1  0.33297727  0.66666613  0.00092530  1
  Ni  Ni16  1  0.50172838  0.83555055  0.16885460  1
  Ni  Ni17  1  0.33354266  0.66855834  0.33432397  1
  Ni  Ni18  1  0.66576497  0.00081232  0.00126030  1
  Ni  Ni19  1  0.83264862  0.16635768  0.16780234  1
  Ni  Ni20  1  0.66679262  0.99938770  0.33079080  1
  Cr  Cr21  1  0.66660277  0.33237901  1.00042647  1
  Fe  Fe22  1  0.83616183  0.50115600  0.16857473  1
  Cr  Cr23  1  0.66737266  0.33465533  0.33463755  1
  Cr  Cr24  1  0.66814970  0.66945560  0.00159753  1
  Fe  Fe25  1  0.83342386  0.83459767  0.16962138  1
  Ni  Ni26  1  0.66739787  0.66832469  0.33289907  1
  Fe  Fe27  1  0.16746881  0.16647982  0.50075557  1
  Fe  Fe28  1  0.00340838  0.00091173  0.66868199  1
  Ni  Ni29  1  0.16766331  0.16861877  0.83368442  1
  Ni  Ni30  1  0.16547729  0.50237299  0.50077388  1
  Ni  Ni31  1  0.00133520  0.33536337  0.66809111  1
  Ni  Ni32  1  0.16493305  0.50070784  0.83505102  1
  Fe  Fe33  1  0.16756934  0.83399982  0.49962440  1
  Ni  Ni34  1  0.00250164  0.66627070  0.66877875  1
  Fe  Fe35  1  0.16795116  0.83464393  0.83320391  1
  Ni  Ni36  1  0.50020721  0.16689843  0.50070479  1
  Fe  Fe37  1  0.33183149  0.00085595  0.66837787  1
  Ni  Ni38  1  0.50057932  0.16568916  0.83541468  1
  Fe  Fe39  1  0.50067583  0.50084125  0.49994859  1
  Cr  Cr40  1  0.33380214  0.33365982  0.66681163  1
  Fe  Fe41  1  0.49899268  0.49900468  0.83414177  1
  Cr  Cr42  1  0.49887548  0.83450192  0.49836326  1
  Fe  Fe43  1  0.33087573  0.66715082  0.66775334  1
  Fe  Fe44  1  0.49874612  0.83643476  0.83489198  1
  Cr  Cr45  1  0.83492507  0.16856234  0.50099600  1
  Cr  Cr46  1  0.66686275  0.00248517  0.67021375  1
  Fe  Fe47  1  0.83552128  0.16881844  0.83404406  1
  Fe  Fe48  1  0.83601897  0.50073966  0.50078155  1
  Fe  Fe49  1  0.66845943  0.33468098  0.66799678  1
  Fe  Fe50  1  0.83731309  0.49906802  0.83303607  1
  Cr  Cr51  1  0.83594848  0.83317763  0.49785474  1
  Cr  Cr52  1  0.66765797  0.66513891  0.66839493  1
  Fe  Fe53  1  0.83569459  0.83450411  0.83378096  1
" 