6908,Ni45Fe31Cr22_0,-231.777789604231, 198.576984670923,Ni45Fe31Cr22,"# generated using pymatgen
 data_Cr13Fe17Ni24
_symmetry_space_group_name_H-M   'P 1'
_cell_length_a   7.44736992
_cell_length_b   7.44736992
_cell_length_c   10.53217155
_cell_angle_alpha   90.00000000
_cell_angle_beta   90.00000000
_cell_angle_gamma   90.00000000
_symmetry_Int_Tables_number   1
_chemical_formula_structural   Cr13Fe17Ni24
_chemical_formula_sum   'Cr13 Fe17 Ni24'
_cell_volume   584.14918810
_cell_formula_units_Z   1
loop_
 _symmetry_equiv_pos_site_id
 _symmetry_equiv_pos_as_xyz
  1  'x, y, z'
loop_
 _atom_site_type_symbol
 _atom_site_label
 _atom_site_symmetry_multiplicity
 _atom_site_fract_x
 _atom_site_fract_y
 _atom_site_fract_z
 _atom_site_occupancy
  Ni  Ni0  1  0.00196726  1.00043932  0.00250209  1
  Fe  Fe1  1  0.16785247  0.16613440  0.16746791  1
  Cr  Cr2  1  0.99948913  1.00096455  0.33218818  1
  Cr  Cr3  1  1.00033992  0.33188817  0.00229409  1
  Cr  Cr4  1  0.16701683  0.50230719  0.16942807  1
  Fe  Fe5  1  1.00122410  0.33616200  0.33444678  1
  Fe  Fe6  1  0.99924446  0.66950234  0.00217916  1
  Ni  Ni7  1  0.16763981  0.83522907  0.16669545  1
  Fe  Fe8  1  1.00112126  0.66640675  0.33451072  1
  Fe  Fe9  1  0.33317342  0.00194768  1.00098628  1
  Cr  Cr10  1  0.50022815  0.16750343  0.16915146  1
  Fe  Fe11  1  0.33741860  1.00074136  0.33437619  1
  Ni  Ni12  1  0.33625291  0.33471075  1.00022634  1
  Cr  Cr13  1  0.50200154  0.50101584  0.16441310  1
  Ni  Ni14  1  0.33252915  0.33427039  0.33497358  1
  Ni  Ni15  1  0.33638968  0.66870324  0.00267912  1
  Ni  Ni16  1  0.49977330  0.83543241  0.16847509  1
  Fe  Fe17  1  0.33362397  0.66948725  0.33425684  1
  Cr  Cr18  1  0.67017287  1.00053849  0.00181239  1
  Fe  Fe19  1  0.83593566  0.16729417  0.16800801  1
  Fe  Fe20  1  0.66679029  1.00064004  0.33611466  1
  Ni  Ni21  1  0.66757411  0.33677597  1.00063109  1
  Ni  Ni22  1  0.83581526  0.50248318  0.16745145  1
  Cr  Cr23  1  0.66922406  0.33297240  0.33474973  1
  Fe  Fe24  1  0.66881417  0.66662697  1.00113004  1
  Ni  Ni25  1  0.83654969  0.83346871  0.16677750  1
  Cr  Cr26  1  0.66871561  0.67107656  0.33419059  1
  Cr  Cr27  1  0.16938391  0.16988748  0.50312251  1
  Ni  Ni28  1  0.99897536  0.00138226  0.66944607  1
  Ni  Ni29  1  0.17002710  0.16680100  0.83465415  1
  Fe  Fe30  1  0.16736166  0.50133931  0.50159395  1
  Fe  Fe31  1  0.99984281  0.33454340  0.66831375  1
  Cr  Cr32  1  0.16829878  0.50108424  0.83279329  1
  Cr  Cr33  1  0.16836471  0.83218221  0.50295528  1
  Ni  Ni34  1  0.99915887  0.66833056  0.66626910  1
  Cr  Cr35  1  0.16721032  0.83653408  0.83452145  1
  Ni  Ni36  1  0.50264503  0.16642345  0.50196635  1
  Ni  Ni37  1  0.33612097  0.00229461  0.66863848  1
  Ni  Ni38  1  0.50031222  0.16956831  0.83314801  1
  Cr  Cr39  1  0.49984407  0.50047775  0.50342541  1
  Ni  Ni40  1  0.33563619  0.33407856  0.66876172  1
  Fe  Fe41  1  0.50214062  0.50012866  0.83460292  1
  Ni  Ni42  1  0.50251961  0.83693113  0.50184881  1
  Ni  Ni43  1  0.33576109  0.66758914  0.66651694  1
  Fe  Fe44  1  0.50145240  0.83402791  0.83330915  1
  Ni  Ni45  1  0.83242330  0.16787441  0.50301421  1
  Ni  Ni46  1  0.66886788  1.00125550  0.66552909  1
  Fe  Fe47  1  0.83476764  0.16823717  0.83284839  1
  Fe  Fe48  1  0.83631029  0.50158222  0.50320951  1
  Ni  Ni49  1  0.66812505  0.33389362  0.66878999  1
  Ni  Ni50  1  0.83187352  0.50209874  0.83398766  1
  Ni  Ni51  1  0.83335652  0.83467139  0.50345580  1
  Ni  Ni52  1  0.66904052  0.66881468  0.66924097  1
  Fe  Fe53  1  0.83464213  0.83458584  0.83326143  1
" 