3158,Ni45Fe31Cr22_13,-231.906125798364, 201.983353100156,Ni45Fe31Cr22,"# generated using pymatgen
 data_Cr13Fe17Ni24
_symmetry_space_group_name_H-M   'P 1'
_cell_length_a   7.44661102
_cell_length_b   7.44661102
_cell_length_c   10.53109830
_cell_angle_alpha   90.00000000
_cell_angle_beta   90.00000000
_cell_angle_gamma   90.00000000
_symmetry_Int_Tables_number   1
_chemical_formula_structural   Cr13Fe17Ni24
_chemical_formula_sum   'Cr13 Fe17 Ni24'
_cell_volume   583.97062795
_cell_formula_units_Z   1
loop_
 _symmetry_equiv_pos_site_id
 _symmetry_equiv_pos_as_xyz
  1  'x, y, z'
loop_
 _atom_site_type_symbol
 _atom_site_label
 _atom_site_symmetry_multiplicity
 _atom_site_fract_x
 _atom_site_fract_y
 _atom_site_fract_z
 _atom_site_occupancy
  Ni  Ni0  1  0.00236394  0.99984652  1.00089422  1
  Fe  Fe1  1  0.16737270  0.16871669  0.16900157  1
  Fe  Fe2  1  0.00152004  0.00256884  0.33524194  1
  Ni  Ni3  1  0.00206749  0.33743816  0.00154574  1
  Fe  Fe4  1  0.16560525  0.50002821  0.16703796  1
  Ni  Ni5  1  0.00244002  0.33479912  0.33378031  1
  Ni  Ni6  1  1.00068576  0.66683504  0.99957870  1
  Ni  Ni7  1  0.16744934  0.83496078  0.16680306  1
  Cr  Cr8  1  1.00027493  0.66685213  0.33595399  1
  Cr  Cr9  1  0.33591258  1.00052972  0.00213629  1
  Ni  Ni10  1  0.50106798  0.16997228  0.16877734  1
  Cr  Cr11  1  0.33591885  0.00255493  0.33283523  1
  Cr  Cr12  1  0.33282783  0.33386936  0.99988427  1
  Cr  Cr13  1  0.50289289  0.50115367  0.16911895  1
  Ni  Ni14  1  0.33334275  0.33263629  0.33502380  1
  Fe  Fe15  1  0.33302189  0.66962014  1.00004661  1
  Fe  Fe16  1  0.50177896  0.83513815  0.16641336  1
  Cr  Cr17  1  0.33492181  0.66914031  0.33443708  1
  Ni  Ni18  1  0.66625838  0.99874605  0.99978469  1
  Cr  Cr19  1  0.83581937  0.16958532  0.16817405  1
  Cr  Cr20  1  0.66627298  1.00090677  0.33778394  1
  Fe  Fe21  1  0.66982433  0.33531781  1.00051260  1
  Fe  Fe22  1  0.83536718  0.50066081  0.16713031  1
  Ni  Ni23  1  0.66833335  0.33401272  0.33473159  1
  Ni  Ni24  1  0.66952766  0.66953025  0.99987466  1
  Cr  Cr25  1  0.83596907  0.83435593  0.16594988  1
  Ni  Ni26  1  0.66861519  0.66853544  0.33517154  1
  Cr  Cr27  1  0.16642463  0.16920695  0.50051229  1
  Fe  Fe28  1  0.99982676  0.99996961  0.66833876  1
  Fe  Fe29  1  0.16715057  0.16836887  0.83337526  1
  Fe  Fe30  1  0.16779007  0.50039483  0.50286059  1
  Ni  Ni31  1  0.00248529  0.33586438  0.66878868  1
  Ni  Ni32  1  0.16826704  0.50241678  0.83410030  1
  Fe  Fe33  1  0.16737722  0.83486099  0.50332703  1
  Fe  Fe34  1  1.00086720  0.66790714  0.66983279  1
  Ni  Ni35  1  0.16734623  0.83348644  0.83416435  1
  Ni  Ni36  1  0.50271492  0.16870268  0.50225421  1
  Fe  Fe37  1  0.33652017  1.00063802  0.66861232  1
  Fe  Fe38  1  0.50178683  0.16807303  0.83337176  1
  Cr  Cr39  1  0.50070306  0.50049271  0.50113328  1
  Fe  Fe40  1  0.33549888  0.33548452  0.66938006  1
  Ni  Ni41  1  0.50147052  0.50248369  0.83391037  1
  Ni  Ni42  1  0.50251393  0.83462662  0.50186578  1
  Fe  Fe43  1  0.33472118  0.66799291  0.66937641  1
  Ni  Ni44  1  0.50146050  0.83248814  0.83558542  1
  Ni  Ni45  1  0.83484657  0.16667685  0.50069168  1
  Fe  Fe46  1  0.66777220  1.00074776  0.66689483  1
  Cr  Cr47  1  0.83535441  0.16764837  0.83541133  1
  Cr  Cr48  1  0.83375887  0.50013799  0.50045353  1
  Ni  Ni49  1  0.66755889  0.33406107  0.66892754  1
  Ni  Ni50  1  0.83437982  0.50218331  0.83644390  1
  Ni  Ni51  1  0.83476737  0.83693843  0.50249858  1
  Ni  Ni52  1  0.66797640  0.67022645  0.66906789  1
  Ni  Ni53  1  0.83530715  0.83370924  0.83529655  1
" 