7441,Ni45Fe31Cr22_19,-231.390005033058, 196.399956736816,Ni45Fe31Cr22,"# generated using pymatgen
 data_Cr13Fe17Ni24
_symmetry_space_group_name_H-M   'P 1'
_cell_length_a   7.44460317
_cell_length_b   7.44460317
_cell_length_c   10.52825877
_cell_angle_alpha   90.00000000
_cell_angle_beta   90.00000000
_cell_angle_gamma   90.00000000
_symmetry_Int_Tables_number   1
_chemical_formula_structural   Cr13Fe17Ni24
_chemical_formula_sum   'Cr13 Fe17 Ni24'
_cell_volume   583.49838192
_cell_formula_units_Z   1
loop_
 _symmetry_equiv_pos_site_id
 _symmetry_equiv_pos_as_xyz
  1  'x, y, z'
loop_
 _atom_site_type_symbol
 _atom_site_label
 _atom_site_symmetry_multiplicity
 _atom_site_fract_x
 _atom_site_fract_y
 _atom_site_fract_z
 _atom_site_occupancy
  Cr  Cr0  1  1.00149015  0.99983249  0.00185228  1
  Ni  Ni1  1  0.16727534  0.17020450  0.16857850  1
  Ni  Ni2  1  0.99937283  1.00031182  0.33483102  1
  Fe  Fe3  1  0.00320502  0.33417107  1.00059520  1
  Ni  Ni4  1  0.16953738  0.50195478  0.16676793  1
  Fe  Fe5  1  0.00361375  0.33288025  0.33558786  1
  Ni  Ni6  1  0.00289647  0.66694900  0.00234496  1
  Ni  Ni7  1  0.16776824  0.83228622  0.16931974  1
  Fe  Fe8  1  0.00498835  0.67010429  0.33499425  1
  Cr  Cr9  1  0.33506219  0.00239955  0.00237388  1
  Ni  Ni10  1  0.50185300  0.16945918  0.16943310  1
  Cr  Cr11  1  0.33187514  1.00101561  0.33379263  1
  Fe  Fe12  1  0.33338086  0.33555212  1.00124184  1
  Fe  Fe13  1  0.50013902  0.50275532  0.16731376  1
  Cr  Cr14  1  0.33594169  0.33660427  0.33609945  1
  Fe  Fe15  1  0.33437008  0.66743866  1.00105783  1
  Fe  Fe16  1  0.50126009  0.83260118  0.16919136  1
  Ni  Ni17  1  0.33386304  0.66651620  0.33413142  1
  Cr  Cr18  1  0.66793415  0.00228069  0.00315276  1
  Ni  Ni19  1  0.83536509  0.16829157  0.17100413  1
  Fe  Fe20  1  0.66892388  0.00200948  0.33470661  1
  Cr  Cr21  1  0.66734667  0.33450379  0.99994452  1
  Cr  Cr22  1  0.83689375  0.50161529  0.16889513  1
  Fe  Fe23  1  0.66833414  0.33229418  0.33498994  1
  Fe  Fe24  1  0.66818961  0.66919464  1.00087572  1
  Ni  Ni25  1  0.83486417  0.83404985  0.17116842  1
  Fe  Fe26  1  0.66722679  0.67002505  0.33515666  1
  Fe  Fe27  1  0.16253234  0.16746132  0.50149054  1
  Fe  Fe28  1  1.00052101  0.00332345  0.66662629  1
  Ni  Ni29  1  0.16682759  0.16990450  0.83430714  1
  Ni  Ni30  1  0.16926022  0.50241555  0.50116288  1
  Ni  Ni31  1  1.00033689  0.33434084  0.66926310  1
  Fe  Fe32  1  0.16892687  0.50132056  0.83592186  1
  Ni  Ni33  1  0.16779023  0.83276361  0.50085837  1
  Cr  Cr34  1  0.00332012  0.66809434  0.66680507  1
  Ni  Ni35  1  0.17025857  0.83317285  0.83408689  1
  Fe  Fe36  1  0.50509988  0.16847223  0.50150276  1
  Cr  Cr37  1  0.33329099  1.00075699  0.66885755  1
  Ni  Ni38  1  0.50185768  0.16925336  0.83280683  1
  Fe  Fe39  1  0.50231328  0.50334830  0.50282538  1
  Cr  Cr40  1  0.33471705  0.33644045  0.66663180  1
  Ni  Ni41  1  0.50096094  0.50302290  0.83376634  1
  Cr  Cr42  1  0.50187849  0.83380091  0.50350005  1
  Ni  Ni43  1  0.33453178  0.66709294  0.66886540  1
  Ni  Ni44  1  0.50016944  0.83241923  0.83443918  1
  Ni  Ni45  1  0.83408551  0.16777949  0.50149959  1
  Ni  Ni46  1  0.66912199  0.00340672  0.66829268  1
  Ni  Ni47  1  0.83563596  0.17087056  0.83201229  1
  Cr  Cr48  1  0.83474599  0.50021642  0.50130286  1
  Ni  Ni49  1  0.66899423  0.33438270  0.66809724  1
  Fe  Fe50  1  0.83485115  0.50055590  0.83439652  1
  Ni  Ni51  1  0.83477508  0.83715064  0.50077072  1
  Ni  Ni52  1  0.66762344  0.66691923  0.66960616  1
  Cr  Cr53  1  0.83400361  0.83541415  0.83230486  1
" 