3287,Ni45Fe31Cr22_8,-231.443110140319, 197.652145799856,Ni45Fe31Cr22,"# generated using pymatgen
 data_Cr13Fe17Ni24
_symmetry_space_group_name_H-M   'P 1'
_cell_length_a   7.44302914
_cell_length_b   7.44302914
_cell_length_c   10.52603276
_cell_angle_alpha   90.00000000
_cell_angle_beta   90.00000000
_cell_angle_gamma   90.00000000
_symmetry_Int_Tables_number   1
_chemical_formula_structural   Cr13Fe17Ni24
_chemical_formula_sum   'Cr13 Fe17 Ni24'
_cell_volume   583.12835021
_cell_formula_units_Z   1
loop_
 _symmetry_equiv_pos_site_id
 _symmetry_equiv_pos_as_xyz
  1  'x, y, z'
loop_
 _atom_site_type_symbol
 _atom_site_label
 _atom_site_symmetry_multiplicity
 _atom_site_fract_x
 _atom_site_fract_y
 _atom_site_fract_z
 _atom_site_occupancy
  Fe  Fe0  1  1.00153490  0.99871934  0.00403426  1
  Fe  Fe1  1  0.16783175  0.16676538  0.17054093  1
  Ni  Ni2  1  0.00405639  1.00011027  0.33618755  1
  Ni  Ni3  1  1.00005787  0.33792201  0.00381075  1
  Fe  Fe4  1  0.16638164  0.50201618  0.16938086  1
  Ni  Ni5  1  0.00354339  0.33749584  0.33535782  1
  Fe  Fe6  1  0.99973422  0.67057570  0.00166593  1
  Ni  Ni7  1  0.16759860  0.83557827  0.16917304  1
  Fe  Fe8  1  0.00447086  0.66827233  0.33561706  1
  Ni  Ni9  1  0.33316715  1.00053242  0.00309490  1
  Ni  Ni10  1  0.49944565  0.16730857  0.17130747  1
  Ni  Ni11  1  0.33343872  0.00274165  0.33290187  1
  Cr  Cr12  1  0.33586013  0.33022165  0.00260978  1
  Cr  Cr13  1  0.50227471  0.50161128  0.16889584  1
  Ni  Ni14  1  0.33204065  0.33296069  0.33695328  1
  Cr  Cr15  1  0.33646206  0.67260433  0.00250957  1
  Ni  Ni16  1  0.50015036  0.83605089  0.16958607  1
  Fe  Fe17  1  0.33090729  0.66832542  0.33359866  1
  Cr  Cr18  1  0.66398127  0.99901130  0.00346481  1
  Cr  Cr19  1  0.83618009  0.16965870  0.17004166  1
  Fe  Fe20  1  0.66836231  0.00260612  0.33433489  1
  Ni  Ni21  1  0.66993211  0.33770737  1.00097951  1
  Ni  Ni22  1  0.83785257  0.50260429  0.16594068  1
  Fe  Fe23  1  0.66869776  0.33443272  0.33522361  1
  Ni  Ni24  1  0.67212568  0.66845625  0.99929217  1
  Ni  Ni25  1  0.83726773  0.83336200  0.16984375  1
  Cr  Cr26  1  0.67323615  0.66868728  0.33398504  1
  Ni  Ni27  1  0.16879380  0.17026100  0.50112250  1
  Fe  Fe28  1  1.00148470  1.00055666  0.66592263  1
  Cr  Cr29  1  0.16527441  0.16843275  0.83624941  1
  Fe  Fe30  1  0.16725268  0.50251799  0.50227443  1
  Ni  Ni31  1  0.00296621  0.33921107  0.66631167  1
  Cr  Cr32  1  0.16773218  0.50159598  0.83432138  1
  Fe  Fe33  1  0.16532868  0.83594727  0.50005799  1
  Ni  Ni34  1  0.99978910  0.67005166  0.66671788  1
  Fe  Fe35  1  0.16719320  0.83521720  0.83553179  1
  Fe  Fe36  1  0.50122110  0.16819969  0.49989449  1
  Cr  Cr37  1  0.33550047  0.00266709  0.67028154  1
  Ni  Ni38  1  0.50167662  0.16805203  0.83475249  1
  Fe  Fe39  1  0.50091315  0.49965229  0.50052472  1
  Ni  Ni40  1  0.33403411  0.33507856  0.66605492  1
  Ni  Ni41  1  0.50153605  0.50355433  0.83313467  1
  Cr  Cr42  1  0.50029171  0.83294365  0.49950117  1
  Fe  Fe43  1  0.33466014  0.66676751  0.66836160  1
  Ni  Ni44  1  0.50315024  0.83294290  0.83471749  1
  Cr  Cr45  1  0.83825231  0.16672839  0.50089663  1
  Ni  Ni46  1  0.66796527  0.99754980  0.66733265  1
  Cr  Cr47  1  0.83681348  0.16694308  0.83448331  1
  Ni  Ni48  1  0.83683488  0.50222252  0.50201752  1
  Cr  Cr49  1  0.66717900  0.33477445  0.66850894  1
  Fe  Fe50  1  0.83419409  0.50319543  0.83512820  1
  Ni  Ni51  1  0.83551279  0.83364142  0.50167882  1
  Fe  Fe52  1  0.66993345  0.66813420  0.66849403  1
  Ni  Ni53  1  0.83505248  0.83395113  0.83252367  1
" 