5378,Ni45Fe31Cr22_11,-231.535438683697, 196.801934719061,Ni45Fe31Cr22,"# generated using pymatgen
 data_Cr13Fe17Ni24
_symmetry_space_group_name_H-M   'P 1'
_cell_length_a   7.44598013
_cell_length_b   7.44598013
_cell_length_c   10.53020608
_cell_angle_alpha   90.00000000
_cell_angle_beta   90.00000000
_cell_angle_gamma   90.00000000
_symmetry_Int_Tables_number   1
_chemical_formula_structural   Cr13Fe17Ni24
_chemical_formula_sum   'Cr13 Fe17 Ni24'
_cell_volume   583.82221542
_cell_formula_units_Z   1
loop_
 _symmetry_equiv_pos_site_id
 _symmetry_equiv_pos_as_xyz
  1  'x, y, z'
loop_
 _atom_site_type_symbol
 _atom_site_label
 _atom_site_symmetry_multiplicity
 _atom_site_fract_x
 _atom_site_fract_y
 _atom_site_fract_z
 _atom_site_occupancy
  Fe  Fe0  1  0.00171526  0.00193258  1.00103919  1
  Ni  Ni1  1  0.16907401  0.17057730  0.16678684  1
  Cr  Cr2  1  1.00046516  0.00148693  0.33452387  1
  Ni  Ni3  1  0.00278055  0.33644213  1.00079147  1
  Ni  Ni4  1  0.16716516  0.50086268  0.16873190  1
  Ni  Ni5  1  0.00469703  0.33762448  0.33497815  1
  Ni  Ni6  1  1.00114542  0.66609369  0.00252442  1
  Fe  Fe7  1  0.16841357  0.83381484  0.16646520  1
  Fe  Fe8  1  1.00022225  0.66564153  0.33422314  1
  Fe  Fe9  1  0.33293684  0.00254982  0.00357338  1
  Ni  Ni10  1  0.49969971  0.16681611  0.16773983  1
  Cr  Cr11  1  0.33673868  0.00278299  0.33210122  1
  Fe  Fe12  1  0.33223855  0.33464456  0.00284225  1
  Cr  Cr13  1  0.50047716  0.50201075  0.16740082  1
  Ni  Ni14  1  0.33171020  0.33535570  0.33577466  1
  Fe  Fe15  1  0.33347557  0.66704996  0.00235767  1
  Ni  Ni16  1  0.50277899  0.83461683  0.16860091  1
  Fe  Fe17  1  0.33443498  0.66530796  0.33442381  1
  Cr  Cr18  1  0.66708128  1.00087782  0.00311119  1
  Cr  Cr19  1  0.83519859  0.16840638  0.16800869  1
  Ni  Ni20  1  0.66721265  0.99874263  0.33453132  1
  Ni  Ni21  1  0.66968217  0.33613805  0.00143981  1
  Fe  Fe22  1  0.83659604  0.50336880  0.16684382  1
  Cr  Cr23  1  0.66817992  0.33465331  0.33515963  1
  Ni  Ni24  1  0.67022169  0.66749525  0.00161775  1
  Ni  Ni25  1  0.83351937  0.83271040  0.16867979  1
  Ni  Ni26  1  0.66947856  0.67019909  0.33446279  1
  Fe  Fe27  1  0.16840079  0.16978419  0.50189541  1
  Ni  Ni28  1  1.00053470  1.00082812  0.66916489  1
  Ni  Ni29  1  0.16550786  0.16917309  0.83496027  1
  Ni  Ni30  1  0.16905427  0.50014211  0.50049457  1
  Cr  Cr31  1  0.00151672  0.33528146  0.66857512  1
  Ni  Ni32  1  0.16712211  0.50081575  0.83502099  1
  Cr  Cr33  1  0.16613040  0.83268009  0.50293212  1
  Ni  Ni34  1  0.00144042  0.66837455  0.66801287  1
  Cr  Cr35  1  0.16648697  0.83434681  0.83390353  1
  Fe  Fe36  1  0.50156713  0.16897157  0.50261760  1
  Ni  Ni37  1  0.33457486  0.00233909  0.66795884  1
  Cr  Cr38  1  0.50208503  0.16920359  0.83424307  1
  Fe  Fe39  1  0.50060808  0.50140077  0.50211720  1
  Fe  Fe40  1  0.33408481  0.33458247  0.66650215  1
  Cr  Cr41  1  0.50112093  0.50176798  0.83416680  1
  Cr  Cr42  1  0.50418948  0.83426139  0.50241859  1
  Ni  Ni43  1  0.33348409  0.66705114  0.66753535  1
  Cr  Cr44  1  0.50229491  0.83327330  0.83325045  1
  Fe  Fe45  1  0.83427544  0.16686735  0.50267974  1
  Ni  Ni46  1  0.66913391  0.00233328  0.66676266  1
  Ni  Ni47  1  0.83646539  0.16814772  0.83411800  1
  Fe  Fe48  1  0.83519939  0.50347097  0.50133583  1
  Ni  Ni49  1  0.66780908  0.33395109  0.66719989  1
  Fe  Fe50  1  0.83604416  0.50106822  0.83606548  1
  Ni  Ni51  1  0.83333328  0.83509776  0.50276327  1
  Fe  Fe52  1  0.67026045  0.66857833  0.66712669  1
  Fe  Fe53  1  0.83632915  0.83439837  0.83383828  1
" 