4788,Ni45Fe31Cr22_16,-232.349078703915, 197.990965370723,Ni45Fe31Cr22,"# generated using pymatgen
 data_Cr13Fe17Ni24
_symmetry_space_group_name_H-M   'P 1'
_cell_length_a   7.45175591
_cell_length_b   7.45175591
_cell_length_c   10.53837427
_cell_angle_alpha   90.00000000
_cell_angle_beta   90.00000000
_cell_angle_gamma   90.00000000
_symmetry_Int_Tables_number   1
_chemical_formula_structural   Cr13Fe17Ni24
_chemical_formula_sum   'Cr13 Fe17 Ni24'
_cell_volume   585.18186596
_cell_formula_units_Z   1
loop_
 _symmetry_equiv_pos_site_id
 _symmetry_equiv_pos_as_xyz
  1  'x, y, z'
loop_
 _atom_site_type_symbol
 _atom_site_label
 _atom_site_symmetry_multiplicity
 _atom_site_fract_x
 _atom_site_fract_y
 _atom_site_fract_z
 _atom_site_occupancy
  Cr  Cr0  1  0.99946722  0.00147830  0.99836102  1
  Cr  Cr1  1  0.17087191  0.16712627  0.17093459  1
  Ni  Ni2  1  0.99989724  1.00067422  0.33509718  1
  Cr  Cr3  1  1.00018516  0.33436664  0.00384129  1
  Fe  Fe4  1  0.17171163  0.50323801  0.16910150  1
  Cr  Cr5  1  0.00147130  0.33592431  0.33487232  1
  Fe  Fe6  1  1.00090753  0.66859456  0.00137831  1
  Cr  Cr7  1  0.17006152  0.83421497  0.16795583  1
  Ni  Ni8  1  0.99893078  0.66824987  0.33546024  1
  Ni  Ni9  1  0.33600075  0.00242209  0.99653403  1
  Fe  Fe10  1  0.50118543  0.16719286  0.16786182  1
  Ni  Ni11  1  0.33586112  0.00239691  0.33850086  1
  Ni  Ni12  1  0.33619631  0.33486448  0.00136577  1
  Ni  Ni13  1  0.50162557  0.49912121  0.16636928  1
  Ni  Ni14  1  0.33766343  0.33533680  0.33581679  1
  Ni  Ni15  1  0.33755919  0.66606757  1.00090960  1
  Cr  Cr16  1  0.50033313  0.83286150  0.16954976  1
  Ni  Ni17  1  0.33714264  0.66546102  0.33561957  1
  Ni  Ni18  1  0.66693981  1.00079869  1.00041550  1
  Fe  Fe19  1  0.82962067  0.16822166  0.16909357  1
  Fe  Fe20  1  0.66587739  0.00106119  0.33538538  1
  Fe  Fe21  1  0.66413239  0.33324552  0.00214663  1
  Fe  Fe22  1  0.83103992  0.50290225  0.16935010  1
  Ni  Ni23  1  0.66497601  0.33676939  0.33304261  1
  Ni  Ni24  1  0.66721475  0.66694480  1.00017096  1
  Cr  Cr25  1  0.83247999  0.83461457  0.16965597  1
  Ni  Ni26  1  0.66690039  0.66627984  0.33788422  1
  Ni  Ni27  1  0.16874364  0.16746154  0.50147193  1
  Ni  Ni28  1  0.99850111  0.00148639  0.67003218  1
  Fe  Fe29  1  0.16795982  0.16742880  0.83225936  1
  Ni  Ni30  1  0.16937069  0.50053586  0.49881904  1
  Ni  Ni31  1  1.00022553  0.33180667  0.66546867  1
  Cr  Cr32  1  0.16969404  0.50173256  0.83489988  1
  Cr  Cr33  1  0.16720295  0.83499239  0.49967567  1
  Fe  Fe34  1  0.00209441  0.66705610  0.66501411  1
  Fe  Fe35  1  0.16704580  0.83328770  0.83261503  1
  Fe  Fe36  1  0.50129489  0.16861790  0.49941812  1
  Fe  Fe37  1  0.33270498  0.00125012  0.66734912  1
  Fe  Fe38  1  0.50370524  0.16935091  0.83509445  1
  Ni  Ni39  1  0.50223541  0.50156763  0.50090380  1
  Cr  Cr40  1  0.33493155  0.33587112  0.66529996  1
  Ni  Ni41  1  0.50108613  0.49970511  0.83541091  1
  Fe  Fe42  1  0.50197250  0.83321821  0.50103264  1
  Ni  Ni43  1  0.33836864  0.66748294  0.66596534  1
  Cr  Cr44  1  0.50063723  0.83225401  0.83453299  1
  Cr  Cr45  1  0.83461904  0.16720837  0.49967017  1
  Fe  Fe46  1  0.66789966  0.00116551  0.66874341  1
  Ni  Ni47  1  0.83287238  0.16694950  0.83387436  1
  Ni  Ni48  1  0.83244316  0.50227209  0.50181539  1
  Fe  Fe49  1  0.66764643  0.33428472  0.66605901  1
  Cr  Cr50  1  0.83123391  0.50024420  0.83234691  1
  Ni  Ni51  1  0.83219147  0.83423626  0.50136299  1
  Fe  Fe52  1  0.66846766  0.66763487  0.66608404  1
  Ni  Ni53  1  0.83400506  0.83587555  0.83351233  1
" 