1468,Ni45Fe31Cr22_18,-231.81711611901, 194.490605912173,Ni45Fe31Cr22,"# generated using pymatgen
 data_Cr13Fe17Ni24
_symmetry_space_group_name_H-M   'P 1'
_cell_length_a   7.45491463
_cell_length_b   7.45491463
_cell_length_c   10.54284138
_cell_angle_alpha   90.00000000
_cell_angle_beta   90.00000000
_cell_angle_gamma   90.00000000
_symmetry_Int_Tables_number   1
_chemical_formula_structural   Cr13Fe17Ni24
_chemical_formula_sum   'Cr13 Fe17 Ni24'
_cell_volume   585.92633934
_cell_formula_units_Z   1
loop_
 _symmetry_equiv_pos_site_id
 _symmetry_equiv_pos_as_xyz
  1  'x, y, z'
loop_
 _atom_site_type_symbol
 _atom_site_label
 _atom_site_symmetry_multiplicity
 _atom_site_fract_x
 _atom_site_fract_y
 _atom_site_fract_z
 _atom_site_occupancy
  Ni  Ni0  1  0.00144452  0.99997813  0.00130228  1
  Fe  Fe1  1  0.16905302  0.16653005  0.16590455  1
  Cr  Cr2  1  1.00016810  1.00030941  0.33115836  1
  Fe  Fe3  1  0.99937299  0.33305373  0.99929056  1
  Cr  Cr4  1  0.16680933  0.50062844  0.16621296  1
  Cr  Cr5  1  0.00192376  0.33326759  0.33418456  1
  Ni  Ni6  1  0.00097670  0.66897853  0.99926337  1
  Fe  Fe7  1  0.16752776  0.83363199  0.16504389  1
  Cr  Cr8  1  0.00172968  0.66868145  0.33630068  1
  Fe  Fe9  1  0.33137665  0.00252825  1.00031946  1
  Ni  Ni10  1  0.49794003  0.16656194  0.16743265  1
  Fe  Fe11  1  0.33272673  0.00196415  0.33426072  1
  Fe  Fe12  1  0.33318576  0.33131083  0.99886856  1
  Cr  Cr13  1  0.50031104  0.50083827  0.16566135  1
  Ni  Ni14  1  0.33473554  0.33457954  0.33434432  1
  Fe  Fe15  1  0.33183127  0.66832902  0.99882432  1
  Cr  Cr16  1  0.50065054  0.83416331  0.16870629  1
  Ni  Ni17  1  0.33473643  0.66769312  0.33587478  1
  Cr  Cr18  1  0.66987710  0.00379860  0.99936689  1
  Fe  Fe19  1  0.83324627  0.16844700  0.16504809  1
  Fe  Fe20  1  0.66683008  0.99924986  0.33429119  1
  Fe  Fe21  1  0.66957086  0.33450546  0.99938707  1
  Ni  Ni22  1  0.83509681  0.50319874  0.16562765  1
  Cr  Cr23  1  0.66727261  0.33408679  0.33323249  1
  Fe  Fe24  1  0.67180010  0.66693433  0.99956974  1
  Ni  Ni25  1  0.83445009  0.83301825  0.16674104  1
  Fe  Fe26  1  0.66832071  0.66779014  0.33580523  1
  Ni  Ni27  1  0.16909739  0.16792357  0.50154410  1
  Ni  Ni28  1  0.00144099  0.99956163  0.66933500  1
  Ni  Ni29  1  0.16686247  0.16742157  0.83377747  1
  Ni  Ni30  1  0.16850050  0.49931729  0.50124549  1
  Fe  Fe31  1  0.00163216  0.33481833  0.66830272  1
  Ni  Ni32  1  0.16625718  0.49999117  0.83469072  1
  Fe  Fe33  1  0.16710397  0.83516842  0.50262383  1
  Fe  Fe34  1  1.00020565  0.66694333  0.66853505  1
  Ni  Ni35  1  0.16459009  0.83498360  0.83518029  1
  Cr  Cr36  1  0.49937435  0.16668261  0.50254616  1
  Fe  Fe37  1  0.33274038  0.00265387  0.66912101  1
  Ni  Ni38  1  0.49994347  0.16917186  0.83279527  1
  Ni  Ni39  1  0.49935094  0.50081730  0.49891349  1
  Ni  Ni40  1  0.33401075  0.33505138  0.66816974  1
  Ni  Ni41  1  0.50027212  0.49802088  0.83704229  1
  Fe  Fe42  1  0.50122538  0.83345151  0.49994476  1
  Cr  Cr43  1  0.33161765  0.66432479  0.66813437  1
  Cr  Cr44  1  0.50116512  0.83596659  0.83421680  1
  Cr  Cr45  1  0.83519354  0.16662778  0.50394178  1
  Ni  Ni46  1  0.67034352  0.00172222  0.66851790  1
  Ni  Ni47  1  0.83558780  0.16738925  0.83312374  1
  Ni  Ni48  1  0.83473938  0.50279754  0.50208169  1
  Ni  Ni49  1  0.66570675  0.33450157  0.67019401  1
  Ni  Ni50  1  0.83585206  0.50037208  0.83490461  1
  Ni  Ni51  1  0.83339280  0.83416893  0.50156577  1
  Cr  Cr52  1  0.66758760  0.66547106  0.66771898  1
  Ni  Ni53  1  0.83718436  0.83456584  0.83375276  1
" 