3530,Ni45Fe31Cr22_6,-231.177703988508, 192.604607125839,Ni45Fe31Cr22,"# generated using pymatgen
 data_Cr13Fe17Ni24
_symmetry_space_group_name_H-M   'P 1'
_cell_length_a   7.44855847
_cell_length_b   7.44855847
_cell_length_c   10.53385240
_cell_angle_alpha   90.00000000
_cell_angle_beta   90.00000000
_cell_angle_gamma   90.00000000
_symmetry_Int_Tables_number   1
_chemical_formula_structural   Cr13Fe17Ni24
_chemical_formula_sum   'Cr13 Fe17 Ni24'
_cell_volume   584.42890991
_cell_formula_units_Z   1
loop_
 _symmetry_equiv_pos_site_id
 _symmetry_equiv_pos_as_xyz
  1  'x, y, z'
loop_
 _atom_site_type_symbol
 _atom_site_label
 _atom_site_symmetry_multiplicity
 _atom_site_fract_x
 _atom_site_fract_y
 _atom_site_fract_z
 _atom_site_occupancy
  Cr  Cr0  1  0.99940073  0.00288807  0.99985725  1
  Ni  Ni1  1  0.16726030  0.16810096  0.16701104  1
  Ni  Ni2  1  0.99981759  0.00209106  0.33422742  1
  Ni  Ni3  1  1.00011138  0.33434866  0.00152703  1
  Fe  Fe4  1  0.16581290  0.50004502  0.16680417  1
  Ni  Ni5  1  0.99791201  0.33524223  0.33285966  1
  Cr  Cr6  1  0.00298349  0.66633038  1.00067894  1
  Ni  Ni7  1  0.16701502  0.83594635  0.16854681  1
  Ni  Ni8  1  0.00139068  0.66632542  0.33460834  1
  Fe  Fe9  1  0.33153319  0.99987399  1.00081854  1
  Cr  Cr10  1  0.50057514  0.16906298  0.16706652  1
  Cr  Cr11  1  0.33510482  0.99903655  0.33507261  1
  Ni  Ni12  1  0.33239652  0.33661597  1.00008902  1
  Cr  Cr13  1  0.50344946  0.50076421  0.16561595  1
  Cr  Cr14  1  0.33350537  0.33611543  0.33784591  1
  Ni  Ni15  1  0.33617570  0.66917753  1.00073851  1
  Fe  Fe16  1  0.50098479  0.83438359  0.16628127  1
  Cr  Cr17  1  0.33348541  0.66864937  0.33491149  1
  Fe  Fe18  1  0.66748720  0.99993801  0.99936844  1
  Fe  Fe19  1  0.83601497  0.17001060  0.16929689  1
  Fe  Fe20  1  0.66900882  0.00229258  0.33681480  1
  Fe  Fe21  1  0.67095834  0.33659126  0.99968305  1
  Ni  Ni22  1  0.83422613  0.50056949  0.16926854  1
  Fe  Fe23  1  0.67046080  0.33515475  0.33657911  1
  Fe  Fe24  1  0.66891543  0.66718130  0.99927090  1
  Cr  Cr25  1  0.83491924  0.83243426  0.17066380  1
  Fe  Fe26  1  0.66875036  0.66617657  0.33598152  1
  Cr  Cr27  1  0.16601462  0.16560757  0.50330750  1
  Fe  Fe28  1  0.00169249  0.00194471  0.66937085  1
  Ni  Ni29  1  0.16778377  0.16804199  0.83436421  1
  Fe  Fe30  1  0.16479830  0.50350349  0.50275885  1
  Ni  Ni31  1  0.99927951  0.33592234  0.66960362  1
  Ni  Ni32  1  0.16818837  0.50091335  0.83509802  1
  Ni  Ni33  1  0.16684483  0.83333019  0.50243023  1
  Fe  Fe34  1  0.00278089  0.66716388  0.66949880  1
  Ni  Ni35  1  0.16737476  0.83488557  0.83250258  1
  Ni  Ni36  1  0.50363235  0.16724229  0.50108315  1
  Ni  Ni37  1  0.33656801  0.99700303  0.66788724  1
  Cr  Cr38  1  0.49823225  0.16894551  0.83527340  1
  Ni  Ni39  1  0.50375220  0.50281829  0.50153320  1
  Cr  Cr40  1  0.33399433  0.33744741  0.66647882  1
  Ni  Ni41  1  0.50147482  0.50271636  0.83603822  1
  Ni  Ni42  1  0.50223767  0.83347815  0.50248148  1
  Ni  Ni43  1  0.33454367  0.66978694  0.66762592  1
  Fe  Fe44  1  0.50014213  0.83223494  0.83342968  1
  Ni  Ni45  1  0.83483469  0.16806833  0.50004209  1
  Ni  Ni46  1  0.66837737  0.99977373  0.66748201  1
  Fe  Fe47  1  0.83662248  0.16889554  0.83297394  1
  Fe  Fe48  1  0.83619605  0.50027319  0.50020464  1
  Cr  Cr49  1  0.67031563  0.33388953  0.66674412  1
  Ni  Ni50  1  0.83421304  0.50311138  0.83433099  1
  Cr  Cr51  1  0.83776104  0.83344970  0.50185156  1
  Fe  Fe52  1  0.66589334  0.66781552  0.66893638  1
  Ni  Ni53  1  0.83381619  0.83341106  0.83220156  1
" 