4965,Ni45Fe31Cr22_3,-231.845996244999, 196.764479427994,Ni45Fe31Cr22,"# generated using pymatgen
 data_Cr13Fe17Ni24
_symmetry_space_group_name_H-M   'P 1'
_cell_length_a   7.44894568
_cell_length_b   7.44894568
_cell_length_c   10.53440000
_cell_angle_alpha   90.00000000
_cell_angle_beta   90.00000000
_cell_angle_gamma   90.00000000
_symmetry_Int_Tables_number   1
_chemical_formula_structural   Cr13Fe17Ni24
_chemical_formula_sum   'Cr13 Fe17 Ni24'
_cell_volume   584.52005821
_cell_formula_units_Z   1
loop_
 _symmetry_equiv_pos_site_id
 _symmetry_equiv_pos_as_xyz
  1  'x, y, z'
loop_
 _atom_site_type_symbol
 _atom_site_label
 _atom_site_symmetry_multiplicity
 _atom_site_fract_x
 _atom_site_fract_y
 _atom_site_fract_z
 _atom_site_occupancy
  Fe  Fe0  1  0.99793465  0.00263113  0.99975471  1
  Cr  Cr1  1  0.16689420  0.16805574  0.16616612  1
  Fe  Fe2  1  0.99928585  0.00148523  0.33598700  1
  Ni  Ni3  1  1.00043970  0.33459172  0.99986829  1
  Cr  Cr4  1  0.16874598  0.50099250  0.16930806  1
  Fe  Fe5  1  0.99859495  0.33381500  0.33559576  1
  Cr  Cr6  1  0.99821500  0.66516504  1.00097486  1
  Cr  Cr7  1  0.16591646  0.83478974  0.16565139  1
  Fe  Fe8  1  0.99843560  0.66815488  0.33642231  1
  Ni  Ni9  1  0.33717535  1.00089067  1.00084789  1
  Ni  Ni10  1  0.50237598  0.16947704  0.16773844  1
  Cr  Cr11  1  0.33457417  0.00195176  0.33476232  1
  Fe  Fe12  1  0.33529860  0.33466707  0.99964761  1
  Ni  Ni13  1  0.50146428  0.50138768  0.16726737  1
  Ni  Ni14  1  0.33391689  0.33438371  0.33338982  1
  Ni  Ni15  1  0.33524285  0.66917635  0.99851744  1
  Ni  Ni16  1  0.50305141  0.83309214  0.16595159  1
  Cr  Cr17  1  0.33496752  0.66899888  0.33683076  1
  Ni  Ni18  1  0.66692466  1.00095830  0.00176679  1
  Ni  Ni19  1  0.83395545  0.16669741  0.16771835  1
  Cr  Cr20  1  0.66835259  1.00070261  0.33378504  1
  Cr  Cr21  1  0.67119017  0.33371303  1.00110511  1
  Fe  Fe22  1  0.83318425  0.50058936  0.16890789  1
  Ni  Ni23  1  0.67016147  0.33556613  0.33320991  1
  Fe  Fe24  1  0.66741192  0.66940935  0.00130957  1
  Ni  Ni25  1  0.83314658  0.83543136  0.16835075  1
  Ni  Ni26  1  0.67084538  0.66660551  0.33185347  1
  Fe  Fe27  1  0.16432586  0.16937504  0.50024291  1
  Fe  Fe28  1  0.99874858  0.00151230  0.66743374  1
  Fe  Fe29  1  0.16502108  0.16848649  0.83669447  1
  Fe  Fe30  1  0.16474203  0.50005142  0.50162860  1
  Ni  Ni31  1  0.99913947  0.33641636  0.66809606  1
  Ni  Ni32  1  0.16788089  0.50284279  0.83337691  1
  Ni  Ni33  1  0.16451138  0.83319342  0.50297784  1
  Ni  Ni34  1  0.00193288  0.66685489  0.66715227  1
  Fe  Fe35  1  0.16641567  0.83475158  0.83429296  1
  Cr  Cr36  1  0.50530522  0.17039702  0.50069324  1
  Cr  Cr37  1  0.33513617  0.99977810  0.66711023  1
  Ni  Ni38  1  0.50249965  0.16685895  0.83503532  1
  Cr  Cr39  1  0.50326907  0.50022063  0.50216266  1
  Cr  Cr40  1  0.33220638  0.33385145  0.67028136  1
  Fe  Fe41  1  0.50309763  0.50094328  0.83554186  1
  Fe  Fe42  1  0.50441547  0.83344817  0.50143821  1
  Fe  Fe43  1  0.33273266  0.66778133  0.66891745  1
  Fe  Fe44  1  0.50349688  0.83544827  0.83666795  1
  Ni  Ni45  1  0.83569454  0.16860048  0.50334197  1
  Ni  Ni46  1  0.66840132  0.00179669  0.66831672  1
  Ni  Ni47  1  0.83355176  0.16665109  0.83272776  1
  Ni  Ni48  1  0.83542771  0.50025488  0.50037575  1
  Ni  Ni49  1  0.67177218  0.33308576  0.66937780  1
  Ni  Ni50  1  0.83686429  0.50084467  0.83355123  1
  Fe  Fe51  1  0.83528642  0.83403677  0.50159392  1
  Cr  Cr52  1  0.67076685  0.66827675  0.66993712  1
  Ni  Ni53  1  0.83526968  0.83647567  0.83395869  1
" 