8333,Ni45Fe31Cr22_4,-231.47824964818, 196.20030103175,Ni45Fe31Cr22,"# generated using pymatgen
 data_Cr13Fe17Ni24
_symmetry_space_group_name_H-M   'P 1'
_cell_length_a   7.44561072
_cell_length_b   7.44561072
_cell_length_c   10.52968366
_cell_angle_alpha   90.00000000
_cell_angle_beta   90.00000000
_cell_angle_gamma   90.00000000
_symmetry_Int_Tables_number   1
_chemical_formula_structural   Cr13Fe17Ni24
_chemical_formula_sum   'Cr13 Fe17 Ni24'
_cell_volume   583.73532566
_cell_formula_units_Z   1
loop_
 _symmetry_equiv_pos_site_id
 _symmetry_equiv_pos_as_xyz
  1  'x, y, z'
loop_
 _atom_site_type_symbol
 _atom_site_label
 _atom_site_symmetry_multiplicity
 _atom_site_fract_x
 _atom_site_fract_y
 _atom_site_fract_z
 _atom_site_occupancy
  Fe  Fe0  1  0.00309889  0.00213520  0.00247043  1
  Ni  Ni1  1  0.16722926  0.16961683  0.16746629  1
  Fe  Fe2  1  0.00290048  0.00534822  0.33528342  1
  Fe  Fe3  1  0.00238379  0.33441418  0.00346827  1
  Ni  Ni4  1  0.17084802  0.49988889  0.16728873  1
  Ni  Ni5  1  1.00091707  0.33538229  0.33451873  1
  Cr  Cr6  1  0.00257982  0.66510335  1.00108069  1
  Fe  Fe7  1  0.16951084  0.83816647  0.16809134  1
  Cr  Cr8  1  0.00240169  0.66487103  0.33531017  1
  Ni  Ni9  1  0.33627636  0.00371870  0.00155166  1
  Ni  Ni10  1  0.50197894  0.16878227  0.16692937  1
  Ni  Ni11  1  0.33551054  0.00342445  0.33480355  1
  Ni  Ni12  1  0.33474045  0.33403463  1.00119802  1
  Fe  Fe13  1  0.50228276  0.49927184  0.16662325  1
  Cr  Cr14  1  0.33361173  0.33125968  0.33515275  1
  Fe  Fe15  1  0.33648183  0.66723707  0.99980853  1
  Cr  Cr16  1  0.50102609  0.83253673  0.16904154  1
  Fe  Fe17  1  0.33339468  0.66831493  0.33446323  1
  Ni  Ni18  1  0.66471069  0.00245071  1.00141798  1
  Ni  Ni19  1  0.83515555  0.16919536  0.16836983  1
  Ni  Ni20  1  0.66577103  0.00463460  0.33513683  1
  Fe  Fe21  1  0.66583231  0.33486597  1.00133735  1
  Fe  Fe22  1  0.83323065  0.49814023  0.16881489  1
  Fe  Fe23  1  0.66994373  0.33232749  0.33508544  1
  Ni  Ni24  1  0.66870495  0.66658438  0.99935669  1
  Cr  Cr25  1  0.83362555  0.83794260  0.16915333  1
  Ni  Ni26  1  0.66989231  0.66621983  0.33479607  1
  Fe  Fe27  1  0.16719722  0.16738871  0.50200827  1
  Ni  Ni28  1  0.00455907  0.00228098  0.66598920  1
  Cr  Cr29  1  0.16725511  0.16886356  0.83382635  1
  Fe  Fe30  1  0.16752787  0.49984593  0.50229097  1
  Ni  Ni31  1  1.00071611  0.33625029  0.66670248  1
  Ni  Ni32  1  0.17189076  0.50050415  0.83399710  1
  Ni  Ni33  1  0.16987964  0.83657553  0.50060814  1
  Cr  Cr34  1  0.00254577  0.66640437  0.66808977  1
  Ni  Ni35  1  0.17063705  0.83500484  0.83597214  1
  Ni  Ni36  1  0.50156694  0.16898568  0.50249347  1
  Ni  Ni37  1  0.33415867  1.00104831  0.66816617  1
  Fe  Fe38  1  0.49955029  0.16989469  0.83551746  1
  Cr  Cr39  1  0.50100999  0.50126019  0.50060669  1
  Fe  Fe40  1  0.33542551  0.33462188  0.66866073  1
  Ni  Ni41  1  0.50058952  0.50187113  0.83507971  1
  Cr  Cr42  1  0.49940971  0.83356162  0.50091077  1
  Ni  Ni43  1  0.33273788  0.66892869  0.66975157  1
  Fe  Fe44  1  0.49800641  0.83395435  0.83606528  1
  Ni  Ni45  1  0.83638326  0.17063579  0.50019229  1
  Cr  Cr46  1  0.66418976  0.00434179  0.66834029  1
  Cr  Cr47  1  0.83609188  0.16899339  0.83623663  1
  Ni  Ni48  1  0.83374546  0.49755797  0.50204656  1
  Ni  Ni49  1  0.66808863  0.33494009  0.66822060  1
  Fe  Fe50  1  0.83448206  0.49963187  0.83369623  1
  Cr  Cr51  1  0.83498923  0.83647815  0.50111362  1
  Fe  Fe52  1  0.66663550  0.66527237  0.66938024  1
  Cr  Cr53  1  0.83442725  0.83677231  0.83375542  1
" 