4787,Ni45Fe31Cr22_15,-231.699924758549, 198.985141549044,Ni45Fe31Cr22,"# generated using pymatgen
 data_Cr13Fe17Ni24
_symmetry_space_group_name_H-M   'P 1'
_cell_length_a   7.44325571
_cell_length_b   7.44325571
_cell_length_c   10.52635317
_cell_angle_alpha   90.00000000
_cell_angle_beta   90.00000000
_cell_angle_gamma   90.00000000
_symmetry_Int_Tables_number   1
_chemical_formula_structural   Cr13Fe17Ni24
_chemical_formula_sum   'Cr13 Fe17 Ni24'
_cell_volume   583.18160314
_cell_formula_units_Z   1
loop_
 _symmetry_equiv_pos_site_id
 _symmetry_equiv_pos_as_xyz
  1  'x, y, z'
loop_
 _atom_site_type_symbol
 _atom_site_label
 _atom_site_symmetry_multiplicity
 _atom_site_fract_x
 _atom_site_fract_y
 _atom_site_fract_z
 _atom_site_occupancy
  Cr  Cr0  1  0.00469837  0.00230336  1.00038745  1
  Ni  Ni1  1  0.16979871  0.16809291  0.16902634  1
  Fe  Fe2  1  1.00157906  1.00146929  0.33366950  1
  Ni  Ni3  1  0.99955972  0.33400499  0.00304106  1
  Fe  Fe4  1  0.16599338  0.49917014  0.17091619  1
  Fe  Fe5  1  1.00052060  0.33394246  0.33214373  1
  Cr  Cr6  1  0.99978991  0.66484437  0.00251727  1
  Fe  Fe7  1  0.16828444  0.83481102  0.16829804  1
  Ni  Ni8  1  1.00100800  0.67121736  0.33241209  1
  Ni  Ni9  1  0.33742155  0.00286012  0.00430754  1
  Fe  Fe10  1  0.50307293  0.17121668  0.16786962  1
  Fe  Fe11  1  0.33424644  1.00145570  0.33339137  1
  Fe  Fe12  1  0.33616878  0.33465675  0.00526119  1
  Ni  Ni13  1  0.50030588  0.50324033  0.16959966  1
  Ni  Ni14  1  0.33633433  0.33305814  0.33332240  1
  Fe  Fe15  1  0.33622217  0.66699799  0.00464254  1
  Fe  Fe16  1  0.50260263  0.83431739  0.16671355  1
  Ni  Ni17  1  0.33423171  0.66965178  0.33262031  1
  Fe  Fe18  1  0.66871115  0.00437914  0.00472757  1
  Ni  Ni19  1  0.83721749  0.16910467  0.16824124  1
  Cr  Cr20  1  0.66710859  0.00400354  0.33306101  1
  Ni  Ni21  1  0.66719975  0.33613005  0.00229089  1
  Ni  Ni22  1  0.83110946  0.50139000  0.17033313  1
  Ni  Ni23  1  0.66707012  0.33519627  0.33378182  1
  Ni  Ni24  1  0.66617696  0.66423546  0.00344939  1
  Ni  Ni25  1  0.83348095  0.83438214  0.16752418  1
  Ni  Ni26  1  0.66838280  0.66914853  0.33385127  1
  Ni  Ni27  1  0.16886757  0.16634704  0.49813786  1
  Cr  Cr28  1  0.00214805  0.00184136  0.66854460  1
  Fe  Fe29  1  0.17060929  0.16852237  0.83772662  1
  Cr  Cr30  1  0.17068944  0.49938498  0.49724047  1
  Cr  Cr31  1  0.99915636  0.33389823  0.66940213  1
  Cr  Cr32  1  0.17286775  0.49955021  0.83726835  1
  Fe  Fe33  1  0.16761862  0.83522783  0.49830395  1
  Cr  Cr34  1  0.00319076  0.66852479  0.67025135  1
  Ni  Ni35  1  0.17279214  0.83548214  0.83671309  1
  Ni  Ni36  1  0.50069588  0.16835982  0.50022639  1
  Cr  Cr37  1  0.33584742  0.00172561  0.66536917  1
  Fe  Fe38  1  0.50235217  0.16991665  0.83613741  1
  Cr  Cr39  1  0.50152580  0.50179593  0.50213437  1
  Fe  Fe40  1  0.33585554  0.33237825  0.66712200  1
  Ni  Ni41  1  0.50211172  0.49965217  0.83394356  1
  Fe  Fe42  1  0.50294893  0.83620757  0.50028758  1
  Fe  Fe43  1  0.33727786  0.66843085  0.66796336  1
  Cr  Cr44  1  0.50212289  0.83426103  0.83785592  1
  Ni  Ni45  1  0.83454416  0.16550661  0.49989571  1
  Ni  Ni46  1  0.66656809  0.00575817  0.66742755  1
  Ni  Ni47  1  0.83279670  0.17084459  0.83655752  1
  Cr  Cr48  1  0.83353254  0.50190979  0.49877848  1
  Ni  Ni49  1  0.66560241  0.33298816  0.66878638  1
  Ni  Ni50  1  0.83125059  0.49849757  0.83622139  1
  Ni  Ni51  1  0.83383100  0.83723027  0.50143387  1
  Fe  Fe52  1  0.66842477  0.66903982  0.66885326  1
  Cr  Cr53  1  0.83277947  0.83774141  0.83632116  1
" 