1023,Ni45Fe31Cr22_10,-231.686218751556, 195.808671251022,Ni45Fe31Cr22,"# generated using pymatgen
 data_Cr13Fe17Ni24
_symmetry_space_group_name_H-M   'P 1'
_cell_length_a   7.44453899
_cell_length_b   7.44453899
_cell_length_c   10.52816800
_cell_angle_alpha   90.00000000
_cell_angle_beta   90.00000000
_cell_angle_gamma   90.00000000
_symmetry_Int_Tables_number   1
_chemical_formula_structural   Cr13Fe17Ni24
_chemical_formula_sum   'Cr13 Fe17 Ni24'
_cell_volume   583.48329070
_cell_formula_units_Z   1
loop_
 _symmetry_equiv_pos_site_id
 _symmetry_equiv_pos_as_xyz
  1  'x, y, z'
loop_
 _atom_site_type_symbol
 _atom_site_label
 _atom_site_symmetry_multiplicity
 _atom_site_fract_x
 _atom_site_fract_y
 _atom_site_fract_z
 _atom_site_occupancy
  Fe  Fe0  1  0.00217441  0.00390450  0.99962263  1
  Ni  Ni1  1  0.16951309  0.17059760  0.16779243  1
  Cr  Cr2  1  1.00128531  0.00211684  0.33767656  1
  Ni  Ni3  1  0.00323166  0.33392648  0.00252944  1
  Fe  Fe4  1  0.16719552  0.49755299  0.16727626  1
  Fe  Fe5  1  0.00349180  0.33632603  0.33562879  1
  Cr  Cr6  1  0.00277325  0.66690475  0.00184573  1
  Cr  Cr7  1  0.17043123  0.83627702  0.16688485  1
  Fe  Fe8  1  0.99967180  0.66587326  0.33667764  1
  Ni  Ni9  1  0.33496872  0.00219895  0.00158172  1
  Cr  Cr10  1  0.49857419  0.16618627  0.16795289  1
  Ni  Ni11  1  0.33629462  0.00292724  0.33654706  1
  Ni  Ni12  1  0.33306607  0.33467471  1.00007637  1
  Cr  Cr13  1  0.50153939  0.50240219  0.16514008  1
  Ni  Ni14  1  0.33132806  0.33316198  0.33610575  1
  Ni  Ni15  1  0.33504552  0.66766460  1.00002280  1
  Fe  Fe16  1  0.50196890  0.83632069  0.16770860  1
  Cr  Cr17  1  0.33469872  0.66819517  0.33559020  1
  Ni  Ni18  1  0.66781033  1.00145156  1.00106515  1
  Cr  Cr19  1  0.83587748  0.16914236  0.16607344  1
  Ni  Ni20  1  0.66634671  0.99874449  0.33690879  1
  Ni  Ni21  1  0.66823900  0.33399699  0.99886432  1
  Fe  Fe22  1  0.83609766  0.50087740  0.16815110  1
  Cr  Cr23  1  0.66856023  0.33417111  0.33757631  1
  Ni  Ni24  1  0.66712732  0.66910847  1.00139731  1
  Cr  Cr25  1  0.83153807  0.83325217  0.16859154  1
  Ni  Ni26  1  0.67033107  0.67050497  0.33672404  1
  Fe  Fe27  1  0.16882921  0.16890175  0.50163782  1
  Fe  Fe28  1  0.00205803  0.00406926  0.66774726  1
  Fe  Fe29  1  0.16883644  0.16948367  0.83558382  1
  Fe  Fe30  1  0.16789368  0.49935295  0.50238114  1
  Ni  Ni31  1  0.00246749  0.33384042  0.66665830  1
  Ni  Ni32  1  0.17124486  0.49953152  0.83591656  1
  Fe  Fe33  1  0.16870907  0.83633724  0.50188227  1
  Cr  Cr34  1  0.00223838  0.66936736  0.66729439  1
  Fe  Fe35  1  0.16904069  0.83544232  0.83544585  1
  Ni  Ni36  1  0.49936777  0.16763788  0.50042400  1
  Fe  Fe37  1  0.33352414  0.00379609  0.66716943  1
  Ni  Ni38  1  0.49992407  0.17085986  0.83636307  1
  Fe  Fe39  1  0.50312421  0.50109276  0.50320439  1
  Ni  Ni40  1  0.33511895  0.33529880  0.66830442  1
  Ni  Ni41  1  0.49912469  0.49929526  0.83405875  1
  Ni  Ni42  1  0.50159072  0.83555908  0.49935958  1
  Fe  Fe43  1  0.33587153  0.66588699  0.66814730  1
  Cr  Cr44  1  0.50147103  0.83355324  0.83752168  1
  Ni  Ni45  1  0.83542237  0.16923170  0.50268738  1
  Cr  Cr46  1  0.66918187  0.00301002  0.66655555  1
  Fe  Fe47  1  0.83458744  0.16861283  0.83540241  1
  Ni  Ni48  1  0.83568301  0.50187735  0.50014825  1
  Ni  Ni49  1  0.66696645  0.33450293  0.66768633  1
  Cr  Cr50  1  0.83292472  0.50039357  0.83558833  1
  Ni  Ni51  1  0.83383179  0.83341328  0.50020745  1
  Fe  Fe52  1  0.66720312  0.66569513  0.66646197  1
  Ni  Ni53  1  0.83621886  0.83713067  0.83578521  1
" 