2774,Ni45Fe31Cr22_9,-231.633610989416, 189.312195270584,Ni45Fe31Cr22,"# generated using pymatgen
 data_Cr13Fe17Ni24
_symmetry_space_group_name_H-M   'P 1'
_cell_length_a   7.45620665
_cell_length_b   7.45620665
_cell_length_c   10.54466856
_cell_angle_alpha   90.00000000
_cell_angle_beta   90.00000000
_cell_angle_gamma   90.00000000
_symmetry_Int_Tables_number   1
_chemical_formula_structural   Cr13Fe17Ni24
_chemical_formula_sum   'Cr13 Fe17 Ni24'
_cell_volume   586.23103362
_cell_formula_units_Z   1
loop_
 _symmetry_equiv_pos_site_id
 _symmetry_equiv_pos_as_xyz
  1  'x, y, z'
loop_
 _atom_site_type_symbol
 _atom_site_label
 _atom_site_symmetry_multiplicity
 _atom_site_fract_x
 _atom_site_fract_y
 _atom_site_fract_z
 _atom_site_occupancy
  Fe  Fe0  1  0.00152952  0.00147925  1.00029307  1
  Fe  Fe1  1  0.16640189  0.16984987  0.16681561  1
  Ni  Ni2  1  0.99896892  1.00041237  0.33535266  1
  Ni  Ni3  1  0.00254538  0.33404784  0.00164910  1
  Ni  Ni4  1  0.16819301  0.49834315  0.16807175  1
  Ni  Ni5  1  0.00275642  0.33538757  0.33482720  1
  Cr  Cr6  1  0.00141431  0.66725339  1.00023345  1
  Cr  Cr7  1  0.16695561  0.83413869  0.16677007  1
  Ni  Ni8  1  0.99875314  0.66638169  0.33550171  1
  Ni  Ni9  1  0.33525205  1.00027717  0.99867361  1
  Cr  Cr10  1  0.50019960  0.16779496  0.16692779  1
  Cr  Cr11  1  0.33499645  0.00169371  0.33536494  1
  Ni  Ni12  1  0.33336172  0.33455863  0.99967440  1
  Fe  Fe13  1  0.50029999  0.50203247  0.16607984  1
  Ni  Ni14  1  0.33063299  0.33405519  0.33420413  1
  Ni  Ni15  1  0.33519280  0.66734536  0.99979899  1
  Fe  Fe16  1  0.50360843  0.83285773  0.16599747  1
  Cr  Cr17  1  0.33327750  0.66672716  0.33350706  1
  Ni  Ni18  1  0.66586000  0.99937081  0.99994973  1
  Cr  Cr19  1  0.83555285  0.16660736  0.16623266  1
  Ni  Ni20  1  0.66884528  0.99779590  0.33604109  1
  Ni  Ni21  1  0.66627370  0.33398911  1.00034204  1
  Fe  Fe22  1  0.83488054  0.50217420  0.16795793  1
  Cr  Cr23  1  0.66845600  0.33375596  0.33483201  1
  Fe  Fe24  1  0.66492173  0.66820463  0.00101042  1
  Ni  Ni25  1  0.83229342  0.83381388  0.16883779  1
  Ni  Ni26  1  0.67017661  0.67011298  0.33318612  1
  Fe  Fe27  1  0.16597523  0.16823031  0.50080839  1
  Fe  Fe28  1  1.00041145  0.00088356  0.66643991  1
  Fe  Fe29  1  0.16836019  0.16670397  0.83455648  1
  Fe  Fe30  1  0.16467682  0.49887333  0.49917738  1
  Ni  Ni31  1  0.00292889  0.33319050  0.66570525  1
  Fe  Fe32  1  0.16897515  0.49971000  0.83562808  1
  Ni  Ni33  1  0.16700712  0.83561055  0.50063971  1
  Cr  Cr34  1  1.00037483  0.66746622  0.66633124  1
  Ni  Ni35  1  0.16956865  0.83592024  0.83508329  1
  Fe  Fe36  1  0.50085679  0.16489041  0.50088591  1
  Fe  Fe37  1  0.33455908  0.00077946  0.66767215  1
  Fe  Fe38  1  0.49939371  0.16526815  0.83564737  1
  Cr  Cr39  1  0.50124063  0.50136576  0.50052946  1
  Fe  Fe40  1  0.33261675  0.33250743  0.66791105  1
  Fe  Fe41  1  0.49968047  0.50204974  0.83558313  1
  Ni  Ni42  1  0.50168953  0.83583629  0.50073852  1
  Cr  Cr43  1  0.33376754  0.66896523  0.66848683  1
  Ni  Ni44  1  0.50005306  0.83436922  0.83534756  1
  Ni  Ni45  1  0.83565618  0.16717758  0.50053313  1
  Ni  Ni46  1  0.66606780  0.99899579  0.66619155  1
  Cr  Cr47  1  0.83456793  0.16632467  0.83562132  1
  Ni  Ni48  1  0.83588326  0.49967105  0.49924313  1
  Cr  Cr49  1  0.66782646  0.33250422  0.66672891  1
  Cr  Cr50  1  0.83285833  0.50023861  0.83481113  1
  Fe  Fe51  1  0.83270921  0.83447737  0.49953160  1
  Ni  Ni52  1  0.66739520  0.67106557  0.66796926  1
  Ni  Ni53  1  0.83255655  0.83572042  0.83332229  1
" 