2292,Ni45Fe31Cr22_1,-231.611626852465, 199.045100039944,Ni45Fe31Cr22,"# generated using pymatgen
 data_Cr13Fe17Ni24
_symmetry_space_group_name_H-M   'P 1'
_cell_length_a   7.44598229
_cell_length_b   7.44598229
_cell_length_c   10.53020914
_cell_angle_alpha   90.00000000
_cell_angle_beta   90.00000000
_cell_angle_gamma   90.00000000
_symmetry_Int_Tables_number   1
_chemical_formula_structural   Cr13Fe17Ni24
_chemical_formula_sum   'Cr13 Fe17 Ni24'
_cell_volume   583.82272301
_cell_formula_units_Z   1
loop_
 _symmetry_equiv_pos_site_id
 _symmetry_equiv_pos_as_xyz
  1  'x, y, z'
loop_
 _atom_site_type_symbol
 _atom_site_label
 _atom_site_symmetry_multiplicity
 _atom_site_fract_x
 _atom_site_fract_y
 _atom_site_fract_z
 _atom_site_occupancy
  Ni  Ni0  1  0.00142454  0.00157026  0.99979044  1
  Fe  Fe1  1  0.16902061  0.16423093  0.16461317  1
  Fe  Fe2  1  0.00570355  1.00131726  0.33272301  1
  Ni  Ni3  1  0.00275175  0.33536261  1.00117355  1
  Fe  Fe4  1  0.16959332  0.50471234  0.16486499  1
  Cr  Cr5  1  0.00308876  0.33607211  0.33262344  1
  Ni  Ni6  1  0.00293233  0.66739391  1.00011770  1
  Fe  Fe7  1  0.17134935  0.83527880  0.16647424  1
  Fe  Fe8  1  0.00463536  0.66861526  0.33361908  1
  Ni  Ni9  1  0.33652516  1.00066592  1.00057695  1
  Ni  Ni10  1  0.49943413  0.16578137  0.16716863  1
  Ni  Ni11  1  0.33549001  0.99887199  0.33541546  1
  Ni  Ni12  1  0.33312140  0.33471551  0.00174259  1
  Fe  Fe13  1  0.49959857  0.50487294  0.16638031  1
  Cr  Cr14  1  0.33197116  0.33461346  0.33160434  1
  Ni  Ni15  1  0.33419240  0.66913117  1.00034358  1
  Ni  Ni16  1  0.50021859  0.83558806  0.16962240  1
  Ni  Ni17  1  0.33272597  0.67052510  0.33527067  1
  Ni  Ni18  1  0.66655125  1.00028700  1.00068065  1
  Fe  Fe19  1  0.83455885  0.16533355  0.16577456  1
  Ni  Ni20  1  0.66667146  0.99973506  0.33322789  1
  Cr  Cr21  1  0.66729527  0.33236063  1.00017004  1
  Fe  Fe22  1  0.83487089  0.50262050  0.16590707  1
  Cr  Cr23  1  0.66887229  0.33320972  0.33256894  1
  Fe  Fe24  1  0.66666598  0.66965671  0.99964788  1
  Cr  Cr25  1  0.83641245  0.83420933  0.16676283  1
  Fe  Fe26  1  0.66578918  0.66842878  0.33364988  1
  Fe  Fe27  1  0.16682894  0.16549511  0.50262496  1
  Fe  Fe28  1  0.00551735  1.00111973  0.67035403  1
  Ni  Ni29  1  0.16729292  0.16768087  0.83612639  1
  Fe  Fe30  1  0.16687610  0.50372063  0.50187983  1
  Ni  Ni31  1  1.00099060  0.33457104  0.66883314  1
  Ni  Ni32  1  0.16821035  0.50163764  0.83633554  1
  Ni  Ni33  1  0.16969379  0.83534672  0.49959801  1
  Cr  Cr34  1  0.00408574  0.66717429  0.67006608  1
  Ni  Ni35  1  0.16929757  0.83478489  0.83731659  1
  Cr  Cr36  1  0.49965892  0.16649486  0.50295808  1
  Fe  Fe37  1  0.33098343  0.99824256  0.67003007  1
  Ni  Ni38  1  0.49980427  0.16774653  0.83591834  1
  Cr  Cr39  1  0.50171691  0.50257207  0.50178000  1
  Cr  Cr40  1  0.33119218  0.33579513  0.67088283  1
  Ni  Ni41  1  0.49942250  0.50231192  0.83668007  1
  Fe  Fe42  1  0.49995184  0.83436112  0.50064453  1
  Ni  Ni43  1  0.33339915  0.67067718  0.66848369  1
  Ni  Ni44  1  0.49753699  0.83447493  0.83628901  1
  Cr  Cr45  1  0.83532121  0.16801167  0.50275912  1
  Cr  Cr46  1  0.66699993  1.00089549  0.67223149  1
  Ni  Ni47  1  0.83725815  0.16921999  0.83527080  1
  Ni  Ni48  1  0.83636873  0.50228697  0.50049628  1
  Fe  Fe49  1  0.66978972  0.33710487  0.67160238  1
  Ni  Ni50  1  0.83656285  0.49992956  0.83583982  1
  Cr  Cr51  1  0.83710958  0.83455371  0.49896604  1
  Cr  Cr52  1  0.66701974  0.66995606  0.67123591  1
  Fe  Fe53  1  0.83603127  0.83505947  0.83866802  1
" 