6066,Ni45Fe31Cr22_12,-231.698007755437, 198.329798258313,Ni45Fe31Cr22,"# generated using pymatgen
 data_Cr13Fe17Ni24
_symmetry_space_group_name_H-M   'P 1'
_cell_length_a   7.44855977
_cell_length_b   7.44855977
_cell_length_c   10.53385425
_cell_angle_alpha   90.00000000
_cell_angle_beta   90.00000000
_cell_angle_gamma   90.00000000
_symmetry_Int_Tables_number   1
_chemical_formula_structural   Cr13Fe17Ni24
_chemical_formula_sum   'Cr13 Fe17 Ni24'
_cell_volume   584.42921683
_cell_formula_units_Z   1
loop_
 _symmetry_equiv_pos_site_id
 _symmetry_equiv_pos_as_xyz
  1  'x, y, z'
loop_
 _atom_site_type_symbol
 _atom_site_label
 _atom_site_symmetry_multiplicity
 _atom_site_fract_x
 _atom_site_fract_y
 _atom_site_fract_z
 _atom_site_occupancy
  Cr  Cr0  1  0.00140151  1.00082030  0.00178234  1
  Fe  Fe1  1  0.16558315  0.17182216  0.16842976  1
  Ni  Ni2  1  1.00028734  0.00304080  0.33521624  1
  Ni  Ni3  1  1.00031735  0.33644390  0.00179042  1
  Ni  Ni4  1  0.16760882  0.50041459  0.16688459  1
  Fe  Fe5  1  0.00161502  0.33692003  0.33459809  1
  Ni  Ni6  1  1.00113376  0.66590250  0.99939344  1
  Fe  Fe7  1  0.16594626  0.82931541  0.16936945  1
  Ni  Ni8  1  0.99984825  0.66700509  0.33501262  1
  Cr  Cr9  1  0.33423544  0.00353000  0.00313168  1
  Fe  Fe10  1  0.50385494  0.17243691  0.16790672  1
  Cr  Cr11  1  0.33252275  0.00395641  0.33294901  1
  Ni  Ni12  1  0.33552460  0.33538479  0.00327431  1
  Fe  Fe13  1  0.50220543  0.50052249  0.16825344  1
  Ni  Ni14  1  0.33526505  0.33637199  0.33411167  1
  Ni  Ni15  1  0.33247105  0.66604201  0.00172571  1
  Cr  Cr16  1  0.50204448  0.83201739  0.16852823  1
  Ni  Ni17  1  0.33514755  0.66470502  0.33574513  1
  Ni  Ni18  1  0.66817694  0.00384664  1.00017160  1
  Fe  Fe19  1  0.83396398  0.17074674  0.16833476  1
  Fe  Fe20  1  0.66881874  0.00186628  0.33550358  1
  Ni  Ni21  1  0.66810692  0.33450542  1.00109649  1
  Ni  Ni22  1  0.83622175  0.49962740  0.16671941  1
  Ni  Ni23  1  0.66794695  0.33724834  0.33474516  1
  Ni  Ni24  1  0.66975175  0.66577682  0.00180972  1
  Cr  Cr25  1  0.83354431  0.83320379  0.16895741  1
  Ni  Ni26  1  0.66874411  0.66430954  0.33668238  1
  Fe  Fe27  1  0.16734833  0.17158361  0.50133291  1
  Cr  Cr28  1  1.00030358  0.00150989  0.66717583  1
  Cr  Cr29  1  0.16715824  0.17217170  0.83289006  1
  Ni  Ni30  1  0.16788702  0.49942342  0.50168548  1
  Ni  Ni31  1  1.00058953  0.33492019  0.66604949  1
  Fe  Fe32  1  0.16700508  0.50013579  0.83558270  1
  Cr  Cr33  1  0.16973059  0.83313012  0.50008483  1
  Cr  Cr34  1  0.99881451  0.66541024  0.66949284  1
  Fe  Fe35  1  0.16820713  0.83254190  0.83443045  1
  Cr  Cr36  1  0.50268119  0.16810814  0.50372698  1
  Ni  Ni37  1  0.33562358  0.00257063  0.66821965  1
  Fe  Fe38  1  0.50298321  0.16960461  0.83387086  1
  Ni  Ni39  1  0.49977647  0.50200043  0.49937412  1
  Ni  Ni40  1  0.33486843  0.33442654  0.66662125  1
  Cr  Cr41  1  0.49954735  0.50017758  0.83592536  1
  Ni  Ni42  1  0.50187745  0.83392737  0.50135279  1
  Fe  Fe43  1  0.33368272  0.66598947  0.66660966  1
  Cr  Cr44  1  0.50078332  0.83487805  0.83423827  1
  Ni  Ni45  1  0.83583786  0.16910294  0.49957322  1
  Fe  Fe46  1  0.66887035  0.00340342  0.66872364  1
  Ni  Ni47  1  0.83366054  0.16993485  0.83539152  1
  Ni  Ni48  1  0.83585079  0.49779903  0.49990570  1
  Fe  Fe49  1  0.67038956  0.33359361  0.66743022  1
  Fe  Fe50  1  0.83545610  0.49826640  0.83621419  1
  Fe  Fe51  1  0.83304706  0.83431267  0.49788721  1
  Cr  Cr52  1  0.66922470  0.66572659  0.66436750  1
  Fe  Fe53  1  0.83352300  0.83458394  0.83673577  1
" 