681,Ni45Fe31Cr22_7,-231.261118314586, 192.144978358694,Ni45Fe31Cr22,"# generated using pymatgen
 data_Cr13Fe17Ni24
_symmetry_space_group_name_H-M   'P 1'
_cell_length_a   7.44366923
_cell_length_b   7.44366923
_cell_length_c   10.52693798
_cell_angle_alpha   90.00000000
_cell_angle_beta   90.00000000
_cell_angle_gamma   90.00000000
_symmetry_Int_Tables_number   1
_chemical_formula_structural   Cr13Fe17Ni24
_chemical_formula_sum   'Cr13 Fe17 Ni24'
_cell_volume   583.27880766
_cell_formula_units_Z   1
loop_
 _symmetry_equiv_pos_site_id
 _symmetry_equiv_pos_as_xyz
  1  'x, y, z'
loop_
 _atom_site_type_symbol
 _atom_site_label
 _atom_site_symmetry_multiplicity
 _atom_site_fract_x
 _atom_site_fract_y
 _atom_site_fract_z
 _atom_site_occupancy
  Ni  Ni0  1  1.00046038  1.00069083  0.00273708  1
  Fe  Fe1  1  0.16941298  0.16811500  0.16667574  1
  Cr  Cr2  1  1.00020373  0.00269685  0.33501073  1
  Cr  Cr3  1  0.00353939  0.33555068  0.00259248  1
  Ni  Ni4  1  0.16876687  0.50264869  0.16786188  1
  Fe  Fe5  1  1.00045400  0.33606432  0.33507161  1
  Ni  Ni6  1  1.00088930  0.67004616  0.00448594  1
  Fe  Fe7  1  0.16916743  0.83421115  0.16738719  1
  Cr  Cr8  1  1.00009805  0.66882408  0.33399060  1
  Fe  Fe9  1  0.33558558  1.00009484  0.00377223  1
  Fe  Fe10  1  0.50187837  0.16876079  0.16684509  1
  Fe  Fe11  1  0.33691337  0.99870983  0.33522315  1
  Ni  Ni12  1  0.33720689  0.33579332  0.00253123  1
  Ni  Ni13  1  0.50150760  0.50447582  0.16644580  1
  Cr  Cr14  1  0.33336058  0.33445195  0.33459167  1
  Fe  Fe15  1  0.33532513  0.66717919  0.00241911  1
  Ni  Ni16  1  0.50075432  0.83561696  0.16944358  1
  Ni  Ni17  1  0.33543298  0.66884202  0.33385921  1
  Fe  Fe18  1  0.66789499  1.00065520  0.00312345  1
  Ni  Ni19  1  0.83483733  0.16663751  0.16638016  1
  Fe  Fe20  1  0.66699799  1.00017152  0.33523093  1
  Fe  Fe21  1  0.66833077  0.33675502  0.00377980  1
  Ni  Ni22  1  0.83438042  0.50112223  0.16873995  1
  Cr  Cr23  1  0.66813171  0.33457845  0.33317426  1
  Ni  Ni24  1  0.66607665  0.66968621  0.00271812  1
  Fe  Fe25  1  0.83199132  0.83331869  0.16623699  1
  Ni  Ni26  1  0.66737091  0.67054706  0.33471213  1
  Fe  Fe27  1  0.16759442  0.16868182  0.50239292  1
  Fe  Fe28  1  1.00023952  0.00173604  0.66582519  1
  Cr  Cr29  1  0.16642627  0.16678674  0.83294645  1
  Ni  Ni30  1  0.16661928  0.50400289  0.50123760  1
  Ni  Ni31  1  1.00073231  0.33306480  0.66524142  1
  Ni  Ni32  1  0.16971765  0.50200459  0.83572789  1
  Ni  Ni33  1  0.17143596  0.83581935  0.50194680  1
  Cr  Cr34  1  0.00279045  0.66767948  0.66692072  1
  Cr  Cr35  1  0.17013346  0.83432369  0.83692997  1
  Ni  Ni36  1  0.50348275  0.16369214  0.50083339  1
  Fe  Fe37  1  0.33774739  0.99981413  0.66609256  1
  Cr  Cr38  1  0.50395202  0.16736302  0.83695535  1
  Cr  Cr39  1  0.50353679  0.50315312  0.50248760  1
  Cr  Cr40  1  0.33507136  0.33705641  0.66792482  1
  Ni  Ni41  1  0.50165345  0.50370812  0.83644482  1
  Fe  Fe42  1  0.50180706  0.83463892  0.50139001  1
  Ni  Ni43  1  0.33627374  0.66965148  0.66965315  1
  Ni  Ni44  1  0.50168022  0.83393462  0.83344849  1
  Ni  Ni45  1  0.83384947  0.16854645  0.50424867  1
  Ni  Ni46  1  0.66829588  1.00145404  0.66691777  1
  Fe  Fe47  1  0.83480316  0.16767857  0.83398993  1
  Ni  Ni48  1  0.83519051  0.49955299  0.50143391  1
  Ni  Ni49  1  0.66889216  0.33287546  0.66930077  1
  Cr  Cr50  1  0.83355550  0.50026322  0.83417804  1
  Fe  Fe51  1  0.83273923  0.83440069  0.50231221  1
  Ni  Ni52  1  0.66598699  0.66993508  0.66723791  1
  Cr  Cr53  1  0.83362301  0.83673683  0.83574060  1
" 