2252,Ni46Fe54_6,-241.658193289743, 225.742336738111,Ni46Fe54,"# generated using pymatgen
 data_Fe4Ni5
_symmetry_space_group_name_H-M   'P 1'
_cell_length_a   7.39808188
_cell_length_b   7.39808188
_cell_length_c   10.46246773
_cell_angle_alpha   90.00000000
_cell_angle_beta   90.00000000
_cell_angle_gamma   90.00000000
_symmetry_Int_Tables_number   1
_chemical_formula_structural   Fe4Ni5
_chemical_formula_sum   'Fe24 Ni30'
_cell_volume   572.62776105
_cell_formula_units_Z   6
loop_
 _symmetry_equiv_pos_site_id
 _symmetry_equiv_pos_as_xyz
  1  'x, y, z'
loop_
 _atom_site_type_symbol
 _atom_site_label
 _atom_site_symmetry_multiplicity
 _atom_site_fract_x
 _atom_site_fract_y
 _atom_site_fract_z
 _atom_site_occupancy
  Ni  Ni0  1  0.00489172  0.00512917  0.00538818  1
  Ni  Ni1  1  0.17106218  0.17066743  0.17154158  1
  Fe  Fe2  1  1.00436670  0.00499196  0.33758360  1
  Ni  Ni3  1  1.00442019  0.33733767  0.00549426  1
  Fe  Fe4  1  0.17019424  0.50352865  0.17169524  1
  Ni  Ni5  1  0.00548280  0.33866242  0.33717221  1
  Ni  Ni6  1  1.00368607  0.67151284  1.00408562  1
  Fe  Fe7  1  0.17033692  0.83812577  0.17160278  1
  Ni  Ni8  1  1.00392240  0.67068732  0.33821111  1
  Fe  Fe9  1  0.33754664  0.00515062  1.00387771  1
  Ni  Ni10  1  0.50373462  0.17260462  0.17071081  1
  Fe  Fe11  1  0.33715166  0.00530313  0.33819248  1
  Fe  Fe12  1  0.33800553  0.33813128  0.00481498  1
  Ni  Ni13  1  0.50492239  0.50458644  0.17097628  1
  Ni  Ni14  1  0.33726541  0.33745926  0.33806151  1
  Fe  Fe15  1  0.33814503  0.67070041  1.00388166  1
  Fe  Fe16  1  0.50600886  0.83864165  0.17083652  1
  Fe  Fe17  1  0.33770415  0.67068282  0.33877663  1
  Fe  Fe18  1  0.67288996  0.00501303  0.00522831  1
  Ni  Ni19  1  0.83918519  0.17103856  0.17123670  1
  Ni  Ni20  1  0.67086913  1.00390639  0.33753552  1
  Ni  Ni21  1  0.67128323  0.33816964  0.00502615  1
  Ni  Ni22  1  0.83726383  0.50541758  0.17139000  1
  Fe  Fe23  1  0.67179745  0.33818870  0.33728752  1
  Ni  Ni24  1  0.67127999  0.67141889  0.00559521  1
  Ni  Ni25  1  0.83920050  0.83752596  0.17129151  1
  Fe  Fe26  1  0.67210849  0.67035026  0.33807392  1
  Fe  Fe27  1  0.17062529  0.17211122  0.50495382  1
  Fe  Fe28  1  0.00552122  0.00481542  0.67160431  1
  Ni  Ni29  1  0.17073772  0.17086770  0.83752087  1
  Fe  Fe30  1  0.17019510  0.50473769  0.50458751  1
  Ni  Ni31  1  0.00526775  0.33753004  0.67131813  1
  Fe  Fe32  1  0.17202961  0.50344676  0.83770002  1
  Ni  Ni33  1  0.17091320  0.83829664  0.50502330  1
  Fe  Fe34  1  0.00558064  0.67126412  0.67037662  1
  Fe  Fe35  1  0.17247773  0.83899210  0.83750214  1
  Fe  Fe36  1  0.50515166  0.17103851  0.50442546  1
  Ni  Ni37  1  0.33872239  0.00484030  0.67079214  1
  Ni  Ni38  1  0.50394442  0.17196923  0.83778138  1
  Ni  Ni39  1  0.50453700  0.50480682  0.50502534  1
  Ni  Ni40  1  0.33715179  0.33716759  0.67172545  1
  Ni  Ni41  1  0.50431501  0.50551721  0.83798483  1
  Fe  Fe42  1  0.50572458  0.83764387  0.50573208  1
  Ni  Ni43  1  0.33954933  0.67197538  0.67105529  1
  Ni  Ni44  1  0.50394465  0.83649938  0.83772681  1
  Ni  Ni45  1  0.83889467  0.17124035  0.50419351  1
  Fe  Fe46  1  0.67062981  0.00493993  0.67089858  1
  Ni  Ni47  1  0.83930197  0.17124182  0.83855445  1
  Ni  Ni48  1  0.83696518  0.50480904  0.50476804  1
  Fe  Fe49  1  0.67027337  0.33850584  0.67181783  1
  Fe  Fe50  1  0.83714711  0.50374385  0.83849929  1
  Ni  Ni51  1  0.83972915  0.83793411  0.50523184  1
  Ni  Ni52  1  0.67072626  0.67234716  0.67075169  1
  Fe  Fe53  1  0.83691504  0.83848242  0.83857821  1
" 