4396,Ni46Fe54_19,-241.757096800389, 223.911928850777,Ni46Fe54,"# generated using pymatgen
 data_Fe4Ni5
_symmetry_space_group_name_H-M   'P 1'
_cell_length_a   7.39865942
_cell_length_b   7.39865942
_cell_length_c   10.46328450
_cell_angle_alpha   90.00000000
_cell_angle_beta   90.00000000
_cell_angle_gamma   90.00000000
_symmetry_Int_Tables_number   1
_chemical_formula_structural   Fe4Ni5
_chemical_formula_sum   'Fe24 Ni30'
_cell_volume   572.76188045
_cell_formula_units_Z   6
loop_
 _symmetry_equiv_pos_site_id
 _symmetry_equiv_pos_as_xyz
  1  'x, y, z'
loop_
 _atom_site_type_symbol
 _atom_site_label
 _atom_site_symmetry_multiplicity
 _atom_site_fract_x
 _atom_site_fract_y
 _atom_site_fract_z
 _atom_site_occupancy
  Ni  Ni0  1  1.00444816  0.00490440  0.00468165  1
  Ni  Ni1  1  0.17155912  0.17135796  0.17159710  1
  Ni  Ni2  1  0.00589817  1.00332717  0.33815275  1
  Ni  Ni3  1  0.00646648  0.33722586  0.00555677  1
  Ni  Ni4  1  0.17073402  0.50415939  0.17082495  1
  Fe  Fe5  1  0.00495483  0.33789904  0.33752535  1
  Fe  Fe6  1  1.00440349  0.67142364  0.00534324  1
  Ni  Ni7  1  0.17036804  0.83834777  0.17082427  1
  Ni  Ni8  1  1.00434502  0.67218393  0.33737910  1
  Fe  Fe9  1  0.33781387  0.00476108  0.00516933  1
  Ni  Ni10  1  0.50453112  0.17172847  0.16989839  1
  Ni  Ni11  1  0.33751061  0.00490089  0.33733119  1
  Ni  Ni12  1  0.33720348  0.33769638  0.00545207  1
  Ni  Ni13  1  0.50535705  0.50379418  0.17108095  1
  Fe  Fe14  1  0.33785615  0.33766245  0.33789355  1
  Fe  Fe15  1  0.33805467  0.67177568  0.00490146  1
  Ni  Ni16  1  0.50535287  0.83834288  0.17232037  1
  Fe  Fe17  1  0.33715197  0.67157654  0.33781665  1
  Ni  Ni18  1  0.67137888  1.00286469  0.00560658  1
  Fe  Fe19  1  0.83817311  0.17114646  0.17051074  1
  Fe  Fe20  1  0.67156577  1.00458433  0.33748636  1
  Fe  Fe21  1  0.67185757  0.33747005  0.00561545  1
  Ni  Ni22  1  0.83777365  0.50498188  0.17154639  1
  Ni  Ni23  1  0.67008713  0.33870441  0.33758522  1
  Ni  Ni24  1  0.67090749  0.67256679  0.00555672  1
  Ni  Ni25  1  0.83814468  0.83751910  0.17010285  1
  Fe  Fe26  1  0.67179856  0.67176008  0.33752853  1
  Fe  Fe27  1  0.17187845  0.17128317  0.50477461  1
  Fe  Fe28  1  0.00475934  1.00440823  0.67158036  1
  Ni  Ni29  1  0.17009852  0.17123399  0.83703307  1
  Ni  Ni30  1  0.17155510  0.50508929  0.50518112  1
  Ni  Ni31  1  0.00626298  0.33828947  0.67025655  1
  Fe  Fe32  1  0.17107501  0.50373828  0.83750728  1
  Ni  Ni33  1  0.16953524  0.83722462  0.50508053  1
  Ni  Ni34  1  1.00351827  0.67131188  0.67195835  1
  Ni  Ni35  1  0.17140047  0.83828701  0.83796282  1
  Ni  Ni36  1  0.50526870  0.17274192  0.50590380  1
  Fe  Fe37  1  0.33732750  1.00427208  0.67101114  1
  Fe  Fe38  1  0.50383595  0.17043198  0.83793906  1
  Ni  Ni39  1  0.50443511  0.50305459  0.50492262  1
  Ni  Ni40  1  0.33741293  0.33709433  0.67046442  1
  Fe  Fe41  1  0.50413572  0.50471450  0.83779910  1
  Fe  Fe42  1  0.50420826  0.83754700  0.50492971  1
  Fe  Fe43  1  0.33725009  0.67050135  0.67114775  1
  Ni  Ni44  1  0.50453851  0.83745091  0.83703166  1
  Fe  Fe45  1  0.83807517  0.17155936  0.50504774  1
  Fe  Fe46  1  0.67177715  0.00475972  0.67185350  1
  Ni  Ni47  1  0.83840859  0.17205911  0.83796299  1
  Fe  Fe48  1  0.83809558  0.50535120  0.50450115  1
  Fe  Fe49  1  0.67156517  0.33866425  0.67027956  1
  Fe  Fe50  1  0.83865619  0.50489762  0.83807544  1
  Ni  Ni51  1  0.83906685  0.83806143  0.50580304  1
  Ni  Ni52  1  0.67174090  0.67214249  0.67025780  1
  Fe  Fe53  1  0.83799196  0.83873441  0.83801657  1
" 