1060,Ni46Fe54_18,-241.819712448485, 224.860454715246,Ni46Fe54,"# generated using pymatgen
 data_Fe4Ni5
_symmetry_space_group_name_H-M   'P 1'
_cell_length_a   7.40204698
_cell_length_b   7.40204698
_cell_length_c   10.46807523
_cell_angle_alpha   90.00000000
_cell_angle_beta   90.00000000
_cell_angle_gamma   90.00000000
_symmetry_Int_Tables_number   1
_chemical_formula_structural   Fe4Ni5
_chemical_formula_sum   'Fe24 Ni30'
_cell_volume   573.54897651
_cell_formula_units_Z   6
loop_
 _symmetry_equiv_pos_site_id
 _symmetry_equiv_pos_as_xyz
  1  'x, y, z'
loop_
 _atom_site_type_symbol
 _atom_site_label
 _atom_site_symmetry_multiplicity
 _atom_site_fract_x
 _atom_site_fract_y
 _atom_site_fract_z
 _atom_site_occupancy
  Fe  Fe0  1  1.00408397  0.00443696  1.00431688  1
  Ni  Ni1  1  0.17187252  0.17231818  0.16988147  1
  Ni  Ni2  1  1.00225255  0.00442062  0.33750716  1
  Fe  Fe3  1  0.00446947  0.33866807  1.00438529  1
  Ni  Ni4  1  0.17069204  0.50223136  0.17170314  1
  Ni  Ni5  1  1.00413301  0.33815500  0.33690444  1
  Ni  Ni6  1  0.00557217  0.67089812  0.00453682  1
  Fe  Fe7  1  0.17042567  0.83643459  0.17120074  1
  Ni  Ni8  1  0.00564677  0.67059268  0.33836499  1
  Fe  Fe9  1  0.33831238  0.00453775  0.00448289  1
  Fe  Fe10  1  0.50502794  0.17110729  0.17032774  1
  Fe  Fe11  1  0.33667531  1.00410334  0.33813291  1
  Ni  Ni12  1  0.33833341  0.33949626  0.00459174  1
  Fe  Fe13  1  0.50373489  0.50468027  0.17103657  1
  Fe  Fe14  1  0.33622431  0.33743679  0.33765445  1
  Ni  Ni15  1  0.33632967  0.66972668  0.00449208  1
  Ni  Ni16  1  0.50547836  0.83827632  0.17084229  1
  Ni  Ni17  1  0.33715224  0.67024320  0.33745516  1
  Ni  Ni18  1  0.67197231  0.00547144  1.00438768  1
  Fe  Fe19  1  0.83772272  0.17076566  0.17078657  1
  Ni  Ni20  1  0.67189472  0.00476075  0.33791033  1
  Ni  Ni21  1  0.67080324  0.33607973  1.00438787  1
  Ni  Ni22  1  0.83853087  0.50528775  0.17043627  1
  Fe  Fe23  1  0.67226694  0.33865599  0.33745383  1
  Fe  Fe24  1  0.67121837  0.67078943  0.00460351  1
  Ni  Ni25  1  0.83582374  0.83709474  0.17089036  1
  Fe  Fe26  1  0.67231630  0.67171430  0.33816489  1
  Ni  Ni27  1  0.17165267  0.17132143  0.50531165  1
  Ni  Ni28  1  1.00248709  0.00492388  0.67091618  1
  Fe  Fe29  1  0.16980661  0.17170462  0.83684721  1
  Fe  Fe30  1  0.17127480  0.50499358  0.50439433  1
  Ni  Ni31  1  1.00436131  0.33774565  0.67162263  1
  Ni  Ni32  1  0.17138018  0.50306059  0.83707777  1
  Fe  Fe33  1  0.17120288  0.83712111  0.50447167  1
  Fe  Fe34  1  0.00450965  0.67132974  0.67157691  1
  Fe  Fe35  1  0.16979257  0.83684570  0.83750317  1
  Fe  Fe36  1  0.50507888  0.17070358  0.50490031  1
  Ni  Ni37  1  0.33880671  1.00375026  0.67096907  1
  Fe  Fe38  1  0.50560167  0.17161578  0.83794432  1
  Ni  Ni39  1  0.50438949  0.50519730  0.50438945  1
  Ni  Ni40  1  0.33728459  0.33926833  0.67075838  1
  Fe  Fe41  1  0.50456395  0.50402706  0.83745695  1
  Ni  Ni42  1  0.50509620  0.83772160  0.50494789  1
  Ni  Ni43  1  0.33775475  0.67015102  0.67122434  1
  Fe  Fe44  1  0.50501442  0.83752844  0.83751269  1
  Fe  Fe45  1  0.83747961  0.17063603  0.50487502  1
  Ni  Ni46  1  0.67187794  0.00445577  0.67087590  1
  Ni  Ni47  1  0.83795709  0.17059344  0.83763344  1
  Ni  Ni48  1  0.83747341  0.50517913  0.50500206  1
  Fe  Fe49  1  0.67093005  0.33738962  0.67161923  1
  Ni  Ni50  1  0.83843386  0.50447835  0.83773969  1
  Ni  Ni51  1  0.83640158  0.83737840  0.50464466  1
  Fe  Fe52  1  0.67098038  0.67149205  0.67040499  1
  Ni  Ni53  1  0.83654065  0.83810313  0.83764091  1
" 