5382,Ni46Fe54_11,-242.258217664214, 225.734913438054,Ni46Fe54,"# generated using pymatgen
 data_Fe4Ni5
_symmetry_space_group_name_H-M   'P 1'
_cell_length_a   7.40122712
_cell_length_b   7.40122712
_cell_length_c   10.46691578
_cell_angle_alpha   90.00000000
_cell_angle_beta   90.00000000
_cell_angle_gamma   90.00000000
_symmetry_Int_Tables_number   1
_chemical_formula_structural   Fe4Ni5
_chemical_formula_sum   'Fe24 Ni30'
_cell_volume   573.35841774
_cell_formula_units_Z   6
loop_
 _symmetry_equiv_pos_site_id
 _symmetry_equiv_pos_as_xyz
  1  'x, y, z'
loop_
 _atom_site_type_symbol
 _atom_site_label
 _atom_site_symmetry_multiplicity
 _atom_site_fract_x
 _atom_site_fract_y
 _atom_site_fract_z
 _atom_site_occupancy
  Fe  Fe0  1  0.00486672  1.00416949  1.00368486  1
  Fe  Fe1  1  0.17198703  0.17247591  0.17118482  1
  Fe  Fe2  1  1.00364024  0.00539531  0.33889177  1
  Ni  Ni3  1  0.00511316  0.33750304  1.00338942  1
  Fe  Fe4  1  0.17196939  0.50403105  0.17076946  1
  Ni  Ni5  1  0.00550408  0.33718620  0.33866631  1
  Ni  Ni6  1  1.00443171  0.67190109  0.00455537  1
  Fe  Fe7  1  0.17213062  0.83683145  0.17062984  1
  Fe  Fe8  1  1.00343359  0.67058530  0.33805750  1
  Fe  Fe9  1  0.33777264  0.00458608  1.00423985  1
  Ni  Ni10  1  0.50383198  0.17202469  0.17191621  1
  Fe  Fe11  1  0.33851126  0.00525173  0.33770828  1
  Ni  Ni12  1  0.33762659  0.33714513  0.00445236  1
  Ni  Ni13  1  0.50564190  0.50393943  0.17060066  1
  Ni  Ni14  1  0.33714801  0.33685686  0.33760512  1
  Ni  Ni15  1  0.33762047  0.67156948  1.00368101  1
  Ni  Ni16  1  0.50417078  0.83737562  0.17094332  1
  Fe  Fe17  1  0.33907494  0.67037271  0.33731652  1
  Fe  Fe18  1  0.67069834  0.00445101  0.00505312  1
  Fe  Fe19  1  0.83623107  0.17207877  0.17200299  1
  Ni  Ni20  1  0.67102973  1.00355540  0.33837398  1
  Ni  Ni21  1  0.67059995  0.33749732  0.00479440  1
  Ni  Ni22  1  0.83688966  0.50460834  0.17181445  1
  Ni  Ni23  1  0.67068918  0.33719316  0.33794163  1
  Ni  Ni24  1  0.67128753  0.67190133  1.00411674  1
  Fe  Fe25  1  0.83588032  0.83702439  0.17118535  1
  Ni  Ni26  1  0.67136022  0.67259134  0.33793924  1
  Ni  Ni27  1  0.17061003  0.17017635  0.50399575  1
  Fe  Fe28  1  1.00433290  1.00414785  0.67076277  1
  Ni  Ni29  1  0.17199217  0.17006779  0.83806199  1
  Fe  Fe30  1  0.17060665  0.50403186  0.50430409  1
  Fe  Fe31  1  1.00398440  0.33810215  0.67097140  1
  Fe  Fe32  1  0.17104128  0.50444751  0.83826411  1
  Ni  Ni33  1  0.16992420  0.83889083  0.50399487  1
  Ni  Ni34  1  1.00393525  0.67270027  0.67099456  1
  Ni  Ni35  1  0.16972672  0.83881524  0.83806238  1
  Fe  Fe36  1  0.50457776  0.17107825  0.50430968  1
  Fe  Fe37  1  0.33740549  0.00459957  0.67139164  1
  Ni  Ni38  1  0.50314547  0.17301396  0.83766955  1
  Ni  Ni39  1  0.50513255  0.50393152  0.50351272  1
  Ni  Ni40  1  0.33786289  0.33637739  0.67128340  1
  Ni  Ni41  1  0.50574865  0.50331725  0.83922387  1
  Fe  Fe42  1  0.50506825  0.83815361  0.50355986  1
  Fe  Fe43  1  0.33824914  0.67030032  0.67136166  1
  Fe  Fe44  1  0.50465778  0.83737698  0.83852232  1
  Ni  Ni45  1  0.83862323  0.17085089  0.50452522  1
  Fe  Fe46  1  0.67160187  1.00444306  0.67057907  1
  Fe  Fe47  1  0.83756783  0.17159006  0.83752138  1
  Fe  Fe48  1  0.83808964  0.50452232  0.50444504  1
  Ni  Ni49  1  0.67006325  0.33751573  0.67060694  1
  Ni  Ni50  1  0.83639246  0.50558491  0.83733420  1
  Ni  Ni51  1  0.83896227  0.83787066  0.50365644  1
  Ni  Ni52  1  0.67233405  0.67189237  0.67128344  1
  Ni  Ni53  1  0.83933875  0.83621570  0.83840312  1
" 