4848,Ni46Fe54_4,-241.951099633329, 225.327858253612,Ni46Fe54,"# generated using pymatgen
 data_Fe4Ni5
_symmetry_space_group_name_H-M   'P 1'
_cell_length_a   7.40237912
_cell_length_b   7.40237912
_cell_length_c   10.46854495
_cell_angle_alpha   90.00000000
_cell_angle_beta   90.00000000
_cell_angle_gamma   90.00000000
_symmetry_Int_Tables_number   1
_chemical_formula_structural   Fe4Ni5
_chemical_formula_sum   'Fe24 Ni30'
_cell_volume   573.62618897
_cell_formula_units_Z   6
loop_
 _symmetry_equiv_pos_site_id
 _symmetry_equiv_pos_as_xyz
  1  'x, y, z'
loop_
 _atom_site_type_symbol
 _atom_site_label
 _atom_site_symmetry_multiplicity
 _atom_site_fract_x
 _atom_site_fract_y
 _atom_site_fract_z
 _atom_site_occupancy
  Ni  Ni0  1  1.00351847  0.00466453  1.00288676  1
  Ni  Ni1  1  0.17021851  0.17076027  0.17054972  1
  Ni  Ni2  1  0.00446266  0.00455622  0.33854087  1
  Ni  Ni3  1  0.00558642  0.33723429  0.00513316  1
  Ni  Ni4  1  0.17060014  0.50399772  0.17143622  1
  Fe  Fe5  1  0.00487975  0.33787500  0.33748282  1
  Ni  Ni6  1  0.00510914  0.67120377  0.00502906  1
  Ni  Ni7  1  0.17093795  0.83834465  0.17102310  1
  Fe  Fe8  1  0.00480494  0.67078631  0.33748257  1
  Fe  Fe9  1  0.33683268  1.00350086  1.00386757  1
  Fe  Fe10  1  0.50298793  0.17156185  0.17103076  1
  Fe  Fe11  1  0.33750299  1.00422551  0.33857738  1
  Ni  Ni12  1  0.33678003  0.33881109  1.00351644  1
  Fe  Fe13  1  0.50261953  0.50443888  0.17164335  1
  Ni  Ni14  1  0.33806007  0.33851520  0.33901471  1
  Ni  Ni15  1  0.33761743  0.66999231  0.00445135  1
  Fe  Fe16  1  0.50337557  0.83710430  0.17081290  1
  Ni  Ni17  1  0.33806387  0.67039792  0.33770950  1
  Ni  Ni18  1  0.67194729  1.00382588  0.00503593  1
  Fe  Fe19  1  0.83937153  0.17057645  0.17089273  1
  Fe  Fe20  1  0.67033508  1.00414416  0.33784207  1
  Fe  Fe21  1  0.67161336  0.33856805  1.00393085  1
  Fe  Fe22  1  0.83891087  0.50459724  0.17046693  1
  Ni  Ni23  1  0.67021293  0.33779237  0.33712559  1
  Ni  Ni24  1  0.67037604  0.67206403  1.00341763  1
  Fe  Fe25  1  0.83914757  0.83793177  0.17067226  1
  Ni  Ni26  1  0.66984711  0.67075713  0.33864167  1
  Ni  Ni27  1  0.16989354  0.17012102  0.50422914  1
  Fe  Fe28  1  0.00511503  1.00429817  0.67042732  1
  Fe  Fe29  1  0.17131084  0.17191656  0.83791529  1
  Fe  Fe30  1  0.17221678  0.50509665  0.50458982  1
  Ni  Ni31  1  1.00378481  0.33827860  0.67036861  1
  Ni  Ni32  1  0.17026643  0.50445215  0.83749322  1
  Ni  Ni33  1  0.17148611  0.83927600  0.50391125  1
  Ni  Ni34  1  0.00585557  0.67046478  0.67073866  1
  Ni  Ni35  1  0.17149889  0.83818967  0.83816702  1
  Fe  Fe36  1  0.50379289  0.17076451  0.50458969  1
  Ni  Ni37  1  0.33855639  1.00313776  0.67083932  1
  Fe  Fe38  1  0.50432342  0.17122847  0.83748210  1
  Ni  Ni39  1  0.50606726  0.50491359  0.50453291  1
  Fe  Fe40  1  0.33770382  0.33792044  0.67095476  1
  Ni  Ni41  1  0.50583459  0.50481414  0.83817384  1
  Ni  Ni42  1  0.50446260  0.83684174  0.50396729  1
  Ni  Ni43  1  0.33687185  0.67179806  0.67094781  1
  Ni  Ni44  1  0.50426770  0.83748519  0.83791210  1
  Fe  Fe45  1  0.83734036  0.17068504  0.50458339  1
  Ni  Ni46  1  0.67027157  0.00520076  0.66990391  1
  Fe  Fe47  1  0.83747158  0.17147440  0.83762253  1
  Fe  Fe48  1  0.83745567  0.50456529  0.50508818  1
  Ni  Ni49  1  0.67160658  0.33658956  0.67152201  1
  Ni  Ni50  1  0.83700615  0.50322213  0.83816984  1
  Fe  Fe51  1  0.83770562  0.83785247  0.50405584  1
  Fe  Fe52  1  0.67044340  0.67073453  0.67110520  1
  Fe  Fe53  1  0.83754742  0.83632733  0.83837180  1
" 