7826,Ni46Fe54_8,-241.939489769523, 228.4209258095,Ni46Fe54,"# generated using pymatgen
 data_Fe4Ni5
_symmetry_space_group_name_H-M   'P 1'
_cell_length_a   7.40106710
_cell_length_b   7.40106710
_cell_length_c   10.46668947
_cell_angle_alpha   90.00000000
_cell_angle_beta   90.00000000
_cell_angle_gamma   90.00000000
_symmetry_Int_Tables_number   1
_chemical_formula_structural   Fe4Ni5
_chemical_formula_sum   'Fe24 Ni30'
_cell_volume   573.32122912
_cell_formula_units_Z   6
loop_
 _symmetry_equiv_pos_site_id
 _symmetry_equiv_pos_as_xyz
  1  'x, y, z'
loop_
 _atom_site_type_symbol
 _atom_site_label
 _atom_site_symmetry_multiplicity
 _atom_site_fract_x
 _atom_site_fract_y
 _atom_site_fract_z
 _atom_site_occupancy
  Fe  Fe0  1  1.00317982  0.00537658  0.00470964  1
  Fe  Fe1  1  0.17216558  0.17198024  0.17194006  1
  Ni  Ni2  1  1.00433567  1.00379656  0.33716336  1
  Ni  Ni3  1  0.00495771  0.33845473  0.00476353  1
  Ni  Ni4  1  0.17108172  0.50339708  0.17125049  1
  Fe  Fe5  1  0.00526443  0.33606669  0.33765366  1
  Ni  Ni6  1  0.00489201  0.67117023  0.00454167  1
  Fe  Fe7  1  0.17210081  0.83585792  0.17157118  1
  Fe  Fe8  1  0.00468616  0.67072421  0.33774897  1
  Fe  Fe9  1  0.33857119  0.00487748  0.00446551  1
  Fe  Fe10  1  0.50474791  0.17287710  0.17124969  1
  Ni  Ni11  1  0.33730513  0.00480699  0.33804297  1
  Ni  Ni12  1  0.33776453  0.33724795  1.00418926  1
  Ni  Ni13  1  0.50391099  0.50521019  0.16974563  1
  Ni  Ni14  1  0.33900466  0.33853863  0.33826084  1
  Fe  Fe15  1  0.33854601  0.66964232  0.00508647  1
  Ni  Ni16  1  0.50535233  0.83941773  0.17088705  1
  Ni  Ni17  1  0.33722643  0.67055300  0.33761219  1
  Ni  Ni18  1  0.67111340  0.00493169  1.00422055  1
  Fe  Fe19  1  0.83666342  0.17249175  0.17170972  1
  Ni  Ni20  1  0.67168668  0.00591123  0.33870579  1
  Ni  Ni21  1  0.67084984  0.33782601  1.00433897  1
  Ni  Ni22  1  0.83864959  0.50471734  0.17116651  1
  Ni  Ni23  1  0.67074003  0.33823835  0.33760437  1
  Ni  Ni24  1  0.67208168  0.67124419  0.00508231  1
  Fe  Fe25  1  0.83729882  0.83654914  0.17098084  1
  Fe  Fe26  1  0.66900587  0.67170286  0.33732620  1
  Ni  Ni27  1  0.17119050  0.17217375  0.50481213  1
  Ni  Ni28  1  0.00476482  1.00428368  0.67191563  1
  Fe  Fe29  1  0.17130091  0.17094820  0.83734293  1
  Ni  Ni30  1  0.17172085  0.50476471  0.50392531  1
  Fe  Fe31  1  0.00562202  0.33908530  0.67139385  1
  Ni  Ni32  1  0.17110378  0.50490764  0.83842279  1
  Fe  Fe33  1  0.17119249  0.83905939  0.50471167  1
  Ni  Ni34  1  1.00387389  0.67158404  0.67028695  1
  Fe  Fe35  1  0.17107623  0.83783667  0.83694434  1
  Ni  Ni36  1  0.50443569  0.17103870  0.50367524  1
  Ni  Ni37  1  0.33725104  0.00518102  0.67007899  1
  Ni  Ni38  1  0.50461011  0.17042532  0.83780852  1
  Ni  Ni39  1  0.50243789  0.50424116  0.50468231  1
  Fe  Fe40  1  0.33716765  0.33876296  0.67110698  1
  Fe  Fe41  1  0.50520697  0.50451811  0.83783264  1
  Fe  Fe42  1  0.50354844  0.83797270  0.50372885  1
  Ni  Ni43  1  0.33762742  0.67145818  0.67162590  1
  Fe  Fe44  1  0.50443353  0.83720443  0.83826806  1
  Ni  Ni45  1  0.83794818  0.16796862  0.50553436  1
  Fe  Fe46  1  0.67100999  1.00162306  0.67128531  1
  Fe  Fe47  1  0.83775823  0.17180143  0.83764103  1
  Fe  Fe48  1  0.83717066  0.50245774  0.50374054  1
  Fe  Fe49  1  0.67040754  0.33704233  0.67038564  1
  Fe  Fe50  1  0.83786730  0.50519305  0.83889248  1
  Ni  Ni51  1  0.83756727  0.83795222  0.50332569  1
  Ni  Ni52  1  0.67159178  0.66964650  0.67029778  1
  Ni  Ni53  1  0.83763735  0.83796589  0.83902158  1
" 