612,Ni46Fe54_1,-242.313354279083, 223.458146193833,Ni46Fe54,"# generated using pymatgen
 data_Fe4Ni5
_symmetry_space_group_name_H-M   'P 1'
_cell_length_a   7.40601483
_cell_length_b   7.40601483
_cell_length_c   10.47368662
_cell_angle_alpha   90.00000000
_cell_angle_beta   90.00000000
_cell_angle_gamma   90.00000000
_symmetry_Int_Tables_number   1
_chemical_formula_structural   Fe4Ni5
_chemical_formula_sum   'Fe24 Ni30'
_cell_volume   574.47182039
_cell_formula_units_Z   6
loop_
 _symmetry_equiv_pos_site_id
 _symmetry_equiv_pos_as_xyz
  1  'x, y, z'
loop_
 _atom_site_type_symbol
 _atom_site_label
 _atom_site_symmetry_multiplicity
 _atom_site_fract_x
 _atom_site_fract_y
 _atom_site_fract_z
 _atom_site_occupancy
  Ni  Ni0  1  1.00379095  1.00359294  1.00333847  1
  Fe  Fe1  1  0.17143504  0.16926592  0.17031193  1
  Ni  Ni2  1  1.00309241  1.00334588  0.33788161  1
  Fe  Fe3  1  1.00412041  0.33723509  1.00300515  1
  Fe  Fe4  1  0.17169023  0.50545377  0.17092880  1
  Fe  Fe5  1  1.00371850  0.33799728  0.33821079  1
  Ni  Ni6  1  0.00446062  0.67224161  1.00282129  1
  Ni  Ni7  1  0.17006331  0.83673692  0.17140724  1
  Ni  Ni8  1  0.00456034  0.67234483  0.33892834  1
  Ni  Ni9  1  0.33691587  0.00441552  1.00368872  1
  Ni  Ni10  1  0.50395725  0.17170410  0.17140693  1
  Fe  Fe11  1  0.33835889  1.00342618  0.33662240  1
  Ni  Ni12  1  0.33839847  0.33751829  1.00281583  1
  Fe  Fe13  1  0.50405087  0.50492030  0.17133077  1
  Ni  Ni14  1  0.33864314  0.33848088  0.33851422  1
  Ni  Ni15  1  0.33723384  0.67043082  1.00411919  1
  Ni  Ni16  1  0.50430179  0.83755340  0.17066823  1
  Ni  Ni17  1  0.33752157  0.66972871  0.33731054  1
  Ni  Ni18  1  0.67165372  0.00475604  1.00348613  1
  Fe  Fe19  1  0.83658787  0.16904570  0.17052678  1
  Ni  Ni20  1  0.67209182  0.00446794  0.33783578  1
  Ni  Ni21  1  0.66984157  0.33684686  1.00348264  1
  Fe  Fe22  1  0.83661978  0.50538748  0.17078957  1
  Ni  Ni23  1  0.66947483  0.33701272  0.33826635  1
  Ni  Ni24  1  0.67066676  0.67076000  1.00391626  1
  Ni  Ni25  1  0.83799773  0.83674213  0.17088155  1
  Ni  Ni26  1  0.67028096  0.67087912  0.33785522  1
  Fe  Fe27  1  0.17068727  0.17044944  0.50473134  1
  Ni  Ni28  1  1.00349560  0.00501152  0.67114669  1
  Ni  Ni29  1  0.17105148  0.17113792  0.83819007  1
  Fe  Fe30  1  0.17157873  0.50521188  0.50397789  1
  Ni  Ni31  1  1.00383981  0.33588246  0.67079994  1
  Fe  Fe32  1  0.17053115  0.50379536  0.83745510  1
  Fe  Fe33  1  0.17111725  0.83669949  0.50404932  1
  Fe  Fe34  1  0.00433724  0.67129771  0.67100191  1
  Ni  Ni35  1  0.16959782  0.83724419  0.83732591  1
  Fe  Fe36  1  0.50487870  0.17066626  0.50340307  1
  Fe  Fe37  1  0.33647447  0.00422702  0.67169317  1
  Ni  Ni38  1  0.50378566  0.17228984  0.83700912  1
  Ni  Ni39  1  0.50365900  0.50385429  0.50318906  1
  Fe  Fe40  1  0.33662345  0.33719985  0.67085712  1
  Fe  Fe41  1  0.50390591  0.50384165  0.83741332  1
  Ni  Ni42  1  0.50480852  0.83631952  0.50363854  1
  Ni  Ni43  1  0.33794619  0.67043821  0.67093121  1
  Fe  Fe44  1  0.50383345  0.83854962  0.83782059  1
  Fe  Fe45  1  0.83679405  0.17020364  0.50451882  1
  Fe  Fe46  1  0.67143916  1.00390045  0.67086406  1
  Ni  Ni47  1  0.83752169  0.17080757  0.83794384  1
  Fe  Fe48  1  0.83647300  0.50488485  0.50375873  1
  Fe  Fe49  1  0.67107038  0.33731182  0.67100063  1
  Fe  Fe50  1  0.83792544  0.50343501  0.83781499  1
  Ni  Ni51  1  0.83764605  0.83715893  0.50360893  1
  Fe  Fe52  1  0.67130163  0.67114868  0.67014174  1
  Ni  Ni53  1  0.83865469  0.83724869  0.83787050  1
" 