4295,Ni46Fe54_17,-242.320995870149, 226.325539060109,Ni46Fe54,"# generated using pymatgen
 data_Fe4Ni5
_symmetry_space_group_name_H-M   'P 1'
_cell_length_a   7.40342665
_cell_length_b   7.40342665
_cell_length_c   10.47002638
_cell_angle_alpha   90.00000000
_cell_angle_beta   90.00000000
_cell_angle_gamma   90.00000000
_symmetry_Int_Tables_number   1
_chemical_formula_structural   Fe4Ni5
_chemical_formula_sum   'Fe24 Ni30'
_cell_volume   573.86974950
_cell_formula_units_Z   6
loop_
 _symmetry_equiv_pos_site_id
 _symmetry_equiv_pos_as_xyz
  1  'x, y, z'
loop_
 _atom_site_type_symbol
 _atom_site_label
 _atom_site_symmetry_multiplicity
 _atom_site_fract_x
 _atom_site_fract_y
 _atom_site_fract_z
 _atom_site_occupancy
  Fe  Fe0  1  1.00381502  0.00464607  0.00503773  1
  Ni  Ni1  1  0.17070660  0.17079330  0.17082007  1
  Ni  Ni2  1  1.00386000  0.00441339  0.33793583  1
  Fe  Fe3  1  1.00376913  0.33816064  0.00470853  1
  Ni  Ni4  1  0.17028112  0.50556383  0.17137340  1
  Ni  Ni5  1  1.00418217  0.33838718  0.33727197  1
  Fe  Fe6  1  1.00425090  0.67008790  0.00443474  1
  Ni  Ni7  1  0.17215957  0.83653134  0.17114157  1
  Ni  Ni8  1  0.00529919  0.67008922  0.33661397  1
  Fe  Fe9  1  0.33925578  0.00437584  0.00485154  1
  Ni  Ni10  1  0.50539914  0.16936070  0.17147350  1
  Ni  Ni11  1  0.33833451  1.00361544  0.33659948  1
  Ni  Ni12  1  0.33749997  0.33828254  0.00482220  1
  Fe  Fe13  1  0.50369436  0.50411013  0.17066396  1
  Fe  Fe14  1  0.33647328  0.33744691  0.33755386  1
  Ni  Ni15  1  0.33716223  0.67030549  1.00410281  1
  Ni  Ni16  1  0.50363448  0.83826874  0.17094979  1
  Ni  Ni17  1  0.33658942  0.67119005  0.33757244  1
  Ni  Ni18  1  0.67126582  0.00463065  0.00462760  1
  Ni  Ni19  1  0.83678440  0.17124174  0.17072711  1
  Ni  Ni20  1  0.67069805  0.00473520  0.33705551  1
  Ni  Ni21  1  0.67081118  0.33684399  0.00441027  1
  Ni  Ni22  1  0.83853020  0.50379783  0.17127987  1
  Fe  Fe23  1  0.67172103  0.33700840  0.33756881  1
  Ni  Ni24  1  0.67081442  0.67140723  0.00455055  1
  Fe  Fe25  1  0.83788819  0.83823285  0.17110408  1
  Fe  Fe26  1  0.67114151  0.67170191  0.33709287  1
  Fe  Fe27  1  0.17107083  0.17185188  0.50390464  1
  Fe  Fe28  1  1.00381391  0.00557193  0.67064035  1
  Fe  Fe29  1  0.17145401  0.17174941  0.83753875  1
  Ni  Ni30  1  0.17162844  0.50540290  0.50430256  1
  Ni  Ni31  1  0.00429681  0.33917950  0.67140763  1
  Ni  Ni32  1  0.17113738  0.50550462  0.83720711  1
  Fe  Fe33  1  0.17096195  0.83715668  0.50349227  1
  Ni  Ni34  1  0.00463102  0.66981584  0.67099243  1
  Fe  Fe35  1  0.17102971  0.83793982  0.83774164  1
  Fe  Fe36  1  0.50425326  0.17142564  0.50498580  1
  Ni  Ni37  1  0.33882072  0.00467614  0.67141073  1
  Ni  Ni38  1  0.50605954  0.17020556  0.83677881  1
  Ni  Ni39  1  0.50302723  0.50506393  0.50472251  1
  Ni  Ni40  1  0.33738212  0.33730407  0.67069285  1
  Fe  Fe41  1  0.50433512  0.50298414  0.83758892  1
  Fe  Fe42  1  0.50416074  0.83778347  0.50362477  1
  Fe  Fe43  1  0.33739618  0.66989060  0.67069220  1
  Fe  Fe44  1  0.50457536  0.83831754  0.83830444  1
  Ni  Ni45  1  0.83721644  0.17008590  0.50472748  1
  Ni  Ni46  1  0.67011689  0.00500131  0.67120826  1
  Ni  Ni47  1  0.83602343  0.17052026  0.83744860  1
  Fe  Fe48  1  0.83818760  0.50379779  0.50411327  1
  Ni  Ni49  1  0.67121060  0.33662893  0.67133380  1
  Fe  Fe50  1  0.83744624  0.50341138  0.83788658  1
  Fe  Fe51  1  0.83776724  0.83718573  0.50429928  1
  Fe  Fe52  1  0.67071345  0.67036354  0.67114973  1
  Fe  Fe53  1  0.83728520  0.83797604  0.83748357  1
" 