8079,Ni46Fe54_3,-241.869145532217, 227.008975407335,Ni46Fe54,"# generated using pymatgen
 data_Fe4Ni5
_symmetry_space_group_name_H-M   'P 1'
_cell_length_a   7.39990931
_cell_length_b   7.39990931
_cell_length_c   10.46505211
_cell_angle_alpha   90.00000000
_cell_angle_beta   90.00000000
_cell_angle_gamma   90.00000000
_symmetry_Int_Tables_number   1
_chemical_formula_structural   Fe4Ni5
_chemical_formula_sum   'Fe24 Ni30'
_cell_volume   573.05220693
_cell_formula_units_Z   6
loop_
 _symmetry_equiv_pos_site_id
 _symmetry_equiv_pos_as_xyz
  1  'x, y, z'
loop_
 _atom_site_type_symbol
 _atom_site_label
 _atom_site_symmetry_multiplicity
 _atom_site_fract_x
 _atom_site_fract_y
 _atom_site_fract_z
 _atom_site_occupancy
  Fe  Fe0  1  1.00352931  1.00345637  0.00554294  1
  Ni  Ni1  1  0.17173135  0.17104916  0.17093336  1
  Ni  Ni2  1  1.00355912  1.00394639  0.33759444  1
  Fe  Fe3  1  1.00345826  0.33902454  1.00405794  1
  Fe  Fe4  1  0.17106956  0.50522449  0.17140576  1
  Fe  Fe5  1  0.00522458  0.33766478  0.33820066  1
  Ni  Ni6  1  0.00498935  0.67154856  0.00459344  1
  Ni  Ni7  1  0.17138747  0.83809530  0.17113074  1
  Ni  Ni8  1  0.00547645  0.67214541  0.33789106  1
  Fe  Fe9  1  0.33881885  1.00366511  0.00466967  1
  Ni  Ni10  1  0.50409971  0.17035990  0.17152226  1
  Fe  Fe11  1  0.33754133  1.00427876  0.33820251  1
  Fe  Fe12  1  0.33853960  0.33846438  0.00466762  1
  Fe  Fe13  1  0.50466849  0.50459533  0.17138777  1
  Ni  Ni14  1  0.33798750  0.33830758  0.33794228  1
  Ni  Ni15  1  0.33688584  0.67120536  1.00425225  1
  Ni  Ni16  1  0.50477736  0.83844630  0.17083903  1
  Ni  Ni17  1  0.33685921  0.67022572  0.33833144  1
  Ni  Ni18  1  0.67172798  0.00508456  1.00410464  1
  Ni  Ni19  1  0.83777864  0.17148540  0.17069220  1
  Ni  Ni20  1  0.67206447  0.00507562  0.33813210  1
  Ni  Ni21  1  0.67138617  0.33698152  0.00464447  1
  Ni  Ni22  1  0.83813371  0.50514795  0.17088789  1
  Fe  Fe23  1  0.67112168  0.33771936  0.33759225  1
  Ni  Ni24  1  0.67173356  0.67154438  0.00566847  1
  Ni  Ni25  1  0.83744427  0.83697848  0.17079249  1
  Fe  Fe26  1  0.67106949  0.67189317  0.33795765  1
  Ni  Ni27  1  0.17184786  0.17223345  0.50497475  1
  Fe  Fe28  1  0.00455197  0.00555275  0.67081105  1
  Fe  Fe29  1  0.17040824  0.17174201  0.83696297  1
  Ni  Ni30  1  0.17116249  0.50349484  0.50477831  1
  Ni  Ni31  1  0.00488512  0.33788203  0.67078198  1
  Ni  Ni32  1  0.17053738  0.50399240  0.83779878  1
  Fe  Fe33  1  0.17254026  0.83787060  0.50366673  1
  Fe  Fe34  1  1.00444645  0.66984759  0.67182918  1
  Fe  Fe35  1  0.17046042  0.83679405  0.83860721  1
  Ni  Ni36  1  0.50368746  0.17076377  0.50482471  1
  Ni  Ni37  1  0.33750914  0.00519662  0.67025103  1
  Fe  Fe38  1  0.50520225  0.17187136  0.83766131  1
  Ni  Ni39  1  0.50403401  0.50462940  0.50531502  1
  Ni  Ni40  1  0.33750973  0.33709406  0.67146921  1
  Fe  Fe41  1  0.50541423  0.50499902  0.83740578  1
  Ni  Ni42  1  0.50517418  0.83821570  0.50497539  1
  Fe  Fe43  1  0.33835152  0.66993624  0.67079380  1
  Fe  Fe44  1  0.50507773  0.83673825  0.83799890  1
  Fe  Fe45  1  0.83740656  0.17159661  0.50414764  1
  Fe  Fe46  1  0.67051502  0.00518576  0.67100017  1
  Fe  Fe47  1  0.83799780  0.17207979  0.83825716  1
  Fe  Fe48  1  0.83733487  0.50407504  0.50516501  1
  Ni  Ni49  1  0.67121384  0.33832943  0.67083201  1
  Ni  Ni50  1  0.83854167  0.50547363  0.83726101  1
  Fe  Fe51  1  0.83746236  0.83794029  0.50420459  1
  Ni  Ni52  1  0.67156267  0.67087696  0.67126985  1
  Ni  Ni53  1  0.83706850  0.83694153  0.83828621  1
" 