6491,Ni46Fe54_0,-242.412265612294, 227.443929436168,Ni46Fe54,"# generated using pymatgen
 data_Fe4Ni5
_symmetry_space_group_name_H-M   'P 1'
_cell_length_a   7.40447312
_cell_length_b   7.40447312
_cell_length_c   10.47150631
_cell_angle_alpha   90.00000000
_cell_angle_beta   90.00000000
_cell_angle_gamma   90.00000000
_symmetry_Int_Tables_number   1
_chemical_formula_structural   Fe4Ni5
_chemical_formula_sum   'Fe24 Ni30'
_cell_volume   574.11313104
_cell_formula_units_Z   6
loop_
 _symmetry_equiv_pos_site_id
 _symmetry_equiv_pos_as_xyz
  1  'x, y, z'
loop_
 _atom_site_type_symbol
 _atom_site_label
 _atom_site_symmetry_multiplicity
 _atom_site_fract_x
 _atom_site_fract_y
 _atom_site_fract_z
 _atom_site_occupancy
  Ni  Ni0  1  1.00384359  0.00544885  1.00368439  1
  Ni  Ni1  1  0.17042777  0.17199250  0.17133039  1
  Fe  Fe2  1  1.00305365  0.00524842  0.33642259  1
  Ni  Ni3  1  1.00410797  0.33702584  1.00393293  1
  Ni  Ni4  1  0.17220596  0.50251867  0.17190887  1
  Ni  Ni5  1  0.00513570  0.33840843  0.33729990  1
  Fe  Fe6  1  0.00676681  0.67131265  1.00358597  1
  Fe  Fe7  1  0.17132331  0.83806151  0.16936861  1
  Fe  Fe8  1  1.00321802  0.67098832  0.33751287  1
  Ni  Ni9  1  0.33737851  1.00388261  1.00337241  1
  Fe  Fe10  1  0.50388975  0.17087316  0.17159375  1
  Ni  Ni11  1  0.33706862  1.00305577  0.33717639  1
  Ni  Ni12  1  0.33568515  0.33779470  0.00502877  1
  Ni  Ni13  1  0.50356831  0.50563730  0.17196026  1
  Fe  Fe14  1  0.33900401  0.33652806  0.33778377  1
  Ni  Ni15  1  0.33897071  0.67099862  1.00381972  1
  Ni  Ni16  1  0.50528888  0.83699450  0.17098880  1
  Fe  Fe17  1  0.33825083  0.67027582  0.33653592  1
  Fe  Fe18  1  0.67074456  0.00506568  1.00395697  1
  Ni  Ni19  1  0.83831544  0.16994230  0.17227171  1
  Ni  Ni20  1  0.66930323  1.00318560  0.33778670  1
  Fe  Fe21  1  0.67043073  0.33642228  0.00567413  1
  Fe  Fe22  1  0.83769368  0.50376844  0.17150315  1
  Ni  Ni23  1  0.67308304  0.33823794  0.33822395  1
  Fe  Fe24  1  0.67067914  0.67124190  0.00438466  1
  Ni  Ni25  1  0.83505475  0.83860764  0.17071569  1
  Ni  Ni26  1  0.67095491  0.67139450  0.33764501  1
  Ni  Ni27  1  0.17092167  0.17100713  0.50378261  1
  Fe  Fe28  1  1.00407658  0.00496205  0.67241536  1
  Ni  Ni29  1  0.17094731  0.17162020  0.83749919  1
  Ni  Ni30  1  0.17068815  0.50295883  0.50375125  1
  Ni  Ni31  1  0.00517840  0.33815942  0.67140385  1
  Ni  Ni32  1  0.17111019  0.50320973  0.83712092  1
  Fe  Fe33  1  0.17045450  0.83699628  0.50455942  1
  Fe  Fe34  1  1.00329955  0.66944697  0.67143241  1
  Ni  Ni35  1  0.17211593  0.83796603  0.83710407  1
  Fe  Fe36  1  0.50411222  0.17181801  0.50415927  1
  Fe  Fe37  1  0.33787595  0.00509291  0.67081134  1
  Fe  Fe38  1  0.50365240  0.17071189  0.83689953  1
  Fe  Fe39  1  0.50398582  0.50366869  0.50382671  1
  Ni  Ni40  1  0.33516475  0.33801416  0.67100630  1
  Fe  Fe41  1  0.50395252  0.50429891  0.83831387  1
  Fe  Fe42  1  0.50385067  0.83694935  0.50387305  1
  Fe  Fe43  1  0.33777343  0.66995520  0.67203417  1
  Ni  Ni44  1  0.50471415  0.83764667  0.83730340  1
  Fe  Fe45  1  0.83875993  0.17226188  0.50408442  1
  Ni  Ni46  1  0.67089306  1.00199076  0.67031384  1
  Ni  Ni47  1  0.83769870  0.17124402  0.83611735  1
  Ni  Ni48  1  0.83749767  0.50485930  0.50362927  1
  Fe  Fe49  1  0.67150966  0.33811600  0.67019895  1
  Ni  Ni50  1  0.83742345  0.50376597  0.83855453  1
  Fe  Fe51  1  0.83816703  0.83713429  0.50408812  1
  Ni  Ni52  1  0.67084641  0.67167864  0.67091827  1
  Ni  Ni53  1  0.83605727  0.83772913  0.83750466  1
" 