8487,Ni46Fe54_13,-242.589520801622, 229.855040124006,Ni46Fe54,"# generated using pymatgen
 data_Fe4Ni5
_symmetry_space_group_name_H-M   'P 1'
_cell_length_a   7.40284746
_cell_length_b   7.40284746
_cell_length_c   10.46920728
_cell_angle_alpha   90.00000000
_cell_angle_beta   90.00000000
_cell_angle_gamma   90.00000000
_symmetry_Int_Tables_number   1
_chemical_formula_structural   Fe4Ni5
_chemical_formula_sum   'Fe24 Ni30'
_cell_volume   573.73507382
_cell_formula_units_Z   6
loop_
 _symmetry_equiv_pos_site_id
 _symmetry_equiv_pos_as_xyz
  1  'x, y, z'
loop_
 _atom_site_type_symbol
 _atom_site_label
 _atom_site_symmetry_multiplicity
 _atom_site_fract_x
 _atom_site_fract_y
 _atom_site_fract_z
 _atom_site_occupancy
  Fe  Fe0  1  0.00551090  1.00354400  0.00499059  1
  Ni  Ni1  1  0.17140289  0.16948921  0.16938410  1
  Ni  Ni2  1  0.00518510  0.00728145  0.33673447  1
  Fe  Fe3  1  1.00413965  0.33680689  1.00392702  1
  Fe  Fe4  1  0.17136821  0.50318290  0.17052418  1
  Ni  Ni5  1  1.00421031  0.33721927  0.33598411  1
  Ni  Ni6  1  1.00374470  0.66962396  0.00561780  1
  Ni  Ni7  1  0.17375902  0.83757141  0.17165665  1
  Fe  Fe8  1  0.00486434  0.67105308  0.33630608  1
  Ni  Ni9  1  0.33862764  0.00530551  1.00408721  1
  Ni  Ni10  1  0.50457816  0.16905465  0.17228061  1
  Ni  Ni11  1  0.33699774  1.00432442  0.33762489  1
  Ni  Ni12  1  0.33673279  0.33713813  0.00459893  1
  Fe  Fe13  1  0.50398343  0.50279393  0.17087605  1
  Fe  Fe14  1  0.33576000  0.33702198  0.33674590  1
  Fe  Fe15  1  0.33668782  0.67212245  1.00386968  1
  Ni  Ni16  1  0.50278694  0.83781186  0.16957245  1
  Ni  Ni17  1  0.33935723  0.67153541  0.33632383  1
  Ni  Ni18  1  0.67062274  1.00421830  0.00527327  1
  Ni  Ni19  1  0.83682818  0.17327869  0.17069863  1
  Fe  Fe20  1  0.67088050  1.00329718  0.33750535  1
  Fe  Fe21  1  0.67032137  0.33668957  1.00409339  1
  Ni  Ni22  1  0.83716760  0.50323117  0.17052908  1
  Fe  Fe23  1  0.67147019  0.33763509  0.33812086  1
  Fe  Fe24  1  0.67053623  0.67075654  0.00477707  1
  Fe  Fe25  1  0.83793825  0.83929486  0.17096618  1
  Ni  Ni26  1  0.67068918  0.67040498  0.33681933  1
  Ni  Ni27  1  0.17038382  0.17192422  0.50581281  1
  Fe  Fe28  1  1.00306473  0.00492169  0.67057872  1
  Fe  Fe29  1  0.17000995  0.17155046  0.83757683  1
  Ni  Ni30  1  0.16998113  0.50473236  0.50413631  1
  Ni  Ni31  1  0.00457217  0.33803323  0.67249963  1
  Ni  Ni32  1  0.17040878  0.50604273  0.83838391  1
  Fe  Fe33  1  0.17091796  0.83785022  0.50375105  1
  Fe  Fe34  1  1.00405461  0.67051346  0.67264618  1
  Ni  Ni35  1  0.17385670  0.83772902  0.83697465  1
  Fe  Fe36  1  0.50371611  0.17148456  0.50441897  1
  Ni  Ni37  1  0.33779371  1.00408690  0.67135336  1
  Fe  Fe38  1  0.50422621  0.17117868  0.83842385  1
  Fe  Fe39  1  0.50429220  0.50492340  0.50476041  1
  Fe  Fe40  1  0.33848562  0.33837349  0.67191159  1
  Fe  Fe41  1  0.50398042  0.50375825  0.83741578  1
  Ni  Ni42  1  0.50321846  0.83745189  0.50469061  1
  Ni  Ni43  1  0.33778397  0.67145251  0.67140031  1
  Fe  Fe44  1  0.50575113  0.83815363  0.83721881  1
  Ni  Ni45  1  0.83794115  0.17270621  0.50383813  1
  Ni  Ni46  1  0.67042315  0.00472755  0.67006862  1
  Ni  Ni47  1  0.83578773  0.17126357  0.83801409  1
  Ni  Ni48  1  0.83863725  0.50369371  0.50536469  1
  Ni  Ni49  1  0.67333584  0.33762321  0.67099095  1
  Ni  Ni50  1  0.83749064  0.50285677  0.83759698  1
  Fe  Fe51  1  0.83760545  0.83735320  0.50388128  1
  Ni  Ni52  1  0.67105745  0.67067152  0.67211361  1
  Fe  Fe53  1  0.83922620  0.83741032  0.83844387  1
" 