2692,Ni46Fe54_2,-242.017761621918, 226.068449212443,Ni46Fe54,"# generated using pymatgen
 data_Fe4Ni5
_symmetry_space_group_name_H-M   'P 1'
_cell_length_a   7.40402934
_cell_length_b   7.40402934
_cell_length_c   10.47087871
_cell_angle_alpha   90.00000000
_cell_angle_beta   90.00000000
_cell_angle_gamma   90.00000000
_symmetry_Int_Tables_number   1
_chemical_formula_structural   Fe4Ni5
_chemical_formula_sum   'Fe24 Ni30'
_cell_volume   574.00991168
_cell_formula_units_Z   6
loop_
 _symmetry_equiv_pos_site_id
 _symmetry_equiv_pos_as_xyz
  1  'x, y, z'
loop_
 _atom_site_type_symbol
 _atom_site_label
 _atom_site_symmetry_multiplicity
 _atom_site_fract_x
 _atom_site_fract_y
 _atom_site_fract_z
 _atom_site_occupancy
  Fe  Fe0  1  0.00477592  1.00403293  0.00508196  1
  Ni  Ni1  1  0.17010665  0.17034132  0.17021607  1
  Ni  Ni2  1  0.00431012  0.00542332  0.33840528  1
  Ni  Ni3  1  0.00581113  0.33708802  1.00370259  1
  Ni  Ni4  1  0.17012131  0.50397006  0.17116157  1
  Ni  Ni5  1  0.00658421  0.33730668  0.33751063  1
  Fe  Fe6  1  0.00500329  0.66976662  0.00444262  1
  Ni  Ni7  1  0.17172512  0.83846992  0.17129843  1
  Fe  Fe8  1  1.00286606  0.67131589  0.33815690  1
  Fe  Fe9  1  0.33738028  1.00416400  1.00330648  1
  Fe  Fe10  1  0.50267524  0.17176603  0.16997864  1
  Fe  Fe11  1  0.33721006  1.00400973  0.33825146  1
  Ni  Ni12  1  0.33613782  0.33788366  1.00417030  1
  Ni  Ni13  1  0.50571603  0.50494706  0.17068767  1
  Fe  Fe14  1  0.33758570  0.33691249  0.33694021  1
  Fe  Fe15  1  0.33737988  0.66958468  0.00426657  1
  Ni  Ni16  1  0.50417056  0.83806580  0.16942017  1
  Fe  Fe17  1  0.33712501  0.67198459  0.33705851  1
  Fe  Fe18  1  0.67073617  0.00562261  1.00396845  1
  Fe  Fe19  1  0.83850161  0.17124095  0.17214831  1
  Ni  Ni20  1  0.67041461  1.00189072  0.33689520  1
  Fe  Fe21  1  0.67076668  0.33912992  1.00332267  1
  Ni  Ni22  1  0.83705479  0.50282516  0.17047047  1
  Fe  Fe23  1  0.67293086  0.33715338  0.33829686  1
  Ni  Ni24  1  0.67035828  0.67304808  1.00366305  1
  Fe  Fe25  1  0.83806995  0.83562805  0.17182890  1
  Ni  Ni26  1  0.66970760  0.67183096  0.33849867  1
  Ni  Ni27  1  0.17010805  0.17130881  0.50548546  1
  Fe  Fe28  1  0.00438993  0.00571493  0.66968021  1
  Fe  Fe29  1  0.17364932  0.17122956  0.83732332  1
  Ni  Ni30  1  0.17000260  0.50357750  0.50337423  1
  Ni  Ni31  1  0.00534670  0.33889344  0.67177074  1
  Ni  Ni32  1  0.17059641  0.50451445  0.83804305  1
  Ni  Ni33  1  0.17155303  0.83813143  0.50425227  1
  Fe  Fe34  1  0.00511277  0.67083926  0.67025223  1
  Ni  Ni35  1  0.17088656  0.83778557  0.83715843  1
  Fe  Fe36  1  0.50457904  0.17010759  0.50601900  1
  Ni  Ni37  1  0.33807920  1.00376322  0.67114809  1
  Ni  Ni38  1  0.50570834  0.17110234  0.83745568  1
  Fe  Fe39  1  0.50400811  0.50451573  0.50435189  1
  Ni  Ni40  1  0.33637074  0.33761804  0.67096045  1
  Ni  Ni41  1  0.50402239  0.50351993  0.83732199  1
  Ni  Ni42  1  0.50426617  0.83820652  0.50533820  1
  Fe  Fe43  1  0.33753573  0.67017463  0.67129434  1
  Ni  Ni44  1  0.50374120  0.83810930  0.83772699  1
  Ni  Ni45  1  0.83718158  0.17144331  0.50432088  1
  Ni  Ni46  1  0.67026003  1.00239700  0.67109922  1
  Fe  Fe47  1  0.83786419  0.17131829  0.83620198  1
  Ni  Ni48  1  0.83773116  0.50305833  0.50487527  1
  Ni  Ni49  1  0.67118917  0.33743659  0.67103242  1
  Fe  Fe50  1  0.83706897  0.50462478  0.83788165  1
  Ni  Ni51  1  0.83670721  0.83818161  0.50463008  1
  Fe  Fe52  1  0.66986519  0.66990075  0.67071283  1
  Fe  Fe53  1  0.83675763  0.83693082  0.83694681  1
" 