4012,Ni46Fe54_10,-242.242800681751, 227.900224866501,Ni46Fe54,"# generated using pymatgen
 data_Fe4Ni5
_symmetry_space_group_name_H-M   'P 1'
_cell_length_a   7.40642180
_cell_length_b   7.40642180
_cell_length_c   10.47426216
_cell_angle_alpha   90.00000000
_cell_angle_beta   90.00000000
_cell_angle_gamma   90.00000000
_symmetry_Int_Tables_number   1
_chemical_formula_structural   Fe4Ni5
_chemical_formula_sum   'Fe24 Ni30'
_cell_volume   574.56652919
_cell_formula_units_Z   6
loop_
 _symmetry_equiv_pos_site_id
 _symmetry_equiv_pos_as_xyz
  1  'x, y, z'
loop_
 _atom_site_type_symbol
 _atom_site_label
 _atom_site_symmetry_multiplicity
 _atom_site_fract_x
 _atom_site_fract_y
 _atom_site_fract_z
 _atom_site_occupancy
  Fe  Fe0  1  0.00508781  0.00515858  1.00398033  1
  Ni  Ni1  1  0.17102703  0.16962633  0.17021666  1
  Fe  Fe2  1  1.00397958  1.00339194  0.33768658  1
  Ni  Ni3  1  1.00363788  0.33763338  1.00395630  1
  Fe  Fe4  1  0.17094266  0.50486716  0.16991473  1
  Fe  Fe5  1  1.00314034  0.33786943  0.33721042  1
  Fe  Fe6  1  0.00445934  0.66980415  0.00409603  1
  Ni  Ni7  1  0.17253067  0.83875390  0.16999673  1
  Ni  Ni8  1  0.00454156  0.67072752  0.33761838  1
  Ni  Ni9  1  0.33769056  1.00326164  1.00399257  1
  Fe  Fe10  1  0.50387100  0.17002346  0.17080226  1
  Ni  Ni11  1  0.33783303  1.00333134  0.33744417  1
  Ni  Ni12  1  0.33685934  0.33761057  0.00471836  1
  Fe  Fe13  1  0.50350555  0.50453640  0.17116848  1
  Fe  Fe14  1  0.33849904  0.33754321  0.33771913  1
  Ni  Ni15  1  0.33653063  0.67140753  0.00452118  1
  Ni  Ni16  1  0.50287348  0.83796166  0.17055532  1
  Ni  Ni17  1  0.33669732  0.67191791  0.33749741  1
  Ni  Ni18  1  0.67059559  0.00474586  0.00440224  1
  Fe  Fe19  1  0.83727881  0.17039133  0.17087449  1
  Ni  Ni20  1  0.67021371  0.00483064  0.33781397  1
  Ni  Ni21  1  0.67177995  0.33648018  1.00408533  1
  Ni  Ni22  1  0.83722883  0.50353907  0.17033301  1
  Ni  Ni23  1  0.67140327  0.33672172  0.33737085  1
  Fe  Fe24  1  0.67005520  0.67012545  0.00424344  1
  Fe  Fe25  1  0.83760693  0.83753368  0.17112834  1
  Ni  Ni26  1  0.67103898  0.67072557  0.33714282  1
  Fe  Fe27  1  0.17124035  0.17116903  0.50412362  1
  Ni  Ni28  1  1.00391674  0.00418509  0.67059498  1
  Fe  Fe29  1  0.17020898  0.17212422  0.83797929  1
  Fe  Fe30  1  0.17138004  0.50405462  0.50515994  1
  Ni  Ni31  1  1.00357386  0.33703149  0.67040028  1
  Ni  Ni32  1  0.16955721  0.50391216  0.83783909  1
  Fe  Fe33  1  0.17112659  0.83705649  0.50361481  1
  Ni  Ni34  1  0.00426021  0.67106217  0.67082024  1
  Fe  Fe35  1  0.17036040  0.83621228  0.83761438  1
  Ni  Ni36  1  0.50434229  0.16979984  0.50400394  1
  Fe  Fe37  1  0.33728240  1.00409193  0.67032126  1
  Fe  Fe38  1  0.50416305  0.17216083  0.83760423  1
  Ni  Ni39  1  0.50502741  0.50480723  0.50460718  1
  Ni  Ni40  1  0.33762645  0.33783835  0.67063923  1
  Fe  Fe41  1  0.50372787  0.50387136  0.83672760  1
  Ni  Ni42  1  0.50317536  0.83767103  0.50444565  1
  Ni  Ni43  1  0.33728213  0.67060309  0.67026089  1
  Fe  Fe44  1  0.50394157  0.83624414  0.83786171  1
  Ni  Ni45  1  0.83738619  0.17196522  0.50436214  1
  Fe  Fe46  1  0.67104877  0.00424316  0.67024152  1
  Fe  Fe47  1  0.83790648  0.17191096  0.83701669  1
  Ni  Ni48  1  0.83738383  0.50331973  0.50512687  1
  Ni  Ni49  1  0.67107971  0.33749160  0.67082306  1
  Ni  Ni50  1  0.83830192  0.50356639  0.83681557  1
  Fe  Fe51  1  0.83609223  0.83719445  0.50423667  1
  Ni  Ni52  1  0.67073487  0.67025791  0.67036584  1
  Fe  Fe53  1  0.83797549  0.83664607  0.83691430  1
" 