7793,Ni46Fe54_16,-242.275872766541, 226.499820444156,Ni46Fe54,"# generated using pymatgen
 data_Fe4Ni5
_symmetry_space_group_name_H-M   'P 1'
_cell_length_a   7.40433184
_cell_length_b   7.40433184
_cell_length_c   10.47130651
_cell_angle_alpha   90.00000000
_cell_angle_beta   90.00000000
_cell_angle_gamma   90.00000000
_symmetry_Int_Tables_number   1
_chemical_formula_structural   Fe4Ni5
_chemical_formula_sum   'Fe24 Ni30'
_cell_volume   574.08027033
_cell_formula_units_Z   6
loop_
 _symmetry_equiv_pos_site_id
 _symmetry_equiv_pos_as_xyz
  1  'x, y, z'
loop_
 _atom_site_type_symbol
 _atom_site_label
 _atom_site_symmetry_multiplicity
 _atom_site_fract_x
 _atom_site_fract_y
 _atom_site_fract_z
 _atom_site_occupancy
  Ni  Ni0  1  1.00306013  1.00360693  1.00393790  1
  Ni  Ni1  1  0.17152155  0.16975612  0.17076887  1
  Ni  Ni2  1  1.00308055  1.00366894  0.33806920  1
  Fe  Fe3  1  0.00478527  0.33495442  0.00431068  1
  Fe  Fe4  1  0.17032642  0.50336331  0.17185211  1
  Ni  Ni5  1  1.00318270  0.33710264  0.33734446  1
  Fe  Fe6  1  0.00524435  0.67166060  0.00511048  1
  Ni  Ni7  1  0.16994411  0.83757076  0.17179098  1
  Ni  Ni8  1  0.00457359  0.67161465  0.33837150  1
  Ni  Ni9  1  0.33697279  1.00299681  1.00273421  1
  Ni  Ni10  1  0.50402739  0.17318800  0.16990364  1
  Ni  Ni11  1  0.33788767  1.00373875  0.33806467  1
  Ni  Ni12  1  0.33870669  0.33944049  1.00419647  1
  Fe  Fe13  1  0.50459490  0.50385174  0.17086988  1
  Ni  Ni14  1  0.33850229  0.33821966  0.33692136  1
  Ni  Ni15  1  0.33671533  0.67036148  0.00506811  1
  Fe  Fe16  1  0.50341898  0.84070462  0.16963255  1
  Ni  Ni17  1  0.33818545  0.67100528  0.33708130  1
  Ni  Ni18  1  0.67257971  0.00517841  0.00466258  1
  Ni  Ni19  1  0.83719732  0.17052027  0.17265325  1
  Fe  Fe20  1  0.67047522  0.00474965  0.33791860  1
  Ni  Ni21  1  0.67166220  0.33720575  1.00276905  1
  Fe  Fe22  1  0.83804044  0.50281818  0.17140499  1
  Ni  Ni23  1  0.67069489  0.33719134  0.33869074  1
  Fe  Fe24  1  0.66911610  0.67173523  1.00379326  1
  Ni  Ni25  1  0.83898760  0.83714669  0.17006351  1
  Fe  Fe26  1  0.67163796  0.67106420  0.33812334  1
  Fe  Fe27  1  0.17094593  0.17169901  0.50328334  1
  Ni  Ni28  1  1.00228021  0.00458790  0.67082861  1
  Fe  Fe29  1  0.17161652  0.17047563  0.83792151  1
  Fe  Fe30  1  0.17124177  0.50361851  0.50368781  1
  Ni  Ni31  1  1.00417887  0.33714584  0.67095163  1
  Fe  Fe32  1  0.17192884  0.50468145  0.83713109  1
  Fe  Fe33  1  0.17243969  0.83765747  0.50408379  1
  Fe  Fe34  1  0.00522242  0.67112917  0.66990539  1
  Ni  Ni35  1  0.16997246  0.83685376  0.83647750  1
  Ni  Ni36  1  0.50334160  0.17312244  0.50574338  1
  Fe  Fe37  1  0.33675635  0.00527506  0.67100787  1
  Fe  Fe38  1  0.50443623  0.16945656  0.83785038  1
  Ni  Ni39  1  0.50345558  0.50329234  0.50385111  1
  Ni  Ni40  1  0.33729616  0.34020451  0.67154934  1
  Ni  Ni41  1  0.50414505  0.50402390  0.83727021  1
  Fe  Fe42  1  0.50513962  0.83784134  0.50555230  1
  Ni  Ni43  1  0.33824801  0.66992667  0.67017108  1
  Ni  Ni44  1  0.50270735  0.83553415  0.83678778  1
  Fe  Fe45  1  0.83660667  0.17098937  0.50471686  1
  Ni  Ni46  1  0.67179902  1.00373236  0.67126969  1
  Ni  Ni47  1  0.83821154  0.17153298  0.83707555  1
  Fe  Fe48  1  0.83694297  0.50356534  0.50364038  1
  Fe  Fe49  1  0.67039108  0.33701088  0.67132488  1
  Fe  Fe50  1  0.83743528  0.50480302  0.83760942  1
  Ni  Ni51  1  0.83985780  0.83739154  0.50499751  1
  Fe  Fe52  1  0.67070677  0.67034465  0.67048291  1
  Fe  Fe53  1  0.83626853  0.83838317  0.83741489  1
" 