6474,Ni46Fe54_9,-241.834052390336, 225.0174484065,Ni46Fe54,"# generated using pymatgen
 data_Fe4Ni5
_symmetry_space_group_name_H-M   'P 1'
_cell_length_a   7.39890473
_cell_length_b   7.39890473
_cell_length_c   10.46363142
_cell_angle_alpha   90.00000000
_cell_angle_beta   90.00000000
_cell_angle_gamma   90.00000000
_symmetry_Int_Tables_number   1
_chemical_formula_structural   Fe4Ni5
_chemical_formula_sum   'Fe24 Ni30'
_cell_volume   572.81885402
_cell_formula_units_Z   6
loop_
 _symmetry_equiv_pos_site_id
 _symmetry_equiv_pos_as_xyz
  1  'x, y, z'
loop_
 _atom_site_type_symbol
 _atom_site_label
 _atom_site_symmetry_multiplicity
 _atom_site_fract_x
 _atom_site_fract_y
 _atom_site_fract_z
 _atom_site_occupancy
  Fe  Fe0  1  1.00390971  1.00420572  1.00424930  1
  Fe  Fe1  1  0.17120924  0.17147696  0.17163051  1
  Fe  Fe2  1  1.00373999  0.00475181  0.33801011  1
  Fe  Fe3  1  1.00350685  0.33888628  0.00528402  1
  Ni  Ni4  1  0.17099741  0.50547585  0.17128152  1
  Ni  Ni5  1  1.00364505  0.33838856  0.33786209  1
  Ni  Ni6  1  1.00454215  0.67155491  1.00434595  1
  Ni  Ni7  1  0.17330073  0.83697618  0.17103292  1
  Ni  Ni8  1  1.00364507  0.67047421  0.33836006  1
  Fe  Fe9  1  0.33890185  1.00329772  0.00467874  1
  Fe  Fe10  1  0.50453535  0.17146209  0.17153833  1
  Ni  Ni11  1  0.33785656  0.00530656  0.33756606  1
  Ni  Ni12  1  0.33808328  0.33713900  0.00479019  1
  Fe  Fe13  1  0.50487937  0.50494708  0.17125026  1
  Fe  Fe14  1  0.33807189  0.33860034  0.33782312  1
  Ni  Ni15  1  0.33693815  0.67145242  1.00454224  1
  Ni  Ni16  1  0.50268858  0.83813000  0.17163163  1
  Fe  Fe17  1  0.33786287  0.67082063  0.33737722  1
  Ni  Ni18  1  0.67128631  0.00521689  1.00459681  1
  Ni  Ni19  1  0.83747309  0.17286498  0.17163006  1
  Fe  Fe20  1  0.67200337  0.00496312  0.33767387  1
  Ni  Ni21  1  0.67118925  0.33703916  1.00449378  1
  Ni  Ni22  1  0.83862929  0.50281612  0.17143159  1
  Ni  Ni23  1  0.67231070  0.33803732  0.33806171  1
  Ni  Ni24  1  0.67233590  0.67155830  1.00434578  1
  Fe  Fe25  1  0.83827912  0.83683971  0.17113709  1
  Ni  Ni26  1  0.67266832  0.67047069  0.33775942  1
  Fe  Fe27  1  0.17123194  0.17153419  0.50447204  1
  Fe  Fe28  1  1.00454763  1.00310839  0.67155672  1
  Fe  Fe29  1  0.17087130  0.17038388  0.83771442  1
  Fe  Fe30  1  0.17037748  0.50432654  0.50420647  1
  Fe  Fe31  1  1.00439509  0.33867893  0.67079682  1
  Fe  Fe32  1  0.17058995  0.50596946  0.83861722  1
  Fe  Fe33  1  0.17106893  0.83795724  0.50488517  1
  Ni  Ni34  1  1.00386830  0.67107823  0.67111164  1
  Ni  Ni35  1  0.17287736  0.83748958  0.83816989  1
  Ni  Ni36  1  0.50456832  0.17178371  0.50451575  1
  Ni  Ni37  1  0.33794624  0.00500288  0.67225506  1
  Fe  Fe38  1  0.50534566  0.17038417  0.83788064  1
  Ni  Ni39  1  0.50422895  0.50409488  0.50416363  1
  Fe  Fe40  1  0.33827905  0.33888611  0.67125493  1
  Fe  Fe41  1  0.50541861  0.50576145  0.83780916  1
  Fe  Fe42  1  0.50575664  0.83788437  0.50481111  1
  Ni  Ni43  1  0.33759814  0.67257786  0.67080766  1
  Ni  Ni44  1  0.50291741  0.83783898  0.83722182  1
  Ni  Ni45  1  0.83743985  0.17169227  0.50476909  1
  Fe  Fe46  1  0.67127039  1.00331996  0.67181780  1
  Ni  Ni47  1  0.83767014  0.17226441  0.83741504  1
  Ni  Ni48  1  0.83778464  0.50419166  0.50451498  1
  Fe  Fe49  1  0.67113920  0.33875242  0.67070304  1
  Ni  Ni50  1  0.83802147  0.50370276  0.83786728  1
  Ni  Ni51  1  0.83859467  0.83792902  0.50431662  1
  Ni  Ni52  1  0.67234818  0.67107283  0.67170933  1
  Ni  Ni53  1  0.83802120  0.83784743  0.83891853  1
" 