2052,Ni46Fe54_15,-241.673282912575, 226.561709752668,Ni46Fe54,"# generated using pymatgen
 data_Fe4Ni5
_symmetry_space_group_name_H-M   'P 1'
_cell_length_a   7.39843975
_cell_length_b   7.39843975
_cell_length_c   10.46297384
_cell_angle_alpha   90.00000000
_cell_angle_beta   90.00000000
_cell_angle_gamma   90.00000000
_symmetry_Int_Tables_number   1
_chemical_formula_structural   Fe4Ni5
_chemical_formula_sum   'Fe24 Ni30'
_cell_volume   572.71086513
_cell_formula_units_Z   6
loop_
 _symmetry_equiv_pos_site_id
 _symmetry_equiv_pos_as_xyz
  1  'x, y, z'
loop_
 _atom_site_type_symbol
 _atom_site_label
 _atom_site_symmetry_multiplicity
 _atom_site_fract_x
 _atom_site_fract_y
 _atom_site_fract_z
 _atom_site_occupancy
  Fe  Fe0  1  1.00447777  0.00483711  0.00499778  1
  Ni  Ni1  1  0.17186629  0.17186196  0.17138631  1
  Ni  Ni2  1  1.00376662  0.00527453  0.33777858  1
  Fe  Fe3  1  0.00501707  0.33827231  1.00434035  1
  Fe  Fe4  1  0.17224783  0.50485039  0.17114707  1
  Ni  Ni5  1  0.00498723  0.33648514  0.33730041  1
  Ni  Ni6  1  0.00584633  0.67234057  0.00511974  1
  Fe  Fe7  1  0.17172459  0.83739787  0.17196682  1
  Fe  Fe8  1  0.00534068  0.67096183  0.33789111  1
  Fe  Fe9  1  0.33893134  0.00523394  1.00455593  1
  Ni  Ni10  1  0.50318616  0.17149030  0.17171011  1
  Fe  Fe11  1  0.33664596  0.00551490  0.33791237  1
  Ni  Ni12  1  0.33908587  0.33843179  1.00433005  1
  Ni  Ni13  1  0.50526529  0.50481073  0.17070434  1
  Ni  Ni14  1  0.33781154  0.33893727  0.33846633  1
  Ni  Ni15  1  0.33701805  0.67112118  0.00464358  1
  Ni  Ni16  1  0.50601498  0.83761036  0.17186434  1
  Ni  Ni17  1  0.33829118  0.67092191  0.33777989  1
  Ni  Ni18  1  0.67178537  0.00594503  0.00465038  1
  Fe  Fe19  1  0.83681328  0.17122005  0.17104345  1
  Fe  Fe20  1  0.67110162  0.00475877  0.33673642  1
  Ni  Ni21  1  0.67056679  0.33561341  0.00512288  1
  Ni  Ni22  1  0.83762828  0.50603685  0.17138853  1
  Fe  Fe23  1  0.67086099  0.33849048  0.33761141  1
  Fe  Fe24  1  0.67096361  0.67140282  0.00489213  1
  Ni  Ni25  1  0.83725750  0.83676401  0.17160062  1
  Fe  Fe26  1  0.67122273  0.67066117  0.33781689  1
  Ni  Ni27  1  0.17081557  0.17175123  0.50537036  1
  Fe  Fe28  1  1.00427388  1.00435706  0.67078716  1
  Ni  Ni29  1  0.17112842  0.17301066  0.83715146  1
  Ni  Ni30  1  0.17167181  0.50416319  0.50377975  1
  Ni  Ni31  1  1.00400085  0.33738182  0.67169249  1
  Ni  Ni32  1  0.17111646  0.50363270  0.83751969  1
  Ni  Ni33  1  0.17045223  0.83799804  0.50499236  1
  Ni  Ni34  1  0.00560413  0.67158661  0.67016205  1
  Fe  Fe35  1  0.17130249  0.83801250  0.83738844  1
  Fe  Fe36  1  0.50335707  0.17217998  0.50463683  1
  Fe  Fe37  1  0.33782966  1.00441919  0.67144319  1
  Ni  Ni38  1  0.50454563  0.17093570  0.83757367  1
  Ni  Ni39  1  0.50449525  0.50492021  0.50505014  1
  Fe  Fe40  1  0.33752997  0.33933728  0.67122056  1
  Fe  Fe41  1  0.50461598  0.50405594  0.83780988  1
  Fe  Fe42  1  0.50282164  0.83679453  0.50493547  1
  Ni  Ni43  1  0.33767241  0.67207288  0.67148447  1
  Ni  Ni44  1  0.50650558  0.83775949  0.83768892  1
  Fe  Fe45  1  0.83934446  0.17223798  0.50513395  1
  Fe  Fe46  1  0.67180423  1.00397927  0.67283419  1
  Ni  Ni47  1  0.83823735  0.17056559  0.83853080  1
  Fe  Fe48  1  0.83910908  0.50425729  0.50487528  1
  Ni  Ni49  1  0.67185840  0.33699821  0.67111174  1
  Fe  Fe50  1  0.83807112  0.50397946  0.83787204  1
  Fe  Fe51  1  0.83919779  0.83741062  0.50477457  1
  Ni  Ni52  1  0.67063402  0.67158840  0.67232415  1
  Ni  Ni53  1  0.83665834  0.83774622  0.83747736  1
" 