2325,Ni46Fe54_7,-242.395784357561, 229.873791260057,Ni46Fe54,"# generated using pymatgen
 data_Fe4Ni5
_symmetry_space_group_name_H-M   'P 1'
_cell_length_a   7.40369582
_cell_length_b   7.40369582
_cell_length_c   10.47040704
_cell_angle_alpha   90.00000000
_cell_angle_beta   90.00000000
_cell_angle_gamma   90.00000000
_symmetry_Int_Tables_number   1
_chemical_formula_structural   Fe4Ni5
_chemical_formula_sum   'Fe24 Ni30'
_cell_volume   573.93234410
_cell_formula_units_Z   6
loop_
 _symmetry_equiv_pos_site_id
 _symmetry_equiv_pos_as_xyz
  1  'x, y, z'
loop_
 _atom_site_type_symbol
 _atom_site_label
 _atom_site_symmetry_multiplicity
 _atom_site_fract_x
 _atom_site_fract_y
 _atom_site_fract_z
 _atom_site_occupancy
  Fe  Fe0  1  1.00371136  1.00399360  0.00441872  1
  Ni  Ni1  1  0.17050760  0.17140709  0.17133551  1
  Ni  Ni2  1  1.00302924  1.00302168  0.33698946  1
  Fe  Fe3  1  1.00420004  0.33761445  0.00441611  1
  Fe  Fe4  1  0.17158654  0.50399115  0.17075867  1
  Fe  Fe5  1  0.00482745  0.33751291  0.33754100  1
  Ni  Ni6  1  1.00326309  0.67179417  0.00477047  1
  Fe  Fe7  1  0.17091785  0.83808546  0.17125539  1
  Ni  Ni8  1  1.00382383  0.67241512  0.33728907  1
  Fe  Fe9  1  0.33832471  1.00398508  1.00352602  1
  Ni  Ni10  1  0.50349501  0.17173279  0.17156380  1
  Fe  Fe11  1  0.33677995  1.00388035  0.33744374  1
  Ni  Ni12  1  0.33841755  0.33698377  1.00410848  1
  Ni  Ni13  1  0.50348296  0.50463671  0.17094426  1
  Ni  Ni14  1  0.33910583  0.33787488  0.33785495  1
  Fe  Fe15  1  0.33864889  0.67091074  0.00438690  1
  Ni  Ni16  1  0.50497865  0.83646265  0.17122870  1
  Ni  Ni17  1  0.33730353  0.66946510  0.33719268  1
  Ni  Ni18  1  0.67102087  1.00392514  1.00388272  1
  Ni  Ni19  1  0.83883502  0.16991009  0.17108002  1
  Fe  Fe20  1  0.67140011  1.00374139  0.33657355  1
  Fe  Fe21  1  0.67048306  0.33793870  1.00409538  1
  Fe  Fe22  1  0.83699394  0.50444953  0.17113399  1
  Fe  Fe23  1  0.67106085  0.33815010  0.33836317  1
  Ni  Ni24  1  0.67215451  0.67192748  0.00444941  1
  Ni  Ni25  1  0.83771134  0.83792789  0.17169431  1
  Fe  Fe26  1  0.67073270  0.67094209  0.33721538  1
  Fe  Fe27  1  0.17026387  0.17112779  0.50441802  1
  Ni  Ni28  1  0.00429037  1.00244058  0.67173302  1
  Ni  Ni29  1  0.17111165  0.17139524  0.83705337  1
  Fe  Fe30  1  0.17014934  0.50463106  0.50432365  1
  Fe  Fe31  1  0.00467747  0.33700115  0.67087367  1
  Ni  Ni32  1  0.17176217  0.50374473  0.83693389  1
  Fe  Fe33  1  0.16948061  0.83707302  0.50467404  1
  Ni  Ni34  1  1.00348730  0.67240983  0.67077389  1
  Ni  Ni35  1  0.16995356  0.83769322  0.83776844  1
  Fe  Fe36  1  0.50536717  0.17193989  0.50484359  1
  Ni  Ni37  1  0.33725492  0.00571692  0.67097297  1
  Ni  Ni38  1  0.50336059  0.17173129  0.83748690  1
  Ni  Ni39  1  0.50371942  0.50426637  0.50444349  1
  Ni  Ni40  1  0.33952622  0.33685578  0.67087249  1
  Ni  Ni41  1  0.50337559  0.50406673  0.83745232  1
  Fe  Fe42  1  0.50521921  0.83718517  0.50413514  1
  Fe  Fe43  1  0.33746157  0.67080211  0.67097369  1
  Ni  Ni44  1  0.50484664  0.83703779  0.83716098  1
  Ni  Ni45  1  0.83882429  0.17032073  0.50440777  1
  Fe  Fe46  1  0.67116401  0.00456435  0.67155789  1
  Fe  Fe47  1  0.83732517  0.17030352  0.83732563  1
  Ni  Ni48  1  0.83734254  0.50461658  0.50402887  1
  Ni  Ni49  1  0.66914565  0.33765284  0.67176051  1
  Fe  Fe50  1  0.83775390  0.50527872  0.83713906  1
  Ni  Ni51  1  0.83850411  0.83789697  0.50410547  1
  Fe  Fe52  1  0.67083335  0.67091477  0.67126891  1
  Ni  Ni53  1  0.83803585  0.83768574  0.83703351  1
" 