4794,Ni46Fe54_14,-242.028132291124, 226.934497568943,Ni46Fe54,"# generated using pymatgen
 data_Fe4Ni5
_symmetry_space_group_name_H-M   'P 1'
_cell_length_a   7.40235623
_cell_length_b   7.40235623
_cell_length_c   10.46851257
_cell_angle_alpha   90.00000000
_cell_angle_beta   90.00000000
_cell_angle_gamma   90.00000000
_symmetry_Int_Tables_number   1
_chemical_formula_structural   Fe4Ni5
_chemical_formula_sum   'Fe24 Ni30'
_cell_volume   573.62086649
_cell_formula_units_Z   6
loop_
 _symmetry_equiv_pos_site_id
 _symmetry_equiv_pos_as_xyz
  1  'x, y, z'
loop_
 _atom_site_type_symbol
 _atom_site_label
 _atom_site_symmetry_multiplicity
 _atom_site_fract_x
 _atom_site_fract_y
 _atom_site_fract_z
 _atom_site_occupancy
  Fe  Fe0  1  1.00384924  0.00495963  1.00380225  1
  Fe  Fe1  1  0.17077077  0.17204135  0.17136920  1
  Fe  Fe2  1  0.00580024  0.00473618  0.33800536  1
  Ni  Ni3  1  0.00493454  0.33750958  1.00410671  1
  Fe  Fe4  1  0.17066010  0.50400027  0.17103799  1
  Ni  Ni5  1  0.00537856  0.33853042  0.33836222  1
  Fe  Fe6  1  1.00387091  0.67001156  0.00475296  1
  Ni  Ni7  1  0.17186421  0.83780322  0.17070194  1
  Ni  Ni8  1  1.00400327  0.67032340  0.33817233  1
  Fe  Fe9  1  0.33853317  0.00467377  0.00455791  1
  Fe  Fe10  1  0.50463207  0.17162302  0.17104106  1
  Ni  Ni11  1  0.33806280  0.00500212  0.33826363  1
  Ni  Ni12  1  0.33678785  0.33827094  0.00442916  1
  Ni  Ni13  1  0.50516273  0.50444004  0.17110431  1
  Ni  Ni14  1  0.33669068  0.33703959  0.33781607  1
  Ni  Ni15  1  0.33816715  0.67049387  0.00452659  1
  Fe  Fe16  1  0.50492606  0.83724906  0.17064939  1
  Fe  Fe17  1  0.33653678  0.67100230  0.33739079  1
  Ni  Ni18  1  0.67139548  1.00371900  1.00384136  1
  Ni  Ni19  1  0.83746973  0.17225071  0.17106445  1
  Fe  Fe20  1  0.67075981  0.00513761  0.33789657  1
  Ni  Ni21  1  0.67138471  0.33751689  1.00380098  1
  Ni  Ni22  1  0.83704918  0.50337678  0.17038443  1
  Fe  Fe23  1  0.67130155  0.33789794  0.33700770  1
  Ni  Ni24  1  0.67063287  0.67187139  1.00416276  1
  Fe  Fe25  1  0.83746624  0.83713608  0.17047302  1
  Fe  Fe26  1  0.67105837  0.67007189  0.33777508  1
  Ni  Ni27  1  0.17176287  0.17071501  0.50361207  1
  Ni  Ni28  1  1.00399804  0.00472116  0.67032800  1
  Ni  Ni29  1  0.17145024  0.17154003  0.83828840  1
  Ni  Ni30  1  0.16962417  0.50460869  0.50297737  1
  Fe  Fe31  1  1.00362788  0.33758039  0.67122923  1
  Ni  Ni32  1  0.17008122  0.50405198  0.83861184  1
  Ni  Ni33  1  0.17207478  0.83778770  0.50502466  1
  Fe  Fe34  1  1.00347005  0.67146769  0.67039680  1
  Fe  Fe35  1  0.17052781  0.83814257  0.83777371  1
  Ni  Ni36  1  0.50398908  0.16965191  0.50378925  1
  Fe  Fe37  1  0.33841136  1.00406410  0.67013413  1
  Ni  Ni38  1  0.50444270  0.16972734  0.83861212  1
  Fe  Fe39  1  0.50342163  0.50436856  0.50386270  1
  Fe  Fe40  1  0.33774595  0.33680616  0.67096570  1
  Fe  Fe41  1  0.50479930  0.50419561  0.83886467  1
  Ni  Ni42  1  0.50367280  0.83884714  0.50346836  1
  Fe  Fe43  1  0.33789676  0.67223958  0.67128248  1
  Ni  Ni44  1  0.50485990  0.83857661  0.83852218  1
  Fe  Fe45  1  0.83833719  0.17073156  0.50449164  1
  Ni  Ni46  1  0.67158190  1.00332211  0.67077762  1
  Ni  Ni47  1  0.83722023  0.17142186  0.83751304  1
  Ni  Ni48  1  0.83842142  0.50429210  0.50397661  1
  Fe  Fe49  1  0.67173418  0.33706874  0.67146465  1
  Ni  Ni50  1  0.83827290  0.50447508  0.83874803  1
  Fe  Fe51  1  0.83807278  0.83767643  0.50532774  1
  Ni  Ni52  1  0.67084815  0.67198220  0.67109226  1
  Ni  Ni53  1  0.83646661  0.83721008  0.83832946  1
" 