1199,Ni46Fe54_5,-242.062107712284, 226.624820094058,Ni46Fe54,"# generated using pymatgen
 data_Fe4Ni5
_symmetry_space_group_name_H-M   'P 1'
_cell_length_a   7.39984737
_cell_length_b   7.39984737
_cell_length_c   10.46496451
_cell_angle_alpha   90.00000000
_cell_angle_beta   90.00000000
_cell_angle_gamma   90.00000000
_symmetry_Int_Tables_number   1
_chemical_formula_structural   Fe4Ni5
_chemical_formula_sum   'Fe24 Ni30'
_cell_volume   573.03781761
_cell_formula_units_Z   6
loop_
 _symmetry_equiv_pos_site_id
 _symmetry_equiv_pos_as_xyz
  1  'x, y, z'
loop_
 _atom_site_type_symbol
 _atom_site_label
 _atom_site_symmetry_multiplicity
 _atom_site_fract_x
 _atom_site_fract_y
 _atom_site_fract_z
 _atom_site_occupancy
  Fe  Fe0  1  0.00516259  0.00472665  0.00476681  1
  Ni  Ni1  1  0.17193088  0.17265245  0.17126180  1
  Fe  Fe2  1  0.00496620  0.00526155  0.33765147  1
  Fe  Fe3  1  0.00553678  0.33746837  1.00453910  1
  Ni  Ni4  1  0.17110033  0.50379460  0.17171676  1
  Ni  Ni5  1  1.00418183  0.33714330  0.33722131  1
  Fe  Fe6  1  0.00529802  0.67142464  1.00426759  1
  Ni  Ni7  1  0.17145254  0.83716664  0.17181796  1
  Fe  Fe8  1  0.00539114  0.67026963  0.33755389  1
  Ni  Ni9  1  0.33770602  0.00489995  1.00453553  1
  Ni  Ni10  1  0.50384478  0.17077373  0.17248742  1
  Ni  Ni11  1  0.33729485  1.00416615  0.33728362  1
  Ni  Ni12  1  0.33772018  0.33626232  0.00498406  1
  Fe  Fe13  1  0.50354695  0.50480638  0.17234505  1
  Ni  Ni14  1  0.33730195  0.33680055  0.33753476  1
  Fe  Fe15  1  0.33772501  0.67162842  0.00497635  1
  Ni  Ni16  1  0.50502760  0.83834652  0.17110543  1
  Ni  Ni17  1  0.33850294  0.67266389  0.33676544  1
  Fe  Fe18  1  0.67006052  0.00481831  1.00417030  1
  Fe  Fe19  1  0.83843584  0.17070662  0.17170846  1
  Fe  Fe20  1  0.67021532  0.00473918  0.33759208  1
  Fe  Fe21  1  0.67027322  0.33679892  1.00395531  1
  Fe  Fe22  1  0.83808923  0.50491055  0.17120234  1
  Ni  Ni23  1  0.67213445  0.33834139  0.33732981  1
  Fe  Fe24  1  0.67060250  0.67200021  1.00431648  1
  Ni  Ni25  1  0.83713817  0.83750221  0.17141601  1
  Ni  Ni26  1  0.67131733  0.67149429  0.33758041  1
  Ni  Ni27  1  0.17007578  0.17317254  0.50465858  1
  Fe  Fe28  1  1.00395697  0.00497868  0.67120992  1
  Fe  Fe29  1  0.17115529  0.17099755  0.83802341  1
  Ni  Ni30  1  0.17173908  0.50348294  0.50466235  1
  Ni  Ni31  1  1.00391481  0.33756328  0.67213027  1
  Fe  Fe32  1  0.17085706  0.50439557  0.83729769  1
  Fe  Fe33  1  0.17208652  0.83759239  0.50420525  1
  Ni  Ni34  1  1.00357527  0.67159713  0.67110218  1
  Fe  Fe35  1  0.17077739  0.83822546  0.83822150  1
  Fe  Fe36  1  0.50383851  0.17234983  0.50431887  1
  Fe  Fe37  1  0.33830246  1.00438380  0.67134660  1
  Ni  Ni38  1  0.50457367  0.17066658  0.83642368  1
  Ni  Ni39  1  0.50347127  0.50584932  0.50480666  1
  Ni  Ni40  1  0.33778276  0.33721957  0.67110699  1
  Fe  Fe41  1  0.50596186  0.50423822  0.83673757  1
  Ni  Ni42  1  0.50502079  0.83650768  0.50445292  1
  Ni  Ni43  1  0.33814540  0.67195952  0.67213172  1
  Ni  Ni44  1  0.50493010  0.83814786  0.83806265  1
  Ni  Ni45  1  0.83886837  0.17163298  0.50460224  1
  Fe  Fe46  1  0.67135986  1.00446938  0.67185934  1
  Ni  Ni47  1  0.83771915  0.17183891  0.83827245  1
  Fe  Fe48  1  0.83757720  0.50380705  0.50524686  1
  Ni  Ni49  1  0.67192571  0.33792143  0.67176120  1
  Ni  Ni50  1  0.83891698  0.50445993  0.83680184  1
  Fe  Fe51  1  0.83778871  0.83724452  0.50475003  1
  Ni  Ni52  1  0.67190548  0.67160052  0.67186842  1
  Ni  Ni53  1  0.83701150  0.83732507  0.83704835  1
" 