5102,Ni46Fe54_12,-241.340703506416, 212.498575088335,Ni46Fe54,"# generated using pymatgen
 data_Fe4Ni5
_symmetry_space_group_name_H-M   'P 1'
_cell_length_a   7.40444821
_cell_length_b   7.40444821
_cell_length_c   10.47147108
_cell_angle_alpha   90.00000000
_cell_angle_beta   90.00000000
_cell_angle_gamma   90.00000000
_symmetry_Int_Tables_number   1
_chemical_formula_structural   Fe4Ni5
_chemical_formula_sum   'Fe24 Ni30'
_cell_volume   574.10733736
_cell_formula_units_Z   6
loop_
 _symmetry_equiv_pos_site_id
 _symmetry_equiv_pos_as_xyz
  1  'x, y, z'
loop_
 _atom_site_type_symbol
 _atom_site_label
 _atom_site_symmetry_multiplicity
 _atom_site_fract_x
 _atom_site_fract_y
 _atom_site_fract_z
 _atom_site_occupancy
  Fe  Fe0  1  1.00372599  1.00329248  1.00389587  1
  Ni  Ni1  1  0.17057973  0.16895761  0.16953083  1
  Ni  Ni2  1  1.00358509  1.00411837  0.33714865  1
  Fe  Fe3  1  1.00344647  0.33826966  1.00409212  1
  Fe  Fe4  1  0.17151146  0.50231999  0.17127170  1
  Ni  Ni5  1  0.00522789  0.33764766  0.33677966  1
  Fe  Fe6  1  1.00354846  0.67104844  0.00457218  1
  Fe  Fe7  1  0.17123157  0.83678397  0.17100989  1
  Ni  Ni8  1  0.00484451  0.67076990  0.33731580  1
  Fe  Fe9  1  0.33793562  1.00317546  0.00441492  1
  Ni  Ni10  1  0.50348132  0.17109694  0.16996377  1
  Fe  Fe11  1  0.33663373  0.00653790  0.33778214  1
  Fe  Fe12  1  0.33869456  0.33877458  0.00543545  1
  Ni  Ni13  1  0.50530170  0.50481481  0.17140382  1
  Ni  Ni14  1  0.33773082  0.33749799  0.33745834  1
  Fe  Fe15  1  0.33855830  0.67072851  1.00311368  1
  Fe  Fe16  1  0.50462764  0.83738365  0.17129468  1
  Fe  Fe17  1  0.33774613  0.67044722  0.33885714  1
  Fe  Fe18  1  0.67070098  1.00402385  1.00412415  1
  Fe  Fe19  1  0.83705699  0.17253390  0.17138677  1
  Ni  Ni20  1  0.67002710  1.00422643  0.33639566  1
  Fe  Fe21  1  0.67053609  0.33872265  0.00486972  1
  Ni  Ni22  1  0.83695492  0.50514174  0.17005790  1
  Ni  Ni23  1  0.66970238  0.33655171  0.33727772  1
  Ni  Ni24  1  0.66995053  0.67180480  1.00401720  1
  Fe  Fe25  1  0.83671173  0.83756905  0.17177972  1
  Fe  Fe26  1  0.67295367  0.66945388  0.33798866  1
  Ni  Ni27  1  0.17023710  0.17006689  0.50511666  1
  Ni  Ni28  1  1.00303825  0.00519417  0.67126610  1
  Fe  Fe29  1  0.17041821  0.17223506  0.83777139  1
  Ni  Ni30  1  0.17045447  0.50481748  0.50357392  1
  Ni  Ni31  1  0.00585341  0.33716896  0.67098922  1
  Ni  Ni32  1  0.17218661  0.50556835  0.83902811  1
  Ni  Ni33  1  0.16995710  0.83775031  0.50428607  1
  Ni  Ni34  1  0.00547058  0.67041805  0.67191375  1
  Ni  Ni35  1  0.17035505  0.83798247  0.83770073  1
  Ni  Ni36  1  0.50477991  0.17040639  0.50490423  1
  Fe  Fe37  1  0.33642057  1.00212056  0.67045104  1
  Fe  Fe38  1  0.50330868  0.17142556  0.83764072  1
  Ni  Ni39  1  0.50485304  0.50430939  0.50362367  1
  Fe  Fe40  1  0.33743024  0.33906340  0.66990146  1
  Ni  Ni41  1  0.50490308  0.50387605  0.83766103  1
  Ni  Ni42  1  0.50446766  0.83788485  0.50368503  1
  Ni  Ni43  1  0.33776320  0.66977567  0.67105805  1
  Fe  Fe44  1  0.50403925  0.83659859  0.83674350  1
  Ni  Ni45  1  0.83756630  0.17042378  0.50216033  1
  Ni  Ni46  1  0.67083120  0.00437111  0.67183190  1
  Ni  Ni47  1  0.83683492  0.17027247  0.83888744  1
  Ni  Ni48  1  0.83790421  0.50430994  0.50531143  1
  Fe  Fe49  1  0.67284890  0.33796250  0.67032071  1
  Fe  Fe50  1  0.83821078  0.50453202  0.83737539  1
  Ni  Ni51  1  0.83808967  0.83793602  0.50490663  1
  Ni  Ni52  1  0.66949040  0.67192847  0.67040435  1
  Fe  Fe53  1  0.83754780  0.83617433  0.83651498  1
" 