2680,Ni47Fe35Cr17_9,-233.632122706329, 204.953525604378,Ni47Fe35Cr17,"# generated using pymatgen
 data_Cr10Fe19Ni25
_symmetry_space_group_name_H-M   'P 1'
_cell_length_a   7.43261584
_cell_length_b   7.43261584
_cell_length_c   10.51130613
_cell_angle_alpha   90.00000000
_cell_angle_beta   90.00000000
_cell_angle_gamma   90.00000000
_symmetry_Int_Tables_number   1
_chemical_formula_structural   Cr10Fe19Ni25
_chemical_formula_sum   'Cr10 Fe19 Ni25'
_cell_volume   580.68426544
_cell_formula_units_Z   1
loop_
 _symmetry_equiv_pos_site_id
 _symmetry_equiv_pos_as_xyz
  1  'x, y, z'
loop_
 _atom_site_type_symbol
 _atom_site_label
 _atom_site_symmetry_multiplicity
 _atom_site_fract_x
 _atom_site_fract_y
 _atom_site_fract_z
 _atom_site_occupancy
  Fe  Fe0  1  0.00478238  0.00587663  0.00253160  1
  Fe  Fe1  1  0.16688907  0.17059314  0.16690190  1
  Fe  Fe2  1  1.00111948  0.00236372  0.33695825  1
  Ni  Ni3  1  0.00349835  0.33502607  1.00213517  1
  Ni  Ni4  1  0.16792779  0.50214014  0.16951671  1
  Ni  Ni5  1  1.00165911  0.33585420  0.33415557  1
  Cr  Cr6  1  0.00246770  0.66531754  0.00307567  1
  Fe  Fe7  1  0.17054972  0.83507776  0.16921873  1
  Fe  Fe8  1  0.00356910  0.66899282  0.33547325  1
  Fe  Fe9  1  0.33424691  0.00384849  0.00339310  1
  Ni  Ni10  1  0.50287287  0.16828457  0.16819861  1
  Cr  Cr11  1  0.33762909  1.00059084  0.33486070  1
  Ni  Ni12  1  0.33327419  0.33530744  1.00119676  1
  Cr  Cr13  1  0.50312354  0.50265822  0.16795254  1
  Cr  Cr14  1  0.33357979  0.33709940  0.33722458  1
  Ni  Ni15  1  0.33637256  0.66787381  0.00358857  1
  Fe  Fe16  1  0.50171880  0.83500613  0.16934589  1
  Ni  Ni17  1  0.33538903  0.66969911  0.33613114  1
  Cr  Cr18  1  0.66832605  0.00306378  0.00274616  1
  Ni  Ni19  1  0.83621296  0.17089321  0.16989105  1
  Ni  Ni20  1  0.66992971  1.00137007  0.33700113  1
  Fe  Fe21  1  0.66977064  0.33736961  1.00173618  1
  Ni  Ni22  1  0.83647814  0.49987318  0.16945433  1
  Fe  Fe23  1  0.67013981  0.33455035  0.33554411  1
  Ni  Ni24  1  0.66754650  0.66759875  1.00201634  1
  Cr  Cr25  1  0.83562253  0.83518759  0.17079341  1
  Ni  Ni26  1  0.66857092  0.67143043  0.33588556  1
  Fe  Fe27  1  0.16767201  0.16841472  0.50487669  1
  Ni  Ni28  1  1.00168550  0.00337261  0.66772724  1
  Ni  Ni29  1  0.16932186  0.17102540  0.83636691  1
  Fe  Fe30  1  0.17021863  0.50391974  0.50279490  1
  Ni  Ni31  1  0.00366225  0.33528698  0.67065653  1
  Ni  Ni32  1  0.16934496  0.49847874  0.83430236  1
  Ni  Ni33  1  0.16869586  0.83614936  0.50321775  1
  Fe  Fe34  1  0.00291004  0.66843330  0.66855895  1
  Cr  Cr35  1  0.16965937  0.83754119  0.83534281  1
  Fe  Fe36  1  0.50401178  0.16799195  0.50391886  1
  Ni  Ni37  1  0.33607366  0.00351207  0.66808502  1
  Fe  Fe38  1  0.50091128  0.17168102  0.83476131  1
  Ni  Ni39  1  0.50154017  0.50287859  0.50338724  1
  Ni  Ni40  1  0.33482513  0.33587451  0.66901781  1
  Fe  Fe41  1  0.50167281  0.50079523  0.83562000  1
  Ni  Ni42  1  0.50257602  0.83518645  0.50220336  1
  Fe  Fe43  1  0.33557349  0.66772896  0.66708615  1
  Cr  Cr44  1  0.50162944  0.83514180  0.83539407  1
  Fe  Fe45  1  0.83526646  0.16665833  0.50224462  1
  Ni  Ni46  1  0.66919009  0.00273798  0.66675803  1
  Fe  Fe47  1  0.83756724  0.17168045  0.83470932  1
  Cr  Cr48  1  0.83478324  0.50202425  0.50088534  1
  Ni  Ni49  1  0.66846099  0.33465998  0.67027946  1
  Ni  Ni50  1  0.83475745  0.49972533  0.83610787  1
  Ni  Ni51  1  0.83567918  0.83771456  0.50277827  1
  Fe  Fe52  1  0.66846221  0.66830269  0.66796712  1
  Cr  Cr53  1  0.83566030  0.83521494  0.83310314  1
" 