127,Ni47Fe35Cr17_4,-234.111789758655, 202.884888865763,Ni47Fe35Cr17,"# generated using pymatgen
 data_Cr10Fe19Ni25
_symmetry_space_group_name_H-M   'P 1'
_cell_length_a   7.43303450
_cell_length_b   7.43303450
_cell_length_c   10.51189820
_cell_angle_alpha   90.00000000
_cell_angle_beta   90.00000000
_cell_angle_gamma   90.00000000
_symmetry_Int_Tables_number   1
_chemical_formula_structural   Cr10Fe19Ni25
_chemical_formula_sum   'Cr10 Fe19 Ni25'
_cell_volume   580.78239543
_cell_formula_units_Z   1
loop_
 _symmetry_equiv_pos_site_id
 _symmetry_equiv_pos_as_xyz
  1  'x, y, z'
loop_
 _atom_site_type_symbol
 _atom_site_label
 _atom_site_symmetry_multiplicity
 _atom_site_fract_x
 _atom_site_fract_y
 _atom_site_fract_z
 _atom_site_occupancy
  Cr  Cr0  1  0.00284176  0.00366315  0.00296362  1
  Fe  Fe1  1  0.16861909  0.17302722  0.16927205  1
  Ni  Ni2  1  1.00182040  1.00191517  0.33459720  1
  Fe  Fe3  1  0.00307877  0.33867004  0.00312296  1
  Ni  Ni4  1  0.16805387  0.50145176  0.16950316  1
  Ni  Ni5  1  1.00152013  0.33733341  0.33406935  1
  Ni  Ni6  1  1.00198982  0.66765076  1.00139323  1
  Cr  Cr7  1  0.16827659  0.83245117  0.16860044  1
  Ni  Ni8  1  1.00051339  0.66777459  0.33673975  1
  Fe  Fe9  1  0.33550537  0.00244309  0.99973502  1
  Fe  Fe10  1  0.50213599  0.17300929  0.16797086  1
  Cr  Cr11  1  0.33487111  0.00479497  0.33441131  1
  Ni  Ni12  1  0.33563036  0.33607034  0.00298800  1
  Ni  Ni13  1  0.50313340  0.50136053  0.16887316  1
  Fe  Fe14  1  0.33504211  0.33872807  0.33430813  1
  Ni  Ni15  1  0.33521546  0.66498229  1.00118526  1
  Cr  Cr16  1  0.50306787  0.83238522  0.16667395  1
  Fe  Fe17  1  0.33447815  0.66480328  0.33598278  1
  Cr  Cr18  1  0.67005639  0.00355862  1.00220315  1
  Fe  Fe19  1  0.83579791  0.17136264  0.17111463  1
  Fe  Fe20  1  0.67235400  0.00241723  0.33452130  1
  Fe  Fe21  1  0.66833278  0.33785265  1.00187107  1
  Ni  Ni22  1  0.83542669  0.50111266  0.16747086  1
  Ni  Ni23  1  0.66779568  0.33738040  0.33448921  1
  Ni  Ni24  1  0.66955711  0.66651475  1.00064836  1
  Fe  Fe25  1  0.83565003  0.83031556  0.16985054  1
  Ni  Ni26  1  0.67091901  0.66569577  0.33528991  1
  Cr  Cr27  1  0.16879822  0.16969861  0.50457618  1
  Ni  Ni28  1  0.00268525  1.00015685  0.66971494  1
  Fe  Fe29  1  0.16993844  0.17041856  0.83494164  1
  Fe  Fe30  1  0.16564516  0.50337456  0.50110804  1
  Fe  Fe31  1  1.00133772  0.33774990  0.67004114  1
  Ni  Ni32  1  0.16823605  0.50219736  0.83620869  1
  Ni  Ni33  1  0.16693022  0.83568267  0.50252050  1
  Ni  Ni34  1  0.00251076  0.66972121  0.66827115  1
  Ni  Ni35  1  0.16780813  0.83506015  0.83556651  1
  Fe  Fe36  1  0.50297270  0.17082491  0.50421641  1
  Ni  Ni37  1  0.33490612  0.00393417  0.67248792  1
  Ni  Ni38  1  0.50265540  0.17027549  0.83486408  1
  Fe  Fe39  1  0.50385123  0.49980686  0.50106024  1
  Fe  Fe40  1  0.33658153  0.33552985  0.67149105  1
  Ni  Ni41  1  0.50193615  0.49916890  0.83774277  1
  Cr  Cr42  1  0.50334085  0.83694141  0.50282909  1
  Cr  Cr43  1  0.33311955  0.66772944  0.66876602  1
  Fe  Fe44  1  0.50122997  0.83497056  0.83639926  1
  Cr  Cr45  1  0.83505337  0.16994922  0.50317655  1
  Ni  Ni46  1  0.66959051  0.00407422  0.66924148  1
  Fe  Fe47  1  0.83602866  0.17035352  0.83321914  1
  Ni  Ni48  1  0.83573141  0.50150424  0.50265021  1
  Ni  Ni49  1  0.66744088  0.33551494  0.67045312  1
  Fe  Fe50  1  0.83693030  0.50202147  0.83616978  1
  Ni  Ni51  1  0.83768477  0.83490404  0.50046690  1
  Cr  Cr52  1  0.67169459  0.66717856  0.67081683  1
  Ni  Ni53  1  0.83722915  0.83608402  0.83470147  1
" 