4303,Ni47Fe24Cr27_4,-229.662699787268, 185.37278361111,Ni47Fe24Cr27,"# generated using pymatgen
 data_Cr16Fe13Ni25
_symmetry_space_group_name_H-M   'P 1'
_cell_length_a   7.46008590
_cell_length_b   7.46008590
_cell_length_c   10.55015466
_cell_angle_alpha   90.00000000
_cell_angle_beta   90.00000000
_cell_angle_gamma   90.00000000
_symmetry_Int_Tables_number   1
_chemical_formula_structural   Cr16Fe13Ni25
_chemical_formula_sum   'Cr16 Fe13 Ni25'
_cell_volume   587.14650817
_cell_formula_units_Z   1
loop_
 _symmetry_equiv_pos_site_id
 _symmetry_equiv_pos_as_xyz
  1  'x, y, z'
loop_
 _atom_site_type_symbol
 _atom_site_label
 _atom_site_symmetry_multiplicity
 _atom_site_fract_x
 _atom_site_fract_y
 _atom_site_fract_z
 _atom_site_occupancy
  Ni  Ni0  1  0.00105124  0.99813291  0.00118269  1
  Ni  Ni1  1  0.16667273  0.16633691  0.16537150  1
  Cr  Cr2  1  0.00089640  0.99836546  0.33195228  1
  Fe  Fe3  1  0.99779918  0.33305421  0.00233672  1
  Cr  Cr4  1  0.16684085  0.50031692  0.16610174  1
  Ni  Ni5  1  0.99934111  0.33488766  0.33162814  1
  Ni  Ni6  1  0.99820525  0.67025217  0.99966002  1
  Ni  Ni7  1  0.16666439  0.83638672  0.16467742  1
  Cr  Cr8  1  0.99777980  0.66787779  0.33540760  1
  Fe  Fe9  1  0.33164294  1.00029654  0.00183927  1
  Ni  Ni10  1  0.49856612  0.16669320  0.16569024  1
  Ni  Ni11  1  0.33558215  0.00109659  0.33339707  1
  Ni  Ni12  1  0.33734036  0.33281084  0.00090385  1
  Ni  Ni13  1  0.50273020  0.50122970  0.16447776  1
  Cr  Cr14  1  0.33606292  0.33125978  0.33246303  1
  Fe  Fe15  1  0.33397097  0.66719299  0.99978677  1
  Cr  Cr16  1  0.50253016  0.83222347  0.16850456  1
  Fe  Fe17  1  0.33505285  0.67039443  0.33383044  1
  Cr  Cr18  1  0.66905621  0.00170668  0.00104556  1
  Fe  Fe19  1  0.83473838  0.16682200  0.16691297  1
  Ni  Ni20  1  0.66437319  0.99911208  0.33456253  1
  Fe  Fe21  1  0.66711905  0.33576439  0.00130299  1
  Ni  Ni22  1  0.83274189  0.50166761  0.16550665  1
  Cr  Cr23  1  0.66605339  0.33445550  0.33029735  1
  Ni  Ni24  1  0.67031331  0.66371351  1.00037726  1
  Ni  Ni25  1  0.83342047  0.83250160  0.16645073  1
  Ni  Ni26  1  0.66900109  0.66773475  0.33387190  1
  Cr  Cr27  1  0.16814251  0.16813213  0.50100333  1
  Cr  Cr28  1  0.99953203  0.99645470  0.66772522  1
  Cr  Cr29  1  0.16616989  0.16665009  0.83437621  1
  Cr  Cr30  1  0.16602784  0.49842696  0.50105755  1
  Fe  Fe31  1  0.99697297  0.33439298  0.66737052  1
  Cr  Cr32  1  0.16806719  0.50041944  0.83449457  1
  Fe  Fe33  1  0.17156135  0.83413580  0.50085015  1
  Cr  Cr34  1  0.99864585  0.66874811  0.66703239  1
  Ni  Ni35  1  0.16674287  0.83468701  0.83539436  1
  Ni  Ni36  1  0.50029254  0.16249492  0.50340251  1
  Ni  Ni37  1  0.33633902  0.00063043  0.66730168  1
  Fe  Fe38  1  0.50092884  0.16790681  0.83301632  1
  Cr  Cr39  1  0.50183213  0.50441052  0.50060882  1
  Fe  Fe40  1  0.33896110  0.33355994  0.66889583  1
  Ni  Ni41  1  0.50268373  0.49943976  0.83456822  1
  Ni  Ni42  1  0.50263139  0.83578177  0.50058036  1
  Ni  Ni43  1  0.33527904  0.66821668  0.66742838  1
  Cr  Cr44  1  0.50176077  0.83192631  0.83345637  1
  Cr  Cr45  1  0.83221247  0.16725553  0.49949105  1
  Ni  Ni46  1  0.66513005  0.00076372  0.66674167  1
  Fe  Fe47  1  0.83232883  0.16704439  0.83335169  1
  Ni  Ni48  1  0.83316634  0.50147640  0.50185655  1
  Fe  Fe49  1  0.66565646  0.33421702  0.66825949  1
  Fe  Fe50  1  0.83188007  0.50219156  0.83479182  1
  Ni  Ni51  1  0.82674962  0.83275062  0.50069656  1
  Ni  Ni52  1  0.66742165  0.66660783  0.66737054  1
  Ni  Ni53  1  0.83253308  0.83418843  0.83453508  1
" 