1167,Ni47Fe35Cr17_2,-233.892757851083, 205.800096287449,Ni47Fe35Cr17,"# generated using pymatgen
 data_Cr10Fe19Ni25
_symmetry_space_group_name_H-M   'P 1'
_cell_length_a   7.43369771
_cell_length_b   7.43369771
_cell_length_c   10.51283612
_cell_angle_alpha   90.00000000
_cell_angle_beta   90.00000000
_cell_angle_gamma   90.00000000
_symmetry_Int_Tables_number   1
_chemical_formula_structural   Cr10Fe19Ni25
_chemical_formula_sum   'Cr10 Fe19 Ni25'
_cell_volume   580.93787025
_cell_formula_units_Z   1
loop_
 _symmetry_equiv_pos_site_id
 _symmetry_equiv_pos_as_xyz
  1  'x, y, z'
loop_
 _atom_site_type_symbol
 _atom_site_label
 _atom_site_symmetry_multiplicity
 _atom_site_fract_x
 _atom_site_fract_y
 _atom_site_fract_z
 _atom_site_occupancy
  Ni  Ni0  1  1.00219541  0.00341076  1.00157572  1
  Fe  Fe1  1  0.17055431  0.16935199  0.16894897  1
  Cr  Cr2  1  0.00304731  0.00371122  0.33530132  1
  Cr  Cr3  1  1.00093978  0.33347018  0.00239944  1
  Ni  Ni4  1  0.17042662  0.50220294  0.17047120  1
  Ni  Ni5  1  1.00159005  0.33606543  0.33635145  1
  Cr  Cr6  1  0.00414387  0.66958202  0.00259898  1
  Fe  Fe7  1  0.17102445  0.83555994  0.16854401  1
  Fe  Fe8  1  0.00330443  0.66514332  0.33652928  1
  Ni  Ni9  1  0.33486331  0.00263334  0.00275821  1
  Ni  Ni10  1  0.50329999  0.17020854  0.16776823  1
  Fe  Fe11  1  0.33605968  0.00264033  0.33575101  1
  Fe  Fe12  1  0.33715587  0.33540331  0.00246562  1
  Ni  Ni13  1  0.50127316  0.50074955  0.16912485  1
  Ni  Ni14  1  0.33541421  0.33801742  0.33493233  1
  Ni  Ni15  1  0.33611259  0.66743938  0.00342572  1
  Cr  Cr16  1  0.50133952  0.83580705  0.16870547  1
  Ni  Ni17  1  0.33569555  0.66783093  0.33616777  1
  Ni  Ni18  1  0.66967153  0.00556924  1.00128045  1
  Ni  Ni19  1  0.83387962  0.16993262  0.16944337  1
  Fe  Fe20  1  0.66756510  0.00351120  0.33600379  1
  Ni  Ni21  1  0.66738064  0.33483727  0.00276631  1
  Fe  Fe22  1  0.83322576  0.49979230  0.17123801  1
  Ni  Ni23  1  0.66972474  0.33701224  0.33425823  1
  Fe  Fe24  1  0.66751269  0.66734614  1.00188486  1
  Cr  Cr25  1  0.83504316  0.83630330  0.16784571  1
  Ni  Ni26  1  0.66700449  0.66639304  0.33786211  1
  Ni  Ni27  1  0.16816533  0.16984606  0.50338335  1
  Ni  Ni28  1  1.00117902  0.00309640  0.66927704  1
  Ni  Ni29  1  0.16811622  0.17013178  0.83481127  1
  Ni  Ni30  1  0.16659073  0.50167566  0.50195953  1
  Fe  Fe31  1  0.00369986  0.33483591  0.66863783  1
  Ni  Ni32  1  0.16973510  0.49959252  0.83430105  1
  Ni  Ni33  1  0.16945796  0.83520659  0.50160384  1
  Fe  Fe34  1  1.00010210  0.66856544  0.66800548  1
  Cr  Cr35  1  0.16777601  0.83708920  0.83690167  1
  Cr  Cr36  1  0.50151894  0.16705684  0.50147577  1
  Fe  Fe37  1  0.33469359  0.00429540  0.66807933  1
  Fe  Fe38  1  0.50150119  0.16991431  0.83689069  1
  Fe  Fe39  1  0.50142768  0.50408063  0.50012349  1
  Fe  Fe40  1  0.33294374  0.33425299  0.66948773  1
  Ni  Ni41  1  0.50222732  0.50152708  0.83733221  1
  Ni  Ni42  1  0.50333130  0.83561232  0.50117563  1
  Cr  Cr43  1  0.33543624  0.66711086  0.66687097  1
  Cr  Cr44  1  0.50475831  0.83622503  0.83717706  1
  Fe  Fe45  1  0.83777221  0.16887428  0.50232160  1
  Ni  Ni46  1  0.67178153  1.00151513  0.66859278  1
  Ni  Ni47  1  0.83602908  0.16718300  0.83558008  1
  Ni  Ni48  1  0.83733492  0.50337316  0.50085467  1
  Cr  Cr49  1  0.66915558  0.33577346  0.66951995  1
  Fe  Fe50  1  0.83509673  0.50212259  0.83458361  1
  Fe  Fe51  1  0.83538776  0.83481694  0.50314340  1
  Fe  Fe52  1  0.67105713  0.67031348  0.66758209  1
  Fe  Fe53  1  0.83540706  0.83711838  0.83505588  1
" 