3905,Ni47Fe23Cr29_14,-228.18783568216, 181.370536730105,Ni47Fe23Cr29,"# generated using pymatgen
 data_Cr17Fe12Ni25
_symmetry_space_group_name_H-M   'P 1'
_cell_length_a   7.46480982
_cell_length_b   7.46480982
_cell_length_c   10.55683529
_cell_angle_alpha   90.00000000
_cell_angle_beta   90.00000000
_cell_angle_gamma   90.00000000
_symmetry_Int_Tables_number   1
_chemical_formula_structural   Cr17Fe12Ni25
_chemical_formula_sum   'Cr17 Fe12 Ni25'
_cell_volume   588.26260363
_cell_formula_units_Z   1
loop_
 _symmetry_equiv_pos_site_id
 _symmetry_equiv_pos_as_xyz
  1  'x, y, z'
loop_
 _atom_site_type_symbol
 _atom_site_label
 _atom_site_symmetry_multiplicity
 _atom_site_fract_x
 _atom_site_fract_y
 _atom_site_fract_z
 _atom_site_occupancy
  Cr  Cr0  1  0.99846370  0.99790826  0.00168157  1
  Ni  Ni1  1  0.16863726  0.16461336  0.17051600  1
  Ni  Ni2  1  0.99822998  0.99951111  0.33322488  1
  Cr  Cr3  1  0.00673300  0.33089234  0.00448097  1
  Ni  Ni4  1  0.16689024  0.50149286  0.16824832  1
  Ni  Ni5  1  0.00263762  0.33292110  0.33356480  1
  Ni  Ni6  1  0.00044583  0.66958247  0.00243975  1
  Ni  Ni7  1  0.16730620  0.83071610  0.16865916  1
  Ni  Ni8  1  0.00125305  0.66824025  0.33241753  1
  Fe  Fe9  1  0.33189687  0.99639239  0.00265176  1
  Cr  Cr10  1  0.50270955  0.16429396  0.17018242  1
  Fe  Fe11  1  0.33113186  0.99647157  0.33074674  1
  Ni  Ni12  1  0.33386761  0.33275613  0.00184048  1
  Cr  Cr13  1  0.50199693  0.50317031  0.16678852  1
  Ni  Ni14  1  0.33114379  0.33640615  0.33258956  1
  Ni  Ni15  1  0.33397307  0.66574224  0.00046944  1
  Ni  Ni16  1  0.49942911  0.83400620  0.16802366  1
  Ni  Ni17  1  0.33278293  0.66388670  0.33281347  1
  Ni  Ni18  1  0.66623316  0.99674691  0.00235709  1
  Fe  Fe19  1  0.83576655  0.16543626  0.17044414  1
  Ni  Ni20  1  0.67251641  0.99766152  0.33199865  1
  Fe  Fe21  1  0.66715446  0.33523913  0.00280372  1
  Cr  Cr22  1  0.83614593  0.50222297  0.16741347  1
  Ni  Ni23  1  0.66891599  0.33427662  0.33431488  1
  Ni  Ni24  1  0.66441252  0.67468419  0.99875500  1
  Fe  Fe25  1  0.83305988  0.83305458  0.16767980  1
  Ni  Ni26  1  0.66718934  0.66981547  0.33498511  1
  Cr  Cr27  1  0.16529090  0.16472212  0.49951730  1
  Fe  Fe28  1  0.99736765  0.00164090  0.66588929  1
  Ni  Ni29  1  0.16815480  0.16543283  0.83142947  1
  Ni  Ni30  1  0.16298028  0.50017566  0.49753528  1
  Ni  Ni31  1  0.00115780  0.33511419  0.66434194  1
  Cr  Cr32  1  0.16354374  0.50015704  0.83508064  1
  Cr  Cr33  1  0.16613020  0.82905297  0.50105549  1
  Ni  Ni34  1  0.99670504  0.66673046  0.66508489  1
  Cr  Cr35  1  0.16628122  0.83249828  0.82968437  1
  Cr  Cr36  1  0.50172595  0.16468596  0.49153861  1
  Fe  Fe37  1  0.33421315  0.99848315  0.66692370  1
  Cr  Cr38  1  0.49878035  0.16373333  0.83868256  1
  Fe  Fe39  1  0.49903647  0.50043796  0.49635902  1
  Cr  Cr40  1  0.33257037  0.33355966  0.66570756  1
  Fe  Fe41  1  0.49912027  0.50246354  0.83602191  1
  Cr  Cr42  1  0.49948951  0.83207027  0.49710932  1
  Fe  Fe43  1  0.33474992  0.66337389  0.66586758  1
  Ni  Ni44  1  0.49971652  0.83162688  0.83411026  1
  Ni  Ni45  1  0.83411295  0.17107378  0.49673291  1
  Cr  Cr46  1  0.66754327  0.99972711  0.66561305  1
  Cr  Cr47  1  0.83438075  0.17037837  0.83475026  1
  Fe  Fe48  1  0.83457876  0.50299312  0.49775888  1
  Cr  Cr49  1  0.66563407  0.33755786  0.66443096  1
  Cr  Cr50  1  0.83214527  0.50446765  0.83651172  1
  Fe  Fe51  1  0.83504094  0.83440144  0.49913124  1
  Ni  Ni52  1  0.66598979  0.67015418  0.66647924  1
  Ni  Ni53  1  0.83073127  0.83324030  0.83265569  1
" 