5919,Ni47Fe24Cr27_7,-229.046806696793, 181.759217050273,Ni47Fe24Cr27,"# generated using pymatgen
 data_Cr16Fe13Ni25
_symmetry_space_group_name_H-M   'P 1'
_cell_length_a   7.46160745
_cell_length_b   7.46160745
_cell_length_c   10.55230645
_cell_angle_alpha   90.00000000
_cell_angle_beta   90.00000000
_cell_angle_gamma   90.00000000
_symmetry_Int_Tables_number   1
_chemical_formula_structural   Cr16Fe13Ni25
_chemical_formula_sum   'Cr16 Fe13 Ni25'
_cell_volume   587.50584166
_cell_formula_units_Z   1
loop_
 _symmetry_equiv_pos_site_id
 _symmetry_equiv_pos_as_xyz
  1  'x, y, z'
loop_
 _atom_site_type_symbol
 _atom_site_label
 _atom_site_symmetry_multiplicity
 _atom_site_fract_x
 _atom_site_fract_y
 _atom_site_fract_z
 _atom_site_occupancy
  Ni  Ni0  1  0.00123935  0.99902183  1.00036215  1
  Ni  Ni1  1  0.16668112  0.16670782  0.16740300  1
  Ni  Ni2  1  0.00532847  0.00212863  0.33389245  1
  Ni  Ni3  1  0.00100065  0.33494642  0.00261032  1
  Fe  Fe4  1  0.16734546  0.49878633  0.16678916  1
  Ni  Ni5  1  0.00305118  0.33187424  0.33171195  1
  Fe  Fe6  1  0.00053717  0.66596681  0.99984624  1
  Ni  Ni7  1  0.16808398  0.83496669  0.16616518  1
  Cr  Cr8  1  0.00308122  0.66530825  0.33144962  1
  Fe  Fe9  1  0.33274864  0.00300911  0.00066885  1
  Ni  Ni10  1  0.49881918  0.16745364  0.16584319  1
  Ni  Ni11  1  0.33066947  0.00152484  0.33276851  1
  Ni  Ni12  1  0.33312316  0.33414594  0.00121305  1
  Cr  Cr13  1  0.49874195  0.49985593  0.16633515  1
  Fe  Fe14  1  0.33096808  0.33289685  0.33377466  1
  Fe  Fe15  1  0.33118688  0.66715377  0.99973926  1
  Cr  Cr16  1  0.49690763  0.83487368  0.16720431  1
  Ni  Ni17  1  0.33048330  0.66741277  0.33516634  1
  Ni  Ni18  1  0.66675430  0.00048948  1.00016422  1
  Ni  Ni19  1  0.83534276  0.16848356  0.16556962  1
  Fe  Fe20  1  0.66696902  0.00359579  0.33187827  1
  Ni  Ni21  1  0.66688173  0.33346177  0.99913068  1
  Ni  Ni22  1  0.83528042  0.49704705  0.16446113  1
  Cr  Cr23  1  0.66711257  0.33325236  0.33316477  1
  Fe  Fe24  1  0.66924550  0.66563007  0.99848534  1
  Cr  Cr25  1  0.83498894  0.83521019  0.16677919  1
  Cr  Cr26  1  0.66672294  0.66508815  0.33352652  1
  Fe  Fe27  1  0.16752101  0.16777172  0.49848501  1
  Fe  Fe28  1  0.00158196  0.99938790  0.66824075  1
  Cr  Cr29  1  0.16627018  0.16795818  0.83501094  1
  Ni  Ni30  1  0.16853141  0.50063392  0.49971821  1
  Ni  Ni31  1  0.00170809  0.33689907  0.66691789  1
  Fe  Fe32  1  0.16600186  0.50101580  0.83433501  1
  Ni  Ni33  1  0.16759955  0.83299249  0.50112078  1
  Fe  Fe34  1  0.00335127  0.66629322  0.66859625  1
  Ni  Ni35  1  0.16718443  0.83093419  0.83418676  1
  Ni  Ni36  1  0.49880799  0.16897312  0.49822737  1
  Cr  Cr37  1  0.33284037  0.99923950  0.66832754  1
  Ni  Ni38  1  0.50034769  0.16834134  0.83658981  1
  Ni  Ni39  1  0.49643654  0.49852022  0.50088787  1
  Cr  Cr40  1  0.33463614  0.33359780  0.66577794  1
  Fe  Fe41  1  0.50027182  0.49986310  0.83552068  1
  Cr  Cr42  1  0.49748794  0.83336090  0.49647094  1
  Fe  Fe43  1  0.33180121  0.66605466  0.66709019  1
  Ni  Ni44  1  0.49863648  0.83240575  0.83696099  1
  Cr  Cr45  1  0.83567814  0.16760956  0.50169992  1
  Cr  Cr46  1  0.66446557  0.00108975  0.66823286  1
  Cr  Cr47  1  0.83442092  0.16949596  0.83389993  1
  Cr  Cr48  1  0.83543827  0.49837014  0.50147665  1
  Ni  Ni49  1  0.66600953  0.33531403  0.66867282  1
  Ni  Ni50  1  0.83478859  0.50013332  0.83416077  1
  Cr  Cr51  1  0.83728643  0.83547549  0.49978164  1
  Cr  Cr52  1  0.66595480  0.66609349  0.66837424  1
  Ni  Ni53  1  0.83533204  0.83156877  0.83481851  1
" 