8530,Ni47Fe23Cr29_8,-228.306110813739, 183.127444501378,Ni47Fe23Cr29,"# generated using pymatgen
 data_Cr17Fe12Ni25
_symmetry_space_group_name_H-M   'P 1'
_cell_length_a   7.46149777
_cell_length_b   7.46149777
_cell_length_c   10.55215134
_cell_angle_alpha   90.00000000
_cell_angle_beta   90.00000000
_cell_angle_gamma   90.00000000
_symmetry_Int_Tables_number   1
_chemical_formula_structural   Cr17Fe12Ni25
_chemical_formula_sum   'Cr17 Fe12 Ni25'
_cell_volume   587.47993441
_cell_formula_units_Z   1
loop_
 _symmetry_equiv_pos_site_id
 _symmetry_equiv_pos_as_xyz
  1  'x, y, z'
loop_
 _atom_site_type_symbol
 _atom_site_label
 _atom_site_symmetry_multiplicity
 _atom_site_fract_x
 _atom_site_fract_y
 _atom_site_fract_z
 _atom_site_occupancy
  Ni  Ni0  1  0.99900267  0.00121878  0.99949725  1
  Ni  Ni1  1  0.16752837  0.17029291  0.16666105  1
  Cr  Cr2  1  0.00073818  0.00234686  0.33362621  1
  Fe  Fe3  1  0.99913592  0.33343938  0.00228727  1
  Ni  Ni4  1  0.16764920  0.49983725  0.16966343  1
  Fe  Fe5  1  0.00279312  0.33369276  0.33281983  1
  Cr  Cr6  1  0.00093209  0.66928099  0.00140624  1
  Fe  Fe7  1  0.16723671  0.83470550  0.16794898  1
  Fe  Fe8  1  0.00179775  0.66740333  0.33217782  1
  Cr  Cr9  1  0.33278219  0.99765814  0.00330133  1
  Ni  Ni10  1  0.49894742  0.16693603  0.16853846  1
  Ni  Ni11  1  0.33294517  1.00030115  0.33248344  1
  Ni  Ni12  1  0.33554353  0.33655304  0.00246103  1
  Fe  Fe13  1  0.49802502  0.50015453  0.16757479  1
  Ni  Ni14  1  0.33146960  0.33365458  0.33381868  1
  Ni  Ni15  1  0.33377493  0.66509313  0.00150555  1
  Ni  Ni16  1  0.50069298  0.83258048  0.17105306  1
  Ni  Ni17  1  0.33274787  0.66717429  0.33251688  1
  Cr  Cr18  1  0.66943499  0.00122496  0.00192244  1
  Ni  Ni19  1  0.83490068  0.16643972  0.16618668  1
  Ni  Ni20  1  0.66717169  0.99897278  0.33298970  1
  Ni  Ni21  1  0.66762023  0.33427988  0.00089510  1
  Fe  Fe22  1  0.83426204  0.50005985  0.16699460  1
  Cr  Cr23  1  0.66787417  0.33160316  0.32997310  1
  Cr  Cr24  1  0.66526176  0.66571516  0.99976654  1
  Ni  Ni25  1  0.83275696  0.83312533  0.16919812  1
  Ni  Ni26  1  0.66672102  0.66838372  0.33262940  1
  Ni  Ni27  1  0.16738618  0.16612861  0.49971256  1
  Ni  Ni28  1  0.00055258  1.00018301  0.66742073  1
  Cr  Cr29  1  0.16573888  0.16634774  0.83543756  1
  Fe  Fe30  1  0.16808641  0.50043803  0.49726858  1
  Cr  Cr31  1  0.99949078  0.33169483  0.66489354  1
  Cr  Cr32  1  0.16723668  0.49911236  0.83372065  1
  Ni  Ni33  1  0.16620086  0.83432908  0.49829381  1
  Cr  Cr34  1  0.00062488  0.67000201  0.66662619  1
  Ni  Ni35  1  0.16595936  0.83373526  0.83574642  1
  Cr  Cr36  1  0.49964066  0.16601885  0.49875519  1
  Cr  Cr37  1  0.33007880  0.99812260  0.66649900  1
  Cr  Cr38  1  0.50034009  0.16888153  0.83392820  1
  Cr  Cr39  1  0.50155367  0.50147051  0.50138846  1
  Fe  Fe40  1  0.33383167  0.33339965  0.66595279  1
  Fe  Fe41  1  0.50185002  0.50034824  0.83415730  1
  Fe  Fe42  1  0.50002508  0.83260354  0.49762495  1
  Cr  Cr43  1  0.33409437  0.66782248  0.66840975  1
  Ni  Ni44  1  0.50094921  0.83117099  0.83276770  1
  Fe  Fe45  1  0.83447615  0.16581702  0.49997447  1
  Cr  Cr46  1  0.66962271  0.99971906  0.66613961  1
  Ni  Ni47  1  0.83420829  0.16803591  0.83385681  1
  Cr  Cr48  1  0.83366175  0.50342769  0.49789210  1
  Ni  Ni49  1  0.66853959  0.33549743  0.66959226  1
  Ni  Ni50  1  0.83162771  0.49953783  0.83414835  1
  Fe  Fe51  1  0.83291781  0.83493103  0.49934621  1
  Ni  Ni52  1  0.66731249  0.66563626  0.66897633  1
  Ni  Ni53  1  0.83432962  0.83354329  0.83165598  1
" 