6200,Ni47Fe23Cr29_9,-228.424015302223, 184.601102659367,Ni47Fe23Cr29,"# generated using pymatgen
 data_Cr17Fe12Ni25
_symmetry_space_group_name_H-M   'P 1'
_cell_length_a   7.46104024
_cell_length_b   7.46104024
_cell_length_c   10.55150430
_cell_angle_alpha   90.00000000
_cell_angle_beta   90.00000000
_cell_angle_gamma   90.00000000
_symmetry_Int_Tables_number   1
_chemical_formula_structural   Cr17Fe12Ni25
_chemical_formula_sum   'Cr17 Fe12 Ni25'
_cell_volume   587.37187231
_cell_formula_units_Z   1
loop_
 _symmetry_equiv_pos_site_id
 _symmetry_equiv_pos_as_xyz
  1  'x, y, z'
loop_
 _atom_site_type_symbol
 _atom_site_label
 _atom_site_symmetry_multiplicity
 _atom_site_fract_x
 _atom_site_fract_y
 _atom_site_fract_z
 _atom_site_occupancy
  Ni  Ni0  1  0.00116487  0.00085227  0.00230994  1
  Fe  Fe1  1  0.16577739  0.16524124  0.16789725  1
  Ni  Ni2  1  0.00266531  0.99999050  0.33382256  1
  Cr  Cr3  1  0.99961014  0.33338456  0.00051931  1
  Ni  Ni4  1  0.16484733  0.50077667  0.16783702  1
  Fe  Fe5  1  0.99780630  0.33157690  0.33420116  1
  Cr  Cr6  1  0.00134550  0.66784538  1.00027502  1
  Ni  Ni7  1  0.16577107  0.83496656  0.16839808  1
  Fe  Fe8  1  0.00067156  0.66835096  0.33284023  1
  Ni  Ni9  1  0.33199180  0.99975841  0.99931790  1
  Cr  Cr10  1  0.50092381  0.16700960  0.16576596  1
  Ni  Ni11  1  0.32907909  1.00013831  0.33541919  1
  Fe  Fe12  1  0.33369254  0.33231595  0.00102790  1
  Fe  Fe13  1  0.50000753  0.49928596  0.16750958  1
  Cr  Cr14  1  0.33375885  0.33282888  0.33498279  1
  Cr  Cr15  1  0.33127639  0.66736116  1.00020758  1
  Cr  Cr16  1  0.49910684  0.83698467  0.16608920  1
  Fe  Fe17  1  0.33127959  0.66878832  0.33318811  1
  Ni  Ni18  1  0.66848355  0.00327946  0.99904264  1
  Fe  Fe19  1  0.83569657  0.16705849  0.16793992  1
  Cr  Cr20  1  0.67035187  0.00275098  0.33569151  1
  Ni  Ni21  1  0.66894692  0.33237402  0.00094869  1
  Ni  Ni22  1  0.83473428  0.49795637  0.16847555  1
  Ni  Ni23  1  0.66958309  0.33508420  0.33506127  1
  Cr  Cr24  1  0.66854303  0.66666692  0.00133722  1
  Fe  Fe25  1  0.83676247  0.83524104  0.16737374  1
  Cr  Cr26  1  0.66858153  0.66529375  0.33363561  1
  Ni  Ni27  1  0.16526049  0.16411638  0.49969771  1
  Fe  Fe28  1  0.00050215  0.00094660  0.66482473  1
  Cr  Cr29  1  0.16809879  0.16575561  0.83416046  1
  Cr  Cr30  1  0.16363976  0.50133683  0.50076945  1
  Ni  Ni31  1  0.99909625  0.33350997  0.66628954  1
  Ni  Ni32  1  0.16354221  0.50100318  0.83327549  1
  Ni  Ni33  1  0.16411699  0.83615067  0.49949515  1
  Fe  Fe34  1  0.99910991  0.66776835  0.66719693  1
  Ni  Ni35  1  0.16632118  0.83564860  0.83313886  1
  Ni  Ni36  1  0.50035545  0.16637738  0.50049932  1
  Ni  Ni37  1  0.33275129  1.00004895  0.66637174  1
  Ni  Ni38  1  0.50201741  0.16323437  0.83536937  1
  Ni  Ni39  1  0.50294416  0.49942642  0.49796638  1
  Cr  Cr40  1  0.33222050  0.33099954  0.66632956  1
  Cr  Cr41  1  0.50206918  0.49730820  0.83553397  1
  Cr  Cr42  1  0.49979002  0.83511488  0.50164508  1
  Cr  Cr43  1  0.33328767  0.66894590  0.66770825  1
  Fe  Fe44  1  0.49956140  0.83679827  0.83295967  1
  Ni  Ni45  1  0.83527455  0.16705246  0.50035935  1
  Ni  Ni46  1  0.66720614  1.00015502  0.66701185  1
  Fe  Fe47  1  0.83330846  0.16767665  0.83335007  1
  Ni  Ni48  1  0.83412631  0.50084372  0.50082159  1
  Cr  Cr49  1  0.66919150  0.33257544  0.66464150  1
  Ni  Ni50  1  0.83509162  0.49972242  0.83162517  1
  Ni  Ni51  1  0.83690856  0.83341677  0.50080166  1
  Ni  Ni52  1  0.66953494  0.66769274  0.66575818  1
  Cr  Cr53  1  0.83395332  0.83495261  0.83302348  1
" 