2088,Ni47Fe24Cr27_10,-229.438995611794, 188.888481093278,Ni47Fe24Cr27,"# generated using pymatgen
 data_Cr16Fe13Ni25
_symmetry_space_group_name_H-M   'P 1'
_cell_length_a   7.45966968
_cell_length_b   7.45966968
_cell_length_c   10.54956603
_cell_angle_alpha   90.00000000
_cell_angle_beta   90.00000000
_cell_angle_gamma   90.00000000
_symmetry_Int_Tables_number   1
_chemical_formula_structural   Cr16Fe13Ni25
_chemical_formula_sum   'Cr16 Fe13 Ni25'
_cell_volume   587.04823743
_cell_formula_units_Z   1
loop_
 _symmetry_equiv_pos_site_id
 _symmetry_equiv_pos_as_xyz
  1  'x, y, z'
loop_
 _atom_site_type_symbol
 _atom_site_label
 _atom_site_symmetry_multiplicity
 _atom_site_fract_x
 _atom_site_fract_y
 _atom_site_fract_z
 _atom_site_occupancy
  Cr  Cr0  1  0.99731835  0.00170970  0.00103117  1
  Ni  Ni1  1  0.16640930  0.16651908  0.16873033  1
  Ni  Ni2  1  0.99966745  0.00127428  0.33285700  1
  Fe  Fe3  1  0.00086435  0.33529893  0.99949923  1
  Fe  Fe4  1  0.16962206  0.50016473  0.16637293  1
  Cr  Cr5  1  0.00333788  0.33184240  0.33275899  1
  Ni  Ni6  1  0.99980528  0.66602527  0.99997414  1
  Cr  Cr7  1  0.16726257  0.83396078  0.16729066  1
  Cr  Cr8  1  1.00018125  0.66858363  0.33447089  1
  Fe  Fe9  1  0.33339096  0.99941970  0.99916761  1
  Cr  Cr10  1  0.50028630  0.16915428  0.16879560  1
  Fe  Fe11  1  0.33122678  0.00185197  0.33528991  1
  Cr  Cr12  1  0.33176758  0.33659821  0.00137169  1
  Ni  Ni13  1  0.50080051  0.50073810  0.16848781  1
  Ni  Ni14  1  0.33443744  0.33665597  0.33368548  1
  Ni  Ni15  1  0.33480423  0.66485747  0.99964916  1
  Cr  Cr16  1  0.49940860  0.83164226  0.16582399  1
  Ni  Ni17  1  0.33664763  0.66318128  0.33416346  1
  Fe  Fe18  1  0.66833350  0.99846514  1.00020762  1
  Ni  Ni19  1  0.83475593  0.16716283  0.16541186  1
  Cr  Cr20  1  0.67020730  0.99859885  0.33365587  1
  Fe  Fe21  1  0.66945106  0.33558470  1.00017308  1
  Cr  Cr22  1  0.83194660  0.50032912  0.16607961  1
  Ni  Ni23  1  0.66409359  0.33578409  0.33335745  1
  Fe  Fe24  1  0.66765940  0.66737745  0.99865532  1
  Ni  Ni25  1  0.83423386  0.83419958  0.16725409  1
  Fe  Fe26  1  0.66507860  0.66495062  0.33595263  1
  Ni  Ni27  1  0.16900578  0.16591145  0.50068020  1
  Ni  Ni28  1  0.00120458  0.99933273  0.66736786  1
  Ni  Ni29  1  0.16788011  0.16711315  0.83205748  1
  Ni  Ni30  1  0.16897858  0.50063705  0.50099555  1
  Cr  Cr31  1  0.00298032  0.33461663  0.66852705  1
  Ni  Ni32  1  0.16565561  0.50121614  0.83447020  1
  Cr  Cr33  1  0.16774061  0.83544414  0.50196817  1
  Ni  Ni34  1  0.99815414  0.66743781  0.66751512  1
  Cr  Cr35  1  0.16766877  0.83298840  0.83221491  1
  Cr  Cr36  1  0.49761429  0.16936920  0.49981782  1
  Ni  Ni37  1  0.33247173  0.00163698  0.66736736  1
  Cr  Cr38  1  0.50005299  0.16710308  0.83291875  1
  Ni  Ni39  1  0.50189850  0.50193513  0.50051516  1
  Ni  Ni40  1  0.33357028  0.33507281  0.66645915  1
  Fe  Fe41  1  0.50092028  0.50244834  0.83276505  1
  Ni  Ni42  1  0.49936692  0.83044669  0.50091787  1
  Fe  Fe43  1  0.33523521  0.66527090  0.66653963  1
  Fe  Fe44  1  0.50078388  0.83115404  0.83392436  1
  Cr  Cr45  1  0.83489842  0.16919563  0.50125682  1
  Cr  Cr46  1  0.66847488  0.99749973  0.66823718  1
  Fe  Fe47  1  0.83558598  0.16823603  0.83432391  1
  Ni  Ni48  1  0.83061974  0.50270380  0.50172510  1
  Ni  Ni49  1  0.66529998  0.33799825  0.66809406  1
  Ni  Ni50  1  0.83318000  0.50212079  0.83427091  1
  Fe  Fe51  1  0.83369674  0.83100681  0.50175868  1
  Ni  Ni52  1  0.66754238  0.66627496  0.66652695  1
  Ni  Ni53  1  0.83322510  0.83060305  0.83332130  1
" 