4261,Ni47Fe24Cr27_14,-229.283440849417, 185.471371571911,Ni47Fe24Cr27,"# generated using pymatgen
 data_Cr16Fe13Ni25
_symmetry_space_group_name_H-M   'P 1'
_cell_length_a   7.45946469
_cell_length_b   7.45946469
_cell_length_c   10.54927613
_cell_angle_alpha   90.00000000
_cell_angle_beta   90.00000000
_cell_angle_gamma   90.00000000
_symmetry_Int_Tables_number   1
_chemical_formula_structural   Cr16Fe13Ni25
_chemical_formula_sum   'Cr16 Fe13 Ni25'
_cell_volume   586.99984323
_cell_formula_units_Z   1
loop_
 _symmetry_equiv_pos_site_id
 _symmetry_equiv_pos_as_xyz
  1  'x, y, z'
loop_
 _atom_site_type_symbol
 _atom_site_label
 _atom_site_symmetry_multiplicity
 _atom_site_fract_x
 _atom_site_fract_y
 _atom_site_fract_z
 _atom_site_occupancy
  Ni  Ni0  1  0.99927931  0.99874125  0.00135044  1
  Cr  Cr1  1  0.16536766  0.16616522  0.16599188  1
  Cr  Cr2  1  0.99999608  1.00037898  0.33480603  1
  Cr  Cr3  1  0.00245770  0.33361798  0.99994548  1
  Ni  Ni4  1  0.16918368  0.50142064  0.16790436  1
  Ni  Ni5  1  1.00005745  0.33295874  0.33492604  1
  Cr  Cr6  1  0.99992868  0.66898413  0.00063925  1
  Fe  Fe7  1  0.16950052  0.83198420  0.16696531  1
  Cr  Cr8  1  0.00202312  0.66737139  0.33515565  1
  Fe  Fe9  1  0.33539728  0.99978592  0.00078338  1
  Fe  Fe10  1  0.50255214  0.16533790  0.16769502  1
  Fe  Fe11  1  0.33459578  0.99878784  0.33499366  1
  Cr  Cr12  1  0.33439835  0.33440668  0.99832365  1
  Ni  Ni13  1  0.50028397  0.50462193  0.16782237  1
  Cr  Cr14  1  0.33446738  0.33524088  0.33594935  1
  Fe  Fe15  1  0.33478277  0.66791681  0.00305572  1
  Ni  Ni16  1  0.50124015  0.83377411  0.16663643  1
  Ni  Ni17  1  0.33578255  0.66658480  0.33192889  1
  Ni  Ni18  1  0.66713136  0.99825740  0.00214169  1
  Fe  Fe19  1  0.83157196  0.16484322  0.16739790  1
  Fe  Fe20  1  0.66605165  1.00026331  0.33279214  1
  Cr  Cr21  1  0.66458532  0.33374394  0.00154640  1
  Cr  Cr22  1  0.83298807  0.49952110  0.16849478  1
  Fe  Fe23  1  0.66751431  0.33489956  0.33539427  1
  Ni  Ni24  1  0.66630887  0.67043242  0.00096131  1
  Ni  Ni25  1  0.83001388  0.83637357  0.16508420  1
  Ni  Ni26  1  0.66482814  0.66727725  0.33339357  1
  Ni  Ni27  1  0.16626501  0.16664898  0.50388992  1
  Ni  Ni28  1  0.00133440  1.00011659  0.66594946  1
  Fe  Fe29  1  0.16825958  0.16759410  0.83160451  1
  Ni  Ni30  1  0.16549705  0.50034330  0.50215617  1
  Ni  Ni31  1  0.00348648  0.33473170  0.66668793  1
  Ni  Ni32  1  0.16482626  0.50006858  0.83112851  1
  Ni  Ni33  1  0.16783015  0.83446337  0.50111799  1
  Ni  Ni34  1  0.00204537  0.66668978  0.66616856  1
  Cr  Cr35  1  0.16753904  0.83482531  0.83346361  1
  Ni  Ni36  1  0.50059770  0.16581640  0.50060850  1
  Ni  Ni37  1  0.33300258  0.00336125  0.66630899  1
  Ni  Ni38  1  0.49937321  0.16352611  0.83340166  1
  Ni  Ni39  1  0.50075723  0.50039378  0.49941458  1
  Fe  Fe40  1  0.33141063  0.33273654  0.66601456  1
  Cr  Cr41  1  0.49987550  0.50195363  0.83332023  1
  Cr  Cr42  1  0.49870059  0.83406179  0.50071666  1
  Ni  Ni43  1  0.33014124  0.66564735  0.66526935  1
  Cr  Cr44  1  0.50105263  0.83631738  0.83410085  1
  Fe  Fe45  1  0.83494745  0.16823277  0.50129392  1
  Ni  Ni46  1  0.66732295  0.00172470  0.66654872  1
  Cr  Cr47  1  0.83487113  0.16574571  0.83405852  1
  Ni  Ni48  1  0.83529345  0.49888976  0.49969832  1
  Cr  Cr49  1  0.66532656  0.33279181  0.66586768  1
  Ni  Ni50  1  0.83707387  0.50145247  0.83361674  1
  Fe  Fe51  1  0.83479723  0.83385804  0.50122192  1
  Cr  Cr52  1  0.66981313  0.66791718  0.66735519  1
  Fe  Fe53  1  0.83371829  0.83384731  0.83438464  1
" 