2367,Ni47Fe35Cr17_12,-233.546374097925, 204.467508209895,Ni47Fe35Cr17,"# generated using pymatgen
 data_Cr10Fe19Ni25
_symmetry_space_group_name_H-M   'P 1'
_cell_length_a   7.43490724
_cell_length_b   7.43490724
_cell_length_c   10.51454665
_cell_angle_alpha   90.00000000
_cell_angle_beta   90.00000000
_cell_angle_gamma   90.00000000
_symmetry_Int_Tables_number   1
_chemical_formula_structural   Cr10Fe19Ni25
_chemical_formula_sum   'Cr10 Fe19 Ni25'
_cell_volume   581.22148651
_cell_formula_units_Z   1
loop_
 _symmetry_equiv_pos_site_id
 _symmetry_equiv_pos_as_xyz
  1  'x, y, z'
loop_
 _atom_site_type_symbol
 _atom_site_label
 _atom_site_symmetry_multiplicity
 _atom_site_fract_x
 _atom_site_fract_y
 _atom_site_fract_z
 _atom_site_occupancy
  Ni  Ni0  1  1.00091925  0.00335243  0.99943215  1
  Ni  Ni1  1  0.17070407  0.16886292  0.16900568  1
  Fe  Fe2  1  0.00258084  1.00214027  0.33508162  1
  Ni  Ni3  1  0.00310378  0.33599170  1.00170758  1
  Fe  Fe4  1  0.16821894  0.49947076  0.17024278  1
  Fe  Fe5  1  0.00486911  0.33634856  0.33472997  1
  Ni  Ni6  1  1.00131653  0.66713663  1.00113838  1
  Cr  Cr7  1  0.16811891  0.83668046  0.16911875  1
  Ni  Ni8  1  1.00160821  0.66710048  0.33432763  1
  Fe  Fe9  1  0.33486671  0.00353064  0.00234583  1
  Ni  Ni10  1  0.50055814  0.16971600  0.16914546  1
  Ni  Ni11  1  0.33887016  0.00407768  0.33541603  1
  Fe  Fe12  1  0.33450199  0.33455887  0.00381757  1
  Ni  Ni13  1  0.50277998  0.50009606  0.17026516  1
  Ni  Ni14  1  0.33485548  0.33478247  0.33509227  1
  Cr  Cr15  1  0.33505457  0.66759198  1.00126049  1
  Fe  Fe16  1  0.50348464  0.83752608  0.17059887  1
  Ni  Ni17  1  0.33530412  0.66762564  0.33562665  1
  Ni  Ni18  1  0.66882046  0.00238014  0.00227233  1
  Cr  Cr19  1  0.83534310  0.16946873  0.16789852  1
  Ni  Ni20  1  0.66645247  1.00102589  0.33577982  1
  Fe  Fe21  1  0.67002768  0.33577061  0.00258777  1
  Ni  Ni22  1  0.83532990  0.50243070  0.16970743  1
  Ni  Ni23  1  0.66695998  0.33433430  0.33403412  1
  Cr  Cr24  1  0.67021420  0.66999109  0.00247993  1
  Fe  Fe25  1  0.83477595  0.83506229  0.16927378  1
  Fe  Fe26  1  0.66789409  0.67017246  0.33408196  1
  Fe  Fe27  1  0.17064647  0.16998757  0.50187283  1
  Fe  Fe28  1  0.00325625  1.00210354  0.67079438  1
  Fe  Fe29  1  0.16665056  0.16877242  0.83588906  1
  Ni  Ni30  1  0.16936379  0.50142887  0.50126838  1
  Ni  Ni31  1  0.00382134  0.33730941  0.66970665  1
  Fe  Fe32  1  0.16697721  0.50189407  0.83422893  1
  Cr  Cr33  1  0.16919762  0.83541807  0.50261320  1
  Ni  Ni34  1  1.00203894  0.66681529  0.67101325  1
  Fe  Fe35  1  0.16754780  0.83581596  0.83490203  1
  Fe  Fe36  1  0.50006227  0.16738632  0.50046798  1
  Ni  Ni37  1  0.33601602  1.00212324  0.66878359  1
  Cr  Cr38  1  0.50241736  0.16991910  0.83722453  1
  Cr  Cr39  1  0.50084646  0.50237457  0.50293363  1
  Fe  Fe40  1  0.33333025  0.33577472  0.66834452  1
  Ni  Ni41  1  0.50251705  0.50242100  0.83360781  1
  Ni  Ni42  1  0.50144263  0.83643271  0.50094072  1
  Fe  Fe43  1  0.33534885  0.66895896  0.66990837  1
  Ni  Ni44  1  0.50039416  0.83441397  0.83495929  1
  Cr  Cr45  1  0.83620009  0.16845322  0.50140316  1
  Cr  Cr46  1  0.66794579  1.00023297  0.66826394  1
  Ni  Ni47  1  0.83811546  0.16975237  0.83679684  1
  Cr  Cr48  1  0.83633637  0.50280634  0.50210297  1
  Fe  Fe49  1  0.66954273  0.33707241  0.67045298  1
  Ni  Ni50  1  0.83617556  0.50119375  0.83445319  1
  Ni  Ni51  1  0.83559337  0.83576367  0.50067274  1
  Fe  Fe52  1  0.66918415  0.66932525  0.67086326  1
  Ni  Ni53  1  0.83821648  0.83554275  0.83578159  1
" 