694,Ni47Fe24Cr27_6,-229.374673942895, 185.472940076771,Ni47Fe24Cr27,"# generated using pymatgen
 data_Cr16Fe13Ni25
_symmetry_space_group_name_H-M   'P 1'
_cell_length_a   7.46090301
_cell_length_b   7.46090301
_cell_length_c   10.55131023
_cell_angle_alpha   90.00000000
_cell_angle_beta   90.00000000
_cell_angle_gamma   90.00000000
_symmetry_Int_Tables_number   1
_chemical_formula_structural   Cr16Fe13Ni25
_chemical_formula_sum   'Cr16 Fe13 Ni25'
_cell_volume   587.33946191
_cell_formula_units_Z   1
loop_
 _symmetry_equiv_pos_site_id
 _symmetry_equiv_pos_as_xyz
  1  'x, y, z'
loop_
 _atom_site_type_symbol
 _atom_site_label
 _atom_site_symmetry_multiplicity
 _atom_site_fract_x
 _atom_site_fract_y
 _atom_site_fract_z
 _atom_site_occupancy
  Ni  Ni0  1  0.99768040  0.99930897  0.99813589  1
  Cr  Cr1  1  0.16482344  0.16923812  0.16757844  1
  Ni  Ni2  1  0.99925818  0.00076589  0.33666735  1
  Fe  Fe3  1  0.99603007  0.33566115  0.99885366  1
  Fe  Fe4  1  0.16564779  0.50189953  0.16795624  1
  Fe  Fe5  1  0.99984662  0.33401927  0.33584125  1
  Ni  Ni6  1  0.99881660  0.66547867  0.99949928  1
  Cr  Cr7  1  0.16655625  0.83209810  0.16600345  1
  Fe  Fe8  1  0.00157422  0.66459460  0.33391597  1
  Fe  Fe9  1  0.33607457  0.99978495  0.00220742  1
  Fe  Fe10  1  0.50316842  0.16820054  0.16770104  1
  Cr  Cr11  1  0.33358215  0.00133638  0.33325301  1
  Cr  Cr12  1  0.33508803  0.33612773  0.00260666  1
  Ni  Ni13  1  0.50177952  0.50136851  0.16872618  1
  Ni  Ni14  1  0.33438908  0.33773810  0.33370690  1
  Fe  Fe15  1  0.33635708  0.66585116  0.00142435  1
  Ni  Ni16  1  0.50089156  0.83125258  0.16669194  1
  Ni  Ni17  1  0.33302235  0.66361857  0.33300979  1
  Ni  Ni18  1  0.66873419  1.00024577  0.00108720  1
  Cr  Cr19  1  0.83381632  0.16968906  0.16647989  1
  Ni  Ni20  1  0.66883562  0.00217040  0.33200050  1
  Ni  Ni21  1  0.66648926  0.33567792  0.99938546  1
  Ni  Ni22  1  0.83254168  0.49941709  0.16773463  1
  Ni  Ni23  1  0.66649806  0.33494968  0.33427332  1
  Ni  Ni24  1  0.66824573  0.66526121  0.00071020  1
  Cr  Cr25  1  0.83295915  0.83198638  0.16799220  1
  Fe  Fe26  1  0.66483118  0.66544589  0.33209513  1
  Fe  Fe27  1  0.16503911  0.16797769  0.50090779  1
  Ni  Ni28  1  0.99759267  0.00245335  0.66589084  1
  Cr  Cr29  1  0.16501983  0.16825737  0.83199742  1
  Ni  Ni30  1  0.16716725  0.49890949  0.49810385  1
  Ni  Ni31  1  0.00121998  0.33291751  0.66677328  1
  Ni  Ni32  1  0.16632413  0.49920080  0.83615004  1
  Ni  Ni33  1  0.16637755  0.83230371  0.49966415  1
  Cr  Cr34  1  0.99966117  0.66655691  0.66775551  1
  Cr  Cr35  1  0.16616229  0.83364949  0.83501559  1
  Cr  Cr36  1  0.50279976  0.16943363  0.50179648  1
  Fe  Fe37  1  0.33145214  0.00137551  0.66515661  1
  Cr  Cr38  1  0.50239829  0.16803846  0.83264412  1
  Fe  Fe39  1  0.49988849  0.49946281  0.49879079  1
  Ni  Ni40  1  0.33244301  0.33576546  0.66538923  1
  Ni  Ni41  1  0.50122094  0.49917560  0.83287695  1
  Cr  Cr42  1  0.50014562  0.83245693  0.49991534  1
  Cr  Cr43  1  0.33261202  0.66298477  0.66744888  1
  Cr  Cr44  1  0.50193501  0.83347758  0.83484244  1
  Ni  Ni45  1  0.83431417  0.16920218  0.50058605  1
  Ni  Ni46  1  0.67172684  0.00211873  0.66827493  1
  Ni  Ni47  1  0.83357115  0.16775640  0.83359067  1
  Fe  Fe48  1  0.83482432  0.49774636  0.49924423  1
  Fe  Fe49  1  0.67086421  0.33382519  0.66761875  1
  Ni  Ni50  1  0.83363131  0.49838940  0.83481699  1
  Cr  Cr51  1  0.83375417  0.83505069  0.49777979  1
  Cr  Cr52  1  0.66896441  0.66553800  0.66817836  1
  Ni  Ni53  1  0.83358907  0.83502624  0.83549007  1
" 