4377,Ni47Fe23Cr29_16,-228.653814871972, 182.292017919351,Ni47Fe23Cr29,"# generated using pymatgen
 data_Cr17Fe12Ni25
_symmetry_space_group_name_H-M   'P 1'
_cell_length_a   7.46857711
_cell_length_b   7.46857711
_cell_length_c   10.56216304
_cell_angle_alpha   90.00000000
_cell_angle_beta   90.00000000
_cell_angle_gamma   90.00000000
_symmetry_Int_Tables_number   1
_chemical_formula_structural   Cr17Fe12Ni25
_chemical_formula_sum   'Cr17 Fe12 Ni25'
_cell_volume   589.15369432
_cell_formula_units_Z   1
loop_
 _symmetry_equiv_pos_site_id
 _symmetry_equiv_pos_as_xyz
  1  'x, y, z'
loop_
 _atom_site_type_symbol
 _atom_site_label
 _atom_site_symmetry_multiplicity
 _atom_site_fract_x
 _atom_site_fract_y
 _atom_site_fract_z
 _atom_site_occupancy
  Ni  Ni0  1  0.00096034  0.99768594  0.99950609  1
  Cr  Cr1  1  0.16393065  0.16275563  0.16598502  1
  Ni  Ni2  1  0.99852105  0.99708126  0.33305758  1
  Ni  Ni3  1  0.00379115  0.33257188  0.99788713  1
  Cr  Cr4  1  0.16578273  0.50392085  0.16663626  1
  Ni  Ni5  1  0.00116593  0.33336861  0.33667433  1
  Fe  Fe6  1  0.00207857  0.67081939  0.99879640  1
  Ni  Ni7  1  0.16570082  0.83368802  0.16678314  1
  Ni  Ni8  1  0.99905523  0.66980406  0.33377945  1
  Ni  Ni9  1  0.33281277  0.00036921  0.99921844  1
  Fe  Fe10  1  0.50079249  0.16565946  0.16585562  1
  Fe  Fe11  1  0.32943784  0.99869953  0.33422802  1
  Cr  Cr12  1  0.33363639  0.33245940  0.99730774  1
  Ni  Ni13  1  0.50093843  0.50012640  0.16525381  1
  Cr  Cr14  1  0.33480379  0.33242603  0.33351328  1
  Fe  Fe15  1  0.33166908  0.66964623  0.99790169  1
  Cr  Cr16  1  0.49473436  0.83389272  0.16869871  1
  Fe  Fe17  1  0.32841528  0.66637177  0.33441420  1
  Ni  Ni18  1  0.66586755  0.99695741  0.00001299  1
  Cr  Cr19  1  0.83359997  0.16691982  0.16440706  1
  Fe  Fe20  1  0.67007949  0.00208188  0.33398749  1
  Fe  Fe21  1  0.66500942  0.32973012  0.99842798  1
  Cr  Cr22  1  0.83420291  0.49702818  0.16528582  1
  Fe  Fe23  1  0.66954913  0.33242956  0.33520299  1
  Cr  Cr24  1  0.66626229  0.66854191  0.99845819  1
  Ni  Ni25  1  0.83484272  0.83452551  0.16496057  1
  Cr  Cr26  1  0.66930512  0.66792662  0.33386460  1
  Cr  Cr27  1  0.16492066  0.16344859  0.50099769  1
  Cr  Cr28  1  0.99963970  0.99752665  0.66688395  1
  Ni  Ni29  1  0.16664683  0.16347109  0.83382929  1
  Ni  Ni30  1  0.16127621  0.50413889  0.50146428  1
  Ni  Ni31  1  -0.00004425  0.33537157  0.66487109  1
  Fe  Fe32  1  0.16657914  0.50079704  0.83159122  1
  Ni  Ni33  1  0.16578057  0.83011309  0.49877811  1
  Ni  Ni34  1  0.00182711  0.66713541  0.66573435  1
  Ni  Ni35  1  0.17054073  0.83314428  0.83422567  1
  Ni  Ni36  1  0.50467043  0.16367182  0.49956972  1
  Ni  Ni37  1  0.33441662  0.99910440  0.66793976  1
  Ni  Ni38  1  0.50057924  0.16104769  0.83301495  1
  Cr  Cr39  1  0.49990786  0.50153019  0.50262031  1
  Cr  Cr40  1  0.33146969  0.32998887  0.66869314  1
  Fe  Fe41  1  0.49871266  0.49981023  0.83191086  1
  Cr  Cr42  1  0.49428057  0.83668996  0.50196996  1
  Ni  Ni43  1  0.33058000  0.66738807  0.66854650  1
  Ni  Ni44  1  0.49623306  0.83523389  0.83192597  1
  Ni  Ni45  1  0.83193458  0.16907469  0.50034449  1
  Ni  Ni46  1  0.66523904  0.00114503  0.66592772  1
  Cr  Cr47  1  0.83369697  0.16812440  0.83367289  1
  Ni  Ni48  1  0.83694766  0.49733155  0.50025181  1
  Ni  Ni49  1  0.66544740  0.33189769  0.66533089  1
  Cr  Cr50  1  0.83594619  0.49779996  0.83302907  1
  Fe  Fe51  1  0.83549622  0.83490249  0.49896737  1
  Cr  Cr52  1  0.67038762  0.67086450  0.66754849  1
  Fe  Fe53  1  0.83441262  0.83623121  0.83472648  1
" 