4013,Ni47Fe35Cr17_10,-234.165893396479, 204.923539535588,Ni47Fe35Cr17,"# generated using pymatgen
 data_Cr10Fe19Ni25
_symmetry_space_group_name_H-M   'P 1'
_cell_length_a   7.43515817
_cell_length_b   7.43515817
_cell_length_c   10.51490152
_cell_angle_alpha   90.00000000
_cell_angle_beta   90.00000000
_cell_angle_gamma   90.00000000
_symmetry_Int_Tables_number   1
_chemical_formula_structural   Cr10Fe19Ni25
_chemical_formula_sum   'Cr10 Fe19 Ni25'
_cell_volume   581.28033810
_cell_formula_units_Z   1
loop_
 _symmetry_equiv_pos_site_id
 _symmetry_equiv_pos_as_xyz
  1  'x, y, z'
loop_
 _atom_site_type_symbol
 _atom_site_label
 _atom_site_symmetry_multiplicity
 _atom_site_fract_x
 _atom_site_fract_y
 _atom_site_fract_z
 _atom_site_occupancy
  Fe  Fe0  1  1.00041880  0.99878653  1.00119086  1
  Fe  Fe1  1  0.16677990  0.16888393  0.16659522  1
  Cr  Cr2  1  1.00068702  1.00077747  0.33454451  1
  Ni  Ni3  1  1.00208928  0.33537432  1.00004653  1
  Cr  Cr4  1  0.16802866  0.50446069  0.16859654  1
  Cr  Cr5  1  1.00065244  0.33600349  0.33774592  1
  Ni  Ni6  1  1.00093356  0.66755799  0.00246459  1
  Ni  Ni7  1  0.16842693  0.83283546  0.16762532  1
  Fe  Fe8  1  1.00169191  0.67116273  0.33527187  1
  Cr  Cr9  1  0.33457256  1.00190610  0.00251027  1
  Fe  Fe10  1  0.50426503  0.17000223  0.16770073  1
  Cr  Cr11  1  0.33588016  1.00086882  0.33509376  1
  Fe  Fe12  1  0.33647457  0.33771616  1.00048498  1
  Fe  Fe13  1  0.50485012  0.50391893  0.16791839  1
  Cr  Cr14  1  0.33687170  0.33643284  0.33544170  1
  Ni  Ni15  1  0.33576663  0.66790261  1.00019518  1
  Cr  Cr16  1  0.50384515  0.83524768  0.16871951  1
  Ni  Ni17  1  0.33722079  0.66852469  0.33765932  1
  Ni  Ni18  1  0.66945520  1.00162487  0.99949819  1
  Cr  Cr19  1  0.83212784  0.16947220  0.16738311  1
  Ni  Ni20  1  0.66938037  1.00110314  0.33852812  1
  Fe  Fe21  1  0.66834659  0.33746808  0.99947757  1
  Ni  Ni22  1  0.83433083  0.50281437  0.16789277  1
  Fe  Fe23  1  0.66713432  0.33551392  0.33660852  1
  Ni  Ni24  1  0.67001142  0.66817432  1.00079717  1
  Ni  Ni25  1  0.83469334  0.83356983  0.16773907  1
  Ni  Ni26  1  0.66883970  0.66911327  0.33521978  1
  Cr  Cr27  1  0.16894449  0.16893253  0.50613697  1
  Ni  Ni28  1  1.00162023  1.00186030  0.67001806  1
  Fe  Fe29  1  0.16842092  0.17033947  0.83411590  1
  Fe  Fe30  1  0.17090429  0.50492216  0.50430700  1
  Fe  Fe31  1  1.00095529  0.33715573  0.67124289  1
  Ni  Ni32  1  0.16798026  0.50352538  0.83431800  1
  Ni  Ni33  1  0.16955855  0.83306428  0.50300069  1
  Ni  Ni34  1  1.00166746  0.67007167  0.66818265  1
  Fe  Fe35  1  0.16850896  0.83329825  0.83433686  1
  Ni  Ni36  1  0.50429238  0.16791715  0.50284577  1
  Ni  Ni37  1  0.33588106  1.00164957  0.66897869  1
  Ni  Ni38  1  0.50247638  0.16748120  0.83467697  1
  Fe  Fe39  1  0.50294516  0.50412053  0.50371849  1
  Fe  Fe40  1  0.33775142  0.33678392  0.67021359  1
  Fe  Fe41  1  0.50247688  0.50221486  0.83463045  1
  Ni  Ni42  1  0.50235742  0.83561504  0.50392002  1
  Ni  Ni43  1  0.33614561  0.66955341  0.66863818  1
  Fe  Fe44  1  0.50240921  0.83348715  0.83472293  1
  Ni  Ni45  1  0.83218033  0.16811254  0.50549041  1
  Fe  Fe46  1  0.66834517  1.00020079  0.66896126  1
  Fe  Fe47  1  0.83530888  0.17000004  0.83472095  1
  Cr  Cr48  1  0.83623296  0.50346803  0.50216312  1
  Ni  Ni49  1  0.66877398  0.33540649  0.66900681  1
  Ni  Ni50  1  0.83699762  0.50277262  0.83635558  1
  Ni  Ni51  1  0.83433769  0.83538162  0.50278827  1
  Ni  Ni52  1  0.66896361  0.66743187  0.67019499  1
  Fe  Fe53  1  0.83559212  0.83381990  0.83516815  1
" 