4514,Ni47Fe23Cr29_18,-228.535908487663, 185.711210210189,Ni47Fe23Cr29,"# generated using pymatgen
 data_Cr17Fe12Ni25
_symmetry_space_group_name_H-M   'P 1'
_cell_length_a   7.45945986
_cell_length_b   7.45945986
_cell_length_c   10.54926931
_cell_angle_alpha   90.00000000
_cell_angle_beta   90.00000000
_cell_angle_gamma   90.00000000
_symmetry_Int_Tables_number   1
_chemical_formula_structural   Cr17Fe12Ni25
_chemical_formula_sum   'Cr17 Fe12 Ni25'
_cell_volume   586.99870388
_cell_formula_units_Z   1
loop_
 _symmetry_equiv_pos_site_id
 _symmetry_equiv_pos_as_xyz
  1  'x, y, z'
loop_
 _atom_site_type_symbol
 _atom_site_label
 _atom_site_symmetry_multiplicity
 _atom_site_fract_x
 _atom_site_fract_y
 _atom_site_fract_z
 _atom_site_occupancy
  Ni  Ni0  1  0.99756822  1.00026147  0.99959425  1
  Ni  Ni1  1  0.16726983  0.16865065  0.16886239  1
  Ni  Ni2  1  0.99736592  0.00144149  0.33322889  1
  Cr  Cr3  1  0.00197175  0.33096300  0.00079112  1
  Ni  Ni4  1  0.16698835  0.49788214  0.16957189  1
  Fe  Fe5  1  1.00014602  0.33337052  0.33397024  1
  Ni  Ni6  1  0.99875383  0.66859973  0.00057731  1
  Cr  Cr7  1  0.16587095  0.83460660  0.16852487  1
  Fe  Fe8  1  1.00008134  0.66668058  0.33412176  1
  Cr  Cr9  1  0.33223629  0.00235007  0.99848518  1
  Cr  Cr10  1  0.50093682  0.16761050  0.16873845  1
  Ni  Ni11  1  0.33467062  0.00114531  0.33402351  1
  Ni  Ni12  1  0.33564325  0.33426909  1.00039241  1
  Fe  Fe13  1  0.49921328  0.49994534  0.16845542  1
  Ni  Ni14  1  0.33429358  0.33621802  0.33382051  1
  Cr  Cr15  1  0.33398732  0.66499872  0.00330917  1
  Ni  Ni16  1  0.50317116  0.83481267  0.16852480  1
  Ni  Ni17  1  0.33336330  0.66449384  0.33244388  1
  Fe  Fe18  1  0.66925859  0.00091039  0.00219486  1
  Fe  Fe19  1  0.83560617  0.16457917  0.16841246  1
  Ni  Ni20  1  0.67003069  0.00197880  0.33297748  1
  Fe  Fe21  1  0.66685561  0.33355026  0.99910240  1
  Cr  Cr22  1  0.83425999  0.49938527  0.16624806  1
  Ni  Ni23  1  0.66740173  0.33209087  0.33624664  1
  Fe  Fe24  1  0.66796246  0.66670266  0.00197446  1
  Ni  Ni25  1  0.83256096  0.83472511  0.16660137  1
  Cr  Cr26  1  0.66655757  0.66756261  0.33521755  1
  Cr  Cr27  1  0.16850998  0.16742094  0.49825666  1
  Fe  Fe28  1  1.00015069  0.00222957  0.66785452  1
  Ni  Ni29  1  0.16682121  0.16442882  0.83381035  1
  Ni  Ni30  1  0.16540150  0.50151914  0.49674073  1
  Cr  Cr31  1  0.99707377  0.33374086  0.66661081  1
  Cr  Cr32  1  0.16450110  0.50153847  0.83510451  1
  Cr  Cr33  1  0.16624098  0.83391781  0.50065489  1
  Ni  Ni34  1  0.99861347  0.66823631  0.66595415  1
  Ni  Ni35  1  0.16530169  0.83705066  0.83254010  1
  Ni  Ni36  1  0.50278832  0.16897053  0.49947369  1
  Fe  Fe37  1  0.33279640  0.00240289  0.66811907  1
  Fe  Fe38  1  0.50212189  0.16980450  0.83417055  1
  Ni  Ni39  1  0.50240235  0.49765860  0.49902747  1
  Cr  Cr40  1  0.33680196  0.33407218  0.66771506  1
  Ni  Ni41  1  0.50538871  0.49839163  0.83599911  1
  Cr  Cr42  1  0.49999766  0.83632559  0.49897509  1
  Cr  Cr43  1  0.33338494  0.66545954  0.66688840  1
  Cr  Cr44  1  0.50098856  0.83310142  0.83374372  1
  Ni  Ni45  1  0.83169388  0.16901714  0.49697522  1
  Cr  Cr46  1  0.66928407  0.00446364  0.66448573  1
  Ni  Ni47  1  0.83305285  0.16792433  0.83599572  1
  Ni  Ni48  1  0.83338661  0.49925817  0.50212794  1
  Ni  Ni49  1  0.66783741  0.33344357  0.66758444  1
  Ni  Ni50  1  0.82994806  0.49957804  0.83333342  1
  Fe  Fe51  1  0.83519892  0.83422202  0.49939545  1
  Fe  Fe52  1  0.66840441  0.66250783  0.66577659  1
  Cr  Cr53  1  0.83534734  0.83099528  0.83373964  1
" 