1236,Ni47Fe24Cr27_16,-229.452965002847, 188.315056889056,Ni47Fe24Cr27,"# generated using pymatgen
 data_Cr16Fe13Ni25
_symmetry_space_group_name_H-M   'P 1'
_cell_length_a   7.46154316
_cell_length_b   7.46154316
_cell_length_c   10.55221553
_cell_angle_alpha   90.00000000
_cell_angle_beta   90.00000000
_cell_angle_gamma   90.00000000
_symmetry_Int_Tables_number   1
_chemical_formula_structural   Cr16Fe13Ni25
_chemical_formula_sum   'Cr16 Fe13 Ni25'
_cell_volume   587.49065594
_cell_formula_units_Z   1
loop_
 _symmetry_equiv_pos_site_id
 _symmetry_equiv_pos_as_xyz
  1  'x, y, z'
loop_
 _atom_site_type_symbol
 _atom_site_label
 _atom_site_symmetry_multiplicity
 _atom_site_fract_x
 _atom_site_fract_y
 _atom_site_fract_z
 _atom_site_occupancy
  Ni  Ni0  1  0.99970156  0.99852718  0.00179633  1
  Fe  Fe1  1  0.16943257  0.16575800  0.16772848  1
  Fe  Fe2  1  0.00241578  0.00309283  0.33143453  1
  Cr  Cr3  1  0.00140758  0.32893365  0.00220769  1
  Cr  Cr4  1  0.16779503  0.49979960  0.16614008  1
  Ni  Ni5  1  0.00136279  0.32829513  0.33401546  1
  Fe  Fe6  1  0.00328271  0.66815092  0.00073909  1
  Ni  Ni7  1  0.16851622  0.83425733  0.16672049  1
  Fe  Fe8  1  0.00314804  0.66327674  0.33205273  1
  Ni  Ni9  1  0.33120141  0.00072282  0.00273721  1
  Ni  Ni10  1  0.50041989  0.16591338  0.16600356  1
  Fe  Fe11  1  0.33386948  0.00453375  0.33100307  1
  Ni  Ni12  1  0.33573081  0.33391062  0.00056669  1
  Ni  Ni13  1  0.49870383  0.49958946  0.16832511  1
  Ni  Ni14  1  0.33406037  0.33321568  0.33358608  1
  Ni  Ni15  1  0.33460700  0.66752593  0.00076735  1
  Ni  Ni16  1  0.49742334  0.83671849  0.16765746  1
  Ni  Ni17  1  0.33336985  0.66698221  0.33279577  1
  Fe  Fe18  1  0.66572801  0.00236684  0.00175162  1
  Ni  Ni19  1  0.83272361  0.16641855  0.16886417  1
  Fe  Fe20  1  0.66468063  0.00549006  0.33225676  1
  Cr  Cr21  1  0.66380807  0.33381672  0.00215213  1
  Ni  Ni22  1  0.83498939  0.49854561  0.16960160  1
  Ni  Ni23  1  0.66602276  0.33142274  0.33286948  1
  Cr  Cr24  1  0.66463853  0.66649239  0.00286192  1
  Fe  Fe25  1  0.83380961  0.83493533  0.16775741  1
  Cr  Cr26  1  0.66273086  0.66527019  0.33171253  1
  Ni  Ni27  1  0.16870404  0.16970995  0.49799352  1
  Cr  Cr28  1  0.00316710  0.00424631  0.66671320  1
  Cr  Cr29  1  0.16985574  0.16933962  0.83546382  1
  Ni  Ni30  1  0.16878844  0.49795788  0.50022077  1
  Ni  Ni31  1  0.00206270  0.33130976  0.66546701  1
  Ni  Ni32  1  0.17028490  0.50206915  0.83421014  1
  Cr  Cr33  1  0.16988660  0.83352252  0.49862362  1
  Cr  Cr34  1  0.00392853  0.66775935  0.66926210  1
  Fe  Fe35  1  0.16803403  0.83389385  0.83725010  1
  Ni  Ni36  1  0.49951854  0.16843896  0.50050491  1
  Fe  Fe37  1  0.33385709  0.00415549  0.66688576  1
  Ni  Ni38  1  0.50066683  0.16790786  0.83466672  1
  Fe  Fe39  1  0.49662532  0.49550046  0.49909109  1
  Fe  Fe40  1  0.33364959  0.33427858  0.66631339  1
  Ni  Ni41  1  0.49587797  0.49881490  0.83234689  1
  Cr  Cr42  1  0.49777790  0.83714130  0.49889368  1
  Ni  Ni43  1  0.33291464  0.66460537  0.66721228  1
  Cr  Cr44  1  0.49698022  0.83727003  0.83456551  1
  Ni  Ni45  1  0.83283549  0.16960725  0.49917113  1
  Cr  Cr46  1  0.66860102  0.00310176  0.66786929  1
  Ni  Ni47  1  0.83276252  0.16634604  0.83345709  1
  Cr  Cr48  1  0.83635922  0.49650334  0.49901648  1
  Ni  Ni49  1  0.66452289  0.33097700  0.66648038  1
  Cr  Cr50  1  0.83619406  0.49686775  0.83325544  1
  Cr  Cr51  1  0.83366357  0.83570603  0.49628652  1
  Cr  Cr52  1  0.66242830  0.66355212  0.66615743  1
  Fe  Fe53  1  0.83439118  0.83537339  0.83643511  1
" 