5323,Ni47Fe23Cr29_11,-228.385168135371, 182.858394467151,Ni47Fe23Cr29,"# generated using pymatgen
 data_Cr17Fe12Ni25
_symmetry_space_group_name_H-M   'P 1'
_cell_length_a   7.47027666
_cell_length_b   7.47027666
_cell_length_c   10.56456657
_cell_angle_alpha   90.00000000
_cell_angle_beta   90.00000000
_cell_angle_gamma   90.00000000
_symmetry_Int_Tables_number   1
_chemical_formula_structural   Cr17Fe12Ni25
_chemical_formula_sum   'Cr17 Fe12 Ni25'
_cell_volume   589.55599089
_cell_formula_units_Z   1
loop_
 _symmetry_equiv_pos_site_id
 _symmetry_equiv_pos_as_xyz
  1  'x, y, z'
loop_
 _atom_site_type_symbol
 _atom_site_label
 _atom_site_symmetry_multiplicity
 _atom_site_fract_x
 _atom_site_fract_y
 _atom_site_fract_z
 _atom_site_occupancy
  Fe  Fe0  1  0.00035001  0.00069047  0.99909180  1
  Ni  Ni1  1  0.16569174  0.16752148  0.16614725  1
  Cr  Cr2  1  0.00181444  0.00072584  0.33501711  1
  Fe  Fe3  1  0.00079355  0.33299883  0.99888037  1
  Ni  Ni4  1  0.16417936  0.49757154  0.16694707  1
  Ni  Ni5  1  0.00007102  0.33514574  0.33326678  1
  Fe  Fe6  1  0.99722867  0.66551686  0.99933704  1
  Ni  Ni7  1  0.16519389  0.83392523  0.16509109  1
  Cr  Cr8  1  0.00121068  0.66527338  0.33293148  1
  Ni  Ni9  1  0.33220224  0.00034142  -0.00015249  1
  Cr  Cr10  1  0.49838703  0.16591246  0.16653321  1
  Ni  Ni11  1  0.33156252  0.99920253  0.33330460  1
  Cr  Cr12  1  0.33428476  0.33302427  0.99780511  1
  Cr  Cr13  1  0.50027727  0.49942491  0.16817189  1
  Fe  Fe14  1  0.32884759  0.33218914  0.33495056  1
  Cr  Cr15  1  0.32886965  0.66589171  0.00090585  1
  Cr  Cr16  1  0.50093982  0.83362293  0.16907975  1
  Fe  Fe17  1  0.33001349  0.66438016  0.33376467  1
  Ni  Ni18  1  0.66864633  0.00099088  0.99975517  1
  Cr  Cr19  1  0.83543904  0.16734872  0.16563104  1
  Fe  Fe20  1  0.66847835  0.00061611  0.33400765  1
  Ni  Ni21  1  0.67003086  0.33321867  0.99700427  1
  Fe  Fe22  1  0.83575767  0.50022864  0.16457743  1
  Cr  Cr23  1  0.66708716  0.33349423  0.33609417  1
  Fe  Fe24  1  0.66751146  0.66597061  0.99941326  1
  Ni  Ni25  1  0.83350552  0.83186446  0.16306480  1
  Fe  Fe26  1  0.66876624  0.66590295  0.33375411  1
  Ni  Ni27  1  0.16889247  0.16856052  0.49906444  1
  Cr  Cr28  1  0.00101380  -0.00017406  0.66497813  1
  Ni  Ni29  1  0.16710010  0.16882180  0.83353286  1
  Ni  Ni30  1  0.16664351  0.49755697  0.49939746  1
  Cr  Cr31  1  0.99812987  0.33398775  0.66463043  1
  Ni  Ni32  1  0.16399200  0.49653977  0.83219467  1
  Ni  Ni33  1  0.16874653  0.83272849  0.50117812  1
  Ni  Ni34  1  0.99839797  0.66372894  0.66712094  1
  Cr  Cr35  1  0.16453226  0.83446355  0.83180286  1
  Ni  Ni36  1  0.49714513  0.16808529  0.49995078  1
  Ni  Ni37  1  0.33320786  0.00344192  0.66604536  1
  Fe  Fe38  1  0.50053752  0.16782665  0.83310691  1
  Ni  Ni39  1  0.49960745  0.49765915  0.50069628  1
  Ni  Ni40  1  0.33576647  0.33207420  0.66619161  1
  Fe  Fe41  1  0.50152754  0.49732848  0.83177166  1
  Cr  Cr42  1  0.49866552  0.83280601  0.49755677  1
  Cr  Cr43  1  0.32979349  0.66318232  0.66541105  1
  Cr  Cr44  1  0.50113634  0.83393279  0.83315674  1
  Ni  Ni45  1  0.83276596  0.17031982  0.49888732  1
  Cr  Cr46  1  0.66705637  0.00657741  0.66542845  1
  Ni  Ni47  1  0.83320679  0.16765921  0.83510755  1
  Ni  Ni48  1  0.83257716  0.49843793  0.50050970  1
  Ni  Ni49  1  0.66523583  0.33507351  0.66710109  1
  Ni  Ni50  1  0.83282879  0.49923809  0.83447655  1
  Cr  Cr51  1  0.83328967  0.83091246  0.50257925  1
  Fe  Fe52  1  0.66765086  0.66272429  0.66748286  1
  Ni  Ni53  1  0.83174150  0.83184168  0.83459424  1
" 