7419,Ni47Fe23Cr29_4,-228.214469083254, 178.630055433484,Ni47Fe23Cr29,"# generated using pymatgen
 data_Cr17Fe12Ni25
_symmetry_space_group_name_H-M   'P 1'
_cell_length_a   7.46729333
_cell_length_b   7.46729333
_cell_length_c   10.56034750
_cell_angle_alpha   90.00000000
_cell_angle_beta   90.00000000
_cell_angle_gamma   90.00000000
_symmetry_Int_Tables_number   1
_chemical_formula_structural   Cr17Fe12Ni25
_chemical_formula_sum   'Cr17 Fe12 Ni25'
_cell_volume   588.84993606
_cell_formula_units_Z   1
loop_
 _symmetry_equiv_pos_site_id
 _symmetry_equiv_pos_as_xyz
  1  'x, y, z'
loop_
 _atom_site_type_symbol
 _atom_site_label
 _atom_site_symmetry_multiplicity
 _atom_site_fract_x
 _atom_site_fract_y
 _atom_site_fract_z
 _atom_site_occupancy
  Cr  Cr0  1  0.99948407  0.00022978  0.99928004  1
  Cr  Cr1  1  0.16623280  0.16802879  0.16786259  1
  Ni  Ni2  1  0.99902051  0.00202357  0.33509486  1
  Ni  Ni3  1  0.99782967  0.33318517  0.99800625  1
  Cr  Cr4  1  0.16924696  0.49821876  0.16565789  1
  Ni  Ni5  1  0.99748179  0.33081968  0.33612120  1
  Ni  Ni6  1  0.00071287  0.66558737  0.99857159  1
  Cr  Cr7  1  0.16796333  0.83379318  0.16716818  1
  Cr  Cr8  1  0.00084411  0.66693186  0.33379891  1
  Ni  Ni9  1  0.33596957  0.99748239  0.99834256  1
  Fe  Fe10  1  0.50149218  0.16661814  0.16684617  1
  Ni  Ni11  1  0.33419128  0.99963333  0.33513834  1
  Fe  Fe12  1  0.33310347  0.33482528  0.00035700  1
  Ni  Ni13  1  0.49989719  0.50062051  0.16635031  1
  Ni  Ni14  1  0.33542786  0.33282372  0.33414636  1
  Ni  Ni15  1  0.33477861  0.66874223  0.99899241  1
  Ni  Ni16  1  0.50142594  0.83310779  0.16612183  1
  Ni  Ni17  1  0.33483024  0.66747220  0.33330003  1
  Fe  Fe18  1  0.66570211  0.99885795  0.00129117  1
  Ni  Ni19  1  0.83140389  0.16551973  0.16702680  1
  Fe  Fe20  1  0.66675019  0.00224201  0.33171295  1
  Ni  Ni21  1  0.66786360  0.33211988  0.00085099  1
  Cr  Cr22  1  0.83230754  0.49873883  0.16550906  1
  Ni  Ni23  1  0.66718221  0.33135445  0.33435193  1
  Ni  Ni24  1  0.66444602  0.66720919  0.00131024  1
  Ni  Ni25  1  0.82921891  0.83610351  0.16674179  1
  Fe  Fe26  1  0.66484335  0.66594453  0.33091125  1
  Fe  Fe27  1  0.16626835  0.16530418  0.49748441  1
  Fe  Fe28  1  0.00321905  0.00046857  0.66593920  1
  Fe  Fe29  1  0.16632390  0.16603770  0.83445289  1
  Ni  Ni30  1  0.16652515  0.50023773  0.49866565  1
  Cr  Cr31  1  0.99919756  0.33315666  0.66559822  1
  Ni  Ni32  1  0.16689982  0.50101909  0.83549734  1
  Ni  Ni33  1  0.16794395  0.83454894  0.50148367  1
  Fe  Fe34  1  0.00379471  0.66680707  0.66570058  1
  Fe  Fe35  1  0.16937801  0.83218538  0.83266796  1
  Fe  Fe36  1  0.49899390  0.16619793  0.49790426  1
  Ni  Ni37  1  0.33088455  0.99608848  0.66669583  1
  Cr  Cr38  1  0.49938088  0.16455474  0.83581977  1
  Cr  Cr39  1  0.49952498  0.50046824  0.49931248  1
  Cr  Cr40  1  0.33167722  0.33302142  0.66578291  1
  Cr  Cr41  1  0.49817467  0.50303240  0.83439625  1
  Cr  Cr42  1  0.49739857  0.83379680  0.50009166  1
  Ni  Ni43  1  0.33018314  0.67029058  0.66775428  1
  Ni  Ni44  1  0.49700796  0.83333014  0.83375507  1
  Ni  Ni45  1  0.83502039  0.16761995  0.49776410  1
  Cr  Cr46  1  0.66589431  0.00159413  0.66761846  1
  Ni  Ni47  1  0.83546903  0.16628396  0.83510243  1
  Ni  Ni48  1  0.83452914  0.49770456  0.49980338  1
  Cr  Cr49  1  0.66904860  0.33288848  0.66487966  1
  Cr  Cr50  1  0.83465960  0.49972117  0.83428583  1
  Cr  Cr51  1  0.83454456  0.83390737  0.49978942  1
  Fe  Fe52  1  0.66517592  0.66703367  0.66712337  1
  Cr  Cr53  1  0.83234339  0.83357841  0.83287976  1
" 