16,Ni47Fe24Cr27_5,-229.431522960866, 184.796636607037,Ni47Fe24Cr27,"# generated using pymatgen
 data_Cr16Fe13Ni25
_symmetry_space_group_name_H-M   'P 1'
_cell_length_a   7.45923067
_cell_length_b   7.45923067
_cell_length_c   10.54894518
_cell_angle_alpha   90.00000000
_cell_angle_beta   90.00000000
_cell_angle_gamma   90.00000000
_symmetry_Int_Tables_number   1
_chemical_formula_structural   Cr16Fe13Ni25
_chemical_formula_sum   'Cr16 Fe13 Ni25'
_cell_volume   586.94459816
_cell_formula_units_Z   1
loop_
 _symmetry_equiv_pos_site_id
 _symmetry_equiv_pos_as_xyz
  1  'x, y, z'
loop_
 _atom_site_type_symbol
 _atom_site_label
 _atom_site_symmetry_multiplicity
 _atom_site_fract_x
 _atom_site_fract_y
 _atom_site_fract_z
 _atom_site_occupancy
  Ni  Ni0  1  0.00200166  0.00194513  0.00165045  1
  Ni  Ni1  1  0.16867736  0.16635898  0.16533245  1
  Cr  Cr2  1  1.00009906  0.00185586  0.33239657  1
  Fe  Fe3  1  0.00237885  0.33181841  1.00004523  1
  Cr  Cr4  1  0.16803565  0.50010738  0.16617269  1
  Cr  Cr5  1  0.00125477  0.33299300  0.33382320  1
  Ni  Ni6  1  0.00097351  0.66634921  0.00080925  1
  Ni  Ni7  1  0.16883590  0.83488647  0.16744194  1
  Ni  Ni8  1  0.00244324  0.66514472  0.33267732  1
  Ni  Ni9  1  0.33200398  0.00264955  0.00151024  1
  Fe  Fe10  1  0.49893280  0.16713804  0.16696502  1
  Fe  Fe11  1  0.33526904  0.99858613  0.33036820  1
  Ni  Ni12  1  0.33573319  0.33309619  1.00046423  1
  Ni  Ni13  1  0.50278532  0.49900270  0.16852475  1
  Fe  Fe14  1  0.33581754  0.33538311  0.33223280  1
  Cr  Cr15  1  0.33473711  0.66643936  0.99746620  1
  Ni  Ni16  1  0.49991779  0.83335576  0.16799452  1
  Ni  Ni17  1  0.33539729  0.66458703  0.33412736  1
  Cr  Cr18  1  0.66446698  0.00275016  0.99927302  1
  Ni  Ni19  1  0.83253293  0.16870431  0.16648024  1
  Ni  Ni20  1  0.66553700  0.00271647  0.33261594  1
  Fe  Fe21  1  0.66584529  0.33525048  1.00001531  1
  Fe  Fe22  1  0.83295791  0.49983013  0.16595195  1
  Fe  Fe23  1  0.66653213  0.33488260  0.33198660  1
  Fe  Fe24  1  0.66525292  0.66450197  0.00117327  1
  Cr  Cr25  1  0.83406281  0.83141724  0.16745769  1
  Ni  Ni26  1  0.66354763  0.66646081  0.33126566  1
  Cr  Cr27  1  0.17185263  0.16990330  0.50233582  1
  Cr  Cr28  1  0.99959543  0.00381902  0.66757268  1
  Ni  Ni29  1  0.17033204  0.16846570  0.83516020  1
  Ni  Ni30  1  0.16941802  0.49894787  0.50102652  1
  Fe  Fe31  1  0.00086015  0.33445368  0.66917087  1
  Ni  Ni32  1  0.16713217  0.49769935  0.83291113  1
  Cr  Cr33  1  0.16972949  0.83191131  0.49881140  1
  Cr  Cr34  1  0.00418477  0.66521923  0.66715897  1
  Ni  Ni35  1  0.16745917  0.83547454  0.83507352  1
  Cr  Cr36  1  0.50069665  0.16862939  0.49921994  1
  Ni  Ni37  1  0.33519593  0.00158692  0.67151298  1
  Ni  Ni38  1  0.49849885  0.16888066  0.83363866  1
  Fe  Fe39  1  0.49768911  0.50054940  0.50032337  1
  Ni  Ni40  1  0.33524133  0.33604762  0.66788206  1
  Ni  Ni41  1  0.50079892  0.49575668  0.83236991  1
  Cr  Cr42  1  0.50074988  0.83531822  0.50249408  1
  Ni  Ni43  1  0.33325201  0.66409312  0.66894862  1
  Fe  Fe44  1  0.49674049  0.83509443  0.83322785  1
  Fe  Fe45  1  0.83197377  0.16828227  0.50040969  1
  Ni  Ni46  1  0.66586806  0.00599001  0.66887318  1
  Fe  Fe47  1  0.83461934  0.17088487  0.83507071  1
  Cr  Cr48  1  0.83255908  0.50066480  0.49915008  1
  Ni  Ni49  1  0.66677244  0.33170712  0.66799468  1
  Ni  Ni50  1  0.83345116  0.49849064  0.83767029  1
  Cr  Cr51  1  0.83068112  0.83411543  0.49815933  1
  Cr  Cr52  1  0.66331387  0.66531921  0.67064045  1
  Cr  Cr53  1  0.83359926  0.83277881  0.83526571  1
" 