6990,Ni47Fe35Cr17_16,-233.757542564988, 201.363995406433,Ni47Fe35Cr17,"# generated using pymatgen
 data_Cr10Fe19Ni25
_symmetry_space_group_name_H-M   'P 1'
_cell_length_a   7.43316155
_cell_length_b   7.43316155
_cell_length_c   10.51207788
_cell_angle_alpha   90.00000000
_cell_angle_beta   90.00000000
_cell_angle_gamma   90.00000000
_symmetry_Int_Tables_number   1
_chemical_formula_structural   Cr10Fe19Ni25
_chemical_formula_sum   'Cr10 Fe19 Ni25'
_cell_volume   580.81217807
_cell_formula_units_Z   1
loop_
 _symmetry_equiv_pos_site_id
 _symmetry_equiv_pos_as_xyz
  1  'x, y, z'
loop_
 _atom_site_type_symbol
 _atom_site_label
 _atom_site_symmetry_multiplicity
 _atom_site_fract_x
 _atom_site_fract_y
 _atom_site_fract_z
 _atom_site_occupancy
  Ni  Ni0  1  1.00205275  1.00007639  0.00270943  1
  Ni  Ni1  1  0.17074037  0.16891797  0.16970357  1
  Ni  Ni2  1  0.00436980  0.00422822  0.33524594  1
  Cr  Cr3  1  0.00331365  0.33489918  1.00185230  1
  Ni  Ni4  1  0.16915961  0.50238952  0.16862095  1
  Ni  Ni5  1  0.00252730  0.33558979  0.33756455  1
  Ni  Ni6  1  0.00501412  0.67136105  0.00337009  1
  Ni  Ni7  1  0.16908959  0.83570668  0.16942842  1
  Fe  Fe8  1  0.00524991  0.66967389  0.33438337  1
  Ni  Ni9  1  0.33549601  1.00170885  0.00425289  1
  Ni  Ni10  1  0.50093408  0.16941302  0.16812545  1
  Ni  Ni11  1  0.33381073  1.00154438  0.33636697  1
  Ni  Ni12  1  0.33777044  0.33633624  0.00270414  1
  Fe  Fe13  1  0.49827921  0.50181012  0.16936040  1
  Fe  Fe14  1  0.33418007  0.33537301  0.33546917  1
  Ni  Ni15  1  0.33344039  0.66883832  1.00200455  1
  Ni  Ni16  1  0.50040990  0.83718388  0.16842966  1
  Ni  Ni17  1  0.33463871  0.66917711  0.33644792  1
  Ni  Ni18  1  0.66947384  0.00440211  0.00247296  1
  Fe  Fe19  1  0.83735487  0.16779791  0.16942793  1
  Cr  Cr20  1  0.66815707  0.00266250  0.33419430  1
  Ni  Ni21  1  0.66655509  0.33310413  0.00334544  1
  Fe  Fe22  1  0.83752057  0.50103478  0.16915033  1
  Fe  Fe23  1  0.66842543  0.33467189  0.33579625  1
  Cr  Cr24  1  0.66829575  0.66958820  0.00399301  1
  Ni  Ni25  1  0.83758174  0.83563904  0.16646219  1
  Cr  Cr26  1  0.66793240  0.66777507  0.33465511  1
  Ni  Ni27  1  0.16788821  0.16935266  0.50133769  1
  Fe  Fe28  1  0.00348812  0.00367359  0.66883587  1
  Cr  Cr29  1  0.17014629  0.16782023  0.83726105  1
  Ni  Ni30  1  0.16902954  0.50186429  0.50253412  1
  Ni  Ni31  1  0.00267358  0.33596777  0.66750949  1
  Fe  Fe32  1  0.17068031  0.50534575  0.83572150  1
  Fe  Fe33  1  0.17014008  0.83571205  0.50202346  1
  Ni  Ni34  1  0.00430651  0.66927531  0.66839634  1
  Ni  Ni35  1  0.16763956  0.83440080  0.83565840  1
  Fe  Fe36  1  0.50065379  0.16893344  0.50133238  1
  Fe  Fe37  1  0.33391110  1.00177295  0.66785644  1
  Ni  Ni38  1  0.50328886  0.16864634  0.83713488  1
  Ni  Ni39  1  0.50136922  0.50315624  0.50178648  1
  Cr  Cr40  1  0.33376047  0.33549556  0.66906340  1
  Fe  Fe41  1  0.49973407  0.50125636  0.83645362  1
  Fe  Fe42  1  0.49853271  0.83593981  0.50287469  1
  Fe  Fe43  1  0.33346944  0.66891341  0.66773013  1
  Cr  Cr44  1  0.50140360  0.83685706  0.83521051  1
  Ni  Ni45  1  0.83767248  0.16930975  0.50273946  1
  Fe  Fe46  1  0.66960825  0.00306814  0.66924510  1
  Fe  Fe47  1  0.83451089  0.16563981  0.83512591  1
  Fe  Fe48  1  0.83830536  0.50029075  0.50239883  1
  Cr  Cr49  1  0.66898706  0.33412129  0.66775401  1
  Cr  Cr50  1  0.83669909  0.50342930  0.83454293  1
  Cr  Cr51  1  0.83676111  0.83526695  0.50383481  1
  Fe  Fe52  1  0.66833425  0.66831110  0.66763911  1
  Fe  Fe53  1  0.83831933  0.83836276  0.83554884  1
" 