508,Ni47Fe23Cr29_10,-228.795278949562, 182.227194562344,Ni47Fe23Cr29,"# generated using pymatgen
 data_Cr17Fe12Ni25
_symmetry_space_group_name_H-M   'P 1'
_cell_length_a   7.46825200
_cell_length_b   7.46825200
_cell_length_c   10.56170327
_cell_angle_alpha   90.00000000
_cell_angle_beta   90.00000000
_cell_angle_gamma   90.00000000
_symmetry_Int_Tables_number   1
_chemical_formula_structural   Cr17Fe12Ni25
_chemical_formula_sum   'Cr17 Fe12 Ni25'
_cell_volume   589.07676091
_cell_formula_units_Z   1
loop_
 _symmetry_equiv_pos_site_id
 _symmetry_equiv_pos_as_xyz
  1  'x, y, z'
loop_
 _atom_site_type_symbol
 _atom_site_label
 _atom_site_symmetry_multiplicity
 _atom_site_fract_x
 _atom_site_fract_y
 _atom_site_fract_z
 _atom_site_occupancy
  Ni  Ni0  1  0.99900865  0.00328313  0.00178561  1
  Ni  Ni1  1  0.16822025  0.16571310  0.16685214  1
  Fe  Fe2  1  0.00076650  0.00202200  0.33262239  1
  Fe  Fe3  1  0.00017947  0.33136636  0.99862307  1
  Cr  Cr4  1  0.16930729  0.49661704  0.16630594  1
  Fe  Fe5  1  0.00231748  0.33373084  0.33366137  1
  Cr  Cr6  1  0.00151054  0.67378965  0.00384133  1
  Fe  Fe7  1  0.16977880  0.83528137  0.16819002  1
  Cr  Cr8  1  0.00040638  0.67096206  0.33066931  1
  Cr  Cr9  1  0.32989229  0.99857563  0.00135347  1
  Ni  Ni10  1  0.49786268  0.16539201  0.16748976  1
  Fe  Fe11  1  0.33188113  0.99677608  0.33054298  1
  Ni  Ni12  1  0.33519489  0.33235046  0.00177789  1
  Ni  Ni13  1  0.49870897  0.50030980  0.16548831  1
  Ni  Ni14  1  0.33343150  0.33096706  0.33272689  1
  Ni  Ni15  1  0.33633039  0.66477855  0.00121741  1
  Ni  Ni16  1  0.50166696  0.83200275  0.16583624  1
  Ni  Ni17  1  0.33657433  0.66236737  0.33202977  1
  Ni  Ni18  1  0.66836054  0.00019639  0.00243352  1
  Cr  Cr19  1  0.83303285  0.16722701  0.16575231  1
  Fe  Fe20  1  0.66583716  0.99724917  0.33053128  1
  Ni  Ni21  1  0.66453905  0.33248036  0.00005773  1
  Cr  Cr22  1  0.83061313  0.50182140  0.16271554  1
  Fe  Fe23  1  0.66365080  0.33673480  0.33114901  1
  Ni  Ni24  1  0.66477761  0.66579722  0.99989158  1
  Ni  Ni25  1  0.82999120  0.83611519  0.16674345  1
  Ni  Ni26  1  0.66536900  0.66810126  0.33173496  1
  Ni  Ni27  1  0.16447612  0.16780725  0.49936540  1
  Ni  Ni28  1  0.99986779  0.00196196  0.66521900  1
  Ni  Ni29  1  0.16422363  0.16584505  0.83338502  1
  Ni  Ni30  1  0.16755659  0.49710559  0.49902595  1
  Fe  Fe31  1  0.00003008  0.33279373  0.66716787  1
  Cr  Cr32  1  0.16460583  0.49942566  0.83549209  1
  Cr  Cr33  1  0.16723840  0.83323397  0.50139982  1
  Ni  Ni34  1  0.99828830  0.66840908  0.66554113  1
  Fe  Fe35  1  0.16412887  0.83622479  0.83225972  1
  Cr  Cr36  1  0.49701882  0.16413410  0.49468420  1
  Ni  Ni37  1  0.32817462  0.00091382  0.66825517  1
  Cr  Cr38  1  0.49930304  0.16217761  0.83708353  1
  Ni  Ni39  1  0.50000161  0.50004178  0.49697695  1
  Cr  Cr40  1  0.33392931  0.33104460  0.66520050  1
  Fe  Fe41  1  0.50296202  0.49870228  0.83679253  1
  Cr  Cr42  1  0.50263983  0.83159323  0.50156486  1
  Cr  Cr43  1  0.33445292  0.66421350  0.66859982  1
  Fe  Fe44  1  0.49902154  0.83057938  0.83499061  1
  Fe  Fe45  1  0.83534347  0.16664800  0.49732749  1
  Cr  Cr46  1  0.66794760  0.00160626  0.66665354  1
  Ni  Ni47  1  0.83639161  0.16775986  0.83568577  1
  Cr  Cr48  1  0.83483793  0.50333090  0.49946030  1
  Cr  Cr49  1  0.66719444  0.33448560  0.66618118  1
  Ni  Ni50  1  0.83302514  0.49996264  0.83510657  1
  Ni  Ni51  1  0.83320145  0.83507441  0.49921913  1
  Ni  Ni52  1  0.66954057  0.66517466  0.66739838  1
  Cr  Cr53  1  0.83103438  0.83338798  0.83358594  1
" 