7718,Ni47Fe24Cr27_1,-229.011251265155, 184.081670409972,Ni47Fe24Cr27,"# generated using pymatgen
 data_Cr16Fe13Ni25
_symmetry_space_group_name_H-M   'P 1'
_cell_length_a   7.46073677
_cell_length_b   7.46073677
_cell_length_c   10.55107512
_cell_angle_alpha   90.00000000
_cell_angle_beta   90.00000000
_cell_angle_gamma   90.00000000
_symmetry_Int_Tables_number   1
_chemical_formula_structural   Cr16Fe13Ni25
_chemical_formula_sum   'Cr16 Fe13 Ni25'
_cell_volume   587.30020167
_cell_formula_units_Z   1
loop_
 _symmetry_equiv_pos_site_id
 _symmetry_equiv_pos_as_xyz
  1  'x, y, z'
loop_
 _atom_site_type_symbol
 _atom_site_label
 _atom_site_symmetry_multiplicity
 _atom_site_fract_x
 _atom_site_fract_y
 _atom_site_fract_z
 _atom_site_occupancy
  Ni  Ni0  1  0.99821113  0.99892792  0.00058802  1
  Cr  Cr1  1  0.16656616  0.16819901  0.16636121  1
  Cr  Cr2  1  0.99786307  0.00092788  0.33305839  1
  Ni  Ni3  1  0.99692379  0.33528789  0.00373180  1
  Fe  Fe4  1  0.16805795  0.49972882  0.16651220  1
  Fe  Fe5  1  0.99866482  0.33490495  0.33423232  1
  Fe  Fe6  1  0.99835522  0.66910864  0.00132846  1
  Ni  Ni7  1  0.16704948  0.83399323  0.16684682  1
  Cr  Cr8  1  1.00029872  0.66445012  0.32908420  1
  Cr  Cr9  1  0.33618053  0.99846497  1.00036444  1
  Ni  Ni10  1  0.50200318  0.16883129  0.16769828  1
  Fe  Fe11  1  0.33532530  0.00179931  0.33230958  1
  Fe  Fe12  1  0.33564631  0.33431604  0.00251306  1
  Ni  Ni13  1  0.50211925  0.50002561  0.16837389  1
  Ni  Ni14  1  0.33548305  0.33605769  0.33381177  1
  Cr  Cr15  1  0.33409100  0.66845952  0.00175010  1
  Ni  Ni16  1  0.50217687  0.83231955  0.16995553  1
  Ni  Ni17  1  0.33403532  0.66427722  0.33198143  1
  Fe  Fe18  1  0.66807459  0.99840886  0.00214712  1
  Ni  Ni19  1  0.83279400  0.16829776  0.16738203  1
  Ni  Ni20  1  0.66639628  0.00336911  0.33018788  1
  Fe  Fe21  1  0.66702824  0.33352001  0.00328759  1
  Ni  Ni22  1  0.83134229  0.49921993  0.16557298  1
  Ni  Ni23  1  0.66699995  0.33330720  0.33336293  1
  Ni  Ni24  1  0.66865253  0.66749537  0.00167185  1
  Ni  Ni25  1  0.83196260  0.83385974  0.16543932  1
  Fe  Fe26  1  0.66707469  0.66370606  0.33162223  1
  Ni  Ni27  1  0.16573933  0.17037994  0.50025201  1
  Fe  Fe28  1  0.99981001  1.00001072  0.66763917  1
  Cr  Cr29  1  0.16537982  0.16808364  0.83501341  1
  Fe  Fe30  1  0.16735127  0.50133505  0.50020471  1
  Ni  Ni31  1  0.99918027  0.33569094  0.66302199  1
  Cr  Cr32  1  0.16498115  0.49973727  0.83430251  1
  Cr  Cr33  1  0.16763881  0.83447578  0.50185479  1
  Ni  Ni34  1  0.99906573  0.66529889  0.66981089  1
  Ni  Ni35  1  0.16410756  0.83321902  0.83217660  1
  Fe  Fe36  1  0.50038760  0.16772209  0.49705563  1
  Cr  Cr37  1  0.33531948  0.00055939  0.66871771  1
  Ni  Ni38  1  0.50178407  0.16744744  0.83713923  1
  Ni  Ni39  1  0.50161217  0.50048533  0.49929352  1
  Cr  Cr40  1  0.33499259  0.33378899  0.66633499  1
  Cr  Cr41  1  0.50330154  0.50126902  0.83409565  1
  Cr  Cr42  1  0.50139544  0.82937243  0.49731139  1
  Ni  Ni43  1  0.33353085  0.66732843  0.66717737  1
  Ni  Ni44  1  0.50293272  0.83171747  0.83289820  1
  Fe  Fe45  1  0.83338937  0.16870024  0.49823059  1
  Cr  Cr46  1  0.66661875  0.00142052  0.66879949  1
  Cr  Cr47  1  0.83521570  0.16838060  0.83539936  1
  Ni  Ni48  1  0.83228560  0.49907335  0.50130465  1
  Cr  Cr49  1  0.66819493  0.33395942  0.66650518  1
  Fe  Fe50  1  0.83453708  0.50253209  0.83459642  1
  Cr  Cr51  1  0.83203995  0.83140037  0.50102406  1
  Ni  Ni52  1  0.66854944  0.66643614  0.66719205  1
  Ni  Ni53  1  0.83412104  0.83175032  0.83431161  1
" 