7473,Ni47Fe35Cr17_19,-233.48235233402, 200.861830195444,Ni47Fe35Cr17,"# generated using pymatgen
 data_Cr10Fe19Ni25
_symmetry_space_group_name_H-M   'P 1'
_cell_length_a   7.43548808
_cell_length_b   7.43548808
_cell_length_c   10.51536808
_cell_angle_alpha   90.00000000
_cell_angle_beta   90.00000000
_cell_angle_gamma   90.00000000
_symmetry_Int_Tables_number   1
_chemical_formula_structural   Cr10Fe19Ni25
_chemical_formula_sum   'Cr10 Fe19 Ni25'
_cell_volume   581.35771841
_cell_formula_units_Z   1
loop_
 _symmetry_equiv_pos_site_id
 _symmetry_equiv_pos_as_xyz
  1  'x, y, z'
loop_
 _atom_site_type_symbol
 _atom_site_label
 _atom_site_symmetry_multiplicity
 _atom_site_fract_x
 _atom_site_fract_y
 _atom_site_fract_z
 _atom_site_occupancy
  Fe  Fe0  1  1.00116634  1.00101075  0.00400659  1
  Fe  Fe1  1  0.16794807  0.16789626  0.16821872  1
  Fe  Fe2  1  0.00244854  1.00161018  0.33549417  1
  Ni  Ni3  1  0.00249972  0.33580045  0.00461734  1
  Fe  Fe4  1  0.16573376  0.50139165  0.16777067  1
  Ni  Ni5  1  1.00013426  0.33375001  0.33421647  1
  Fe  Fe6  1  1.00103944  0.66964418  0.00262499  1
  Ni  Ni7  1  0.16782855  0.83668782  0.16848944  1
  Ni  Ni8  1  0.99945571  0.66988738  0.33391640  1
  Ni  Ni9  1  0.33591839  0.00380958  0.00405878  1
  Fe  Fe10  1  0.50288733  0.16731116  0.16676466  1
  Ni  Ni11  1  0.33523863  1.00192723  0.33523692  1
  Ni  Ni12  1  0.33567575  0.33391628  1.00156183  1
  Ni  Ni13  1  0.50426630  0.50152260  0.16769626  1
  Cr  Cr14  1  0.33447972  0.33252323  0.33512669  1
  Cr  Cr15  1  0.33520927  0.66879394  0.00235339  1
  Fe  Fe16  1  0.50413728  0.83700383  0.16849885  1
  Cr  Cr17  1  0.33623707  0.67184796  0.33534290  1
  Ni  Ni18  1  0.66874956  1.00199248  0.00265420  1
  Ni  Ni19  1  0.83526178  0.16914788  0.16868751  1
  Fe  Fe20  1  0.66978331  1.00186456  0.33484462  1
  Ni  Ni21  1  0.66819106  0.33493037  0.00355167  1
  Fe  Fe22  1  0.83544928  0.50263548  0.16897461  1
  Fe  Fe23  1  0.66989283  0.33529593  0.33474668  1
  Ni  Ni24  1  0.67063563  0.66944217  0.00353934  1
  Ni  Ni25  1  0.83554612  0.83535020  0.16888549  1
  Ni  Ni26  1  0.67034767  0.67004263  0.33469080  1
  Ni  Ni27  1  0.16816463  0.16602483  0.50226432  1
  Fe  Fe28  1  0.00230202  1.00049949  0.66686792  1
  Cr  Cr29  1  0.17090715  0.16978978  0.83565960  1
  Cr  Cr30  1  0.16847766  0.50279431  0.50353292  1
  Ni  Ni31  1  0.00218890  0.33457399  0.66753153  1
  Ni  Ni32  1  0.16959142  0.50293939  0.83441194  1
  Ni  Ni33  1  0.16968351  0.83765129  0.50383940  1
  Ni  Ni34  1  0.00479182  0.67061079  0.67035371  1
  Fe  Fe35  1  0.16702676  0.83469583  0.83411425  1
  Fe  Fe36  1  0.50202434  0.16758012  0.50365572  1
  Ni  Ni37  1  0.33494820  1.00176224  0.66707475  1
  Ni  Ni38  1  0.50183200  0.16979804  0.83576147  1
  Fe  Fe39  1  0.50275145  0.50131603  0.50248617  1
  Fe  Fe40  1  0.33638711  0.33606230  0.66941019  1
  Fe  Fe41  1  0.50106803  0.49890201  0.83612797  1
  Fe  Fe42  1  0.50102493  0.83747005  0.50226704  1
  Ni  Ni43  1  0.33329532  0.66991529  0.66839594  1
  Cr  Cr44  1  0.50251542  0.83741281  0.83691261  1
  Ni  Ni45  1  0.83513287  0.16818793  0.50273220  1
  Fe  Fe46  1  0.66914943  0.00379031  0.66823390  1
  Cr  Cr47  1  0.83314818  0.16768488  0.83516284  1
  Cr  Cr48  1  0.83524468  0.50078705  0.50015389  1
  Ni  Ni49  1  0.66770140  0.33291892  0.66797912  1
  Cr  Cr50  1  0.83654869  0.50276847  0.83721253  1
  Fe  Fe51  1  0.83736321  0.83735701  0.50125052  1
  Cr  Cr52  1  0.66859021  0.66900778  0.66866226  1
  Ni  Ni53  1  0.83657933  0.83526294  0.83597536  1
" 