8497,Ni47Fe23Cr29_12,-227.922844018749, 171.963303184427,Ni47Fe23Cr29,"# generated using pymatgen
 data_Cr17Fe12Ni25
_symmetry_space_group_name_H-M   'P 1'
_cell_length_a   7.46911056
_cell_length_b   7.46911056
_cell_length_c   10.56291746
_cell_angle_alpha   90.00000000
_cell_angle_beta   90.00000000
_cell_angle_gamma   90.00000000
_symmetry_Int_Tables_number   1
_chemical_formula_structural   Cr17Fe12Ni25
_chemical_formula_sum   'Cr17 Fe12 Ni25'
_cell_volume   589.27994737
_cell_formula_units_Z   1
loop_
 _symmetry_equiv_pos_site_id
 _symmetry_equiv_pos_as_xyz
  1  'x, y, z'
loop_
 _atom_site_type_symbol
 _atom_site_label
 _atom_site_symmetry_multiplicity
 _atom_site_fract_x
 _atom_site_fract_y
 _atom_site_fract_z
 _atom_site_occupancy
  Ni  Ni0  1  0.00372932  0.00058427  0.00118512  1
  Fe  Fe1  1  0.16623316  0.16299973  0.16433381  1
  Ni  Ni2  1  0.00129426  0.99674930  0.33297242  1
  Fe  Fe3  1  0.00192014  0.33177048  0.00035074  1
  Cr  Cr4  1  0.16498686  0.50009025  0.16593997  1
  Cr  Cr5  1  0.99956923  0.33292339  0.33412697  1
  Cr  Cr6  1  0.00146118  0.66979728  0.00065703  1
  Ni  Ni7  1  0.16464106  0.83630786  0.16602784  1
  Ni  Ni8  1  0.99844715  0.67016156  0.33399947  1
  Fe  Fe9  1  0.33076089  0.99981141  0.99921753  1
  Ni  Ni10  1  0.49657895  0.16648888  0.16577221  1
  Fe  Fe11  1  0.33103051  0.99940049  0.33479513  1
  Ni  Ni12  1  0.33238461  0.33347665  0.99935817  1
  Fe  Fe13  1  0.50123695  0.50137572  0.16583955  1
  Cr  Cr14  1  0.33515882  0.33162314  0.33531843  1
  Fe  Fe15  1  0.33430620  0.66680244  0.99769573  1
  Cr  Cr16  1  0.49924706  0.83411655  0.16677200  1
  Cr  Cr17  1  0.33145680  0.66681964  0.33510678  1
  Cr  Cr18  1  0.66847224  0.99890260  0.00026520  1
  Fe  Fe19  1  0.83611169  0.16431049  0.16644299  1
  Cr  Cr20  1  0.66805291  0.00020619  0.33509024  1
  Cr  Cr21  1  0.66410041  0.33448918  0.00357178  1
  Ni  Ni22  1  0.83283341  0.50204219  0.16687776  1
  Cr  Cr23  1  0.66492616  0.33405336  0.33240176  1
  Ni  Ni24  1  0.66438920  0.66522878  0.00043395  1
  Ni  Ni25  1  0.83520705  0.83116202  0.16765684  1
  Ni  Ni26  1  0.66925543  0.66588302  0.33429165  1
  Fe  Fe27  1  0.16602878  0.16423907  0.50204492  1
  Ni  Ni28  1  0.00380572  0.00150490  0.66532553  1
  Ni  Ni29  1  0.16738735  0.16813879  0.83371429  1
  Ni  Ni30  1  0.16609601  0.50012136  0.50174425  1
  Fe  Fe31  1  0.00340444  0.33227828  0.66464976  1
  Ni  Ni32  1  0.16955319  0.49708398  0.83327177  1
  Ni  Ni33  1  0.16685389  0.83410031  0.49965277  1
  Cr  Cr34  1  0.00266025  0.66809642  0.66376931  1
  Fe  Fe35  1  0.16914424  0.83582043  0.83246509  1
  Ni  Ni36  1  0.49742228  0.16510650  0.50059687  1
  Ni  Ni37  1  0.33002534  0.99889907  0.66570432  1
  Cr  Cr38  1  0.49573445  0.16408197  0.83214562  1
  Ni  Ni39  1  0.49954699  0.50139581  0.50153689  1
  Fe  Fe40  1  0.33054904  0.33411033  0.66581961  1
  Fe  Fe41  1  0.49671479  0.50266807  0.83283029  1
  Ni  Ni42  1  0.49880318  0.83298859  0.50120581  1
  Ni  Ni43  1  0.33386338  0.66622594  0.66802079  1
  Ni  Ni44  1  0.49642170  0.83031539  0.83295714  1
  Ni  Ni45  1  0.83510208  0.16592016  0.50082031  1
  Cr  Cr46  1  0.66663045  0.99831320  0.66423226  1
  Cr  Cr47  1  0.83801786  0.16673867  0.83310931  1
  Ni  Ni48  1  0.83384928  0.50144479  0.49918232  1
  Cr  Cr49  1  0.66509012  0.33447294  0.66330197  1
  Cr  Cr50  1  0.83467559  0.49998382  0.83247316  1
  Ni  Ni51  1  0.83395985  0.83223628  0.49844757  1
  Ni  Ni52  1  0.66266374  0.66578255  0.66477359  1
  Cr  Cr53  1  0.83074701  0.83289814  0.83224604  1
" 