6454,Ni47Fe23Cr29_0,-228.556864841514, 185.286738452417,Ni47Fe23Cr29,"# generated using pymatgen
 data_Cr17Fe12Ni25
_symmetry_space_group_name_H-M   'P 1'
_cell_length_a   7.46381817
_cell_length_b   7.46381817
_cell_length_c   10.55543289
_cell_angle_alpha   90.00000000
_cell_angle_beta   90.00000000
_cell_angle_gamma   90.00000000
_symmetry_Int_Tables_number   1
_chemical_formula_structural   Cr17Fe12Ni25
_chemical_formula_sum   'Cr17 Fe12 Ni25'
_cell_volume   588.02819601
_cell_formula_units_Z   1
loop_
 _symmetry_equiv_pos_site_id
 _symmetry_equiv_pos_as_xyz
  1  'x, y, z'
loop_
 _atom_site_type_symbol
 _atom_site_label
 _atom_site_symmetry_multiplicity
 _atom_site_fract_x
 _atom_site_fract_y
 _atom_site_fract_z
 _atom_site_occupancy
  Cr  Cr0  1  0.99878559  0.99965291  0.00196477  1
  Ni  Ni1  1  0.16595408  0.16961068  0.16957053  1
  Fe  Fe2  1  0.00086496  0.00315195  0.33367142  1
  Ni  Ni3  1  0.99773291  0.33674397  0.00131152  1
  Ni  Ni4  1  0.16481547  0.49829719  0.16761278  1
  Fe  Fe5  1  0.00052951  0.33302567  0.33383821  1
  Ni  Ni6  1  0.99713474  0.66418704  0.99821696  1
  Cr  Cr7  1  0.16548910  0.83336393  0.17047876  1
  Cr  Cr8  1  0.99685967  0.66383145  0.33561993  1
  Cr  Cr9  1  0.33388688  0.00107995  0.00137781  1
  Ni  Ni10  1  0.50085122  0.16897834  0.16858428  1
  Ni  Ni11  1  0.33523054  0.00352773  0.33142181  1
  Cr  Cr12  1  0.33006073  0.33320172  1.00009949  1
  Cr  Cr13  1  0.50245951  0.49985445  0.16805719  1
  Ni  Ni14  1  0.33337470  0.33418546  0.33455411  1
  Cr  Cr15  1  0.32964931  0.66642190  0.00210490  1
  Fe  Fe16  1  0.50180962  0.83374093  0.17010607  1
  Ni  Ni17  1  0.33209955  0.66415173  0.33342396  1
  Cr  Cr18  1  0.66859130  1.00007223  0.00209177  1
  Ni  Ni19  1  0.83472361  0.16930823  0.16768002  1
  Cr  Cr20  1  0.67085978  0.00043500  0.33379653  1
  Fe  Fe21  1  0.67074727  0.33338695  0.00198889  1
  Ni  Ni22  1  0.83417864  0.49953831  0.16536904  1
  Ni  Ni23  1  0.66841056  0.33341615  0.33408952  1
  Fe  Fe24  1  0.67162361  0.66689608  0.99988190  1
  Ni  Ni25  1  0.83363739  0.83128531  0.16767946  1
  Fe  Fe26  1  0.66610211  0.66434437  0.33584374  1
  Fe  Fe27  1  0.16576449  0.16880569  0.49772843  1
  Cr  Cr28  1  0.99757597  0.00219537  0.66639895  1
  Fe  Fe29  1  0.16365316  0.16627574  0.83336116  1
  Ni  Ni30  1  0.16699446  0.49913189  0.50018942  1
  Ni  Ni31  1  0.99973034  0.33540673  0.66608259  1
  Fe  Fe32  1  0.16194974  0.50090857  0.83254298  1
  Cr  Cr33  1  0.16675522  0.83455144  0.49995804  1
  Fe  Fe34  1  0.99933370  0.66511978  0.66597819  1
  Ni  Ni35  1  0.16468345  0.83108181  0.83090383  1
  Fe  Fe36  1  0.50059928  0.16721224  0.49858717  1
  Ni  Ni37  1  0.33273355  0.00038570  0.66763414  1
  Cr  Cr38  1  0.50357174  0.16768491  0.83136368  1
  Ni  Ni39  1  0.49980368  0.49935228  0.49874018  1
  Cr  Cr40  1  0.33015176  0.33458749  0.66442028  1
  Cr  Cr41  1  0.50275191  0.50048657  0.83360302  1
  Cr  Cr42  1  0.49865332  0.83204192  0.50194586  1
  Ni  Ni43  1  0.33211579  0.66562763  0.66665037  1
  Cr  Cr44  1  0.50002044  0.83231595  0.83074310  1
  Ni  Ni45  1  0.83515456  0.16854140  0.49917417  1
  Ni  Ni46  1  0.66857893  0.99928399  0.66585643  1
  Ni  Ni47  1  0.83652540  0.16909608  0.83447498  1
  Ni  Ni48  1  0.83332630  0.49783063  0.50087796  1
  Cr  Cr49  1  0.66986899  0.33271008  0.66366477  1
  Fe  Fe50  1  0.83594011  0.50102980  0.83293851  1
  Ni  Ni51  1  0.83324391  0.83389111  0.50201797  1
  Ni  Ni52  1  0.66950232  0.66736849  0.66437584  1
  Ni  Ni53  1  0.83623743  0.83306938  0.83103496  1
" 