7856,Ni47Fe35Cr17_17,-234.563184512843, 205.608183560933,Ni47Fe35Cr17,"# generated using pymatgen
 data_Cr10Fe19Ni25
_symmetry_space_group_name_H-M   'P 1'
_cell_length_a   7.44123051
_cell_length_b   7.44123051
_cell_length_c   10.52348912
_cell_angle_alpha   90.00000000
_cell_angle_beta   90.00000000
_cell_angle_gamma   90.00000000
_symmetry_Int_Tables_number   1
_chemical_formula_structural   Cr10Fe19Ni25
_chemical_formula_sum   'Cr10 Fe19 Ni25'
_cell_volume   582.70570876
_cell_formula_units_Z   1
loop_
 _symmetry_equiv_pos_site_id
 _symmetry_equiv_pos_as_xyz
  1  'x, y, z'
loop_
 _atom_site_type_symbol
 _atom_site_label
 _atom_site_symmetry_multiplicity
 _atom_site_fract_x
 _atom_site_fract_y
 _atom_site_fract_z
 _atom_site_occupancy
  Fe  Fe0  1  1.00117231  0.00194503  0.00187362  1
  Ni  Ni1  1  0.16871420  0.16892833  0.16875969  1
  Ni  Ni2  1  0.00179192  1.00169573  0.33394629  1
  Fe  Fe3  1  0.99981842  0.33421762  0.00334035  1
  Ni  Ni4  1  0.16679542  0.50173561  0.17018138  1
  Ni  Ni5  1  0.00272178  0.33533586  0.33385200  1
  Fe  Fe6  1  1.00015521  0.66904469  0.00246296  1
  Ni  Ni7  1  0.16934471  0.83453975  0.16922550  1
  Ni  Ni8  1  0.00482745  0.66817507  0.33520104  1
  Fe  Fe9  1  0.33442935  0.00198937  0.00412850  1
  Ni  Ni10  1  0.50175261  0.16648645  0.16868850  1
  Ni  Ni11  1  0.33448826  0.99958353  0.33343311  1
  Fe  Fe12  1  0.33612345  0.33451689  0.00281381  1
  Fe  Fe13  1  0.49991060  0.50122174  0.16651266  1
  Fe  Fe14  1  0.33275110  0.33575620  0.33363112  1
  Fe  Fe15  1  0.33574051  0.66869870  0.00316906  1
  Ni  Ni16  1  0.50081860  0.83728978  0.16845471  1
  Ni  Ni17  1  0.33263459  0.66909875  0.33525091  1
  Ni  Ni18  1  0.66999601  0.00248562  0.00374053  1
  Ni  Ni19  1  0.83473552  0.16903686  0.16868343  1
  Ni  Ni20  1  0.66892558  1.00169290  0.33392179  1
  Ni  Ni21  1  0.66906881  0.33555679  1.00114432  1
  Ni  Ni22  1  0.83748151  0.50080289  0.16701561  1
  Cr  Cr23  1  0.66918298  0.33344558  0.33420015  1
  Fe  Fe24  1  0.66930943  0.66734997  1.00160629  1
  Fe  Fe25  1  0.83606417  0.83667315  0.16771948  1
  Cr  Cr26  1  0.66729745  0.67022544  0.33401391  1
  Cr  Cr27  1  0.16883256  0.16831098  0.49984121  1
  Cr  Cr28  1  1.00093496  1.00102873  0.67027117  1
  Fe  Fe29  1  0.16833746  0.16728812  0.83619012  1
  Fe  Fe30  1  0.17054860  0.50390016  0.49997372  1
  Cr  Cr31  1  1.00109227  0.33440170  0.66926905  1
  Cr  Cr32  1  0.16861531  0.50226357  0.83537186  1
  Ni  Ni33  1  0.17001147  0.83288288  0.50063872  1
  Cr  Cr34  1  0.00193932  0.66977285  0.66760951  1
  Ni  Ni35  1  0.16757761  0.83629131  0.83534275  1
  Cr  Cr36  1  0.50252734  0.16629824  0.50227205  1
  Fe  Fe37  1  0.33530558  0.99939629  0.66774479  1
  Cr  Cr38  1  0.50193465  0.16932588  0.83347939  1
  Fe  Fe39  1  0.49926883  0.50424205  0.50429939  1
  Ni  Ni40  1  0.33684454  0.33746572  0.66901472  1
  Ni  Ni41  1  0.50407553  0.50081681  0.83389948  1
  Ni  Ni42  1  0.50112720  0.83480841  0.50335578  1
  Ni  Ni43  1  0.33755437  0.66754585  0.66724319  1
  Cr  Cr44  1  0.50189740  0.83453556  0.83339322  1
  Fe  Fe45  1  0.83441930  0.16633988  0.50022653  1
  Ni  Ni46  1  0.66897578  1.00071558  0.66754293  1
  Fe  Fe47  1  0.83438634  0.16805434  0.83692358  1
  Fe  Fe48  1  0.83539090  0.50249583  0.50150961  1
  Fe  Fe49  1  0.66773903  0.33737573  0.66921617  1
  Ni  Ni50  1  0.83271391  0.50178291  0.83567006  1
  Fe  Fe51  1  0.83407316  0.83636724  0.50151272  1
  Ni  Ni52  1  0.66599227  0.66805487  0.66902280  1
  Ni  Ni53  1  0.83550793  0.83438576  0.83587034  1
" 