1463,Ni47Fe23Cr29_15,-228.456707130376, 181.067301193679,Ni47Fe23Cr29,"# generated using pymatgen
 data_Cr17Fe12Ni25
_symmetry_space_group_name_H-M   'P 1'
_cell_length_a   7.46822919
_cell_length_b   7.46822919
_cell_length_c   10.56167101
_cell_angle_alpha   90.00000000
_cell_angle_beta   90.00000000
_cell_angle_gamma   90.00000000
_symmetry_Int_Tables_number   1
_chemical_formula_structural   Cr17Fe12Ni25
_chemical_formula_sum   'Cr17 Fe12 Ni25'
_cell_volume   589.07136235
_cell_formula_units_Z   1
loop_
 _symmetry_equiv_pos_site_id
 _symmetry_equiv_pos_as_xyz
  1  'x, y, z'
loop_
 _atom_site_type_symbol
 _atom_site_label
 _atom_site_symmetry_multiplicity
 _atom_site_fract_x
 _atom_site_fract_y
 _atom_site_fract_z
 _atom_site_occupancy
  Ni  Ni0  1  0.00304048  0.99978740  0.00264334  1
  Ni  Ni1  1  0.16534862  0.16584628  0.16582771  1
  Fe  Fe2  1  0.00173546  0.00116342  0.33138790  1
  Ni  Ni3  1  0.00037659  0.33092269  0.99932740  1
  Cr  Cr4  1  0.16986167  0.49922123  0.16728375  1
  Cr  Cr5  1  0.00034769  0.33132523  0.33407724  1
  Fe  Fe6  1  0.00006991  0.66651341  0.00121418  1
  Ni  Ni7  1  0.16541237  0.83233822  0.16668539  1
  Ni  Ni8  1  0.00010819  0.67098926  0.33214018  1
  Cr  Cr9  1  0.33021630  0.99974919  0.00197027  1
  Ni  Ni10  1  0.50195569  0.16888103  0.16698943  1
  Cr  Cr11  1  0.33185011  0.00086646  0.33216931  1
  Ni  Ni12  1  0.33239964  0.33138783  0.00437448  1
  Ni  Ni13  1  0.50017428  0.49973833  0.16756621  1
  Ni  Ni14  1  0.33732815  0.33191454  0.33193161  1
  Fe  Fe15  1  0.33485890  0.66637680  0.00417568  1
  Ni  Ni16  1  0.50063357  0.83124382  0.16836903  1
  Ni  Ni17  1  0.33333029  0.66946115  0.33309503  1
  Cr  Cr18  1  0.66568539  0.99985702  0.00389625  1
  Ni  Ni19  1  0.83325704  0.16472048  0.16651591  1
  Fe  Fe20  1  0.66498469  0.00223106  0.33208510  1
  Ni  Ni21  1  0.66750008  0.33694178  0.00097292  1
  Cr  Cr22  1  0.83365994  0.49869675  0.16638970  1
  Ni  Ni23  1  0.66590294  0.33163328  0.33476498  1
  Ni  Ni24  1  0.66717357  0.66505079  0.00234567  1
  Fe  Fe25  1  0.83376904  0.83444736  0.16813104  1
  Fe  Fe26  1  0.66330862  0.66438871  0.33244653  1
  Ni  Ni27  1  0.16618861  0.16641479  0.50108579  1
  Fe  Fe28  1  0.00122015  0.00197360  0.66556862  1
  Ni  Ni29  1  0.16501426  0.16710020  0.83178911  1
  Cr  Cr30  1  0.16799219  0.50076374  0.49646202  1
  Ni  Ni31  1  0.00265344  0.33518077  0.66554906  1
  Cr  Cr32  1  0.16725023  0.49842257  0.83640583  1
  Ni  Ni33  1  0.16664749  0.83276600  0.50186760  1
  Ni  Ni34  1  0.00217533  0.66722591  0.66730399  1
  Fe  Fe35  1  0.16424554  0.83423291  0.83266965  1
  Ni  Ni36  1  0.49970299  0.16647760  0.49904074  1
  Fe  Fe37  1  0.32846277  0.00042411  0.66376790  1
  Cr  Cr38  1  0.49581592  0.16814679  0.83430784  1
  Fe  Fe39  1  0.49862672  0.49796456  0.49620882  1
  Ni  Ni40  1  0.33094589  0.33032078  0.66345965  1
  Cr  Cr41  1  0.49893041  0.49934700  0.83658351  1
  Ni  Ni42  1  0.49789751  0.83218443  0.49873439  1
  Fe  Fe43  1  0.33206598  0.66420443  0.66372208  1
  Cr  Cr44  1  0.49681116  0.83173862  0.83169176  1
  Ni  Ni45  1  0.83344742  0.16734968  0.49935066  1
  Cr  Cr46  1  0.66302664  0.00008364  0.66461732  1
  Cr  Cr47  1  0.83540316  0.16829772  0.83459968  1
  Fe  Fe48  1  0.83514458  0.49983891  0.49810781  1
  Cr  Cr49  1  0.66864551  0.33485439  0.66525002  1
  Ni  Ni50  1  0.83641768  0.50161303  0.83440346  1
  Cr  Cr51  1  0.83419548  0.83515995  0.49435031  1
  Cr  Cr52  1  0.66900605  0.66482562  0.66371454  1
  Cr  Cr53  1  0.83350589  0.83312292  0.83633984  1
" 