4968,Ni47Fe23Cr29_6,-228.518736100378, 179.78059526426,Ni47Fe23Cr29,"# generated using pymatgen
 data_Cr17Fe12Ni25
_symmetry_space_group_name_H-M   'P 1'
_cell_length_a   7.46846327
_cell_length_b   7.46846327
_cell_length_c   10.56200205
_cell_angle_alpha   90.00000000
_cell_angle_beta   90.00000000
_cell_angle_gamma   90.00000000
_symmetry_Int_Tables_number   1
_chemical_formula_structural   Cr17Fe12Ni25
_chemical_formula_sum   'Cr17 Fe12 Ni25'
_cell_volume   589.12675549
_cell_formula_units_Z   1
loop_
 _symmetry_equiv_pos_site_id
 _symmetry_equiv_pos_as_xyz
  1  'x, y, z'
loop_
 _atom_site_type_symbol
 _atom_site_label
 _atom_site_symmetry_multiplicity
 _atom_site_fract_x
 _atom_site_fract_y
 _atom_site_fract_z
 _atom_site_occupancy
  Fe  Fe0  1  0.00248358  0.00103895  0.99977414  1
  Ni  Ni1  1  0.16942283  0.16676155  0.16503785  1
  Cr  Cr2  1  0.00066179  0.00165926  0.33235661  1
  Ni  Ni3  1  0.99787343  0.33523842  0.99872454  1
  Fe  Fe4  1  0.16577604  0.49638588  0.16577125  1
  Cr  Cr5  1  0.99816148  0.33485612  0.33542771  1
  Fe  Fe6  1  0.00022059  0.66438707  0.00058821  1
  Fe  Fe7  1  0.16595620  0.83515320  0.16472576  1
  Ni  Ni8  1  0.00041582  0.66336324  0.32920355  1
  Ni  Ni9  1  0.33463439  0.99990103  0.00012342  1
  Ni  Ni10  1  0.49537988  0.16974880  0.16595332  1
  Ni  Ni11  1  0.33308991  0.00393694  0.33314679  1
  Fe  Fe12  1  0.33227447  0.33156800  0.00159829  1
  Ni  Ni13  1  0.50094942  0.49620438  0.16514667  1
  Ni  Ni14  1  0.33308435  0.33089033  0.33091287  1
  Cr  Cr15  1  0.33324602  0.66549567  0.99776264  1
  Cr  Cr16  1  0.50157814  0.83483249  0.16805675  1
  Cr  Cr17  1  0.33021997  0.66489765  0.33278762  1
  Fe  Fe18  1  0.66467944  0.00190805  0.99897649  1
  Cr  Cr19  1  0.83271563  0.16770273  0.16337394  1
  Cr  Cr20  1  0.66501098  0.00555338  0.33556150  1
  Fe  Fe21  1  0.66515534  0.33392974  0.99946651  1
  Ni  Ni22  1  0.83286173  0.50140409  0.16515595  1
  Ni  Ni23  1  0.66574598  0.33310468  0.33150678  1
  Fe  Fe24  1  0.66723326  0.66422857  0.99980905  1
  Ni  Ni25  1  0.83659153  0.82941708  0.16318998  1
  Cr  Cr26  1  0.66916480  0.66318262  0.33340006  1
  Ni  Ni27  1  0.16819211  0.16982150  0.50100641  1
  Ni  Ni28  1  0.99988605  0.00409016  0.66815536  1
  Cr  Cr29  1  0.16649404  0.16735311  0.83247667  1
  Ni  Ni30  1  0.16550562  0.49559135  0.49984714  1
  Fe  Fe31  1  0.99739616  0.33273319  0.66655690  1
  Fe  Fe32  1  0.16477773  0.49806211  0.83409340  1
  Cr  Cr33  1  0.16612502  0.83451527  0.49823548  1
  Cr  Cr34  1  0.00151145  0.66287690  0.66738652  1
  Ni  Ni35  1  0.16684622  0.83404415  0.83575699  1
  Ni  Ni36  1  0.49775428  0.17003167  0.49727363  1
  Cr  Cr37  1  0.33423705  0.99973628  0.66578690  1
  Ni  Ni38  1  0.49946191  0.16864244  0.83609701  1
  Cr  Cr39  1  0.50128178  0.49798024  0.50012550  1
  Fe  Fe40  1  0.33521768  0.33218290  0.66563904  1
  Fe  Fe41  1  0.50297568  0.49715348  0.83375654  1
  Ni  Ni42  1  0.49941537  0.83395129  0.50034975  1
  Cr  Cr43  1  0.33469747  0.66564773  0.66987773  1
  Ni  Ni44  1  0.50020246  0.83315221  0.83403134  1
  Ni  Ni45  1  0.83361858  0.17155084  0.50333808  1
  Cr  Cr46  1  0.66564532  0.00386475  0.66595576  1
  Ni  Ni47  1  0.83267527  0.17037308  0.83437491  1
  Ni  Ni48  1  0.83361667  0.49728260  0.50049539  1
  Ni  Ni49  1  0.66853701  0.33321972  0.66818812  1
  Ni  Ni50  1  0.83211358  0.49824706  0.83422694  1
  Cr  Cr51  1  0.83258044  0.83043289  0.50081317  1
  Ni  Ni52  1  0.66583557  0.66245328  0.66886879  1
  Cr  Cr53  1  0.83369454  0.83314200  0.83463037  1
" 