6253,Ni47Fe35Cr17_3,-233.967305276641, 201.996658693407,Ni47Fe35Cr17,"# generated using pymatgen
 data_Cr10Fe19Ni25
_symmetry_space_group_name_H-M   'P 1'
_cell_length_a   7.43928483
_cell_length_b   7.43928483
_cell_length_c   10.52073750
_cell_angle_alpha   90.00000000
_cell_angle_beta   90.00000000
_cell_angle_gamma   90.00000000
_symmetry_Int_Tables_number   1
_chemical_formula_structural   Cr10Fe19Ni25
_chemical_formula_sum   'Cr10 Fe19 Ni25'
_cell_volume   582.24874219
_cell_formula_units_Z   1
loop_
 _symmetry_equiv_pos_site_id
 _symmetry_equiv_pos_as_xyz
  1  'x, y, z'
loop_
 _atom_site_type_symbol
 _atom_site_label
 _atom_site_symmetry_multiplicity
 _atom_site_fract_x
 _atom_site_fract_y
 _atom_site_fract_z
 _atom_site_occupancy
  Ni  Ni0  1  0.00375848  0.00384293  1.00047742  1
  Ni  Ni1  1  0.16917013  0.16590890  0.16750620  1
  Fe  Fe2  1  0.00297406  0.00318657  0.33471188  1
  Fe  Fe3  1  1.00115008  0.33301455  1.00104765  1
  Cr  Cr4  1  0.16827943  0.50215070  0.16867965  1
  Fe  Fe5  1  1.00079874  0.33493263  0.33629916  1
  Cr  Cr6  1  0.00258517  0.66940317  1.00042448  1
  Ni  Ni7  1  0.17117563  0.83774242  0.16877771  1
  Fe  Fe8  1  1.00148710  0.66747843  0.33607904  1
  Ni  Ni9  1  0.33245760  1.00158575  0.00417849  1
  Ni  Ni10  1  0.50169876  0.16754446  0.16698962  1
  Ni  Ni11  1  0.33493901  1.00037849  0.33424881  1
  Fe  Fe12  1  0.33559777  0.33508669  0.00219594  1
  Ni  Ni13  1  0.50346419  0.50141589  0.16804217  1
  Cr  Cr14  1  0.33610070  0.33417033  0.33637494  1
  Ni  Ni15  1  0.33517980  0.66924421  0.00203630  1
  Ni  Ni16  1  0.49915925  0.83663906  0.16948031  1
  Ni  Ni17  1  0.33588371  0.67074175  0.33477223  1
  Fe  Fe18  1  0.66896915  0.00345318  0.00194826  1
  Fe  Fe19  1  0.83468168  0.17028410  0.16773911  1
  Fe  Fe20  1  0.66640562  0.00249350  0.33638209  1
  Ni  Ni21  1  0.66943719  0.33528830  0.00232968  1
  Ni  Ni22  1  0.83362302  0.49940565  0.16983440  1
  Ni  Ni23  1  0.67080015  0.33600167  0.33549418  1
  Cr  Cr24  1  0.66726255  0.66602638  0.00237303  1
  Cr  Cr25  1  0.83529778  0.83541056  0.16938007  1
  Fe  Fe26  1  0.66727113  0.66754851  0.33539824  1
  Ni  Ni27  1  0.16971588  0.16812366  0.50155630  1
  Fe  Fe28  1  1.00049157  1.00178464  0.66970921  1
  Fe  Fe29  1  0.16666999  0.16685214  0.83665220  1
  Ni  Ni30  1  0.16727161  0.50214002  0.50139077  1
  Cr  Cr31  1  1.00004568  0.33535282  0.66827479  1
  Fe  Fe32  1  0.16883615  0.50287488  0.83561194  1
  Cr  Cr33  1  0.16846745  0.83540441  0.50165491  1
  Fe  Fe34  1  1.00019143  0.66919233  0.66899808  1
  Fe  Fe35  1  0.16765153  0.83587386  0.83542798  1
  Ni  Ni36  1  0.50238694  0.16725548  0.50262292  1
  Ni  Ni37  1  0.33476170  1.00082157  0.66717315  1
  Cr  Cr38  1  0.50269923  0.16935068  0.83633827  1
  Fe  Fe39  1  0.50308562  0.50252315  0.50171648  1
  Cr  Cr40  1  0.33618374  0.33518597  0.66724713  1
  Ni  Ni41  1  0.50186104  0.50142049  0.83510819  1
  Fe  Fe42  1  0.50252515  0.83576385  0.50164859  1
  Fe  Fe43  1  0.33590111  0.66825631  0.66865736  1
  Cr  Cr44  1  0.50154320  0.83535651  0.83461263  1
  Fe  Fe45  1  0.83447227  0.16849178  0.50196739  1
  Ni  Ni46  1  0.66988257  1.00139803  0.66722407  1
  Ni  Ni47  1  0.83598733  0.16793877  0.83596484  1
  Ni  Ni48  1  0.83490355  0.50300695  0.50122591  1
  Ni  Ni49  1  0.66968223  0.33609429  0.66777411  1
  Ni  Ni50  1  0.83493334  0.50134509  0.83453893  1
  Ni  Ni51  1  0.83403513  0.83429835  0.50294582  1
  Fe  Fe52  1  0.66950569  0.66796217  0.66838027  1
  Ni  Ni53  1  0.83746268  0.83631474  0.83313842  1
" 