6051,Ni47Fe35Cr17_18,-233.656814180381, 203.350825469905,Ni47Fe35Cr17,"# generated using pymatgen
 data_Cr10Fe19Ni25
_symmetry_space_group_name_H-M   'P 1'
_cell_length_a   7.43189745
_cell_length_b   7.43189745
_cell_length_c   10.51029017
_cell_angle_alpha   90.00000000
_cell_angle_beta   90.00000000
_cell_angle_gamma   90.00000000
_symmetry_Int_Tables_number   1
_chemical_formula_structural   Cr10Fe19Ni25
_chemical_formula_sum   'Cr10 Fe19 Ni25'
_cell_volume   580.51590581
_cell_formula_units_Z   1
loop_
 _symmetry_equiv_pos_site_id
 _symmetry_equiv_pos_as_xyz
  1  'x, y, z'
loop_
 _atom_site_type_symbol
 _atom_site_label
 _atom_site_symmetry_multiplicity
 _atom_site_fract_x
 _atom_site_fract_y
 _atom_site_fract_z
 _atom_site_occupancy
  Fe  Fe0  1  1.00115483  0.00286904  1.00074403  1
  Ni  Ni1  1  0.17068654  0.17208752  0.16944330  1
  Fe  Fe2  1  1.00143237  0.00241953  0.33667179  1
  Ni  Ni3  1  0.00264866  0.33529048  0.00322253  1
  Fe  Fe4  1  0.16930480  0.49909251  0.16879072  1
  Fe  Fe5  1  0.00319864  0.33618724  0.33526659  1
  Fe  Fe6  1  0.99927134  0.66841950  0.00268933  1
  Cr  Cr7  1  0.16875590  0.83629947  0.16881755  1
  Cr  Cr8  1  1.00144972  0.66803925  0.33590318  1
  Cr  Cr9  1  0.33685908  0.00472635  1.00124934  1
  Ni  Ni10  1  0.49965504  0.16933960  0.16881816  1
  Fe  Fe11  1  0.33801516  1.00211215  0.33519859  1
  Ni  Ni12  1  0.33482516  0.33405401  0.00319490  1
  Fe  Fe13  1  0.50246152  0.50270344  0.16966800  1
  Ni  Ni14  1  0.33428176  0.33600952  0.33425647  1
  Cr  Cr15  1  0.33739691  0.66838335  0.00322129  1
  Ni  Ni16  1  0.50515827  0.83494586  0.17161898  1
  Ni  Ni17  1  0.33696408  0.66856652  0.33656800  1
  Fe  Fe18  1  0.66921491  1.00165702  1.00176400  1
  Cr  Cr19  1  0.83638285  0.16853282  0.16894726  1
  Ni  Ni20  1  0.66860582  0.99995878  0.33583600  1
  Fe  Fe21  1  0.66819366  0.33642690  1.00131539  1
  Ni  Ni22  1  0.83574495  0.50456035  0.16679312  1
  Cr  Cr23  1  0.66879484  0.33509625  0.33733729  1
  Ni  Ni24  1  0.67139796  0.67014638  0.00277059  1
  Ni  Ni25  1  0.83300031  0.83347087  0.16818696  1
  Ni  Ni26  1  0.66814654  0.67222192  0.33587765  1
  Cr  Cr27  1  0.17004441  0.16831690  0.50110708  1
  Fe  Fe28  1  0.00267095  1.00121601  0.66968078  1
  Ni  Ni29  1  0.16956259  0.16847013  0.83632307  1
  Fe  Fe30  1  0.17058069  0.50351241  0.50231928  1
  Cr  Cr31  1  1.00052722  0.33542432  0.66728648  1
  Cr  Cr32  1  0.16966980  0.50151261  0.83574768  1
  Ni  Ni33  1  0.16918053  0.83476720  0.50440730  1
  Fe  Fe34  1  1.00126631  0.67071968  0.66775205  1
  Fe  Fe35  1  0.16775649  0.83828070  0.83391440  1
  Ni  Ni36  1  0.50216318  0.17057551  0.50253379  1
  Fe  Fe37  1  0.33544849  0.00292910  0.67024027  1
  Ni  Ni38  1  0.50170278  0.17063856  0.83574185  1
  Ni  Ni39  1  0.50216967  0.50270544  0.50356238  1
  Ni  Ni40  1  0.33810606  0.33568062  0.66964215  1
  Fe  Fe41  1  0.50457305  0.50095352  0.83452663  1
  Fe  Fe42  1  0.50260408  0.83490278  0.50097161  1
  Fe  Fe43  1  0.33678290  0.66908192  0.66790377  1
  Ni  Ni44  1  0.50352910  0.83495116  0.83483495  1
  Ni  Ni45  1  0.83492495  0.16879557  0.50142843  1
  Cr  Cr46  1  0.66918067  0.00336429  0.66861811  1
  Ni  Ni47  1  0.83582517  0.16866868  0.83707973  1
  Ni  Ni48  1  0.83396682  0.50353574  0.50384680  1
  Ni  Ni49  1  0.66778251  0.33618888  0.66952039  1
  Fe  Fe50  1  0.83320694  0.50239167  0.83667044  1
  Ni  Ni51  1  0.83639459  0.83476358  0.50147622  1
  Fe  Fe52  1  0.66904895  0.66684589  0.66896530  1
  Ni  Ni53  1  0.83602957  0.83489065  0.83742818  1
" 