2791,Ni47Fe35Cr17_14,-233.632169203072, 202.539334376916,Ni47Fe35Cr17,"# generated using pymatgen
 data_Cr10Fe19Ni25
_symmetry_space_group_name_H-M   'P 1'
_cell_length_a   7.43395972
_cell_length_b   7.43395972
_cell_length_c   10.51320666
_cell_angle_alpha   90.00000000
_cell_angle_beta   90.00000000
_cell_angle_gamma   90.00000000
_symmetry_Int_Tables_number   1
_chemical_formula_structural   Cr10Fe19Ni25
_chemical_formula_sum   'Cr10 Fe19 Ni25'
_cell_volume   580.99929930
_cell_formula_units_Z   1
loop_
 _symmetry_equiv_pos_site_id
 _symmetry_equiv_pos_as_xyz
  1  'x, y, z'
loop_
 _atom_site_type_symbol
 _atom_site_label
 _atom_site_symmetry_multiplicity
 _atom_site_fract_x
 _atom_site_fract_y
 _atom_site_fract_z
 _atom_site_occupancy
  Fe  Fe0  1  0.00407495  1.00145490  0.00316398  1
  Ni  Ni1  1  0.16852300  0.16870504  0.16793831  1
  Ni  Ni2  1  0.00556029  1.00158720  0.33416497  1
  Fe  Fe3  1  0.00350267  0.33696254  0.00329750  1
  Ni  Ni4  1  0.16747298  0.50170405  0.16582509  1
  Cr  Cr5  1  0.00516482  0.33525813  0.33570890  1
  Fe  Fe6  1  0.00276764  0.66819768  0.00226325  1
  Ni  Ni7  1  0.16860352  0.83637990  0.16680301  1
  Cr  Cr8  1  1.00171925  0.67190464  0.33500368  1
  Ni  Ni9  1  0.33359821  1.00174422  0.99887978  1
  Cr  Cr10  1  0.50205408  0.16978044  0.16870113  1
  Fe  Fe11  1  0.33280150  0.00381862  0.33560115  1
  Fe  Fe12  1  0.33607556  0.33604046  1.00068375  1
  Fe  Fe13  1  0.50076228  0.50130399  0.16646656  1
  Ni  Ni14  1  0.33620322  0.33500180  0.33549907  1
  Ni  Ni15  1  0.33340611  0.66813969  0.99974275  1
  Cr  Cr16  1  0.50093343  0.83331014  0.16668804  1
  Cr  Cr17  1  0.33407084  0.66407688  0.33540488  1
  Ni  Ni18  1  0.66792928  0.00308797  1.00133569  1
  Fe  Fe19  1  0.83848651  0.17005098  0.16636048  1
  Cr  Cr20  1  0.67370695  1.00160844  0.33384000  1
  Ni  Ni21  1  0.66915054  0.33675791  1.00128948  1
  Ni  Ni22  1  0.83361402  0.50127600  0.16715375  1
  Ni  Ni23  1  0.66570849  0.33833867  0.33584620  1
  Ni  Ni24  1  0.66778743  0.66730932  1.00190969  1
  Fe  Fe25  1  0.83780923  0.83436451  0.16551235  1
  Ni  Ni26  1  0.66946965  0.66572610  0.33572346  1
  Ni  Ni27  1  0.17094858  0.16879230  0.50305979  1
  Ni  Ni28  1  0.00346690  1.00058535  0.66854467  1
  Fe  Fe29  1  0.17087958  0.16830075  0.83497324  1
  Ni  Ni30  1  0.16879141  0.50189715  0.50495490  1
  Fe  Fe31  1  0.00502636  0.33613033  0.66920450  1
  Ni  Ni32  1  0.16874027  0.50165768  0.83639209  1
  Ni  Ni33  1  0.16825930  0.83604848  0.50365229  1
  Ni  Ni34  1  0.00366174  0.66800724  0.66877760  1
  Ni  Ni35  1  0.17069338  0.83377848  0.83545458  1
  Ni  Ni36  1  0.50142703  0.17003168  0.50341663  1
  Fe  Fe37  1  0.33378918  0.00305372  0.67068211  1
  Fe  Fe38  1  0.50020074  0.16888288  0.83560707  1
  Fe  Fe39  1  0.50027962  0.49878734  0.50410084  1
  Ni  Ni40  1  0.33557732  0.33638388  0.67020191  1
  Ni  Ni41  1  0.50144197  0.50300882  0.83669106  1
  Cr  Cr42  1  0.50128052  0.83537273  0.50350597  1
  Fe  Fe43  1  0.33356329  0.66855613  0.67148310  1
  Ni  Ni44  1  0.50103601  0.83490998  0.83610500  1
  Cr  Cr45  1  0.83570185  0.17084960  0.50284382  1
  Ni  Ni46  1  0.66770052  0.00312964  0.67109805  1
  Cr  Cr47  1  0.83646834  0.17204454  0.83686254  1
  Fe  Fe48  1  0.83478705  0.50432900  0.50311947  1
  Fe  Fe49  1  0.66768410  0.33688012  0.67013220  1
  Fe  Fe50  1  0.83585423  0.50477427  0.83670756  1
  Fe  Fe51  1  0.83787793  0.83582455  0.50529006  1
  Fe  Fe52  1  0.66880759  0.66781250  0.67020233  1
  Cr  Cr53  1  0.83527331  0.83645525  0.83630429  1
" 