5773,Ni47Fe35Cr17_15,-233.299524401132, 199.159710822522,Ni47Fe35Cr17,"# generated using pymatgen
 data_Cr10Fe19Ni25
_symmetry_space_group_name_H-M   'P 1'
_cell_length_a   7.43345392
_cell_length_b   7.43345392
_cell_length_c   10.51249135
_cell_angle_alpha   90.00000000
_cell_angle_beta   90.00000000
_cell_angle_gamma   90.00000000
_symmetry_Int_Tables_number   1
_chemical_formula_structural   Cr10Fe19Ni25
_chemical_formula_sum   'Cr10 Fe19 Ni25'
_cell_volume   580.88071629
_cell_formula_units_Z   1
loop_
 _symmetry_equiv_pos_site_id
 _symmetry_equiv_pos_as_xyz
  1  'x, y, z'
loop_
 _atom_site_type_symbol
 _atom_site_label
 _atom_site_symmetry_multiplicity
 _atom_site_fract_x
 _atom_site_fract_y
 _atom_site_fract_z
 _atom_site_occupancy
  Ni  Ni0  1  0.00254464  1.00075080  1.00103526  1
  Ni  Ni1  1  0.17137070  0.16636599  0.16935976  1
  Fe  Fe2  1  0.00378620  1.00115834  0.33643130  1
  Cr  Cr3  1  0.00250927  0.33622909  1.00062966  1
  Cr  Cr4  1  0.16986209  0.50271880  0.16992296  1
  Fe  Fe5  1  0.00348230  0.33580401  0.33749610  1
  Ni  Ni6  1  1.00003605  0.67027559  1.00144717  1
  Fe  Fe7  1  0.16898648  0.83804052  0.16906720  1
  Ni  Ni8  1  1.00081045  0.66899441  0.33624607  1
  Ni  Ni9  1  0.33648023  0.00399897  1.00225286  1
  Ni  Ni10  1  0.50070623  0.16911560  0.16923226  1
  Ni  Ni11  1  0.33482785  0.00317337  0.33396162  1
  Fe  Fe12  1  0.33732517  0.33252253  1.00187853  1
  Ni  Ni13  1  0.50375842  0.50216764  0.16986627  1
  Ni  Ni14  1  0.33493819  0.33399017  0.33451134  1
  Cr  Cr15  1  0.33545429  0.66938352  1.00176451  1
  Fe  Fe16  1  0.50228366  0.83693378  0.17008518  1
  Ni  Ni17  1  0.33517598  0.66961863  0.33569374  1
  Ni  Ni18  1  0.66775412  0.00231197  1.00164159  1
  Cr  Cr19  1  0.83549304  0.16713455  0.16972840  1
  Fe  Fe20  1  0.66893041  1.00081423  0.33505137  1
  Fe  Fe21  1  0.66683977  0.33550490  1.00073621  1
  Fe  Fe22  1  0.83346756  0.50402253  0.16939879  1
  Fe  Fe23  1  0.66834859  0.33703735  0.33511975  1
  Fe  Fe24  1  0.67069137  0.66944967  0.00264102  1
  Fe  Fe25  1  0.83550720  0.83425540  0.16915810  1
  Ni  Ni26  1  0.67078984  0.66888173  0.33396943  1
  Ni  Ni27  1  0.16493179  0.16883251  0.50042791  1
  Fe  Fe28  1  0.00236835  0.00340176  0.66913274  1
  Ni  Ni29  1  0.16808953  0.16735119  0.83698941  1
  Fe  Fe30  1  0.16663912  0.50271818  0.50163095  1
  Ni  Ni31  1  0.99988392  0.33615305  0.66813744  1
  Ni  Ni32  1  0.16880454  0.50408614  0.83419740  1
  Fe  Fe33  1  0.16694094  0.83538479  0.50161937  1
  Fe  Fe34  1  0.00245717  0.66819183  0.66937638  1
  Ni  Ni35  1  0.16736907  0.83534093  0.83540140  1
  Cr  Cr36  1  0.50290961  0.17017192  0.49981159  1
  Cr  Cr37  1  0.33417683  1.00076414  0.67061270  1
  Ni  Ni38  1  0.50331883  0.17009177  0.83815916  1
  Cr  Cr39  1  0.50188527  0.50350816  0.50204644  1
  Cr  Cr40  1  0.33389510  0.33675628  0.67140690  1
  Ni  Ni41  1  0.50359772  0.50234545  0.83536001  1
  Cr  Cr42  1  0.50214848  0.83309661  0.50116180  1
  Ni  Ni43  1  0.33396880  0.66891616  0.66953372  1
  Fe  Fe44  1  0.50209528  0.83517764  0.83613754  1
  Ni  Ni45  1  0.83880541  0.16865483  0.50202391  1
  Cr  Cr46  1  0.67079542  0.00336460  0.66991788  1
  Ni  Ni47  1  0.83537244  0.16865186  0.83467403  1
  Fe  Fe48  1  0.83700761  0.50179410  0.50263282  1
  Ni  Ni49  1  0.67312996  0.33647920  0.67034908  1
  Ni  Ni50  1  0.83437592  0.50306689  0.83493838  1
  Ni  Ni51  1  0.83806281  0.83539611  0.50153237  1
  Fe  Fe52  1  0.66993160  0.66651163  0.66983420  1
  Fe  Fe53  1  0.83689832  0.83515809  0.83664792  1
" 