8272,Ni47Fe24Cr27_19,-229.425591570233, 187.105606915677,Ni47Fe24Cr27,"# generated using pymatgen
 data_Cr16Fe13Ni25
_symmetry_space_group_name_H-M   'P 1'
_cell_length_a   7.46076917
_cell_length_b   7.46076917
_cell_length_c   10.55112094
_cell_angle_alpha   90.00000000
_cell_angle_beta   90.00000000
_cell_angle_gamma   90.00000000
_symmetry_Int_Tables_number   1
_chemical_formula_structural   Cr16Fe13Ni25
_chemical_formula_sum   'Cr16 Fe13 Ni25'
_cell_volume   587.30785298
_cell_formula_units_Z   1
loop_
 _symmetry_equiv_pos_site_id
 _symmetry_equiv_pos_as_xyz
  1  'x, y, z'
loop_
 _atom_site_type_symbol
 _atom_site_label
 _atom_site_symmetry_multiplicity
 _atom_site_fract_x
 _atom_site_fract_y
 _atom_site_fract_z
 _atom_site_occupancy
  Cr  Cr0  1  0.00121308  0.00128801  0.00084639  1
  Ni  Ni1  1  0.17028245  0.16471927  0.16900086  1
  Ni  Ni2  1  0.00110763  0.00044309  0.33314771  1
  Cr  Cr3  1  0.00204587  0.33192505  0.00355260  1
  Ni  Ni4  1  0.17003150  0.50225830  0.16672051  1
  Cr  Cr5  1  0.00079527  0.33027389  0.33200790  1
  Fe  Fe6  1  0.00293988  0.66905959  0.00102795  1
  Ni  Ni7  1  0.16648539  0.83458381  0.16650344  1
  Cr  Cr8  1  1.00038001  0.67024756  0.33576873  1
  Ni  Ni9  1  0.33341939  0.99813736  0.00285862  1
  Ni  Ni10  1  0.49991964  0.16550310  0.16907792  1
  Fe  Fe11  1  0.33252089  0.00130603  0.33277256  1
  Cr  Cr12  1  0.33309656  0.33317113  0.00110097  1
  Ni  Ni13  1  0.49949302  0.50062868  0.16694813  1
  Fe  Fe14  1  0.33333242  0.33348766  0.33258116  1
  Fe  Fe15  1  0.33254397  0.66801151  0.00129036  1
  Fe  Fe16  1  0.50023639  0.83460328  0.16698793  1
  Cr  Cr17  1  0.33515859  0.66875001  0.33372918  1
  Ni  Ni18  1  0.66630158  0.99742696  0.00355440  1
  Ni  Ni19  1  0.83134235  0.16257092  0.16946067  1
  Fe  Fe20  1  0.66972221  0.99837808  0.33316816  1
  Cr  Cr21  1  0.66607633  0.33289010  0.00083881  1
  Cr  Cr22  1  0.83397544  0.50412124  0.16775385  1
  Ni  Ni23  1  0.66590807  0.33362431  0.33232187  1
  Fe  Fe24  1  0.66616039  0.66992032  0.00231411  1
  Ni  Ni25  1  0.83281338  0.83531260  0.16654327  1
  Ni  Ni26  1  0.66555782  0.66829347  0.33266934  1
  Ni  Ni27  1  0.16587699  0.16831580  0.50062339  1
  Ni  Ni28  1  1.00020707  0.99986342  0.66633945  1
  Ni  Ni29  1  0.16800357  0.16888233  0.83209081  1
  Ni  Ni30  1  0.16559223  0.49875143  0.50312497  1
  Ni  Ni31  1  0.00215601  0.33246823  0.66546496  1
  Ni  Ni32  1  0.16764235  0.50213861  0.83224483  1
  Fe  Fe33  1  0.16717106  0.83515489  0.50033018  1
  Fe  Fe34  1  0.00222385  0.66870440  0.66561898  1
  Fe  Fe35  1  0.16494333  0.83319391  0.83438686  1
  Cr  Cr36  1  0.49960272  0.16600249  0.50079019  1
  Cr  Cr37  1  0.33071127  0.99706152  0.66602137  1
  Cr  Cr38  1  0.49890051  0.16590898  0.83087184  1
  Cr  Cr39  1  0.49848555  0.49921124  0.50161707  1
  Ni  Ni40  1  0.33054234  0.33654552  0.66799692  1
  Fe  Fe41  1  0.49822424  0.50082123  0.83244752  1
  Ni  Ni42  1  0.50340166  0.83481359  0.49849458  1
  Ni  Ni43  1  0.33123288  0.66628366  0.66772018  1
  Cr  Cr44  1  0.50183991  0.83501178  0.83546776  1
  Fe  Fe45  1  0.83485911  0.16614612  0.50091835  1
  Ni  Ni46  1  0.67087590  0.99901369  0.66495294  1
  Cr  Cr47  1  0.83396814  0.16382715  0.83071390  1
  Fe  Fe48  1  0.83383634  0.49902852  0.50025084  1
  Ni  Ni49  1  0.66871649  0.33396541  0.66661465  1
  Cr  Cr50  1  0.83719077  0.50369932  0.83274325  1
  Ni  Ni51  1  0.83390971  0.83542676  0.50072967  1
  Cr  Cr52  1  0.66503595  0.66864336  0.66543112  1
  Ni  Ni53  1  0.83471179  0.83290255  0.83416728  1
" 