4681,Ni47Fe24Cr27_9,-229.3907395688, 188.170347820072,Ni47Fe24Cr27,"# generated using pymatgen
 data_Cr16Fe13Ni25
_symmetry_space_group_name_H-M   'P 1'
_cell_length_a   7.45624981
_cell_length_b   7.45624981
_cell_length_c   10.54472960
_cell_angle_alpha   90.00000000
_cell_angle_beta   90.00000000
_cell_angle_gamma   90.00000000
_symmetry_Int_Tables_number   1
_chemical_formula_structural   Cr16Fe13Ni25
_chemical_formula_sum   'Cr16 Fe13 Ni25'
_cell_volume   586.24121384
_cell_formula_units_Z   1
loop_
 _symmetry_equiv_pos_site_id
 _symmetry_equiv_pos_as_xyz
  1  'x, y, z'
loop_
 _atom_site_type_symbol
 _atom_site_label
 _atom_site_symmetry_multiplicity
 _atom_site_fract_x
 _atom_site_fract_y
 _atom_site_fract_z
 _atom_site_occupancy
  Ni  Ni0  1  1.00047869  0.00100445  0.00293788  1
  Ni  Ni1  1  0.16568344  0.16611164  0.16848140  1
  Fe  Fe2  1  0.99976105  0.00149864  0.33173428  1
  Ni  Ni3  1  0.99824385  0.33337795  0.00077712  1
  Cr  Cr4  1  0.16793610  0.49837015  0.16718487  1
  Fe  Fe5  1  1.00006940  0.33120592  0.33306429  1
  Fe  Fe6  1  0.99982409  0.66867667  1.00029558  1
  Ni  Ni7  1  0.16544294  0.83814032  0.16425791  1
  Cr  Cr8  1  0.99844012  0.66957930  0.33361371  1
  Ni  Ni9  1  0.33481793  0.99928462  0.00216710  1
  Ni  Ni10  1  0.50183975  0.16908977  0.16618123  1
  Cr  Cr11  1  0.33503524  0.00104518  0.33183848  1
  Cr  Cr12  1  0.33510117  0.33305695  0.00120637  1
  Ni  Ni13  1  0.50354463  0.49917090  0.16813205  1
  Ni  Ni14  1  0.33490433  0.33105991  0.33289123  1
  Cr  Cr15  1  0.33339930  0.66988712  0.00164089  1
  Ni  Ni16  1  0.50342911  0.83376254  0.16542477  1
  Cr  Cr17  1  0.33626769  0.66939015  0.33067222  1
  Ni  Ni18  1  0.66677448  0.00168874  0.00235685  1
  Ni  Ni19  1  0.83445127  0.16694271  0.16515957  1
  Cr  Cr20  1  0.66729832  0.99909966  0.33235678  1
  Ni  Ni21  1  0.66923695  0.33228151  0.99934927  1
  Cr  Cr22  1  0.83073070  0.49972973  0.16744057  1
  Ni  Ni23  1  0.66712759  0.33323719  0.33324988  1
  Fe  Fe24  1  0.66665587  0.66829239  0.00120568  1
  Ni  Ni25  1  0.83324000  0.83578553  0.16606508  1
  Ni  Ni26  1  0.66873697  0.66831227  0.33404748  1
  Fe  Fe27  1  0.17021004  0.16657447  0.50098510  1
  Fe  Fe28  1  0.00101436  0.99936576  0.66837005  1
  Cr  Cr29  1  0.16703337  0.16500586  0.83395324  1
  Cr  Cr30  1  0.16946134  0.49854030  0.50092125  1
  Cr  Cr31  1  0.99865759  0.33612187  0.66833914  1
  Fe  Fe32  1  0.16732700  0.50336255  0.83342117  1
  Cr  Cr33  1  0.16743728  0.83569923  0.50434706  1
  Ni  Ni34  1  0.99983549  0.66744997  0.66874981  1
  Ni  Ni35  1  0.16829472  0.83452501  0.83302549  1
  Fe  Fe36  1  0.49888121  0.16759341  0.50083843  1
  Ni  Ni37  1  0.33539249  1.00044873  0.66766845  1
  Fe  Fe38  1  0.50128949  0.16494298  0.83517721  1
  Cr  Cr39  1  0.50168340  0.50047099  0.50014107  1
  Ni  Ni40  1  0.33554427  0.33272780  0.66796720  1
  Fe  Fe41  1  0.50184624  0.50172655  0.83260492  1
  Ni  Ni42  1  0.50251735  0.83237381  0.50284608  1
  Ni  Ni43  1  0.33403260  0.66851338  0.66955430  1
  Ni  Ni44  1  0.50000103  0.83317182  0.83332067  1
  Cr  Cr45  1  0.83506435  0.16756875  0.50035577  1
  Cr  Cr46  1  0.66555582  0.00137361  0.66711875  1
  Fe  Fe47  1  0.83229192  0.16704282  0.83672487  1
  Fe  Fe48  1  0.83218522  0.50347037  0.50105786  1
  Ni  Ni49  1  0.66674084  0.33477106  0.66956006  1
  Fe  Fe50  1  0.83268579  0.50144801  0.83497479  1
  Ni  Ni51  1  0.83324886  0.83351562  0.50200496  1
  Ni  Ni52  1  0.66856551  0.66693382  0.66640547  1
  Cr  Cr53  1  0.83383166  0.83527972  0.83493445  1
" 