2870,Ni47Fe24Cr27_12,-229.006134490343, 182.875651367684,Ni47Fe24Cr27,"# generated using pymatgen
 data_Cr16Fe13Ni25
_symmetry_space_group_name_H-M   'P 1'
_cell_length_a   7.46154538
_cell_length_b   7.46154538
_cell_length_c   10.55221867
_cell_angle_alpha   90.00000000
_cell_angle_beta   90.00000000
_cell_angle_gamma   90.00000000
_symmetry_Int_Tables_number   1
_chemical_formula_structural   Cr16Fe13Ni25
_chemical_formula_sum   'Cr16 Fe13 Ni25'
_cell_volume   587.49118125
_cell_formula_units_Z   1
loop_
 _symmetry_equiv_pos_site_id
 _symmetry_equiv_pos_as_xyz
  1  'x, y, z'
loop_
 _atom_site_type_symbol
 _atom_site_label
 _atom_site_symmetry_multiplicity
 _atom_site_fract_x
 _atom_site_fract_y
 _atom_site_fract_z
 _atom_site_occupancy
  Cr  Cr0  1  0.99921596  0.99984559  0.00048556  1
  Cr  Cr1  1  0.16989965  0.16939408  0.16695084  1
  Ni  Ni2  1  0.99871713  0.00286683  0.33294487  1
  Ni  Ni3  1  0.99860452  0.33557626  0.99837843  1
  Ni  Ni4  1  0.16662619  0.49810693  0.16877086  1
  Ni  Ni5  1  0.99810496  0.33496260  0.33601799  1
  Cr  Cr6  1  0.99885042  0.66594208  0.00186613  1
  Cr  Cr7  1  0.16714734  0.83318067  0.16982990  1
  Fe  Fe8  1  0.99964153  0.66456053  0.33282184  1
  Ni  Ni9  1  0.33707664  0.00187689  0.99840897  1
  Ni  Ni10  1  0.50050345  0.16877287  0.16596771  1
  Ni  Ni11  1  0.33597709  0.00137113  0.33449192  1
  Fe  Fe12  1  0.33609903  0.33479309  1.00002527  1
  Ni  Ni13  1  0.50196385  0.49843486  0.16749017  1
  Fe  Fe14  1  0.33545877  0.33512980  0.33382742  1
  Cr  Cr15  1  0.33559307  0.66641849  0.99874092  1
  Cr  Cr16  1  0.50264276  0.83431747  0.16715353  1
  Ni  Ni17  1  0.33650639  0.66431174  0.33491840  1
  Ni  Ni18  1  0.66529457  0.00062445  0.99919138  1
  Cr  Cr19  1  0.83130458  0.16810425  0.16754463  1
  Fe  Fe20  1  0.66603888  0.00135510  0.33336815  1
  Fe  Fe21  1  0.66580000  0.33430674  1.00020313  1
  Ni  Ni22  1  0.83253580  0.50080255  0.16748891  1
  Fe  Fe23  1  0.66580160  0.33392626  0.33460854  1
  Ni  Ni24  1  0.66681339  0.66583131  0.99954184  1
  Ni  Ni25  1  0.83071975  0.83139676  0.16831325  1
  Ni  Ni26  1  0.66620688  0.66360010  0.33343233  1
  Cr  Cr27  1  0.16732084  0.16812476  0.49980763  1
  Cr  Cr28  1  0.99886454  0.00240025  0.66892246  1
  Cr  Cr29  1  0.16862661  0.16869946  0.83431188  1
  Ni  Ni30  1  0.16567648  0.50002716  0.49842535  1
  Fe  Fe31  1  0.99957598  0.33575100  0.66631687  1
  Ni  Ni32  1  0.16579130  0.49954250  0.83396851  1
  Cr  Cr33  1  0.16879224  0.83273878  0.49824322  1
  Cr  Cr34  1  0.99945721  0.66534712  0.66868756  1
  Ni  Ni35  1  0.16900864  0.83379826  0.83376116  1
  Ni  Ni36  1  0.50210200  0.16460157  0.49890735  1
  Ni  Ni37  1  0.33678777  0.00047407  0.66784742  1
  Ni  Ni38  1  0.50213491  0.16579739  0.83555918  1
  Fe  Fe39  1  0.50221285  0.50080861  0.49851304  1
  Cr  Cr40  1  0.33576294  0.33415727  0.66590018  1
  Ni  Ni41  1  0.50260184  0.50045108  0.83470084  1
  Fe  Fe42  1  0.50163551  0.83376220  0.49974253  1
  Cr  Cr43  1  0.33635872  0.66728634  0.66736973  1
  Ni  Ni44  1  0.50286358  0.83469580  0.83222324  1
  Ni  Ni45  1  0.83109732  0.16836040  0.50005511  1
  Fe  Fe46  1  0.66426298  0.99990619  0.66766693  1
  Fe  Fe47  1  0.83099158  0.16853671  0.83472986  1
  Ni  Ni48  1  0.83320993  0.49987340  0.49976505  1
  Cr  Cr49  1  0.66774725  0.33393545  0.66605731  1
  Fe  Fe50  1  0.83138268  0.49998648  0.83462508  1
  Cr  Cr51  1  0.83039473  0.83240505  0.49844832  1
  Ni  Ni52  1  0.66630763  0.66605417  0.66787128  1
  Fe  Fe53  1  0.82979783  0.83257923  0.83470014  1
" 