1570,Ni47Fe24Cr27_11,-229.039243258691, 181.874576323516,Ni47Fe24Cr27,"# generated using pymatgen
 data_Cr16Fe13Ni25
_symmetry_space_group_name_H-M   'P 1'
_cell_length_a   7.46488452
_cell_length_b   7.46488452
_cell_length_c   10.55694092
_cell_angle_alpha   90.00000000
_cell_angle_beta   90.00000000
_cell_angle_gamma   90.00000000
_symmetry_Int_Tables_number   1
_chemical_formula_structural   Cr16Fe13Ni25
_chemical_formula_sum   'Cr16 Fe13 Ni25'
_cell_volume   588.28026330
_cell_formula_units_Z   1
loop_
 _symmetry_equiv_pos_site_id
 _symmetry_equiv_pos_as_xyz
  1  'x, y, z'
loop_
 _atom_site_type_symbol
 _atom_site_label
 _atom_site_symmetry_multiplicity
 _atom_site_fract_x
 _atom_site_fract_y
 _atom_site_fract_z
 _atom_site_occupancy
  Ni  Ni0  1  0.99881980  0.99846793  0.00152309  1
  Ni  Ni1  1  0.16863720  0.16407988  0.16772157  1
  Cr  Cr2  1  0.99856869  0.99881712  0.33280317  1
  Cr  Cr3  1  0.00272472  0.33202238  0.00023695  1
  Ni  Ni4  1  0.16856899  0.50186496  0.16961261  1
  Ni  Ni5  1  0.00365065  0.33498744  0.33492029  1
  Cr  Cr6  1  0.00045334  0.66812137  0.00116348  1
  Ni  Ni7  1  0.16810490  0.83495227  0.16695915  1
  Ni  Ni8  1  0.00104036  0.66604488  0.33402875  1
  Ni  Ni9  1  0.33468834  0.99843185  0.00201781  1
  Ni  Ni10  1  0.49926624  0.16385735  0.16823885  1
  Ni  Ni11  1  0.33558350  0.00166929  0.33359222  1
  Cr  Cr12  1  0.33222173  0.33437949  0.00241808  1
  Ni  Ni13  1  0.49833044  0.50129693  0.16633515  1
  Ni  Ni14  1  0.33260540  0.33362957  0.33312992  1
  Fe  Fe15  1  0.33440784  0.66895128  0.00219686  1
  Fe  Fe16  1  0.49801264  0.83429074  0.16735909  1
  Fe  Fe17  1  0.33389960  0.66638587  0.33301461  1
  Ni  Ni18  1  0.66671380  0.99643587  0.00130949  1
  Fe  Fe19  1  0.83411024  0.16470987  0.16795251  1
  Ni  Ni20  1  0.66436158  0.99879283  0.33401407  1
  Cr  Cr21  1  0.66531029  0.33231285  0.00255543  1
  Cr  Cr22  1  0.83292463  0.50071984  0.16891516  1
  Cr  Cr23  1  0.66419004  0.33221422  0.33396514  1
  Ni  Ni24  1  0.66478882  0.67146110  0.00031520  1
  Fe  Fe25  1  0.83280851  0.83510592  0.16709955  1
  Cr  Cr26  1  0.66719353  0.66986775  0.33519223  1
  Fe  Fe27  1  0.16674617  0.16809627  0.49875998  1
  Cr  Cr28  1  0.99850658  0.99913744  0.66592990  1
  Cr  Cr29  1  0.16667375  0.16452976  0.83316974  1
  Fe  Fe30  1  0.16519063  0.50076867  0.49905148  1
  Ni  Ni31  1  0.99974088  0.33630104  0.66523053  1
  Ni  Ni32  1  0.16621627  0.50324764  0.83131424  1
  Cr  Cr33  1  0.16846829  0.83392214  0.49913094  1
  Ni  Ni34  1  0.99922882  0.66548135  0.66535877  1
  Cr  Cr35  1  0.16928448  0.83376682  0.83330523  1
  Fe  Fe36  1  0.50178127  0.16462779  0.49956029  1
  Ni  Ni37  1  0.33687667  0.99869278  0.66478297  1
  Cr  Cr38  1  0.50228628  0.16367124  0.83231919  1
  Ni  Ni39  1  0.50076459  0.50066391  0.50053135  1
  Cr  Cr40  1  0.33301373  0.33348144  0.66455352  1
  Cr  Cr41  1  0.50132381  0.50305360  0.83387349  1
  Ni  Ni42  1  0.49995947  0.83472612  0.50119289  1
  Fe  Fe43  1  0.33429221  0.66718461  0.66555585  1
  Fe  Fe44  1  0.50108845  0.83377867  0.83273438  1
  Ni  Ni45  1  0.83251661  0.16821635  0.50104426  1
  Ni  Ni46  1  0.66553624  0.99817917  0.66548427  1
  Fe  Fe47  1  0.83271351  0.16525937  0.83210015  1
  Ni  Ni48  1  0.83389707  0.49918215  0.50151647  1
  Ni  Ni49  1  0.66727049  0.33285688  0.66417394  1
  Cr  Cr50  1  0.83224807  0.49980744  0.83070259  1
  Ni  Ni51  1  0.83220220  0.83294003  0.50063368  1
  Fe  Fe52  1  0.66697694  0.66815212  0.66417092  1
  Fe  Fe53  1  0.83103449  0.83422812  0.83305235  1
" 