1637,Ni47Fe24Cr27_8,-228.984062996777, 177.993458168951,Ni47Fe24Cr27,"# generated using pymatgen
 data_Cr16Fe13Ni25
_symmetry_space_group_name_H-M   'P 1'
_cell_length_a   7.46394098
_cell_length_b   7.46394098
_cell_length_c   10.55560656
_cell_angle_alpha   90.00000000
_cell_angle_beta   90.00000000
_cell_angle_gamma   90.00000000
_symmetry_Int_Tables_number   1
_chemical_formula_structural   Cr16Fe13Ni25
_chemical_formula_sum   'Cr16 Fe13 Ni25'
_cell_volume   588.05722173
_cell_formula_units_Z   1
loop_
 _symmetry_equiv_pos_site_id
 _symmetry_equiv_pos_as_xyz
  1  'x, y, z'
loop_
 _atom_site_type_symbol
 _atom_site_label
 _atom_site_symmetry_multiplicity
 _atom_site_fract_x
 _atom_site_fract_y
 _atom_site_fract_z
 _atom_site_occupancy
  Fe  Fe0  1  0.99966620  0.99776033  0.99999387  1
  Ni  Ni1  1  0.16368874  0.16657318  0.16783477  1
  Ni  Ni2  1  0.00051359  0.99742513  0.33202807  1
  Cr  Cr3  1  0.00033591  0.33398851  0.00058440  1
  Ni  Ni4  1  0.16735176  0.50206744  0.16778497  1
  Cr  Cr5  1  0.00140836  0.33374056  0.33201972  1
  Ni  Ni6  1  0.00080147  0.66745161  0.00093356  1
  Fe  Fe7  1  0.16471456  0.83169645  0.16621596  1
  Ni  Ni8  1  0.00037109  0.66960354  0.33262728  1
  Cr  Cr9  1  0.33337222  0.99889544  0.99997886  1
  Cr  Cr10  1  0.49943218  0.16755655  0.16698292  1
  Cr  Cr11  1  0.33242160  0.99971399  0.33463842  1
  Cr  Cr12  1  0.33159459  0.33412100  0.99831325  1
  Cr  Cr13  1  0.49877892  0.50308673  0.16628183  1
  Ni  Ni14  1  0.33181967  0.33514061  0.33617669  1
  Ni  Ni15  1  0.33184656  0.66695027  0.99798941  1
  Cr  Cr16  1  0.50120878  0.83010732  0.16583959  1
  Ni  Ni17  1  0.33210044  0.66623299  0.33466634  1
  Ni  Ni18  1  0.66922190  0.99980866  0.99804697  1
  Ni  Ni19  1  0.83620168  0.16290642  0.16393285  1
  Cr  Cr20  1  0.66831790  0.99817409  0.33485539  1
  Fe  Fe21  1  0.66668147  0.33376278  0.99939356  1
  Fe  Fe22  1  0.83447942  0.50368252  0.16607719  1
  Cr  Cr23  1  0.66673815  0.33349794  0.33137333  1
  Ni  Ni24  1  0.66806377  0.66947111  0.99889495  1
  Ni  Ni25  1  0.83519685  0.83326250  0.16614132  1
  Ni  Ni26  1  0.66786929  0.66848290  0.33487176  1
  Ni  Ni27  1  0.16880300  0.16493429  0.50119755  1
  Ni  Ni28  1  0.00073462  0.99877433  0.66870610  1
  Ni  Ni29  1  0.16654791  0.16401982  0.83163500  1
  Fe  Fe30  1  0.16923699  0.50085579  0.49902998  1
  Cr  Cr31  1  0.00289563  0.33428227  0.66756644  1
  Ni  Ni32  1  0.16949300  0.50078670  0.83337216  1
  Fe  Fe33  1  0.16579951  0.83496338  0.50042575  1
  Cr  Cr34  1  0.00054473  0.66899343  0.66670332  1
  Ni  Ni35  1  0.16586241  0.83562818  0.83494744  1
  Fe  Fe36  1  0.49952163  0.16755203  0.50223367  1
  Ni  Ni37  1  0.33406364  0.00094046  0.66687796  1
  Fe  Fe38  1  0.49958999  0.16718160  0.83224158  1
  Ni  Ni39  1  0.49850286  0.50131219  0.50009205  1
  Ni  Ni40  1  0.33602297  0.33221491  0.66646545  1
  Ni  Ni41  1  0.50062911  0.50102534  0.83382477  1
  Ni  Ni42  1  0.50064524  0.83092725  0.50140552  1
  Cr  Cr43  1  0.33315892  0.66747608  0.66834177  1
  Fe  Fe44  1  0.49979884  0.83281204  0.83387269  1
  Cr  Cr45  1  0.83732814  0.16397374  0.50240656  1
  Fe  Fe46  1  0.66559354  0.99894274  0.66773969  1
  Fe  Fe47  1  0.83352935  0.16486666  0.83333646  1
  Cr  Cr48  1  0.83114032  0.50286411  0.49946366  1
  Ni  Ni49  1  0.66341515  0.33247017  0.66862999  1
  Cr  Cr50  1  0.83126147  0.50167719  0.83393943  1
  Ni  Ni51  1  0.83345129  0.83398281  0.50111981  1
  Fe  Fe52  1  0.66458456  0.66789989  0.66655817  1
  Fe  Fe53  1  0.83488599  0.83471994  0.83462766  1
" 