4847,Ni47Fe23Cr29_17,-228.391274163172, 176.039856770311,Ni47Fe23Cr29,"# generated using pymatgen
 data_Cr17Fe12Ni25
_symmetry_space_group_name_H-M   'P 1'
_cell_length_a   7.46882282
_cell_length_b   7.46882282
_cell_length_c   10.56251052
_cell_angle_alpha   90.00000000
_cell_angle_beta   90.00000000
_cell_angle_gamma   90.00000000
_symmetry_Int_Tables_number   1
_chemical_formula_structural   Cr17Fe12Ni25
_chemical_formula_sum   'Cr17 Fe12 Ni25'
_cell_volume   589.21184425
_cell_formula_units_Z   1
loop_
 _symmetry_equiv_pos_site_id
 _symmetry_equiv_pos_as_xyz
  1  'x, y, z'
loop_
 _atom_site_type_symbol
 _atom_site_label
 _atom_site_symmetry_multiplicity
 _atom_site_fract_x
 _atom_site_fract_y
 _atom_site_fract_z
 _atom_site_occupancy
  Ni  Ni0  1  0.00190830  0.99752495  0.00198341  1
  Ni  Ni1  1  0.16286700  0.16862906  0.16644774  1
  Cr  Cr2  1  0.99949894  0.00133178  0.33118862  1
  Cr  Cr3  1  0.00150542  0.33265184  0.99951930  1
  Ni  Ni4  1  0.16863704  0.50153643  0.16796218  1
  Ni  Ni5  1  0.00125064  0.33335628  0.33487380  1
  Fe  Fe6  1  0.00296760  0.66823199  0.99968470  1
  Fe  Fe7  1  0.16479398  0.83136317  0.16508132  1
  Cr  Cr8  1  0.99898895  0.66590995  0.33591568  1
  Cr  Cr9  1  0.32919618  0.99802122  0.00052624  1
  Cr  Cr10  1  0.50215556  0.16590498  0.16727374  1
  Cr  Cr11  1  0.33260532  0.99856114  0.33167258  1
  Cr  Cr12  1  0.33309557  0.33487850  0.99900318  1
  Fe  Fe13  1  0.49924046  0.50410546  0.16639639  1
  Cr  Cr14  1  0.32933965  0.33369064  0.33407895  1
  Fe  Fe15  1  0.33208165  0.66739944  0.99963003  1
  Ni  Ni16  1  0.50135369  0.82872891  0.16870492  1
  Fe  Fe17  1  0.33426622  0.66638838  0.33384139  1
  Cr  Cr18  1  0.66670737  0.99734329  0.00058624  1
  Ni  Ni19  1  0.83541590  0.16381648  0.16724418  1
  Ni  Ni20  1  0.66648296  0.99565033  0.33519467  1
  Fe  Fe21  1  0.66725954  0.33486677  0.99921952  1
  Cr  Cr22  1  0.83414391  0.50099344  0.16617889  1
  Cr  Cr23  1  0.66884657  0.33386903  0.33365684  1
  Fe  Fe24  1  0.66469565  0.66608719  -0.00001647  1
  Ni  Ni25  1  0.83040975  0.83411883  0.16611873  1
  Ni  Ni26  1  0.66458669  0.66903209  0.33367982  1
  Ni  Ni27  1  0.16501894  0.16714680  0.50273841  1
  Ni  Ni28  1  0.00530891  0.00069700  0.66572957  1
  Ni  Ni29  1  0.16578618  0.16575977  0.83025850  1
  Ni  Ni30  1  0.16839826  0.49877299  0.50055260  1
  Ni  Ni31  1  0.00205956  0.33305022  0.66505855  1
  Ni  Ni32  1  0.16788650  0.50085584  0.83110740  1
  Ni  Ni33  1  0.16848520  0.83358472  0.50103525  1
  Cr  Cr34  1  -0.00009240  0.66489432  0.66589160  1
  Ni  Ni35  1  0.16884986  0.83317910  0.83433375  1
  Fe  Fe36  1  0.49948932  0.16531003  0.50156477  1
  Ni  Ni37  1  0.33142848  0.99861774  0.66698266  1
  Cr  Cr38  1  0.49792436  0.16561070  0.82977432  1
  Ni  Ni39  1  0.49744575  0.50257421  0.49807010  1
  Fe  Fe40  1  0.32996592  0.33480109  0.66582582  1
  Ni  Ni41  1  0.49822041  0.50341236  0.83651089  1
  Fe  Fe42  1  0.49913809  0.83286306  0.49985324  1
  Fe  Fe43  1  0.33171044  0.66641826  0.66680077  1
  Ni  Ni44  1  0.49655534  0.83001245  0.83093100  1
  Ni  Ni45  1  0.83482884  0.16493202  0.49960770  1
  Fe  Fe46  1  0.66769067  0.99928902  0.66328707  1
  Cr  Cr47  1  0.83663083  0.16613979  0.83261308  1
  Ni  Ni48  1  0.83351978  0.49869376  0.49854352  1
  Cr  Cr49  1  0.66736249  0.33721723  0.66668190  1
  Ni  Ni50  1  0.83357033  0.50020441  0.83552906  1
  Ni  Ni51  1  0.83152750  0.83593597  0.49912138  1
  Cr  Cr52  1  0.66553004  0.66585782  0.66590048  1
  Cr  Cr53  1  0.83504247  0.83376035  0.83363259  1
" 