47,Ni47Fe23Cr29_7,-228.657046281348, 185.186250621146,Ni47Fe23Cr29,"# generated using pymatgen
 data_Cr17Fe12Ni25
_symmetry_space_group_name_H-M   'P 1'
_cell_length_a   7.46224537
_cell_length_b   7.46224537
_cell_length_c   10.55320861
_cell_angle_alpha   90.00000000
_cell_angle_beta   90.00000000
_cell_angle_gamma   90.00000000
_symmetry_Int_Tables_number   1
_chemical_formula_structural   Cr17Fe12Ni25
_chemical_formula_sum   'Cr17 Fe12 Ni25'
_cell_volume   587.65653979
_cell_formula_units_Z   1
loop_
 _symmetry_equiv_pos_site_id
 _symmetry_equiv_pos_as_xyz
  1  'x, y, z'
loop_
 _atom_site_type_symbol
 _atom_site_label
 _atom_site_symmetry_multiplicity
 _atom_site_fract_x
 _atom_site_fract_y
 _atom_site_fract_z
 _atom_site_occupancy
  Ni  Ni0  1  0.99884269  1.00019807  0.00037657  1
  Cr  Cr1  1  0.16544088  0.16637059  0.16654356  1
  Ni  Ni2  1  0.99951682  0.99988524  0.33443940  1
  Ni  Ni3  1  0.00166317  0.33304569  0.99705344  1
  Ni  Ni4  1  0.16773312  0.50181385  0.16862732  1
  Ni  Ni5  1  0.00278823  0.33395253  0.33508776  1
  Cr  Cr6  1  0.00433552  0.66601225  1.00013192  1
  Ni  Ni7  1  0.16883792  0.83296066  0.16701361  1
  Ni  Ni8  1  0.00310595  0.66734509  0.33304967  1
  Fe  Fe9  1  0.33229467  0.99895265  0.99945633  1
  Fe  Fe10  1  0.49948850  0.16733380  0.16663988  1
  Cr  Cr11  1  0.33334759  0.99922825  0.33357608  1
  Cr  Cr12  1  0.33128718  0.33680650  0.99917916  1
  Fe  Fe13  1  0.49747639  0.50099447  0.16706595  1
  Fe  Fe14  1  0.33155647  0.33604901  0.33405297  1
  Ni  Ni15  1  0.33449661  0.66761760  0.00103647  1
  Fe  Fe16  1  0.49854978  0.83248732  0.16438296  1
  Ni  Ni17  1  0.33207198  0.66333841  0.33221641  1
  Ni  Ni18  1  0.66598353  0.99923959  0.00132752  1
  Cr  Cr19  1  0.83548800  0.16846623  0.16689866  1
  Cr  Cr20  1  0.67033147  0.00090269  0.33408789  1
  Cr  Cr21  1  0.66676899  0.33182414  0.99792912  1
  Cr  Cr22  1  0.83435638  0.49932676  0.16567793  1
  Fe  Fe23  1  0.66766994  0.33446371  0.33432708  1
  Fe  Fe24  1  0.66581360  0.66765250  0.99918056  1
  Fe  Fe25  1  0.83797443  0.83411054  0.16661196  1
  Cr  Cr26  1  0.66670416  0.66929888  0.33240631  1
  Ni  Ni27  1  0.16330193  0.16782582  0.49982334  1
  Ni  Ni28  1  1.00000489  0.00216630  0.66593073  1
  Ni  Ni29  1  0.16470179  0.16385513  0.83418189  1
  Fe  Fe30  1  0.16605545  0.49890921  0.49867520  1
  Ni  Ni31  1  0.00041952  0.33208914  0.66919458  1
  Fe  Fe32  1  0.16496647  0.50156340  0.83392077  1
  Cr  Cr33  1  0.16539612  0.83480835  0.50090408  1
  Ni  Ni34  1  1.00025824  0.66674497  0.66741882  1
  Ni  Ni35  1  0.16918322  0.83705938  0.83385321  1
  Cr  Cr36  1  0.49902208  0.17022514  0.50051831  1
  Fe  Fe37  1  0.33093974  0.00171831  0.66933637  1
  Fe  Fe38  1  0.50108064  0.16486402  0.83332434  1
  Ni  Ni39  1  0.50068579  0.49981412  0.49828374  1
  Cr  Cr40  1  0.33174763  0.33448002  0.66783739  1
  Ni  Ni41  1  0.50317643  0.50287736  0.83380114  1
  Cr  Cr42  1  0.49917036  0.83002444  0.50373457  1
  Cr  Cr43  1  0.33218387  0.66465215  0.66811094  1
  Ni  Ni44  1  0.49748767  0.83220120  0.83553690  1
  Ni  Ni45  1  0.83765512  0.16909747  0.50007534  1
  Cr  Cr46  1  0.66951768  0.00120827  0.66600462  1
  Ni  Ni47  1  0.83668769  0.16895068  0.83371745  1
  Cr  Cr48  1  0.83281300  0.50003464  0.50299019  1
  Ni  Ni49  1  0.66739409  0.33409326  0.66782109  1
  Ni  Ni50  1  0.83202004  0.49774133  0.83188813  1
  Ni  Ni51  1  0.83655546  0.83294412  0.49991270  1
  Ni  Ni52  1  0.66679762  0.66533192  0.66872365  1
  Cr  Cr53  1  0.83422901  0.83241837  0.83347954  1
" 