8307,Ni47Fe23Cr29_3,-228.330622226638, 184.141711092567,Ni47Fe23Cr29,"# generated using pymatgen
 data_Cr17Fe12Ni25
_symmetry_space_group_name_H-M   'P 1'
_cell_length_a   7.46473945
_cell_length_b   7.46473945
_cell_length_c   10.55673577
_cell_angle_alpha   90.00000000
_cell_angle_beta   90.00000000
_cell_angle_gamma   90.00000000
_symmetry_Int_Tables_number   1
_chemical_formula_structural   Cr17Fe12Ni25
_chemical_formula_sum   'Cr17 Fe12 Ni25'
_cell_volume   588.24596725
_cell_formula_units_Z   1
loop_
 _symmetry_equiv_pos_site_id
 _symmetry_equiv_pos_as_xyz
  1  'x, y, z'
loop_
 _atom_site_type_symbol
 _atom_site_label
 _atom_site_symmetry_multiplicity
 _atom_site_fract_x
 _atom_site_fract_y
 _atom_site_fract_z
 _atom_site_occupancy
  Ni  Ni0  1  0.00067985  0.99896056  0.00231990  1
  Ni  Ni1  1  0.16396472  0.16438009  0.16531989  1
  Ni  Ni2  1  0.99917572  0.99881707  0.33296510  1
  Ni  Ni3  1  0.99920757  0.33282548  0.00070922  1
  Cr  Cr4  1  0.16520183  0.50068810  0.16698115  1
  Ni  Ni5  1  0.00026300  0.33240168  0.33376470  1
  Fe  Fe6  1  0.00041410  0.66826982  0.99992076  1
  Fe  Fe7  1  0.16610604  0.83573003  0.16607865  1
  Ni  Ni8  1  0.99841749  0.66924545  0.33422237  1
  Ni  Ni9  1  0.33251204  0.99912700  0.00303247  1
  Ni  Ni10  1  0.50146186  0.16410943  0.16608305  1
  Cr  Cr11  1  0.33316238  0.00038021  0.33194754  1
  Cr  Cr12  1  0.33438516  0.33190621  0.99879845  1
  Cr  Cr13  1  0.50163914  0.50269827  0.16651273  1
  Cr  Cr14  1  0.33317541  0.33221255  0.33523868  1
  Ni  Ni15  1  0.33331784  0.66843862  0.99991870  1
  Ni  Ni16  1  0.50013544  0.83404622  0.16656595  1
  Fe  Fe17  1  0.33285540  0.66820825  0.33565025  1
  Cr  Cr18  1  0.66700271  0.00018334  0.00154992  1
  Ni  Ni19  1  0.83504081  0.16597949  0.16714031  1
  Fe  Fe20  1  0.66885556  0.99839744  0.33215165  1
  Ni  Ni21  1  0.66703556  0.33363267  0.00052833  1
  Cr  Cr22  1  0.83362312  0.49867521  0.16707658  1
  Fe  Fe23  1  0.66790577  0.33246831  0.33312332  1
  Fe  Fe24  1  0.66689078  0.66753759  0.00075033  1
  Ni  Ni25  1  0.83318258  0.83534859  0.16718178  1
  Ni  Ni26  1  0.66771488  0.66926609  0.33416945  1
  Ni  Ni27  1  0.16549643  0.16789048  0.50139375  1
  Fe  Fe28  1  0.99910108  0.99988197  0.66507969  1
  Cr  Cr29  1  0.16615460  0.16831369  0.83365322  1
  Ni  Ni30  1  0.16965079  0.49985182  0.50111940  1
  Fe  Fe31  1  0.00345409  0.33366633  0.66601924  1
  Ni  Ni32  1  0.16879974  0.49962295  0.83280611  1
  Ni  Ni33  1  0.16754371  0.83272250  0.49939316  1
  Cr  Cr34  1  0.00120813  0.66838524  0.66616588  1
  Cr  Cr35  1  0.16721894  0.83243827  0.83591833  1
  Fe  Fe36  1  0.49987144  0.16772490  0.50112097  1
  Cr  Cr37  1  0.33369102  0.00179131  0.66485747  1
  Fe  Fe38  1  0.50092759  0.16926225  0.83326591  1
  Ni  Ni39  1  0.49768663  0.50162030  0.50111687  1
  Ni  Ni40  1  0.33492151  0.33491520  0.66645272  1
  Fe  Fe41  1  0.49849945  0.49898953  0.83278300  1
  Ni  Ni42  1  0.50018367  0.83134714  0.49933435  1
  Ni  Ni43  1  0.33315753  0.66326575  0.66418307  1
  Cr  Cr44  1  0.49999007  0.83238638  0.83454924  1
  Cr  Cr45  1  0.83474276  0.16588720  0.50026138  1
  Fe  Fe46  1  0.66692296  0.00030176  0.66618675  1
  Cr  Cr47  1  0.83356697  0.16663269  0.83228701  1
  Cr  Cr48  1  0.83345553  0.49905303  0.49731512  1
  Ni  Ni49  1  0.66282540  0.33188580  0.66693086  1
  Cr  Cr50  1  0.83351530  0.49896009  0.83607480  1
  Ni  Ni51  1  0.83273515  0.83550375  0.49954627  1
  Cr  Cr52  1  0.66668945  0.66782021  0.66709496  1
  Ni  Ni53  1  0.83301191  0.83429433  0.83373786  1
" 