5051,Ni47Fe23Cr29_2,-228.503668774488, 179.912584532772,Ni47Fe23Cr29,"# generated using pymatgen
 data_Cr17Fe12Ni25
_symmetry_space_group_name_H-M   'P 1'
_cell_length_a   7.47087506
_cell_length_b   7.47087506
_cell_length_c   10.56541284
_cell_angle_alpha   90.00000000
_cell_angle_beta   90.00000000
_cell_angle_gamma   90.00000000
_symmetry_Int_Tables_number   1
_chemical_formula_structural   Cr17Fe12Ni25
_chemical_formula_sum   'Cr17 Fe12 Ni25'
_cell_volume   589.69767989
_cell_formula_units_Z   1
loop_
 _symmetry_equiv_pos_site_id
 _symmetry_equiv_pos_as_xyz
  1  'x, y, z'
loop_
 _atom_site_type_symbol
 _atom_site_label
 _atom_site_symmetry_multiplicity
 _atom_site_fract_x
 _atom_site_fract_y
 _atom_site_fract_z
 _atom_site_occupancy
  Fe  Fe0  1  0.99899171  0.00223641  0.00003817  1
  Fe  Fe1  1  0.16355176  0.16650762  0.16516765  1
  Ni  Ni2  1  0.99659652  0.00307023  0.33198388  1
  Ni  Ni3  1  0.00174916  0.33014606  0.00180677  1
  Cr  Cr4  1  0.16756147  0.49737277  0.16724210  1
  Ni  Ni5  1  0.99605047  0.33015409  0.33405007  1
  Cr  Cr6  1  0.99684487  0.66717877  0.99544794  1
  Cr  Cr7  1  0.16603387  0.83563738  0.16731367  1
  Cr  Cr8  1  0.99688545  0.66486614  0.33498130  1
  Fe  Fe9  1  0.33328077  0.00181700  0.99727681  1
  Cr  Cr10  1  0.50211001  0.17016114  0.16370702  1
  Cr  Cr11  1  0.33337146  0.00094398  0.33074975  1
  Ni  Ni12  1  0.33109946  0.33005154  0.99770456  1
  Ni  Ni13  1  0.50203375  0.50029895  0.16675758  1
  Cr  Cr14  1  0.33315702  0.33356725  0.33616140  1
  Cr  Cr15  1  0.33572045  0.66757469  0.99817573  1
  Ni  Ni16  1  0.50183037  0.82869965  0.16792726  1
  Ni  Ni17  1  0.33673705  0.66413345  0.33327301  1
  Cr  Cr18  1  0.66529567  0.99609308  0.99798851  1
  Ni  Ni19  1  0.83659368  0.16803952  0.16753623  1
  Cr  Cr20  1  0.66791352  0.00002399  0.33499713  1
  Ni  Ni21  1  0.66617798  0.33273150  0.00199934  1
  Fe  Fe22  1  0.82933122  0.49783750  0.16546111  1
  Ni  Ni23  1  0.66885186  0.33486059  0.33369423  1
  Ni  Ni24  1  0.66642560  0.66873342  0.00378922  1
  Ni  Ni25  1  0.83286140  0.83562500  0.16693757  1
  Fe  Fe26  1  0.66629966  0.66382724  0.33207980  1
  Fe  Fe27  1  0.16663956  0.16447439  0.50074354  1
  Ni  Ni28  1  -0.00023419  0.99805077  0.66657510  1
  Fe  Fe29  1  0.16798382  0.16638621  0.83299638  1
  Fe  Fe30  1  0.16885156  0.50043272  0.50153229  1
  Cr  Cr31  1  0.00082923  0.33464595  0.66335574  1
  Ni  Ni32  1  0.16745712  0.49860967  0.82976600  1
  Cr  Cr33  1  0.16492372  0.83278116  0.50088630  1
  Ni  Ni34  1  0.00127671  0.66906256  0.66774180  1
  Fe  Fe35  1  0.16739345  0.83459089  0.82952798  1
  Ni  Ni36  1  0.50151017  0.17089049  0.50460028  1
  Ni  Ni37  1  0.33356665  0.00198477  0.66932874  1
  Ni  Ni38  1  0.49710211  0.16601246  0.83079784  1
  Ni  Ni39  1  0.49881743  0.49615017  0.49955748  1
  Ni  Ni40  1  0.33428653  0.33150177  0.66555107  1
  Cr  Cr41  1  0.49865455  0.49541027  0.83369562  1
  Cr  Cr42  1  0.49881852  0.83233270  0.49956007  1
  Ni  Ni43  1  0.33124230  0.66578052  0.66708543  1
  Ni  Ni44  1  0.49880426  0.83602316  0.83171184  1
  Fe  Fe45  1  0.83231453  0.16622275  0.49925262  1
  Fe  Fe46  1  0.66546498  0.00045504  0.66643273  1
  Cr  Cr47  1  0.83060060  0.16644973  0.83162337  1
  Fe  Fe48  1  0.82963484  0.49947514  0.49997921  1
  Ni  Ni49  1  0.66326848  0.32971343  0.66365070  1
  Cr  Cr50  1  0.83352004  0.49819661  0.83602661  1
  Ni  Ni51  1  0.83680040  0.83570363  0.50147657  1
  Cr  Cr52  1  0.66794270  0.66718340  0.66732195  1
  Ni  Ni53  1  0.83534115  0.83545812  0.83114238  1
" 