8176,Ni47Fe35Cr17_8,-233.672934939781, 204.527365134049,Ni47Fe35Cr17,"# generated using pymatgen
 data_Cr10Fe19Ni25
_symmetry_space_group_name_H-M   'P 1'
_cell_length_a   7.43657293
_cell_length_b   7.43657293
_cell_length_c   10.51690229
_cell_angle_alpha   90.00000000
_cell_angle_beta   90.00000000
_cell_angle_gamma   90.00000000
_symmetry_Int_Tables_number   1
_chemical_formula_structural   Cr10Fe19Ni25
_chemical_formula_sum   'Cr10 Fe19 Ni25'
_cell_volume   581.61221798
_cell_formula_units_Z   1
loop_
 _symmetry_equiv_pos_site_id
 _symmetry_equiv_pos_as_xyz
  1  'x, y, z'
loop_
 _atom_site_type_symbol
 _atom_site_label
 _atom_site_symmetry_multiplicity
 _atom_site_fract_x
 _atom_site_fract_y
 _atom_site_fract_z
 _atom_site_occupancy
  Ni  Ni0  1  0.99967520  0.00216414  0.00401090  1
  Ni  Ni1  1  0.16998288  0.16812025  0.16881296  1
  Fe  Fe2  1  1.00101710  0.00279570  0.33216650  1
  Ni  Ni3  1  1.00001083  0.33587816  0.00300793  1
  Fe  Fe4  1  0.16869093  0.49929722  0.16921963  1
  Ni  Ni5  1  1.00051385  0.33632457  0.33400292  1
  Fe  Fe6  1  0.99935098  0.66770021  0.00319215  1
  Fe  Fe7  1  0.16929928  0.83755459  0.16867659  1
  Cr  Cr8  1  0.00310028  0.66601803  0.33533555  1
  Ni  Ni9  1  0.33702874  0.00208151  0.00273113  1
  Ni  Ni10  1  0.49946379  0.16998919  0.16746861  1
  Ni  Ni11  1  0.33809957  0.99902049  0.33366771  1
  Ni  Ni12  1  0.33596714  0.33515468  0.00284163  1
  Ni  Ni13  1  0.50387401  0.49993207  0.16969162  1
  Fe  Fe14  1  0.33587850  0.33687484  0.33347128  1
  Cr  Cr15  1  0.33554160  0.66890874  0.00418989  1
  Fe  Fe16  1  0.50279944  0.83661249  0.17011939  1
  Ni  Ni17  1  0.33720815  0.66927146  0.33548459  1
  Fe  Fe18  1  0.66849380  0.00275271  0.00217739  1
  Fe  Fe19  1  0.83466158  0.17010150  0.16896202  1
  Ni  Ni20  1  0.66781364  1.00110941  0.33341798  1
  Ni  Ni21  1  0.67013761  0.33457842  1.00083135  1
  Ni  Ni22  1  0.83350383  0.50242216  0.16721867  1
  Ni  Ni23  1  0.67048798  0.33544673  0.33503375  1
  Fe  Fe24  1  0.67060980  0.66845314  0.00224899  1
  Ni  Ni25  1  0.83534563  0.83497861  0.16723706  1
  Fe  Fe26  1  0.66715716  0.66856436  0.33548653  1
  Cr  Cr27  1  0.17026272  0.16921829  0.50118046  1
  Fe  Fe28  1  1.00093467  0.99997319  0.67019116  1
  Cr  Cr29  1  0.17098480  0.16943286  0.83520938  1
  Ni  Ni30  1  0.17071152  0.50167100  0.50243455  1
  Cr  Cr31  1  1.00034684  0.33804333  0.66833740  1
  Fe  Fe32  1  0.16933067  0.50296604  0.83475004  1
  Cr  Cr33  1  0.16907891  0.83634173  0.50424279  1
  Fe  Fe34  1  1.00012147  0.66775315  0.66800560  1
  Cr  Cr35  1  0.16742856  0.83628425  0.83427142  1
  Cr  Cr36  1  0.49995169  0.17106918  0.50161151  1
  Fe  Fe37  1  0.33747885  1.00169190  0.66965346  1
  Fe  Fe38  1  0.50303805  0.16904459  0.83680672  1
  Ni  Ni39  1  0.50273829  0.50377603  0.50252384  1
  Ni  Ni40  1  0.33725659  0.34011846  0.66904528  1
  Fe  Fe41  1  0.50264629  0.50168591  0.83439648  1
  Ni  Ni42  1  0.50313215  0.83170121  0.50075398  1
  Ni  Ni43  1  0.33612609  0.66758408  0.66769960  1
  Ni  Ni44  1  0.50421590  0.83491265  0.83583368  1
  Cr  Cr45  1  0.83598915  0.16899748  0.49873880  1
  Cr  Cr46  1  0.66886371  1.00116750  0.67025149  1
  Fe  Fe47  1  0.83365378  0.16780831  0.83720087  1
  Ni  Ni48  1  0.83265413  0.50432331  0.50254946  1
  Ni  Ni49  1  0.66779091  0.33736749  0.67023344  1
  Fe  Fe50  1  0.83412033  0.50309256  0.83662344  1
  Ni  Ni51  1  0.83384070  0.83256347  0.50305449  1
  Fe  Fe52  1  0.66774723  0.66652262  0.66842435  1
  Ni  Ni53  1  0.83448728  0.83342862  0.83591618  1
" 