7787,Ni47Fe35Cr17_6,-233.999366278645, 205.433745202661,Ni47Fe35Cr17,"# generated using pymatgen
 data_Cr10Fe19Ni25
_symmetry_space_group_name_H-M   'P 1'
_cell_length_a   7.43183200
_cell_length_b   7.43183200
_cell_length_c   10.51019760
_cell_angle_alpha   90.00000000
_cell_angle_beta   90.00000000
_cell_angle_gamma   90.00000000
_symmetry_Int_Tables_number   1
_chemical_formula_structural   Cr10Fe19Ni25
_chemical_formula_sum   'Cr10 Fe19 Ni25'
_cell_volume   580.50056675
_cell_formula_units_Z   1
loop_
 _symmetry_equiv_pos_site_id
 _symmetry_equiv_pos_as_xyz
  1  'x, y, z'
loop_
 _atom_site_type_symbol
 _atom_site_label
 _atom_site_symmetry_multiplicity
 _atom_site_fract_x
 _atom_site_fract_y
 _atom_site_fract_z
 _atom_site_occupancy
  Fe  Fe0  1  0.00493320  0.00378870  0.00313329  1
  Ni  Ni1  1  0.16882048  0.16634491  0.17082808  1
  Ni  Ni2  1  0.00244323  0.00393112  0.33466475  1
  Cr  Cr3  1  0.00253255  0.33478921  0.00310100  1
  Ni  Ni4  1  0.17123078  0.50373462  0.17234567  1
  Ni  Ni5  1  0.00461343  0.33498112  0.33506754  1
  Cr  Cr6  1  0.00407410  0.66768438  1.00233281  1
  Ni  Ni7  1  0.17067152  0.83702507  0.16902970  1
  Fe  Fe8  1  0.00402034  0.66863430  0.33645034  1
  Fe  Fe9  1  0.33466361  1.00111870  0.00416991  1
  Ni  Ni10  1  0.50196671  0.16977861  0.16940140  1
  Ni  Ni11  1  0.33562788  1.00181113  0.33489746  1
  Cr  Cr12  1  0.33448626  0.33668015  0.00443857  1
  Ni  Ni13  1  0.50224962  0.50291136  0.16846243  1
  Ni  Ni14  1  0.33298804  0.33651387  0.33507955  1
  Ni  Ni15  1  0.33702195  0.67009618  0.00402336  1
  Fe  Fe16  1  0.49893575  0.83526024  0.16978583  1
  Ni  Ni17  1  0.33604740  0.66875918  0.33472113  1
  Cr  Cr18  1  0.66857137  0.00273322  1.00140201  1
  Ni  Ni19  1  0.83631163  0.16919542  0.17010703  1
  Ni  Ni20  1  0.66902564  1.00079044  0.33734181  1
  Fe  Fe21  1  0.66960678  0.33713733  0.00327473  1
  Fe  Fe22  1  0.83557119  0.50047404  0.17022708  1
  Cr  Cr23  1  0.66883990  0.33490132  0.33432066  1
  Fe  Fe24  1  0.66692098  0.66692632  1.00235143  1
  Cr  Cr25  1  0.83768039  0.83643075  0.17144832  1
  Ni  Ni26  1  0.66743064  0.67085306  0.33546680  1
  Fe  Fe27  1  0.16946533  0.16942495  0.50140427  1
  Ni  Ni28  1  1.00211264  0.00341277  0.67007204  1
  Fe  Fe29  1  0.16915236  0.16993925  0.83405780  1
  Fe  Fe30  1  0.17056113  0.50217652  0.50221685  1
  Fe  Fe31  1  1.00197659  0.33661544  0.66920133  1
  Ni  Ni32  1  0.16764922  0.50251022  0.83160015  1
  Ni  Ni33  1  0.16804873  0.83658088  0.50257584  1
  Fe  Fe34  1  0.00330561  0.66741942  0.66857758  1
  Cr  Cr35  1  0.17032622  0.83660733  0.83595678  1
  Ni  Ni36  1  0.50134267  0.17015845  0.50316692  1
  Fe  Fe37  1  0.33543920  0.00320474  0.66754642  1
  Fe  Fe38  1  0.50131803  0.16914159  0.83425877  1
  Ni  Ni39  1  0.50236622  0.50080247  0.50319839  1
  Ni  Ni40  1  0.33419731  0.33655197  0.66848028  1
  Cr  Cr41  1  0.50301883  0.50195863  0.83548793  1
  Fe  Fe42  1  0.50041260  0.83458805  0.50060930  1
  Ni  Ni43  1  0.33362203  0.66729742  0.66834649  1
  Ni  Ni44  1  0.50067895  0.83672733  0.83683234  1
  Fe  Fe45  1  0.83710317  0.16930736  0.50162587  1
  Cr  Cr46  1  0.66990200  0.00294651  0.66732111  1
  Fe  Fe47  1  0.83656307  0.17022732  0.83502057  1
  Ni  Ni48  1  0.83575146  0.50229619  0.50216791  1
  Ni  Ni49  1  0.66945878  0.33451591  0.66989502  1
  Ni  Ni50  1  0.83565989  0.50042328  0.83570270  1
  Fe  Fe51  1  0.83685745  0.83571919  0.50001129  1
  Cr  Cr52  1  0.66864159  0.66943392  0.66900643  1
  Fe  Fe53  1  0.83572263  0.83466718  0.83572600  1
" 