2631,Ni47Fe23Cr29_19,-228.705260378295, 185.338982416017,Ni47Fe23Cr29,"# generated using pymatgen
 data_Cr17Fe12Ni25
_symmetry_space_group_name_H-M   'P 1'
_cell_length_a   7.46023802
_cell_length_b   7.46023802
_cell_length_c   10.55036978
_cell_angle_alpha   90.00000000
_cell_angle_beta   90.00000000
_cell_angle_gamma   90.00000000
_symmetry_Int_Tables_number   1
_chemical_formula_structural   Cr17Fe12Ni25
_chemical_formula_sum   'Cr17 Fe12 Ni25'
_cell_volume   587.18242617
_cell_formula_units_Z   1
loop_
 _symmetry_equiv_pos_site_id
 _symmetry_equiv_pos_as_xyz
  1  'x, y, z'
loop_
 _atom_site_type_symbol
 _atom_site_label
 _atom_site_symmetry_multiplicity
 _atom_site_fract_x
 _atom_site_fract_y
 _atom_site_fract_z
 _atom_site_occupancy
  Fe  Fe0  1  0.99868363  0.00052142  0.00374128  1
  Ni  Ni1  1  0.16559935  0.16431866  0.16747934  1
  Ni  Ni2  1  0.99912825  0.00082669  0.33276419  1
  Cr  Cr3  1  0.99683696  0.33365993  0.00200326  1
  Fe  Fe4  1  0.16644719  0.50342637  0.17041314  1
  Cr  Cr5  1  0.00132255  0.33364879  0.33499505  1
  Fe  Fe6  1  0.99925769  0.66660808  0.00295142  1
  Ni  Ni7  1  0.16274527  0.83460440  0.16687763  1
  Fe  Fe8  1  0.99918859  0.66972264  0.33468186  1
  Ni  Ni9  1  0.32972439  0.99973998  0.00145881  1
  Cr  Cr10  1  0.50065529  0.17031539  0.17176161  1
  Cr  Cr11  1  0.32996046  0.99800219  0.33739601  1
  Cr  Cr12  1  0.33224992  0.33435616  0.00507419  1
  Ni  Ni13  1  0.50324112  0.50030885  0.16903548  1
  Fe  Fe14  1  0.33344912  0.33384507  0.33439519  1
  Cr  Cr15  1  0.33670513  0.66917355  1.00024082  1
  Cr  Cr16  1  0.50262152  0.83201739  0.16933637  1
  Ni  Ni17  1  0.33191342  0.66627881  0.33393349  1
  Cr  Cr18  1  0.66642906  0.99941195  0.00214158  1
  Fe  Fe19  1  0.83371810  0.16637879  0.16929372  1
  Ni  Ni20  1  0.67083300  0.99958013  0.33679454  1
  Ni  Ni21  1  0.67001616  0.33667594  0.00157544  1
  Ni  Ni22  1  0.83081057  0.50389720  0.16784051  1
  Ni  Ni23  1  0.67109543  0.33440145  0.33265161  1
  Ni  Ni24  1  0.67008438  0.66409352  1.00033102  1
  Ni  Ni25  1  0.83731031  0.83186018  0.16899432  1
  Ni  Ni26  1  0.66807380  0.66705121  0.33305384  1
  Ni  Ni27  1  0.16366448  0.16643776  0.50165090  1
  Ni  Ni28  1  0.99854778  0.00082180  0.66455309  1
  Cr  Cr29  1  0.16221290  0.16518172  0.83248339  1
  Ni  Ni30  1  0.16909009  0.50353660  0.49949996  1
  Fe  Fe31  1  0.99761586  0.33380991  0.66317582  1
  Cr  Cr32  1  0.16692807  0.50163911  0.82938224  1
  Ni  Ni33  1  0.16216821  0.83236336  0.50120526  1
  Ni  Ni34  1  1.00009937  0.66622231  0.66299553  1
  Cr  Cr35  1  0.16437571  0.83349585  0.83352525  1
  Fe  Fe36  1  0.50359706  0.16602485  0.49851669  1
  Cr  Cr37  1  0.33631127  0.99624326  0.66416627  1
  Cr  Cr38  1  0.50168454  0.17059938  0.83371407  1
  Cr  Cr39  1  0.50288042  0.49864295  0.49602600  1
  Cr  Cr40  1  0.33412271  0.33466011  0.66311611  1
  Ni  Ni41  1  0.50377638  0.50119874  0.83503526  1
  Fe  Fe42  1  0.50105103  0.83228474  0.49814165  1
  Ni  Ni43  1  0.33306695  0.66726499  0.66598678  1
  Fe  Fe44  1  0.50119961  0.83447383  0.83381628  1
  Ni  Ni45  1  0.83257888  0.16474142  0.50069981  1
  Ni  Ni46  1  0.67079018  0.00215692  0.66392047  1
  Ni  Ni47  1  0.83121411  0.16701576  0.83226531  1
  Fe  Fe48  1  0.83662578  0.50093013  0.49897221  1
  Ni  Ni49  1  0.67237403  0.33347448  0.66732796  1
  Fe  Fe50  1  0.83335014  0.49847854  0.83353946  1
  Ni  Ni51  1  0.83471402  0.83568453  0.49801547  1
  Cr  Cr52  1  0.66668627  0.66832292  0.66741418  1
  Cr  Cr53  1  0.83581868  0.83421450  0.83428404  1
" 