7654,Ni47Fe24Cr27_2,-229.350981150595, 184.884639382128,Ni47Fe24Cr27,"# generated using pymatgen
 data_Cr16Fe13Ni25
_symmetry_space_group_name_H-M   'P 1'
_cell_length_a   7.45884748
_cell_length_b   7.45884748
_cell_length_c   10.54840326
_cell_angle_alpha   90.00000000
_cell_angle_beta   90.00000000
_cell_angle_gamma   90.00000000
_symmetry_Int_Tables_number   1
_chemical_formula_structural   Cr16Fe13Ni25
_chemical_formula_sum   'Cr16 Fe13 Ni25'
_cell_volume   586.85414607
_cell_formula_units_Z   1
loop_
 _symmetry_equiv_pos_site_id
 _symmetry_equiv_pos_as_xyz
  1  'x, y, z'
loop_
 _atom_site_type_symbol
 _atom_site_label
 _atom_site_symmetry_multiplicity
 _atom_site_fract_x
 _atom_site_fract_y
 _atom_site_fract_z
 _atom_site_occupancy
  Fe  Fe0  1  0.00371159  0.99683093  1.00021610  1
  Ni  Ni1  1  0.16996573  0.16538609  0.16605154  1
  Cr  Cr2  1  0.99968197  0.99995102  0.33141302  1
  Cr  Cr3  1  0.00277296  0.33636785  0.00065556  1
  Ni  Ni4  1  0.16743224  0.50178674  0.16868197  1
  Cr  Cr5  1  0.00232102  0.33624492  0.33492331  1
  Ni  Ni6  1  0.99948937  0.66708870  0.00116101  1
  Ni  Ni7  1  0.16697106  0.83419691  0.16575704  1
  Cr  Cr8  1  0.00108564  0.66558123  0.33276345  1
  Ni  Ni9  1  0.33439652  0.00103319  0.99966590  1
  Ni  Ni10  1  0.49960458  0.16673125  0.16810379  1
  Cr  Cr11  1  0.33653617  0.99979324  0.33359541  1
  Cr  Cr12  1  0.33238973  0.33068896  0.00064560  1
  Cr  Cr13  1  0.50199709  0.50062374  0.16815223  1
  Fe  Fe14  1  0.33586518  0.33506481  0.33471477  1
  Cr  Cr15  1  0.33283422  0.67028844  0.00127452  1
  Ni  Ni16  1  0.50181817  0.83429646  0.16880189  1
  Fe  Fe17  1  0.33461317  0.66721819  0.33521217  1
  Cr  Cr18  1  0.66290158  0.99795488  1.00038564  1
  Cr  Cr19  1  0.83216856  0.16586571  0.16747566  1
  Ni  Ni20  1  0.66437023  0.99953975  0.33481444  1
  Fe  Fe21  1  0.66621694  0.33432742  0.00112904  1
  Ni  Ni22  1  0.83213525  0.50343641  0.16658597  1
  Fe  Fe23  1  0.66626317  0.33363001  0.33531837  1
  Ni  Ni24  1  0.67022946  0.66967807  0.00125829  1
  Ni  Ni25  1  0.83316125  0.83142381  0.16591389  1
  Ni  Ni26  1  0.66601252  0.66792530  0.33388196  1
  Cr  Cr27  1  0.17048387  0.16576053  0.50219602  1
  Cr  Cr28  1  1.00054339  1.00051663  0.66795894  1
  Ni  Ni29  1  0.17053025  0.16512250  0.83300622  1
  Ni  Ni30  1  0.17026347  0.50233251  0.50274548  1
  Fe  Fe31  1  0.00308411  0.33581510  0.66716806  1
  Ni  Ni32  1  0.16737456  0.50227818  0.83058948  1
  Ni  Ni33  1  0.16850795  0.83125093  0.50186971  1
  Fe  Fe34  1  0.00364317  0.66759786  0.66777158  1
  Ni  Ni35  1  0.16644291  0.83403392  0.83351077  1
  Ni  Ni36  1  0.50248820  0.16913789  0.50135310  1
  Ni  Ni37  1  0.33743362  0.99999393  0.66884470  1
  Ni  Ni38  1  0.49859741  0.16663421  0.83206486  1
  Ni  Ni39  1  0.50040762  0.49973592  0.49990857  1
  Ni  Ni40  1  0.33341731  0.33468808  0.66730867  1
  Cr  Cr41  1  0.50000233  0.49976153  0.83411299  1
  Fe  Fe42  1  0.49824418  0.83293385  0.50102524  1
  Ni  Ni43  1  0.33384189  0.66700068  0.66558570  1
  Fe  Fe44  1  0.49930246  0.83468010  0.83269119  1
  Fe  Fe45  1  0.83098195  0.16934252  0.50110106  1
  Ni  Ni46  1  0.66398024  0.99995276  0.66628435  1
  Cr  Cr47  1  0.83245879  0.16567989  0.83299126  1
  Fe  Fe48  1  0.83235242  0.49992736  0.50146951  1
  Fe  Fe49  1  0.66364057  0.33240526  0.66530124  1
  Cr  Cr50  1  0.83264980  0.50345086  0.83310174  1
  Cr  Cr51  1  0.83340098  0.83450116  0.50025640  1
  Fe  Fe52  1  0.66399945  0.66938906  0.66641641  1
  Ni  Ni53  1  0.83466511  0.83280607  0.83449757  1
" 