4125,Ni47Fe24Cr27_17,-229.327772626111, 185.400028431099,Ni47Fe24Cr27,"# generated using pymatgen
 data_Cr16Fe13Ni25
_symmetry_space_group_name_H-M   'P 1'
_cell_length_a   7.45927468
_cell_length_b   7.45927468
_cell_length_c   10.54900741
_cell_angle_alpha   90.00000000
_cell_angle_beta   90.00000000
_cell_angle_gamma   90.00000000
_symmetry_Int_Tables_number   1
_chemical_formula_structural   Cr16Fe13Ni25
_chemical_formula_sum   'Cr16 Fe13 Ni25'
_cell_volume   586.95498711
_cell_formula_units_Z   1
loop_
 _symmetry_equiv_pos_site_id
 _symmetry_equiv_pos_as_xyz
  1  'x, y, z'
loop_
 _atom_site_type_symbol
 _atom_site_label
 _atom_site_symmetry_multiplicity
 _atom_site_fract_x
 _atom_site_fract_y
 _atom_site_fract_z
 _atom_site_occupancy
  Ni  Ni0  1  0.00329207  0.00481195  0.99970328  1
  Ni  Ni1  1  0.16832425  0.16716392  0.16407861  1
  Cr  Cr2  1  0.00193663  0.99976624  0.33516805  1
  Ni  Ni3  1  0.99948935  0.33010751  0.00151371  1
  Cr  Cr4  1  0.16828896  0.49662171  0.16719872  1
  Cr  Cr5  1  0.99910824  0.33558352  0.33535554  1
  Cr  Cr6  1  0.00082443  0.66696879  0.00289842  1
  Fe  Fe7  1  0.16785355  0.83406620  0.16594564  1
  Ni  Ni8  1  0.00096999  0.66580483  0.33535024  1
  Ni  Ni9  1  0.33383435  0.00187729  1.00039540  1
  Fe  Fe10  1  0.50094517  0.16749416  0.16616665  1
  Cr  Cr11  1  0.33389935  0.00173867  0.33321765  1
  Fe  Fe12  1  0.33509376  0.32987634  0.99854156  1
  Cr  Cr13  1  0.50032843  0.50083725  0.16779181  1
  Fe  Fe14  1  0.33351465  0.33458766  0.33699335  1
  Fe  Fe15  1  0.33519337  0.67089450  0.99898323  1
  Cr  Cr16  1  0.50264961  0.83439866  0.16697160  1
  Ni  Ni17  1  0.33168557  0.66716862  0.33576503  1
  Ni  Ni18  1  0.66425834  0.00295015  0.99939228  1
  Fe  Fe19  1  0.83345427  0.16785689  0.16514938  1
  Ni  Ni20  1  0.66622168  0.00214991  0.33527953  1
  Fe  Fe21  1  0.66770236  0.33187581  0.00053945  1
  Ni  Ni22  1  0.83282794  0.50078770  0.16599906  1
  Cr  Cr23  1  0.66788704  0.33336922  0.33584656  1
  Ni  Ni24  1  0.66427549  0.66580842  0.99943016  1
  Cr  Cr25  1  0.83152590  0.83481058  0.16923030  1
  Ni  Ni26  1  0.66867272  0.66544217  0.33592521  1
  Ni  Ni27  1  0.16815266  0.16951162  0.50175257  1
  Fe  Fe28  1  0.99995491  1.00014642  0.66651436  1
  Ni  Ni29  1  0.16795356  0.16560696  0.83517256  1
  Ni  Ni30  1  0.16967698  0.50010123  0.50055197  1
  Cr  Cr31  1  0.00095189  0.33419598  0.66514686  1
  Cr  Cr32  1  0.17051746  0.49754713  0.83347665  1
  Fe  Fe33  1  0.16553906  0.83121489  0.50177078  1
  Ni  Ni34  1  0.00149343  0.66871594  0.66354922  1
  Ni  Ni35  1  0.16775106  0.83700294  0.83468984  1
  Ni  Ni36  1  0.49960538  0.16808480  0.49948587  1
  Cr  Cr37  1  0.33355870  0.00115221  0.66756581  1
  Fe  Fe38  1  0.49936259  0.16726345  0.83407965  1
  Ni  Ni39  1  0.49762418  0.50071417  0.50045848  1
  Ni  Ni40  1  0.33481572  0.33290104  0.66533054  1
  Ni  Ni41  1  0.49925042  0.50107542  0.83455036  1
  Cr  Cr42  1  0.50566530  0.83266436  0.50013807  1
  Fe  Fe43  1  0.33497460  0.66493863  0.66685098  1
  Fe  Fe44  1  0.49932330  0.83294055  0.83502157  1
  Ni  Ni45  1  0.83340357  0.16195281  0.50203934  1
  Ni  Ni46  1  0.66588207  0.00058575  0.66656185  1
  Fe  Fe47  1  0.83487831  0.16630272  0.83487680  1
  Ni  Ni48  1  0.83405009  0.50546592  0.49984145  1
  Cr  Cr49  1  0.66492981  0.33406426  0.66576906  1
  Cr  Cr50  1  0.83200191  0.50124859  0.83536567  1
  Ni  Ni51  1  0.83355690  0.83379668  0.50103963  1
  Ni  Ni52  1  0.66697194  0.66698655  0.66627299  1
  Cr  Cr53  1  0.83223203  0.83713564  0.83143193  1
" 