8547,Ni47Fe23Cr29_13,-228.615643579679, 185.477600694623,Ni47Fe23Cr29,"# generated using pymatgen
 data_Cr17Fe12Ni25
_symmetry_space_group_name_H-M   'P 1'
_cell_length_a   7.46275863
_cell_length_b   7.46275863
_cell_length_c   10.55393447
_cell_angle_alpha   90.00000000
_cell_angle_beta   90.00000000
_cell_angle_gamma   90.00000000
_symmetry_Int_Tables_number   1
_chemical_formula_structural   Cr17Fe12Ni25
_chemical_formula_sum   'Cr17 Fe12 Ni25'
_cell_volume   587.77780646
_cell_formula_units_Z   1
loop_
 _symmetry_equiv_pos_site_id
 _symmetry_equiv_pos_as_xyz
  1  'x, y, z'
loop_
 _atom_site_type_symbol
 _atom_site_label
 _atom_site_symmetry_multiplicity
 _atom_site_fract_x
 _atom_site_fract_y
 _atom_site_fract_z
 _atom_site_occupancy
  Ni  Ni0  1  0.99893806  0.00127012  0.00128612  1
  Ni  Ni1  1  0.16767822  0.16378007  0.16714645  1
  Fe  Fe2  1  0.00155477  0.00136738  0.33084088  1
  Ni  Ni3  1  0.99836508  0.32944395  0.00148635  1
  Cr  Cr4  1  0.16930392  0.50177910  0.16538874  1
  Cr  Cr5  1  0.00103076  0.33050343  0.33464533  1
  Fe  Fe6  1  0.00153693  0.67143734  0.00065943  1
  Ni  Ni7  1  0.16944831  0.83607420  0.16523832  1
  Cr  Cr8  1  0.99953318  0.66903737  0.33197694  1
  Ni  Ni9  1  0.33569929  0.99822255  0.00115656  1
  Ni  Ni10  1  0.50166353  0.16469887  0.16781325  1
  Fe  Fe11  1  0.33434445  0.00221470  0.33153448  1
  Cr  Cr12  1  0.33586803  0.33049307  0.00108873  1
  Fe  Fe13  1  0.49908992  0.49974698  0.16858976  1
  Ni  Ni14  1  0.33586836  0.33029835  0.33333520  1
  Ni  Ni15  1  0.33612155  0.67047980  0.00058653  1
  Ni  Ni16  1  0.49872333  0.83622817  0.16807635  1
  Ni  Ni17  1  0.33637957  0.66882035  0.33159606  1
  Ni  Ni18  1  0.66645759  0.00035492  0.00074966  1
  Ni  Ni19  1  0.83142526  0.16471872  0.16567315  1
  Fe  Fe20  1  0.66514723  0.00230653  0.33126328  1
  Fe  Fe21  1  0.66622175  0.32834686  0.00101514  1
  Cr  Cr22  1  0.83199850  0.49757202  0.16576503  1
  Ni  Ni23  1  0.66439819  0.33102273  0.33216660  1
  Cr  Cr24  1  0.66414754  0.67000346  1.00023322  1
  Ni  Ni25  1  0.83319013  0.83802976  0.16553240  1
  Cr  Cr26  1  0.66649233  0.66869815  0.33350703  1
  Ni  Ni27  1  0.16897646  0.16614303  0.50063787  1
  Ni  Ni28  1  0.99776322  0.00280751  0.66844047  1
  Cr  Cr29  1  0.16498520  0.16476947  0.83339397  1
  Cr  Cr30  1  0.16852148  0.49912009  0.50131084  1
  Ni  Ni31  1  0.99952472  0.33111188  0.66500465  1
  Cr  Cr32  1  0.16786987  0.50178002  0.83378708  1
  Cr  Cr33  1  0.17018633  0.83649026  0.49907854  1
  Cr  Cr34  1  0.99918294  0.66844020  0.66752717  1
  Ni  Ni35  1  0.16926839  0.83350432  0.83605682  1
  Fe  Fe36  1  0.49975563  0.16655861  0.49952309  1
  Cr  Cr37  1  0.33516939  0.00166569  0.66781206  1
  Ni  Ni38  1  0.50462240  0.16489848  0.83308285  1
  Cr  Cr39  1  0.50071796  0.50035049  0.50099301  1
  Ni  Ni40  1  0.33487636  0.33300866  0.66644409  1
  Fe  Fe41  1  0.49940736  0.49963850  0.83205805  1
  Fe  Fe42  1  0.50011771  0.83534831  0.50071948  1
  Ni  Ni43  1  0.33752627  0.66723428  0.66886311  1
  Ni  Ni44  1  0.49988672  0.83455263  0.83253351  1
  Cr  Cr45  1  0.83177098  0.16655255  0.50072888  1
  Ni  Ni46  1  0.66675554  0.99969569  0.66825809  1
  Ni  Ni47  1  0.83040832  0.16630424  0.83395247  1
  Ni  Ni48  1  0.82988710  0.49827548  0.50203748  1
  Fe  Fe49  1  0.66574948  0.33090505  0.66743495  1
  Cr  Cr50  1  0.83282872  0.49641596  0.83351515  1
  Cr  Cr51  1  0.83064029  0.83589674  0.50127338  1
  Fe  Fe52  1  0.66486069  0.66812619  0.66830794  1
  Fe  Fe53  1  0.83363205  0.83897413  0.83439141  1
" 