885,Ni47Fe35Cr17_5,-233.612958712037, 202.160027587022,Ni47Fe35Cr17,"# generated using pymatgen
 data_Cr10Fe19Ni25
_symmetry_space_group_name_H-M   'P 1'
_cell_length_a   7.43400989
_cell_length_b   7.43400989
_cell_length_c   10.51327761
_cell_angle_alpha   90.00000000
_cell_angle_beta   90.00000000
_cell_angle_gamma   90.00000000
_symmetry_Int_Tables_number   1
_chemical_formula_structural   Cr10Fe19Ni25
_chemical_formula_sum   'Cr10 Fe19 Ni25'
_cell_volume   581.01106285
_cell_formula_units_Z   1
loop_
 _symmetry_equiv_pos_site_id
 _symmetry_equiv_pos_as_xyz
  1  'x, y, z'
loop_
 _atom_site_type_symbol
 _atom_site_label
 _atom_site_symmetry_multiplicity
 _atom_site_fract_x
 _atom_site_fract_y
 _atom_site_fract_z
 _atom_site_occupancy
  Fe  Fe0  1  0.00334136  0.00250560  0.00255251  1
  Ni  Ni1  1  0.16986581  0.17149154  0.16859392  1
  Ni  Ni2  1  1.00198564  1.00092113  0.33678497  1
  Ni  Ni3  1  0.00609766  0.33815405  0.00238354  1
  Ni  Ni4  1  0.16919645  0.49885794  0.16917916  1
  Ni  Ni5  1  0.00260486  0.33767860  0.33495281  1
  Ni  Ni6  1  1.00130338  0.66709945  1.00176822  1
  Cr  Cr7  1  0.16917892  0.83694640  0.16961791  1
  Fe  Fe8  1  1.00110944  0.66823562  0.33600462  1
  Fe  Fe9  1  0.33614180  0.00283124  1.00113839  1
  Fe  Fe10  1  0.50013056  0.16800681  0.17018513  1
  Ni  Ni11  1  0.33658572  0.00298771  0.33420067  1
  Ni  Ni12  1  0.33287142  0.33461044  1.00175762  1
  Fe  Fe13  1  0.50147483  0.50288062  0.16937973  1
  Ni  Ni14  1  0.33525527  0.33489722  0.33433616  1
  Fe  Fe15  1  0.33675828  0.66787482  1.00127511  1
  Ni  Ni16  1  0.50445633  0.83493824  0.16891792  1
  Fe  Fe17  1  0.33501658  0.66820654  0.33463895  1
  Ni  Ni18  1  0.66590258  0.99837290  0.00250333  1
  Cr  Cr19  1  0.83806634  0.16842151  0.16952333  1
  Ni  Ni20  1  0.66809385  1.00162152  0.33638991  1
  Cr  Cr21  1  0.66810870  0.33738526  1.00193181  1
  Ni  Ni22  1  0.83582496  0.50371167  0.16997618  1
  Ni  Ni23  1  0.66880581  0.33564528  0.33622871  1
  Ni  Ni24  1  0.66944381  0.67086331  0.00326503  1
  Ni  Ni25  1  0.83246554  0.83427464  0.16868795  1
  Fe  Fe26  1  0.67053875  0.66940472  0.33354133  1
  Cr  Cr27  1  0.16883114  0.16846460  0.50035707  1
  Fe  Fe28  1  0.00306475  0.99987942  0.66791526  1
  Ni  Ni29  1  0.17058280  0.16826274  0.83725560  1
  Fe  Fe30  1  0.16775671  0.50469316  0.50085433  1
  Cr  Cr31  1  1.00126280  0.33850736  0.66962657  1
  Fe  Fe32  1  0.16918788  0.50335644  0.83702304  1
  Fe  Fe33  1  0.16724804  0.83446410  0.50280676  1
  Ni  Ni34  1  0.00407698  0.66947371  0.66766981  1
  Ni  Ni35  1  0.17115878  0.83657462  0.83387285  1
  Fe  Fe36  1  0.50407633  0.16851490  0.50184805  1
  Ni  Ni37  1  0.33588622  1.00181089  0.67080620  1
  Fe  Fe38  1  0.50003198  0.16810226  0.83463326  1
  Cr  Cr39  1  0.50140036  0.50039222  0.50112201  1
  Fe  Fe40  1  0.33709271  0.33566871  0.67059013  1
  Ni  Ni41  1  0.50121339  0.50277580  0.83538258  1
  Cr  Cr42  1  0.50204441  0.83649251  0.50157307  1
  Fe  Fe43  1  0.33308899  0.66904493  0.67074900  1
  Ni  Ni44  1  0.49971510  0.83471543  0.83609341  1
  Fe  Fe45  1  0.83291624  0.16800779  0.50097859  1
  Fe  Fe46  1  0.66837286  0.00388560  0.66812877  1
  Cr  Cr47  1  0.83706511  0.16944738  0.83534147  1
  Fe  Fe48  1  0.83682538  0.50220476  0.50116993  1
  Ni  Ni49  1  0.66759589  0.33449451  0.66893818  1
  Ni  Ni50  1  0.83487854  0.50219819  0.83579827  1
  Ni  Ni51  1  0.83746639  0.83691498  0.50132715  1
  Cr  Cr52  1  0.67087041  0.66789481  0.67097171  1
  Cr  Cr53  1  0.83565671  0.83492498  0.83744353  1
" 