1700,Ni47Fe24Cr27_3,-229.140882665493, 184.149332454221,Ni47Fe24Cr27,"# generated using pymatgen
 data_Cr16Fe13Ni25
_symmetry_space_group_name_H-M   'P 1'
_cell_length_a   7.46195270
_cell_length_b   7.46195270
_cell_length_c   10.55279472
_cell_angle_alpha   90.00000000
_cell_angle_beta   90.00000000
_cell_angle_gamma   90.00000000
_symmetry_Int_Tables_number   1
_chemical_formula_structural   Cr16Fe13Ni25
_chemical_formula_sum   'Cr16 Fe13 Ni25'
_cell_volume   587.58739936
_cell_formula_units_Z   1
loop_
 _symmetry_equiv_pos_site_id
 _symmetry_equiv_pos_as_xyz
  1  'x, y, z'
loop_
 _atom_site_type_symbol
 _atom_site_label
 _atom_site_symmetry_multiplicity
 _atom_site_fract_x
 _atom_site_fract_y
 _atom_site_fract_z
 _atom_site_occupancy
  Ni  Ni0  1  0.00113897  0.99829094  0.00079371  1
  Ni  Ni1  1  0.16807039  0.16598752  0.16632128  1
  Fe  Fe2  1  0.00395104  0.99834790  0.33198380  1
  Fe  Fe3  1  0.00288022  0.33419493  1.00010158  1
  Ni  Ni4  1  0.16737247  0.50022495  0.16771731  1
  Ni  Ni5  1  0.00371944  0.33455559  0.33227684  1
  Ni  Ni6  1  0.00126561  0.66742807  0.00078707  1
  Ni  Ni7  1  0.16781072  0.83465022  0.16765578  1
  Ni  Ni8  1  0.00368995  0.66759067  0.33264905  1
  Ni  Ni9  1  0.33308968  0.00189211  0.00166813  1
  Fe  Fe10  1  0.49618246  0.16629166  0.16678594  1
  Ni  Ni11  1  0.33320184  0.00073492  0.33169643  1
  Ni  Ni12  1  0.33176794  0.33152947  0.00173123  1
  Cr  Cr13  1  0.49868406  0.50219806  0.16766287  1
  Fe  Fe14  1  0.33086181  0.33525862  0.33360210  1
  Cr  Cr15  1  0.33113434  0.66783668  0.99872953  1
  Fe  Fe16  1  0.49760346  0.83517598  0.16855404  1
  Ni  Ni17  1  0.33072139  0.66886892  0.33497326  1
  Cr  Cr18  1  0.66579719  1.00015263  0.99984839  1
  Cr  Cr19  1  0.83681529  0.16668980  0.16706521  1
  Fe  Fe20  1  0.66592735  0.99826760  0.33267577  1
  Cr  Cr21  1  0.66590427  0.33226635  0.99612735  1
  Cr  Cr22  1  0.83510818  0.50136080  0.16740606  1
  Cr  Cr23  1  0.66472759  0.33159014  0.33604525  1
  Cr  Cr24  1  0.66927119  0.66855435  0.99850600  1
  Fe  Fe25  1  0.83762299  0.83332862  0.16768574  1
  Ni  Ni26  1  0.66651374  0.66894517  0.33199998  1
  Cr  Cr27  1  0.16678271  0.16515443  0.50050525  1
  Fe  Fe28  1  0.99940111  0.00040478  0.66866752  1
  Cr  Cr29  1  0.16759470  0.16690962  0.83549623  1
  Fe  Fe30  1  0.16729559  0.50210693  0.49994529  1
  Ni  Ni31  1  0.00082193  0.33682311  0.66909075  1
  Fe  Fe32  1  0.16572090  0.49924185  0.83358754  1
  Ni  Ni33  1  0.16835331  0.83383336  0.50114941  1
  Ni  Ni34  1  0.00258853  0.66591302  0.66707581  1
  Cr  Cr35  1  0.16825857  0.83506379  0.83143520  1
  Fe  Fe36  1  0.49880402  0.16636674  0.50250484  1
  Ni  Ni37  1  0.33560373  0.00100689  0.66757456  1
  Ni  Ni38  1  0.49878261  0.16668997  0.83207363  1
  Ni  Ni39  1  0.49797097  0.49975621  0.50074162  1
  Ni  Ni40  1  0.33422331  0.33334677  0.66565464  1
  Fe  Fe41  1  0.49846258  0.49810809  0.83190298  1
  Cr  Cr42  1  0.49782770  0.83216704  0.50029078  1
  Fe  Fe43  1  0.33286884  0.66487967  0.66630347  1
  Ni  Ni44  1  0.49929121  0.83532259  0.83311850  1
  Cr  Cr45  1  0.83474603  0.16696696  0.50313567  1
  Ni  Ni46  1  0.66510812  0.00241750  0.66926500  1
  Ni  Ni47  1  0.83391243  0.16781083  0.83152436  1
  Cr  Cr48  1  0.83277631  0.49998325  0.49903239  1
  Ni  Ni49  1  0.66560815  0.33183886  0.66843742  1
  Ni  Ni50  1  0.83548209  0.49924382  0.83363841  1
  Cr  Cr51  1  0.83607798  0.83410829  0.49922289  1
  Cr  Cr52  1  0.66850164  0.66678859  0.67028957  1
  Ni  Ni53  1  0.83473653  0.83396957  0.83372174  1
" 