1967,Ni47Fe24Cr27_13,-229.270333971356, 187.439843053923,Ni47Fe24Cr27,"# generated using pymatgen
 data_Cr16Fe13Ni25
_symmetry_space_group_name_H-M   'P 1'
_cell_length_a   7.45526874
_cell_length_b   7.45526874
_cell_length_c   10.54334216
_cell_angle_alpha   90.00000000
_cell_angle_beta   90.00000000
_cell_angle_gamma   90.00000000
_symmetry_Int_Tables_number   1
_chemical_formula_structural   Cr16Fe13Ni25
_chemical_formula_sum   'Cr16 Fe13 Ni25'
_cell_volume   586.00983703
_cell_formula_units_Z   1
loop_
 _symmetry_equiv_pos_site_id
 _symmetry_equiv_pos_as_xyz
  1  'x, y, z'
loop_
 _atom_site_type_symbol
 _atom_site_label
 _atom_site_symmetry_multiplicity
 _atom_site_fract_x
 _atom_site_fract_y
 _atom_site_fract_z
 _atom_site_occupancy
  Ni  Ni0  1  1.00061917  0.00158016  0.00087744  1
  Ni  Ni1  1  0.16609135  0.16646042  0.16742485  1
  Fe  Fe2  1  0.99990068  1.00053082  0.33418980  1
  Fe  Fe3  1  0.00083239  0.33379012  0.00204850  1
  Ni  Ni4  1  0.16684587  0.50215278  0.16652801  1
  Cr  Cr5  1  1.00031612  0.33284208  0.33211029  1
  Ni  Ni6  1  0.00201185  0.66852974  0.00195989  1
  Cr  Cr7  1  0.16786016  0.83306912  0.16664216  1
  Ni  Ni8  1  0.99942701  0.66951672  0.33212003  1
  Fe  Fe9  1  0.33317794  1.00060570  1.00004925  1
  Fe  Fe10  1  0.50095846  0.16776514  0.16741508  1
  Fe  Fe11  1  0.33298817  1.00022897  0.33307448  1
  Cr  Cr12  1  0.33387927  0.33443100  0.00188797  1
  Ni  Ni13  1  0.50113955  0.50261738  0.16987386  1
  Cr  Cr14  1  0.33519683  0.33520538  0.33327412  1
  Ni  Ni15  1  0.33286939  0.66792796  0.00183818  1
  Fe  Fe16  1  0.50039968  0.83289699  0.16772317  1
  Ni  Ni17  1  0.33575249  0.66677535  0.33219828  1
  Fe  Fe18  1  0.66788287  0.00161057  0.00200907  1
  Ni  Ni19  1  0.83464468  0.16728891  0.16614931  1
  Cr  Cr20  1  0.66998105  1.00062052  0.33234525  1
  Cr  Cr21  1  0.66768322  0.33264613  0.00085096  1
  Ni  Ni22  1  0.83438482  0.50083344  0.16792042  1
  Ni  Ni23  1  0.66684110  0.33511102  0.33281157  1
  Cr  Cr24  1  0.66725393  0.66712094  0.00218770  1
  Fe  Fe25  1  0.83517583  0.83316006  0.16768745  1
  Ni  Ni26  1  0.66719088  0.66683544  0.33331624  1
  Fe  Fe27  1  0.16571302  0.16608929  0.50311374  1
  Ni  Ni28  1  0.00197687  0.00194664  0.66600575  1
  Ni  Ni29  1  0.16705501  0.16561622  0.83249071  1
  Cr  Cr30  1  0.16903489  0.50123283  0.50140987  1
  Ni  Ni31  1  1.00009986  0.33152156  0.66894763  1
  Cr  Cr32  1  0.16661745  0.50150904  0.83432378  1
  Cr  Cr33  1  0.16599292  0.83503064  0.50190805  1
  Ni  Ni34  1  1.00070709  0.66890003  0.66828878  1
  Fe  Fe35  1  0.16818175  0.83557462  0.83389445  1
  Cr  Cr36  1  0.50065250  0.17019147  0.50150253  1
  Ni  Ni37  1  0.33102296  0.00244890  0.66930901  1
  Ni  Ni38  1  0.49970857  0.16811358  0.83380911  1
  Ni  Ni39  1  0.50165188  0.50126092  0.50199943  1
  Ni  Ni40  1  0.33571718  0.33384063  0.66778468  1
  Ni  Ni41  1  0.50098256  0.49978253  0.83049619  1
  Cr  Cr42  1  0.50047119  0.83112456  0.50092079  1
  Ni  Ni43  1  0.33461222  0.66608052  0.66833228  1
  Cr  Cr44  1  0.49804164  0.83439294  0.83414891  1
  Ni  Ni45  1  0.83591019  0.16630787  0.50219729  1
  Cr  Cr46  1  0.66945020  0.00235788  0.66783898  1
  Fe  Fe47  1  0.83523447  0.16915684  0.83364257  1
  Cr  Cr48  1  0.83182685  0.50104727  0.50195438  1
  Ni  Ni49  1  0.66655019  0.33510927  0.66851063  1
  Fe  Fe50  1  0.83392076  0.49880493  0.83272388  1
  Ni  Ni51  1  0.83624546  0.83480135  0.49979962  1
  Fe  Fe52  1  0.66718595  0.66428199  0.66691034  1
  Cr  Cr53  1  0.83679001  0.83398120  0.83388167  1
" 