6287,Ni47Fe24Cr27_0,-229.107647976539, 182.698823684528,Ni47Fe24Cr27,"# generated using pymatgen
 data_Cr16Fe13Ni25
_symmetry_space_group_name_H-M   'P 1'
_cell_length_a   7.46245686
_cell_length_b   7.46245686
_cell_length_c   10.55350771
_cell_angle_alpha   90.00000000
_cell_angle_beta   90.00000000
_cell_angle_gamma   90.00000000
_symmetry_Int_Tables_number   1
_chemical_formula_structural   Cr16Fe13Ni25
_chemical_formula_sum   'Cr16 Fe13 Ni25'
_cell_volume   587.70650707
_cell_formula_units_Z   1
loop_
 _symmetry_equiv_pos_site_id
 _symmetry_equiv_pos_as_xyz
  1  'x, y, z'
loop_
 _atom_site_type_symbol
 _atom_site_label
 _atom_site_symmetry_multiplicity
 _atom_site_fract_x
 _atom_site_fract_y
 _atom_site_fract_z
 _atom_site_occupancy
  Ni  Ni0  1  0.99565504  0.00084206  0.00225652  1
  Ni  Ni1  1  0.16654846  0.16681090  0.16744827  1
  Cr  Cr2  1  0.99783609  0.00217082  0.33329251  1
  Ni  Ni3  1  0.99869053  0.33368466  0.00332996  1
  Fe  Fe4  1  0.16744353  0.49937383  0.16675176  1
  Fe  Fe5  1  0.00210006  0.33373432  0.33227917  1
  Ni  Ni6  1  0.99955071  0.66659154  0.00259468  1
  Fe  Fe7  1  0.16712819  0.83349769  0.16633808  1
  Cr  Cr8  1  0.00145827  0.66595323  0.33240840  1
  Cr  Cr9  1  0.33594159  0.99971762  0.00280909  1
  Ni  Ni10  1  0.50080030  0.16584231  0.16789260  1
  Fe  Fe11  1  0.33286812  0.99976185  0.33232887  1
  Cr  Cr12  1  0.33530279  0.33734510  0.00054479  1
  Fe  Fe13  1  0.50157494  0.49958863  0.16723613  1
  Ni  Ni14  1  0.33355906  0.33414356  0.33249962  1
  Ni  Ni15  1  0.33491391  0.66567527  0.00199659  1
  Ni  Ni16  1  0.49914298  0.83184273  0.16837695  1
  Ni  Ni17  1  0.33449359  0.66581040  0.33294210  1
  Ni  Ni18  1  0.66950828  0.99997279  0.00127154  1
  Ni  Ni19  1  0.83355917  0.16989117  0.16602487  1
  Fe  Fe20  1  0.66552888  0.00088753  0.33150220  1
  Ni  Ni21  1  0.66827939  0.33360480  0.00223436  1
  Ni  Ni22  1  0.83316494  0.50069167  0.16670273  1
  Fe  Fe23  1  0.66790919  0.33314947  0.33101337  1
  Ni  Ni24  1  0.66613242  0.66761149  0.00196892  1
  Fe  Fe25  1  0.83162463  0.83487077  0.16539448  1
  Fe  Fe26  1  0.66541443  0.66680510  0.33091467  1
  Ni  Ni27  1  0.16704580  0.16772700  0.49914544  1
  Cr  Cr28  1  0.99843401  0.00059328  0.66664169  1
  Cr  Cr29  1  0.16353507  0.16805680  0.83404601  1
  Fe  Fe30  1  0.16745893  0.49811357  0.49952574  1
  Ni  Ni31  1  0.00101567  0.33393488  0.66413728  1
  Fe  Fe32  1  0.16601928  0.49982076  0.83434379  1
  Ni  Ni33  1  0.16884414  0.83314352  0.49863077  1
  Ni  Ni34  1  0.00096012  0.66528217  0.66637872  1
  Cr  Cr35  1  0.16518875  0.83225567  0.83693105  1
  Cr  Cr36  1  0.49987245  0.16851803  0.49879500  1
  Cr  Cr37  1  0.33389307  1.00008648  0.66457736  1
  Cr  Cr38  1  0.50259031  0.16890694  0.83414014  1
  Cr  Cr39  1  0.50256667  0.50074646  0.49966195  1
  Ni  Ni40  1  0.33264182  0.33626375  0.66706978  1
  Ni  Ni41  1  0.50292717  0.50290296  0.83471506  1
  Fe  Fe42  1  0.50027783  0.83347953  0.49768215  1
  Cr  Cr43  1  0.33363357  0.66520722  0.66727241  1
  Ni  Ni44  1  0.50177846  0.82935985  0.83419576  1
  Ni  Ni45  1  0.83451005  0.16970981  0.49924419  1
  Cr  Cr46  1  0.66812549  1.00008071  0.66844977  1
  Ni  Ni47  1  0.83453824  0.16979273  0.83540455  1
  Cr  Cr48  1  0.83267331  0.49869818  0.50069004  1
  Ni  Ni49  1  0.66742985  0.33381566  0.66738747  1
  Cr  Cr50  1  0.83357144  0.49994485  0.83284351  1
  Cr  Cr51  1  0.83256565  0.83057418  0.50111799  1
  Ni  Ni52  1  0.66655700  0.66677089  0.66754446  1
  Fe  Fe53  1  0.83182621  0.83295264  0.83568447  1
" 