7685,Ni47Fe35Cr17_7,-234.275656489442, 205.468074243829,Ni47Fe35Cr17,"# generated using pymatgen
 data_Cr10Fe19Ni25
_symmetry_space_group_name_H-M   'P 1'
_cell_length_a   7.43759585
_cell_length_b   7.43759585
_cell_length_c   10.51834893
_cell_angle_alpha   90.00000000
_cell_angle_beta   90.00000000
_cell_angle_gamma   90.00000000
_symmetry_Int_Tables_number   1
_chemical_formula_structural   Cr10Fe19Ni25
_chemical_formula_sum   'Cr10 Fe19 Ni25'
_cell_volume   581.85225946
_cell_formula_units_Z   1
loop_
 _symmetry_equiv_pos_site_id
 _symmetry_equiv_pos_as_xyz
  1  'x, y, z'
loop_
 _atom_site_type_symbol
 _atom_site_label
 _atom_site_symmetry_multiplicity
 _atom_site_fract_x
 _atom_site_fract_y
 _atom_site_fract_z
 _atom_site_occupancy
  Cr  Cr0  1  0.00424183  1.00130439  1.00176657  1
  Ni  Ni1  1  0.16882971  0.16574488  0.17025748  1
  Ni  Ni2  1  0.00287149  1.00193746  0.33534575  1
  Cr  Cr3  1  0.00216453  0.33477405  1.00112635  1
  Cr  Cr4  1  0.17253525  0.50462279  0.16932514  1
  Cr  Cr5  1  1.00089609  0.33396643  0.33661372  1
  Cr  Cr6  1  0.00261701  0.67006250  1.00078334  1
  Ni  Ni7  1  0.17063872  0.83604470  0.16998531  1
  Ni  Ni8  1  1.00069657  0.66976718  0.33453030  1
  Fe  Fe9  1  0.33692877  0.00232914  1.00150728  1
  Fe  Fe10  1  0.50050734  0.16867081  0.16819518  1
  Ni  Ni11  1  0.33627684  0.00264085  0.33429271  1
  Ni  Ni12  1  0.33820373  0.33364423  1.00099635  1
  Fe  Fe13  1  0.50213507  0.50097358  0.16896711  1
  Fe  Fe14  1  0.33620243  0.33430791  0.33491796  1
  Ni  Ni15  1  0.33698673  0.67002254  1.00065868  1
  Fe  Fe16  1  0.50037864  0.83621191  0.16913943  1
  Ni  Ni17  1  0.33726068  0.67108056  0.33469438  1
  Fe  Fe18  1  0.66529021  0.00282476  1.00172477  1
  Ni  Ni19  1  0.83196528  0.16723643  0.16878259  1
  Fe  Fe20  1  0.66914956  1.00178455  0.33628907  1
  Ni  Ni21  1  0.66525736  0.33523647  0.00297891  1
  Fe  Fe22  1  0.83361662  0.50135088  0.16933152  1
  Ni  Ni23  1  0.66750942  0.33512065  0.33401905  1
  Cr  Cr24  1  0.66735832  0.66840655  1.00086473  1
  Fe  Fe25  1  0.83610330  0.83683313  0.17137055  1
  Ni  Ni26  1  0.66825563  0.66825078  0.33529964  1
  Fe  Fe27  1  0.16927048  0.16904963  0.50316520  1
  Ni  Ni28  1  0.00309863  0.00289902  0.66844073  1
  Ni  Ni29  1  0.17044510  0.16669156  0.83321860  1
  Ni  Ni30  1  0.17001113  0.50264746  0.50204951  1
  Ni  Ni31  1  0.00221633  0.33497829  0.66812892  1
  Fe  Fe32  1  0.17245199  0.50007671  0.83460824  1
  Cr  Cr33  1  0.16992251  0.83508240  0.49998083  1
  Cr  Cr34  1  1.00192178  0.66773939  0.67095586  1
  Ni  Ni35  1  0.17176391  0.83594451  0.83562637  1
  Fe  Fe36  1  0.50183716  0.16763968  0.50269337  1
  Ni  Ni37  1  0.33664836  0.00231214  0.67032544  1
  Ni  Ni38  1  0.50206270  0.16891691  0.83577363  1
  Cr  Cr39  1  0.50123112  0.50277669  0.50213411  1
  Fe  Fe40  1  0.33489405  0.33317159  0.67027760  1
  Ni  Ni41  1  0.50228726  0.50172057  0.83507068  1
  Fe  Fe42  1  0.50289311  0.83733733  0.50202708  1
  Fe  Fe43  1  0.33640676  0.66932510  0.67003507  1
  Ni  Ni44  1  0.49975114  0.83526578  0.83388840  1
  Ni  Ni45  1  0.83358117  0.16747464  0.50290937  1
  Ni  Ni46  1  0.66586247  0.00204539  0.66791515  1
  Cr  Cr47  1  0.83321046  0.16903875  0.83448973  1
  Fe  Fe48  1  0.83551998  0.50124849  0.50238886  1
  Ni  Ni49  1  0.66796220  0.33537529  0.66927074  1
  Ni  Ni50  1  0.83200093  0.50036464  0.83379606  1
  Fe  Fe51  1  0.83417305  0.83597446  0.50119863  1
  Fe  Fe52  1  0.66773367  0.66990544  0.66971274  1
  Fe  Fe53  1  0.83288133  0.83676395  0.83307114  1
" 