8206,Ni47Fe35Cr17_1,-233.749075933131, 201.267909256389,Ni47Fe35Cr17,"# generated using pymatgen
 data_Cr10Fe19Ni25
_symmetry_space_group_name_H-M   'P 1'
_cell_length_a   7.43988790
_cell_length_b   7.43988790
_cell_length_c   10.52159038
_cell_angle_alpha   90.00000000
_cell_angle_beta   90.00000000
_cell_angle_gamma   90.00000000
_symmetry_Int_Tables_number   1
_chemical_formula_structural   Cr10Fe19Ni25
_chemical_formula_sum   'Cr10 Fe19 Ni25'
_cell_volume   582.39035544
_cell_formula_units_Z   1
loop_
 _symmetry_equiv_pos_site_id
 _symmetry_equiv_pos_as_xyz
  1  'x, y, z'
loop_
 _atom_site_type_symbol
 _atom_site_label
 _atom_site_symmetry_multiplicity
 _atom_site_fract_x
 _atom_site_fract_y
 _atom_site_fract_z
 _atom_site_occupancy
  Cr  Cr0  1  0.00372846  1.00080665  0.00325189  1
  Ni  Ni1  1  0.17103001  0.16999463  0.16945330  1
  Cr  Cr2  1  0.00420250  0.00431702  0.33566413  1
  Cr  Cr3  1  1.00145419  0.33592510  0.00501342  1
  Fe  Fe4  1  0.17187458  0.50196445  0.16828614  1
  Fe  Fe5  1  0.00309674  0.33423890  0.33487017  1
  Fe  Fe6  1  0.00229154  0.66753598  1.00060314  1
  Ni  Ni7  1  0.17239572  0.83417736  0.16756069  1
  Cr  Cr8  1  0.00331495  0.66860492  0.33521412  1
  Fe  Fe9  1  0.33729283  0.99977374  0.00456708  1
  Ni  Ni10  1  0.50018953  0.16857636  0.16935605  1
  Ni  Ni11  1  0.33556569  1.00149081  0.33412452  1
  Fe  Fe12  1  0.33564071  0.33802745  0.00403050  1
  Ni  Ni13  1  0.50015186  0.50277638  0.16961713  1
  Ni  Ni14  1  0.33745840  0.33479961  0.33446448  1
  Ni  Ni15  1  0.33660104  0.66947362  1.00168384  1
  Ni  Ni16  1  0.50002714  0.83409838  0.16823365  1
  Ni  Ni17  1  0.33730940  0.66920063  0.33520552  1
  Fe  Fe18  1  0.66599112  0.99865414  0.00310392  1
  Ni  Ni19  1  0.83427753  0.16991934  0.17063087  1
  Fe  Fe20  1  0.66458780  0.00324509  0.33621910  1
  Cr  Cr21  1  0.66748827  0.33783405  0.00265242  1
  Fe  Fe22  1  0.83315433  0.50053749  0.16886999  1
  Ni  Ni23  1  0.66838726  0.33532935  0.33457508  1
  Ni  Ni24  1  0.66593302  0.66787485  1.00109792  1
  Cr  Cr25  1  0.83228650  0.83401520  0.16773105  1
  Fe  Fe26  1  0.66432020  0.66791053  0.33562499  1
  Ni  Ni27  1  0.16933791  0.17034445  0.50267407  1
  Ni  Ni28  1  0.00301792  1.00104923  0.66690589  1
  Cr  Cr29  1  0.17094420  0.16996274  0.83336544  1
  Fe  Fe30  1  0.17011435  0.50097787  0.50280202  1
  Fe  Fe31  1  0.00229619  0.33647428  0.66728496  1
  Ni  Ni32  1  0.16977731  0.50490817  0.83475468  1
  Fe  Fe33  1  0.17084936  0.83715314  0.50304943  1
  Fe  Fe34  1  0.00325466  0.66917965  0.66885700  1
  Fe  Fe35  1  0.16913490  0.83166946  0.83439059  1
  Ni  Ni36  1  0.50115877  0.16823123  0.50187731  1
  Ni  Ni37  1  0.33242308  0.99961491  0.66712992  1
  Cr  Cr38  1  0.50049416  0.16839397  0.83430761  1
  Fe  Fe39  1  0.50138606  0.50018616  0.50074227  1
  Fe  Fe40  1  0.33544962  0.33643266  0.66655111  1
  Ni  Ni41  1  0.49929961  0.50393347  0.83465703  1
  Ni  Ni42  1  0.50159248  0.83555444  0.50034359  1
  Ni  Ni43  1  0.33391227  0.66944904  0.66854397  1
  Fe  Fe44  1  0.50098739  0.83255960  0.83594818  1
  Ni  Ni45  1  0.83498088  0.16857728  0.50317446  1
  Fe  Fe46  1  0.66808925  1.00130151  0.66601748  1
  Cr  Cr47  1  0.83405491  0.16637637  0.83170550  1
  Fe  Fe48  1  0.83407211  0.49910292  0.50220037  1
  Ni  Ni49  1  0.66942604  0.33575360  0.66781216  1
  Ni  Ni50  1  0.83643699  0.50653438  0.83469084  1
  Ni  Ni51  1  0.83384547  0.83586191  0.50298991  1
  Cr  Cr52  1  0.66688496  0.66574935  0.66874324  1
  Ni  Ni53  1  0.83529276  0.83213111  0.83534078  1
" 