8764,Ni47Fe23Cr29_5,-228.49308402755, 176.492041898695,Ni47Fe23Cr29,"# generated using pymatgen
 data_Cr17Fe12Ni25
_symmetry_space_group_name_H-M   'P 1'
_cell_length_a   7.47187613
_cell_length_b   7.47187613
_cell_length_c   10.56682856
_cell_angle_alpha   90.00000000
_cell_angle_beta   90.00000000
_cell_angle_gamma   90.00000000
_symmetry_Int_Tables_number   1
_chemical_formula_structural   Cr17Fe12Ni25
_chemical_formula_sum   'Cr17 Fe12 Ni25'
_cell_volume   589.93476301
_cell_formula_units_Z   1
loop_
 _symmetry_equiv_pos_site_id
 _symmetry_equiv_pos_as_xyz
  1  'x, y, z'
loop_
 _atom_site_type_symbol
 _atom_site_label
 _atom_site_symmetry_multiplicity
 _atom_site_fract_x
 _atom_site_fract_y
 _atom_site_fract_z
 _atom_site_occupancy
  Fe  Fe0  1  0.00086256  0.00010432  0.99924089  1
  Cr  Cr1  1  0.16691373  0.16665410  0.16624116  1
  Cr  Cr2  1  0.99867122  0.99406813  0.33377358  1
  Cr  Cr3  1  0.99812007  0.33504343  0.99756242  1
  Ni  Ni4  1  0.16778653  0.50309154  0.16894764  1
  Cr  Cr5  1  0.99937609  0.33910256  0.33300679  1
  Cr  Cr6  1  0.00266056  0.66528082  0.00042389  1
  Ni  Ni7  1  0.16827416  0.82968593  0.16482599  1
  Ni  Ni8  1  0.00077627  0.66572136  0.33346753  1
  Ni  Ni9  1  0.33411794  0.99598923  0.00049154  1
  Fe  Fe10  1  0.50068687  0.16694081  0.16532022  1
  Cr  Cr11  1  0.33592162  0.99608417  0.33267336  1
  Cr  Cr12  1  0.33359920  0.33512131  0.99959209  1
  Fe  Fe13  1  0.49838476  0.50152435  0.16770493  1
  Ni  Ni14  1  0.33587677  0.33846873  0.33240409  1
  Ni  Ni15  1  0.33206492  0.66864174  0.99946254  1
  Ni  Ni16  1  0.50046342  0.83064213  0.16405541  1
  Ni  Ni17  1  0.33115883  0.66505048  0.33376482  1
  Ni  Ni18  1  0.66607285  0.00096779  0.00284025  1
  Fe  Fe19  1  0.83018795  0.16625983  0.16451833  1
  Cr  Cr20  1  0.66446778  0.99828297  0.33296358  1
  Ni  Ni21  1  0.66802124  0.33195529  -0.00021201  1
  Fe  Fe22  1  0.83127325  0.50160373  0.16779336  1
  Ni  Ni23  1  0.66469553  0.33558854  0.33160496  1
  Fe  Fe24  1  0.66330662  0.66496116  0.00079176  1
  Fe  Fe25  1  0.83338412  0.83127975  0.16601909  1
  Fe  Fe26  1  0.66507217  0.66452127  0.33461129  1
  Cr  Cr27  1  0.16808506  0.16754973  0.50122689  1
  Fe  Fe28  1  0.00163788  0.99907093  0.66729466  1
  Ni  Ni29  1  0.16508442  0.16487890  0.83216044  1
  Ni  Ni30  1  0.16900823  0.50240879  0.49732096  1
  Cr  Cr31  1  -0.00016822  0.33561431  0.66867072  1
  Ni  Ni32  1  0.16922669  0.50004141  0.83267361  1
  Ni  Ni33  1  0.16714049  0.82959756  0.50040001  1
  Cr  Cr34  1  0.00052392  0.66609917  0.66446369  1
  Ni  Ni35  1  0.16783839  0.83414073  0.83393846  1
  Cr  Cr36  1  0.49832562  0.17022991  0.49961423  1
  Ni  Ni37  1  0.33053305  0.99775425  0.66623963  1
  Cr  Cr38  1  0.49994458  0.16740142  0.83289867  1
  Ni  Ni39  1  0.50030734  0.50154040  0.49978335  1
  Ni  Ni40  1  0.33326429  0.33452671  0.66686868  1
  Fe  Fe41  1  0.49972120  0.49960273  0.83143972  1
  Ni  Ni42  1  0.49932810  0.82749744  0.50071432  1
  Fe  Fe43  1  0.33427326  0.66467358  0.66514046  1
  Cr  Cr44  1  0.49805905  0.82967682  0.83357200  1
  Cr  Cr45  1  0.83274777  0.16802693  0.50088244  1
  Cr  Cr46  1  0.66527049  0.99818203  0.66309638  1
  Ni  Ni47  1  0.83356906  0.16773682  0.83481754  1
  Ni  Ni48  1  0.82971754  0.50272240  0.49853911  1
  Ni  Ni49  1  0.66564734  0.33692824  0.66764289  1
  Fe  Fe50  1  0.83037604  0.49832998  0.83213131  1
  Ni  Ni51  1  0.83249922  0.82820479  0.49846666  1
  Ni  Ni52  1  0.66597165  0.66360519  0.66422019  1
  Cr  Cr53  1  0.83242239  0.83387521  0.83444538  1
" 