1277,Ni47Fe24Cr27_18,-229.75058607667, 190.635195747745,Ni47Fe24Cr27,"# generated using pymatgen
 data_Cr16Fe13Ni25
_symmetry_space_group_name_H-M   'P 1'
_cell_length_a   7.45907139
_cell_length_b   7.45907139
_cell_length_c   10.54871992
_cell_angle_alpha   90.00000000
_cell_angle_beta   90.00000000
_cell_angle_gamma   90.00000000
_symmetry_Int_Tables_number   1
_chemical_formula_structural   Cr16Fe13Ni25
_chemical_formula_sum   'Cr16 Fe13 Ni25'
_cell_volume   586.90699983
_cell_formula_units_Z   1
loop_
 _symmetry_equiv_pos_site_id
 _symmetry_equiv_pos_as_xyz
  1  'x, y, z'
loop_
 _atom_site_type_symbol
 _atom_site_label
 _atom_site_symmetry_multiplicity
 _atom_site_fract_x
 _atom_site_fract_y
 _atom_site_fract_z
 _atom_site_occupancy
  Cr  Cr0  1  0.99828624  0.00088400  0.99849197  1
  Cr  Cr1  1  0.16626245  0.16814281  0.16462795  1
  Ni  Ni2  1  0.00079239  1.00030304  0.33372472  1
  Ni  Ni3  1  0.00280954  0.33502939  0.00071990  1
  Ni  Ni4  1  0.16532017  0.50289298  0.16697903  1
  Ni  Ni5  1  0.00405755  0.33302034  0.33246435  1
  Ni  Ni6  1  0.00184276  0.66780603  0.00285786  1
  Fe  Fe7  1  0.16731104  0.83406459  0.16781851  1
  Fe  Fe8  1  0.00124109  0.66797490  0.33174019  1
  Fe  Fe9  1  0.33545077  0.00152418  0.99907631  1
  Ni  Ni10  1  0.50088020  0.16384791  0.16646468  1
  Fe  Fe11  1  0.33230145  0.00182523  0.33287606  1
  Ni  Ni12  1  0.33281213  0.33293539  0.99932481  1
  Cr  Cr13  1  0.49785186  0.50108354  0.16500153  1
  Cr  Cr14  1  0.33385494  0.33257438  0.33591460  1
  Fe  Fe15  1  0.33189121  0.66895668  0.99955417  1
  Ni  Ni16  1  0.49848712  0.83513044  0.16609196  1
  Fe  Fe17  1  0.33080516  0.66833132  0.33287283  1
  Ni  Ni18  1  0.66574566  0.99936917  0.00135253  1
  Ni  Ni19  1  0.83461205  0.16667864  0.16769765  1
  Cr  Cr20  1  0.66755154  1.00036873  0.33243336  1
  Cr  Cr21  1  0.66674496  0.32959864  0.00137617  1
  Fe  Fe22  1  0.83636052  0.49909130  0.16656632  1
  Fe  Fe23  1  0.66871324  0.33157511  0.33250046  1
  Cr  Cr24  1  0.66863911  0.67038927  0.99716005  1
  Ni  Ni25  1  0.83440402  0.83435989  0.16680148  1
  Cr  Cr26  1  0.66791228  0.66869246  0.33281665  1
  Ni  Ni27  1  0.16680739  0.16689411  0.50255444  1
  Ni  Ni28  1  1.00043569  0.00237193  0.66835505  1
  Ni  Ni29  1  0.16727976  0.16745815  0.83279742  1
  Fe  Fe30  1  0.16693365  0.49857747  0.50134153  1
  Ni  Ni31  1  0.00298401  0.33133689  0.66793401  1
  Cr  Cr32  1  0.16639632  0.49958148  0.83423306  1
  Cr  Cr33  1  0.16702286  0.83574578  0.49994460  1
  Cr  Cr34  1  0.00063184  0.66915156  0.66734298  1
  Fe  Fe35  1  0.16807054  0.83593250  0.83323033  1
  Ni  Ni36  1  0.49879542  0.16630950  0.50217438  1
  Fe  Fe37  1  0.33350567  0.00271880  0.66890955  1
  Ni  Ni38  1  0.50036887  0.16377549  0.83338356  1
  Cr  Cr39  1  0.50063596  0.50019487  0.50391535  1
  Ni  Ni40  1  0.33326876  0.33183085  0.66685599  1
  Fe  Fe41  1  0.49993926  0.49646309  0.83295809  1
  Cr  Cr42  1  0.49991010  0.83631751  0.50173208  1
  Ni  Ni43  1  0.33384575  0.66592778  0.66861842  1
  Ni  Ni44  1  0.49821489  0.83551601  0.83366377  1
  Cr  Cr45  1  0.83500380  0.16672237  0.50202883  1
  Ni  Ni46  1  0.66784953  0.00149680  0.66884862  1
  Ni  Ni47  1  0.83407352  0.16889349  0.83246078  1
  Cr  Cr48  1  0.83574172  0.49845615  0.49926011  1
  Ni  Ni49  1  0.66508235  0.33086362  0.66878029  1
  Ni  Ni50  1  0.83582690  0.49797001  0.83520370  1
  Ni  Ni51  1  0.83541213  0.83509780  0.50169975  1
  Cr  Cr52  1  0.66774191  0.66913189  0.67135418  1
  Fe  Fe53  1  0.83415192  0.83768570  0.83398498  1
" 