8626,Ni47Fe35Cr17_11,-233.552664367291, 200.04959673985,Ni47Fe35Cr17,"# generated using pymatgen
 data_Cr10Fe19Ni25
_symmetry_space_group_name_H-M   'P 1'
_cell_length_a   7.43800086
_cell_length_b   7.43800086
_cell_length_c   10.51892169
_cell_angle_alpha   90.00000000
_cell_angle_beta   90.00000000
_cell_angle_gamma   90.00000000
_symmetry_Int_Tables_number   1
_chemical_formula_structural   Cr10Fe19Ni25
_chemical_formula_sum   'Cr10 Fe19 Ni25'
_cell_volume   581.94731638
_cell_formula_units_Z   1
loop_
 _symmetry_equiv_pos_site_id
 _symmetry_equiv_pos_as_xyz
  1  'x, y, z'
loop_
 _atom_site_type_symbol
 _atom_site_label
 _atom_site_symmetry_multiplicity
 _atom_site_fract_x
 _atom_site_fract_y
 _atom_site_fract_z
 _atom_site_occupancy
  Ni  Ni0  1  0.00326307  1.00076855  1.00177900  1
  Ni  Ni1  1  0.16550133  0.17104803  0.16474531  1
  Cr  Cr2  1  1.00145997  1.00037161  0.33466202  1
  Ni  Ni3  1  1.00193206  0.33409375  0.00556033  1
  Ni  Ni4  1  0.16839823  0.50060329  0.16957824  1
  Ni  Ni5  1  0.99920141  0.33845560  0.33393413  1
  Cr  Cr6  1  1.00162114  0.67026374  0.00257201  1
  Fe  Fe7  1  0.17139863  0.83399990  0.16744247  1
  Ni  Ni8  1  1.00167399  0.66765681  0.33568735  1
  Ni  Ni9  1  0.33482892  1.00046537  1.00169938  1
  Cr  Cr10  1  0.50275159  0.16747589  0.16782378  1
  Cr  Cr11  1  0.33548522  1.00025166  0.33318548  1
  Ni  Ni12  1  0.33675863  0.33527601  1.00084200  1
  Ni  Ni13  1  0.50246889  0.50418161  0.16757088  1
  Cr  Cr14  1  0.33634868  0.33632067  0.33564279  1
  Ni  Ni15  1  0.33661425  0.66959090  0.00286800  1
  Ni  Ni16  1  0.50467456  0.83281246  0.16852687  1
  Fe  Fe17  1  0.33428670  0.66758297  0.33310098  1
  Fe  Fe18  1  0.66858963  1.00025566  1.00164581  1
  Fe  Fe19  1  0.83447607  0.17021578  0.16792538  1
  Ni  Ni20  1  0.67012449  0.00224298  0.33541604  1
  Ni  Ni21  1  0.66690546  0.33665123  0.00260079  1
  Fe  Fe22  1  0.83350109  0.50063192  0.16918302  1
  Ni  Ni23  1  0.67019002  0.33635803  0.33735680  1
  Fe  Fe24  1  0.66632945  0.66979125  1.00140513  1
  Fe  Fe25  1  0.83357683  0.83518546  0.16904515  1
  Fe  Fe26  1  0.67084545  0.66777779  0.33477913  1
  Cr  Cr27  1  0.16709331  0.16981614  0.50443462  1
  Fe  Fe28  1  1.00013651  0.99958473  0.66916156  1
  Fe  Fe29  1  0.16916836  0.16632072  0.83618244  1
  Fe  Fe30  1  0.16658649  0.50564030  0.50195039  1
  Ni  Ni31  1  1.00109671  0.33748129  0.66672509  1
  Cr  Cr32  1  0.16922444  0.49975701  0.83463794  1
  Ni  Ni33  1  0.16807827  0.83279748  0.50323185  1
  Ni  Ni34  1  1.00168254  0.67048499  0.66741935  1
  Ni  Ni35  1  0.17003059  0.83634144  0.83380914  1
  Fe  Fe36  1  0.50452340  0.16770411  0.50302761  1
  Ni  Ni37  1  0.33573827  1.00146968  0.67030355  1
  Fe  Fe38  1  0.50135531  0.16764077  0.83527504  1
  Fe  Fe39  1  0.50337877  0.50277192  0.50251600  1
  Fe  Fe40  1  0.33817229  0.33550750  0.66889039  1
  Fe  Fe41  1  0.50291096  0.50354449  0.83619954  1
  Cr  Cr42  1  0.50307257  0.83436783  0.50068359  1
  Fe  Fe43  1  0.33675878  0.66962490  0.66956867  1
  Ni  Ni44  1  0.50214601  0.83565697  0.83592602  1
  Fe  Fe45  1  0.83308202  0.16805959  0.50257707  1
  Ni  Ni46  1  0.66629808  1.00166100  0.66872882  1
  Cr  Cr47  1  0.83645194  0.16883700  0.83554901  1
  Fe  Fe48  1  0.83611274  0.50332697  0.50270628  1
  Ni  Ni49  1  0.66706452  0.33568288  0.66650629  1
  Cr  Cr50  1  0.83462337  0.50178195  0.83558551  1
  Ni  Ni51  1  0.83449340  0.83423006  0.50360202  1
  Ni  Ni52  1  0.66964255  0.66850583  0.66979753  1
  Ni  Ni53  1  0.83331197  0.83651343  0.83386638  1
" 