6430,Ni47Fe23Cr29_1,-228.604514534307, 180.037615854805,Ni47Fe23Cr29,"# generated using pymatgen
 data_Cr17Fe12Ni25
_symmetry_space_group_name_H-M   'P 1'
_cell_length_a   7.47004198
_cell_length_b   7.47004198
_cell_length_c   10.56423468
_cell_angle_alpha   90.00000000
_cell_angle_beta   90.00000000
_cell_angle_gamma   90.00000000
_symmetry_Int_Tables_number   1
_chemical_formula_structural   Cr17Fe12Ni25
_chemical_formula_sum   'Cr17 Fe12 Ni25'
_cell_volume   589.50042874
_cell_formula_units_Z   1
loop_
 _symmetry_equiv_pos_site_id
 _symmetry_equiv_pos_as_xyz
  1  'x, y, z'
loop_
 _atom_site_type_symbol
 _atom_site_label
 _atom_site_symmetry_multiplicity
 _atom_site_fract_x
 _atom_site_fract_y
 _atom_site_fract_z
 _atom_site_occupancy
  Ni  Ni0  1  0.99592426  0.00321308  0.99795198  1
  Ni  Ni1  1  0.16486154  0.16709975  0.16404174  1
  Ni  Ni2  1  0.99594126  0.00172432  0.33337396  1
  Ni  Ni3  1  0.00015147  0.32888874  0.00078270  1
  Ni  Ni4  1  0.16499113  0.49947041  0.16299439  1
  Cr  Cr5  1  0.99941719  0.33249649  0.33260955  1
  Fe  Fe6  1  0.00022055  0.66559568  0.99828526  1
  Cr  Cr7  1  0.16565538  0.83593541  0.16375976  1
  Fe  Fe8  1  0.00062953  0.66675890  0.33291222  1
  Fe  Fe9  1  0.33101328  0.00069865  0.99612394  1
  Cr  Cr10  1  0.49893561  0.16782214  0.16257707  1
  Cr  Cr11  1  0.33467882  0.00078472  0.33387428  1
  Ni  Ni12  1  0.33195330  0.33442208  0.00044210  1
  Ni  Ni13  1  0.50298140  0.49840042  0.16383070  1
  Cr  Cr14  1  0.33281350  0.33562837  0.33220397  1
  Ni  Ni15  1  0.33756716  0.66387466  0.99787339  1
  Cr  Cr16  1  0.50060478  0.83308540  0.16247005  1
  Cr  Cr17  1  0.33771379  0.66377610  0.33310458  1
  Fe  Fe18  1  0.66601731  0.00081520  0.99541832  1
  Fe  Fe19  1  0.83401859  0.16815726  0.16512000  1
  Cr  Cr20  1  0.66835218  0.99786047  0.33377981  1
  Fe  Fe21  1  0.66635809  0.33457893  0.99884852  1
  Ni  Ni22  1  0.83249089  0.49890702  0.16505130  1
  Fe  Fe23  1  0.66596394  0.33282465  0.33331879  1
  Ni  Ni24  1  0.66449332  0.66750158  0.99909441  1
  Cr  Cr25  1  0.83441298  0.83094037  0.16512568  1
  Fe  Fe26  1  0.66895346  0.66317349  0.33275498  1
  Cr  Cr27  1  0.16769930  0.16378023  0.50179314  1
  Ni  Ni28  1  0.99411187  0.99958511  0.66821173  1
  Ni  Ni29  1  0.16738737  0.16262754  0.83462936  1
  Ni  Ni30  1  0.16871697  0.50234939  0.50065625  1
  Cr  Cr31  1  0.99949191  0.32770698  0.66827857  1
  Cr  Cr32  1  0.16741391  0.49977889  0.83489977  1
  Cr  Cr33  1  0.16457212  0.83324266  0.50167504  1
  Cr  Cr34  1  0.00040649  0.66919227  0.66969042  1
  Ni  Ni35  1  0.16652566  0.83706825  0.83467509  1
  Ni  Ni36  1  0.50377566  0.16687897  0.50248066  1
  Fe  Fe37  1  0.33462886  0.99827332  0.66983321  1
  Ni  Ni38  1  0.49904326  0.16672147  0.83342286  1
  Ni  Ni39  1  0.50310527  0.49870846  0.50106686  1
  Cr  Cr40  1  0.33369036  0.33612626  0.66614030  1
  Ni  Ni41  1  0.50150015  0.49954782  0.83403338  1
  Fe  Fe42  1  0.50166164  0.83287158  0.50303366  1
  Ni  Ni43  1  0.33885701  0.66701075  0.66766073  1
  Ni  Ni44  1  0.50040084  0.83384963  0.83311781  1
  Ni  Ni45  1  0.82929799  0.16377121  0.50124115  1
  Ni  Ni46  1  0.66726848  0.99841894  0.66771936  1
  Fe  Fe47  1  0.83133412  0.16399785  0.83356763  1
  Cr  Cr48  1  0.83220696  0.50116181  0.50225823  1
  Fe  Fe49  1  0.66457129  0.33172946  0.66759548  1
  Cr  Cr50  1  0.82844366  0.50085696  0.83347433  1
  Ni  Ni51  1  0.83159208  0.83412977  0.49968691  1
  Ni  Ni52  1  0.66241392  0.67098207  0.66634060  1
  Ni  Ni53  1  0.83194517  0.83437508  0.83427105  1
" 