5415,Ni47Fe35Cr17_13,-233.949226160792, 205.524659902712,Ni47Fe35Cr17,"# generated using pymatgen
 data_Cr10Fe19Ni25
_symmetry_space_group_name_H-M   'P 1'
_cell_length_a   7.43335957
_cell_length_b   7.43335957
_cell_length_c   10.51235792
_cell_angle_alpha   90.00000000
_cell_angle_beta   90.00000000
_cell_angle_gamma   90.00000000
_symmetry_Int_Tables_number   1
_chemical_formula_structural   Cr10Fe19Ni25
_chemical_formula_sum   'Cr10 Fe19 Ni25'
_cell_volume   580.85859678
_cell_formula_units_Z   1
loop_
 _symmetry_equiv_pos_site_id
 _symmetry_equiv_pos_as_xyz
  1  'x, y, z'
loop_
 _atom_site_type_symbol
 _atom_site_label
 _atom_site_symmetry_multiplicity
 _atom_site_fract_x
 _atom_site_fract_y
 _atom_site_fract_z
 _atom_site_occupancy
  Fe  Fe0  1  0.00379652  1.00154860  0.00319713  1
  Fe  Fe1  1  0.16615781  0.17064304  0.16795177  1
  Ni  Ni2  1  1.00003806  0.00313945  0.33578439  1
  Ni  Ni3  1  0.00370401  0.33637464  0.00234320  1
  Ni  Ni4  1  0.16883736  0.50347831  0.16874243  1
  Ni  Ni5  1  0.00339954  0.33514889  0.33660510  1
  Ni  Ni6  1  0.00375617  0.66818892  1.00158602  1
  Fe  Fe7  1  0.16831955  0.83456195  0.16835376  1
  Fe  Fe8  1  0.00326666  0.66972586  0.33658749  1
  Ni  Ni9  1  0.33505534  0.00317312  1.00186200  1
  Cr  Cr10  1  0.50341599  0.16707580  0.16633977  1
  Cr  Cr11  1  0.33548384  1.00131051  0.33694410  1
  Ni  Ni12  1  0.33398303  0.33495873  1.00134418  1
  Cr  Cr13  1  0.49792103  0.50349526  0.16883360  1
  Fe  Fe14  1  0.33234386  0.33681444  0.33662386  1
  Ni  Ni15  1  0.33299668  0.66866965  1.00173069  1
  Fe  Fe16  1  0.50203483  0.83538311  0.16923082  1
  Ni  Ni17  1  0.33519472  0.66827786  0.33623709  1
  Fe  Fe18  1  0.66905189  0.00344455  0.00347154  1
  Ni  Ni19  1  0.83730371  0.16589025  0.16836789  1
  Ni  Ni20  1  0.67123587  1.00033945  0.33602206  1
  Fe  Fe21  1  0.66842735  0.33461126  1.00056794  1
  Cr  Cr22  1  0.83987244  0.50110981  0.16876839  1
  Cr  Cr23  1  0.67067017  0.33465273  0.33798993  1
  Cr  Cr24  1  0.67001409  0.66864548  1.00124384  1
  Fe  Fe25  1  0.83644514  0.83794490  0.17015315  1
  Fe  Fe26  1  0.66936895  0.67247467  0.33789656  1
  Fe  Fe27  1  0.16729894  0.16862194  0.50303699  1
  Ni  Ni28  1  0.00497352  0.00296694  0.66816581  1
  Fe  Fe29  1  0.17114470  0.16981421  0.83581131  1
  Ni  Ni30  1  0.16911578  0.50251807  0.50022571  1
  Fe  Fe31  1  0.00244289  0.33508418  0.66802974  1
  Ni  Ni32  1  0.16926601  0.50274888  0.83783218  1
  Ni  Ni33  1  0.16959342  0.83495107  0.50271954  1
  Cr  Cr34  1  1.00077757  0.66881800  0.66956663  1
  Fe  Fe35  1  0.16878044  0.83589678  0.83608175  1
  Ni  Ni36  1  0.50254414  0.16804980  0.50329386  1
  Ni  Ni37  1  0.33376594  0.00395589  0.66815893  1
  Ni  Ni38  1  0.50065685  0.17027227  0.83730114  1
  Fe  Fe39  1  0.50212399  0.50395301  0.50313560  1
  Fe  Fe40  1  0.33596632  0.33523054  0.66971162  1
  Ni  Ni41  1  0.50095529  0.50048742  0.83483082  1
  Ni  Ni42  1  0.50180387  0.83542917  0.50123313  1
  Fe  Fe43  1  0.33615039  0.66920482  0.66794205  1
  Cr  Cr44  1  0.49971296  0.83621218  0.83567582  1
  Ni  Ni45  1  0.83620375  0.16852684  0.50135892  1
  Cr  Cr46  1  0.66837311  1.00173298  0.66663150  1
  Cr  Cr47  1  0.83546840  0.16981386  0.83665103  1
  Ni  Ni48  1  0.83668486  0.50177714  0.50237433  1
  Fe  Fe49  1  0.66838951  0.33725190  0.66825843  1
  Ni  Ni50  1  0.83657595  0.50179728  0.83604226  1
  Ni  Ni51  1  0.83540314  0.83649548  0.50041817  1
  Ni  Ni52  1  0.66881142  0.66597935  0.66746520  1
  Fe  Fe53  1  0.83728641  0.83369295  0.83563304  1
" 