4716,Ni47Fe35Cr17_0,-234.28811182082, 206.519759510168,Ni47Fe35Cr17,"# generated using pymatgen
 data_Cr10Fe19Ni25
_symmetry_space_group_name_H-M   'P 1'
_cell_length_a   7.43639943
_cell_length_b   7.43639943
_cell_length_c   10.51665693
_cell_angle_alpha   90.00000000
_cell_angle_beta   90.00000000
_cell_angle_gamma   90.00000000
_symmetry_Int_Tables_number   1
_chemical_formula_structural   Cr10Fe19Ni25
_chemical_formula_sum   'Cr10 Fe19 Ni25'
_cell_volume   581.57151242
_cell_formula_units_Z   1
loop_
 _symmetry_equiv_pos_site_id
 _symmetry_equiv_pos_as_xyz
  1  'x, y, z'
loop_
 _atom_site_type_symbol
 _atom_site_label
 _atom_site_symmetry_multiplicity
 _atom_site_fract_x
 _atom_site_fract_y
 _atom_site_fract_z
 _atom_site_occupancy
  Cr  Cr0  1  0.00274966  0.00226074  1.00012283  1
  Ni  Ni1  1  0.17013875  0.16878121  0.16857238  1
  Ni  Ni2  1  1.00166103  0.00257710  0.33624060  1
  Fe  Fe3  1  1.00195550  0.33269999  0.00300094  1
  Ni  Ni4  1  0.16813550  0.50201935  0.16709258  1
  Fe  Fe5  1  0.00271872  0.33272279  0.33651054  1
  Fe  Fe6  1  0.00351739  0.67038631  0.00222736  1
  Ni  Ni7  1  0.16953380  0.83493134  0.16959361  1
  Ni  Ni8  1  0.00249086  0.66788000  0.33710034  1
  Ni  Ni9  1  0.33491559  1.00122847  0.00355360  1
  Ni  Ni10  1  0.50170022  0.16823793  0.17007744  1
  Ni  Ni11  1  0.33529131  0.00246477  0.33430146  1
  Fe  Fe12  1  0.33726178  0.33208910  0.00353199  1
  Fe  Fe13  1  0.50121641  0.50114962  0.16704059  1
  Cr  Cr14  1  0.33602873  0.33495465  0.33650379  1
  Fe  Fe15  1  0.33641740  0.67058468  0.00268703  1
  Fe  Fe16  1  0.50037587  0.83755148  0.16918786  1
  Cr  Cr17  1  0.33420217  0.66904817  0.33645764  1
  Cr  Cr18  1  0.66814638  0.00524106  1.00084308  1
  Ni  Ni19  1  0.83468001  0.17060274  0.17039226  1
  Ni  Ni20  1  0.66879038  0.00433367  0.33550296  1
  Ni  Ni21  1  0.66754897  0.33611735  0.00261171  1
  Cr  Cr22  1  0.83626120  0.50216852  0.17001261  1
  Fe  Fe23  1  0.66984561  0.33314262  0.33629880  1
  Fe  Fe24  1  0.66624794  0.66975720  1.00054068  1
  Cr  Cr25  1  0.83462684  0.83562272  0.17058707  1
  Fe  Fe26  1  0.66894374  0.67041932  0.33842325  1
  Ni  Ni27  1  0.16867557  0.17001402  0.50276137  1
  Fe  Fe28  1  0.99919808  1.00156431  0.66785557  1
  Fe  Fe29  1  0.16970049  0.16689364  0.83446057  1
  Fe  Fe30  1  0.16505946  0.50100049  0.50264253  1
  Ni  Ni31  1  1.00115478  0.33431410  0.66763944  1
  Cr  Cr32  1  0.16911989  0.49990475  0.83610437  1
  Fe  Fe33  1  0.16633933  0.83966191  0.50059215  1
  Ni  Ni34  1  1.00189156  0.66879331  0.66726648  1
  Ni  Ni35  1  0.16837757  0.83447736  0.83487346  1
  Ni  Ni36  1  0.50281827  0.16735533  0.50198726  1
  Cr  Cr37  1  0.33618232  1.00142323  0.66769434  1
  Ni  Ni38  1  0.50065365  0.17011006  0.83432134  1
  Fe  Fe39  1  0.50628088  0.50061479  0.50304448  1
  Fe  Fe40  1  0.33704410  0.33530254  0.66689630  1
  Fe  Fe41  1  0.50313765  0.50259905  0.83549464  1
  Ni  Ni42  1  0.50565209  0.83766390  0.50053430  1
  Cr  Cr43  1  0.33602455  0.66930733  0.66613674  1
  Ni  Ni44  1  0.50247744  0.83728900  0.83628027  1
  Ni  Ni45  1  0.83466208  0.16782942  0.50219029  1
  Ni  Ni46  1  0.66941736  0.00269961  0.66977159  1
  Fe  Fe47  1  0.83438914  0.16875984  0.83317998  1
  Fe  Fe48  1  0.83489378  0.50116040  0.50301211  1
  Ni  Ni49  1  0.66921393  0.33389943  0.66824949  1
  Cr  Cr50  1  0.83569118  0.50260383  0.83534878  1
  Ni  Ni51  1  0.83409583  0.83429458  0.50318728  1
  Ni  Ni52  1  0.66886344  0.66905878  0.66852513  1
  Ni  Ni53  1  0.83486091  0.83370921  0.83221182  1
" 