3812,Ni47Fe24Cr27_15,-229.24423240269, 186.640071037054,Ni47Fe24Cr27,"# generated using pymatgen
 data_Cr16Fe13Ni25
_symmetry_space_group_name_H-M   'P 1'
_cell_length_a   7.46102083
_cell_length_b   7.46102083
_cell_length_c   10.55147684
_cell_angle_alpha   90.00000000
_cell_angle_beta   90.00000000
_cell_angle_gamma   90.00000000
_symmetry_Int_Tables_number   1
_chemical_formula_structural   Cr16Fe13Ni25
_chemical_formula_sum   'Cr16 Fe13 Ni25'
_cell_volume   587.36728662
_cell_formula_units_Z   1
loop_
 _symmetry_equiv_pos_site_id
 _symmetry_equiv_pos_as_xyz
  1  'x, y, z'
loop_
 _atom_site_type_symbol
 _atom_site_label
 _atom_site_symmetry_multiplicity
 _atom_site_fract_x
 _atom_site_fract_y
 _atom_site_fract_z
 _atom_site_occupancy
  Fe  Fe0  1  0.99990699  0.99891484  0.99662887  1
  Cr  Cr1  1  0.16638902  0.16528769  0.16170968  1
  Ni  Ni2  1  0.99999567  0.00061845  0.33707652  1
  Fe  Fe3  1  0.00065885  0.33189104  0.99606361  1
  Cr  Cr4  1  0.16852735  0.50115443  0.16678399  1
  Cr  Cr5  1  0.00156035  0.33280845  0.33674266  1
  Cr  Cr6  1  0.99971310  0.66464533  0.99778092  1
  Cr  Cr7  1  0.16698569  0.83450782  0.16749993  1
  Ni  Ni8  1  0.00127406  0.66850254  0.33560272  1
  Ni  Ni9  1  0.33627667  0.00135603  0.99873284  1
  Fe  Fe10  1  0.50098857  0.16574472  0.16539620  1
  Cr  Cr11  1  0.33461768  0.00158436  0.33465706  1
  Fe  Fe12  1  0.33536146  0.33439803  0.99655021  1
  Cr  Cr13  1  0.49923392  0.49903789  0.16708304  1
  Cr  Cr14  1  0.33302654  0.33075337  0.33607150  1
  Ni  Ni15  1  0.33440228  0.66905324  0.99815581  1
  Fe  Fe16  1  0.49933037  0.83554500  0.16535445  1
  Ni  Ni17  1  0.33211476  0.66855949  0.33502546  1
  Ni  Ni18  1  0.66453636  0.00162645  0.99977229  1
  Cr  Cr19  1  0.83320858  0.16593088  0.16635215  1
  Fe  Fe20  1  0.66750637  0.00230986  0.33635585  1
  Fe  Fe21  1  0.66512772  0.33272692  0.99704519  1
  Cr  Cr22  1  0.83339310  0.49790565  0.16600084  1
  Fe  Fe23  1  0.66665389  0.33036552  0.33579152  1
  Cr  Cr24  1  0.66697313  0.66917019  0.99573280  1
  Cr  Cr25  1  0.83556092  0.83663020  0.16798991  1
  Cr  Cr26  1  0.66733792  0.66912443  0.33353043  1
  Ni  Ni27  1  0.16701727  0.16529371  0.50378369  1
  Fe  Fe28  1  1.00037841  0.00102672  0.66763523  1
  Ni  Ni29  1  0.16738341  0.16586239  0.83417039  1
  Ni  Ni30  1  0.16742498  0.50223104  0.50135266  1
  Ni  Ni31  1  0.00273234  0.33401851  0.66821263  1
  Ni  Ni32  1  0.17002244  0.50027635  0.83305531  1
  Ni  Ni33  1  0.16453087  0.83364175  0.50077046  1
  Ni  Ni34  1  0.00048780  0.66704328  0.66690184  1
  Ni  Ni35  1  0.16679033  0.83466330  0.83285290  1
  Ni  Ni36  1  0.50210584  0.16704815  0.50159136  1
  Ni  Ni37  1  0.33338065  0.00340550  0.66805320  1
  Ni  Ni38  1  0.50082323  0.16781655  0.83352293  1
  Cr  Cr39  1  0.49892017  0.49920165  0.50414773  1
  Ni  Ni40  1  0.33195757  0.33009760  0.66777984  1
  Ni  Ni41  1  0.49953080  0.49956582  0.83146640  1
  Cr  Cr42  1  0.50047419  0.83337198  0.50412678  1
  Fe  Fe43  1  0.33169460  0.66666815  0.66896586  1
  Fe  Fe44  1  0.49820007  0.83708176  0.83220554  1
  Fe  Fe45  1  0.83391861  0.16537138  0.50363545  1
  Ni  Ni46  1  0.66616268  0.00101367  0.66735714  1
  Ni  Ni47  1  0.83284697  0.16467707  0.83315614  1
  Cr  Cr48  1  0.83272767  0.50167100  0.50259478  1
  Ni  Ni49  1  0.66692572  0.33129423  0.66847613  1
  Fe  Fe50  1  0.83505335  0.49777702  0.83040838  1
  Ni  Ni51  1  0.83566150  0.83583426  0.50082101  1
  Ni  Ni52  1  0.67021168  0.66878185  0.67133547  1
  Ni  Ni53  1  0.83378530  0.83692225  0.83194409  1
" 