7488,Ni48Fe15Cr36_6,-225.618753883988, 166.224689050938,Ni48Fe15Cr36,"# generated using pymatgen
 data_Cr10Fe4Ni13
_symmetry_space_group_name_H-M   'P 1'
_cell_length_a   7.47979844
_cell_length_b   7.47979844
_cell_length_c   10.57803240
_cell_angle_alpha   90.00000000
_cell_angle_beta   90.00000000
_cell_angle_gamma   90.00000000
_symmetry_Int_Tables_number   1
_chemical_formula_structural   Cr10Fe4Ni13
_chemical_formula_sum   'Cr20 Fe8 Ni26'
_cell_volume   591.81324812
_cell_formula_units_Z   2
loop_
 _symmetry_equiv_pos_site_id
 _symmetry_equiv_pos_as_xyz
  1  'x, y, z'
loop_
 _atom_site_type_symbol
 _atom_site_label
 _atom_site_symmetry_multiplicity
 _atom_site_fract_x
 _atom_site_fract_y
 _atom_site_fract_z
 _atom_site_occupancy
  Fe  Fe0  1  0.99656142  0.99855537  0.99798803  1
  Fe  Fe1  1  0.16588443  0.16814092  0.16749400  1
  Cr  Cr2  1  -0.00082936  -0.00070505  0.33156913  1
  Ni  Ni3  1  0.99529047  0.33276909  0.99896513  1
  Cr  Cr4  1  0.16245793  0.50009008  0.16659998  1
  Ni  Ni5  1  -0.00002961  0.33370907  0.33387519  1
  Ni  Ni6  1  0.99335585  0.66608805  0.99861188  1
  Cr  Cr7  1  0.16273063  0.83173106  0.16464106  1
  Ni  Ni8  1  0.99300812  0.66357036  0.33362623  1
  Cr  Cr9  1  0.33200196  0.00041873  0.00025089  1
  Ni  Ni10  1  0.50078683  0.16757079  0.16854828  1
  Ni  Ni11  1  0.33460770  0.00415245  0.33302553  1
  Cr  Cr12  1  0.33401227  0.33064859  0.00293459  1
  Ni  Ni13  1  0.50338827  0.49655227  0.16615396  1
  Ni  Ni14  1  0.33355092  0.32905299  0.33299011  1
  Cr  Cr15  1  0.33553339  0.66712124  0.99667430  1
  Cr  Cr16  1  0.50079358  0.83197568  0.16834945  1
  Cr  Cr17  1  0.33570528  0.66398757  0.33493546  1
  Cr  Cr18  1  0.66587724  0.99779778  0.99856830  1
  Cr  Cr19  1  0.83127148  0.16800310  0.16489985  1
  Fe  Fe20  1  0.66414282  0.99886139  0.33367032  1
  Ni  Ni21  1  0.66947257  0.33408560  -0.00012015  1
  Ni  Ni22  1  0.83181262  0.49866893  0.16573662  1
  Fe  Fe23  1  0.66456984  0.33508437  0.33293733  1
  Ni  Ni24  1  0.67015361  0.66464135  -0.00047160  1
  Fe  Fe25  1  0.83120838  0.82836878  0.16627165  1
  Ni  Ni26  1  0.66861151  0.66481344  0.33280563  1
  Fe  Fe27  1  0.16722326  0.16548603  0.49846014  1
  Ni  Ni28  1  0.99800540  0.99807339  0.66794083  1
  Cr  Cr29  1  0.16297165  0.16499694  0.83278006  1
  Ni  Ni30  1  0.16575167  0.49896031  0.49700716  1
  Cr  Cr31  1  0.99632089  0.33272242  0.66419030  1
  Cr  Cr32  1  0.16392997  0.50193867  0.83265594  1
  Cr  Cr33  1  0.16624259  0.83163957  0.50065755  1
  Cr  Cr34  1  0.99604297  0.66609175  0.66394273  1
  Fe  Fe35  1  0.16431440  0.83301669  0.83117100  1
  Ni  Ni36  1  0.49969493  0.16455694  0.49834559  1
  Ni  Ni37  1  0.33328723  0.99762964  0.66490339  1
  Cr  Cr38  1  0.50353603  0.16549778  0.83039440  1
  Ni  Ni39  1  0.49978743  0.49821047  0.49820250  1
  Cr  Cr40  1  0.33368171  0.33310285  0.66206860  1
  Cr  Cr41  1  0.50213286  0.50000527  0.83362735  1
  Ni  Ni42  1  0.50022674  0.83491301  0.49926961  1
  Ni  Ni43  1  0.33472657  0.66909765  0.66506139  1
  Ni  Ni44  1  0.49956139  0.83311417  0.83025823  1
  Cr  Cr45  1  0.82964627  0.16519769  0.50105111  1
  Fe  Fe46  1  0.66656160  0.99755212  0.66573582  1
  Ni  Ni47  1  0.83260460  0.16568971  0.83216941  1
  Ni  Ni48  1  0.83196044  0.49850597  0.49613587  1
  Ni  Ni49  1  0.66707269  0.33261034  0.66541437  1
  Ni  Ni50  1  0.83240653  0.49788586  0.83529057  1
  Ni  Ni51  1  0.83059794  0.83305060  0.49663279  1
  Cr  Cr52  1  0.66679747  0.66517280  0.66491055  1
  Ni  Ni53  1  0.83295767  0.83350040  0.83416462  1
" 