1843,Ni48Fe38Cr12_3,-235.963866812019, 210.12053534735,Ni48Fe38Cr12,"# generated using pymatgen
 data_Cr4Fe10Ni13
_symmetry_space_group_name_H-M   'P 1'
_cell_length_a   7.42976151
_cell_length_b   7.42976151
_cell_length_c   10.50726950
_cell_angle_alpha   90.00000000
_cell_angle_beta   90.00000000
_cell_angle_gamma   90.00000000
_symmetry_Int_Tables_number   1
_chemical_formula_structural   Cr4Fe10Ni13
_chemical_formula_sum   'Cr8 Fe20 Ni26'
_cell_volume   580.01552571
_cell_formula_units_Z   2
loop_
 _symmetry_equiv_pos_site_id
 _symmetry_equiv_pos_as_xyz
  1  'x, y, z'
loop_
 _atom_site_type_symbol
 _atom_site_label
 _atom_site_symmetry_multiplicity
 _atom_site_fract_x
 _atom_site_fract_y
 _atom_site_fract_z
 _atom_site_occupancy
  Fe  Fe0  1  1.00052330  1.00135305  0.00267564  1
  Fe  Fe1  1  0.16881613  0.16791747  0.17012903  1
  Fe  Fe2  1  1.00207691  0.00333781  0.33637736  1
  Cr  Cr3  1  1.00226883  0.33589195  0.00373018  1
  Ni  Ni4  1  0.16830753  0.50533337  0.16830849  1
  Ni  Ni5  1  1.00161589  0.33696308  0.33625292  1
  Ni  Ni6  1  1.00115406  0.66964187  0.00389450  1
  Fe  Fe7  1  0.16871410  0.83504677  0.16878174  1
  Ni  Ni8  1  1.00098312  0.66823708  0.33565077  1
  Ni  Ni9  1  0.33611561  0.00328209  0.00428086  1
  Fe  Fe10  1  0.50445350  0.16961810  0.16885833  1
  Ni  Ni11  1  0.33645193  1.00065968  0.33627142  1
  Fe  Fe12  1  0.33688212  0.33892455  0.00350958  1
  Ni  Ni13  1  0.50404779  0.50450783  0.16746683  1
  Cr  Cr14  1  0.33513455  0.33383494  0.33402607  1
  Ni  Ni15  1  0.33719367  0.67077991  0.00291172  1
  Ni  Ni16  1  0.50134164  0.83684420  0.16864314  1
  Fe  Fe17  1  0.33590438  0.66955605  0.33435008  1
  Fe  Fe18  1  0.67044203  1.00107336  0.00329813  1
  Ni  Ni19  1  0.83539320  0.16851153  0.17010261  1
  Fe  Fe20  1  0.66893016  1.00213888  0.33612176  1
  Ni  Ni21  1  0.66936876  0.33630887  0.00432284  1
  Ni  Ni22  1  0.83552525  0.50170037  0.17036622  1
  Ni  Ni23  1  0.67148624  0.33650721  0.33563575  1
  Ni  Ni24  1  0.66935933  0.66982585  0.00337406  1
  Fe  Fe25  1  0.83528972  0.83383811  0.16925294  1
  Ni  Ni26  1  0.67045032  0.67025409  0.33433016  1
  Ni  Ni27  1  0.16813343  0.16797314  0.50235598  1
  Ni  Ni28  1  1.00030456  1.00171541  0.66865160  1
  Fe  Fe29  1  0.16827176  0.16872540  0.83602700  1
  Ni  Ni30  1  0.16722189  0.50420033  0.50341457  1
  Cr  Cr31  1  0.00403708  0.33557343  0.66744326  1
  Fe  Fe32  1  0.17120464  0.50263460  0.83621619  1
  Fe  Fe33  1  0.16814774  0.83466602  0.50152022  1
  Ni  Ni34  1  1.00015192  0.66990884  0.66783443  1
  Cr  Cr35  1  0.16866119  0.83457270  0.83577263  1
  Ni  Ni36  1  0.50389487  0.16734710  0.50169556  1
  Cr  Cr37  1  0.33674753  0.00390518  0.66696621  1
  Cr  Cr38  1  0.50455870  0.16934921  0.83718402  1
  Cr  Cr39  1  0.50416572  0.50326628  0.50347401  1
  Ni  Ni40  1  0.33546391  0.33586592  0.67049151  1
  Fe  Fe41  1  0.50180510  0.50409155  0.83658898  1
  Ni  Ni42  1  0.50290388  0.83653891  0.50239247  1
  Fe  Fe43  1  0.33553206  0.66870242  0.66967247  1
  Fe  Fe44  1  0.50518294  0.83457820  0.83690643  1
  Fe  Fe45  1  0.83466132  0.16901146  0.50175910  1
  Ni  Ni46  1  0.67006100  0.99985103  0.66825435  1
  Ni  Ni47  1  0.83516371  0.16676760  0.83472651  1
  Ni  Ni48  1  0.83679562  0.50351969  0.50113074  1
  Fe  Fe49  1  0.66972355  0.33424895  0.66801979  1
  Cr  Cr50  1  0.83461197  0.50316795  0.83594839  1
  Fe  Fe51  1  0.83543901  0.83467519  0.50284766  1
  Ni  Ni52  1  0.66987914  0.67162062  0.66980273  1
  Fe  Fe53  1  0.83454462  0.83713372  0.83547899  1
" 