2796,Ni48Fe47Cr4_2,-239.102138621352, 220.060137325599,Ni48Fe47Cr4,"# generated using pymatgen
 data_Cr3Fe25Ni26
_symmetry_space_group_name_H-M   'P 1'
_cell_length_a   7.40788540
_cell_length_b   7.40788540
_cell_length_c   10.47633200
_cell_angle_alpha   90.00000000
_cell_angle_beta   90.00000000
_cell_angle_gamma   90.00000000
_symmetry_Int_Tables_number   1
_chemical_formula_structural   Cr3Fe25Ni26
_chemical_formula_sum   'Cr3 Fe25 Ni26'
_cell_volume   574.90722144
_cell_formula_units_Z   1
loop_
 _symmetry_equiv_pos_site_id
 _symmetry_equiv_pos_as_xyz
  1  'x, y, z'
loop_
 _atom_site_type_symbol
 _atom_site_label
 _atom_site_symmetry_multiplicity
 _atom_site_fract_x
 _atom_site_fract_y
 _atom_site_fract_z
 _atom_site_occupancy
  Ni  Ni0  1  0.00459560  0.00641542  1.00334285  1
  Ni  Ni1  1  0.16995828  0.17050333  0.17139524  1
  Ni  Ni2  1  0.00413482  0.00481309  0.33903981  1
  Ni  Ni3  1  1.00362311  0.33658935  1.00332845  1
  Fe  Fe4  1  0.17083175  0.50252296  0.17139628  1
  Ni  Ni5  1  1.00333161  0.33631683  0.33751721  1
  Fe  Fe6  1  0.00667549  0.66947035  0.00479520  1
  Fe  Fe7  1  0.17014877  0.83998326  0.17013475  1
  Fe  Fe8  1  0.00407259  0.66985114  0.33794791  1
  Ni  Ni9  1  0.33576870  1.00264719  1.00357678  1
  Fe  Fe10  1  0.50226744  0.17015119  0.17167548  1
  Ni  Ni11  1  0.33629647  1.00304939  0.33827856  1
  Ni  Ni12  1  0.33409678  0.33773612  0.00499150  1
  Fe  Fe13  1  0.50396918  0.50320290  0.17139389  1
  Ni  Ni14  1  0.33680077  0.33701367  0.33809254  1
  Ni  Ni15  1  0.33913349  0.67151612  0.00483035  1
  Ni  Ni16  1  0.50350101  0.83683346  0.17039519  1
  Fe  Fe17  1  0.33727135  0.67011677  0.33748963  1
  Fe  Fe18  1  0.66972084  1.00365604  0.00559848  1
  Ni  Ni19  1  0.83876770  0.17071315  0.17027002  1
  Fe  Fe20  1  0.67069395  0.00595903  0.33746750  1
  Fe  Fe21  1  0.67156351  0.33780847  0.00656277  1
  Fe  Fe22  1  0.83708033  0.50411290  0.17087864  1
  Ni  Ni23  1  0.67179383  0.33925865  0.33768207  1
  Ni  Ni24  1  0.66990304  0.67105332  1.00352517  1
  Fe  Fe25  1  0.83742447  0.83865202  0.17080986  1
  Ni  Ni26  1  0.67000997  0.67103711  0.33893562  1
  Fe  Fe27  1  0.17017520  0.17339901  0.50266141  1
  Fe  Fe28  1  0.00528740  0.00425963  0.66984991  1
  Fe  Fe29  1  0.16900775  0.17073118  0.83833770  1
  Ni  Ni30  1  0.17043955  0.50496467  0.50369045  1
  Ni  Ni31  1  1.00384888  0.33669826  0.67079438  1
  Fe  Fe32  1  0.17031060  0.50540151  0.83655817  1
  Fe  Fe33  1  0.17064826  0.83719580  0.50452645  1
  Fe  Fe34  1  0.00538583  0.66946340  0.66990944  1
  Ni  Ni35  1  0.17172815  0.83743451  0.83825012  1
  Ni  Ni36  1  0.50429202  0.17032544  0.50184241  1
  Fe  Fe37  1  0.33660603  1.00377959  0.66971825  1
  Cr  Cr38  1  0.50365004  0.16981454  0.83948304  1
  Ni  Ni39  1  0.50327525  0.50341557  0.50349535  1
  Fe  Fe40  1  0.33627499  0.33694925  0.66818692  1
  Cr  Cr41  1  0.50489637  0.50426944  0.83670590  1
  Fe  Fe42  1  0.50445345  0.83660423  0.50384348  1
  Ni  Ni43  1  0.33824609  0.67203948  0.66995986  1
  Ni  Ni44  1  0.50217950  0.83778974  0.83644823  1
  Ni  Ni45  1  0.83727831  0.17043619  0.50421979  1
  Ni  Ni46  1  0.67021495  1.00288223  0.66912459  1
  Fe  Fe47  1  0.83805110  0.17103690  0.83638390  1
  Ni  Ni48  1  0.83853442  0.50341485  0.50350613  1
  Fe  Fe49  1  0.67183522  0.33685874  0.66790002  1
  Ni  Ni50  1  0.83919433  0.50238754  0.83760232  1
  Fe  Fe51  1  0.83692889  0.83683548  0.50373269  1
  Fe  Fe52  1  0.67162009  0.66985160  0.66920186  1
  Cr  Cr53  1  0.83783484  0.83641036  0.83834779  1
" 