6114,Ni48Fe47Cr4_14,-238.572346564042, 218.49580040945,Ni48Fe47Cr4,"# generated using pymatgen
 data_Cr3Fe25Ni26
_symmetry_space_group_name_H-M   'P 1'
_cell_length_a   7.40840450
_cell_length_b   7.40840450
_cell_length_c   10.47706611
_cell_angle_alpha   90.00000000
_cell_angle_beta   90.00000000
_cell_angle_gamma   90.00000000
_symmetry_Int_Tables_number   1
_chemical_formula_structural   Cr3Fe25Ni26
_chemical_formula_sum   'Cr3 Fe25 Ni26'
_cell_volume   575.02808650
_cell_formula_units_Z   1
loop_
 _symmetry_equiv_pos_site_id
 _symmetry_equiv_pos_as_xyz
  1  'x, y, z'
loop_
 _atom_site_type_symbol
 _atom_site_label
 _atom_site_symmetry_multiplicity
 _atom_site_fract_x
 _atom_site_fract_y
 _atom_site_fract_z
 _atom_site_occupancy
  Ni  Ni0  1  0.00506962  1.00343659  0.00452173  1
  Fe  Fe1  1  0.17108996  0.16903761  0.17116933  1
  Fe  Fe2  1  0.00439443  1.00297545  0.33581307  1
  Cr  Cr3  1  1.00374228  0.33525304  1.00347782  1
  Ni  Ni4  1  0.17282134  0.50558944  0.17150203  1
  Ni  Ni5  1  0.00437896  0.33782581  0.33760884  1
  Fe  Fe6  1  0.00514334  0.67381926  1.00383456  1
  Ni  Ni7  1  0.16941090  0.83610968  0.17035144  1
  Ni  Ni8  1  0.00461831  0.67040841  0.33821669  1
  Ni  Ni9  1  0.33617350  1.00270690  1.00274745  1
  Ni  Ni10  1  0.50418772  0.17133510  0.17094935  1
  Ni  Ni11  1  0.33738018  1.00362673  0.33851427  1
  Fe  Fe12  1  0.33916400  0.33717184  1.00371059  1
  Fe  Fe13  1  0.50262850  0.50447599  0.17049796  1
  Fe  Fe14  1  0.33717057  0.33724925  0.33739550  1
  Ni  Ni15  1  0.33796589  0.67192117  0.00451067  1
  Fe  Fe16  1  0.50307468  0.83701434  0.17065908  1
  Fe  Fe17  1  0.33661866  0.66993027  0.33733375  1
  Fe  Fe18  1  0.67065800  0.00397219  1.00332796  1
  Fe  Fe19  1  0.83706321  0.16859148  0.17120039  1
  Fe  Fe20  1  0.67021313  1.00352775  0.33735591  1
  Ni  Ni21  1  0.66948534  0.33716585  1.00228395  1
  Cr  Cr22  1  0.83762186  0.50554272  0.17139222  1
  Ni  Ni23  1  0.67035746  0.33735669  0.33801075  1
  Ni  Ni24  1  0.66875562  0.67061676  1.00306782  1
  Ni  Ni25  1  0.83854433  0.83862766  0.17070797  1
  Fe  Fe26  1  0.67055979  0.67139723  0.33863769  1
  Fe  Fe27  1  0.17294934  0.17016931  0.50392966  1
  Fe  Fe28  1  1.00389514  1.00204843  0.67262366  1
  Ni  Ni29  1  0.17196744  0.17037863  0.83674559  1
  Fe  Fe30  1  0.17100064  0.50436273  0.50372604  1
  Fe  Fe31  1  0.00467173  0.33835814  0.67175450  1
  Ni  Ni32  1  0.17169074  0.50544641  0.83709577  1
  Fe  Fe33  1  0.17174298  0.83734088  0.50362052  1
  Fe  Fe34  1  1.00348019  0.67146423  0.67046142  1
  Ni  Ni35  1  0.16940748  0.83605076  0.83753993  1
  Ni  Ni36  1  0.50273790  0.17131314  0.50429773  1
  Fe  Fe37  1  0.33843463  1.00345153  0.67060743  1
  Ni  Ni38  1  0.50462231  0.17152693  0.83662814  1
  Ni  Ni39  1  0.50327041  0.50353981  0.50306799  1
  Fe  Fe40  1  0.33830720  0.33760888  0.67076612  1
  Fe  Fe41  1  0.50383615  0.50421326  0.83710199  1
  Ni  Ni42  1  0.50441312  0.83702149  0.50371114  1
  Ni  Ni43  1  0.33778634  0.67116089  0.67005413  1
  Fe  Fe44  1  0.50336943  0.83761086  0.83670691  1
  Cr  Cr45  1  0.83582919  0.16968011  0.50304135  1
  Ni  Ni46  1  0.66969886  1.00307478  0.67164367  1
  Ni  Ni47  1  0.83528654  0.16924207  0.83756319  1
  Fe  Fe48  1  0.83590339  0.50576877  0.50315862  1
  Fe  Fe49  1  0.66889103  0.33802302  0.67134696  1
  Fe  Fe50  1  0.83676700  0.50420085  0.83688842  1
  Ni  Ni51  1  0.83732635  0.83553595  0.50337821  1
  Ni  Ni52  1  0.67005641  0.67101383  0.66967614  1
  Ni  Ni53  1  0.83809188  0.83743443  0.83779138  1
" 