5482,Ni48Fe15Cr36_13,-226.021369035599, 166.501849240499,Ni48Fe15Cr36,"# generated using pymatgen
 data_Cr10Fe4Ni13
_symmetry_space_group_name_H-M   'P 1'
_cell_length_a   7.48134241
_cell_length_b   7.48134241
_cell_length_c   10.58021589
_cell_angle_alpha   90.00000000
_cell_angle_beta   90.00000000
_cell_angle_gamma   90.00000000
_symmetry_Int_Tables_number   1
_chemical_formula_structural   Cr10Fe4Ni13
_chemical_formula_sum   'Cr20 Fe8 Ni26'
_cell_volume   592.17980648
_cell_formula_units_Z   2
loop_
 _symmetry_equiv_pos_site_id
 _symmetry_equiv_pos_as_xyz
  1  'x, y, z'
loop_
 _atom_site_type_symbol
 _atom_site_label
 _atom_site_symmetry_multiplicity
 _atom_site_fract_x
 _atom_site_fract_y
 _atom_site_fract_z
 _atom_site_occupancy
  Fe  Fe0  1  0.00019160  0.00078358  -0.00066031  1
  Ni  Ni1  1  0.16566748  0.16369791  0.16723669  1
  Ni  Ni2  1  0.99848268  0.00093968  0.33151698  1
  Cr  Cr3  1  -0.00075912  0.33056035  -0.00049980  1
  Ni  Ni4  1  0.16406134  0.49862632  0.16761783  1
  Ni  Ni5  1  0.99672869  0.32926345  0.32946037  1
  Cr  Cr6  1  -0.00072583  0.66382134  0.99861573  1
  Ni  Ni7  1  0.16572935  0.83501257  0.16855780  1
  Cr  Cr8  1  0.99897719  0.66691458  0.33262397  1
  Cr  Cr9  1  0.33185094  0.00202682  -0.00029350  1
  Ni  Ni10  1  0.50060891  0.16342898  0.16684346  1
  Ni  Ni11  1  0.33250026  0.99848533  0.33156419  1
  Cr  Cr12  1  0.33106666  0.33068089  0.99660296  1
  Cr  Cr13  1  0.50034893  0.49648539  0.16767720  1
  Cr  Cr14  1  0.33243950  0.33027452  0.33169615  1
  Cr  Cr15  1  0.33146895  0.66498469  0.00086185  1
  Fe  Fe16  1  0.49698943  0.83483001  0.16767360  1
  Ni  Ni17  1  0.33148861  0.66846571  0.33050607  1
  Fe  Fe18  1  0.66621750  0.00422524  -0.00079772  1
  Fe  Fe19  1  0.83254435  0.16727780  0.16716118  1
  Ni  Ni20  1  0.66612338  0.00212862  0.33192172  1
  Fe  Fe21  1  0.66548325  0.33070606  0.99817835  1
  Ni  Ni22  1  0.83281426  0.49662814  0.16674920  1
  Ni  Ni23  1  0.66729032  0.32853144  0.33267331  1
  Cr  Cr24  1  0.66619306  0.66479865  0.99871484  1
  Cr  Cr25  1  0.83187250  0.83556211  0.16466279  1
  Cr  Cr26  1  0.66559862  0.66687644  0.33354969  1
  Cr  Cr27  1  0.16362680  0.16441416  0.49866662  1
  Ni  Ni28  1  0.99708139  0.00146623  0.66568880  1
  Ni  Ni29  1  0.16397878  0.16560585  0.83102162  1
  Cr  Cr30  1  0.16645394  0.49913341  0.49885915  1
  Ni  Ni31  1  0.99700110  0.32900777  0.66853163  1
  Ni  Ni32  1  0.16456284  0.49824670  0.83029957  1
  Fe  Fe33  1  0.16527879  0.83402946  0.49913352  1
  Fe  Fe34  1  0.99835216  0.66444002  0.66528934  1
  Cr  Cr35  1  0.16491413  0.83371062  0.82883421  1
  Ni  Ni36  1  0.50246438  0.16549486  0.49916501  1
  Fe  Fe37  1  0.33383316  0.00124188  0.66530665  1
  Ni  Ni38  1  0.50178495  0.16654432  0.83121794  1
  Ni  Ni39  1  0.49863492  0.49726976  0.49887783  1
  Cr  Cr40  1  0.33412766  0.33169052  0.66864470  1
  Ni  Ni41  1  0.50010279  0.49699910  0.83141308  1
  Cr  Cr42  1  0.49787248  0.83486439  0.49782652  1
  Ni  Ni43  1  0.33177472  0.66518623  0.66619758  1
  Cr  Cr44  1  0.49943809  0.83445007  0.83289918  1
  Ni  Ni45  1  0.83126323  0.16330611  0.49785902  1
  Ni  Ni46  1  0.66832844  0.00259178  0.66552999  1
  Ni  Ni47  1  0.83175804  0.16662804  0.83275738  1
  Cr  Cr48  1  0.83254123  0.49384222  0.49919763  1
  Ni  Ni49  1  0.66720090  0.32903246  0.66693382  1
  Ni  Ni50  1  0.83227228  0.49575150  0.83098270  1
  Ni  Ni51  1  0.83424888  0.83742895  0.50031345  1
  Cr  Cr52  1  0.66536542  0.66487121  0.66495561  1
  Cr  Cr53  1  0.83289611  0.83514618  0.83159324  1
" 