5708,Ni48Fe52_1,-241.655689118055, 224.488830372272,Ni48Fe52,"# generated using pymatgen
 data_Fe25Ni29
_symmetry_space_group_name_H-M   'P 1'
_cell_length_a   7.40270539
_cell_length_b   7.40270539
_cell_length_c   10.46900636
_cell_angle_alpha   90.00000000
_cell_angle_beta   90.00000000
_cell_angle_gamma   90.00000000
_symmetry_Int_Tables_number   1
_chemical_formula_structural   Fe25Ni29
_chemical_formula_sum   'Fe25 Ni29'
_cell_volume   573.70204170
_cell_formula_units_Z   1
loop_
 _symmetry_equiv_pos_site_id
 _symmetry_equiv_pos_as_xyz
  1  'x, y, z'
loop_
 _atom_site_type_symbol
 _atom_site_label
 _atom_site_symmetry_multiplicity
 _atom_site_fract_x
 _atom_site_fract_y
 _atom_site_fract_z
 _atom_site_occupancy
  Fe  Fe0  1  1.00407413  1.00349039  1.00422390  1
  Ni  Ni1  1  0.16959229  0.16968322  0.17031673  1
  Fe  Fe2  1  1.00413270  0.00499024  0.33794191  1
  Fe  Fe3  1  1.00355820  0.33788249  0.00470579  1
  Fe  Fe4  1  0.17057815  0.50447777  0.17109609  1
  Ni  Ni5  1  1.00416577  0.33767194  0.33713591  1
  Ni  Ni6  1  0.00489679  0.66986054  0.00480442  1
  Ni  Ni7  1  0.17155860  0.83804713  0.17121743  1
  Fe  Fe8  1  0.00441894  0.67065981  0.33719809  1
  Ni  Ni9  1  0.33816369  1.00382910  0.00480282  1
  Fe  Fe10  1  0.50440827  0.17057959  0.17044896  1
  Fe  Fe11  1  0.33705701  0.00490049  0.33702622  1
  Fe  Fe12  1  0.33902552  0.33844687  1.00414066  1
  Ni  Ni13  1  0.50489507  0.50540928  0.17056854  1
  Fe  Fe14  1  0.33746378  0.33796581  0.33810530  1
  Ni  Ni15  1  0.33736861  0.67173332  0.00525307  1
  Ni  Ni16  1  0.50327042  0.83643156  0.17047941  1
  Fe  Fe17  1  0.33734407  0.67017325  0.33753688  1
  Ni  Ni18  1  0.66996236  0.00499888  0.00500491  1
  Ni  Ni19  1  0.83830893  0.17130475  0.17101754  1
  Fe  Fe20  1  0.67184982  0.00510829  0.33810432  1
  Ni  Ni21  1  0.67183197  0.33748672  0.00504961  1
  Ni  Ni22  1  0.83669113  0.50343928  0.17101562  1
  Fe  Fe23  1  0.67136497  0.33767756  0.33712491  1
  Ni  Ni24  1  0.67076590  0.67054673  0.00515543  1
  Fe  Fe25  1  0.83738848  0.83731680  0.17107372  1
  Fe  Fe26  1  0.67127372  0.67024630  0.33754483  1
  Fe  Fe27  1  0.17058476  0.17160402  0.50399229  1
  Ni  Ni28  1  0.00459331  0.00640795  0.67040250  1
  Fe  Fe29  1  0.17149795  0.17113909  0.83765753  1
  Ni  Ni30  1  0.17216001  0.50540974  0.50405582  1
  Ni  Ni31  1  1.00426379  0.33708894  0.67060621  1
  Ni  Ni32  1  0.17215872  0.50650161  0.83866145  1
  Fe  Fe33  1  0.17135524  0.83794748  0.50491077  1
  Fe  Fe34  1  0.00492067  0.67219129  0.67141037  1
  Ni  Ni35  1  0.17065023  0.83653093  0.83711747  1
  Ni  Ni36  1  0.50565625  0.17171173  0.50414551  1
  Ni  Ni37  1  0.33786933  1.00374315  0.67020261  1
  Ni  Ni38  1  0.50614484  0.17152306  0.83822618  1
  Ni  Ni39  1  0.50298611  0.50390651  0.50495123  1
  Fe  Fe40  1  0.33822288  0.33777591  0.67079165  1
  Ni  Ni41  1  0.50347691  0.50418745  0.83752507  1
  Fe  Fe42  1  0.50492935  0.83767814  0.50456208  1
  Ni  Ni43  1  0.33865804  0.67141510  0.67054866  1
  Fe  Fe44  1  0.50383769  0.83775438  0.83816248  1
  Ni  Ni45  1  0.83708005  0.16940423  0.50460496  1
  Ni  Ni46  1  0.67057998  1.00408157  0.67054146  1
  Ni  Ni47  1  0.83660323  0.17001501  0.83741495  1
  Fe  Fe48  1  0.83748897  0.50372135  0.50378601  1
  Fe  Fe49  1  0.67039376  0.33662436  0.67148790  1
  Fe  Fe50  1  0.83761249  0.50405048  0.83859398  1
  Ni  Ni51  1  0.83858232  0.83927678  0.50436028  1
  Ni  Ni52  1  0.66976763  0.67107550  0.67088541  1
  Fe  Fe53  1  0.83719255  0.83755247  0.83697850  1
" 