2553,Ni48Fe52_7,-241.444743821534, 224.384401700111,Ni48Fe52,"# generated using pymatgen
 data_Fe25Ni29
_symmetry_space_group_name_H-M   'P 1'
_cell_length_a   7.39618087
_cell_length_b   7.39618087
_cell_length_c   10.45977930
_cell_angle_alpha   90.00000000
_cell_angle_beta   90.00000000
_cell_angle_gamma   90.00000000
_symmetry_Int_Tables_number   1
_chemical_formula_structural   Fe25Ni29
_chemical_formula_sum   'Fe25 Ni29'
_cell_volume   572.18644727
_cell_formula_units_Z   1
loop_
 _symmetry_equiv_pos_site_id
 _symmetry_equiv_pos_as_xyz
  1  'x, y, z'
loop_
 _atom_site_type_symbol
 _atom_site_label
 _atom_site_symmetry_multiplicity
 _atom_site_fract_x
 _atom_site_fract_y
 _atom_site_fract_z
 _atom_site_occupancy
  Ni  Ni0  1  1.00461847  1.00367305  1.00448497  1
  Fe  Fe1  1  0.17123819  0.17267406  0.17167335  1
  Ni  Ni2  1  1.00432053  1.00410254  0.33891297  1
  Fe  Fe3  1  1.00325048  0.33766602  0.00520665  1
  Fe  Fe4  1  0.17184017  0.50305213  0.17175177  1
  Ni  Ni5  1  0.00591025  0.33813076  0.33784851  1
  Fe  Fe6  1  1.00431215  0.67125114  1.00457463  1
  Fe  Fe7  1  0.17093901  0.83864529  0.17145979  1
  Fe  Fe8  1  1.00430304  0.67073129  0.33901668  1
  Fe  Fe9  1  0.33919185  1.00469674  1.00406865  1
  Ni  Ni10  1  0.50599774  0.17180877  0.17011702  1
  Fe  Fe11  1  0.33827843  0.00630852  0.33892762  1
  Ni  Ni12  1  0.33811163  0.33916908  1.00469160  1
  Ni  Ni13  1  0.50523534  0.50359525  0.17205239  1
  Ni  Ni14  1  0.33759683  0.33935927  0.33849631  1
  Fe  Fe15  1  0.33913333  0.67146468  1.00414420  1
  Fe  Fe16  1  0.50653582  0.83818094  0.17065705  1
  Fe  Fe17  1  0.33758884  0.67097720  0.33817689  1
  Ni  Ni18  1  0.67288679  1.00367561  1.00441398  1
  Ni  Ni19  1  0.83702119  0.17181245  0.17279600  1
  Ni  Ni20  1  0.67284727  1.00410282  0.33812158  1
  Ni  Ni21  1  0.67001779  0.33915900  1.00478444  1
  Ni  Ni22  1  0.83777898  0.50358230  0.17087002  1
  Ni  Ni23  1  0.67086956  0.33850545  0.33812703  1
  Ni  Ni24  1  0.67162763  0.67153568  0.00490051  1
  Fe  Fe25  1  0.83690814  0.83877652  0.17174430  1
  Fe  Fe26  1  0.67248465  0.67051054  0.33804730  1
  Fe  Fe27  1  0.17119549  0.17168242  0.50449154  1
  Fe  Fe28  1  1.00436606  1.00477600  0.67162414  1
  Fe  Fe29  1  0.17237080  0.17146513  0.83821096  1
  Ni  Ni30  1  0.17090540  0.50581914  0.50431005  1
  Fe  Fe31  1  1.00420530  0.33822355  0.67104078  1
  Ni  Ni32  1  0.17228673  0.50600977  0.83861337  1
  Ni  Ni33  1  0.17092092  0.83756340  0.50505669  1
  Fe  Fe34  1  0.00496169  0.67137494  0.67078075  1
  Ni  Ni35  1  0.17229358  0.83746405  0.83786010  1
  Ni  Ni36  1  0.50546376  0.17136652  0.50510126  1
  Ni  Ni37  1  0.33723416  0.00498674  0.67155776  1
  Fe  Fe38  1  0.50420517  0.17168278  0.83766075  1
  Fe  Fe39  1  0.50492795  0.50478026  0.50500921  1
  Ni  Ni40  1  0.33759602  0.33841275  0.67117995  1
  Ni  Ni41  1  0.50415301  0.50488821  0.83770396  1
  Fe  Fe42  1  0.50531396  0.83799886  0.50581205  1
  Fe  Fe43  1  0.33897023  0.67161599  0.67205173  1
  Ni  Ni44  1  0.50377522  0.83821692  0.83802625  1
  Fe  Fe45  1  0.83840258  0.17130137  0.50435452  1
  Ni  Ni46  1  0.67166567  1.00337078  0.67183355  1
  Ni  Ni47  1  0.83715935  0.17128571  0.83781276  1
  Ni  Ni48  1  0.83877143  0.50467003  0.50498842  1
  Ni  Ni49  1  0.67053158  0.33925665  0.67145570  1
  Fe  Fe50  1  0.83732422  0.50551573  0.83804323  1
  Ni  Ni51  1  0.83914661  0.83831167  0.50489120  1
  Ni  Ni52  1  0.67215731  0.67174526  0.67124588  1
  Fe  Fe53  1  0.83755301  0.83776961  0.83791860  1
" 