704,Ni48Fe38Cr12_4,-236.082616846361, 209.457093647687,Ni48Fe38Cr12,"# generated using pymatgen
 data_Cr4Fe10Ni13
_symmetry_space_group_name_H-M   'P 1'
_cell_length_a   7.42976197
_cell_length_b   7.42976197
_cell_length_c   10.50727015
_cell_angle_alpha   90.00000000
_cell_angle_beta   90.00000000
_cell_angle_gamma   90.00000000
_symmetry_Int_Tables_number   1
_chemical_formula_structural   Cr4Fe10Ni13
_chemical_formula_sum   'Cr8 Fe20 Ni26'
_cell_volume   580.01563370
_cell_formula_units_Z   2
loop_
 _symmetry_equiv_pos_site_id
 _symmetry_equiv_pos_as_xyz
  1  'x, y, z'
loop_
 _atom_site_type_symbol
 _atom_site_label
 _atom_site_symmetry_multiplicity
 _atom_site_fract_x
 _atom_site_fract_y
 _atom_site_fract_z
 _atom_site_occupancy
  Ni  Ni0  1  1.00202846  0.00341744  1.00220447  1
  Fe  Fe1  1  0.16597164  0.17040790  0.16813694  1
  Ni  Ni2  1  0.00268669  0.00370253  0.33755584  1
  Fe  Fe3  1  1.00175778  0.33621605  1.00160913  1
  Fe  Fe4  1  0.16707243  0.50302053  0.16995404  1
  Fe  Fe5  1  1.00072000  0.33566722  0.33525847  1
  Fe  Fe6  1  0.00284821  0.66903997  1.00218632  1
  Cr  Cr7  1  0.16806638  0.83520997  0.16900881  1
  Ni  Ni8  1  1.00027561  0.67010735  0.33611371  1
  Ni  Ni9  1  0.33370885  1.00234963  1.00015005  1
  Fe  Fe10  1  0.50487290  0.16989975  0.16809064  1
  Cr  Cr11  1  0.33277358  0.00400313  0.33717456  1
  Cr  Cr12  1  0.33708431  0.33773689  0.00316506  1
  Ni  Ni13  1  0.50251178  0.50086372  0.17246383  1
  Fe  Fe14  1  0.33686939  0.33671141  0.33527478  1
  Ni  Ni15  1  0.33650800  0.66908270  1.00172497  1
  Fe  Fe16  1  0.50298602  0.83332489  0.16887290  1
  Ni  Ni17  1  0.33645637  0.66677122  0.33423685  1
  Fe  Fe18  1  0.66855226  0.00322426  1.00212768  1
  Fe  Fe19  1  0.83669887  0.17103926  0.16811439  1
  Cr  Cr20  1  0.67228157  1.00235898  0.33372030  1
  Ni  Ni21  1  0.67017278  0.33639880  1.00141964  1
  Ni  Ni22  1  0.83493088  0.50080614  0.17006858  1
  Ni  Ni23  1  0.66911296  0.33804640  0.33701785  1
  Cr  Cr24  1  0.66867467  0.66656030  0.00311585  1
  Ni  Ni25  1  0.83699808  0.83640436  0.17011286  1
  Ni  Ni26  1  0.67096219  0.66573063  0.33528121  1
  Fe  Fe27  1  0.16825945  0.16909377  0.50375065  1
  Cr  Cr28  1  0.00261442  1.00227220  0.66693784  1
  Ni  Ni29  1  0.16811556  0.16952364  0.83529093  1
  Cr  Cr30  1  0.17138778  0.50395975  0.50145021  1
  Fe  Fe31  1  1.00230805  0.33642557  0.67079809  1
  Ni  Ni32  1  0.17077395  0.50323421  0.83691458  1
  Ni  Ni33  1  0.16860791  0.83414634  0.50272491  1
  Fe  Fe34  1  0.00283616  0.66956401  0.66973510  1
  Ni  Ni35  1  0.16959807  0.83504412  0.83575278  1
  Fe  Fe36  1  0.50353899  0.17034879  0.50461253  1
  Ni  Ni37  1  0.33473152  0.00391027  0.67040920  1
  Fe  Fe38  1  0.50209007  0.16845378  0.83503570  1
  Fe  Fe39  1  0.50480332  0.50190356  0.50311339  1
  Ni  Ni40  1  0.33565217  0.33567973  0.66914313  1
  Ni  Ni41  1  0.50192304  0.50179167  0.83321249  1
  Cr  Cr42  1  0.50240642  0.83322542  0.50366651  1
  Ni  Ni43  1  0.33627705  0.66793345  0.67159549  1
  Fe  Fe44  1  0.50131733  0.83619208  0.83411070  1
  Ni  Ni45  1  0.83428557  0.17106402  0.50137772  1
  Ni  Ni46  1  0.67065145  1.00249151  0.67092812  1
  Ni  Ni47  1  0.83459550  0.16922494  0.83787204  1
  Fe  Fe48  1  0.83499933  0.50391524  0.50168535  1
  Fe  Fe49  1  0.66852207  0.33466789  0.66959059  1
  Fe  Fe50  1  0.83760681  0.50197774  0.83564650  1
  Ni  Ni51  1  0.83638802  0.83617834  0.50112878  1
  Ni  Ni52  1  0.67145281  0.66751648  0.66902488  1
  Ni  Ni53  1  0.83617173  0.83765726  0.83582932  1
" 