8088,Ni48Fe15Cr36_16,-225.874778151418, 168.915689418095,Ni48Fe15Cr36,"# generated using pymatgen
 data_Cr10Fe4Ni13
_symmetry_space_group_name_H-M   'P 1'
_cell_length_a   7.48569049
_cell_length_b   7.48569049
_cell_length_c   10.58636501
_cell_angle_alpha   90.00000000
_cell_angle_beta   90.00000000
_cell_angle_gamma   90.00000000
_symmetry_Int_Tables_number   1
_chemical_formula_structural   Cr10Fe4Ni13
_chemical_formula_sum   'Cr20 Fe8 Ni26'
_cell_volume   593.21291341
_cell_formula_units_Z   2
loop_
 _symmetry_equiv_pos_site_id
 _symmetry_equiv_pos_as_xyz
  1  'x, y, z'
loop_
 _atom_site_type_symbol
 _atom_site_label
 _atom_site_symmetry_multiplicity
 _atom_site_fract_x
 _atom_site_fract_y
 _atom_site_fract_z
 _atom_site_occupancy
  Cr  Cr0  1  0.99745798  0.00054047  -0.00074974  1
  Ni  Ni1  1  0.16398492  0.16930853  0.16615869  1
  Cr  Cr2  1  0.99820960  0.99817098  0.33011828  1
  Fe  Fe3  1  0.99712284  0.33225576  0.00156437  1
  Ni  Ni4  1  0.16437874  0.49537597  0.16688649  1
  Ni  Ni5  1  0.99714298  0.33263581  0.32939033  1
  Cr  Cr6  1  -0.00041197  0.66669580  0.00125349  1
  Ni  Ni7  1  0.16294798  0.83185120  0.16742392  1
  Ni  Ni8  1  -0.00102392  0.66481254  0.33240252  1
  Cr  Cr9  1  0.33140097  0.99872294  -0.00067000  1
  Cr  Cr10  1  0.50078846  0.16486558  0.16818495  1
  Fe  Fe11  1  0.33189577  -0.00073437  0.33279682  1
  Fe  Fe12  1  0.33418721  0.33226382  -0.00009108  1
  Ni  Ni13  1  0.49939189  0.49579073  0.16341244  1
  Ni  Ni14  1  0.33235934  0.33195423  0.32967860  1
  Cr  Cr15  1  0.33429013  0.66321553  -0.00011243  1
  Cr  Cr16  1  0.50395412  0.83342456  0.16598129  1
  Cr  Cr17  1  0.32991880  0.66536784  0.32910777  1
  Ni  Ni18  1  0.66740364  -0.00063469  0.99628928  1
  Ni  Ni19  1  0.83190605  0.16587900  0.16463285  1
  Ni  Ni20  1  0.66770171  0.00111959  0.33444618  1
  Fe  Fe21  1  0.66444675  0.33138571  -0.00108543  1
  Fe  Fe22  1  0.83208716  0.49775216  0.16672073  1
  Ni  Ni23  1  0.66684444  0.32997850  0.33234732  1
  Ni  Ni24  1  0.66517938  0.66450134  -0.00096629  1
  Ni  Ni25  1  0.83131948  0.83299412  0.16522443  1
  Cr  Cr26  1  0.66710079  0.66432289  0.33165880  1
  Cr  Cr27  1  0.16800946  0.16630975  0.49707137  1
  Cr  Cr28  1  0.99678478  0.99792477  0.66736949  1
  Cr  Cr29  1  0.16632038  0.16721503  0.83245584  1
  Cr  Cr30  1  0.16391128  0.49907349  0.50037106  1
  Cr  Cr31  1  0.99429609  0.32965177  0.66372364  1
  Cr  Cr32  1  0.16620885  0.49869354  0.82864636  1
  Ni  Ni33  1  0.16653435  0.83159210  0.50070806  1
  Fe  Fe34  1  0.99840391  0.66818925  0.66348643  1
  Fe  Fe35  1  0.16688664  0.83157739  0.83046004  1
  Fe  Fe36  1  0.49875911  0.16360577  0.49709874  1
  Ni  Ni37  1  0.33324554  0.99665437  0.66506482  1
  Ni  Ni38  1  0.49907253  0.16496643  0.83158119  1
  Cr  Cr39  1  0.49708027  0.49773015  0.49880376  1
  Ni  Ni40  1  0.33483270  0.33158194  0.66759339  1
  Ni  Ni41  1  0.49788078  0.49856056  0.83356291  1
  Ni  Ni42  1  0.49774686  0.83557237  0.49823190  1
  Ni  Ni43  1  0.33272854  0.66812009  0.66759592  1
  Ni  Ni44  1  0.50075168  0.83249673  0.83226407  1
  Ni  Ni45  1  0.83085372  0.16574183  0.49546447  1
  Cr  Cr46  1  0.66572168  0.00022250  0.66505645  1
  Ni  Ni47  1  0.82925806  0.16420283  0.83547235  1
  Ni  Ni48  1  0.83389404  0.49863745  0.49540792  1
  Cr  Cr49  1  0.66465983  0.33013898  0.66435601  1
  Cr  Cr50  1  0.83169809  0.50015427  0.83314054  1
  Ni  Ni51  1  0.83218105  0.83191679  0.49762332  1
  Cr  Cr52  1  0.66403648  0.66577879  0.66483744  1
  Ni  Ni53  1  0.82901540  0.83263186  0.83330531  1
" 