6154,Ni48Fe47Cr4_0,-238.714245422784, 216.455248884071,Ni48Fe47Cr4,"# generated using pymatgen
 data_Cr3Fe25Ni26
_symmetry_space_group_name_H-M   'P 1'
_cell_length_a   7.41181857
_cell_length_b   7.41181857
_cell_length_c   10.48189434
_cell_angle_alpha   90.00000000
_cell_angle_beta   90.00000000
_cell_angle_gamma   90.00000000
_symmetry_Int_Tables_number   1
_chemical_formula_structural   Cr3Fe25Ni26
_chemical_formula_sum   'Cr3 Fe25 Ni26'
_cell_volume   575.82343663
_cell_formula_units_Z   1
loop_
 _symmetry_equiv_pos_site_id
 _symmetry_equiv_pos_as_xyz
  1  'x, y, z'
loop_
 _atom_site_type_symbol
 _atom_site_label
 _atom_site_symmetry_multiplicity
 _atom_site_fract_x
 _atom_site_fract_y
 _atom_site_fract_z
 _atom_site_occupancy
  Fe  Fe0  1  0.00420917  1.00234186  0.00404606  1
  Fe  Fe1  1  0.17063385  0.17015252  0.17087091  1
  Ni  Ni2  1  1.00370145  0.00468681  0.33664595  1
  Fe  Fe3  1  0.00395074  0.33789846  0.00377395  1
  Ni  Ni4  1  0.17055151  0.50402620  0.17016615  1
  Ni  Ni5  1  0.00519516  0.33583799  0.33688881  1
  Ni  Ni6  1  1.00316122  0.67027424  1.00342789  1
  Ni  Ni7  1  0.17132039  0.83646945  0.17089708  1
  Fe  Fe8  1  0.00455341  0.66973013  0.33643132  1
  Ni  Ni9  1  0.33720192  0.00412846  1.00359513  1
  Fe  Fe10  1  0.50273501  0.16989912  0.16982469  1
  Fe  Fe11  1  0.33675411  1.00335142  0.33669306  1
  Ni  Ni12  1  0.33602956  0.33708391  1.00321222  1
  Fe  Fe13  1  0.50313717  0.50431248  0.17030676  1
  Ni  Ni14  1  0.33579713  0.33720336  0.33767646  1
  Ni  Ni15  1  0.33727243  0.66996677  0.00398484  1
  Ni  Ni16  1  0.50325240  0.83755402  0.16978052  1
  Fe  Fe17  1  0.33651518  0.67004337  0.33694522  1
  Ni  Ni18  1  0.67053977  1.00238105  1.00367423  1
  Ni  Ni19  1  0.83663502  0.17033543  0.17019484  1
  Fe  Fe20  1  0.67074423  0.00419860  0.33695297  1
  Fe  Fe21  1  0.66971614  0.33754071  1.00358659  1
  Fe  Fe22  1  0.83749541  0.50464525  0.17006640  1
  Fe  Fe23  1  0.67105607  0.33691080  0.33697954  1
  Ni  Ni24  1  0.67074655  0.67143541  1.00335950  1
  Fe  Fe25  1  0.83723781  0.83688239  0.16984907  1
  Ni  Ni26  1  0.66988558  0.67107664  0.33680459  1
  Fe  Fe27  1  0.17117918  0.17307922  0.50198607  1
  Cr  Cr28  1  1.00200934  0.00427879  0.67139782  1
  Fe  Fe29  1  0.17044777  0.17290530  0.83832669  1
  Ni  Ni30  1  0.16997641  0.50219539  0.50395291  1
  Ni  Ni31  1  0.00460243  0.33838612  0.67033888  1
  Ni  Ni32  1  0.17002474  0.50304832  0.83706232  1
  Fe  Fe33  1  0.17029094  0.83579932  0.50112577  1
  Fe  Fe34  1  1.00223227  0.66846136  0.67163201  1
  Ni  Ni35  1  0.16925493  0.83624780  0.83918660  1
  Fe  Fe36  1  0.50360652  0.17176330  0.50334558  1
  Cr  Cr37  1  0.33862737  0.00529682  0.67063352  1
  Fe  Fe38  1  0.50413745  0.17135135  0.83800280  1
  Ni  Ni39  1  0.50350818  0.50304244  0.50292496  1
  Ni  Ni40  1  0.33577928  0.33778840  0.67028589  1
  Ni  Ni41  1  0.50400397  0.50228431  0.83761827  1
  Ni  Ni42  1  0.50578989  0.83758454  0.50309282  1
  Cr  Cr43  1  0.33853885  0.66774954  0.67135621  1
  Fe  Fe44  1  0.50590371  0.83585607  0.83895367  1
  Fe  Fe45  1  0.83639402  0.17147346  0.50238244  1
  Ni  Ni46  1  0.67113026  1.00213396  0.66985465  1
  Fe  Fe47  1  0.83658743  0.17132261  0.83792887  1
  Fe  Fe48  1  0.83656096  0.50434452  0.50416826  1
  Fe  Fe49  1  0.67004621  0.33731396  0.67060549  1
  Ni  Ni50  1  0.83714592  0.50360719  0.83617380  1
  Fe  Fe51  1  0.83523902  0.83535875  0.50352422  1
  Ni  Ni52  1  0.67172807  0.67095060  0.67100965  1
  Ni  Ni53  1  0.83641653  0.83719974  0.83768512  1
" 