3374,Ni48Fe52_18,-241.506696004391, 221.302815624665,Ni48Fe52,"# generated using pymatgen
 data_Fe25Ni29
_symmetry_space_group_name_H-M   'P 1'
_cell_length_a   7.40385881
_cell_length_b   7.40385881
_cell_length_c   10.47063755
_cell_angle_alpha   90.00000000
_cell_angle_beta   90.00000000
_cell_angle_gamma   90.00000000
_symmetry_Int_Tables_number   1
_chemical_formula_structural   Fe25Ni29
_chemical_formula_sum   'Fe25 Ni29'
_cell_volume   573.97025079
_cell_formula_units_Z   1
loop_
 _symmetry_equiv_pos_site_id
 _symmetry_equiv_pos_as_xyz
  1  'x, y, z'
loop_
 _atom_site_type_symbol
 _atom_site_label
 _atom_site_symmetry_multiplicity
 _atom_site_fract_x
 _atom_site_fract_y
 _atom_site_fract_z
 _atom_site_occupancy
  Ni  Ni0  1  1.00416902  1.00377149  1.00321883  1
  Ni  Ni1  1  0.16997579  0.17235472  0.17073906  1
  Ni  Ni2  1  1.00417937  1.00332410  0.33819631  1
  Ni  Ni3  1  1.00416144  0.33750341  0.00514646  1
  Ni  Ni4  1  0.17034151  0.50391668  0.17111143  1
  Fe  Fe5  1  0.00472531  0.33722626  0.33754476  1
  Ni  Ni6  1  0.00455473  0.67154239  1.00348483  1
  Ni  Ni7  1  0.17195492  0.83652864  0.17159192  1
  Ni  Ni8  1  0.00454380  0.67187140  0.33792257  1
  Fe  Fe9  1  0.33662542  0.00515885  0.00449216  1
  Ni  Ni10  1  0.50487580  0.17037496  0.17084517  1
  Ni  Ni11  1  0.33757568  1.00420544  0.33737006  1
  Ni  Ni12  1  0.33820339  0.33750565  1.00321595  1
  Fe  Fe13  1  0.50328555  0.50303704  0.17131543  1
  Ni  Ni14  1  0.33844392  0.33759515  0.33808033  1
  Fe  Fe15  1  0.33670884  0.67033986  0.00441064  1
  Ni  Ni16  1  0.50440256  0.83700373  0.17170015  1
  Ni  Ni17  1  0.33720419  0.67099620  0.33710459  1
  Fe  Fe18  1  0.67176796  0.00539293  1.00417496  1
  Ni  Ni19  1  0.83795195  0.17199301  0.17170490  1
  Ni  Ni20  1  0.67105164  0.00456304  0.33710521  1
  Ni  Ni21  1  0.67043328  0.33711707  1.00347785  1
  Fe  Fe22  1  0.83797617  0.50389504  0.17077689  1
  Ni  Ni23  1  0.67018181  0.33722762  0.33792097  1
  Fe  Fe24  1  0.67145184  0.67034123  0.00438979  1
  Fe  Fe25  1  0.83883149  0.83850813  0.17190938  1
  Ni  Ni26  1  0.67105767  0.67099758  0.33759323  1
  Ni  Ni27  1  0.17047476  0.17229748  0.50371990  1
  Fe  Fe28  1  0.00479725  0.00492465  0.67100466  1
  Ni  Ni29  1  0.16930225  0.17237974  0.83834818  1
  Fe  Fe30  1  0.17108517  0.50515881  0.50384562  1
  Ni  Ni31  1  1.00377022  0.33782945  0.67155131  1
  Fe  Fe32  1  0.17069990  0.50374132  0.83818297  1
  Fe  Fe33  1  0.17125095  0.83792094  0.50345419  1
  Fe  Fe34  1  0.00442177  0.67150146  0.67070424  1
  Fe  Fe35  1  0.17089906  0.83843365  0.83811065  1
  Fe  Fe36  1  0.50439393  0.16962678  0.50337386  1
  Ni  Ni37  1  0.33875718  1.00311373  0.67124803  1
  Fe  Fe38  1  0.50442426  0.17052105  0.83803194  1
  Fe  Fe39  1  0.50410730  0.50487931  0.50373872  1
  Fe  Fe40  1  0.33694228  0.33669255  0.67093283  1
  Fe  Fe41  1  0.50411405  0.50346729  0.83773902  1
  Ni  Ni42  1  0.50559379  0.83645517  0.50386850  1
  Ni  Ni43  1  0.33751333  0.67186934  0.67114727  1
  Ni  Ni44  1  0.50473672  0.83622768  0.83723015  1
  Fe  Fe45  1  0.83723305  0.16979735  0.50436274  1
  Ni  Ni46  1  0.67027513  0.00435405  0.67125456  1
  Ni  Ni47  1  0.83913944  0.17200402  0.83673617  1
  Fe  Fe48  1  0.83760421  0.50479574  0.50404716  1
  Fe  Fe49  1  0.67074535  0.33706619  0.67132055  1
  Fe  Fe50  1  0.83798281  0.50335109  0.83798143  1
  Ni  Ni51  1  0.83557882  0.83683447  0.50445825  1
  Fe  Fe52  1  0.67007813  0.67215786  0.67027370  1
  Fe  Fe53  1  0.83787742  0.83874075  0.83722310  1
" 