4852,Ni48Fe38Cr12_7,-235.548483443656, 209.968123897706,Ni48Fe38Cr12,"# generated using pymatgen
 data_Cr4Fe10Ni13
_symmetry_space_group_name_H-M   'P 1'
_cell_length_a   7.42920190
_cell_length_b   7.42920190
_cell_length_c   10.50647808
_cell_angle_alpha   90.00000000
_cell_angle_beta   90.00000000
_cell_angle_gamma   90.00000000
_symmetry_Int_Tables_number   1
_chemical_formula_structural   Cr4Fe10Ni13
_chemical_formula_sum   'Cr8 Fe20 Ni26'
_cell_volume   579.88447324
_cell_formula_units_Z   2
loop_
 _symmetry_equiv_pos_site_id
 _symmetry_equiv_pos_as_xyz
  1  'x, y, z'
loop_
 _atom_site_type_symbol
 _atom_site_label
 _atom_site_symmetry_multiplicity
 _atom_site_fract_x
 _atom_site_fract_y
 _atom_site_fract_z
 _atom_site_occupancy
  Ni  Ni0  1  1.00158103  1.00156160  1.00182715  1
  Cr  Cr1  1  0.16973396  0.17064136  0.16890798  1
  Ni  Ni2  1  1.00138196  0.00259701  0.33733591  1
  Ni  Ni3  1  1.00153058  0.33499686  1.00165411  1
  Ni  Ni4  1  0.16940648  0.50126997  0.16697196  1
  Fe  Fe5  1  1.00149288  0.33607575  0.33528485  1
  Ni  Ni6  1  0.00272276  0.67095650  0.00291459  1
  Fe  Fe7  1  0.16697049  0.83677489  0.16799929  1
  Cr  Cr8  1  1.00119829  0.67224399  0.33416441  1
  Fe  Fe9  1  0.33594464  1.00227089  1.00234142  1
  Fe  Fe10  1  0.50471977  0.17045296  0.16964359  1
  Ni  Ni11  1  0.33440136  0.00427694  0.33608493  1
  Ni  Ni12  1  0.33795246  0.33624013  1.00194514  1
  Fe  Fe13  1  0.50445793  0.50136043  0.16774290  1
  Ni  Ni14  1  0.33859724  0.33457994  0.33687517  1
  Ni  Ni15  1  0.33568531  0.66923243  0.00310695  1
  Fe  Fe16  1  0.50372965  0.83547168  0.16898267  1
  Cr  Cr17  1  0.33522856  0.66847861  0.33539944  1
  Fe  Fe18  1  0.66997633  0.00274762  1.00239913  1
  Ni  Ni19  1  0.83559817  0.16886043  0.16923956  1
  Fe  Fe20  1  0.66961916  0.00278517  0.33549882  1
  Ni  Ni21  1  0.66851744  0.33461423  1.00226036  1
  Ni  Ni22  1  0.83496838  0.50283015  0.16700499  1
  Ni  Ni23  1  0.66874118  0.33502946  0.33608883  1
  Ni  Ni24  1  0.66924498  0.66899787  1.00158903  1
  Ni  Ni25  1  0.83311123  0.83577462  0.16868760  1
  Ni  Ni26  1  0.67038159  0.66701659  0.33622253  1
  Ni  Ni27  1  0.16917228  0.16908113  0.50244410  1
  Fe  Fe28  1  1.00193492  0.00444376  0.66897873  1
  Ni  Ni29  1  0.16905943  0.16838528  0.83616255  1
  Fe  Fe30  1  0.16728732  0.50052627  0.50059538  1
  Fe  Fe31  1  1.00150576  0.33473923  0.66973617  1
  Fe  Fe32  1  0.17008082  0.50066550  0.83941800  1
  Ni  Ni33  1  0.16827439  0.84045114  0.50253892  1
  Cr  Cr34  1  0.00263853  0.67063446  0.66963671  1
  Fe  Fe35  1  0.17071147  0.83759212  0.83745244  1
  Ni  Ni36  1  0.50093786  0.16819904  0.50086855  1
  Fe  Fe37  1  0.33667489  0.00347268  0.66939665  1
  Ni  Ni38  1  0.50085060  0.16807644  0.83795010  1
  Fe  Fe39  1  0.50506668  0.50160990  0.50155872  1
  Cr  Cr40  1  0.33619486  0.33481684  0.66866181  1
  Ni  Ni41  1  0.50423849  0.50403426  0.83745092  1
  Cr  Cr42  1  0.50528649  0.83721772  0.50347107  1
  Cr  Cr43  1  0.33568719  0.66817777  0.66847140  1
  Fe  Fe44  1  0.50328662  0.83666094  0.83612262  1
  Fe  Fe45  1  0.83600566  0.16751429  0.50096280  1
  Ni  Ni46  1  0.67132446  0.00370826  0.66982849  1
  Fe  Fe47  1  0.83555858  0.16882371  0.83796751  1
  Ni  Ni48  1  0.83493165  0.50268302  0.50231919  1
  Cr  Cr49  1  0.66839186  0.33407331  0.66973089  1
  Fe  Fe50  1  0.83533604  0.50184274  0.83779065  1
  Ni  Ni51  1  0.83538497  0.83481195  0.50296988  1
  Ni  Ni52  1  0.67081344  0.67005427  0.67008515  1
  Fe  Fe53  1  0.83401383  0.83710884  0.83680024  1
" 