3876,Ni48Fe52_12,-241.861355551759, 226.988122775668,Ni48Fe52,"# generated using pymatgen
 data_Fe25Ni29
_symmetry_space_group_name_H-M   'P 1'
_cell_length_a   7.40011589
_cell_length_b   7.40011589
_cell_length_c   10.46534425
_cell_angle_alpha   90.00000000
_cell_angle_beta   90.00000000
_cell_angle_gamma   90.00000000
_symmetry_Int_Tables_number   1
_chemical_formula_structural   Fe25Ni29
_chemical_formula_sum   'Fe25 Ni29'
_cell_volume   573.10020130
_cell_formula_units_Z   1
loop_
 _symmetry_equiv_pos_site_id
 _symmetry_equiv_pos_as_xyz
  1  'x, y, z'
loop_
 _atom_site_type_symbol
 _atom_site_label
 _atom_site_symmetry_multiplicity
 _atom_site_fract_x
 _atom_site_fract_y
 _atom_site_fract_z
 _atom_site_occupancy
  Fe  Fe0  1  0.00458119  0.00516455  0.00465550  1
  Fe  Fe1  1  0.17141707  0.17018924  0.17139253  1
  Ni  Ni2  1  0.00495615  1.00229744  0.33749500  1
  Fe  Fe3  1  0.00465216  0.33680456  1.00371477  1
  Fe  Fe4  1  0.17085984  0.50433620  0.17078989  1
  Fe  Fe5  1  1.00385754  0.33733433  0.33852125  1
  Fe  Fe6  1  0.00500336  0.67159615  0.00505262  1
  Ni  Ni7  1  0.17068218  0.83780762  0.17153455  1
  Ni  Ni8  1  1.00349880  0.67246518  0.33846289  1
  Ni  Ni9  1  0.33758315  0.00468314  1.00435896  1
  Ni  Ni10  1  0.50536920  0.17223937  0.17109669  1
  Ni  Ni11  1  0.33708268  0.00488942  0.33759115  1
  Ni  Ni12  1  0.33826520  0.33761881  1.00358385  1
  Fe  Fe13  1  0.50518385  0.50381971  0.17078664  1
  Ni  Ni14  1  0.33854023  0.33733356  0.33802452  1
  Fe  Fe15  1  0.33836722  0.67111716  1.00389532  1
  Fe  Fe16  1  0.50525731  0.83941443  0.17170979  1
  Fe  Fe17  1  0.33811104  0.67218787  0.33798554  1
  Ni  Ni18  1  0.67095271  1.00435324  1.00425789  1
  Ni  Ni19  1  0.83638153  0.17111302  0.17187307  1
  Ni  Ni20  1  0.67152953  1.00376617  0.33821854  1
  Ni  Ni21  1  0.67060892  0.33828695  1.00435521  1
  Fe  Fe22  1  0.83752310  0.50459542  0.17205607  1
  Ni  Ni23  1  0.67040647  0.33879276  0.33768954  1
  Fe  Fe24  1  0.67019819  0.67118824  0.00476500  1
  Ni  Ni25  1  0.83829756  0.83825935  0.17167773  1
  Ni  Ni26  1  0.67299661  0.67100906  0.33725629  1
  Ni  Ni27  1  0.17162512  0.17086303  0.50391668  1
  Ni  Ni28  1  0.00572135  1.00330816  0.67162295  1
  Ni  Ni29  1  0.17142053  0.17116699  0.83888819  1
  Fe  Fe30  1  0.17070814  0.50503536  0.50490829  1
  Ni  Ni31  1  0.00460123  0.33845574  0.67127837  1
  Ni  Ni32  1  0.17220994  0.50392438  0.83725230  1
  Ni  Ni33  1  0.17128519  0.83898675  0.50468701  1
  Fe  Fe34  1  0.00511405  0.67086212  0.67066859  1
  Ni  Ni35  1  0.17108599  0.83847376  0.83734761  1
  Fe  Fe36  1  0.50429633  0.17052754  0.50378882  1
  Ni  Ni37  1  0.33649361  1.00432250  0.67161774  1
  Fe  Fe38  1  0.50299014  0.17187239  0.83873561  1
  Fe  Fe39  1  0.50481530  0.50484904  0.50484962  1
  Ni  Ni40  1  0.33795264  0.33778076  0.67195856  1
  Ni  Ni41  1  0.50473033  0.50358954  0.83777937  1
  Ni  Ni42  1  0.50468635  0.83785437  0.50391441  1
  Fe  Fe43  1  0.33733735  0.67093388  0.67168310  1
  Fe  Fe44  1  0.50298974  0.83791367  0.83759674  1
  Fe  Fe45  1  0.83826779  0.17033845  0.50428007  1
  Fe  Fe46  1  0.67126092  0.00537477  0.67092804  1
  Fe  Fe47  1  0.83851960  0.17192482  0.83818253  1
  Ni  Ni48  1  0.83690857  0.50450381  0.50434675  1
  Ni  Ni49  1  0.67101356  0.33925593  0.67152384  1
  Fe  Fe50  1  0.83857326  0.50398741  0.83712158  1
  Ni  Ni51  1  0.83759677  0.83707027  0.50420448  1
  Fe  Fe52  1  0.67111595  0.67071226  0.67032443  1
  Fe  Fe53  1  0.83872398  0.83765588  0.83800004  1
" 