6959,Ni48Fe47Cr4_11,-239.029671409744, 220.249584438659,Ni48Fe47Cr4,"# generated using pymatgen
 data_Cr3Fe25Ni26
_symmetry_space_group_name_H-M   'P 1'
_cell_length_a   7.41288639
_cell_length_b   7.41288639
_cell_length_c   10.48340447
_cell_angle_alpha   90.00000000
_cell_angle_beta   90.00000000
_cell_angle_gamma   90.00000000
_symmetry_Int_Tables_number   1
_chemical_formula_structural   Cr3Fe25Ni26
_chemical_formula_sum   'Cr3 Fe25 Ni26'
_cell_volume   576.07234980
_cell_formula_units_Z   1
loop_
 _symmetry_equiv_pos_site_id
 _symmetry_equiv_pos_as_xyz
  1  'x, y, z'
loop_
 _atom_site_type_symbol
 _atom_site_label
 _atom_site_symmetry_multiplicity
 _atom_site_fract_x
 _atom_site_fract_y
 _atom_site_fract_z
 _atom_site_occupancy
  Ni  Ni0  1  1.00324571  1.00313375  1.00319979  1
  Fe  Fe1  1  0.16855870  0.17089508  0.17087708  1
  Ni  Ni2  1  0.00413423  1.00346825  0.33745578  1
  Fe  Fe3  1  1.00046631  0.33637447  0.00402595  1
  Fe  Fe4  1  0.16913789  0.50322264  0.17071960  1
  Fe  Fe5  1  0.00381954  0.33779006  0.33758930  1
  Ni  Ni6  1  0.00501032  0.67207939  0.00403372  1
  Fe  Fe7  1  0.16916365  0.83710852  0.16994607  1
  Ni  Ni8  1  0.00502128  0.67076316  0.33685568  1
  Fe  Fe9  1  0.33703391  1.00249951  1.00338847  1
  Ni  Ni10  1  0.50255371  0.17028461  0.16976854  1
  Fe  Fe11  1  0.33453368  1.00277716  0.33614448  1
  Fe  Fe12  1  0.33786573  0.33610881  0.00563649  1
  Ni  Ni13  1  0.50315294  0.50184351  0.17022866  1
  Ni  Ni14  1  0.33751702  0.33846522  0.33662826  1
  Ni  Ni15  1  0.33752926  0.67015668  0.00531504  1
  Fe  Fe16  1  0.50670982  0.83664866  0.17051417  1
  Fe  Fe17  1  0.33609876  0.67015732  0.33713409  1
  Ni  Ni18  1  0.67103199  0.00514682  0.00376891  1
  Ni  Ni19  1  0.83660514  0.16921844  0.17058015  1
  Fe  Fe20  1  0.67056302  1.00308692  0.33448809  1
  Ni  Ni21  1  0.66937373  0.33625051  1.00349112  1
  Ni  Ni22  1  0.83747525  0.50464087  0.16873847  1
  Fe  Fe23  1  0.67242447  0.33908868  0.33487719  1
  Fe  Fe24  1  0.67134056  0.67050694  1.00311236  1
  Ni  Ni25  1  0.83927100  0.83736207  0.16944617  1
  Fe  Fe26  1  0.67049803  0.66832289  0.33707829  1
  Fe  Fe27  1  0.16927179  0.17089219  0.50297510  1
  Fe  Fe28  1  1.00263375  0.00495131  0.67161709  1
  Fe  Fe29  1  0.16892530  0.17015622  0.83658772  1
  Ni  Ni30  1  0.17043613  0.50454895  0.50383498  1
  Ni  Ni31  1  1.00332613  0.33631460  0.66848417  1
  Cr  Cr32  1  0.17024201  0.50452963  0.83787729  1
  Ni  Ni33  1  0.17067236  0.83704797  0.50500383  1
  Fe  Fe34  1  1.00117654  0.66913275  0.67083642  1
  Ni  Ni35  1  0.16919778  0.83892709  0.83654146  1
  Cr  Cr36  1  0.50561014  0.17056709  0.50248316  1
  Fe  Fe37  1  0.33705208  1.00288670  0.67112376  1
  Fe  Fe38  1  0.50497852  0.16992991  0.83731680  1
  Ni  Ni39  1  0.50348864  0.50353150  0.50371552  1
  Fe  Fe40  1  0.33820482  0.33760562  0.66943882  1
  Ni  Ni41  1  0.50429253  0.50024266  0.83711377  1
  Ni  Ni42  1  0.50197983  0.83719257  0.50314798  1
  Fe  Fe43  1  0.33842640  0.67055705  0.67021587  1
  Fe  Fe44  1  0.50404519  0.83454072  0.83688143  1
  Fe  Fe45  1  0.83837037  0.17154657  0.50325204  1
  Ni  Ni46  1  0.66999401  1.00358110  0.67158192  1
  Fe  Fe47  1  0.83689370  0.17150692  0.83724828  1
  Ni  Ni48  1  0.83721514  0.50297007  0.50380767  1
  Ni  Ni49  1  0.67213497  0.33790646  0.67006311  1
  Ni  Ni50  1  0.83566790  0.50438426  0.83764464  1
  Cr  Cr51  1  0.83678664  0.83718012  0.50440548  1
  Ni  Ni52  1  0.66803908  0.66946226  0.67142904  1
  Ni  Ni53  1  0.83807433  0.83777851  0.83760241  1
" 