6373,Ni48Fe52_17,-242.620055766285, 227.084925723701,Ni48Fe52,"# generated using pymatgen
 data_Fe25Ni29
_symmetry_space_group_name_H-M   'P 1'
_cell_length_a   7.40516426
_cell_length_b   7.40516426
_cell_length_c   10.47248373
_cell_angle_alpha   90.00000000
_cell_angle_beta   90.00000000
_cell_angle_gamma   90.00000000
_symmetry_Int_Tables_number   1
_chemical_formula_structural   Fe25Ni29
_chemical_formula_sum   'Fe25 Ni29'
_cell_volume   574.27391121
_cell_formula_units_Z   1
loop_
 _symmetry_equiv_pos_site_id
 _symmetry_equiv_pos_as_xyz
  1  'x, y, z'
loop_
 _atom_site_type_symbol
 _atom_site_label
 _atom_site_symmetry_multiplicity
 _atom_site_fract_x
 _atom_site_fract_y
 _atom_site_fract_z
 _atom_site_occupancy
  Fe  Fe0  1  1.00410925  1.00404166  1.00350154  1
  Ni  Ni1  1  0.17189555  0.17204298  0.17023277  1
  Fe  Fe2  1  0.00428737  0.00521918  0.33847153  1
  Ni  Ni3  1  1.00238891  0.33865964  1.00416892  1
  Ni  Ni4  1  0.16962032  0.50347821  0.17017525  1
  Ni  Ni5  1  1.00257910  0.33779593  0.33801370  1
  Ni  Ni6  1  0.00562461  0.66979023  1.00384021  1
  Fe  Fe7  1  0.17134197  0.83751537  0.17035091  1
  Fe  Fe8  1  0.00418554  0.67013512  0.33669139  1
  Ni  Ni9  1  0.33839664  1.00197596  1.00374312  1
  Ni  Ni10  1  0.50388947  0.16945522  0.17064518  1
  Ni  Ni11  1  0.33769662  1.00246332  0.33831156  1
  Fe  Fe12  1  0.33708583  0.33744369  0.00467167  1
  Fe  Fe13  1  0.50453204  0.50403382  0.17069997  1
  Fe  Fe14  1  0.33701249  0.33658008  0.33751551  1
  Ni  Ni15  1  0.33647127  0.67271015  0.00521030  1
  Ni  Ni16  1  0.50512080  0.83881557  0.17022144  1
  Fe  Fe17  1  0.33737139  0.67047793  0.33800190  1
  Ni  Ni18  1  0.66963064  0.00520966  0.00460300  1
  Fe  Fe19  1  0.83723302  0.17155657  0.17063072  1
  Fe  Fe20  1  0.67038452  0.00486233  0.33704648  1
  Ni  Ni21  1  0.67255372  0.33673212  0.00468086  1
  Ni  Ni22  1  0.83855516  0.50471219  0.17029261  1
  Ni  Ni23  1  0.67228651  0.33745214  0.33759113  1
  Fe  Fe24  1  0.67134118  0.67104840  0.00474123  1
  Ni  Ni25  1  0.83596798  0.83654573  0.17008296  1
  Fe  Fe26  1  0.67098016  0.67098671  0.33708748  1
  Ni  Ni27  1  0.17079810  0.17152887  0.50528721  1
  Ni  Ni28  1  0.00467470  0.00477351  0.67058410  1
  Fe  Fe29  1  0.16938003  0.17117368  0.83751523  1
  Ni  Ni30  1  0.17014756  0.50437425  0.50476999  1
  Ni  Ni31  1  1.00254165  0.33688241  0.67035250  1
  Ni  Ni32  1  0.16995210  0.50515300  0.83759056  1
  Ni  Ni33  1  0.17194774  0.83662966  0.50357896  1
  Fe  Fe34  1  0.00478375  0.67023691  0.67159256  1
  Ni  Ni35  1  0.17174932  0.83632003  0.83820597  1
  Ni  Ni36  1  0.50507792  0.16975681  0.50461981  1
  Fe  Fe37  1  0.33694191  0.00439895  0.67006766  1
  Fe  Fe38  1  0.50477152  0.17138454  0.83807763  1
  Fe  Fe39  1  0.50356625  0.50363794  0.50460350  1
  Fe  Fe40  1  0.33668753  0.33761910  0.67035097  1
  Fe  Fe41  1  0.50424531  0.50425011  0.83723295  1
  Ni  Ni42  1  0.50394079  0.83839649  0.50462989  1
  Ni  Ni43  1  0.33736389  0.67221654  0.67005435  1
  Fe  Fe44  1  0.50365577  0.83690287  0.83793591  1
  Ni  Ni45  1  0.83665738  0.17154978  0.50349241  1
  Fe  Fe46  1  0.67134570  0.00496426  0.67088815  1
  Ni  Ni47  1  0.83644472  0.17186252  0.83853054  1
  Fe  Fe48  1  0.83772889  0.50283421  0.50404013  1
  Ni  Ni49  1  0.67228136  0.33733103  0.67026354  1
  Ni  Ni50  1  0.83824013  0.50320440  0.83739301  1
  Fe  Fe51  1  0.83819487  0.83868982  0.50385432  1
  Fe  Fe52  1  0.67128207  0.67048939  0.67070287  1
  Fe  Fe53  1  0.83869009  0.83733218  0.83819505  1
" 