1498,Ni48Fe15Cr36_3,-225.83079190659, 168.348917152676,Ni48Fe15Cr36,"# generated using pymatgen
 data_Cr10Fe4Ni13
_symmetry_space_group_name_H-M   'P 1'
_cell_length_a   7.48221356
_cell_length_b   7.48221356
_cell_length_c   10.58144789
_cell_angle_alpha   90.00000000
_cell_angle_beta   90.00000000
_cell_angle_gamma   90.00000000
_symmetry_Int_Tables_number   1
_chemical_formula_structural   Cr10Fe4Ni13
_chemical_formula_sum   'Cr20 Fe8 Ni26'
_cell_volume   592.38669700
_cell_formula_units_Z   2
loop_
 _symmetry_equiv_pos_site_id
 _symmetry_equiv_pos_as_xyz
  1  'x, y, z'
loop_
 _atom_site_type_symbol
 _atom_site_label
 _atom_site_symmetry_multiplicity
 _atom_site_fract_x
 _atom_site_fract_y
 _atom_site_fract_z
 _atom_site_occupancy
  Fe  Fe0  1  0.99885105  0.99819330  0.00001511  1
  Ni  Ni1  1  0.16335906  0.16356151  0.16496073  1
  Ni  Ni2  1  0.00073549  0.99786014  0.33151195  1
  Ni  Ni3  1  -0.00047520  0.33231587  0.00135761  1
  Fe  Fe4  1  0.16500403  0.49560710  0.16571785  1
  Cr  Cr5  1  0.00089326  0.33210439  0.33228666  1
  Ni  Ni6  1  0.99664370  0.66489991  -0.00004143  1
  Cr  Cr7  1  0.16500165  0.83026415  0.16944091  1
  Fe  Fe8  1  0.00011773  0.66485866  0.33330463  1
  Cr  Cr9  1  0.33270586  0.99890820  0.99631814  1
  Cr  Cr10  1  0.49889039  0.16784221  0.16660553  1
  Ni  Ni11  1  0.32853568  -0.00069560  0.33399973  1
  Ni  Ni12  1  0.32990402  0.33088584  0.00199493  1
  Ni  Ni13  1  0.49848126  0.49923213  0.16570518  1
  Ni  Ni14  1  0.32972527  0.33346815  0.33204975  1
  Cr  Cr15  1  0.33192083  0.66528843  0.00039809  1
  Fe  Fe16  1  0.49823616  0.83386428  0.16673519  1
  Ni  Ni17  1  0.33214137  0.66367663  0.33115937  1
  Ni  Ni18  1  0.66825214  -0.00099532  0.00044375  1
  Ni  Ni19  1  0.83422565  0.16571493  0.16352144  1
  Cr  Cr20  1  0.66742848  0.99707575  0.33113186  1
  Ni  Ni21  1  0.66792320  0.33320918  0.00163522  1
  Ni  Ni22  1  0.83262258  0.49817289  0.16321279  1
  Cr  Cr23  1  0.66566127  0.33543378  0.33481617  1
  Cr  Cr24  1  0.66568726  0.66905491  0.00080487  1
  Fe  Fe25  1  0.83460553  0.83340306  0.16559794  1
  Cr  Cr26  1  0.66701007  0.66499318  0.32954275  1
  Ni  Ni27  1  0.16735580  0.16281746  0.49601190  1
  Cr  Cr28  1  0.00248801  0.99860117  0.66597746  1
  Ni  Ni29  1  0.16436791  0.16311480  0.83561629  1
  Ni  Ni30  1  0.16742170  0.50286420  0.49613095  1
  Cr  Cr31  1  -0.00032353  0.33508832  0.66395876  1
  Cr  Cr32  1  0.16428945  0.50077117  0.83509356  1
  Ni  Ni33  1  0.16475360  0.83137227  0.49844436  1
  Ni  Ni34  1  0.00093254  0.66655621  0.66346274  1
  Ni  Ni35  1  0.16438307  0.83115291  0.83033093  1
  Fe  Fe36  1  0.49511823  0.16649734  0.49798346  1
  Ni  Ni37  1  0.33001725  0.99657244  0.66578669  1
  Cr  Cr38  1  0.50042003  0.16678732  0.83088721  1
  Ni  Ni39  1  0.49711824  0.49874936  0.49935220  1
  Cr  Cr40  1  0.32901633  0.33008421  0.66263042  1
  Cr  Cr41  1  0.50024947  0.49799747  0.83229223  1
  Cr  Cr42  1  0.49463533  0.83045568  0.49732040  1
  Ni  Ni43  1  0.33054672  0.66753523  0.66566476  1
  Ni  Ni44  1  0.49723119  0.83290107  0.83251553  1
  Cr  Cr45  1  0.83247838  0.16460397  0.49818621  1
  Cr  Cr46  1  0.66407814  0.99753414  0.66405693  1
  Cr  Cr47  1  0.83233784  0.16962290  0.83579900  1
  Ni  Ni48  1  0.83282871  0.50179962  0.50128757  1
  Ni  Ni49  1  0.66596054  0.33474231  0.66206629  1
  Fe  Fe50  1  0.83399642  0.50077889  0.83356815  1
  Ni  Ni51  1  0.83707642  0.82951879  0.49671124  1
  Cr  Cr52  1  0.66773105  0.66586060  0.66665626  1
  Fe  Fe53  1  0.83467617  0.83269529  0.83325460  1
" 