8842,Ni48Fe15Cr36_1,-226.12563065402, 170.211990665628,Ni48Fe15Cr36,"# generated using pymatgen
 data_Cr10Fe4Ni13
_symmetry_space_group_name_H-M   'P 1'
_cell_length_a   7.48041320
_cell_length_b   7.48041320
_cell_length_c   10.57890180
_cell_angle_alpha   90.00000000
_cell_angle_beta   90.00000000
_cell_angle_gamma   90.00000000
_symmetry_Int_Tables_number   1
_chemical_formula_structural   Cr10Fe4Ni13
_chemical_formula_sum   'Cr20 Fe8 Ni26'
_cell_volume   591.95918290
_cell_formula_units_Z   2
loop_
 _symmetry_equiv_pos_site_id
 _symmetry_equiv_pos_as_xyz
  1  'x, y, z'
loop_
 _atom_site_type_symbol
 _atom_site_label
 _atom_site_symmetry_multiplicity
 _atom_site_fract_x
 _atom_site_fract_y
 _atom_site_fract_z
 _atom_site_occupancy
  Cr  Cr0  1  0.99740319  -0.00082076  0.00177552  1
  Ni  Ni1  1  0.16296045  0.16599671  0.17048723  1
  Ni  Ni2  1  -0.00059585  -0.00037752  0.33142092  1
  Cr  Cr3  1  0.99885850  0.33172328  0.00235955  1
  Ni  Ni4  1  0.16557054  0.49964514  0.16694936  1
  Fe  Fe5  1  0.99811409  0.33315761  0.33237001  1
  Fe  Fe6  1  0.99806004  0.66470718  0.00110973  1
  Ni  Ni7  1  0.16451710  0.83172016  0.16774906  1
  Cr  Cr8  1  0.99798353  0.66604535  0.33303877  1
  Cr  Cr9  1  0.33188696  -0.00012574  0.99847639  1
  Cr  Cr10  1  0.50013787  0.16772854  0.16682265  1
  Ni  Ni11  1  0.32775327  0.99825455  0.33080939  1
  Cr  Cr12  1  0.33280545  0.33333733  -0.00078782  1
  Ni  Ni13  1  0.50132215  0.49965028  0.16810990  1
  Ni  Ni14  1  0.33193689  0.33621325  0.33128789  1
  Cr  Cr15  1  0.33279587  0.66405763  -0.00013318  1
  Cr  Cr16  1  0.49933103  0.82969420  0.16781836  1
  Ni  Ni17  1  0.33138891  0.66252949  0.33243892  1
  Fe  Fe18  1  0.66675929  0.00066727  0.99809957  1
  Ni  Ni19  1  0.83321591  0.16745888  0.16738913  1
  Cr  Cr20  1  0.67131503  -0.00021690  0.33348292  1
  Ni  Ni21  1  0.66779138  0.33352272  0.00008695  1
  Fe  Fe22  1  0.83096747  0.49874379  0.16669167  1
  Ni  Ni23  1  0.66737200  0.33555801  0.33248950  1
  Ni  Ni24  1  0.66815878  0.66583916  0.00124763  1
  Fe  Fe25  1  0.83315511  0.83124302  0.16563615  1
  Ni  Ni26  1  0.66596637  0.66125622  0.33251424  1
  Cr  Cr27  1  0.16433434  0.16655278  0.49584325  1
  Cr  Cr28  1  0.99545317  0.99834952  0.66321239  1
  Cr  Cr29  1  0.16318289  0.16931466  0.83001808  1
  Ni  Ni30  1  0.16489289  0.49925200  0.50036983  1
  Ni  Ni31  1  0.99772877  0.33362288  0.66418274  1
  Ni  Ni32  1  0.16350659  0.49896201  0.83022338  1
  Ni  Ni33  1  0.16456316  0.83058973  0.49678481  1
  Fe  Fe34  1  0.99788660  0.66347256  0.66348722  1
  Cr  Cr35  1  0.16304342  0.82819681  0.83196685  1
  Cr  Cr36  1  0.50047407  0.16824816  0.49964367  1
  Cr  Cr37  1  0.33494233  0.99868510  0.66721627  1
  Fe  Fe38  1  0.50285452  0.16678949  0.83156285  1
  Ni  Ni39  1  0.49976490  0.49773784  0.49607604  1
  Ni  Ni40  1  0.33220243  0.33526491  0.66612046  1
  Cr  Cr41  1  0.50092595  0.49894542  0.83208536  1
  Cr  Cr42  1  0.49766202  0.83164044  0.49519974  1
  Cr  Cr43  1  0.33213364  0.66359042  0.66392433  1
  Ni  Ni44  1  0.50381173  0.83382628  0.83396051  1
  Ni  Ni45  1  0.83255357  0.16844864  0.49923114  1
  Ni  Ni46  1  0.66907995  0.00035850  0.66884270  1
  Ni  Ni47  1  0.82910869  0.16570205  0.83169799  1
  Ni  Ni48  1  0.83222936  0.49592511  0.49849571  1
  Ni  Ni49  1  0.66766960  0.33129366  0.66483246  1
  Cr  Cr50  1  0.83499808  0.49863021  0.83284806  1
  Fe  Fe51  1  0.83351689  0.83178771  0.49855502  1
  Cr  Cr52  1  0.66694709  0.66644461  0.66182785  1
  Ni  Ni53  1  0.82935995  0.83291753  0.83380878  1
" 