6396,Ni48Fe38Cr12_8,-235.155862084579, 202.538833403099,Ni48Fe38Cr12,"# generated using pymatgen
 data_Cr4Fe10Ni13
_symmetry_space_group_name_H-M   'P 1'
_cell_length_a   7.43072341
_cell_length_b   7.43072341
_cell_length_c   10.50862983
_cell_angle_alpha   90.00000000
_cell_angle_beta   90.00000000
_cell_angle_gamma   90.00000000
_symmetry_Int_Tables_number   1
_chemical_formula_structural   Cr4Fe10Ni13
_chemical_formula_sum   'Cr8 Fe20 Ni26'
_cell_volume   580.24083167
_cell_formula_units_Z   2
loop_
 _symmetry_equiv_pos_site_id
 _symmetry_equiv_pos_as_xyz
  1  'x, y, z'
loop_
 _atom_site_type_symbol
 _atom_site_label
 _atom_site_symmetry_multiplicity
 _atom_site_fract_x
 _atom_site_fract_y
 _atom_site_fract_z
 _atom_site_occupancy
  Fe  Fe0  1  1.00048670  0.00276848  1.00216146  1
  Fe  Fe1  1  0.16639140  0.16882287  0.16902606  1
  Fe  Fe2  1  0.00275119  1.00232106  0.33547938  1
  Ni  Ni3  1  0.00279073  0.33516728  0.00347755  1
  Fe  Fe4  1  0.16618996  0.50237827  0.16877454  1
  Fe  Fe5  1  1.00094446  0.33648282  0.33579594  1
  Fe  Fe6  1  1.00108077  0.66829732  1.00243859  1
  Fe  Fe7  1  0.16751547  0.83612951  0.17111482  1
  Ni  Ni8  1  1.00215336  0.66904008  0.33404483  1
  Cr  Cr9  1  0.33612977  0.00378281  1.00166392  1
  Cr  Cr10  1  0.50380918  0.16837127  0.16843070  1
  Fe  Fe11  1  0.33546306  0.99946776  0.33678307  1
  Ni  Ni12  1  0.33355088  0.33498034  1.00098694  1
  Cr  Cr13  1  0.50245096  0.50359830  0.16781543  1
  Cr  Cr14  1  0.33438649  0.33512694  0.33655434  1
  Cr  Cr15  1  0.33649747  0.66833370  0.00264522  1
  Ni  Ni16  1  0.50428716  0.83543771  0.17126280  1
  Fe  Fe17  1  0.33527285  0.67124896  0.33724935  1
  Fe  Fe18  1  0.67090290  1.00190041  1.00162318  1
  Ni  Ni19  1  0.83768471  0.16826879  0.16925276  1
  Fe  Fe20  1  0.66912263  1.00159168  0.33543575  1
  Fe  Fe21  1  0.67044770  0.33560779  1.00051102  1
  Fe  Fe22  1  0.83638137  0.50320389  0.16881118  1
  Fe  Fe23  1  0.67184248  0.33629407  0.33763590  1
  Ni  Ni24  1  0.67138694  0.67086254  1.00174270  1
  Ni  Ni25  1  0.83613505  0.83611133  0.16802992  1
  Ni  Ni26  1  0.66965870  0.67045911  0.33590256  1
  Ni  Ni27  1  0.16865534  0.16928329  0.50371331  1
  Ni  Ni28  1  0.00433156  0.00489944  0.66990139  1
  Fe  Fe29  1  0.16782368  0.17033165  0.83472722  1
  Ni  Ni30  1  0.16963396  0.50194541  0.50201785  1
  Ni  Ni31  1  0.00316025  0.33359800  0.66787378  1
  Ni  Ni32  1  0.16897568  0.50070279  0.83622637  1
  Ni  Ni33  1  0.17086081  0.83610457  0.50189201  1
  Cr  Cr34  1  0.00263250  0.66878385  0.67036093  1
  Fe  Fe35  1  0.16801000  0.83648804  0.83431941  1
  Ni  Ni36  1  0.50187790  0.16996282  0.50215892  1
  Fe  Fe37  1  0.33486540  0.00263469  0.66871555  1
  Ni  Ni38  1  0.50235484  0.17037568  0.83637649  1
  Ni  Ni39  1  0.50236171  0.50272810  0.50425529  1
  Ni  Ni40  1  0.33556844  0.33573518  0.66990334  1
  Fe  Fe41  1  0.50394121  0.50187589  0.83457344  1
  Ni  Ni42  1  0.50045601  0.83463995  0.50101169  1
  Ni  Ni43  1  0.33752708  0.66886239  0.66800283  1
  Ni  Ni44  1  0.50380836  0.83539119  0.83505818  1
  Fe  Fe45  1  0.83670627  0.17118396  0.50236348  1
  Cr  Cr46  1  0.66891694  1.00242164  0.66985293  1
  Ni  Ni47  1  0.83631652  0.16947243  0.83630535  1
  Fe  Fe48  1  0.83481395  0.50080597  0.50224624  1
  Ni  Ni49  1  0.66860435  0.33669803  0.66860479  1
  Ni  Ni50  1  0.83623802  0.50215490  0.83673095  1
  Cr  Cr51  1  0.83594193  0.83545152  0.50234383  1
  Ni  Ni52  1  0.66643633  0.66769431  0.66969051  1
  Ni  Ni53  1  0.83545286  0.83570544  0.83811028  1
" 