4300,Ni48Fe52_16,-241.507457336039, 226.206489411667,Ni48Fe52,"# generated using pymatgen
 data_Fe25Ni29
_symmetry_space_group_name_H-M   'P 1'
_cell_length_a   7.39973704
_cell_length_b   7.39973704
_cell_length_c   10.46480848
_cell_angle_alpha   90.00000000
_cell_angle_beta   90.00000000
_cell_angle_gamma   90.00000000
_symmetry_Int_Tables_number   1
_chemical_formula_structural   Fe25Ni29
_chemical_formula_sum   'Fe25 Ni29'
_cell_volume   573.01218633
_cell_formula_units_Z   1
loop_
 _symmetry_equiv_pos_site_id
 _symmetry_equiv_pos_as_xyz
  1  'x, y, z'
loop_
 _atom_site_type_symbol
 _atom_site_label
 _atom_site_symmetry_multiplicity
 _atom_site_fract_x
 _atom_site_fract_y
 _atom_site_fract_z
 _atom_site_occupancy
  Ni  Ni0  1  0.00466447  1.00379526  0.00465881  1
  Fe  Fe1  1  0.17101348  0.17164215  0.17041972  1
  Fe  Fe2  1  0.00512554  1.00389265  0.33796043  1
  Fe  Fe3  1  1.00323153  0.33679872  0.00490050  1
  Fe  Fe4  1  0.17114578  0.50362016  0.17219198  1
  Ni  Ni5  1  0.00509251  0.33783957  0.33842827  1
  Fe  Fe6  1  1.00396729  0.67179569  0.00482346  1
  Ni  Ni7  1  0.17260503  0.83711676  0.17067827  1
  Ni  Ni8  1  1.00352808  0.67141275  0.33806281  1
  Ni  Ni9  1  0.33673864  0.00537328  1.00429949  1
  Ni  Ni10  1  0.50509974  0.17148174  0.17061915  1
  Fe  Fe11  1  0.33746291  1.00373955  0.33796033  1
  Ni  Ni12  1  0.33831151  0.33717299  1.00418949  1
  Fe  Fe13  1  0.50483509  0.50410972  0.17121706  1
  Ni  Ni14  1  0.33734790  0.33782539  0.33842788  1
  Fe  Fe15  1  0.33860134  0.67252934  0.00482539  1
  Fe  Fe16  1  0.50548066  0.83802633  0.17057291  1
  Ni  Ni17  1  0.33817489  0.67068262  0.33806280  1
  Ni  Ni18  1  0.67224239  1.00379569  1.00335491  1
  Ni  Ni19  1  0.83630303  0.17342889  0.17119868  1
  Fe  Fe20  1  0.67105735  0.00507255  0.33746311  1
  Ni  Ni21  1  0.67066285  0.33875112  0.00503037  1
  Ni  Ni22  1  0.83752176  0.50346463  0.17141063  1
  Fe  Fe23  1  0.67180516  0.33887976  0.33803851  1
  Ni  Ni24  1  0.67224357  0.67109901  1.00434155  1
  Fe  Fe25  1  0.83753370  0.83815770  0.17057701  1
  Ni  Ni26  1  0.67194652  0.67152647  0.33827353  1
  Fe  Fe27  1  0.17101328  0.17156021  0.50542217  1
  Ni  Ni28  1  0.00509541  1.00358730  0.67092236  1
  Ni  Ni29  1  0.17168814  0.17011849  0.83796398  1
  Fe  Fe30  1  0.17114476  0.50370112  0.50365040  1
  Fe  Fe31  1  1.00422406  0.33679745  0.67086177  1
  Fe  Fe32  1  0.17086916  0.50452674  0.83780410  1
  Ni  Ni33  1  0.17260432  0.83711675  0.50489914  1
  Fe  Fe34  1  0.00498000  0.67129862  0.67086071  1
  Ni  Ni35  1  0.17289451  0.83845695  0.83806689  1
  Ni  Ni36  1  0.50490998  0.17157954  0.50495395  1
  Ni  Ni37  1  0.33630054  0.00516498  0.67128165  1
  Fe  Fe38  1  0.50459346  0.17065263  0.83802450  1
  Fe  Fe39  1  0.50469392  0.50388830  0.50440422  1
  Ni  Ni40  1  0.33872598  0.33717091  0.67102725  1
  Fe  Fe41  1  0.50513434  0.50448258  0.83802519  1
  Fe  Fe42  1  0.50503683  0.83802891  0.50474879  1
  Fe  Fe43  1  0.33758235  0.67203326  0.67085909  1
  Ni  Ni44  1  0.50279036  0.83797176  0.83806881  1
  Ni  Ni45  1  0.83649272  0.17352695  0.50437768  1
  Fe  Fe46  1  0.67078216  0.00586863  0.67162426  1
  Ni  Ni47  1  0.83769739  0.17280190  0.83806706  1
  Ni  Ni48  1  0.83771183  0.50336611  0.50417083  1
  Ni  Ni49  1  0.67066705  0.33875611  0.67091501  1
  Ni  Ni50  1  0.83720831  0.50360111  0.83806733  1
  Fe  Fe51  1  0.83797527  0.83815997  0.50474759  1
  Fe  Fe52  1  0.67108395  0.67111431  0.67173398  1
  Ni  Ni53  1  0.83795855  0.83723926  0.83806557  1
" 