7313,Ni48Fe38Cr12_15,-235.663071271518, 206.33203465421,Ni48Fe38Cr12,"# generated using pymatgen
 data_Cr4Fe10Ni13
_symmetry_space_group_name_H-M   'P 1'
_cell_length_a   7.42997566
_cell_length_b   7.42997566
_cell_length_c   10.50757235
_cell_angle_alpha   90.00000000
_cell_angle_beta   90.00000000
_cell_angle_gamma   90.00000000
_symmetry_Int_Tables_number   1
_chemical_formula_structural   Cr4Fe10Ni13
_chemical_formula_sum   'Cr8 Fe20 Ni26'
_cell_volume   580.06568073
_cell_formula_units_Z   2
loop_
 _symmetry_equiv_pos_site_id
 _symmetry_equiv_pos_as_xyz
  1  'x, y, z'
loop_
 _atom_site_type_symbol
 _atom_site_label
 _atom_site_symmetry_multiplicity
 _atom_site_fract_x
 _atom_site_fract_y
 _atom_site_fract_z
 _atom_site_occupancy
  Fe  Fe0  1  1.00094052  0.00277849  1.00115342  1
  Fe  Fe1  1  0.16923393  0.17164568  0.16849926  1
  Cr  Cr2  1  0.99998430  1.00198602  0.33538522  1
  Ni  Ni3  1  1.00165449  0.33386351  1.00054378  1
  Fe  Fe4  1  0.16935529  0.50154781  0.16813151  1
  Cr  Cr5  1  1.00196810  0.33703205  0.33986999  1
  Cr  Cr6  1  1.00101927  0.66759469  1.00235633  1
  Fe  Fe7  1  0.16896692  0.83393127  0.16840926  1
  Ni  Ni8  1  0.99995109  0.66808723  0.33533718  1
  Cr  Cr9  1  0.33667598  0.00276554  1.00012453  1
  Fe  Fe10  1  0.50493013  0.17081545  0.16907549  1
  Cr  Cr11  1  0.33667018  0.00258638  0.33857382  1
  Fe  Fe12  1  0.33563054  0.33851640  1.00183693  1
  Fe  Fe13  1  0.50505855  0.50347550  0.16819825  1
  Ni  Ni14  1  0.33622303  0.33641480  0.33401242  1
  Ni  Ni15  1  0.33793777  0.66896760  0.00273180  1
  Ni  Ni16  1  0.50441810  0.83608092  0.16807367  1
  Cr  Cr17  1  0.33594747  0.66787263  0.33658475  1
  Fe  Fe18  1  0.67118797  1.00161241  1.00204273  1
  Fe  Fe19  1  0.83369910  0.16983865  0.16644385  1
  Ni  Ni20  1  0.66983505  1.00188577  0.33450857  1
  Fe  Fe21  1  0.66999427  0.33740258  1.00114687  1
  Ni  Ni22  1  0.83487413  0.50200015  0.16852173  1
  Fe  Fe23  1  0.66957386  0.33789214  0.33563640  1
  Ni  Ni24  1  0.66806962  0.66937928  1.00042936  1
  Fe  Fe25  1  0.83224836  0.83316468  0.16964556  1
  Ni  Ni26  1  0.67018824  0.66976696  0.33713205  1
  Ni  Ni27  1  0.16915725  0.17010905  0.50641906  1
  Ni  Ni28  1  1.00109933  1.00218969  0.66998203  1
  Fe  Fe29  1  0.16871228  0.17102062  0.83410680  1
  Ni  Ni30  1  0.16806115  0.50165482  0.50244822  1
  Fe  Fe31  1  1.00174588  0.33650877  0.67009807  1
  Ni  Ni32  1  0.16924352  0.50322185  0.83679131  1
  Ni  Ni33  1  0.16598401  0.83589361  0.50274129  1
  Ni  Ni34  1  1.00221324  0.66941155  0.66848467  1
  Ni  Ni35  1  0.16740524  0.83546817  0.83574961  1
  Cr  Cr36  1  0.50319342  0.17007464  0.50249778  1
  Fe  Fe37  1  0.33525354  0.00287194  0.67036410  1
  Ni  Ni38  1  0.50465743  0.17037352  0.83620407  1
  Ni  Ni39  1  0.50446637  0.50120395  0.50084396  1
  Ni  Ni40  1  0.33671707  0.33664457  0.67070502  1
  Ni  Ni41  1  0.50285038  0.50115243  0.83767871  1
  Ni  Ni42  1  0.50628493  0.83616005  0.50444873  1
  Cr  Cr43  1  0.33626254  0.66751211  0.66819538  1
  Fe  Fe44  1  0.50391737  0.83508878  0.83574095  1
  Fe  Fe45  1  0.83560149  0.16801781  0.50580663  1
  Ni  Ni46  1  0.67036909  0.00292804  0.67046811  1
  Ni  Ni47  1  0.83500362  0.16862811  0.83660656  1
  Ni  Ni48  1  0.83529111  0.50453089  0.50439376  1
  Ni  Ni49  1  0.66899376  0.33585260  0.66986397  1
  Fe  Fe50  1  0.83540528  0.50116457  0.83504064  1
  Ni  Ni51  1  0.83536876  0.83465617  0.50202235  1
  Fe  Fe52  1  0.67017816  0.66778524  0.66881449  1
  Fe  Fe53  1  0.83504433  0.83568866  0.83379578  1
" 