2601,Ni48Fe47Cr4_19,-238.621816376577, 220.224871202332,Ni48Fe47Cr4,"# generated using pymatgen
 data_Cr3Fe25Ni26
_symmetry_space_group_name_H-M   'P 1'
_cell_length_a   7.40526628
_cell_length_b   7.40526628
_cell_length_c   10.47262801
_cell_angle_alpha   90.00000000
_cell_angle_beta   90.00000000
_cell_angle_gamma   90.00000000
_symmetry_Int_Tables_number   1
_chemical_formula_structural   Cr3Fe25Ni26
_chemical_formula_sum   'Cr3 Fe25 Ni26'
_cell_volume   574.29764748
_cell_formula_units_Z   1
loop_
 _symmetry_equiv_pos_site_id
 _symmetry_equiv_pos_as_xyz
  1  'x, y, z'
loop_
 _atom_site_type_symbol
 _atom_site_label
 _atom_site_symmetry_multiplicity
 _atom_site_fract_x
 _atom_site_fract_y
 _atom_site_fract_z
 _atom_site_occupancy
  Ni  Ni0  1  1.00244932  1.00388301  0.00501643  1
  Fe  Fe1  1  0.16755697  0.17190226  0.17155275  1
  Ni  Ni2  1  1.00389874  1.00389383  0.33714499  1
  Ni  Ni3  1  0.00482178  0.33870662  0.00570583  1
  Fe  Fe4  1  0.17030314  0.50405682  0.17119089  1
  Fe  Fe5  1  1.00386828  0.33704181  0.33807951  1
  Fe  Fe6  1  1.00386638  0.67115635  0.00451550  1
  Fe  Fe7  1  0.16915818  0.83655695  0.17170165  1
  Ni  Ni8  1  0.00533268  0.67061132  0.33777744  1
  Cr  Cr9  1  0.33766150  1.00328775  1.00333319  1
  Cr  Cr10  1  0.50546018  0.17148063  0.17182327  1
  Ni  Ni11  1  0.33704333  1.00213601  0.33859198  1
  Ni  Ni12  1  0.33627417  0.34068677  1.00257310  1
  Ni  Ni13  1  0.50371428  0.50574063  0.17117561  1
  Fe  Fe14  1  0.33650137  0.33793768  0.33780975  1
  Fe  Fe15  1  0.33735927  0.66915833  1.00380121  1
  Fe  Fe16  1  0.50627919  0.83521856  0.17251291  1
  Ni  Ni17  1  0.33680830  0.67117012  0.33639142  1
  Ni  Ni18  1  0.67277858  1.00233598  0.00440441  1
  Ni  Ni19  1  0.83921734  0.17005082  0.17074097  1
  Ni  Ni20  1  0.67157158  0.00455528  0.33791746  1
  Fe  Fe21  1  0.67116355  0.33873663  0.00437207  1
  Ni  Ni22  1  0.83725184  0.50397276  0.17040462  1
  Ni  Ni23  1  0.67213021  0.33776853  0.33804018  1
  Fe  Fe24  1  0.67128769  0.67031190  0.00430828  1
  Ni  Ni25  1  0.83831637  0.83849089  0.17021653  1
  Fe  Fe26  1  0.67095396  0.67151462  0.33708410  1
  Ni  Ni27  1  0.17035555  0.17061035  0.50425152  1
  Fe  Fe28  1  0.00487996  1.00409075  0.67010213  1
  Fe  Fe29  1  0.17127174  0.17248317  0.83692396  1
  Ni  Ni30  1  0.17067908  0.50403433  0.50456858  1
  Ni  Ni31  1  1.00409783  0.33901396  0.66975464  1
  Fe  Fe32  1  0.17079964  0.50412243  0.83708536  1
  Fe  Fe33  1  0.17069551  0.83715947  0.50400839  1
  Fe  Fe34  1  1.00360034  0.66996613  0.67055382  1
  Ni  Ni35  1  0.17103725  0.83722442  0.83623452  1
  Fe  Fe36  1  0.50487440  0.17098436  0.50387602  1
  Fe  Fe37  1  0.33770640  0.00440663  0.67047535  1
  Fe  Fe38  1  0.50382604  0.17194203  0.83699042  1
  Fe  Fe39  1  0.50396901  0.50367649  0.50420694  1
  Fe  Fe40  1  0.33774170  0.33755323  0.67132653  1
  Ni  Ni41  1  0.50400815  0.50425340  0.83754520  1
  Ni  Ni42  1  0.50332783  0.83781593  0.50362222  1
  Ni  Ni43  1  0.33693514  0.67099703  0.67146911  1
  Fe  Fe44  1  0.50529601  0.83631034  0.83592679  1
  Ni  Ni45  1  0.83792804  0.17124116  0.50325525  1
  Ni  Ni46  1  0.66986816  1.00411603  0.67019102  1
  Cr  Cr47  1  0.83753011  0.17150871  0.83882806  1
  Ni  Ni48  1  0.83787763  0.50313095  0.50427175  1
  Ni  Ni49  1  0.67118445  0.33765635  0.67092139  1
  Ni  Ni50  1  0.83665827  0.50476025  0.83784347  1
  Fe  Fe51  1  0.83797816  0.83806499  0.50335722  1
  Fe  Fe52  1  0.67083173  0.66992887  0.67111988  1
  Fe  Fe53  1  0.83727173  0.83584345  0.83836244  1
" 