2235,Ni48Fe52_5,-240.954074429455, 218.699211528556,Ni48Fe52,"# generated using pymatgen
 data_Fe25Ni29
_symmetry_space_group_name_H-M   'P 1'
_cell_length_a   7.40151707
_cell_length_b   7.40151707
_cell_length_c   10.46732582
_cell_angle_alpha   90.00000000
_cell_angle_beta   90.00000000
_cell_angle_gamma   90.00000000
_symmetry_Int_Tables_number   1
_chemical_formula_structural   Fe25Ni29
_chemical_formula_sum   'Fe25 Ni29'
_cell_volume   573.42580429
_cell_formula_units_Z   1
loop_
 _symmetry_equiv_pos_site_id
 _symmetry_equiv_pos_as_xyz
  1  'x, y, z'
loop_
 _atom_site_type_symbol
 _atom_site_label
 _atom_site_symmetry_multiplicity
 _atom_site_fract_x
 _atom_site_fract_y
 _atom_site_fract_z
 _atom_site_occupancy
  Fe  Fe0  1  0.00462389  1.00360959  0.00479327  1
  Ni  Ni1  1  0.17131060  0.17191020  0.17051748  1
  Ni  Ni2  1  0.00442905  0.00580694  0.33767686  1
  Ni  Ni3  1  1.00359976  0.33741278  0.00458901  1
  Ni  Ni4  1  0.17205351  0.50362640  0.17116460  1
  Ni  Ni5  1  1.00304864  0.33721622  0.33808722  1
  Fe  Fe6  1  0.00472997  0.67159366  1.00409191  1
  Fe  Fe7  1  0.17239473  0.83832912  0.17122097  1
  Fe  Fe8  1  1.00404887  0.67193468  0.33815654  1
  Ni  Ni9  1  0.33784638  1.00258028  0.00448849  1
  Ni  Ni10  1  0.50401651  0.17179805  0.17075205  1
  Ni  Ni11  1  0.33792523  1.00238882  0.33809336  1
  Fe  Fe12  1  0.33780222  0.33820048  0.00506723  1
  Ni  Ni13  1  0.50359960  0.50406180  0.17066078  1
  Fe  Fe14  1  0.33802502  0.33661536  0.33756301  1
  Ni  Ni15  1  0.33858503  0.67263902  0.00458879  1
  Ni  Ni16  1  0.50541431  0.83741873  0.17093145  1
  Ni  Ni17  1  0.33793218  0.67228225  0.33712669  1
  Fe  Fe18  1  0.67096701  1.00370335  0.00480893  1
  Ni  Ni19  1  0.83795174  0.17010077  0.17125437  1
  Ni  Ni20  1  0.67092778  0.00515791  0.33725755  1
  Fe  Fe21  1  0.67020622  0.33809156  0.00480743  1
  Fe  Fe22  1  0.83738936  0.50332345  0.17132231  1
  Ni  Ni23  1  0.67295187  0.33721916  0.33740117  1
  Ni  Ni24  1  0.66980737  0.67125887  1.00426487  1
  Ni  Ni25  1  0.83752143  0.83815978  0.17061437  1
  Fe  Fe26  1  0.67134141  0.67153139  0.33725039  1
  Ni  Ni27  1  0.17215196  0.17050748  0.50500770  1
  Fe  Fe28  1  1.00423034  1.00402905  0.67066475  1
  Fe  Fe29  1  0.17025058  0.17046007  0.83802606  1
  Fe  Fe30  1  0.17102867  0.50456827  0.50419207  1
  Ni  Ni31  1  1.00322422  0.33768439  0.67060471  1
  Fe  Fe32  1  0.17051813  0.50532634  0.83826927  1
  Ni  Ni33  1  0.16970430  0.83874574  0.50431839  1
  Fe  Fe34  1  1.00361609  0.67142239  0.67103504  1
  Ni  Ni35  1  0.16997470  0.83775524  0.83843457  1
  Ni  Ni36  1  0.50346275  0.17264097  0.50437008  1
  Fe  Fe37  1  0.33769105  0.00518081  0.67091024  1
  Fe  Fe38  1  0.50475914  0.16981394  0.83736099  1
  Ni  Ni39  1  0.50525641  0.50295437  0.50478240  1
  Fe  Fe40  1  0.33860250  0.33745870  0.67064913  1
  Fe  Fe41  1  0.50442541  0.50590138  0.83768837  1
  Fe  Fe42  1  0.50402818  0.83788508  0.50393223  1
  Ni  Ni43  1  0.33756609  0.67209102  0.67156811  1
  Fe  Fe44  1  0.50409413  0.83756591  0.83852806  1
  Fe  Fe45  1  0.83756046  0.17149046  0.50399875  1
  Ni  Ni46  1  0.67109404  0.00490654  0.67111294  1
  Fe  Fe47  1  0.83827000  0.17078688  0.83774355  1
  Ni  Ni48  1  0.83660863  0.50540235  0.50459665  1
  Ni  Ni49  1  0.67312301  0.33693629  0.67143585  1
  Fe  Fe50  1  0.83833609  0.50465926  0.83725595  1
  Ni  Ni51  1  0.83874035  0.83695433  0.50514291  1
  Fe  Fe52  1  0.67172854  0.67051701  0.67134842  1
  Ni  Ni53  1  0.83855347  0.83743403  0.83752063  1
" 