6955,Ni48Fe15Cr36_2,-225.43449547897, 166.409460113673,Ni48Fe15Cr36,"# generated using pymatgen
 data_Cr10Fe4Ni13
_symmetry_space_group_name_H-M   'P 1'
_cell_length_a   7.48026258
_cell_length_b   7.48026258
_cell_length_c   10.57868879
_cell_angle_alpha   90.00000000
_cell_angle_beta   90.00000000
_cell_angle_gamma   90.00000000
_symmetry_Int_Tables_number   1
_chemical_formula_structural   Cr10Fe4Ni13
_chemical_formula_sum   'Cr20 Fe8 Ni26'
_cell_volume   591.92342482
_cell_formula_units_Z   2
loop_
 _symmetry_equiv_pos_site_id
 _symmetry_equiv_pos_as_xyz
  1  'x, y, z'
loop_
 _atom_site_type_symbol
 _atom_site_label
 _atom_site_symmetry_multiplicity
 _atom_site_fract_x
 _atom_site_fract_y
 _atom_site_fract_z
 _atom_site_occupancy
  Fe  Fe0  1  0.99894059  0.99759289  0.99897680  1
  Ni  Ni1  1  0.16919944  0.16732593  0.16657638  1
  Cr  Cr2  1  0.00388569  0.00013156  0.33223854  1
  Cr  Cr3  1  0.00108238  0.33098693  0.00094798  1
  Ni  Ni4  1  0.16415946  0.49827796  0.16654868  1
  Fe  Fe5  1  0.00296539  0.33410948  0.33251385  1
  Ni  Ni6  1  0.99823641  0.66486840  0.00179579  1
  Ni  Ni7  1  0.16483962  0.83197666  0.16536306  1
  Ni  Ni8  1  0.00027191  0.66026801  0.32969771  1
  Cr  Cr9  1  0.33313771  0.00176675  0.00286135  1
  Ni  Ni10  1  0.49635456  0.16587698  0.16933182  1
  Ni  Ni11  1  0.33473176  0.00146269  0.33003349  1
  Fe  Fe12  1  0.33339011  0.33173413  -0.00012679  1
  Cr  Cr13  1  0.50025361  0.49684859  0.16554281  1
  Ni  Ni14  1  0.33091367  0.33126323  0.33138044  1
  Cr  Cr15  1  0.33466317  0.66601277  0.00016628  1
  Ni  Ni16  1  0.50013922  0.83385507  0.16804057  1
  Cr  Cr17  1  0.33238288  0.66655625  0.33405642  1
  Cr  Cr18  1  0.66262082  -0.00071489  0.99684191  1
  Cr  Cr19  1  0.82966297  0.16613666  0.16916961  1
  Ni  Ni20  1  0.65993930  0.99898933  0.33140302  1
  Cr  Cr21  1  0.66381641  0.33187808  0.99780462  1
  Fe  Fe22  1  0.83330009  0.50008295  0.16749658  1
  Ni  Ni23  1  0.66405827  0.33377294  0.33178288  1
  Ni  Ni24  1  0.66632833  0.66647674  0.99787300  1
  Cr  Cr25  1  0.83185248  0.82936978  0.16610503  1
  Ni  Ni26  1  0.66466979  0.66468397  0.33202018  1
  Ni  Ni27  1  0.16893394  0.17004289  0.49926543  1
  Cr  Cr28  1  0.99886949  0.00411589  0.66895782  1
  Ni  Ni29  1  0.16969771  0.16632853  0.83193901  1
  Ni  Ni30  1  0.16871157  0.49469439  0.49941791  1
  Ni  Ni31  1  0.00149353  0.33040976  0.66412124  1
  Cr  Cr32  1  0.17081166  0.49739140  0.83109730  1
  Cr  Cr33  1  0.16995435  0.83390695  0.49960996  1
  Cr  Cr34  1  -0.00010819  0.66223559  0.66314591  1
  Cr  Cr35  1  0.16378143  0.83312838  0.83324775  1
  Cr  Cr36  1  0.49744487  0.16520998  0.49601208  1
  Ni  Ni37  1  0.33623236  0.00039261  0.66564333  1
  Ni  Ni38  1  0.49678446  0.16814975  0.83017063  1
  Ni  Ni39  1  0.49819328  0.49926151  0.50087141  1
  Fe  Fe40  1  0.33329559  0.33188043  0.66452514  1
  Ni  Ni41  1  0.50010843  0.49695560  0.83020441  1
  Ni  Ni42  1  0.50073612  0.83205007  0.50051735  1
  Ni  Ni43  1  0.33883812  0.66447994  0.66422404  1
  Fe  Fe44  1  0.49916402  0.83139600  0.82990574  1
  Cr  Cr45  1  0.83027875  0.16620586  0.49956089  1
  Ni  Ni46  1  0.66122305  0.99872005  0.66946969  1
  Fe  Fe47  1  0.83196230  0.16661870  0.83030018  1
  Cr  Cr48  1  0.83028807  0.49878363  0.49559794  1
  Fe  Fe49  1  0.66343846  0.33286167  0.66646849  1
  Cr  Cr50  1  0.83039082  0.50299951  0.83264498  1
  Cr  Cr51  1  0.82714638  0.83257090  0.49760969  1
  Ni  Ni52  1  0.65960299  0.66673135  0.66748160  1
  Ni  Ni53  1  0.82923098  0.83318942  0.83384869  1
" 