4957,Ni48Fe47Cr4_4,-239.561407477345, 215.401776512945,Ni48Fe47Cr4,"# generated using pymatgen
 data_Cr3Fe25Ni26
_symmetry_space_group_name_H-M   'P 1'
_cell_length_a   7.41492458
_cell_length_b   7.41492458
_cell_length_c   10.48628691
_cell_angle_alpha   90.00000000
_cell_angle_beta   90.00000000
_cell_angle_gamma   90.00000000
_symmetry_Int_Tables_number   1
_chemical_formula_structural   Cr3Fe25Ni26
_chemical_formula_sum   'Cr3 Fe25 Ni26'
_cell_volume   576.54765787
_cell_formula_units_Z   1
loop_
 _symmetry_equiv_pos_site_id
 _symmetry_equiv_pos_as_xyz
  1  'x, y, z'
loop_
 _atom_site_type_symbol
 _atom_site_label
 _atom_site_symmetry_multiplicity
 _atom_site_fract_x
 _atom_site_fract_y
 _atom_site_fract_z
 _atom_site_occupancy
  Fe  Fe0  1  1.00200196  1.00343193  1.00289682  1
  Fe  Fe1  1  0.16941317  0.17056293  0.17032748  1
  Fe  Fe2  1  1.00162947  0.00352242  0.33666770  1
  Fe  Fe3  1  1.00280047  0.33721860  0.00376754  1
  Ni  Ni4  1  0.16998662  0.50404521  0.17114708  1
  Fe  Fe5  1  1.00156616  0.33728551  0.33601109  1
  Ni  Ni6  1  0.00502527  0.67040709  0.00364536  1
  Fe  Fe7  1  0.16904983  0.83525479  0.17073993  1
  Ni  Ni8  1  1.00336172  0.67024607  0.33513987  1
  Fe  Fe9  1  0.33773766  0.00364142  1.00332761  1
  Fe  Fe10  1  0.50473582  0.17057899  0.16984277  1
  Fe  Fe11  1  0.33766985  1.00261898  0.33516850  1
  Fe  Fe12  1  0.33709520  0.33716585  1.00267609  1
  Fe  Fe13  1  0.50427317  0.50381452  0.17079843  1
  Fe  Fe14  1  0.33760218  0.33805528  0.33569227  1
  Fe  Fe15  1  0.33732811  0.66973656  1.00307260  1
  Fe  Fe16  1  0.50419443  0.83615055  0.17033684  1
  Ni  Ni17  1  0.33703041  0.66964077  0.33494477  1
  Ni  Ni18  1  0.67013593  0.00529056  1.00349153  1
  Fe  Fe19  1  0.83639272  0.17064311  0.17020139  1
  Ni  Ni20  1  0.67126093  0.00387213  0.33607822  1
  Ni  Ni21  1  0.66949910  0.33510573  1.00350805  1
  Ni  Ni22  1  0.83804132  0.50426122  0.17019033  1
  Ni  Ni23  1  0.67065752  0.33673236  0.33603995  1
  Fe  Fe24  1  0.67085895  0.67053821  0.00387800  1
  Ni  Ni25  1  0.83694502  0.83702277  0.17120331  1
  Ni  Ni26  1  0.67015404  0.66993831  0.33747496  1
  Fe  Fe27  1  0.16823832  0.17097756  0.50382670  1
  Ni  Ni28  1  1.00207425  0.00351688  0.67096437  1
  Fe  Fe29  1  0.17079432  0.17010289  0.83639182  1
  Cr  Cr30  1  0.17038804  0.50338640  0.50312302  1
  Fe  Fe31  1  1.00252751  0.33587478  0.67076563  1
  Ni  Ni32  1  0.17096776  0.50408977  0.83651495  1
  Cr  Cr33  1  0.17006669  0.83684324  0.50357695  1
  Ni  Ni34  1  0.00377458  0.67111513  0.67176214  1
  Fe  Fe35  1  0.17019676  0.83633288  0.83613506  1
  Cr  Cr36  1  0.50482134  0.17040995  0.50439064  1
  Fe  Fe37  1  0.33708170  0.00351842  0.67204753  1
  Ni  Ni38  1  0.50434350  0.16978851  0.83697079  1
  Ni  Ni39  1  0.50479622  0.50444727  0.50289149  1
  Ni  Ni40  1  0.33773019  0.33785984  0.67173452  1
  Ni  Ni41  1  0.50156252  0.50292170  0.83669487  1
  Fe  Fe42  1  0.50578714  0.83456068  0.50350061  1
  Ni  Ni43  1  0.33689508  0.66892428  0.67200960  1
  Ni  Ni44  1  0.50376833  0.83783419  0.83613096  1
  Ni  Ni45  1  0.83707492  0.16982791  0.50268054  1
  Ni  Ni46  1  0.67182407  0.00435361  0.67097434  1
  Ni  Ni47  1  0.83576399  0.16866351  0.83725791  1
  Ni  Ni48  1  0.83542402  0.50307834  0.50365675  1
  Ni  Ni49  1  0.66962953  0.33615796  0.67099650  1
  Fe  Fe50  1  0.83601362  0.50351513  0.83702405  1
  Fe  Fe51  1  0.83506704  0.83651498  0.50344916  1
  Fe  Fe52  1  0.66980608  0.67002727  0.66980733  1
  Ni  Ni53  1  0.83693126  0.83837093  0.83624911  1
" 