6801,Ni48Fe15Cr36_7,-226.103349100613, 165.910076436942,Ni48Fe15Cr36,"# generated using pymatgen
 data_Cr10Fe4Ni13
_symmetry_space_group_name_H-M   'P 1'
_cell_length_a   7.48395999
_cell_length_b   7.48395999
_cell_length_c   10.58391772
_cell_angle_alpha   90.00000000
_cell_angle_beta   90.00000000
_cell_angle_gamma   90.00000000
_symmetry_Int_Tables_number   1
_chemical_formula_structural   Cr10Fe4Ni13
_chemical_formula_sum   'Cr20 Fe8 Ni26'
_cell_volume   592.80160355
_cell_formula_units_Z   2
loop_
 _symmetry_equiv_pos_site_id
 _symmetry_equiv_pos_as_xyz
  1  'x, y, z'
loop_
 _atom_site_type_symbol
 _atom_site_label
 _atom_site_symmetry_multiplicity
 _atom_site_fract_x
 _atom_site_fract_y
 _atom_site_fract_z
 _atom_site_occupancy
  Ni  Ni0  1  0.00152483  0.99588464  0.00175051  1
  Ni  Ni1  1  0.16281610  0.16186070  0.16910029  1
  Ni  Ni2  1  -0.00019813  0.00101661  0.33264364  1
  Cr  Cr3  1  -0.00058526  0.33038870  0.00604660  1
  Fe  Fe4  1  0.16654638  0.50297147  0.16720542  1
  Ni  Ni5  1  0.99480274  0.32862069  0.33242527  1
  Ni  Ni6  1  0.00218401  0.66815677  0.00139007  1
  Ni  Ni7  1  0.16341887  0.83455660  0.16542609  1
  Cr  Cr8  1  0.00015802  0.66733287  0.33346871  1
  Cr  Cr9  1  0.33018354  0.99815564  0.99447577  1
  Cr  Cr10  1  0.49700193  0.16371656  0.17023983  1
  Ni  Ni11  1  0.32576404  0.99643326  0.33551864  1
  Cr  Cr12  1  0.33304965  0.33468991  0.99813315  1
  Ni  Ni13  1  0.50103485  0.49939267  0.16787016  1
  Cr  Cr14  1  0.32929552  0.33540352  0.33187765  1
  Ni  Ni15  1  0.32975216  0.66595165  -0.00000415  1
  Cr  Cr16  1  0.49639767  0.83190469  0.16939042  1
  Ni  Ni17  1  0.33253612  0.66906320  0.33259126  1
  Cr  Cr18  1  0.66804662  0.99885265  0.99811242  1
  Fe  Fe19  1  0.83280211  0.16233524  0.16915467  1
  Fe  Fe20  1  0.66903507  0.99801437  0.33379716  1
  Cr  Cr21  1  0.66466963  0.33241128  -0.00055868  1
  Ni  Ni22  1  0.83388734  0.49972562  0.16675876  1
  Ni  Ni23  1  0.67009600  0.33334878  0.33213542  1
  Cr  Cr24  1  0.66366126  0.66456502  0.99794560  1
  Ni  Ni25  1  0.83683297  0.83152809  0.16613261  1
  Cr  Cr26  1  0.66606621  0.66343494  0.33623085  1
  Ni  Ni27  1  0.16251570  0.16214052  0.49976332  1
  Ni  Ni28  1  0.00206772  0.99808286  0.66274737  1
  Cr  Cr29  1  0.16473002  0.16479741  0.82778372  1
  Cr  Cr30  1  0.16373013  0.49769980  0.49878254  1
  Fe  Fe31  1  0.99716822  0.32961640  0.66107492  1
  Cr  Cr32  1  0.16264353  0.50264937  0.83049746  1
  Ni  Ni33  1  0.16576028  0.83644052  0.49828057  1
  Fe  Fe34  1  0.99804496  0.67084980  0.66170427  1
  Ni  Ni35  1  0.16522109  0.83222896  0.83215258  1
  Cr  Cr36  1  0.49669462  0.16429934  0.49628327  1
  Ni  Ni37  1  0.32886147  0.99757356  0.66525680  1
  Ni  Ni38  1  0.49820295  0.16632268  0.82774553  1
  Ni  Ni39  1  0.50305894  0.49916070  0.49851182  1
  Fe  Fe40  1  0.33560593  0.33119301  0.66362108  1
  Ni  Ni41  1  0.49834514  0.49937306  0.82900225  1
  Ni  Ni42  1  0.49728840  0.83253951  0.49645547  1
  Cr  Cr43  1  0.33447755  0.66892944  0.66296518  1
  Ni  Ni44  1  0.49627317  0.83042628  0.83088942  1
  Fe  Fe45  1  0.83285313  0.16625693  0.49887554  1
  Cr  Cr46  1  0.66416207  0.99576053  0.66520697  1
  Cr  Cr47  1  0.83389611  0.16605667  0.83174741  1
  Ni  Ni48  1  0.83140815  0.49670383  0.50203442  1
  Ni  Ni49  1  0.66540164  0.33458658  0.66470705  1
  Cr  Cr50  1  0.83409669  0.50024590  0.82868607  1
  Fe  Fe51  1  0.83339994  0.83265644  0.49958691  1
  Ni  Ni52  1  0.66489602  0.66279783  0.66297209  1
  Cr  Cr53  1  0.83740114  0.82988085  0.83239278  1
" 