3227,Ni48Fe15Cr36_10,-225.977125225005, 170.592796656712,Ni48Fe15Cr36,"# generated using pymatgen
 data_Cr10Fe4Ni13
_symmetry_space_group_name_H-M   'P 1'
_cell_length_a   7.47252050
_cell_length_b   7.47252050
_cell_length_c   10.56773983
_cell_angle_alpha   90.00000000
_cell_angle_beta   90.00000000
_cell_angle_gamma   90.00000000
_symmetry_Int_Tables_number   1
_chemical_formula_structural   Cr10Fe4Ni13
_chemical_formula_sum   'Cr20 Fe8 Ni26'
_cell_volume   590.08740216
_cell_formula_units_Z   2
loop_
 _symmetry_equiv_pos_site_id
 _symmetry_equiv_pos_as_xyz
  1  'x, y, z'
loop_
 _atom_site_type_symbol
 _atom_site_label
 _atom_site_symmetry_multiplicity
 _atom_site_fract_x
 _atom_site_fract_y
 _atom_site_fract_z
 _atom_site_occupancy
  Ni  Ni0  1  0.00008306  0.99872588  0.00030577  1
  Ni  Ni1  1  0.16682297  0.16638545  0.16490498  1
  Fe  Fe2  1  0.99954122  0.99895159  0.33366881  1
  Fe  Fe3  1  0.00297278  0.33226405  0.99905243  1
  Fe  Fe4  1  0.16672227  0.49774337  0.16417985  1
  Cr  Cr5  1  0.00394383  0.33150002  0.33261745  1
  Ni  Ni6  1  0.00135501  0.66724926  0.99855036  1
  Cr  Cr7  1  0.16581035  0.83398788  0.16483587  1
  Cr  Cr8  1  0.99948014  0.66794095  0.33426134  1
  Ni  Ni9  1  0.33263055  0.00067834  0.99754323  1
  Cr  Cr10  1  0.49894720  0.16658397  0.16597079  1
  Cr  Cr11  1  0.33231514  0.00263118  0.33418384  1
  Ni  Ni12  1  0.33053044  0.33210608  0.99962600  1
  Cr  Cr13  1  0.49788861  0.49868771  0.16652939  1
  Ni  Ni14  1  0.33206756  0.33238950  0.33484299  1
  Ni  Ni15  1  0.33050591  0.66616179  0.99955579  1
  Fe  Fe16  1  0.50081836  0.83518432  0.16489450  1
  Cr  Cr17  1  0.33248816  0.66374882  0.33324217  1
  Ni  Ni18  1  0.66620583  0.99896259  0.99896030  1
  Cr  Cr19  1  0.83331414  0.16430391  0.16565428  1
  Ni  Ni20  1  0.66785039  0.99900001  0.33290632  1
  Ni  Ni21  1  0.66499262  0.33086330  0.99934910  1
  Cr  Cr22  1  0.83305281  0.49946571  0.16413424  1
  Fe  Fe23  1  0.66312507  0.33171441  0.33417849  1
  Cr  Cr24  1  0.66699229  0.66978974  -0.00022822  1
  Ni  Ni25  1  0.83350619  0.83469671  0.16619024  1
  Cr  Cr26  1  0.66690027  0.66896055  0.33273584  1
  Ni  Ni27  1  0.16726885  0.16539113  0.49981786  1
  Ni  Ni28  1  0.00027082  0.99858874  0.66478947  1
  Ni  Ni29  1  0.16750101  0.16461820  0.83414588  1
  Ni  Ni30  1  0.16843911  0.50023508  0.50041730  1
  Ni  Ni31  1  0.00344307  0.33216595  0.66690313  1
  Ni  Ni32  1  0.16641953  0.50144857  0.83462095  1
  Ni  Ni33  1  0.16427166  0.83322041  0.50188022  1
  Fe  Fe34  1  0.00226074  0.66801536  0.66666971  1
  Ni  Ni35  1  0.16610429  0.83282234  0.83262607  1
  Ni  Ni36  1  0.49910482  0.16770437  0.49837328  1
  Fe  Fe37  1  0.33177050  -0.00023989  0.66717556  1
  Ni  Ni38  1  0.49862007  0.16398324  0.83460352  1
  Ni  Ni39  1  0.49724379  0.49735256  0.49804255  1
  Cr  Cr40  1  0.33031449  0.33229639  0.66467317  1
  Cr  Cr41  1  0.49746112  0.49901893  0.83411368  1
  Cr  Cr42  1  0.49840107  0.83392046  0.50088222  1
  Ni  Ni43  1  0.33008340  0.66679924  0.66568992  1
  Fe  Fe44  1  0.49743954  0.83576507  0.83306522  1
  Cr  Cr45  1  0.83249575  0.16392621  0.49910589  1
  Ni  Ni46  1  0.66701936  0.99818735  0.66707713  1
  Cr  Cr47  1  0.83287211  0.16491229  0.83409590  1
  Cr  Cr48  1  0.83280997  0.49986329  0.50123884  1
  Cr  Cr49  1  0.66528049  0.33093108  0.66497118  1
  Cr  Cr50  1  0.83561140  0.49961353  0.83348582  1
  Ni  Ni51  1  0.83539461  0.83505495  0.49955625  1
  Cr  Cr52  1  0.66618455  0.66932058  0.66638595  1
  Ni  Ni53  1  0.83527582  0.83463263  0.83317233  1
" 