3867,Ni48Fe52_4,-241.381610703033, 221.813623282388,Ni48Fe52,"# generated using pymatgen
 data_Fe25Ni29
_symmetry_space_group_name_H-M   'P 1'
_cell_length_a   7.40008273
_cell_length_b   7.40008273
_cell_length_c   10.46529736
_cell_angle_alpha   90.00000000
_cell_angle_beta   90.00000000
_cell_angle_gamma   90.00000000
_symmetry_Int_Tables_number   1
_chemical_formula_structural   Fe25Ni29
_chemical_formula_sum   'Fe25 Ni29'
_cell_volume   573.09249745
_cell_formula_units_Z   1
loop_
 _symmetry_equiv_pos_site_id
 _symmetry_equiv_pos_as_xyz
  1  'x, y, z'
loop_
 _atom_site_type_symbol
 _atom_site_label
 _atom_site_symmetry_multiplicity
 _atom_site_fract_x
 _atom_site_fract_y
 _atom_site_fract_z
 _atom_site_occupancy
  Fe  Fe0  1  0.00621797  1.00438050  1.00403369  1
  Ni  Ni1  1  0.17129280  0.17049216  0.17076951  1
  Fe  Fe2  1  1.00424527  1.00415939  0.33866984  1
  Ni  Ni3  1  0.00477637  0.33825899  0.00493118  1
  Ni  Ni4  1  0.17090673  0.50423691  0.17167737  1
  Fe  Fe5  1  1.00386035  0.33865447  0.33769748  1
  Ni  Ni6  1  1.00402135  0.67042986  1.00433868  1
  Fe  Fe7  1  0.17118855  0.83646985  0.17047418  1
  Ni  Ni8  1  1.00302732  0.67089457  0.33832204  1
  Ni  Ni9  1  0.33902265  0.00525948  1.00423293  1
  Fe  Fe10  1  0.50362662  0.17249974  0.17074528  1
  Fe  Fe11  1  0.33762971  1.00409987  0.33749077  1
  Ni  Ni12  1  0.33776615  0.33701828  0.00492969  1
  Ni  Ni13  1  0.50492488  0.50510492  0.17071473  1
  Fe  Fe14  1  0.33801414  0.33871360  0.33785810  1
  Ni  Ni15  1  0.33814411  0.67129623  0.00519438  1
  Fe  Fe16  1  0.50387544  0.83683895  0.17070045  1
  Fe  Fe17  1  0.33824359  0.67075554  0.33755532  1
  Fe  Fe18  1  0.67044509  1.00445881  1.00393319  1
  Fe  Fe19  1  0.83853213  0.17280460  0.17155634  1
  Fe  Fe20  1  0.67169919  1.00393397  0.33822314  1
  Fe  Fe21  1  0.67046108  0.33880240  0.00454211  1
  Ni  Ni22  1  0.83774014  0.50548442  0.17119355  1
  Fe  Fe23  1  0.67169928  0.33927280  0.33830649  1
  Fe  Fe24  1  0.67068528  0.67031591  1.00431517  1
  Fe  Fe25  1  0.83851101  0.83630777  0.17122561  1
  Ni  Ni26  1  0.67194100  0.67127258  0.33745810  1
  Ni  Ni27  1  0.17109525  0.16983448  0.50503063  1
  Ni  Ni28  1  1.00375024  0.00528628  0.67129469  1
  Fe  Fe29  1  0.17164003  0.17156615  0.83794070  1
  Fe  Fe30  1  0.17104690  0.50311686  0.50511738  1
  Ni  Ni31  1  0.00499332  0.33688565  0.67059492  1
  Ni  Ni32  1  0.17070836  0.50524670  0.83782816  1
  Fe  Fe33  1  0.17074180  0.83809377  0.50524220  1
  Ni  Ni34  1  1.00337859  0.67140195  0.67091817  1
  Ni  Ni35  1  0.17070858  0.83796422  0.83841750  1
  Ni  Ni36  1  0.50394513  0.17108645  0.50385180  1
  Fe  Fe37  1  0.33704165  1.00423990  0.67168220  1
  Ni  Ni38  1  0.50376416  0.17073950  0.83788058  1
  Ni  Ni39  1  0.50557166  0.50476143  0.50471070  1
  Ni  Ni40  1  0.33798034  0.33736700  0.67134604  1
  Ni  Ni41  1  0.50450585  0.50437980  0.83814823  1
  Fe  Fe42  1  0.50534033  0.83785280  0.50485300  1
  Ni  Ni43  1  0.33921181  0.67053306  0.67081139  1
  Ni  Ni44  1  0.50413647  0.83845473  0.83766742  1
  Ni  Ni45  1  0.83853302  0.17108445  0.50433590  1
  Fe  Fe46  1  0.67149217  1.00438420  0.67141413  1
  Fe  Fe47  1  0.83792186  0.17118078  0.83720728  1
  Ni  Ni48  1  0.83728532  0.50514072  0.50444397  1
  Fe  Fe49  1  0.67147491  0.33896296  0.67072247  1
  Ni  Ni50  1  0.83835937  0.50561632  0.83793376  1
  Fe  Fe51  1  0.83748978  0.83793074  0.50493658  1
  Ni  Ni52  1  0.67098400  0.67178017  0.67124162  1
  Ni  Ni53  1  0.83872946  0.83722094  0.83766785  1
" 