7569,Ni48Fe38Cr12_10,-235.815133674374, 209.909364588288,Ni48Fe38Cr12,"# generated using pymatgen
 data_Cr4Fe10Ni13
_symmetry_space_group_name_H-M   'P 1'
_cell_length_a   7.42927255
_cell_length_b   7.42927255
_cell_length_c   10.50657800
_cell_angle_alpha   90.00000000
_cell_angle_beta   90.00000000
_cell_angle_gamma   90.00000000
_symmetry_Int_Tables_number   1
_chemical_formula_structural   Cr4Fe10Ni13
_chemical_formula_sum   'Cr8 Fe20 Ni26'
_cell_volume   579.90101919
_cell_formula_units_Z   2
loop_
 _symmetry_equiv_pos_site_id
 _symmetry_equiv_pos_as_xyz
  1  'x, y, z'
loop_
 _atom_site_type_symbol
 _atom_site_label
 _atom_site_symmetry_multiplicity
 _atom_site_fract_x
 _atom_site_fract_y
 _atom_site_fract_z
 _atom_site_occupancy
  Ni  Ni0  1  1.00132740  0.00435215  1.00139394  1
  Ni  Ni1  1  0.16810338  0.16946660  0.16862836  1
  Ni  Ni2  1  1.00180879  1.00085270  0.33586526  1
  Fe  Fe3  1  0.00379843  0.33439461  1.00214250  1
  Ni  Ni4  1  0.17091715  0.50245131  0.16849399  1
  Cr  Cr5  1  1.00157396  0.33520146  0.33322927  1
  Cr  Cr6  1  1.00251206  0.66965599  1.00131994  1
  Cr  Cr7  1  0.17039599  0.83591682  0.17002480  1
  Fe  Fe8  1  1.00116361  0.67050530  0.33600678  1
  Fe  Fe9  1  0.33491416  0.00415103  1.00200987  1
  Ni  Ni10  1  0.50463592  0.16927357  0.16940989  1
  Fe  Fe11  1  0.33734885  1.00246262  0.33729270  1
  Ni  Ni12  1  0.33656373  0.33651391  0.00255780  1
  Ni  Ni13  1  0.50259475  0.50342446  0.16871170  1
  Cr  Cr14  1  0.33789141  0.33466715  0.33474284  1
  Ni  Ni15  1  0.33730665  0.66655503  1.00206140  1
  Fe  Fe16  1  0.50317678  0.83589181  0.16975978  1
  Ni  Ni17  1  0.33696591  0.67102579  0.33481928  1
  Fe  Fe18  1  0.66999697  0.00333522  0.00380374  1
  Ni  Ni19  1  0.83489274  0.16842196  0.16844814  1
  Ni  Ni20  1  0.66888049  1.00188074  0.33539244  1
  Fe  Fe21  1  0.66903686  0.33582473  0.00288892  1
  Fe  Fe22  1  0.83439902  0.50109165  0.16922254  1
  Ni  Ni23  1  0.66860998  0.33550155  0.33414528  1
  Fe  Fe24  1  0.66829436  0.66846234  1.00249556  1
  Fe  Fe25  1  0.83419205  0.83777474  0.16971487  1
  Fe  Fe26  1  0.66951308  0.67006756  0.33570297  1
  Fe  Fe27  1  0.17115587  0.16575088  0.50433311  1
  Ni  Ni28  1  0.00430523  1.00136727  0.67037272  1
  Ni  Ni29  1  0.16767560  0.16957600  0.83560701  1
  Cr  Cr30  1  0.16783273  0.50419586  0.50397943  1
  Ni  Ni31  1  1.00201666  0.33610137  0.67145542  1
  Ni  Ni32  1  0.16964707  0.50216478  0.83540373  1
  Fe  Fe33  1  0.16999268  0.83785456  0.50290038  1
  Ni  Ni34  1  1.00107521  0.67015775  0.66957225  1
  Ni  Ni35  1  0.16861230  0.83588613  0.83418005  1
  Ni  Ni36  1  0.50327834  0.16626829  0.50318786  1
  Ni  Ni37  1  0.33462015  0.00356713  0.66767975  1
  Fe  Fe38  1  0.50233909  0.17080118  0.83555468  1
  Cr  Cr39  1  0.50409674  0.50319504  0.50388000  1
  Fe  Fe40  1  0.33516633  0.33419361  0.67094571  1
  Fe  Fe41  1  0.50263201  0.50130935  0.83629778  1
  Ni  Ni42  1  0.50226432  0.83736764  0.50125381  1
  Fe  Fe43  1  0.33455549  0.67015095  0.66993918  1
  Cr  Cr44  1  0.50213270  0.83517829  0.83647255  1
  Cr  Cr45  1  0.83470546  0.16888600  0.50369143  1
  Fe  Fe46  1  0.66989369  1.00247505  0.66866065  1
  Ni  Ni47  1  0.83663091  0.16934293  0.83602370  1
  Fe  Fe48  1  0.83401583  0.50424749  0.50438705  1
  Ni  Ni49  1  0.66896012  0.33686528  0.67044908  1
  Ni  Ni50  1  0.83583567  0.50123088  0.83402471  1
  Fe  Fe51  1  0.83523642  0.83483498  0.50301993  1
  Ni  Ni52  1  0.67116239  0.66813730  0.66912935  1
  Ni  Ni53  1  0.83663135  0.83705603  0.83459897  1
" 