8948,Ni48Fe38Cr12_1,-235.537927087923, 207.050828426278,Ni48Fe38Cr12,"# generated using pymatgen
 data_Cr4Fe10Ni13
_symmetry_space_group_name_H-M   'P 1'
_cell_length_a   7.42880227
_cell_length_b   7.42880227
_cell_length_c   10.50591292
_cell_angle_alpha   90.00000000
_cell_angle_beta   90.00000000
_cell_angle_gamma   90.00000000
_symmetry_Int_Tables_number   1
_chemical_formula_structural   Cr4Fe10Ni13
_chemical_formula_sum   'Cr8 Fe20 Ni26'
_cell_volume   579.79090057
_cell_formula_units_Z   2
loop_
 _symmetry_equiv_pos_site_id
 _symmetry_equiv_pos_as_xyz
  1  'x, y, z'
loop_
 _atom_site_type_symbol
 _atom_site_label
 _atom_site_symmetry_multiplicity
 _atom_site_fract_x
 _atom_site_fract_y
 _atom_site_fract_z
 _atom_site_occupancy
  Fe  Fe0  1  0.00302806  0.00461547  0.00324551  1
  Ni  Ni1  1  0.16756865  0.16968737  0.17001154  1
  Ni  Ni2  1  0.00276205  1.00196925  0.33546857  1
  Ni  Ni3  1  1.00165370  0.33587908  0.00409162  1
  Ni  Ni4  1  0.16892179  0.50117338  0.17072672  1
  Fe  Fe5  1  1.00215476  0.33366011  0.33582723  1
  Cr  Cr6  1  1.00238959  0.66899342  1.00157782  1
  Fe  Fe7  1  0.16898669  0.83799743  0.17038579  1
  Fe  Fe8  1  0.00321873  0.66882798  0.33552155  1
  Ni  Ni9  1  0.33461500  0.00312059  0.00450181  1
  Fe  Fe10  1  0.50194614  0.16924712  0.17038126  1
  Ni  Ni11  1  0.33489660  0.00364321  0.33665195  1
  Ni  Ni12  1  0.33471003  0.33506257  0.00326523  1
  Cr  Cr13  1  0.50265610  0.50249010  0.17047532  1
  Ni  Ni14  1  0.33470634  0.33512769  0.33589687  1
  Cr  Cr15  1  0.33365384  0.66895608  0.00280315  1
  Fe  Fe16  1  0.50269584  0.83919351  0.17066309  1
  Fe  Fe17  1  0.33592608  0.66998658  0.33748448  1
  Fe  Fe18  1  0.67101785  0.00383607  0.00419492  1
  Ni  Ni19  1  0.83634765  0.16771987  0.16918214  1
  Ni  Ni20  1  0.66992014  0.00272951  0.33558714  1
  Ni  Ni21  1  0.67150882  0.33567261  1.00184407  1
  Fe  Fe22  1  0.83711149  0.49931793  0.17048912  1
  Ni  Ni23  1  0.66969006  0.33541002  0.33764084  1
  Fe  Fe24  1  0.66999402  0.66746363  0.00275477  1
  Fe  Fe25  1  0.83616067  0.83608856  0.17027029  1
  Ni  Ni26  1  0.67074983  0.66953753  0.33587463  1
  Fe  Fe27  1  0.16941779  0.17091170  0.50214572  1
  Ni  Ni28  1  1.00251899  1.00171259  0.66928098  1
  Cr  Cr29  1  0.16708291  0.16927867  0.83517654  1
  Ni  Ni30  1  0.16989187  0.50391477  0.50211737  1
  Ni  Ni31  1  1.00174195  0.33539310  0.66802095  1
  Fe  Fe32  1  0.16898779  0.50147490  0.83440525  1
  Fe  Fe33  1  0.16927094  0.83719170  0.50325480  1
  Fe  Fe34  1  0.00373554  0.66797247  0.66947671  1
  Ni  Ni35  1  0.16709742  0.83598714  0.83405191  1
  Ni  Ni36  1  0.50321656  0.17139957  0.50098365  1
  Fe  Fe37  1  0.33467533  0.00356081  0.66691298  1
  Cr  Cr38  1  0.50342002  0.17273798  0.83663073  1
  Ni  Ni39  1  0.50100544  0.50226040  0.50201635  1
  Ni  Ni40  1  0.33590361  0.33898586  0.66847563  1
  Ni  Ni41  1  0.50213258  0.50182707  0.83568232  1
  Fe  Fe42  1  0.50113263  0.83555825  0.50044316  1
  Ni  Ni43  1  0.33373616  0.66805218  0.66873297  1
  Cr  Cr44  1  0.50157418  0.83514511  0.83623326  1
  Ni  Ni45  1  0.83731460  0.16802163  0.50190687  1
  Cr  Cr46  1  0.67139273  0.00480191  0.66699215  1
  Ni  Ni47  1  0.83756113  0.16913486  0.83647961  1
  Fe  Fe48  1  0.83596934  0.49986317  0.50138720  1
  Ni  Ni49  1  0.67012741  0.33647317  0.66827504  1
  Fe  Fe50  1  0.83581139  0.49957984  0.83588524  1
  Fe  Fe51  1  0.83754551  0.83546510  0.50074569  1
  Cr  Cr52  1  0.66924125  0.66732615  0.66949667  1
  Ni  Ni53  1  0.83850716  0.83756598  0.83697562  1
" 