7844,Ni48Fe38Cr12_11,-235.382348004494, 208.793718564328,Ni48Fe38Cr12,"# generated using pymatgen
 data_Cr4Fe10Ni13
_symmetry_space_group_name_H-M   'P 1'
_cell_length_a   7.42771073
_cell_length_b   7.42771073
_cell_length_c   10.50436925
_cell_angle_alpha   90.00000000
_cell_angle_beta   90.00000000
_cell_angle_gamma   90.00000000
_symmetry_Int_Tables_number   1
_chemical_formula_structural   Cr4Fe10Ni13
_chemical_formula_sum   'Cr8 Fe20 Ni26'
_cell_volume   579.53536546
_cell_formula_units_Z   2
loop_
 _symmetry_equiv_pos_site_id
 _symmetry_equiv_pos_as_xyz
  1  'x, y, z'
loop_
 _atom_site_type_symbol
 _atom_site_label
 _atom_site_symmetry_multiplicity
 _atom_site_fract_x
 _atom_site_fract_y
 _atom_site_fract_z
 _atom_site_occupancy
  Cr  Cr0  1  0.99962283  1.00131785  0.00378466  1
  Ni  Ni1  1  0.16933239  0.16898900  0.16984184  1
  Ni  Ni2  1  1.00197360  1.00108917  0.33622166  1
  Ni  Ni3  1  0.00442574  0.33702825  1.00123642  1
  Fe  Fe4  1  0.17157546  0.50165447  0.16923343  1
  Fe  Fe5  1  0.00468860  0.33349453  0.33605542  1
  Ni  Ni6  1  0.00503111  0.66863007  1.00254190  1
  Ni  Ni7  1  0.17081739  0.83569928  0.16955646  1
  Ni  Ni8  1  0.00440072  0.67045788  0.33616803  1
  Fe  Fe9  1  0.33517731  1.00143616  0.00424559  1
  Ni  Ni10  1  0.50128984  0.17020491  0.16870275  1
  Ni  Ni11  1  0.33461764  0.00360505  0.33434677  1
  Ni  Ni12  1  0.33575492  0.33881913  0.00358557  1
  Ni  Ni13  1  0.50264572  0.50291011  0.16860837  1
  Ni  Ni14  1  0.33662001  0.33668359  0.33565450  1
  Ni  Ni15  1  0.33521835  0.66736932  0.00291405  1
  Ni  Ni16  1  0.49952831  0.83514725  0.16706663  1
  Ni  Ni17  1  0.33246785  0.66772245  0.33392823  1
  Ni  Ni18  1  0.66901124  0.00268955  0.00380039  1
  Ni  Ni19  1  0.83729251  0.17171284  0.16745398  1
  Cr  Cr20  1  0.67142473  0.00514848  0.33478850  1
  Fe  Fe21  1  0.66939262  0.33610713  0.00314655  1
  Cr  Cr22  1  0.83803317  0.50210490  0.16976370  1
  Fe  Fe23  1  0.66974103  0.33570517  0.33595656  1
  Fe  Fe24  1  0.66879867  0.67046667  1.00174784  1
  Fe  Fe25  1  0.83584062  0.83617035  0.16863542  1
  Fe  Fe26  1  0.66854268  0.66980759  0.33471264  1
  Fe  Fe27  1  0.16992104  0.16954269  0.50137332  1
  Fe  Fe28  1  0.00375469  1.00258440  0.66882171  1
  Fe  Fe29  1  0.16866927  0.16935153  0.83643238  1
  Ni  Ni30  1  0.16589364  0.50220733  0.50127258  1
  Fe  Fe31  1  0.00524970  0.33595030  0.66980129  1
  Fe  Fe32  1  0.16825253  0.50236604  0.83669715  1
  Ni  Ni33  1  0.16825161  0.83725079  0.50279026  1
  Ni  Ni34  1  1.00170678  0.66902398  0.66928457  1
  Fe  Fe35  1  0.16916428  0.83624662  0.83631322  1
  Fe  Fe36  1  0.49995936  0.16951936  0.50246194  1
  Ni  Ni37  1  0.33610942  0.00441851  0.66950181  1
  Cr  Cr38  1  0.50031442  0.16720252  0.83747125  1
  Cr  Cr39  1  0.50258847  0.50338017  0.50140360  1
  Ni  Ni40  1  0.33362495  0.33533422  0.66877710  1
  Fe  Fe41  1  0.50252291  0.50420356  0.83817626  1
  Cr  Cr42  1  0.49984088  0.83775939  0.50342975  1
  Cr  Cr43  1  0.33182028  0.66711580  0.67076377  1
  Ni  Ni44  1  0.50333573  0.83624727  0.83700509  1
  Ni  Ni45  1  0.83927679  0.17056412  0.50373683  1
  Ni  Ni46  1  0.67197651  1.00260818  0.66868450  1
  Fe  Fe47  1  0.83641246  0.16705563  0.83639241  1
  Ni  Ni48  1  0.83952144  0.50173366  0.50305887  1
  Cr  Cr49  1  0.66915848  0.33490272  0.66958511  1
  Fe  Fe50  1  0.83711713  0.50468602  0.83661837  1
  Fe  Fe51  1  0.83911344  0.83431925  0.50418632  1
  Fe  Fe52  1  0.67068695  0.67071593  0.67087567  1
  Ni  Ni53  1  0.83548277  0.83452982  0.83437798  1
" 