803,Ni48Fe47Cr4_13,-239.17010718887, 218.597295675887,Ni48Fe47Cr4,"# generated using pymatgen
 data_Cr3Fe25Ni26
_symmetry_space_group_name_H-M   'P 1'
_cell_length_a   7.41207521
_cell_length_b   7.41207521
_cell_length_c   10.48225728
_cell_angle_alpha   90.00000000
_cell_angle_beta   90.00000000
_cell_angle_gamma   90.00000000
_symmetry_Int_Tables_number   1
_chemical_formula_structural   Cr3Fe25Ni26
_chemical_formula_sum   'Cr3 Fe25 Ni26'
_cell_volume   575.88325316
_cell_formula_units_Z   1
loop_
 _symmetry_equiv_pos_site_id
 _symmetry_equiv_pos_as_xyz
  1  'x, y, z'
loop_
 _atom_site_type_symbol
 _atom_site_label
 _atom_site_symmetry_multiplicity
 _atom_site_fract_x
 _atom_site_fract_y
 _atom_site_fract_z
 _atom_site_occupancy
  Ni  Ni0  1  1.00306842  0.00439826  1.00301421  1
  Fe  Fe1  1  0.16962170  0.17005248  0.16861958  1
  Ni  Ni2  1  0.00382498  0.00409542  0.33582382  1
  Ni  Ni3  1  1.00307074  0.33660177  0.00465574  1
  Ni  Ni4  1  0.17040213  0.50236696  0.16951137  1
  Fe  Fe5  1  1.00335724  0.33705989  0.33619847  1
  Fe  Fe6  1  0.00372688  0.66986510  0.00403912  1
  Fe  Fe7  1  0.17025537  0.83702993  0.17031343  1
  Ni  Ni8  1  0.00751601  0.67035418  0.33489727  1
  Fe  Fe9  1  0.33663148  1.00363152  1.00345999  1
  Ni  Ni10  1  0.50292514  0.17026676  0.16915138  1
  Fe  Fe11  1  0.33797053  1.00340790  0.33704782  1
  Fe  Fe12  1  0.33608119  0.33668398  1.00360561  1
  Ni  Ni13  1  0.50279735  0.50303166  0.17062574  1
  Fe  Fe14  1  0.33740435  0.33558607  0.33607493  1
  Fe  Fe15  1  0.33705186  0.67076864  1.00336988  1
  Ni  Ni16  1  0.50386169  0.83789415  0.17184460  1
  Ni  Ni17  1  0.33765003  0.67009044  0.33570411  1
  Fe  Fe18  1  0.67014886  1.00357811  0.00499394  1
  Ni  Ni19  1  0.83744850  0.17012497  0.17121753  1
  Ni  Ni20  1  0.66895417  0.00639404  0.33466597  1
  Fe  Fe21  1  0.67139850  0.33744530  0.00606406  1
  Ni  Ni22  1  0.83801517  0.50347643  0.17181664  1
  Ni  Ni23  1  0.66858618  0.33554898  0.33651470  1
  Fe  Fe24  1  0.67062823  0.67028847  0.00454728  1
  Ni  Ni25  1  0.83778271  0.83773865  0.17011278  1
  Fe  Fe26  1  0.67046325  0.67131980  0.33473436  1
  Fe  Fe27  1  0.17151420  0.16651610  0.50344880  1
  Ni  Ni28  1  1.00181324  0.00494260  0.67206586  1
  Ni  Ni29  1  0.17005106  0.16986435  0.83671535  1
  Fe  Fe30  1  0.17428300  0.50565761  0.50177100  1
  Cr  Cr31  1  1.00323717  0.33568511  0.66827557  1
  Ni  Ni32  1  0.17107119  0.50185312  0.83852726  1
  Ni  Ni33  1  0.17137918  0.83764758  0.50340152  1
  Cr  Cr34  1  0.00903387  0.67092091  0.67377896  1
  Ni  Ni35  1  0.17174209  0.83918434  0.83781728  1
  Ni  Ni36  1  0.50322529  0.17049593  0.50482702  1
  Fe  Fe37  1  0.33564434  1.00233082  0.67040696  1
  Fe  Fe38  1  0.50215902  0.17163509  0.83752910  1
  Fe  Fe39  1  0.50313846  0.50558410  0.50290558  1
  Fe  Fe40  1  0.33801006  0.33635913  0.67112632  1
  Ni  Ni41  1  0.50430287  0.50323912  0.83675425  1
  Ni  Ni42  1  0.50272088  0.83882029  0.50350922  1
  Ni  Ni43  1  0.33969054  0.66955379  0.67115895  1
  Ni  Ni44  1  0.50330052  0.83772493  0.83603519  1
  Fe  Fe45  1  0.83445077  0.16790104  0.50164153  1
  Ni  Ni46  1  0.66880859  0.00615665  0.67289372  1
  Fe  Fe47  1  0.83652793  0.17025371  0.83948839  1
  Fe  Fe48  1  0.83519431  0.50385342  0.50128854  1
  Fe  Fe49  1  0.66910474  0.33769193  0.66946833  1
  Ni  Ni50  1  0.83602893  0.50191857  0.83850723  1
  Cr  Cr51  1  0.83620409  0.83645204  0.50335113  1
  Fe  Fe52  1  0.67032429  0.67139813  0.67203065  1
  Fe  Fe53  1  0.83664492  0.83750796  0.83890025  1
" 