4586,Ni48Fe38Cr12_5,-235.354054058395, 208.836780879295,Ni48Fe38Cr12,"# generated using pymatgen
 data_Cr4Fe10Ni13
_symmetry_space_group_name_H-M   'P 1'
_cell_length_a   7.42688405
_cell_length_b   7.42688405
_cell_length_c   10.50320015
_cell_angle_alpha   90.00000000
_cell_angle_beta   90.00000000
_cell_angle_gamma   90.00000000
_symmetry_Int_Tables_number   1
_chemical_formula_structural   Cr4Fe10Ni13
_chemical_formula_sum   'Cr8 Fe20 Ni26'
_cell_volume   579.34188543
_cell_formula_units_Z   2
loop_
 _symmetry_equiv_pos_site_id
 _symmetry_equiv_pos_as_xyz
  1  'x, y, z'
loop_
 _atom_site_type_symbol
 _atom_site_label
 _atom_site_symmetry_multiplicity
 _atom_site_fract_x
 _atom_site_fract_y
 _atom_site_fract_z
 _atom_site_occupancy
  Cr  Cr0  1  1.00109425  1.00036400  0.00297671  1
  Cr  Cr1  1  0.17077000  0.16963508  0.17079711  1
  Ni  Ni2  1  1.00199568  0.99981920  0.33524512  1
  Fe  Fe3  1  0.99996624  0.33784529  1.00177429  1
  Cr  Cr4  1  0.16795044  0.50353392  0.17028592  1
  Fe  Fe5  1  1.00107722  0.33722617  0.33687487  1
  Fe  Fe6  1  1.00153268  0.66818943  1.00216884  1
  Ni  Ni7  1  0.16895658  0.83494698  0.17082172  1
  Ni  Ni8  1  0.00418570  0.67240575  0.33601628  1
  Fe  Fe9  1  0.33862994  1.00202000  0.00350409  1
  Ni  Ni10  1  0.50484037  0.16946064  0.16976204  1
  Ni  Ni11  1  0.33510775  1.00216753  0.33576488  1
  Ni  Ni12  1  0.33941069  0.33844042  0.00285685  1
  Fe  Fe13  1  0.50354882  0.49922304  0.16833525  1
  Ni  Ni14  1  0.34002143  0.33659880  0.33650194  1
  Fe  Fe15  1  0.33680998  0.66915098  1.00076163  1
  Cr  Cr16  1  0.50225945  0.83813822  0.16827369  1
  Ni  Ni17  1  0.33362782  0.66934220  0.33712486  1
  Ni  Ni18  1  0.67043961  0.00348891  0.00334044  1
  Ni  Ni19  1  0.83320832  0.17092497  0.17043553  1
  Fe  Fe20  1  0.66905702  0.00518546  0.33631186  1
  Ni  Ni21  1  0.66835350  0.33652507  0.00409819  1
  Ni  Ni22  1  0.83642716  0.50159490  0.16831311  1
  Ni  Ni23  1  0.66793937  0.33440053  0.33485950  1
  Fe  Fe24  1  0.66976537  0.66850345  1.00162792  1
  Fe  Fe25  1  0.83820085  0.83669415  0.16904487  1
  Cr  Cr26  1  0.66975761  0.66708685  0.33624958  1
  Cr  Cr27  1  0.16991738  0.17157773  0.50221565  1
  Ni  Ni28  1  1.00078829  1.00044548  0.66994816  1
  Cr  Cr29  1  0.16899256  0.17236412  0.83509629  1
  Ni  Ni30  1  0.16818088  0.50354185  0.50249844  1
  Ni  Ni31  1  1.00088760  0.33667789  0.67034136  1
  Ni  Ni32  1  0.16848521  0.50302939  0.83583815  1
  Fe  Fe33  1  0.17001801  0.83450320  0.50174482  1
  Ni  Ni34  1  0.00377739  0.67098808  0.66983672  1
  Fe  Fe35  1  0.17037055  0.83304833  0.83527019  1
  Ni  Ni36  1  0.50396362  0.16803468  0.50216052  1
  Fe  Fe37  1  0.33652413  1.00087988  0.66797197  1
  Cr  Cr38  1  0.50324449  0.16833354  0.83585286  1
  Fe  Fe39  1  0.50096243  0.50133391  0.50381859  1
  Ni  Ni40  1  0.33804173  0.33925511  0.66875293  1
  Ni  Ni41  1  0.50221588  0.50490705  0.83602209  1
  Ni  Ni42  1  0.50300093  0.83752833  0.50417776  1
  Ni  Ni43  1  0.33565419  0.66890731  0.66960165  1
  Ni  Ni44  1  0.50455616  0.83465333  0.83577745  1
  Fe  Fe45  1  0.83439522  0.16954479  0.50259732  1
  Fe  Fe46  1  0.67013488  1.00193355  0.66919751  1
  Fe  Fe47  1  0.83475569  0.17010643  0.83556977  1
  Fe  Fe48  1  0.83659856  0.50161420  0.50303259  1
  Ni  Ni49  1  0.66916477  0.33626192  0.66915101  1
  Fe  Fe50  1  0.83556541  0.50291349  0.83612561  1
  Fe  Fe51  1  0.83738891  0.83694710  0.50393063  1
  Fe  Fe52  1  0.66940006  0.66907877  0.66978106  1
  Ni  Ni53  1  0.83409351  0.83469087  0.83557409  1
" 