243,Ni48Fe52_10,-241.378712585475, 223.530238130389,Ni48Fe52,"# generated using pymatgen
 data_Fe25Ni29
_symmetry_space_group_name_H-M   'P 1'
_cell_length_a   7.39814356
_cell_length_b   7.39814356
_cell_length_c   10.46255495
_cell_angle_alpha   90.00000000
_cell_angle_beta   90.00000000
_cell_angle_gamma   90.00000000
_symmetry_Int_Tables_number   1
_chemical_formula_structural   Fe25Ni29
_chemical_formula_sum   'Fe25 Ni29'
_cell_volume   572.64208250
_cell_formula_units_Z   1
loop_
 _symmetry_equiv_pos_site_id
 _symmetry_equiv_pos_as_xyz
  1  'x, y, z'
loop_
 _atom_site_type_symbol
 _atom_site_label
 _atom_site_symmetry_multiplicity
 _atom_site_fract_x
 _atom_site_fract_y
 _atom_site_fract_z
 _atom_site_occupancy
  Ni  Ni0  1  0.00547440  0.00580132  1.00457029  1
  Fe  Fe1  1  0.17068547  0.17120096  0.17183723  1
  Fe  Fe2  1  1.00421415  1.00465403  0.33780880  1
  Ni  Ni3  1  0.00536747  0.33761368  0.00494003  1
  Ni  Ni4  1  0.17087228  0.50530835  0.17197330  1
  Ni  Ni5  1  0.00662064  0.33780965  0.33799503  1
  Ni  Ni6  1  1.00427061  0.67055489  0.00504427  1
  Ni  Ni7  1  0.17171321  0.83668263  0.17113307  1
  Fe  Fe8  1  1.00429101  0.67140552  0.33771164  1
  Ni  Ni9  1  0.33811644  1.00457763  0.00520586  1
  Ni  Ni10  1  0.50593327  0.17114211  0.17123663  1
  Fe  Fe11  1  0.33820360  0.00503247  0.33743437  1
  Fe  Fe12  1  0.33699301  0.33879156  0.00529509  1
  Fe  Fe13  1  0.50523198  0.50559500  0.17205929  1
  Ni  Ni14  1  0.33601929  0.33743567  0.33751847  1
  Ni  Ni15  1  0.33894775  0.67215365  0.00494169  1
  Ni  Ni16  1  0.50434746  0.83874373  0.17207915  1
  Fe  Fe17  1  0.33820961  0.67094549  0.33743768  1
  Fe  Fe18  1  0.67174108  1.00403784  0.00501109  1
  Ni  Ni19  1  0.83669356  0.17198060  0.17218726  1
  Ni  Ni20  1  0.67059972  1.00285669  0.33741673  1
  Fe  Fe21  1  0.67219977  0.33783455  0.00493428  1
  Ni  Ni22  1  0.83874917  0.50372138  0.17124119  1
  Fe  Fe23  1  0.67108819  0.33791459  0.33755710  1
  Ni  Ni24  1  0.67075425  0.67204735  1.00457234  1
  Ni  Ni25  1  0.83790967  0.83826863  0.17008137  1
  Ni  Ni26  1  0.67097570  0.67329777  0.33815190  1
  Ni  Ni27  1  0.17104581  0.17123112  0.50511509  1
  Fe  Fe28  1  1.00385623  1.00394286  0.67136821  1
  Fe  Fe29  1  0.17102438  0.17098748  0.83769040  1
  Fe  Fe30  1  0.17090913  0.50440254  0.50473547  1
  Ni  Ni31  1  0.00617793  0.33844428  0.67103777  1
  Ni  Ni32  1  0.17131779  0.50550126  0.83688628  1
  Ni  Ni33  1  0.17056371  0.83837199  0.50511084  1
  Ni  Ni34  1  1.00421447  0.66992384  0.67130065  1
  Ni  Ni35  1  0.17216027  0.83658205  0.83772881  1
  Fe  Fe36  1  0.50412323  0.17054330  0.50394109  1
  Fe  Fe37  1  0.33749067  1.00372637  0.67181883  1
  Fe  Fe38  1  0.50401810  0.17037095  0.83832955  1
  Ni  Ni39  1  0.50505118  0.50399050  0.50474170  1
  Fe  Fe40  1  0.33807181  0.33878162  0.67029046  1
  Fe  Fe41  1  0.50443943  0.50574965  0.83739401  1
  Fe  Fe42  1  0.50518947  0.83804817  0.50481669  1
  Fe  Fe43  1  0.33777522  0.67146072  0.67211083  1
  Ni  Ni44  1  0.50400547  0.83780359  0.83714922  1
  Fe  Fe45  1  0.83858160  0.17080585  0.50489522  1
  Ni  Ni46  1  0.67008569  1.00327326  0.67161548  1
  Ni  Ni47  1  0.83742444  0.17189091  0.83740738  1
  Fe  Fe48  1  0.83876467  0.50547161  0.50453516  1
  Fe  Fe49  1  0.67218426  0.33840937  0.67147979  1
  Fe  Fe50  1  0.83886749  0.50549130  0.83832752  1
  Ni  Ni51  1  0.83835025  0.83827211  0.50542690  1
  Ni  Ni52  1  0.67130313  0.67308960  0.67124555  1
  Fe  Fe53  1  0.83825118  0.83749575  0.83759571  1
" 