5536,Ni48Fe47Cr4_5,-238.561206923361, 220.1788565155,Ni48Fe47Cr4,"# generated using pymatgen
 data_Cr3Fe25Ni26
_symmetry_space_group_name_H-M   'P 1'
_cell_length_a   7.40457101
_cell_length_b   7.40457101
_cell_length_c   10.47164474
_cell_angle_alpha   90.00000000
_cell_angle_beta   90.00000000
_cell_angle_gamma   90.00000000
_symmetry_Int_Tables_number   1
_chemical_formula_structural   Cr3Fe25Ni26
_chemical_formula_sum   'Cr3 Fe25 Ni26'
_cell_volume   574.13590158
_cell_formula_units_Z   1
loop_
 _symmetry_equiv_pos_site_id
 _symmetry_equiv_pos_as_xyz
  1  'x, y, z'
loop_
 _atom_site_type_symbol
 _atom_site_label
 _atom_site_symmetry_multiplicity
 _atom_site_fract_x
 _atom_site_fract_y
 _atom_site_fract_z
 _atom_site_occupancy
  Fe  Fe0  1  0.00519046  1.00258986  1.00421878  1
  Ni  Ni1  1  0.17251979  0.17032769  0.17060415  1
  Fe  Fe2  1  0.00586517  1.00254445  0.33883417  1
  Fe  Fe3  1  0.00550279  0.33931861  1.00394671  1
  Ni  Ni4  1  0.17259098  0.50479910  0.17145231  1
  Fe  Fe5  1  0.00592236  0.33835086  0.33841738  1
  Ni  Ni6  1  0.00425114  0.67002091  1.00403096  1
  Ni  Ni7  1  0.17039025  0.83753054  0.17114461  1
  Fe  Fe8  1  0.00458269  0.67175885  0.33699242  1
  Fe  Fe9  1  0.33757348  0.00475480  1.00398814  1
  Fe  Fe10  1  0.50212783  0.17057207  0.17100149  1
  Ni  Ni11  1  0.33763871  0.00518935  0.33727863  1
  Fe  Fe12  1  0.33782179  0.33771604  0.00440130  1
  Ni  Ni13  1  0.50387479  0.50446231  0.17114209  1
  Ni  Ni14  1  0.33630417  0.33730412  0.33696815  1
  Fe  Fe15  1  0.33776911  0.67018542  0.00488609  1
  Fe  Fe16  1  0.50370003  0.83753348  0.17151803  1
  Ni  Ni17  1  0.33707717  0.67016280  0.33765224  1
  Ni  Ni18  1  0.66917894  1.00362971  1.00377029  1
  Cr  Cr19  1  0.83726705  0.16964831  0.17192535  1
  Ni  Ni20  1  0.67014187  1.00290812  0.33873362  1
  Ni  Ni21  1  0.66916092  0.33843340  1.00391013  1
  Fe  Fe22  1  0.83839974  0.50633126  0.17057972  1
  Fe  Fe23  1  0.66840441  0.33860117  0.33819510  1
  Fe  Fe24  1  0.67149402  0.67049779  1.00405548  1
  Ni  Ni25  1  0.83760917  0.83652336  0.17071158  1
  Ni  Ni26  1  0.67163762  0.67150971  0.33638300  1
  Ni  Ni27  1  0.17201693  0.16919902  0.50442735  1
  Ni  Ni28  1  0.00732541  1.00393200  0.67047084  1
  Ni  Ni29  1  0.17285349  0.17006344  0.83762531  1
  Fe  Fe30  1  0.17074964  0.50415109  0.50373227  1
  Fe  Fe31  1  0.00503293  0.33795725  0.67029334  1
  Ni  Ni32  1  0.17136697  0.50459588  0.83707029  1
  Ni  Ni33  1  0.17032947  0.83875423  0.50430257  1
  Fe  Fe34  1  1.00368852  0.67181019  0.67123317  1
  Fe  Fe35  1  0.17107784  0.83745007  0.83724917  1
  Ni  Ni36  1  0.50303581  0.17179351  0.50304487  1
  Ni  Ni37  1  0.33510131  0.00544915  0.67128661  1
  Ni  Ni38  1  0.50194003  0.17188797  0.83916028  1
  Fe  Fe39  1  0.50433709  0.50475314  0.50375808  1
  Fe  Fe40  1  0.33774736  0.33636036  0.67101097  1
  Ni  Ni41  1  0.50491671  0.50426526  0.83654415  1
  Fe  Fe42  1  0.50348006  0.83716147  0.50306974  1
  Fe  Fe43  1  0.33750094  0.67181708  0.67083867  1
  Fe  Fe44  1  0.50329066  0.83669457  0.83807019  1
  Fe  Fe45  1  0.83888219  0.17088240  0.50341635  1
  Cr  Cr46  1  0.67013379  1.00332967  0.66987591  1
  Cr  Cr47  1  0.83795477  0.17110618  0.83705216  1
  Ni  Ni48  1  0.83608186  0.50532216  0.50391000  1
  Fe  Fe49  1  0.66987520  0.33978875  0.67088789  1
  Ni  Ni50  1  0.83637518  0.50639602  0.83848739  1
  Ni  Ni51  1  0.83867769  0.83618892  0.50354230  1
  Ni  Ni52  1  0.67176040  0.66872273  0.67226337  1
  Fe  Fe53  1  0.83828572  0.83477785  0.83844929  1
" 