7173,Ni48Fe52_13,-241.684893169653, 224.808701015724,Ni48Fe52,"# generated using pymatgen
 data_Fe25Ni29
_symmetry_space_group_name_H-M   'P 1'
_cell_length_a   7.40017430
_cell_length_b   7.40017430
_cell_length_c   10.46542686
_cell_angle_alpha   90.00000000
_cell_angle_beta   90.00000000
_cell_angle_gamma   90.00000000
_symmetry_Int_Tables_number   1
_chemical_formula_structural   Fe25Ni29
_chemical_formula_sum   'Fe25 Ni29'
_cell_volume   573.11377274
_cell_formula_units_Z   1
loop_
 _symmetry_equiv_pos_site_id
 _symmetry_equiv_pos_as_xyz
  1  'x, y, z'
loop_
 _atom_site_type_symbol
 _atom_site_label
 _atom_site_symmetry_multiplicity
 _atom_site_fract_x
 _atom_site_fract_y
 _atom_site_fract_z
 _atom_site_occupancy
  Fe  Fe0  1  0.00536414  1.00435943  0.00511670  1
  Ni  Ni1  1  0.17109627  0.17120191  0.17119805  1
  Fe  Fe2  1  0.00486270  1.00437950  0.33688803  1
  Ni  Ni3  1  0.00459952  0.33814182  0.00498710  1
  Ni  Ni4  1  0.17281361  0.50468720  0.17098243  1
  Ni  Ni5  1  0.00479891  0.33726918  0.33766006  1
  Ni  Ni6  1  0.00458985  0.67015267  0.00566763  1
  Ni  Ni7  1  0.16998664  0.83766388  0.17035470  1
  Fe  Fe8  1  0.00516768  0.67032824  0.33770670  1
  Ni  Ni9  1  0.33936115  0.00452111  0.00593163  1
  Fe  Fe10  1  0.50372952  0.17089875  0.17066535  1
  Fe  Fe11  1  0.33754910  0.00481851  0.33794433  1
  Ni  Ni12  1  0.33654431  0.33693101  1.00440555  1
  Ni  Ni13  1  0.50348664  0.50432193  0.17124747  1
  Ni  Ni14  1  0.33644013  0.33776491  0.33834740  1
  Ni  Ni15  1  0.33729190  0.67210586  0.00488143  1
  Fe  Fe16  1  0.50387733  0.83768650  0.17104240  1
  Ni  Ni17  1  0.33888489  0.67128005  0.33776611  1
  Ni  Ni18  1  0.67045684  1.00450900  1.00450849  1
  Ni  Ni19  1  0.83810680  0.16959368  0.17035076  1
  Fe  Fe20  1  0.67114056  0.00480132  0.33704961  1
  Fe  Fe21  1  0.67022325  0.33761055  1.00408392  1
  Fe  Fe22  1  0.83937585  0.50443675  0.17168929  1
  Fe  Fe23  1  0.67030234  0.33894486  0.33880780  1
  Fe  Fe24  1  0.67098681  0.67142874  0.00474252  1
  Ni  Ni25  1  0.83847061  0.83852323  0.17129964  1
  Ni  Ni26  1  0.67071570  0.67213722  0.33755439  1
  Fe  Fe27  1  0.17154784  0.17299512  0.50452417  1
  Fe  Fe28  1  1.00446489  1.00377950  0.67154611  1
  Ni  Ni29  1  0.17250227  0.17129517  0.83756034  1
  Ni  Ni30  1  0.17143878  0.50500085  0.50500741  1
  Ni  Ni31  1  1.00320849  0.33793398  0.67090498  1
  Fe  Fe32  1  0.17072369  0.50430030  0.83814831  1
  Fe  Fe33  1  0.17236346  0.83654522  0.50461811  1
  Ni  Ni34  1  1.00405723  0.67006205  0.66995789  1
  Fe  Fe35  1  0.17184076  0.83842851  0.83811575  1
  Ni  Ni36  1  0.50433602  0.17188431  0.50448326  1
  Ni  Ni37  1  0.33860075  1.00397708  0.67079731  1
  Ni  Ni38  1  0.50338843  0.17166816  0.83824837  1
  Ni  Ni39  1  0.50434342  0.50378346  0.50574594  1
  Fe  Fe40  1  0.33823077  0.33847654  0.67096366  1
  Fe  Fe41  1  0.50445239  0.50437675  0.83770688  1
  Fe  Fe42  1  0.50422237  0.83626417  0.50474165  1
  Ni  Ni43  1  0.33822288  0.67288641  0.67091049  1
  Fe  Fe44  1  0.50401848  0.83903536  0.83777343  1
  Fe  Fe45  1  0.83763087  0.17345240  0.50408001  1
  Fe  Fe46  1  0.67109688  1.00424168  0.67198563  1
  Fe  Fe47  1  0.83777356  0.17126246  0.83835483  1
  Ni  Ni48  1  0.83777322  0.50574158  0.50432487  1
  Ni  Ni49  1  0.67286018  0.33755980  0.67053789  1
  Fe  Fe50  1  0.83837750  0.50388229  0.83659096  1
  Fe  Fe51  1  0.83697104  0.83624586  0.50474074  1
  Ni  Ni52  1  0.67127493  0.67117073  0.67138569  1
  Ni  Ni53  1  0.83804734  0.83724393  0.83735730  1
" 