1161,Ni48Fe15Cr36_4,-225.835488944491, 166.032570111896,Ni48Fe15Cr36,"# generated using pymatgen
 data_Cr10Fe4Ni13
_symmetry_space_group_name_H-M   'P 1'
_cell_length_a   7.48336723
_cell_length_b   7.48336723
_cell_length_c   10.58307943
_cell_angle_alpha   90.00000000
_cell_angle_beta   90.00000000
_cell_angle_gamma   90.00000000
_symmetry_Int_Tables_number   1
_chemical_formula_structural   Cr10Fe4Ni13
_chemical_formula_sum   'Cr20 Fe8 Ni26'
_cell_volume   592.66075667
_cell_formula_units_Z   2
loop_
 _symmetry_equiv_pos_site_id
 _symmetry_equiv_pos_as_xyz
  1  'x, y, z'
loop_
 _atom_site_type_symbol
 _atom_site_label
 _atom_site_symmetry_multiplicity
 _atom_site_fract_x
 _atom_site_fract_y
 _atom_site_fract_z
 _atom_site_occupancy
  Fe  Fe0  1  0.99552510  -0.00021964  0.99758129  1
  Cr  Cr1  1  0.16400277  0.16561026  0.16478072  1
  Ni  Ni2  1  0.99581280  0.99674900  0.33173043  1
  Ni  Ni3  1  0.00003018  0.33138127  0.99822475  1
  Ni  Ni4  1  0.16823572  0.49904254  0.16485008  1
  Cr  Cr5  1  0.99762928  0.33362459  0.33274600  1
  Cr  Cr6  1  0.00156490  0.66554271  0.99857187  1
  Cr  Cr7  1  0.16514389  0.83199237  0.16860141  1
  Ni  Ni8  1  -0.00010275  0.66682508  0.33218706  1
  Cr  Cr9  1  0.33416390  -0.00095870  0.99815750  1
  Fe  Fe10  1  0.50057166  0.16647045  0.16525554  1
  Ni  Ni11  1  0.33279468  0.99761548  0.33160039  1
  Fe  Fe12  1  0.33174767  0.33520262  0.99830497  1
  Ni  Ni13  1  0.49742916  0.49954976  0.16561240  1
  Cr  Cr14  1  0.33438207  0.33502643  0.33076489  1
  Ni  Ni15  1  0.33172477  0.66184071  0.99854073  1
  Cr  Cr16  1  0.49935630  0.83032319  0.16566096  1
  Ni  Ni17  1  0.33135463  0.66334037  0.33210161  1
  Ni  Ni18  1  0.66811698  0.00044764  0.99878973  1
  Ni  Ni19  1  0.83223128  0.16363307  0.16502271  1
  Cr  Cr20  1  0.66739613  0.00108447  0.33176789  1
  Cr  Cr21  1  0.66442373  0.32889026  0.00010957  1
  Cr  Cr22  1  0.83159561  0.49912390  0.16629358  1
  Fe  Fe23  1  0.66482406  0.33281406  0.33165899  1
  Fe  Fe24  1  0.66428469  0.66692820  0.99833989  1
  Ni  Ni25  1  0.83164496  0.83452669  0.16544774  1
  Fe  Fe26  1  0.66557270  0.66532985  0.33281300  1
  Cr  Cr27  1  0.16377526  0.16436793  0.50128856  1
  Ni  Ni28  1  0.99861742  0.00064806  0.66746209  1
  Fe  Fe29  1  0.16445433  0.16610514  0.83103020  1
  Ni  Ni30  1  0.16772941  0.49949133  0.49919558  1
  Ni  Ni31  1  0.00070567  0.33034418  0.66627512  1
  Ni  Ni32  1  0.16876417  0.49726646  0.83260479  1
  Cr  Cr33  1  0.16602669  0.83321529  0.49690420  1
  Cr  Cr34  1  0.00052226  0.66597940  0.66555286  1
  Ni  Ni35  1  0.16556538  0.83327331  0.83122565  1
  Cr  Cr36  1  0.49784214  0.16608478  0.49835639  1
  Ni  Ni37  1  0.33058303  -0.00106428  0.66734646  1
  Ni  Ni38  1  0.49750718  0.16667274  0.83285234  1
  Ni  Ni39  1  0.49778669  0.50093317  0.49913277  1
  Fe  Fe40  1  0.33094179  0.33436874  0.66682301  1
  Ni  Ni41  1  0.49530584  0.49890866  0.83191937  1
  Cr  Cr42  1  0.49776034  0.82945138  0.49971146  1
  Ni  Ni43  1  0.33249452  0.66323012  0.66611158  1
  Cr  Cr44  1  0.49890001  0.83032138  0.83142166  1
  Ni  Ni45  1  0.83448613  0.16441108  0.49873697  1
  Cr  Cr46  1  0.66751909  0.99887471  0.66655879  1
  Ni  Ni47  1  0.83474356  0.16344414  0.83300409  1
  Cr  Cr48  1  0.83127010  0.49909009  0.49842593  1
  Cr  Cr49  1  0.66519617  0.33167430  0.66454141  1
  Cr  Cr50  1  0.83170832  0.49843654  0.83199357  1
  Ni  Ni51  1  0.83304553  0.83307225  0.49799105  1
  Ni  Ni52  1  0.66335129  0.66528746  0.66582979  1
  Ni  Ni53  1  0.83305960  0.83549384  0.83330742  1
" 