944,Ni48Fe15Cr36_8,-225.930121842458, 166.826879658762,Ni48Fe15Cr36,"# generated using pymatgen
 data_Cr10Fe4Ni13
_symmetry_space_group_name_H-M   'P 1'
_cell_length_a   7.48460798
_cell_length_b   7.48460798
_cell_length_c   10.58483412
_cell_angle_alpha   90.00000000
_cell_angle_beta   90.00000000
_cell_angle_gamma   90.00000000
_symmetry_Int_Tables_number   1
_chemical_formula_structural   Cr10Fe4Ni13
_chemical_formula_sum   'Cr20 Fe8 Ni26'
_cell_volume   592.95559800
_cell_formula_units_Z   2
loop_
 _symmetry_equiv_pos_site_id
 _symmetry_equiv_pos_as_xyz
  1  'x, y, z'
loop_
 _atom_site_type_symbol
 _atom_site_label
 _atom_site_symmetry_multiplicity
 _atom_site_fract_x
 _atom_site_fract_y
 _atom_site_fract_z
 _atom_site_occupancy
  Cr  Cr0  1  0.00160015  0.00055897  0.99825291  1
  Ni  Ni1  1  0.16665032  0.16736176  0.16750847  1
  Cr  Cr2  1  0.99867527  0.99747979  0.33215774  1
  Fe  Fe3  1  0.99850361  0.33353610  0.00170277  1
  Fe  Fe4  1  0.16790441  0.49891237  0.16618936  1
  Ni  Ni5  1  -0.00069762  0.33321881  0.32828783  1
  Cr  Cr6  1  0.00330337  0.66483221  -0.00038176  1
  Ni  Ni7  1  0.16727794  0.83373351  0.16561101  1
  Cr  Cr8  1  0.99684359  0.66399467  0.33466863  1
  Cr  Cr9  1  0.33195695  0.99807767  0.99702989  1
  Ni  Ni10  1  0.49667433  0.16811743  0.16785704  1
  Ni  Ni11  1  0.33282534  -0.00038687  0.33103036  1
  Cr  Cr12  1  0.33422518  0.33359969  0.99855823  1
  Ni  Ni13  1  0.50120199  0.49728703  0.16406574  1
  Ni  Ni14  1  0.33256478  0.33183332  0.32973914  1
  Ni  Ni15  1  0.33404569  0.66332886  0.99664339  1
  Cr  Cr16  1  0.49739525  0.83019508  0.16550751  1
  Cr  Cr17  1  0.33523391  0.66376168  0.33234218  1
  Cr  Cr18  1  0.66165048  0.00159921  0.99844578  1
  Fe  Fe19  1  0.83000812  0.16700486  0.16589186  1
  Ni  Ni20  1  0.66277322  0.99727291  0.33250733  1
  Ni  Ni21  1  0.66423314  0.33452847  -0.00094947  1
  Ni  Ni22  1  0.83059246  0.49621284  0.16441609  1
  Cr  Cr23  1  0.66396788  0.33600700  0.33257070  1
  Ni  Ni24  1  0.66234305  0.66054326  -0.00102135  1
  Cr  Cr25  1  0.82969671  0.82863599  0.16402528  1
  Ni  Ni26  1  0.66544338  0.66509789  0.33398785  1
  Cr  Cr27  1  0.16908867  0.16498178  0.49735825  1
  Cr  Cr28  1  -0.00033065  0.99528776  0.66641394  1
  Fe  Fe29  1  0.16939731  0.16632433  0.83063097  1
  Cr  Cr30  1  0.16778531  0.49760901  0.49887468  1
  Cr  Cr31  1  0.00042850  0.33472140  0.66579111  1
  Fe  Fe32  1  0.16905910  0.50111914  0.83018661  1
  Ni  Ni33  1  0.16754330  0.83188264  0.50064447  1
  Ni  Ni34  1  0.99830770  0.66595301  0.66383779  1
  Ni  Ni35  1  0.16920799  0.83002168  0.83022160  1
  Cr  Cr36  1  0.49658562  0.16579482  0.49908275  1
  Ni  Ni37  1  0.33483048  -0.00076194  0.66778408  1
  Ni  Ni38  1  0.49773566  0.16731452  0.82925946  1
  Ni  Ni39  1  0.50043995  0.50005046  0.50113621  1
  Ni  Ni40  1  0.33580308  0.33333619  0.66784081  1
  Ni  Ni41  1  0.49807424  0.49918591  0.83115082  1
  Fe  Fe42  1  0.49953855  0.83149343  0.49959723  1
  Fe  Fe43  1  0.33322660  0.66685758  0.66606885  1
  Ni  Ni44  1  0.49538212  0.82993545  0.83078605  1
  Cr  Cr45  1  0.83017699  0.16592849  0.49879475  1
  Ni  Ni46  1  0.66135692  0.99527557  0.66623048  1
  Cr  Cr47  1  0.82996259  0.16790854  0.83266961  1
  Ni  Ni48  1  0.82987126  0.50237779  0.50022010  1
  Fe  Fe49  1  0.66253623  0.33359357  0.66572293  1
  Cr  Cr50  1  0.83049404  0.49982683  0.83243155  1
  Ni  Ni51  1  0.82977476  0.82942829  0.50064314  1
  Ni  Ni52  1  0.66376577  0.66503438  0.66357856  1
  Cr  Cr53  1  0.82971762  0.82982748  0.83305133  1
" 