4526,Ni48Fe15Cr36_17,-226.075298139391, 175.622253788634,Ni48Fe15Cr36,"# generated using pymatgen
 data_Cr10Fe4Ni13
_symmetry_space_group_name_H-M   'P 1'
_cell_length_a   7.47473242
_cell_length_b   7.47473242
_cell_length_c   10.57086796
_cell_angle_alpha   90.00000000
_cell_angle_beta   90.00000000
_cell_angle_gamma   90.00000000
_symmetry_Int_Tables_number   1
_chemical_formula_structural   Cr10Fe4Ni13
_chemical_formula_sum   'Cr20 Fe8 Ni26'
_cell_volume   590.61156768
_cell_formula_units_Z   2
loop_
 _symmetry_equiv_pos_site_id
 _symmetry_equiv_pos_as_xyz
  1  'x, y, z'
loop_
 _atom_site_type_symbol
 _atom_site_label
 _atom_site_symmetry_multiplicity
 _atom_site_fract_x
 _atom_site_fract_y
 _atom_site_fract_z
 _atom_site_occupancy
  Cr  Cr0  1  0.00205411  0.00043066  -0.00013558  1
  Ni  Ni1  1  0.16395039  0.17002800  0.16810667  1
  Ni  Ni2  1  -0.00043031  0.00130331  0.33322387  1
  Ni  Ni3  1  -0.00012603  0.33412847  0.00220474  1
  Ni  Ni4  1  0.16643742  0.49689474  0.16530651  1
  Ni  Ni5  1  0.00170696  0.33180015  0.33315658  1
  Cr  Cr6  1  0.00149103  0.66407082  0.99881005  1
  Fe  Fe7  1  0.16656372  0.83176664  0.16684667  1
  Cr  Cr8  1  0.00126104  0.66335753  0.33294872  1
  Cr  Cr9  1  0.33101640  0.00152939  -0.00027189  1
  Ni  Ni10  1  0.49928260  0.16746279  0.16485720  1
  Cr  Cr11  1  0.33156599  0.00084804  0.33238563  1
  Fe  Fe12  1  0.33068781  0.33400196  0.00058444  1
  Cr  Cr13  1  0.49711864  0.50053847  0.16536312  1
  Ni  Ni14  1  0.33011328  0.33441883  0.33171553  1
  Ni  Ni15  1  0.33054893  0.66541410  0.99927667  1
  Cr  Cr16  1  0.49908978  0.83115621  0.16825262  1
  Ni  Ni17  1  0.33032764  0.66425450  0.33514593  1
  Cr  Cr18  1  0.66512703  0.00215512  0.99821319  1
  Ni  Ni19  1  0.83488328  0.16779068  0.16748090  1
  Ni  Ni20  1  0.66765794  0.00073683  0.33364741  1
  Ni  Ni21  1  0.66632789  0.33322919  0.00100407  1
  Ni  Ni22  1  0.83530740  0.49562352  0.16499465  1
  Cr  Cr23  1  0.66665624  0.33257684  0.33326984  1
  Ni  Ni24  1  0.66617135  0.66315831  -0.00037922  1
  Cr  Cr25  1  0.83194386  0.83396740  0.16598598  1
  Cr  Cr26  1  0.66619140  0.66435792  0.33605647  1
  Fe  Fe27  1  0.16571013  0.16830955  0.49919142  1
  Cr  Cr28  1  0.00165509  0.99709190  0.66571757  1
  Cr  Cr29  1  0.16534868  0.17055222  0.83038320  1
  Ni  Ni30  1  0.16723902  0.49811695  0.50100889  1
  Ni  Ni31  1  0.00096024  0.33582161  0.66292814  1
  Ni  Ni32  1  0.16685207  0.50024434  0.83233764  1
  Fe  Fe33  1  0.16698647  0.83170968  0.50038786  1
  Ni  Ni34  1  0.00239991  0.66443623  0.66616561  1
  Ni  Ni35  1  0.16829980  0.83009631  0.83086984  1
  Cr  Cr36  1  0.49889485  0.16696079  0.50086435  1
  Ni  Ni37  1  0.33207633  0.99924908  0.66596214  1
  Fe  Fe38  1  0.49736808  0.16928349  0.83182327  1
  Ni  Ni39  1  0.49368447  0.50059767  0.50027951  1
  Ni  Ni40  1  0.33203961  0.33324011  0.66631355  1
  Cr  Cr41  1  0.49694531  0.49870587  0.83370910  1
  Ni  Ni42  1  0.49831884  0.83143335  0.49911783  1
  Fe  Fe43  1  0.33011486  0.66507016  0.66462226  1
  Cr  Cr44  1  0.49845297  0.83107779  0.83248689  1
  Ni  Ni45  1  0.83636602  0.16555941  0.49845541  1
  Cr  Cr46  1  0.66448974  0.00035291  0.66684027  1
  Cr  Cr47  1  0.83320911  0.16855156  0.83233013  1
  Fe  Fe48  1  0.83454806  0.49757438  0.50050904  1
  Ni  Ni49  1  0.66520738  0.33364783  0.66447635  1
  Cr  Cr50  1  0.83494860  0.49723665  0.83241861  1
  Ni  Ni51  1  0.83357939  0.83569964  0.49971412  1
  Cr  Cr52  1  0.66831765  0.66438834  0.66294987  1
  Fe  Fe53  1  0.83530271  0.83023295  0.83232748  1
" 