8761,Ni48Fe47Cr4_10,-238.571588043275, 219.046124374204,Ni48Fe47Cr4,"# generated using pymatgen
 data_Cr3Fe25Ni26
_symmetry_space_group_name_H-M   'P 1'
_cell_length_a   7.40836484
_cell_length_b   7.40836484
_cell_length_c   10.47701003
_cell_angle_alpha   90.00000000
_cell_angle_beta   90.00000000
_cell_angle_gamma   90.00000000
_symmetry_Int_Tables_number   1
_chemical_formula_structural   Cr3Fe25Ni26
_chemical_formula_sum   'Cr3 Fe25 Ni26'
_cell_volume   575.01885141
_cell_formula_units_Z   1
loop_
 _symmetry_equiv_pos_site_id
 _symmetry_equiv_pos_as_xyz
  1  'x, y, z'
loop_
 _atom_site_type_symbol
 _atom_site_label
 _atom_site_symmetry_multiplicity
 _atom_site_fract_x
 _atom_site_fract_y
 _atom_site_fract_z
 _atom_site_occupancy
  Fe  Fe0  1  0.00417038  1.00315107  1.00333554  1
  Fe  Fe1  1  0.17248827  0.16872662  0.17096594  1
  Fe  Fe2  1  1.00381167  1.00343870  0.33756640  1
  Cr  Cr3  1  1.00348479  0.33877809  1.00292606  1
  Fe  Fe4  1  0.17162702  0.50619963  0.17134208  1
  Fe  Fe5  1  1.00334536  0.33650309  0.33634386  1
  Fe  Fe6  1  0.00410175  0.67240077  0.00421366  1
  Ni  Ni7  1  0.16952501  0.83753097  0.17147967  1
  Ni  Ni8  1  1.00363861  0.67138565  0.33613863  1
  Ni  Ni9  1  0.33800327  1.00342458  1.00311357  1
  Fe  Fe10  1  0.50395933  0.16967032  0.17025096  1
  Ni  Ni11  1  0.33725861  1.00315463  0.33816317  1
  Ni  Ni12  1  0.33927613  0.33718886  0.00407138  1
  Ni  Ni13  1  0.50361155  0.50312982  0.17095265  1
  Fe  Fe14  1  0.33844791  0.33674639  0.33630322  1
  Fe  Fe15  1  0.33804863  0.67037692  1.00348678  1
  Ni  Ni16  1  0.50414401  0.83702208  0.17087052  1
  Fe  Fe17  1  0.33864817  0.67145480  0.33685489  1
  Ni  Ni18  1  0.66958323  0.00439152  0.00445513  1
  Fe  Fe19  1  0.83543332  0.16925604  0.17080375  1
  Fe  Fe20  1  0.67057664  1.00323731  0.33756405  1
  Ni  Ni21  1  0.66896202  0.33688129  1.00383697  1
  Fe  Fe22  1  0.83604350  0.50592336  0.17138708  1
  Ni  Ni23  1  0.67069504  0.33762116  0.33686580  1
  Fe  Fe24  1  0.66972978  0.67022559  0.00440936  1
  Ni  Ni25  1  0.83821555  0.83807501  0.16996795  1
  Fe  Fe26  1  0.67033463  0.67098831  0.33728059  1
  Fe  Fe27  1  0.17147758  0.16819773  0.50417532  1
  Ni  Ni28  1  0.00397906  0.00476691  0.67062298  1
  Ni  Ni29  1  0.17081296  0.16965933  0.83580537  1
  Cr  Cr30  1  0.17211987  0.50307895  0.50347657  1
  Fe  Fe31  1  1.00283294  0.33448607  0.67242951  1
  Ni  Ni32  1  0.17229049  0.50402410  0.83816604  1
  Fe  Fe33  1  0.17231094  0.83955406  0.50311447  1
  Cr  Cr34  1  0.00460955  0.67143281  0.67234249  1
  Ni  Ni35  1  0.17049246  0.83819878  0.83788306  1
  Ni  Ni36  1  0.50441299  0.17075654  0.50350959  1
  Fe  Fe37  1  0.33762103  1.00394874  0.67060361  1
  Ni  Ni38  1  0.50445543  0.17164850  0.83807508  1
  Ni  Ni39  1  0.50502383  0.50363138  0.50423010  1
  Fe  Fe40  1  0.33856674  0.33634502  0.67217016  1
  Ni  Ni41  1  0.50386736  0.50292448  0.83670029  1
  Ni  Ni42  1  0.50515552  0.83749424  0.50387697  1
  Ni  Ni43  1  0.33838424  0.67141447  0.67112221  1
  Fe  Fe44  1  0.50341917  0.83769304  0.83726464  1
  Fe  Fe45  1  0.83569993  0.17047917  0.50485639  1
  Ni  Ni46  1  0.67063975  0.00564013  0.67012289  1
  Ni  Ni47  1  0.83661482  0.16985247  0.83611399  1
  Fe  Fe48  1  0.83350220  0.50333327  0.50316034  1
  Ni  Ni49  1  0.67042459  0.33661023  0.67117795  1
  Ni  Ni50  1  0.83572125  0.50324106  0.83685598  1
  Ni  Ni51  1  0.83643488  0.83894892  0.50304646  1
  Fe  Fe52  1  0.66890112  0.67092012  0.67018689  1
  Fe  Fe53  1  0.83693619  0.83870794  0.83783207  1
" 