6608,Ni48Fe47Cr4_9,-238.336634820554, 216.006711652322,Ni48Fe47Cr4,"# generated using pymatgen
 data_Cr3Fe25Ni26
_symmetry_space_group_name_H-M   'P 1'
_cell_length_a   7.40565255
_cell_length_b   7.40565255
_cell_length_c   10.47317428
_cell_angle_alpha   90.00000000
_cell_angle_beta   90.00000000
_cell_angle_gamma   90.00000000
_symmetry_Int_Tables_number   1
_chemical_formula_structural   Cr3Fe25Ni26
_chemical_formula_sum   'Cr3 Fe25 Ni26'
_cell_volume   574.38752097
_cell_formula_units_Z   1
loop_
 _symmetry_equiv_pos_site_id
 _symmetry_equiv_pos_as_xyz
  1  'x, y, z'
loop_
 _atom_site_type_symbol
 _atom_site_label
 _atom_site_symmetry_multiplicity
 _atom_site_fract_x
 _atom_site_fract_y
 _atom_site_fract_z
 _atom_site_occupancy
  Ni  Ni0  1  1.00261016  1.00221716  1.00295010  1
  Cr  Cr1  1  0.16887852  0.17106604  0.17226322  1
  Ni  Ni2  1  1.00298288  1.00332350  0.33835080  1
  Fe  Fe3  1  1.00338947  0.33815718  1.00391389  1
  Fe  Fe4  1  0.17079748  0.50540707  0.17101714  1
  Ni  Ni5  1  1.00248089  0.33745344  0.33736792  1
  Ni  Ni6  1  1.00363311  0.67203959  0.00519482  1
  Fe  Fe7  1  0.17018240  0.83628657  0.17095159  1
  Fe  Fe8  1  0.00481702  0.67023136  0.33738345  1
  Fe  Fe9  1  0.33684805  1.00225210  1.00225706  1
  Cr  Cr10  1  0.50435818  0.16987467  0.17143420  1
  Ni  Ni11  1  0.33743513  1.00235979  0.33863897  1
  Ni  Ni12  1  0.33857326  0.33898132  1.00308753  1
  Fe  Fe13  1  0.50441115  0.50497034  0.17115447  1
  Ni  Ni14  1  0.33855504  0.33903056  0.33905415  1
  Fe  Fe15  1  0.33729812  0.67117993  0.00464164  1
  Ni  Ni16  1  0.50343993  0.83554808  0.17134921  1
  Ni  Ni17  1  0.33793976  0.67104286  0.33687423  1
  Fe  Fe18  1  0.67177262  1.00307164  1.00355234  1
  Ni  Ni19  1  0.83908477  0.17194025  0.17053961  1
  Fe  Fe20  1  0.67113311  0.00426041  0.33868067  1
  Fe  Fe21  1  0.67266765  0.33860195  1.00344604  1
  Ni  Ni22  1  0.83845760  0.50401423  0.17153397  1
  Ni  Ni23  1  0.67140044  0.33795549  0.33805188  1
  Fe  Fe24  1  0.67093005  0.67076037  1.00343407  1
  Fe  Fe25  1  0.83780618  0.83805812  0.17079467  1
  Fe  Fe26  1  0.66997960  0.67069879  0.33799324  1
  Fe  Fe27  1  0.17175544  0.17021308  0.50405756  1
  Fe  Fe28  1  0.00541984  0.00444947  0.67067400  1
  Ni  Ni29  1  0.17044785  0.17034861  0.83703657  1
  Fe  Fe30  1  0.17141830  0.50404719  0.50378655  1
  Fe  Fe31  1  1.00375704  0.33749636  0.67070474  1
  Fe  Fe32  1  0.17125050  0.50415275  0.83763194  1
  Fe  Fe33  1  0.17126159  0.83817439  0.50388234  1
  Ni  Ni34  1  1.00306881  0.67124621  0.67071663  1
  Fe  Fe35  1  0.17060854  0.83711384  0.83760297  1
  Ni  Ni36  1  0.50261196  0.17162371  0.50348519  1
  Ni  Ni37  1  0.33630803  0.00504577  0.67125273  1
  Fe  Fe38  1  0.50278343  0.17255826  0.83766923  1
  Ni  Ni39  1  0.50385643  0.50445029  0.50392786  1
  Ni  Ni40  1  0.33859612  0.33677723  0.67029548  1
  Ni  Ni41  1  0.50505563  0.50534668  0.83769439  1
  Ni  Ni42  1  0.50315523  0.83636273  0.50330784  1
  Fe  Fe43  1  0.33899256  0.67061734  0.67036764  1
  Ni  Ni44  1  0.50287733  0.83591739  0.83777764  1
  Ni  Ni45  1  0.83923200  0.17150044  0.50292670  1
  Cr  Cr46  1  0.67003759  0.00426541  0.67042321  1
  Fe  Fe47  1  0.83775761  0.17191952  0.83848899  1
  Fe  Fe48  1  0.83594967  0.50407541  0.50451264  1
  Ni  Ni49  1  0.66969691  0.33950576  0.67131905  1
  Ni  Ni50  1  0.83720483  0.50426247  0.83631008  1
  Ni  Ni51  1  0.83831188  0.83686115  0.50316705  1
  Ni  Ni52  1  0.67212969  0.66896345  0.67105688  1
  Fe  Fe53  1  0.83843060  0.83576025  0.83785126  1
" 