1101,Ni48Fe47Cr4_1,-238.988745840447, 220.444408401077,Ni48Fe47Cr4,"# generated using pymatgen
 data_Cr3Fe25Ni26
_symmetry_space_group_name_H-M   'P 1'
_cell_length_a   7.40809798
_cell_length_b   7.40809798
_cell_length_c   10.47663263
_cell_angle_alpha   90.00000000
_cell_angle_beta   90.00000000
_cell_angle_gamma   90.00000000
_symmetry_Int_Tables_number   1
_chemical_formula_structural   Cr3Fe25Ni26
_chemical_formula_sum   'Cr3 Fe25 Ni26'
_cell_volume   574.95671464
_cell_formula_units_Z   1
loop_
 _symmetry_equiv_pos_site_id
 _symmetry_equiv_pos_as_xyz
  1  'x, y, z'
loop_
 _atom_site_type_symbol
 _atom_site_label
 _atom_site_symmetry_multiplicity
 _atom_site_fract_x
 _atom_site_fract_y
 _atom_site_fract_z
 _atom_site_occupancy
  Fe  Fe0  1  1.00380653  0.00427660  0.00402460  1
  Ni  Ni1  1  0.17017564  0.17143840  0.17065719  1
  Ni  Ni2  1  0.00499635  1.00384026  0.33619522  1
  Fe  Fe3  1  1.00361978  0.33775321  0.00449215  1
  Fe  Fe4  1  0.17162511  0.50267560  0.16950376  1
  Ni  Ni5  1  0.00572451  0.33581554  0.33648842  1
  Ni  Ni6  1  0.00498696  0.67153455  0.00472826  1
  Fe  Fe7  1  0.17236488  0.83958553  0.16959506  1
  Cr  Cr8  1  1.00233799  0.67280434  0.33612110  1
  Fe  Fe9  1  0.33786945  0.00462553  0.00426962  1
  Ni  Ni10  1  0.50374775  0.17068099  0.17065852  1
  Fe  Fe11  1  0.33664793  0.00402779  0.33670497  1
  Fe  Fe12  1  0.33772079  0.33739332  1.00345995  1
  Ni  Ni13  1  0.50302488  0.50470430  0.17055247  1
  Ni  Ni14  1  0.33940330  0.33542981  0.33615584  1
  Ni  Ni15  1  0.33597556  0.67017786  0.00445110  1
  Ni  Ni16  1  0.50532481  0.83643108  0.16975892  1
  Fe  Fe17  1  0.33805286  0.67085968  0.33570565  1
  Ni  Ni18  1  0.67029458  0.00567876  1.00376479  1
  Ni  Ni19  1  0.83820700  0.16913092  0.17035239  1
  Fe  Fe20  1  0.67105442  1.00321629  0.33493965  1
  Ni  Ni21  1  0.66865347  0.33587943  0.00509888  1
  Fe  Fe22  1  0.83530036  0.50233019  0.17039258  1
  Fe  Fe23  1  0.67164513  0.33852897  0.33592289  1
  Fe  Fe24  1  0.67037605  0.67019768  0.00503776  1
  Ni  Ni25  1  0.83626761  0.83823331  0.16955533  1
  Ni  Ni26  1  0.66958738  0.67107435  0.33687637  1
  Ni  Ni27  1  0.17204523  0.16901606  0.50464573  1
  Ni  Ni28  1  0.00465075  1.00139463  0.67170354  1
  Ni  Ni29  1  0.17032971  0.17116333  0.83664716  1
  Cr  Cr30  1  0.17138154  0.50222905  0.50507476  1
  Fe  Fe31  1  0.00399256  0.33713716  0.67169723  1
  Ni  Ni32  1  0.17098624  0.50381061  0.83727076  1
  Ni  Ni33  1  0.17120757  0.83889644  0.50458067  1
  Ni  Ni34  1  1.00349943  0.67317840  0.67077291  1
  Fe  Fe35  1  0.17180132  0.83665917  0.83726227  1
  Fe  Fe36  1  0.50287514  0.17055397  0.50419634  1
  Fe  Fe37  1  0.33696462  0.00489107  0.67107301  1
  Ni  Ni38  1  0.50357514  0.17108420  0.83800366  1
  Fe  Fe39  1  0.50477295  0.50381400  0.50349340  1
  Ni  Ni40  1  0.33992429  0.33627246  0.67223538  1
  Ni  Ni41  1  0.50404320  0.50464634  0.83759475  1
  Fe  Fe42  1  0.50388623  0.83726054  0.50279241  1
  Fe  Fe43  1  0.33761368  0.67102464  0.67259696  1
  Fe  Fe44  1  0.50258806  0.83741403  0.83939275  1
  Cr  Cr45  1  0.83883736  0.17022112  0.50352841  1
  Fe  Fe46  1  0.67029192  1.00352457  0.67288037  1
  Fe  Fe47  1  0.83648543  0.17233459  0.83765523  1
  Ni  Ni48  1  0.83547815  0.50518362  0.50464280  1
  Ni  Ni49  1  0.66735114  0.33735787  0.67028480  1
  Fe  Fe50  1  0.83718577  0.50261827  0.83682885  1
  Ni  Ni51  1  0.83604446  0.83753557  0.50447998  1
  Fe  Fe52  1  0.67073050  0.67015321  0.66991266  1
  Fe  Fe53  1  0.83751790  0.83715221  0.83814117  1
" 