5817,Ni48Fe52_14,-241.754367315119, 227.542097809941,Ni48Fe52,"# generated using pymatgen
 data_Fe25Ni29
_symmetry_space_group_name_H-M   'P 1'
_cell_length_a   7.40026799
_cell_length_b   7.40026799
_cell_length_c   10.46555935
_cell_angle_alpha   90.00000000
_cell_angle_beta   90.00000000
_cell_angle_gamma   90.00000000
_symmetry_Int_Tables_number   1
_chemical_formula_structural   Fe25Ni29
_chemical_formula_sum   'Fe25 Ni29'
_cell_volume   573.13553923
_cell_formula_units_Z   1
loop_
 _symmetry_equiv_pos_site_id
 _symmetry_equiv_pos_as_xyz
  1  'x, y, z'
loop_
 _atom_site_type_symbol
 _atom_site_label
 _atom_site_symmetry_multiplicity
 _atom_site_fract_x
 _atom_site_fract_y
 _atom_site_fract_z
 _atom_site_occupancy
  Fe  Fe0  1  0.00555833  0.00577997  0.00464865  1
  Ni  Ni1  1  0.17071873  0.17103048  0.17120711  1
  Ni  Ni2  1  1.00369036  1.00317052  0.33640527  1
  Ni  Ni3  1  0.00469035  0.33847982  0.00476366  1
  Fe  Fe4  1  0.17160431  0.50366130  0.17069987  1
  Fe  Fe5  1  0.00451785  0.33638179  0.33728588  1
  Fe  Fe6  1  0.00539528  0.67060800  1.00401398  1
  Fe  Fe7  1  0.17150956  0.83909986  0.17119685  1
  Ni  Ni8  1  1.00298285  0.67168755  0.33720883  1
  Ni  Ni9  1  0.33812310  0.00547447  0.00532333  1
  Ni  Ni10  1  0.50378401  0.17102056  0.17196663  1
  Ni  Ni11  1  0.33858430  0.00586305  0.33721314  1
  Ni  Ni12  1  0.33765301  0.33694673  1.00441673  1
  Ni  Ni13  1  0.50413284  0.50514230  0.17105690  1
  Ni  Ni14  1  0.33894215  0.33716220  0.33705851  1
  Fe  Fe15  1  0.33751564  0.67069968  1.00403158  1
  Ni  Ni16  1  0.50460317  0.83737465  0.17125507  1
  Fe  Fe17  1  0.33826548  0.67213837  0.33832246  1
  Fe  Fe18  1  0.67075318  0.00539511  0.00606962  1
  Ni  Ni19  1  0.83903645  0.17055904  0.17080321  1
  Ni  Ni20  1  0.67126242  1.00433853  0.33766404  1
  Fe  Fe21  1  0.67084625  0.33743961  1.00438333  1
  Fe  Fe22  1  0.83736041  0.50425854  0.17095135  1
  Fe  Fe23  1  0.67138322  0.33694120  0.33847088  1
  Fe  Fe24  1  0.67062476  0.67070055  0.00453181  1
  Ni  Ni25  1  0.83750692  0.83853638  0.17170725  1
  Fe  Fe26  1  0.67061802  0.67215634  0.33817013  1
  Fe  Fe27  1  0.17173648  0.17123104  0.50443631  1
  Ni  Ni28  1  0.00479128  1.00327123  0.67165682  1
  Ni  Ni29  1  0.17120235  0.17080995  0.83720875  1
  Fe  Fe30  1  0.17139085  0.50479900  0.50497976  1
  Fe  Fe31  1  0.00455551  0.33846141  0.67202270  1
  Ni  Ni32  1  0.17073784  0.50432977  0.83695590  1
  Fe  Fe33  1  0.17075492  0.83750542  0.50527942  1
  Ni  Ni34  1  1.00326354  0.67189858  0.67191086  1
  Ni  Ni35  1  0.17192006  0.83839803  0.83776001  1
  Fe  Fe36  1  0.50506829  0.17181291  0.50411130  1
  Ni  Ni37  1  0.33710457  0.00514809  0.67100123  1
  Fe  Fe38  1  0.50289675  0.17186683  0.83818693  1
  Ni  Ni39  1  0.50484647  0.50603660  0.50542810  1
  Ni  Ni40  1  0.33909458  0.33764998  0.67205854  1
  Fe  Fe41  1  0.50341841  0.50422656  0.83720846  1
  Ni  Ni42  1  0.50367162  0.83696344  0.50472154  1
  Ni  Ni43  1  0.33791756  0.67073958  0.67145519  1
  Fe  Fe44  1  0.50318668  0.83744210  0.83749260  1
  Ni  Ni45  1  0.83895138  0.17169597  0.50497406  1
  Fe  Fe46  1  0.67069642  1.00403154  0.67027625  1
  Fe  Fe47  1  0.83944010  0.17181519  0.83763060  1
  Ni  Ni48  1  0.83742124  0.50370234  0.50431430  1
  Ni  Ni49  1  0.67047810  0.33917648  0.67160859  1
  Ni  Ni50  1  0.83805597  0.50432900  0.83751346  1
  Fe  Fe51  1  0.83744121  0.83728906  0.50388375  1
  Ni  Ni52  1  0.67235289  0.66991254  0.67090302  1
  Fe  Fe53  1  0.83958856  0.83705734  0.83784203  1
" 