1826,Ni48Fe38Cr12_0,-235.017120583321, 203.601623218567,Ni48Fe38Cr12,"# generated using pymatgen
 data_Cr4Fe10Ni13
_symmetry_space_group_name_H-M   'P 1'
_cell_length_a   7.42653457
_cell_length_b   7.42653457
_cell_length_c   10.50270591
_cell_angle_alpha   90.00000000
_cell_angle_beta   90.00000000
_cell_angle_gamma   90.00000000
_symmetry_Int_Tables_number   1
_chemical_formula_structural   Cr4Fe10Ni13
_chemical_formula_sum   'Cr8 Fe20 Ni26'
_cell_volume   579.26010590
_cell_formula_units_Z   2
loop_
 _symmetry_equiv_pos_site_id
 _symmetry_equiv_pos_as_xyz
  1  'x, y, z'
loop_
 _atom_site_type_symbol
 _atom_site_label
 _atom_site_symmetry_multiplicity
 _atom_site_fract_x
 _atom_site_fract_y
 _atom_site_fract_z
 _atom_site_occupancy
  Ni  Ni0  1  1.00124843  1.00081888  1.00227092  1
  Cr  Cr1  1  0.16943852  0.16802617  0.17070550  1
  Fe  Fe2  1  1.00221018  1.00170996  0.33679407  1
  Cr  Cr3  1  0.00286263  0.33620221  0.00272783  1
  Fe  Fe4  1  0.17011498  0.50427711  0.17109298  1
  Fe  Fe5  1  1.00229322  0.33715356  0.33719321  1
  Fe  Fe6  1  0.00318621  0.67100014  0.00336370  1
  Ni  Ni7  1  0.16874312  0.83419417  0.17040903  1
  Ni  Ni8  1  0.00374742  0.66885334  0.33645943  1
  Cr  Cr9  1  0.33617090  1.00240301  1.00199988  1
  Ni  Ni10  1  0.50416675  0.17109214  0.17108914  1
  Fe  Fe11  1  0.33628621  1.00260667  0.33630499  1
  Ni  Ni12  1  0.33761563  0.33904882  1.00126238  1
  Fe  Fe13  1  0.50229615  0.50192417  0.16925671  1
  Ni  Ni14  1  0.33587908  0.33692930  0.33645580  1
  Fe  Fe15  1  0.33555616  0.66864256  1.00263270  1
  Fe  Fe16  1  0.50308713  0.83530051  0.17092569  1
  Ni  Ni17  1  0.33360384  0.66853892  0.33343519  1
  Cr  Cr18  1  0.67096723  0.00309509  1.00171343  1
  Ni  Ni19  1  0.83442829  0.17002229  0.17020721  1
  Ni  Ni20  1  0.67008121  0.00392581  0.33525148  1
  Fe  Fe21  1  0.66800877  0.33677051  1.00241483  1
  Ni  Ni22  1  0.83453120  0.50363587  0.17096011  1
  Fe  Fe23  1  0.66977968  0.33507873  0.33539820  1
  Fe  Fe24  1  0.66943637  0.66759587  1.00168390  1
  Fe  Fe25  1  0.83709038  0.83629105  0.17071182  1
  Fe  Fe26  1  0.67067234  0.66949651  0.33516342  1
  Ni  Ni27  1  0.16910996  0.16956141  0.50300893  1
  Ni  Ni28  1  0.00402301  0.00369077  0.66965383  1
  Ni  Ni29  1  0.16985760  0.16780833  0.83449567  1
  Ni  Ni30  1  0.16708313  0.50152663  0.50188473  1
  Ni  Ni31  1  1.00233473  0.33598113  0.66864334  1
  Fe  Fe32  1  0.17036878  0.50227150  0.83576410  1
  Fe  Fe33  1  0.16715007  0.83736792  0.50197260  1
  Fe  Fe34  1  1.00074848  0.66948407  0.66889353  1
  Ni  Ni35  1  0.16810235  0.83764340  0.83564589  1
  Ni  Ni36  1  0.50146306  0.17008344  0.50223696  1
  Ni  Ni37  1  0.33431359  0.00431213  0.66962001  1
  Ni  Ni38  1  0.50089178  0.17178413  0.83485317  1
  Cr  Cr39  1  0.50390166  0.50109126  0.50275801  1
  Fe  Fe40  1  0.33557568  0.33305180  0.67000000  1
  Ni  Ni41  1  0.50507681  0.50218918  0.83741689  1
  Cr  Cr42  1  0.50317917  0.83705303  0.50172179  1
  Cr  Cr43  1  0.33529532  0.66973223  0.67082450  1
  Ni  Ni44  1  0.50210559  0.83420603  0.83616928  1
  Ni  Ni45  1  0.83760943  0.16962021  0.50193907  1
  Cr  Cr46  1  0.66926827  0.00339342  0.67082354  1
  Fe  Fe47  1  0.83685043  0.17003651  0.83513891  1
  Fe  Fe48  1  0.83764280  0.50212167  0.50330011  1
  Ni  Ni49  1  0.67095792  0.33675718  0.67039325  1
  Ni  Ni50  1  0.83399838  0.50394549  0.83411073  1
  Ni  Ni51  1  0.83820761  0.83513605  0.50218080  1
  Ni  Ni52  1  0.67157994  0.66793420  0.67048273  1
  Fe  Fe53  1  0.83709210  0.83487320  0.83547378  1
" 