6671,Ni48Fe52_2,-241.992088965409, 224.483139872331,Ni48Fe52,"# generated using pymatgen
 data_Fe25Ni29
_symmetry_space_group_name_H-M   'P 1'
_cell_length_a   7.40394707
_cell_length_b   7.40394707
_cell_length_c   10.47076236
_cell_angle_alpha   90.00000000
_cell_angle_beta   90.00000000
_cell_angle_gamma   90.00000000
_symmetry_Int_Tables_number   1
_chemical_formula_structural   Fe25Ni29
_chemical_formula_sum   'Fe25 Ni29'
_cell_volume   573.99077608
_cell_formula_units_Z   1
loop_
 _symmetry_equiv_pos_site_id
 _symmetry_equiv_pos_as_xyz
  1  'x, y, z'
loop_
 _atom_site_type_symbol
 _atom_site_label
 _atom_site_symmetry_multiplicity
 _atom_site_fract_x
 _atom_site_fract_y
 _atom_site_fract_z
 _atom_site_occupancy
  Fe  Fe0  1  1.00407123  1.00347996  0.00462848  1
  Fe  Fe1  1  0.17121488  0.17041388  0.17164065  1
  Ni  Ni2  1  0.00489196  0.00435174  0.33711996  1
  Ni  Ni3  1  1.00227104  0.33836938  0.00518453  1
  Fe  Fe4  1  0.17113444  0.50504113  0.17027209  1
  Fe  Fe5  1  0.00468101  0.33688824  0.33781671  1
  Ni  Ni6  1  1.00381409  0.66994520  0.00497129  1
  Fe  Fe7  1  0.17157000  0.83732753  0.17078645  1
  Fe  Fe8  1  1.00394426  0.67170977  0.33681079  1
  Ni  Ni9  1  0.33803274  1.00293118  0.00462052  1
  Ni  Ni10  1  0.50259627  0.17029984  0.17075247  1
  Ni  Ni11  1  0.33732051  1.00363904  0.33839822  1
  Fe  Fe12  1  0.33831895  0.33849441  1.00399667  1
  Ni  Ni13  1  0.50488427  0.50415221  0.17020453  1
  Fe  Fe14  1  0.33761782  0.33629262  0.33830888  1
  Ni  Ni15  1  0.33840528  0.67232375  0.00553920  1
  Ni  Ni16  1  0.50416353  0.83832922  0.17040122  1
  Fe  Fe17  1  0.33792201  0.67185081  0.33766924  1
  Fe  Fe18  1  0.67031447  1.00348045  1.00406847  1
  Fe  Fe19  1  0.83645095  0.17114506  0.17078680  1
  Fe  Fe20  1  0.67033563  1.00389133  0.33778431  1
  Ni  Ni21  1  0.67210697  0.33872666  0.00482919  1
  Ni  Ni22  1  0.83852696  0.50533824  0.17030487  1
  Fe  Fe23  1  0.67048514  0.33713308  0.33751872  1
  Ni  Ni24  1  0.67057745  0.66958695  0.00462537  1
  Ni  Ni25  1  0.83852620  0.83642057  0.17029540  1
  Fe  Fe26  1  0.67093208  0.67176114  0.33688040  1
  Ni  Ni27  1  0.17116295  0.17000262  0.50498460  1
  Ni  Ni28  1  1.00415887  0.00486373  0.67069076  1
  Fe  Fe29  1  0.17162106  0.17134554  0.83666337  1
  Fe  Fe30  1  0.17213497  0.50367310  0.50484416  1
  Ni  Ni31  1  1.00308617  0.33743801  0.66991418  1
  Fe  Fe32  1  0.17183735  0.50441184  0.83767490  1
  Fe  Fe33  1  0.17199069  0.83812032  0.50433054  1
  Fe  Fe34  1  1.00418939  0.67049464  0.67134442  1
  Fe  Fe35  1  0.17229598  0.83702621  0.83767016  1
  Ni  Ni36  1  0.50208324  0.17001541  0.50498665  1
  Ni  Ni37  1  0.33794167  1.00332255  0.66977022  1
  Ni  Ni38  1  0.50281604  0.17028392  0.83704058  1
  Ni  Ni39  1  0.50519392  0.50428183  0.50497615  1
  Ni  Ni40  1  0.33830516  0.33825909  0.67082914  1
  Ni  Ni41  1  0.50508631  0.50417730  0.83760744  1
  Ni  Ni42  1  0.50364313  0.83848610  0.50452464  1
  Ni  Ni43  1  0.33831489  0.67120097  0.67027228  1
  Ni  Ni44  1  0.50351786  0.83832302  0.83785788  1
  Fe  Fe45  1  0.83697626  0.17115171  0.50491156  1
  Ni  Ni46  1  0.67066956  0.00486807  0.67012575  1
  Fe  Fe47  1  0.83623998  0.17181673  0.83707813  1
  Ni  Ni48  1  0.83833237  0.50464989  0.50461264  1
  Ni  Ni49  1  0.67139252  0.33779764  0.67027259  1
  Ni  Ni50  1  0.83844827  0.50451765  0.83786918  1
  Fe  Fe51  1  0.83703490  0.83838057  0.50376071  1
  Fe  Fe52  1  0.67020471  0.67057113  0.67119304  1
  Fe  Fe53  1  0.83632059  0.83730601  0.83808788  1
" 