5604,Ni48Fe15Cr36_12,-225.883538150664, 172.638223066939,Ni48Fe15Cr36,"# generated using pymatgen
 data_Cr10Fe4Ni13
_symmetry_space_group_name_H-M   'P 1'
_cell_length_a   7.47985612
_cell_length_b   7.47985612
_cell_length_c   10.57811397
_cell_angle_alpha   90.00000000
_cell_angle_beta   90.00000000
_cell_angle_gamma   90.00000000
_symmetry_Int_Tables_number   1
_chemical_formula_structural   Cr10Fe4Ni13
_chemical_formula_sum   'Cr20 Fe8 Ni26'
_cell_volume   591.82693932
_cell_formula_units_Z   2
loop_
 _symmetry_equiv_pos_site_id
 _symmetry_equiv_pos_as_xyz
  1  'x, y, z'
loop_
 _atom_site_type_symbol
 _atom_site_label
 _atom_site_symmetry_multiplicity
 _atom_site_fract_x
 _atom_site_fract_y
 _atom_site_fract_z
 _atom_site_occupancy
  Ni  Ni0  1  0.99683403  -0.00050626  0.00022764  1
  Ni  Ni1  1  0.16287989  0.16673794  0.16560856  1
  Ni  Ni2  1  0.00138909  -0.00045317  0.33159123  1
  Ni  Ni3  1  0.00031165  0.33048320  0.00155968  1
  Ni  Ni4  1  0.16733685  0.49764786  0.16512925  1
  Cr  Cr5  1  0.99868725  0.33229078  0.33226339  1
  Cr  Cr6  1  0.99885755  0.66657868  0.00123553  1
  Fe  Fe7  1  0.16445791  0.83414254  0.16613190  1
  Cr  Cr8  1  0.99863645  0.66581987  0.33185731  1
  Cr  Cr9  1  0.33206291  -0.00060614  0.99768545  1
  Cr  Cr10  1  0.49870364  0.16710382  0.16754385  1
  Ni  Ni11  1  0.33045501  -0.00001085  0.33377556  1
  Ni  Ni12  1  0.33088156  0.33418704  -0.00046275  1
  Cr  Cr13  1  0.49747613  0.49964339  0.16507352  1
  Fe  Fe14  1  0.33123946  0.33059721  0.33263563  1
  Ni  Ni15  1  0.33329509  0.66490158  0.99782345  1
  Cr  Cr16  1  0.49959758  0.83068324  0.16509759  1
  Fe  Fe17  1  0.33137497  0.66650037  0.33198405  1
  Ni  Ni18  1  0.66878895  0.99708247  0.99714937  1
  Ni  Ni19  1  0.83640847  0.16391285  0.16456923  1
  Cr  Cr20  1  0.66575057  0.00044682  0.33500143  1
  Cr  Cr21  1  0.66619448  0.33177505  0.99851851  1
  Fe  Fe22  1  0.83353795  0.49775107  0.16544118  1
  Ni  Ni23  1  0.66619478  0.33211600  0.33397060  1
  Ni  Ni24  1  0.66508672  0.66838103  0.99845808  1
  Ni  Ni25  1  0.83421207  0.83474733  0.16427905  1
  Cr  Cr26  1  0.66802677  0.66490725  0.33293398  1
  Ni  Ni27  1  0.16554694  0.16738026  0.49821086  1
  Cr  Cr28  1  0.99819891  -0.00007448  0.66593792  1
  Cr  Cr29  1  0.16390647  0.16649672  0.83366382  1
  Fe  Fe30  1  0.16521225  0.49674927  0.50007232  1
  Ni  Ni31  1  0.99895072  0.33299537  0.66304065  1
  Cr  Cr32  1  0.16955715  0.49877303  0.83101737  1
  Cr  Cr33  1  0.16672357  0.83371103  0.49724394  1
  Cr  Cr34  1  0.99896128  0.66456041  0.66433271  1
  Ni  Ni35  1  0.16644769  0.83182790  0.83387504  1
  Fe  Fe36  1  0.49937376  0.16618949  0.49890061  1
  Cr  Cr37  1  0.33441479  -0.00009041  0.66635036  1
  Ni  Ni38  1  0.50089936  0.16802549  0.83179453  1
  Cr  Cr39  1  0.49865426  0.49835467  0.49895465  1
  Ni  Ni40  1  0.33307467  0.33291492  0.66482702  1
  Ni  Ni41  1  0.49720067  0.49927404  0.83298225  1
  Ni  Ni42  1  0.49835606  0.83200320  0.49866955  1
  Fe  Fe43  1  0.33331351  0.66420820  0.66720635  1
  Fe  Fe44  1  0.49975932  0.83129729  0.83423105  1
  Ni  Ni45  1  0.83354760  0.16756814  0.49955166  1
  Cr  Cr46  1  0.66481809  0.00033693  0.66590232  1
  Ni  Ni47  1  0.83121206  0.16375716  0.83331132  1
  Ni  Ni48  1  0.83187050  0.49638947  0.49953859  1
  Ni  Ni49  1  0.66540472  0.33181047  0.66539187  1
  Cr  Cr50  1  0.83045387  0.49734717  0.83248079  1
  Ni  Ni51  1  0.83164501  0.83347360  0.49830506  1
  Cr  Cr52  1  0.66599941  0.66609307  0.66603964  1
  Ni  Ni53  1  0.83158476  0.83553179  0.83485070  1
" 