1912,Ni48Fe47Cr4_7,-239.089256434836, 217.734135732528,Ni48Fe47Cr4,"# generated using pymatgen
 data_Cr3Fe25Ni26
_symmetry_space_group_name_H-M   'P 1'
_cell_length_a   7.41116427
_cell_length_b   7.41116427
_cell_length_c   10.48096903
_cell_angle_alpha   90.00000000
_cell_angle_beta   90.00000000
_cell_angle_gamma   90.00000000
_symmetry_Int_Tables_number   1
_chemical_formula_structural   Cr3Fe25Ni26
_chemical_formula_sum   'Cr3 Fe25 Ni26'
_cell_volume   575.67095374
_cell_formula_units_Z   1
loop_
 _symmetry_equiv_pos_site_id
 _symmetry_equiv_pos_as_xyz
  1  'x, y, z'
loop_
 _atom_site_type_symbol
 _atom_site_label
 _atom_site_symmetry_multiplicity
 _atom_site_fract_x
 _atom_site_fract_y
 _atom_site_fract_z
 _atom_site_occupancy
  Ni  Ni0  1  1.00306874  0.00383023  1.00249732  1
  Fe  Fe1  1  0.17028346  0.17100727  0.17111322  1
  Ni  Ni2  1  1.00248484  0.00398102  0.33746584  1
  Ni  Ni3  1  0.00528279  0.33740175  0.00418322  1
  Ni  Ni4  1  0.16838589  0.50362796  0.17077965  1
  Fe  Fe5  1  0.00420424  0.33823287  0.33752108  1
  Ni  Ni6  1  1.00240489  0.67012346  0.00519995  1
  Ni  Ni7  1  0.16996739  0.83824276  0.17047672  1
  Ni  Ni8  1  1.00108809  0.67086097  0.33696936  1
  Ni  Ni9  1  0.33690628  0.00512342  0.00562262  1
  Fe  Fe10  1  0.50286595  0.17215952  0.16981264  1
  Fe  Fe11  1  0.33517985  0.00407493  0.33625176  1
  Ni  Ni12  1  0.33620880  0.33820990  0.00473982  1
  Ni  Ni13  1  0.50500814  0.50411458  0.16927281  1
  Ni  Ni14  1  0.33753437  0.33495723  0.33703210  1
  Fe  Fe15  1  0.33487319  0.67107365  0.00497082  1
  Ni  Ni16  1  0.50420933  0.83886171  0.16890519  1
  Cr  Cr17  1  0.33598667  0.66655647  0.33656922  1
  Ni  Ni18  1  0.67145765  1.00192143  0.00525534  1
  Fe  Fe19  1  0.83829842  0.16989079  0.16899733  1
  Fe  Fe20  1  0.67118227  0.00391900  0.33575701  1
  Fe  Fe21  1  0.67278941  0.33585758  0.00457202  1
  Ni  Ni22  1  0.83827265  0.50247529  0.16970366  1
  Fe  Fe23  1  0.67177091  0.33880040  0.33648851  1
  Fe  Fe24  1  0.67057587  0.67026353  0.00438632  1
  Fe  Fe25  1  0.83842671  0.83528480  0.17035345  1
  Ni  Ni26  1  0.67273640  0.67037707  0.33566950  1
  Ni  Ni27  1  0.17000885  0.17086884  0.50442482  1
  Fe  Fe28  1  1.00376581  0.00432797  0.67045266  1
  Fe  Fe29  1  0.16943447  0.17184468  0.83694712  1
  Ni  Ni30  1  0.16760577  0.50226908  0.50363560  1
  Ni  Ni31  1  0.00526108  0.33800372  0.67062177  1
  Ni  Ni32  1  0.16935460  0.50490032  0.83743903  1
  Fe  Fe33  1  0.16684825  0.83721998  0.50372916  1
  Ni  Ni34  1  1.00247359  0.66972861  0.66932659  1
  Fe  Fe35  1  0.16975244  0.83795684  0.83807852  1
  Fe  Fe36  1  0.50318413  0.17372805  0.50460854  1
  Ni  Ni37  1  0.33634824  0.00547467  0.66970297  1
  Cr  Cr38  1  0.50500592  0.16867897  0.83698848  1
  Fe  Fe39  1  0.50473873  0.50126568  0.50376526  1
  Ni  Ni40  1  0.33575725  0.33775466  0.66961873  1
  Fe  Fe41  1  0.50316474  0.50367064  0.83761148  1
  Cr  Cr42  1  0.50422247  0.83802651  0.50425210  1
  Fe  Fe43  1  0.33543712  0.66944154  0.67108896  1
  Fe  Fe44  1  0.50387166  0.83622134  0.83709558  1
  Fe  Fe45  1  0.83837498  0.17082018  0.50480226  1
  Ni  Ni46  1  0.67168936  1.00254252  0.66928480  1
  Ni  Ni47  1  0.83789289  0.17023125  0.83632395  1
  Ni  Ni48  1  0.83787935  0.50348130  0.50430635  1
  Fe  Fe49  1  0.67229462  0.33764967  0.66972990  1
  Fe  Fe50  1  0.83863126  0.50292065  0.83700327  1
  Fe  Fe51  1  0.83948095  0.83590920  0.50384580  1
  Ni  Ni52  1  0.67211718  0.67040402  0.67132477  1
  Fe  Fe53  1  0.83754261  0.83702104  0.83701658  1
" 