6884,Ni48Fe15Cr36_9,-225.958428075608, 166.50136322729,Ni48Fe15Cr36,"# generated using pymatgen
 data_Cr10Fe4Ni13
_symmetry_space_group_name_H-M   'P 1'
_cell_length_a   7.48159204
_cell_length_b   7.48159204
_cell_length_c   10.58056893
_cell_angle_alpha   90.00000000
_cell_angle_beta   90.00000000
_cell_angle_gamma   90.00000000
_symmetry_Int_Tables_number   1
_chemical_formula_structural   Cr10Fe4Ni13
_chemical_formula_sum   'Cr20 Fe8 Ni26'
_cell_volume   592.23908754
_cell_formula_units_Z   2
loop_
 _symmetry_equiv_pos_site_id
 _symmetry_equiv_pos_as_xyz
  1  'x, y, z'
loop_
 _atom_site_type_symbol
 _atom_site_label
 _atom_site_symmetry_multiplicity
 _atom_site_fract_x
 _atom_site_fract_y
 _atom_site_fract_z
 _atom_site_occupancy
  Fe  Fe0  1  0.99893344  0.00096981  0.00268093  1
  Ni  Ni1  1  0.16506347  0.16333973  0.16473280  1
  Ni  Ni2  1  -0.00064136  0.00147736  0.33260980  1
  Fe  Fe3  1  0.99781278  0.33027347  0.00139123  1
  Cr  Cr4  1  0.16628158  0.49524803  0.17105556  1
  Ni  Ni5  1  0.99798444  0.32695159  0.33018550  1
  Cr  Cr6  1  0.99760996  0.66431717  0.00124332  1
  Ni  Ni7  1  0.16385766  0.83706720  0.16680825  1
  Cr  Cr8  1  0.99742018  0.66870442  0.33314748  1
  Ni  Ni9  1  0.32938868  0.00274181  -0.00004674  1
  Ni  Ni10  1  0.49789058  0.16791269  0.16726217  1
  Ni  Ni11  1  0.33029711  0.00305230  0.33149266  1
  Cr  Cr12  1  0.33357595  0.32867797  0.99705027  1
  Ni  Ni13  1  0.50188282  0.49496807  0.16602429  1
  Ni  Ni14  1  0.33302055  0.32654017  0.33207807  1
  Cr  Cr15  1  0.33332249  0.66540474  0.00096539  1
  Cr  Cr16  1  0.49718964  0.83442779  0.16611268  1
  Ni  Ni17  1  0.33073395  0.66753128  0.33037924  1
  Cr  Cr18  1  0.66352789  0.00228762  0.00292210  1
  Fe  Fe19  1  0.83233713  0.16583349  0.16770925  1
  Ni  Ni20  1  0.66741660  0.00321488  0.33295322  1
  Ni  Ni21  1  0.66656710  0.33273956  -0.00004892  1
  Ni  Ni22  1  0.83037414  0.49521001  0.16379064  1
  Ni  Ni23  1  0.66567581  0.32740891  0.32989672  1
  Ni  Ni24  1  0.66889829  0.66259389  -0.00001208  1
  Ni  Ni25  1  0.83362735  0.83383041  0.16500950  1
  Cr  Cr26  1  0.66771956  0.66598858  0.32901533  1
  Ni  Ni27  1  0.16555494  0.16490802  0.49808902  1
  Fe  Fe28  1  0.99872073  0.00034919  0.66225035  1
  Fe  Fe29  1  0.16612312  0.16532118  0.83327259  1
  Cr  Cr30  1  0.16691202  0.49676288  0.49506058  1
  Cr  Cr31  1  0.00066013  0.33161742  0.66576203  1
  Fe  Fe32  1  0.16471146  0.49691209  0.83192209  1
  Ni  Ni33  1  0.16302327  0.83541471  0.49762817  1
  Ni  Ni34  1  -0.00076539  0.66648040  0.66510087  1
  Cr  Cr35  1  0.16385711  0.83468030  0.83347301  1
  Ni  Ni36  1  0.50007637  0.16689408  0.49893408  1
  Cr  Cr37  1  0.33325366  0.00308880  0.66499234  1
  Ni  Ni38  1  0.49967873  0.16949364  0.83128551  1
  Cr  Cr39  1  0.49823594  0.49347893  0.49565744  1
  Ni  Ni40  1  0.33334395  0.32944583  0.66777870  1
  Fe  Fe41  1  0.50233305  0.49704786  0.83286081  1
  Cr  Cr42  1  0.49902316  0.83616083  0.49571732  1
  Cr  Cr43  1  0.32981136  0.66353924  0.66511155  1
  Cr  Cr44  1  0.50022400  0.83629444  0.83480190  1
  Ni  Ni45  1  0.83161606  0.16360564  0.49748584  1
  Ni  Ni46  1  0.66712289  0.00366288  0.66331913  1
  Cr  Cr47  1  0.83235684  0.16622830  0.83350753  1
  Cr  Cr48  1  0.83238114  0.49410025  0.49854129  1
  Ni  Ni49  1  0.66446348  0.32771071  0.66668490  1
  Fe  Fe50  1  0.83111269  0.49764301  0.83328454  1
  Ni  Ni51  1  0.83495772  0.83746795  0.50177785  1
  Cr  Cr52  1  0.66815402  0.66587819  0.66588009  1
  Cr  Cr53  1  0.83280098  0.83461150  0.83092305  1
" 