5830,Ni48Fe52_9,-241.957535657276, 225.76426257078,Ni48Fe52,"# generated using pymatgen
 data_Fe25Ni29
_symmetry_space_group_name_H-M   'P 1'
_cell_length_a   7.40359285
_cell_length_b   7.40359285
_cell_length_c   10.47026142
_cell_angle_alpha   90.00000000
_cell_angle_beta   90.00000000
_cell_angle_gamma   90.00000000
_symmetry_Int_Tables_number   1
_chemical_formula_structural   Fe25Ni29
_chemical_formula_sum   'Fe25 Ni29'
_cell_volume   573.90839826
_cell_formula_units_Z   1
loop_
 _symmetry_equiv_pos_site_id
 _symmetry_equiv_pos_as_xyz
  1  'x, y, z'
loop_
 _atom_site_type_symbol
 _atom_site_label
 _atom_site_symmetry_multiplicity
 _atom_site_fract_x
 _atom_site_fract_y
 _atom_site_fract_z
 _atom_site_occupancy
  Ni  Ni0  1  1.00426365  0.00435719  1.00316139  1
  Ni  Ni1  1  0.17132361  0.17082341  0.17056342  1
  Ni  Ni2  1  1.00358821  0.00458693  0.33846695  1
  Ni  Ni3  1  1.00339770  0.33725649  1.00411041  1
  Ni  Ni4  1  0.17060839  0.50494822  0.17056564  1
  Fe  Fe5  1  1.00325612  0.33767408  0.33629708  1
  Ni  Ni6  1  0.00536488  0.67124296  0.00478445  1
  Ni  Ni7  1  0.17182746  0.83708458  0.17140327  1
  Fe  Fe8  1  1.00335047  0.67155089  0.33762681  1
  Ni  Ni9  1  0.33689675  1.00398082  1.00410075  1
  Fe  Fe10  1  0.50401387  0.17183436  0.17072569  1
  Fe  Fe11  1  0.33848060  1.00368145  0.33749796  1
  Ni  Ni12  1  0.33812037  0.33798808  1.00420469  1
  Fe  Fe13  1  0.50370800  0.50385913  0.17110853  1
  Fe  Fe14  1  0.33842323  0.33726375  0.33720232  1
  Ni  Ni15  1  0.33653339  0.67088799  1.00373846  1
  Fe  Fe16  1  0.50353688  0.83716053  0.17183522  1
  Ni  Ni17  1  0.33749850  0.67065425  0.33799744  1
  Fe  Fe18  1  0.67116868  0.00526133  1.00352589  1
  Ni  Ni19  1  0.83693745  0.17242207  0.17088691  1
  Ni  Ni20  1  0.67225799  0.00530761  0.33742195  1
  Ni  Ni21  1  0.67133295  0.33689151  1.00388470  1
  Ni  Ni22  1  0.83764677  0.50335735  0.17098843  1
  Ni  Ni23  1  0.67104088  0.33688995  0.33847241  1
  Fe  Fe24  1  0.67162794  0.67012024  0.00456722  1
  Fe  Fe25  1  0.83930413  0.83792690  0.17141153  1
  Ni  Ni26  1  0.66980951  0.67066063  0.33872859  1
  Fe  Fe27  1  0.17117846  0.16942489  0.50355696  1
  Fe  Fe28  1  1.00418991  1.00257274  0.67102195  1
  Fe  Fe29  1  0.16994473  0.17057571  0.83894278  1
  Fe  Fe30  1  0.17191123  0.50582951  0.50431484  1
  Fe  Fe31  1  1.00391252  0.33830070  0.67174642  1
  Fe  Fe32  1  0.17007212  0.50468302  0.83818379  1
  Ni  Ni33  1  0.17120242  0.83676241  0.50383492  1
  Ni  Ni34  1  0.00568152  0.67121297  0.67028350  1
  Ni  Ni35  1  0.17097406  0.83675721  0.83761641  1
  Ni  Ni36  1  0.50457473  0.17099155  0.50342234  1
  Fe  Fe37  1  0.33787228  1.00326402  0.67115321  1
  Ni  Ni38  1  0.50461607  0.17161800  0.83829468  1
  Fe  Fe39  1  0.50404831  0.50573978  0.50376173  1
  Fe  Fe40  1  0.33807104  0.33753523  0.67122142  1
  Fe  Fe41  1  0.50478939  0.50426570  0.83799114  1
  Ni  Ni42  1  0.50384145  0.83836509  0.50483024  1
  Ni  Ni43  1  0.33649538  0.67084300  0.67112382  1
  Fe  Fe44  1  0.50492095  0.83807222  0.83703656  1
  Fe  Fe45  1  0.83671944  0.16896903  0.50376224  1
  Ni  Ni46  1  0.67140513  0.00543479  0.67070720  1
  Ni  Ni47  1  0.83603229  0.17198477  0.83749988  1
  Fe  Fe48  1  0.83689456  0.50537858  0.50414085  1
  Fe  Fe49  1  0.67086863  0.33772732  0.67147448  1
  Ni  Ni50  1  0.83763940  0.50410948  0.83776939  1
  Ni  Ni51  1  0.83781354  0.83677575  0.50388669  1
  Fe  Fe52  1  0.67156315  0.67178259  0.67037132  1
  Ni  Ni53  1  0.83886066  0.83676299  0.83818489  1
" 