7192,Ni48Fe52_19,-241.962934206792, 223.93574951578,Ni48Fe52,"# generated using pymatgen
 data_Fe25Ni29
_symmetry_space_group_name_H-M   'P 1'
_cell_length_a   7.40133574
_cell_length_b   7.40133574
_cell_length_c   10.46706938
_cell_angle_alpha   90.00000000
_cell_angle_beta   90.00000000
_cell_angle_gamma   90.00000000
_symmetry_Int_Tables_number   1
_chemical_formula_structural   Fe25Ni29
_chemical_formula_sum   'Fe25 Ni29'
_cell_volume   573.38366078
_cell_formula_units_Z   1
loop_
 _symmetry_equiv_pos_site_id
 _symmetry_equiv_pos_as_xyz
  1  'x, y, z'
loop_
 _atom_site_type_symbol
 _atom_site_label
 _atom_site_symmetry_multiplicity
 _atom_site_fract_x
 _atom_site_fract_y
 _atom_site_fract_z
 _atom_site_occupancy
  Ni  Ni0  1  1.00436580  1.00390725  1.00413139  1
  Ni  Ni1  1  0.17118103  0.17015172  0.17110383  1
  Ni  Ni2  1  0.00447332  0.00491004  0.33770673  1
  Fe  Fe3  1  1.00280696  0.33770368  1.00443002  1
  Fe  Fe4  1  0.17097201  0.50435640  0.17102560  1
  Ni  Ni5  1  0.00485718  0.33748203  0.33690056  1
  Ni  Ni6  1  1.00436378  0.67136105  0.00557357  1
  Ni  Ni7  1  0.17155519  0.83834227  0.17137966  1
  Fe  Fe8  1  1.00242681  0.67133522  0.33735041  1
  Fe  Fe9  1  0.33807193  1.00325511  1.00422444  1
  Ni  Ni10  1  0.50377646  0.17103124  0.17142790  1
  Fe  Fe11  1  0.33812682  0.00487369  0.33745751  1
  Fe  Fe12  1  0.33815058  0.33739270  1.00438273  1
  Ni  Ni13  1  0.50502378  0.50482787  0.17072985  1
  Fe  Fe14  1  0.33851570  0.33711089  0.33752093  1
  Fe  Fe15  1  0.33807012  0.67266823  0.00481614  1
  Ni  Ni16  1  0.50340455  0.83745837  0.17159539  1
  Fe  Fe17  1  0.33845255  0.67133195  0.33725002  1
  Ni  Ni18  1  0.67107115  1.00352931  0.00520065  1
  Ni  Ni19  1  0.83836248  0.17176958  0.17148825  1
  Ni  Ni20  1  0.67139019  1.00366075  0.33700916  1
  Fe  Fe21  1  0.67236131  0.33770012  0.00450741  1
  Ni  Ni22  1  0.83747645  0.50445408  0.17186023  1
  Ni  Ni23  1  0.67137774  0.33836036  0.33727378  1
  Ni  Ni24  1  0.67107810  0.67174181  0.00450109  1
  Ni  Ni25  1  0.83835615  0.83709392  0.17088828  1
  Ni  Ni26  1  0.67050296  0.67129642  0.33733224  1
  Fe  Fe27  1  0.16939848  0.17141587  0.50423912  1
  Fe  Fe28  1  1.00407357  0.00615679  0.67072071  1
  Fe  Fe29  1  0.17126713  0.17126741  0.83766558  1
  Fe  Fe30  1  0.16947430  0.50383436  0.50498758  1
  Ni  Ni31  1  0.00498776  0.33857575  0.67159366  1
  Fe  Fe32  1  0.17101733  0.50369941  0.83730568  1
  Fe  Fe33  1  0.16962835  0.83807016  0.50408882  1
  Fe  Fe34  1  1.00407516  0.67026523  0.67139555  1
  Fe  Fe35  1  0.17089486  0.83835324  0.83842851  1
  Fe  Fe36  1  0.50622241  0.17110515  0.50521905  1
  Ni  Ni37  1  0.33843551  0.00458347  0.67147982  1
  Ni  Ni38  1  0.50413854  0.17003874  0.83706652  1
  Fe  Fe39  1  0.50613995  0.50413927  0.50384750  1
  Ni  Ni40  1  0.33718818  0.33769498  0.67083422  1
  Fe  Fe41  1  0.50540154  0.50369348  0.83797675  1
  Fe  Fe42  1  0.50629758  0.83807118  0.50468201  1
  Fe  Fe43  1  0.33835370  0.67090120  0.67125159  1
  Ni  Ni44  1  0.50288701  0.83843977  0.83728140  1
  Ni  Ni45  1  0.83804495  0.17187554  0.50481194  1
  Ni  Ni46  1  0.67026501  1.00421297  0.67111351  1
  Ni  Ni47  1  0.83768643  0.17253801  0.83701353  1
  Ni  Ni48  1  0.83804868  0.50394181  0.50470652  1
  Ni  Ni49  1  0.67114388  0.33768944  0.67132648  1
  Ni  Ni50  1  0.83857767  0.50360043  0.83675054  1
  Ni  Ni51  1  0.83804295  0.83750116  0.50529896  1
  Fe  Fe52  1  0.67088825  0.67051094  0.67102994  1
  Fe  Fe53  1  0.83656597  0.83843444  0.83853302  1
" 