1963,Ni48Fe52_6,-241.410536620175, 225.398285667891,Ni48Fe52,"# generated using pymatgen
 data_Fe25Ni29
_symmetry_space_group_name_H-M   'P 1'
_cell_length_a   7.39974595
_cell_length_b   7.39974595
_cell_length_c   10.46482108
_cell_angle_alpha   90.00000000
_cell_angle_beta   90.00000000
_cell_angle_gamma   90.00000000
_symmetry_Int_Tables_number   1
_chemical_formula_structural   Fe25Ni29
_chemical_formula_sum   'Fe25 Ni29'
_cell_volume   573.01425559
_cell_formula_units_Z   1
loop_
 _symmetry_equiv_pos_site_id
 _symmetry_equiv_pos_as_xyz
  1  'x, y, z'
loop_
 _atom_site_type_symbol
 _atom_site_label
 _atom_site_symmetry_multiplicity
 _atom_site_fract_x
 _atom_site_fract_y
 _atom_site_fract_z
 _atom_site_occupancy
  Ni  Ni0  1  1.00411379  0.00476239  1.00402470  1
  Ni  Ni1  1  0.17121580  0.16970195  0.17146020  1
  Ni  Ni2  1  1.00439398  0.00474638  0.33780230  1
  Ni  Ni3  1  0.00593862  0.33738137  0.00456940  1
  Ni  Ni4  1  0.17087832  0.50506313  0.17121616  1
  Fe  Fe5  1  1.00392982  0.33800423  0.33753767  1
  Fe  Fe6  1  1.00428657  0.67061264  1.00435964  1
  Ni  Ni7  1  0.17087507  0.83887885  0.17244860  1
  Fe  Fe8  1  1.00373708  0.67149874  0.33772890  1
  Fe  Fe9  1  0.33717943  0.00604013  1.00434019  1
  Fe  Fe10  1  0.50436083  0.17231342  0.17108120  1
  Fe  Fe11  1  0.33840589  1.00439675  0.33802775  1
  Ni  Ni12  1  0.33745372  0.33923223  0.00526257  1
  Ni  Ni13  1  0.50631579  0.50471055  0.17210295  1
  Fe  Fe14  1  0.33870291  0.33754370  0.33788966  1
  Fe  Fe15  1  0.33767428  0.67081383  0.00544775  1
  Fe  Fe16  1  0.50407329  0.83677186  0.17185379  1
  Ni  Ni17  1  0.33819961  0.67014905  0.33804727  1
  Ni  Ni18  1  0.67208835  1.00442094  0.00496574  1
  Fe  Fe19  1  0.83863403  0.17175095  0.17061119  1
  Ni  Ni20  1  0.67219309  1.00439548  0.33745315  1
  Ni  Ni21  1  0.67025158  0.33773527  1.00382549  1
  Ni  Ni22  1  0.83644484  0.50504900  0.17175504  1
  Ni  Ni23  1  0.67035267  0.33805149  0.33800036  1
  Fe  Fe24  1  0.67168278  0.66976050  0.00454860  1
  Fe  Fe25  1  0.83856306  0.83769247  0.17164666  1
  Ni  Ni26  1  0.66955191  0.67119690  0.33716432  1
  Ni  Ni27  1  0.17173096  0.17000104  0.50472465  1
  Ni  Ni28  1  1.00401656  0.00473114  0.67181342  1
  Ni  Ni29  1  0.17104306  0.16919632  0.83746046  1
  Fe  Fe30  1  0.17183077  0.50358455  0.50456647  1
  Ni  Ni31  1  0.00666183  0.33743270  0.67171425  1
  Fe  Fe32  1  0.17115751  0.50305481  0.83792049  1
  Fe  Fe33  1  0.17126371  0.83869242  0.50447267  1
  Ni  Ni34  1  0.00470624  0.67147682  0.67121978  1
  Ni  Ni35  1  0.17068900  0.83909087  0.83706813  1
  Ni  Ni36  1  0.50428715  0.17104086  0.50443078  1
  Fe  Fe37  1  0.33713136  0.00505037  0.67127471  1
  Ni  Ni38  1  0.50479240  0.17183132  0.83765852  1
  Fe  Fe39  1  0.50406701  0.50394403  0.50419469  1
  Ni  Ni40  1  0.33702968  0.33846942  0.67136916  1
  Ni  Ni41  1  0.50663013  0.50420964  0.83716317  1
  Fe  Fe42  1  0.50485093  0.83855597  0.50418859  1
  Fe  Fe43  1  0.33733856  0.67141350  0.67108716  1
  Fe  Fe44  1  0.50536938  0.83848478  0.83760014  1
  Fe  Fe45  1  0.83788535  0.17057684  0.50479761  1
  Ni  Ni46  1  0.67179743  1.00358972  0.67122006  1
  Ni  Ni47  1  0.83780815  0.17183134  0.83701965  1
  Fe  Fe48  1  0.83774279  0.50389251  0.50475697  1
  Fe  Fe49  1  0.67194547  0.33789217  0.67176078  1
  Ni  Ni50  1  0.83632313  0.50455922  0.83750607  1
  Fe  Fe51  1  0.83752593  0.83917347  0.50475340  1
  Ni  Ni52  1  0.67076432  0.67227826  0.67141465  1
  Fe  Fe53  1  0.83768257  0.83884026  0.83724086  1
" 