8892,Ni48Fe47Cr4_18,-238.609585983495, 217.840787758666,Ni48Fe47Cr4,"# generated using pymatgen
 data_Cr3Fe25Ni26
_symmetry_space_group_name_H-M   'P 1'
_cell_length_a   7.41074838
_cell_length_b   7.41074838
_cell_length_c   10.48038087
_cell_angle_alpha   90.00000000
_cell_angle_beta   90.00000000
_cell_angle_gamma   90.00000000
_symmetry_Int_Tables_number   1
_chemical_formula_structural   Cr3Fe25Ni26
_chemical_formula_sum   'Cr3 Fe25 Ni26'
_cell_volume   575.57404525
_cell_formula_units_Z   1
loop_
 _symmetry_equiv_pos_site_id
 _symmetry_equiv_pos_as_xyz
  1  'x, y, z'
loop_
 _atom_site_type_symbol
 _atom_site_label
 _atom_site_symmetry_multiplicity
 _atom_site_fract_x
 _atom_site_fract_y
 _atom_site_fract_z
 _atom_site_occupancy
  Fe  Fe0  1  1.00177204  0.00591546  0.00426473  1
  Ni  Ni1  1  0.17000173  0.17167869  0.16942658  1
  Cr  Cr2  1  0.00409240  0.00394323  0.33715015  1
  Ni  Ni3  1  0.00390738  0.33608817  1.00368433  1
  Fe  Fe4  1  0.17110980  0.50219952  0.17078897  1
  Ni  Ni5  1  0.00432805  0.33924455  0.33757570  1
  Cr  Cr6  1  1.00311019  0.66975719  0.00486156  1
  Fe  Fe7  1  0.17249284  0.83805557  0.17110784  1
  Fe  Fe8  1  1.00333630  0.66924935  0.33797540  1
  Fe  Fe9  1  0.33812608  0.00398175  0.00394316  1
  Ni  Ni10  1  0.50278710  0.17164561  0.16918386  1
  Fe  Fe11  1  0.33691773  0.00417446  0.33756483  1
  Fe  Fe12  1  0.33795458  0.33770913  1.00356114  1
  Ni  Ni13  1  0.50327112  0.50425413  0.17007554  1
  Fe  Fe14  1  0.33727958  0.33668984  0.33730167  1
  Fe  Fe15  1  0.34008208  0.66970199  1.00365281  1
  Ni  Ni16  1  0.50351536  0.83549456  0.16962498  1
  Fe  Fe17  1  0.33721821  0.67053310  0.33718402  1
  Ni  Ni18  1  0.66950943  1.00367008  0.00392281  1
  Ni  Ni19  1  0.83860299  0.17143471  0.16854193  1
  Cr  Cr20  1  0.66844270  1.00365592  0.33753975  1
  Ni  Ni21  1  0.67029009  0.33638227  0.00447685  1
  Fe  Fe22  1  0.83567983  0.50222790  0.17140052  1
  Fe  Fe23  1  0.67084504  0.33826852  0.33708943  1
  Ni  Ni24  1  0.66896414  0.67134271  0.00409464  1
  Ni  Ni25  1  0.83646799  0.83711715  0.16962168  1
  Fe  Fe26  1  0.67083946  0.66888973  0.33688193  1
  Fe  Fe27  1  0.17152673  0.17090840  0.50421229  1
  Fe  Fe28  1  0.00407296  1.00353900  0.67008186  1
  Fe  Fe29  1  0.17073975  0.17069520  0.83738642  1
  Fe  Fe30  1  0.17005630  0.50406139  0.50441204  1
  Fe  Fe31  1  0.00436056  0.33704559  0.67053338  1
  Ni  Ni32  1  0.17229078  0.50257012  0.83629919  1
  Ni  Ni33  1  0.17098701  0.83649489  0.50459717  1
  Ni  Ni34  1  1.00333666  0.67054765  0.66933360  1
  Fe  Fe35  1  0.17119307  0.83739112  0.83537606  1
  Ni  Ni36  1  0.50293434  0.17158423  0.50441294  1
  Ni  Ni37  1  0.33803308  0.00439697  0.66912539  1
  Fe  Fe38  1  0.50408590  0.17040031  0.83694383  1
  Ni  Ni39  1  0.50343542  0.50360179  0.50383872  1
  Ni  Ni40  1  0.33743754  0.33639100  0.67012970  1
  Ni  Ni41  1  0.50205455  0.50466673  0.83748258  1
  Ni  Ni42  1  0.50221285  0.83620760  0.50436266  1
  Fe  Fe43  1  0.33697937  0.67039533  0.67055688  1
  Ni  Ni44  1  0.50410845  0.83573840  0.83740738  1
  Ni  Ni45  1  0.83776012  0.17208276  0.50505259  1
  Fe  Fe46  1  0.67034647  1.00366243  0.67048485  1
  Ni  Ni47  1  0.83841087  0.16967705  0.83780765  1
  Ni  Ni48  1  0.83746802  0.50332329  0.50371364  1
  Fe  Fe49  1  0.66993101  0.33704799  0.67028503  1
  Fe  Fe50  1  0.83615094  0.50356575  0.83637504  1
  Ni  Ni51  1  0.83819257  0.83598886  0.50559386  1
  Fe  Fe52  1  0.66976140  0.67068616  0.67063345  1
  Ni  Ni53  1  0.83630720  0.83914289  0.83618316  1
" 