6505,Ni48Fe38Cr12_13,-235.766866659313, 212.145977280084,Ni48Fe38Cr12,"# generated using pymatgen
 data_Cr4Fe10Ni13
_symmetry_space_group_name_H-M   'P 1'
_cell_length_a   7.42734767
_cell_length_b   7.42734767
_cell_length_c   10.50385580
_cell_angle_alpha   90.00000000
_cell_angle_beta   90.00000000
_cell_angle_gamma   90.00000000
_symmetry_Int_Tables_number   1
_chemical_formula_structural   Cr4Fe10Ni13
_chemical_formula_sum   'Cr8 Fe20 Ni26'
_cell_volume   579.45038785
_cell_formula_units_Z   2
loop_
 _symmetry_equiv_pos_site_id
 _symmetry_equiv_pos_as_xyz
  1  'x, y, z'
loop_
 _atom_site_type_symbol
 _atom_site_label
 _atom_site_symmetry_multiplicity
 _atom_site_fract_x
 _atom_site_fract_y
 _atom_site_fract_z
 _atom_site_occupancy
  Ni  Ni0  1  0.00410794  0.00379370  0.00277586  1
  Ni  Ni1  1  0.17022679  0.16781192  0.17002248  1
  Fe  Fe2  1  1.00205778  0.00517388  0.33490209  1
  Cr  Cr3  1  1.00075926  0.33426866  0.00314231  1
  Fe  Fe4  1  0.17144186  0.50153916  0.16912885  1
  Fe  Fe5  1  1.00109293  0.33426701  0.33533872  1
  Fe  Fe6  1  1.00166522  0.66958594  0.00295119  1
  Ni  Ni7  1  0.17119482  0.83606037  0.16798048  1
  Cr  Cr8  1  1.00241529  0.66893786  0.33457036  1
  Ni  Ni9  1  0.33566190  0.00269448  0.00297813  1
  Ni  Ni10  1  0.50376190  0.17025386  0.16814839  1
  Fe  Fe11  1  0.33863624  0.00348634  0.33452840  1
  Fe  Fe12  1  0.33850102  0.33524904  0.00355006  1
  Fe  Fe13  1  0.50341566  0.50227132  0.16953714  1
  Fe  Fe14  1  0.33874586  0.33532124  0.33590407  1
  Ni  Ni15  1  0.33812323  0.67010233  0.00468124  1
  Fe  Fe16  1  0.50203725  0.83773652  0.16959148  1
  Ni  Ni17  1  0.33817322  0.66951506  0.33461709  1
  Fe  Fe18  1  0.66798202  0.00393939  1.00190038  1
  Ni  Ni19  1  0.83433836  0.16992187  0.17016823  1
  Ni  Ni20  1  0.66795075  0.00461445  0.33670125  1
  Ni  Ni21  1  0.66843865  0.33660833  0.00276755  1
  Fe  Fe22  1  0.83315777  0.50086315  0.16958330  1
  Ni  Ni23  1  0.66882322  0.33538988  0.33607407  1
  Ni  Ni24  1  0.66685666  0.66690849  1.00151047  1
  Cr  Cr25  1  0.83401959  0.83753265  0.16722743  1
  Ni  Ni26  1  0.66653908  0.66803584  0.33813005  1
  Ni  Ni27  1  0.16958930  0.16963236  0.50172029  1
  Cr  Cr28  1  1.00075649  0.00348241  0.66863240  1
  Fe  Fe29  1  0.17102135  0.16972117  0.83632580  1
  Cr  Cr30  1  0.16995520  0.50132148  0.50435861  1
  Fe  Fe31  1  0.99847847  0.33502831  0.66948335  1
  Cr  Cr32  1  0.17052549  0.50291171  0.83515037  1
  Cr  Cr33  1  0.17194566  0.83690623  0.50204105  1
  Ni  Ni34  1  1.00042337  0.66835080  0.67034730  1
  Cr  Cr35  1  0.17073625  0.83602454  0.83730384  1
  Ni  Ni36  1  0.50399515  0.16902530  0.50306289  1
  Fe  Fe37  1  0.33972646  0.00405735  0.66963426  1
  Fe  Fe38  1  0.50371383  0.17020381  0.83635133  1
  Ni  Ni39  1  0.50466989  0.50280126  0.50283059  1
  Fe  Fe40  1  0.33852019  0.33390571  0.66878375  1
  Ni  Ni41  1  0.50415949  0.50293925  0.83608949  1
  Ni  Ni42  1  0.50383670  0.83629839  0.50177134  1
  Fe  Fe43  1  0.34110541  0.67006216  0.66945733  1
  Ni  Ni44  1  0.50333220  0.83608964  0.83722927  1
  Ni  Ni45  1  0.83462573  0.17084012  0.50054074  1
  Ni  Ni46  1  0.66804139  0.00411047  0.66988734  1
  Ni  Ni47  1  0.83373977  0.16947771  0.83724700  1
  Ni  Ni48  1  0.83391984  0.50090286  0.50357574  1
  Ni  Ni49  1  0.66851933  0.33577390  0.66914312  1
  Ni  Ni50  1  0.83373880  0.50161614  0.83575453  1
  Fe  Fe51  1  0.83234862  0.83630172  0.50247946  1
  Fe  Fe52  1  0.66954932  0.66972294  0.66955068  1
  Fe  Fe53  1  0.83321980  0.83492731  0.83715487  1
" 