8577,Ni48Fe47Cr4_17,-238.948506074766, 220.666275859212,Ni48Fe47Cr4,"# generated using pymatgen
 data_Cr3Fe25Ni26
_symmetry_space_group_name_H-M   'P 1'
_cell_length_a   7.40919134
_cell_length_b   7.40919134
_cell_length_c   10.47817888
_cell_angle_alpha   90.00000000
_cell_angle_beta   90.00000000
_cell_angle_gamma   90.00000000
_symmetry_Int_Tables_number   1
_chemical_formula_structural   Cr3Fe25Ni26
_chemical_formula_sum   'Cr3 Fe25 Ni26'
_cell_volume   575.21132699
_cell_formula_units_Z   1
loop_
 _symmetry_equiv_pos_site_id
 _symmetry_equiv_pos_as_xyz
  1  'x, y, z'
loop_
 _atom_site_type_symbol
 _atom_site_label
 _atom_site_symmetry_multiplicity
 _atom_site_fract_x
 _atom_site_fract_y
 _atom_site_fract_z
 _atom_site_occupancy
  Ni  Ni0  1  1.00382359  0.00410733  0.00468862  1
  Fe  Fe1  1  0.17157933  0.17000969  0.16957348  1
  Ni  Ni2  1  0.00395795  1.00164893  0.33708696  1
  Ni  Ni3  1  0.00526157  0.33738899  0.00411753  1
  Fe  Fe4  1  0.17133610  0.50422345  0.16978521  1
  Cr  Cr5  1  1.00326677  0.33713306  0.33671664  1
  Fe  Fe6  1  0.00402516  0.67060197  0.00478351  1
  Fe  Fe7  1  0.17030567  0.83748138  0.17080700  1
  Ni  Ni8  1  1.00320203  0.67229113  0.33792937  1
  Ni  Ni9  1  0.33744737  1.00358533  1.00363534  1
  Ni  Ni10  1  0.50239804  0.17032603  0.17136085  1
  Ni  Ni11  1  0.33765823  1.00380507  0.33759224  1
  Ni  Ni12  1  0.33578325  0.33768248  1.00363263  1
  Ni  Ni13  1  0.50224990  0.50324774  0.17145578  1
  Ni  Ni14  1  0.33979920  0.33730385  0.33750638  1
  Fe  Fe15  1  0.33685019  0.67041884  1.00319548  1
  Fe  Fe16  1  0.50465613  0.83722229  0.17065280  1
  Fe  Fe17  1  0.33619191  0.67056272  0.33802768  1
  Ni  Ni18  1  0.67044227  1.00214990  0.00394188  1
  Fe  Fe19  1  0.83684815  0.16913855  0.17001976  1
  Fe  Fe20  1  0.67069726  0.00420774  0.33777854  1
  Cr  Cr21  1  0.67087458  0.33728342  0.00403960  1
  Ni  Ni22  1  0.83811196  0.50654896  0.17033257  1
  Fe  Fe23  1  0.66874717  0.33658057  0.33689755  1
  Fe  Fe24  1  0.67083973  0.67227046  0.00424731  1
  Ni  Ni25  1  0.83826270  0.83705354  0.17014007  1
  Fe  Fe26  1  0.67106743  0.67092441  0.33728433  1
  Fe  Fe27  1  0.17106091  0.16915387  0.50428811  1
  Ni  Ni28  1  1.00349574  0.00469512  0.66993648  1
  Fe  Fe29  1  0.17002136  0.17110854  0.83785237  1
  Ni  Ni30  1  0.17127320  0.50487671  0.50444996  1
  Ni  Ni31  1  0.00497092  0.33666333  0.67066342  1
  Ni  Ni32  1  0.17050027  0.50396604  0.83828055  1
  Fe  Fe33  1  0.17040392  0.83798917  0.50354190  1
  Fe  Fe34  1  1.00361252  0.67046410  0.66988550  1
  Fe  Fe35  1  0.17069959  0.83813245  0.83736457  1
  Ni  Ni36  1  0.50352599  0.16918993  0.50315813  1
  Fe  Fe37  1  0.33824666  1.00368297  0.67035905  1
  Ni  Ni38  1  0.50303241  0.16843033  0.83719289  1
  Fe  Fe39  1  0.50341409  0.50498025  0.50287550  1
  Fe  Fe40  1  0.33574898  0.33747105  0.67057019  1
  Fe  Fe41  1  0.50213619  0.50496308  0.83747890  1
  Ni  Ni42  1  0.50466592  0.83825277  0.50389475  1
  Ni  Ni43  1  0.33821447  0.67060027  0.66986867  1
  Fe  Fe44  1  0.50410100  0.83766388  0.83645113  1
  Ni  Ni45  1  0.83661467  0.16773962  0.50334916  1
  Ni  Ni46  1  0.67101774  1.00196191  0.67051865  1
  Ni  Ni47  1  0.83790069  0.16812117  0.83805881  1
  Fe  Fe48  1  0.83690257  0.50563694  0.50360008  1
  Cr  Cr49  1  0.67133914  0.33729590  0.67011271  1
  Fe  Fe50  1  0.83894006  0.50428803  0.83754383  1
  Ni  Ni51  1  0.83722001  0.83795446  0.50450135  1
  Ni  Ni52  1  0.66917996  0.67207787  0.67071418  1
  Fe  Fe53  1  0.83691272  0.83827773  0.83709534  1
" 