6760,Ni48Fe47Cr4_12,-238.470455730596, 221.218183245405,Ni48Fe47Cr4,"# generated using pymatgen
 data_Cr3Fe25Ni26
_symmetry_space_group_name_H-M   'P 1'
_cell_length_a   7.40365971
_cell_length_b   7.40365971
_cell_length_c   10.47035598
_cell_angle_alpha   90.00000000
_cell_angle_beta   90.00000000
_cell_angle_gamma   90.00000000
_symmetry_Int_Tables_number   1
_chemical_formula_structural   Cr3Fe25Ni26
_chemical_formula_sum   'Cr3 Fe25 Ni26'
_cell_volume   573.92394700
_cell_formula_units_Z   1
loop_
 _symmetry_equiv_pos_site_id
 _symmetry_equiv_pos_as_xyz
  1  'x, y, z'
loop_
 _atom_site_type_symbol
 _atom_site_label
 _atom_site_symmetry_multiplicity
 _atom_site_fract_x
 _atom_site_fract_y
 _atom_site_fract_z
 _atom_site_occupancy
  Fe  Fe0  1  0.00442832  0.00505623  0.00486060  1
  Ni  Ni1  1  0.17129885  0.17130522  0.17168013  1
  Ni  Ni2  1  1.00409968  1.00414004  0.33787372  1
  Fe  Fe3  1  0.00548269  0.33833815  1.00373568  1
  Ni  Ni4  1  0.17109879  0.50426957  0.16991080  1
  Fe  Fe5  1  1.00373280  0.33729982  0.33822821  1
  Ni  Ni6  1  0.00516088  0.67034734  0.00465515  1
  Fe  Fe7  1  0.17172659  0.83804110  0.17070586  1
  Fe  Fe8  1  1.00388057  0.67060723  0.33730102  1
  Ni  Ni9  1  0.33761656  0.00547131  0.00535705  1
  Ni  Ni10  1  0.50462002  0.17061819  0.17115862  1
  Fe  Fe11  1  0.33866601  0.00469275  0.33710631  1
  Ni  Ni12  1  0.33754031  0.33734166  1.00319474  1
  Fe  Fe13  1  0.50265149  0.50257802  0.17153662  1
  Ni  Ni14  1  0.33691496  0.33722325  0.33713569  1
  Ni  Ni15  1  0.33626686  0.67002850  0.00557559  1
  Ni  Ni16  1  0.50400587  0.83859876  0.17165368  1
  Fe  Fe17  1  0.33737407  0.67169522  0.33707420  1
  Fe  Fe18  1  0.66982820  0.00542178  0.00452190  1
  Fe  Fe19  1  0.83711788  0.17087926  0.17203982  1
  Ni  Ni20  1  0.67174303  1.00389959  0.33734405  1
  Ni  Ni21  1  0.67064478  0.33643941  0.00440324  1
  Fe  Fe22  1  0.83791198  0.50312034  0.17124020  1
  Ni  Ni23  1  0.67105736  0.33743914  0.33682323  1
  Cr  Cr24  1  0.67080095  0.67040250  1.00388713  1
  Fe  Fe25  1  0.83853304  0.83884057  0.17171728  1
  Ni  Ni26  1  0.67180825  0.67150160  0.33706061  1
  Fe  Fe27  1  0.17038771  0.17090724  0.50464243  1
  Ni  Ni28  1  1.00327850  0.00577697  0.67045844  1
  Ni  Ni29  1  0.17109273  0.17170468  0.83705874  1
  Ni  Ni30  1  0.16998807  0.50523733  0.50547147  1
  Ni  Ni31  1  0.00440503  0.33762829  0.67081843  1
  Fe  Fe32  1  0.17066441  0.50307078  0.83781431  1
  Ni  Ni33  1  0.17058430  0.83765070  0.50351639  1
  Fe  Fe34  1  1.00388557  0.67104439  0.67061674  1
  Cr  Cr35  1  0.17048483  0.83848447  0.83894092  1
  Fe  Fe36  1  0.50414211  0.16926285  0.50355694  1
  Ni  Ni37  1  0.33832409  1.00425911  0.66908969  1
  Fe  Fe38  1  0.50453162  0.17104665  0.83832851  1
  Cr  Cr39  1  0.50428159  0.50387394  0.50307071  1
  Fe  Fe40  1  0.33613761  0.33614841  0.67188502  1
  Ni  Ni41  1  0.50452376  0.50319711  0.83786606  1
  Fe  Fe42  1  0.50398544  0.83923049  0.50412816  1
  Ni  Ni43  1  0.33776733  0.67100431  0.67158641  1
  Fe  Fe44  1  0.50490734  0.83809445  0.83692285  1
  Ni  Ni45  1  0.83733811  0.17019413  0.50431015  1
  Ni  Ni46  1  0.67123953  1.00364215  0.67133732  1
  Fe  Fe47  1  0.83767465  0.17126971  0.83652639  1
  Fe  Fe48  1  0.83980695  0.50404319  0.50445623  1
  Fe  Fe49  1  0.67194702  0.33621300  0.67201286  1
  Ni  Ni50  1  0.83666479  0.50394318  0.83592545  1
  Fe  Fe51  1  0.83816922  0.83806476  0.50441789  1
  Fe  Fe52  1  0.67189209  0.67246273  0.67223141  1
  Ni  Ni53  1  0.83705066  0.83811428  0.83639481  1
" 