7762,Ni48Fe15Cr36_14,-226.240943764861, 177.557923447322,Ni48Fe15Cr36,"# generated using pymatgen
 data_Cr10Fe4Ni13
_symmetry_space_group_name_H-M   'P 1'
_cell_length_a   7.47323874
_cell_length_b   7.47323874
_cell_length_c   10.56875558
_cell_angle_alpha   90.00000000
_cell_angle_beta   90.00000000
_cell_angle_gamma   90.00000000
_symmetry_Int_Tables_number   1
_chemical_formula_structural   Cr10Fe4Ni13
_chemical_formula_sum   'Cr20 Fe8 Ni26'
_cell_volume   590.25757276
_cell_formula_units_Z   2
loop_
 _symmetry_equiv_pos_site_id
 _symmetry_equiv_pos_as_xyz
  1  'x, y, z'
loop_
 _atom_site_type_symbol
 _atom_site_label
 _atom_site_symmetry_multiplicity
 _atom_site_fract_x
 _atom_site_fract_y
 _atom_site_fract_z
 _atom_site_occupancy
  Fe  Fe0  1  0.99848896  0.00003714  0.99686235  1
  Cr  Cr1  1  0.16358869  0.16775774  0.16606439  1
  Fe  Fe2  1  0.99881217  -0.00037184  0.33417075  1
  Ni  Ni3  1  0.00009812  0.33371491  -0.00030898  1
  Ni  Ni4  1  0.16698029  0.49922714  0.16562137  1
  Ni  Ni5  1  0.00063600  0.33506285  0.33413669  1
  Fe  Fe6  1  0.99877045  0.66423484  0.00150194  1
  Cr  Cr7  1  0.16528328  0.83091196  0.16490869  1
  Cr  Cr8  1  0.99698280  0.66216741  0.33242249  1
  Cr  Cr9  1  0.33270399  -0.00002283  0.99646665  1
  Fe  Fe10  1  0.50102546  0.16911683  0.16262276  1
  Cr  Cr11  1  0.33408272  0.00153728  0.33519968  1
  Ni  Ni12  1  0.33148447  0.33572837  0.00134103  1
  Ni  Ni13  1  0.50001798  0.50116710  0.16350584  1
  Cr  Cr14  1  0.32972762  0.33445869  0.33152167  1
  Ni  Ni15  1  0.33338226  0.66419103  0.99855546  1
  Cr  Cr16  1  0.50017899  0.82928335  0.16613505  1
  Ni  Ni17  1  0.33366922  0.66465970  0.33258298  1
  Ni  Ni18  1  0.66829597  0.99832977  0.99946829  1
  Cr  Cr19  1  0.83367367  0.16614298  0.16320339  1
  Cr  Cr20  1  0.66637511  0.99665113  0.33392231  1
  Ni  Ni21  1  0.66723665  0.33438623  -0.00003125  1
  Ni  Ni22  1  0.83186158  0.50001182  0.16533574  1
  Cr  Cr23  1  0.66751360  0.33588000  0.33189126  1
  Ni  Ni24  1  0.66634462  0.66639426  0.00143660  1
  Ni  Ni25  1  0.83154049  0.83171524  0.16553333  1
  Ni  Ni26  1  0.66764711  0.66694406  0.33279467  1
  Ni  Ni27  1  0.16349826  0.16645316  0.50069429  1
  Ni  Ni28  1  0.00247836  0.00147793  0.66796313  1
  Ni  Ni29  1  0.16248488  0.16505824  0.83206694  1
  Ni  Ni30  1  0.16416253  0.49861200  0.49973801  1
  Ni  Ni31  1  0.99948683  0.33182528  0.66484540  1
  Cr  Cr32  1  0.16676537  0.50068815  0.83301813  1
  Cr  Cr33  1  0.16896210  0.83262460  0.50125873  1
  Fe  Fe34  1  0.00140355  0.66564581  0.66493467  1
  Ni  Ni35  1  0.16896632  0.83380211  0.83161281  1
  Fe  Fe36  1  0.49754770  0.16657954  0.50198347  1
  Ni  Ni37  1  0.33014778  0.99739103  0.66636049  1
  Cr  Cr38  1  0.50234526  0.16806765  0.83346091  1
  Cr  Cr39  1  0.49951927  0.50307852  0.50059130  1
  Cr  Cr40  1  0.33034067  0.33193396  0.66590279  1
  Fe  Fe41  1  0.49925609  0.50111586  0.83542768  1
  Ni  Ni42  1  0.49857319  0.83171532  0.49955583  1
  Ni  Ni43  1  0.33197417  0.66942027  0.66758729  1
  Ni  Ni44  1  0.49676785  0.83026677  0.83324011  1
  Cr  Cr45  1  0.83547396  0.16838490  0.50160720  1
  Cr  Cr46  1  0.66517273  0.99903740  0.66565369  1
  Ni  Ni47  1  0.83548751  0.16770794  0.83375592  1
  Ni  Ni48  1  0.83453850  0.49823450  0.50043240  1
  Ni  Ni49  1  0.66993553  0.33313931  0.66698483  1
  Cr  Cr50  1  0.83109674  0.49493207  0.83258633  1
  Fe  Fe51  1  0.83430413  0.83068726  0.49946500  1
  Cr  Cr52  1  0.66654968  0.66618237  0.66547348  1
  Cr  Cr53  1  0.83399089  0.83425299  0.83456615  1
" 