7003,Ni48Fe38Cr12_2,-236.157141727843, 208.037955254567,Ni48Fe38Cr12,"# generated using pymatgen
 data_Cr4Fe10Ni13
_symmetry_space_group_name_H-M   'P 1'
_cell_length_a   7.43428316
_cell_length_b   7.43428316
_cell_length_c   10.51366407
_cell_angle_alpha   90.00000000
_cell_angle_beta   90.00000000
_cell_angle_gamma   90.00000000
_symmetry_Int_Tables_number   1
_chemical_formula_structural   Cr4Fe10Ni13
_chemical_formula_sum   'Cr8 Fe20 Ni26'
_cell_volume   581.07513674
_cell_formula_units_Z   2
loop_
 _symmetry_equiv_pos_site_id
 _symmetry_equiv_pos_as_xyz
  1  'x, y, z'
loop_
 _atom_site_type_symbol
 _atom_site_label
 _atom_site_symmetry_multiplicity
 _atom_site_fract_x
 _atom_site_fract_y
 _atom_site_fract_z
 _atom_site_occupancy
  Fe  Fe0  1  0.00444910  1.00206551  0.99972203  1
  Fe  Fe1  1  0.17106908  0.16992844  0.16833843  1
  Fe  Fe2  1  0.00402255  1.00096020  0.33621290  1
  Fe  Fe3  1  0.00568266  0.33662595  1.00124581  1
  Ni  Ni4  1  0.17013540  0.50226867  0.16918129  1
  Fe  Fe5  1  0.00275408  0.33853007  0.33572329  1
  Fe  Fe6  1  0.00429942  0.66791838  1.00144884  1
  Fe  Fe7  1  0.16961008  0.83440856  0.16888557  1
  Ni  Ni8  1  0.00373923  0.66754946  0.33515689  1
  Ni  Ni9  1  0.33435325  0.00268077  1.00202443  1
  Ni  Ni10  1  0.50062083  0.17030073  0.17061906  1
  Fe  Fe11  1  0.33591823  1.00200710  0.33629937  1
  Ni  Ni12  1  0.33514216  0.33523515  0.00299962  1
  Ni  Ni13  1  0.49985178  0.50085703  0.16965327  1
  Fe  Fe14  1  0.33588601  0.33619152  0.33397010  1
  Ni  Ni15  1  0.33399756  0.66869438  1.00161971  1
  Cr  Cr16  1  0.50158336  0.83488320  0.16885841  1
  Ni  Ni17  1  0.33310427  0.66939778  0.33524935  1
  Fe  Fe18  1  0.66686667  1.00202227  1.00024356  1
  Cr  Cr19  1  0.83494919  0.16813105  0.16974707  1
  Ni  Ni20  1  0.66664937  0.00421509  0.33582785  1
  Cr  Cr21  1  0.66772905  0.33631095  0.00230542  1
  Ni  Ni22  1  0.83663185  0.50271243  0.17084468  1
  Ni  Ni23  1  0.66850460  0.33559091  0.33422553  1
  Fe  Fe24  1  0.66755552  0.66849749  1.00140460  1
  Cr  Cr25  1  0.83645622  0.83532707  0.16923905  1
  Ni  Ni26  1  0.66976993  0.66680220  0.33475611  1
  Fe  Fe27  1  0.16921615  0.16786467  0.50218887  1
  Ni  Ni28  1  0.00377435  1.00152084  0.67053835  1
  Fe  Fe29  1  0.16830154  0.16788187  0.83608887  1
  Ni  Ni30  1  0.16826717  0.50407871  0.50170299  1
  Ni  Ni31  1  0.99967223  0.33647157  0.66969414  1
  Ni  Ni32  1  0.16993011  0.50380704  0.83572698  1
  Ni  Ni33  1  0.16990263  0.83447836  0.50182391  1
  Ni  Ni34  1  0.00313869  0.66862092  0.66937686  1
  Ni  Ni35  1  0.16794760  0.83444972  0.83529923  1
  Fe  Fe36  1  0.50129437  0.16658679  0.50140201  1
  Ni  Ni37  1  0.33515497  0.99996534  0.66825248  1
  Ni  Ni38  1  0.50367825  0.16841701  0.83506838  1
  Cr  Cr39  1  0.50114686  0.50279748  0.50107258  1
  Cr  Cr40  1  0.33542923  0.33463943  0.67037438  1
  Ni  Ni41  1  0.50036731  0.50263846  0.83618377  1
  Fe  Fe42  1  0.49977127  0.83639306  0.50162879  1
  Ni  Ni43  1  0.33377771  0.67217359  0.66973862  1
  Fe  Fe44  1  0.50133271  0.83551316  0.83574912  1
  Cr  Cr45  1  0.83496102  0.16910286  0.50247862  1
  Fe  Fe46  1  0.66814920  0.00276221  0.67045846  1
  Ni  Ni47  1  0.83521354  0.16644196  0.83434439  1
  Fe  Fe48  1  0.83779634  0.50252899  0.50162508  1
  Ni  Ni49  1  0.67123951  0.33509737  0.67015799  1
  Fe  Fe50  1  0.83631171  0.50255875  0.83452089  1
  Cr  Cr51  1  0.83628515  0.83568335  0.50181753  1
  Fe  Fe52  1  0.66922294  0.66865116  0.67027825  1
  Ni  Ni53  1  0.83638070  0.83775768  0.83560093  1
" 