1600,Ni48Fe15Cr36_18,-226.043811080548, 172.369834926844,Ni48Fe15Cr36,"# generated using pymatgen
 data_Cr10Fe4Ni13
_symmetry_space_group_name_H-M   'P 1'
_cell_length_a   7.48310817
_cell_length_b   7.48310817
_cell_length_c   10.58271307
_cell_angle_alpha   90.00000000
_cell_angle_beta   90.00000000
_cell_angle_gamma   90.00000000
_symmetry_Int_Tables_number   1
_chemical_formula_structural   Cr10Fe4Ni13
_chemical_formula_sum   'Cr20 Fe8 Ni26'
_cell_volume   592.59920916
_cell_formula_units_Z   2
loop_
 _symmetry_equiv_pos_site_id
 _symmetry_equiv_pos_as_xyz
  1  'x, y, z'
loop_
 _atom_site_type_symbol
 _atom_site_label
 _atom_site_symmetry_multiplicity
 _atom_site_fract_x
 _atom_site_fract_y
 _atom_site_fract_z
 _atom_site_occupancy
  Cr  Cr0  1  -0.00085409  0.00007798  0.99619244  1
  Cr  Cr1  1  0.16504256  0.16780062  0.16537500  1
  Ni  Ni2  1  0.99648832  0.99811254  0.33414111  1
  Ni  Ni3  1  0.99844512  0.33204860  -0.00086026  1
  Ni  Ni4  1  0.16703843  0.49929852  0.16624529  1
  Cr  Cr5  1  0.99859272  0.33343286  0.33301195  1
  Cr  Cr6  1  0.99766012  0.66436573  0.00065183  1
  Cr  Cr7  1  0.16626849  0.82942131  0.16687594  1
  Ni  Ni8  1  0.00084650  0.66575373  0.33202322  1
  Ni  Ni9  1  0.33418204  0.99699378  0.99665230  1
  Fe  Fe10  1  0.50039976  0.16476352  0.16706476  1
  Cr  Cr11  1  0.33296870  0.99784111  0.33264961  1
  Cr  Cr12  1  0.33132460  0.33070623  -0.00021340  1
  Fe  Fe13  1  0.49806627  0.50046177  0.16632932  1
  Ni  Ni14  1  0.33350856  0.33521720  0.33265754  1
  Ni  Ni15  1  0.33453133  0.66815426  -0.00082856  1
  Ni  Ni16  1  0.50066022  0.83061903  0.16400940  1
  Ni  Ni17  1  0.33101597  0.66355210  0.33378192  1
  Cr  Cr18  1  0.66332158  0.99720808  0.99882895  1
  Ni  Ni19  1  0.83032696  0.16561424  0.16739722  1
  Ni  Ni20  1  0.66714597  0.00057139  0.33042998  1
  Cr  Cr21  1  0.66752873  0.33221100  0.00037650  1
  Fe  Fe22  1  0.83274831  0.49947675  0.16538680  1
  Ni  Ni23  1  0.66503483  0.33078409  0.33170476  1
  Ni  Ni24  1  0.66399996  0.66748598  -0.00049086  1
  Ni  Ni25  1  0.82933850  0.83286731  0.16705509  1
  Cr  Cr26  1  0.66533483  0.66563679  0.33146579  1
  Ni  Ni27  1  0.16376815  0.16719790  0.49986964  1
  Ni  Ni28  1  0.00014187  -0.00064028  0.66627963  1
  Fe  Fe29  1  0.16570553  0.16380576  0.83191447  1
  Ni  Ni30  1  0.16874099  0.49942615  0.49760460  1
  Cr  Cr31  1  0.00024596  0.32964862  0.66484629  1
  Cr  Cr32  1  0.16726947  0.49821796  0.83346217  1
  Ni  Ni33  1  0.16605668  0.83015959  0.49804023  1
  Cr  Cr34  1  0.99869937  0.66770893  0.66430690  1
  Fe  Fe35  1  0.16691102  0.83431394  0.83227061  1
  Cr  Cr36  1  0.49985256  0.16702738  0.49630658  1
  Cr  Cr37  1  0.33033286  0.99876367  0.66713848  1
  Ni  Ni38  1  0.49767902  0.16346769  0.83315070  1
  Fe  Fe39  1  0.49653150  0.49994133  0.49885177  1
  Ni  Ni40  1  0.33143404  0.33250322  0.66467010  1
  Cr  Cr41  1  0.49773894  0.50121905  0.83049741  1
  Ni  Ni42  1  0.49771344  0.82858253  0.49931878  1
  Fe  Fe43  1  0.33358931  0.66593694  0.66370243  1
  Ni  Ni44  1  0.49897857  0.83195420  0.83347935  1
  Ni  Ni45  1  0.83386325  0.16534447  0.49732643  1
  Cr  Cr46  1  0.66632864  0.99724373  0.66750109  1
  Ni  Ni47  1  0.83380417  0.16319423  0.83206974  1
  Fe  Fe48  1  0.83229535  0.49856740  0.49830005  1
  Cr  Cr49  1  0.66489943  0.33319847  0.66465905  1
  Cr  Cr50  1  0.83175510  0.49967431  0.83347181  1
  Cr  Cr51  1  0.83260564  0.83454941  0.49774214  1
  Ni  Ni52  1  0.66360831  0.66650219  0.66577962  1
  Ni  Ni53  1  0.83053700  0.83406609  0.83157776  1
" 