8936,Ni48Fe38Cr12_9,-235.559024123925, 207.901461461716,Ni48Fe38Cr12,"# generated using pymatgen
 data_Cr4Fe10Ni13
_symmetry_space_group_name_H-M   'P 1'
_cell_length_a   7.42771868
_cell_length_b   7.42771868
_cell_length_c   10.50438050
_cell_angle_alpha   90.00000000
_cell_angle_beta   90.00000000
_cell_angle_gamma   90.00000000
_symmetry_Int_Tables_number   1
_chemical_formula_structural   Cr4Fe10Ni13
_chemical_formula_sum   'Cr8 Fe20 Ni26'
_cell_volume   579.53722665
_cell_formula_units_Z   2
loop_
 _symmetry_equiv_pos_site_id
 _symmetry_equiv_pos_as_xyz
  1  'x, y, z'
loop_
 _atom_site_type_symbol
 _atom_site_label
 _atom_site_symmetry_multiplicity
 _atom_site_fract_x
 _atom_site_fract_y
 _atom_site_fract_z
 _atom_site_occupancy
  Cr  Cr0  1  1.00234607  1.00219937  0.00419929  1
  Cr  Cr1  1  0.16969031  0.17217711  0.16976568  1
  Ni  Ni2  1  1.00158860  0.00296507  0.33723458  1
  Ni  Ni3  1  0.00274093  0.33839781  0.00295139  1
  Ni  Ni4  1  0.16979198  0.50289983  0.16835074  1
  Ni  Ni5  1  1.00184087  0.33535835  0.33562450  1
  Ni  Ni6  1  1.00020678  0.66744965  0.00349989  1
  Fe  Fe7  1  0.17071426  0.83441639  0.16986129  1
  Cr  Cr8  1  1.00160978  0.66957607  0.33451132  1
  Fe  Fe9  1  0.33703296  1.00125343  1.00238087  1
  Cr  Cr10  1  0.50348913  0.16979608  0.16907183  1
  Ni  Ni11  1  0.33708916  1.00114584  0.33675417  1
  Ni  Ni12  1  0.33642127  0.33796827  1.00170861  1
  Ni  Ni13  1  0.50206845  0.50388302  0.17068522  1
  Ni  Ni14  1  0.33692967  0.33734620  0.33752656  1
  Fe  Fe15  1  0.33635724  0.66656246  0.00479663  1
  Ni  Ni16  1  0.50361285  0.83433110  0.16856959  1
  Ni  Ni17  1  0.33910406  0.66942368  0.33532718  1
  Fe  Fe18  1  0.67013492  1.00073043  0.00315092  1
  Ni  Ni19  1  0.83547141  0.17025738  0.17084234  1
  Fe  Fe20  1  0.66941171  1.00105996  0.33768874  1
  Ni  Ni21  1  0.66888321  0.34011666  0.00427774  1
  Ni  Ni22  1  0.83600922  0.50233686  0.16829789  1
  Fe  Fe23  1  0.66948393  0.33697655  0.33570890  1
  Ni  Ni24  1  0.66871060  0.66902031  0.00311315  1
  Ni  Ni25  1  0.83384208  0.83521544  0.16944638  1
  Fe  Fe26  1  0.66767050  0.67018572  0.33569495  1
  Fe  Fe27  1  0.17071699  0.16938725  0.50146416  1
  Cr  Cr28  1  0.00282137  0.00325113  0.66688758  1
  Ni  Ni29  1  0.17145250  0.17257272  0.83494856  1
  Fe  Fe30  1  0.17005089  0.50291463  0.50172817  1
  Ni  Ni31  1  0.00423593  0.33858705  0.66892300  1
  Fe  Fe32  1  0.16764662  0.50131346  0.83670857  1
  Fe  Fe33  1  0.17177337  0.83567743  0.50226616  1
  Ni  Ni34  1  1.00047850  0.66614763  0.66885338  1
  Cr  Cr35  1  0.16905833  0.83295266  0.83548313  1
  Ni  Ni36  1  0.50184910  0.16965701  0.50304315  1
  Ni  Ni37  1  0.33846129  0.00374793  0.66849672  1
  Cr  Cr38  1  0.50208035  0.16976715  0.83679250  1
  Fe  Fe39  1  0.50370237  0.50414491  0.50169551  1
  Fe  Fe40  1  0.33563491  0.33701255  0.66808817  1
  Fe  Fe41  1  0.50324413  0.50488155  0.83707161  1
  Ni  Ni42  1  0.50347900  0.83642306  0.50399095  1
  Fe  Fe43  1  0.33637060  0.66923490  0.66714340  1
  Fe  Fe44  1  0.50402788  0.83487720  0.83542862  1
  Fe  Fe45  1  0.83353227  0.16940083  0.50162583  1
  Ni  Ni46  1  0.66682941  1.00041004  0.66882228  1
  Cr  Cr47  1  0.83552855  0.17031255  0.83614406  1
  Fe  Fe48  1  0.83434943  0.50218595  0.50319212  1
  Fe  Fe49  1  0.66964113  0.33658616  0.66787166  1
  Fe  Fe50  1  0.83650370  0.50381309  0.83680128  1
  Ni  Ni51  1  0.83475497  0.83435094  0.50372562  1
  Ni  Ni52  1  0.66850747  0.66889548  0.66966754  1
  Ni  Ni53  1  0.83397891  0.83140763  0.83505789  1
" 