1780,Ni48Fe47Cr4_16,-239.38290784023, 222.789786196727,Ni48Fe47Cr4,"# generated using pymatgen
 data_Cr3Fe25Ni26
_symmetry_space_group_name_H-M   'P 1'
_cell_length_a   7.41153908
_cell_length_b   7.41153908
_cell_length_c   10.48149909
_cell_angle_alpha   90.00000000
_cell_angle_beta   90.00000000
_cell_angle_gamma   90.00000000
_symmetry_Int_Tables_number   1
_chemical_formula_structural   Cr3Fe25Ni26
_chemical_formula_sum   'Cr3 Fe25 Ni26'
_cell_volume   575.75829914
_cell_formula_units_Z   1
loop_
 _symmetry_equiv_pos_site_id
 _symmetry_equiv_pos_as_xyz
  1  'x, y, z'
loop_
 _atom_site_type_symbol
 _atom_site_label
 _atom_site_symmetry_multiplicity
 _atom_site_fract_x
 _atom_site_fract_y
 _atom_site_fract_z
 _atom_site_occupancy
  Ni  Ni0  1  0.00473355  0.00475172  0.00385564  1
  Ni  Ni1  1  0.16840118  0.16922356  0.17008412  1
  Fe  Fe2  1  0.00463844  1.00287299  0.33637026  1
  Fe  Fe3  1  1.00321680  0.33783762  1.00337654  1
  Fe  Fe4  1  0.17066086  0.50358146  0.17210480  1
  Fe  Fe5  1  0.00504746  0.33823910  0.33862958  1
  Fe  Fe6  1  1.00337382  0.67120307  0.00407300  1
  Ni  Ni7  1  0.16922514  0.83728752  0.17063223  1
  Ni  Ni8  1  1.00306458  0.66997638  0.33623532  1
  Fe  Fe9  1  0.33619152  1.00215253  1.00338895  1
  Cr  Cr10  1  0.50400066  0.17231040  0.17032526  1
  Ni  Ni11  1  0.33548639  1.00357321  0.33672552  1
  Fe  Fe12  1  0.33567275  0.33884521  0.00501030  1
  Ni  Ni13  1  0.50372482  0.50530355  0.17110015  1
  Ni  Ni14  1  0.33643414  0.33693207  0.33845370  1
  Ni  Ni15  1  0.33660818  0.67170055  0.00629554  1
  Fe  Fe16  1  0.50388041  0.83669977  0.17060699  1
  Ni  Ni17  1  0.33736641  0.67075036  0.33681274  1
  Fe  Fe18  1  0.67237093  1.00205044  1.00337745  1
  Ni  Ni19  1  0.83897467  0.16944519  0.17121964  1
  Fe  Fe20  1  0.67074103  1.00151505  0.33763239  1
  Ni  Ni21  1  0.67275779  0.33764819  0.00476632  1
  Fe  Fe22  1  0.83723194  0.50373276  0.17116426  1
  Fe  Fe23  1  0.67062730  0.33948332  0.33807093  1
  Ni  Ni24  1  0.67028260  0.66890351  0.00496664  1
  Ni  Ni25  1  0.83824120  0.83747296  0.16953705  1
  Ni  Ni26  1  0.67085101  0.66934129  0.33651642  1
  Ni  Ni27  1  0.16810635  0.17010733  0.50314922  1
  Ni  Ni28  1  1.00313220  0.00390189  0.66928171  1
  Fe  Fe29  1  0.16946736  0.17040421  0.83767088  1
  Ni  Ni30  1  0.17055765  0.50427842  0.50475638  1
  Ni  Ni31  1  1.00131473  0.33659502  0.67082578  1
  Fe  Fe32  1  0.16989766  0.50630312  0.83599745  1
  Fe  Fe33  1  0.16800840  0.83487181  0.50259160  1
  Ni  Ni34  1  0.00403811  0.67060987  0.67122756  1
  Ni  Ni35  1  0.16934268  0.83675862  0.83735270  1
  Fe  Fe36  1  0.50421270  0.17306678  0.50222786  1
  Cr  Cr37  1  0.33646915  1.00277140  0.67004494  1
  Fe  Fe38  1  0.50504799  0.16929211  0.83844651  1
  Ni  Ni39  1  0.50372522  0.50523727  0.50456554  1
  Fe  Fe40  1  0.33422793  0.33787271  0.66799577  1
  Cr  Cr41  1  0.50366508  0.50403487  0.83477746  1
  Fe  Fe42  1  0.50427594  0.83574639  0.50276178  1
  Ni  Ni43  1  0.33646251  0.67177212  0.66840149  1
  Ni  Ni44  1  0.50377255  0.83592872  0.83877810  1
  Ni  Ni45  1  0.83827908  0.16929498  0.50288930  1
  Fe  Fe46  1  0.67281060  1.00304368  0.67052080  1
  Fe  Fe47  1  0.83675292  0.16957164  0.83702116  1
  Ni  Ni48  1  0.83684902  0.50366386  0.50424788  1
  Ni  Ni49  1  0.67171747  0.33580597  0.66879664  1
  Fe  Fe50  1  0.83796714  0.50483902  0.83644192  1
  Fe  Fe51  1  0.83879188  0.83522047  0.50265750  1
  Fe  Fe52  1  0.67202169  0.67168240  0.66932492  1
  Fe  Fe53  1  0.83749624  0.83670736  0.83813122  1
" 