130,Ni48Fe15Cr36_0,-225.999958281168, 168.994080704964,Ni48Fe15Cr36,"# generated using pymatgen
 data_Cr10Fe4Ni13
_symmetry_space_group_name_H-M   'P 1'
_cell_length_a   7.48145740
_cell_length_b   7.48145740
_cell_length_c   10.58037852
_cell_angle_alpha   90.00000000
_cell_angle_beta   90.00000000
_cell_angle_gamma   90.00000000
_symmetry_Int_Tables_number   1
_chemical_formula_structural   Cr10Fe4Ni13
_chemical_formula_sum   'Cr20 Fe8 Ni26'
_cell_volume   592.20711313
_cell_formula_units_Z   2
loop_
 _symmetry_equiv_pos_site_id
 _symmetry_equiv_pos_as_xyz
  1  'x, y, z'
loop_
 _atom_site_type_symbol
 _atom_site_label
 _atom_site_symmetry_multiplicity
 _atom_site_fract_x
 _atom_site_fract_y
 _atom_site_fract_z
 _atom_site_occupancy
  Cr  Cr0  1  0.99756062  0.99841286  0.00223504  1
  Fe  Fe1  1  0.16789508  0.16572701  0.16737299  1
  Fe  Fe2  1  0.99531960  0.00118854  0.33229419  1
  Cr  Cr3  1  -0.00040969  0.33228383  0.00003715  1
  Ni  Ni4  1  0.16780517  0.49981039  0.16564486  1
  Cr  Cr5  1  0.99817971  0.33097715  0.33190171  1
  Ni  Ni6  1  0.00232808  0.66618811  0.00075916  1
  Cr  Cr7  1  0.16496531  0.83135751  0.16782369  1
  Fe  Fe8  1  0.99740197  0.66423094  0.33182622  1
  Ni  Ni9  1  0.33457349  0.99837798  0.00015377  1
  Ni  Ni10  1  0.49861637  0.16419090  0.16631242  1
  Ni  Ni11  1  0.33141044  0.00053063  0.33000733  1
  Ni  Ni12  1  0.33095156  0.33048610  0.00238222  1
  Cr  Cr13  1  0.49855710  0.49590053  0.16653603  1
  Ni  Ni14  1  0.33135284  0.33033647  0.33266373  1
  Fe  Fe15  1  0.33157621  0.66636933  -0.00063514  1
  Ni  Ni16  1  0.49874056  0.83561738  0.16670052  1
  Fe  Fe17  1  0.33465068  0.66336244  0.33214172  1
  Ni  Ni18  1  0.66345921  -0.00027777  0.00247612  1
  Ni  Ni19  1  0.82718840  0.16368999  0.16581656  1
  Fe  Fe20  1  0.66582558  0.00158013  0.33093606  1
  Ni  Ni21  1  0.66456630  0.32790016  0.00160993  1
  Cr  Cr22  1  0.83265143  0.50029454  0.16359753  1
  Ni  Ni23  1  0.66548599  0.33387082  0.33273262  1
  Cr  Cr24  1  0.66712349  0.67055847  -0.00034637  1
  Ni  Ni25  1  0.83145383  0.83498099  0.16961208  1
  Ni  Ni26  1  0.66718676  0.66827702  0.33359973  1
  Ni  Ni27  1  0.16290390  0.16535100  0.49717300  1
  Ni  Ni28  1  0.99719569  0.00069865  0.66321731  1
  Cr  Cr29  1  0.16396323  0.16451317  0.83128744  1
  Fe  Fe30  1  0.16408663  0.49790249  0.49597877  1
  Ni  Ni31  1  0.99855178  0.33026347  0.66404842  1
  Ni  Ni32  1  0.16664322  0.50124788  0.83472833  1
  Cr  Cr33  1  0.16301164  0.83493190  0.49577260  1
  Cr  Cr34  1  0.99873301  0.66354282  0.66467524  1
  Ni  Ni35  1  0.16658127  0.83070244  0.83470013  1
  Cr  Cr36  1  0.49901952  0.16686558  0.49694150  1
  Cr  Cr37  1  0.33205494  0.99793596  0.66769541  1
  Cr  Cr38  1  0.50264372  0.16518512  0.83429023  1
  Ni  Ni39  1  0.50079492  0.49990529  0.49503496  1
  Cr  Cr40  1  0.32807394  0.33392161  0.66094118  1
  Cr  Cr41  1  0.49887499  0.49715837  0.83494173  1
  Cr  Cr42  1  0.50054823  0.83232742  0.49779381  1
  Cr  Cr43  1  0.33536348  0.66541472  0.66690364  1
  Fe  Fe44  1  0.49995161  0.83359679  0.83368536  1
  Ni  Ni45  1  0.83438020  0.16525464  0.50076738  1
  Ni  Ni46  1  0.66994376  0.99634555  0.66471657  1
  Ni  Ni47  1  0.83114897  0.16335825  0.83100030  1
  Ni  Ni48  1  0.83056883  0.49995216  0.49803286  1
  Cr  Cr49  1  0.66851586  0.33387612  0.66284431  1
  Cr  Cr50  1  0.83328207  0.49605579  0.83431368  1
  Ni  Ni51  1  0.83283487  0.83261496  0.49673402  1
  Ni  Ni52  1  0.66676276  0.66802172  0.66303939  1
  Cr  Cr53  1  0.83514708  0.83482987  0.83054675  1
" 