7480,Ni48Fe15Cr36_19,-226.317047205955, 176.241386547484,Ni48Fe15Cr36,"# generated using pymatgen
 data_Cr10Fe4Ni13
_symmetry_space_group_name_H-M   'P 1'
_cell_length_a   7.47666381
_cell_length_b   7.47666381
_cell_length_c   10.57359936
_cell_angle_alpha   90.00000000
_cell_angle_beta   90.00000000
_cell_angle_gamma   90.00000000
_symmetry_Int_Tables_number   1
_chemical_formula_structural   Cr10Fe4Ni13
_chemical_formula_sum   'Cr20 Fe8 Ni26'
_cell_volume   591.06950863
_cell_formula_units_Z   2
loop_
 _symmetry_equiv_pos_site_id
 _symmetry_equiv_pos_as_xyz
  1  'x, y, z'
loop_
 _atom_site_type_symbol
 _atom_site_label
 _atom_site_symmetry_multiplicity
 _atom_site_fract_x
 _atom_site_fract_y
 _atom_site_fract_z
 _atom_site_occupancy
  Cr  Cr0  1  0.99877823  0.99812297  0.99594453  1
  Cr  Cr1  1  0.16493593  0.16559122  0.16257241  1
  Ni  Ni2  1  0.99627285  0.99798703  0.33357303  1
  Fe  Fe3  1  0.99804787  0.33324082  0.99670030  1
  Cr  Cr4  1  0.16658127  0.49888229  0.16552264  1
  Cr  Cr5  1  0.99670572  0.33466680  0.33431081  1
  Cr  Cr6  1  0.99727366  0.66593982  0.99860232  1
  Cr  Cr7  1  0.16841603  0.83384258  0.16642338  1
  Cr  Cr8  1  0.00041149  0.66591954  0.33442796  1
  Ni  Ni9  1  0.33357567  0.00052689  0.99665112  1
  Ni  Ni10  1  0.50162019  0.16585040  0.16351717  1
  Cr  Cr11  1  0.33391419  0.99888568  0.33473847  1
  Ni  Ni12  1  0.33636635  0.33132027  0.99645451  1
  Cr  Cr13  1  0.50083502  0.50037572  0.16313880  1
  Cr  Cr14  1  0.33641636  0.33453761  0.33515030  1
  Ni  Ni15  1  0.33384562  0.66630715  -0.00031886  1
  Ni  Ni16  1  0.49972864  0.83294570  0.16408485  1
  Ni  Ni17  1  0.33291848  0.66814426  0.33447858  1
  Cr  Cr18  1  0.66529263  0.99921579  -0.00057794  1
  Fe  Fe19  1  0.83119663  0.16794118  0.16542178  1
  Cr  Cr20  1  0.66571750  0.00157160  0.33293790  1
  Ni  Ni21  1  0.66580807  0.33304789  0.99874985  1
  Ni  Ni22  1  0.82982006  0.49611326  0.16268552  1
  Ni  Ni23  1  0.66778679  0.33169470  0.33232942  1
  Ni  Ni24  1  0.66618589  0.66370468  0.99748497  1
  Fe  Fe25  1  0.83031171  0.83090458  0.16647089  1
  Cr  Cr26  1  0.66648886  0.66458000  0.33352468  1
  Cr  Cr27  1  0.16418674  0.16584416  0.50380606  1
  Cr  Cr28  1  0.99822732  0.99806794  0.66849914  1
  Fe  Fe29  1  0.17002751  0.16641214  0.83122079  1
  Ni  Ni30  1  0.16497335  0.50320062  0.50219287  1
  Ni  Ni31  1  0.99839039  0.33563870  0.66730103  1
  Cr  Cr32  1  0.16801218  0.50050466  0.83216070  1
  Ni  Ni33  1  0.16563881  0.83112925  0.50065809  1
  Ni  Ni34  1  0.99933103  0.66529330  0.66526607  1
  Ni  Ni35  1  0.16676471  0.83224066  0.83176098  1
  Ni  Ni36  1  0.50118455  0.16568815  0.50090540  1
  Ni  Ni37  1  0.33344938  0.99890773  0.66696817  1
  Ni  Ni38  1  0.50061234  0.16750628  0.83347469  1
  Cr  Cr39  1  0.49949007  0.49974512  0.50139948  1
  Ni  Ni40  1  0.33315912  0.33349255  0.66731038  1
  Ni  Ni41  1  0.50026422  0.49849386  0.83441230  1
  Fe  Fe42  1  0.49847259  0.83208616  0.50144153  1
  Ni  Ni43  1  0.32976906  0.66607076  0.66437776  1
  Cr  Cr44  1  0.49669325  0.82942733  0.83161940  1
  Ni  Ni45  1  0.83176723  0.16655574  0.49723556  1
  Cr  Cr46  1  0.66512688  0.00050831  0.66464255  1
  Ni  Ni47  1  0.83336061  0.16936883  0.83421630  1
  Ni  Ni48  1  0.83342861  0.49915360  0.50293654  1
  Cr  Cr49  1  0.66548194  0.33138243  0.66634636  1
  Fe  Fe50  1  0.83032199  0.49935424  0.83200730  1
  Ni  Ni51  1  0.83452315  0.83214008  0.50083874  1
  Fe  Fe52  1  0.66655782  0.66503254  0.66688899  1
  Fe  Fe53  1  0.83080712  0.83016808  0.83038705  1
" 