1664,Ni48Fe15Cr36_5,-225.657848863891, 166.14276244822,Ni48Fe15Cr36,"# generated using pymatgen
 data_Cr10Fe4Ni13
_symmetry_space_group_name_H-M   'P 1'
_cell_length_a   7.47914513
_cell_length_b   7.47914513
_cell_length_c   10.57710848
_cell_angle_alpha   90.00000000
_cell_angle_beta   90.00000000
_cell_angle_gamma   90.00000000
_symmetry_Int_Tables_number   1
_chemical_formula_structural   Cr10Fe4Ni13
_chemical_formula_sum   'Cr20 Fe8 Ni26'
_cell_volume   591.65818872
_cell_formula_units_Z   2
loop_
 _symmetry_equiv_pos_site_id
 _symmetry_equiv_pos_as_xyz
  1  'x, y, z'
loop_
 _atom_site_type_symbol
 _atom_site_label
 _atom_site_symmetry_multiplicity
 _atom_site_fract_x
 _atom_site_fract_y
 _atom_site_fract_z
 _atom_site_occupancy
  Cr  Cr0  1  0.99758089  0.00099831  -0.00074706  1
  Cr  Cr1  1  0.16445156  0.16683274  0.16678712  1
  Ni  Ni2  1  0.99905868  -0.00061639  0.33263111  1
  Fe  Fe3  1  0.99724672  0.33383262  0.99854226  1
  Ni  Ni4  1  0.16437801  0.49769500  0.16577186  1
  Ni  Ni5  1  0.99764017  0.33281630  0.33079451  1
  Cr  Cr6  1  0.99897738  0.66264213  -0.00052507  1
  Ni  Ni7  1  0.16534780  0.83177629  0.16874109  1
  Cr  Cr8  1  -0.00069752  0.66591868  0.33299812  1
  Cr  Cr9  1  0.33452500  0.00056047  -0.00051117  1
  Ni  Ni10  1  0.50176895  0.16727145  0.16510236  1
  Cr  Cr11  1  0.33346875  0.99664103  0.33412800  1
  Fe  Fe12  1  0.33409793  0.33218993  -0.00066810  1
  Fe  Fe13  1  0.50020977  0.49910170  0.16529531  1
  Cr  Cr14  1  0.33391591  0.33357557  0.33221264  1
  Cr  Cr15  1  0.33199031  0.66360336  0.00382983  1
  Ni  Ni16  1  0.50147657  0.83327374  0.16428657  1
  Ni  Ni17  1  0.33273800  0.66658486  0.32998049  1
  Ni  Ni18  1  0.66536703  0.00269196  0.00040732  1
  Fe  Fe19  1  0.83155134  0.16622077  0.16650838  1
  Cr  Cr20  1  0.66520306  0.99894414  0.33184147  1
  Ni  Ni21  1  0.66683604  0.33169497  0.00064147  1
  Ni  Ni22  1  0.83184650  0.49703928  0.16569567  1
  Fe  Fe23  1  0.66758037  0.33356702  0.33059414  1
  Ni  Ni24  1  0.66710890  0.66360673  0.00138974  1
  Ni  Ni25  1  0.83091667  0.83243740  0.16489021  1
  Cr  Cr26  1  0.66472058  0.66552538  0.33182956  1
  Ni  Ni27  1  0.16666512  0.16449314  0.49906187  1
  Cr  Cr28  1  0.00094156  -0.00028673  0.66490019  1
  Ni  Ni29  1  0.16866760  0.16961251  0.83259560  1
  Cr  Cr30  1  0.16530229  0.49860592  0.49965831  1
  Cr  Cr31  1  0.99791948  0.33397898  0.66829368  1
  Ni  Ni32  1  0.16536120  0.49547910  0.83222823  1
  Ni  Ni33  1  0.16698415  0.83375112  0.49940155  1
  Ni  Ni34  1  0.99867295  0.66364190  0.66485242  1
  Cr  Cr35  1  0.16684528  0.83182700  0.82987610  1
  Fe  Fe36  1  0.49802541  0.16566878  0.50070213  1
  Ni  Ni37  1  0.33288149  0.00137726  0.66399751  1
  Ni  Ni38  1  0.49862118  0.16845678  0.83156934  1
  Cr  Cr39  1  0.50090257  0.49947303  0.50034044  1
  Fe  Fe40  1  0.33295826  0.33116510  0.66640456  1
  Cr  Cr41  1  0.50060214  0.49892261  0.83231243  1
  Ni  Ni42  1  0.49782594  0.83117538  0.50141582  1
  Ni  Ni43  1  0.33149114  0.66689482  0.66463886  1
  Cr  Cr44  1  0.50099201  0.83250185  0.83268759  1
  Cr  Cr45  1  0.83400952  0.16840900  0.49523455  1
  Cr  Cr46  1  0.66360122  0.00144875  0.66536544  1
  Fe  Fe47  1  0.83005512  0.16893002  0.83389736  1
  Ni  Ni48  1  0.83122831  0.49923860  0.50036606  1
  Ni  Ni49  1  0.66534554  0.33354575  0.66518587  1
  Ni  Ni50  1  0.83141927  0.49761651  0.83172825  1
  Ni  Ni51  1  0.83267344  0.83087319  0.50040138  1
  Ni  Ni52  1  0.66735161  0.66333109  0.66457705  1
  Cr  Cr53  1  0.82967835  0.82977063  0.83218707  1
" 