2324,Ni48Fe52_11,-241.489592497051, 222.385805288167,Ni48Fe52,"# generated using pymatgen
 data_Fe25Ni29
_symmetry_space_group_name_H-M   'P 1'
_cell_length_a   7.40001246
_cell_length_b   7.40001246
_cell_length_c   10.46519798
_cell_angle_alpha   90.00000000
_cell_angle_beta   90.00000000
_cell_angle_gamma   90.00000000
_symmetry_Int_Tables_number   1
_chemical_formula_structural   Fe25Ni29
_chemical_formula_sum   'Fe25 Ni29'
_cell_volume   573.07617145
_cell_formula_units_Z   1
loop_
 _symmetry_equiv_pos_site_id
 _symmetry_equiv_pos_as_xyz
  1  'x, y, z'
loop_
 _atom_site_type_symbol
 _atom_site_label
 _atom_site_symmetry_multiplicity
 _atom_site_fract_x
 _atom_site_fract_y
 _atom_site_fract_z
 _atom_site_occupancy
  Ni  Ni0  1  0.00577057  1.00423763  1.00425986  1
  Ni  Ni1  1  0.17261296  0.17156771  0.17064700  1
  Ni  Ni2  1  0.00454898  1.00402407  0.33848742  1
  Fe  Fe3  1  0.00474645  0.33786166  0.00487126  1
  Ni  Ni4  1  0.17030262  0.50362031  0.17054793  1
  Fe  Fe5  1  1.00406831  0.33854883  0.33815219  1
  Fe  Fe6  1  1.00401304  0.67064802  0.00472095  1
  Fe  Fe7  1  0.17098211  0.83815071  0.17117876  1
  Ni  Ni8  1  0.00535221  0.67233670  0.33793608  1
  Ni  Ni9  1  0.33616959  0.00540099  0.00470937  1
  Ni  Ni10  1  0.50302010  0.16960787  0.17129680  1
  Fe  Fe11  1  0.33848546  1.00412885  0.33689592  1
  Ni  Ni12  1  0.33919218  0.33715911  1.00391336  1
  Fe  Fe13  1  0.50487873  0.50452776  0.17111935  1
  Fe  Fe14  1  0.33763667  0.33820788  0.33739005  1
  Fe  Fe15  1  0.33849517  0.67106072  1.00451557  1
  Ni  Ni16  1  0.50570264  0.83919054  0.17050055  1
  Ni  Ni17  1  0.33705057  0.67082243  0.33738466  1
  Fe  Fe18  1  0.67015002  0.00485958  0.00527150  1
  Fe  Fe19  1  0.83773104  0.17091320  0.17187627  1
  Ni  Ni20  1  0.67234702  0.00586850  0.33733762  1
  Ni  Ni21  1  0.67014006  0.33877843  0.00471128  1
  Ni  Ni22  1  0.83874544  0.50630349  0.17165169  1
  Ni  Ni23  1  0.67083272  0.33758371  0.33768832  1
  Ni  Ni24  1  0.67130322  0.66950928  1.00406218  1
  Ni  Ni25  1  0.83678429  0.83687953  0.17075070  1
  Ni  Ni26  1  0.67118379  0.67013779  0.33928470  1
  Ni  Ni27  1  0.17130459  0.17126795  0.50499461  1
  Fe  Fe28  1  1.00439283  1.00431952  0.67064350  1
  Fe  Fe29  1  0.17182363  0.17163980  0.83864169  1
  Ni  Ni30  1  0.17140769  0.50401525  0.50534475  1
  Fe  Fe31  1  1.00451512  0.33897210  0.67056533  1
  Fe  Fe32  1  0.17195561  0.50448682  0.83750659  1
  Fe  Fe33  1  0.17009160  0.83675558  0.50476907  1
  Ni  Ni34  1  0.00568122  0.67174300  0.67094340  1
  Fe  Fe35  1  0.17166985  0.83746335  0.83764108  1
  Fe  Fe36  1  0.50578631  0.17237932  0.50454462  1
  Fe  Fe37  1  0.33786425  1.00452875  0.67197038  1
  Ni  Ni38  1  0.50345295  0.17100936  0.83759125  1
  Ni  Ni39  1  0.50433213  0.50516765  0.50424820  1
  Fe  Fe40  1  0.33787813  0.33889725  0.67153854  1
  Ni  Ni41  1  0.50497102  0.50407544  0.83884184  1
  Fe  Fe42  1  0.50472270  0.83702334  0.50370874  1
  Ni  Ni43  1  0.33663025  0.67103450  0.67183904  1
  Fe  Fe44  1  0.50456947  0.83717708  0.83847756  1
  Ni  Ni45  1  0.83864648  0.17011429  0.50434730  1
  Fe  Fe46  1  0.67132879  1.00413547  0.67051071  1
  Fe  Fe47  1  0.83667660  0.17230665  0.83737520  1
  Ni  Ni48  1  0.83784722  0.50586223  0.50469827  1
  Ni  Ni49  1  0.67093255  0.33748008  0.67119009  1
  Ni  Ni50  1  0.83762156  0.50559076  0.83724053  1
  Ni  Ni51  1  0.83748890  0.83761184  0.50489439  1
  Fe  Fe52  1  0.67140267  0.67028628  0.67128560  1
  Fe  Fe53  1  0.83734722  0.83730831  0.83807367  1
" 