7931,Ni48Fe52_15,-241.610012915645, 224.534629023558,Ni48Fe52,"# generated using pymatgen
 data_Fe25Ni29
_symmetry_space_group_name_H-M   'P 1'
_cell_length_a   7.39679462
_cell_length_b   7.39679462
_cell_length_c   10.46064727
_cell_angle_alpha   90.00000000
_cell_angle_beta   90.00000000
_cell_angle_gamma   90.00000000
_symmetry_Int_Tables_number   1
_chemical_formula_structural   Fe25Ni29
_chemical_formula_sum   'Fe25 Ni29'
_cell_volume   572.32890217
_cell_formula_units_Z   1
loop_
 _symmetry_equiv_pos_site_id
 _symmetry_equiv_pos_as_xyz
  1  'x, y, z'
loop_
 _atom_site_type_symbol
 _atom_site_label
 _atom_site_symmetry_multiplicity
 _atom_site_fract_x
 _atom_site_fract_y
 _atom_site_fract_z
 _atom_site_occupancy
  Ni  Ni0  1  1.00393397  1.00443665  0.00511004  1
  Ni  Ni1  1  0.17216726  0.17126030  0.17175845  1
  Fe  Fe2  1  0.00487265  0.00519618  0.33790306  1
  Ni  Ni3  1  0.00502848  0.33767937  1.00416541  1
  Fe  Fe4  1  0.17026203  0.50429547  0.17231942  1
  Ni  Ni5  1  1.00465111  0.33823085  0.33901625  1
  Ni  Ni6  1  1.00426194  0.67212741  0.00491734  1
  Ni  Ni7  1  0.17109976  0.83781074  0.17156714  1
  Ni  Ni8  1  0.00540598  0.67195277  0.33759596  1
  Fe  Fe9  1  0.33790052  1.00443042  0.00494328  1
  Ni  Ni10  1  0.50409159  0.17200616  0.17183389  1
  Fe  Fe11  1  0.33751893  0.00531188  0.33736129  1
  Fe  Fe12  1  0.33782778  0.33743613  0.00479552  1
  Fe  Fe13  1  0.50506446  0.50436934  0.17245603  1
  Ni  Ni14  1  0.33891039  0.33823522  0.33797344  1
  Fe  Fe15  1  0.33770514  0.67238143  0.00512287  1
  Fe  Fe16  1  0.50524922  0.83879730  0.17070947  1
  Ni  Ni17  1  0.33749944  0.67128625  0.33814773  1
  Ni  Ni18  1  0.67154608  1.00435451  1.00425707  1
  Ni  Ni19  1  0.83798969  0.17167966  0.17090043  1
  Fe  Fe20  1  0.67185876  0.00531801  0.33758010  1
  Fe  Fe21  1  0.67308182  0.33777789  1.00467616  1
  Ni  Ni22  1  0.83832006  0.50517219  0.17251356  1
  Ni  Ni23  1  0.67068347  0.33713671  0.33741121  1
  Ni  Ni24  1  0.67155946  0.67255326  0.00482549  1
  Ni  Ni25  1  0.83906366  0.83739369  0.17091109  1
  Fe  Fe26  1  0.67158822  0.67013842  0.33771745  1
  Fe  Fe27  1  0.17110169  0.17211787  0.50445523  1
  Ni  Ni28  1  1.00432626  1.00323763  0.67174776  1
  Fe  Fe29  1  0.17079646  0.17096809  0.83844875  1
  Ni  Ni30  1  0.17292077  0.50482374  0.50425208  1
  Fe  Fe31  1  1.00450847  0.33800722  0.67147770  1
  Fe  Fe32  1  0.17079454  0.50475149  0.83748668  1
  Fe  Fe33  1  0.17063824  0.83724006  0.50437290  1
  Ni  Ni34  1  1.00466684  0.67308845  0.67172978  1
  Fe  Fe35  1  0.17033691  0.83852684  0.83838961  1
  Fe  Fe36  1  0.50514263  0.17264269  0.50481592  1
  Fe  Fe37  1  0.33807096  0.00513609  0.67194212  1
  Ni  Ni38  1  0.50455570  0.17107666  0.83750307  1
  Ni  Ni39  1  0.50283632  0.50449401  0.50514272  1
  Ni  Ni40  1  0.33991512  0.33792298  0.67102999  1
  Fe  Fe41  1  0.50615109  0.50456009  0.83723688  1
  Fe  Fe42  1  0.50487824  0.83743237  0.50499879  1
  Fe  Fe43  1  0.33788068  0.67083740  0.67063788  1
  Ni  Ni44  1  0.50455512  0.83849601  0.83790433  1
  Ni  Ni45  1  0.83815331  0.17073340  0.50468043  1
  Fe  Fe46  1  0.67212769  0.00513551  0.67217918  1
  Ni  Ni47  1  0.83777100  0.17149509  0.83866922  1
  Fe  Fe48  1  0.83819660  0.50462662  0.50456085  1
  Ni  Ni49  1  0.66966916  0.33758956  0.67201198  1
  Ni  Ni50  1  0.83886638  0.50500470  0.83681927  1
  Ni  Ni51  1  0.83848578  0.83868706  0.50489951  1
  Fe  Fe52  1  0.67185731  0.67129251  0.67211799  1
  Ni  Ni53  1  0.83809442  0.83774720  0.83843979  1
" 