3148,Ni48Fe52_3,-241.711935659014, 226.002414655442,Ni48Fe52,"# generated using pymatgen
 data_Fe25Ni29
_symmetry_space_group_name_H-M   'P 1'
_cell_length_a   7.39963948
_cell_length_b   7.39963948
_cell_length_c   10.46467051
_cell_angle_alpha   90.00000000
_cell_angle_beta   90.00000000
_cell_angle_gamma   90.00000000
_symmetry_Int_Tables_number   1
_chemical_formula_structural   Fe25Ni29
_chemical_formula_sum   'Fe25 Ni29'
_cell_volume   572.98952155
_cell_formula_units_Z   1
loop_
 _symmetry_equiv_pos_site_id
 _symmetry_equiv_pos_as_xyz
  1  'x, y, z'
loop_
 _atom_site_type_symbol
 _atom_site_label
 _atom_site_symmetry_multiplicity
 _atom_site_fract_x
 _atom_site_fract_y
 _atom_site_fract_z
 _atom_site_occupancy
  Fe  Fe0  1  0.00497659  1.00436106  0.00477267  1
  Ni  Ni1  1  0.17078831  0.17107445  0.17164065  1
  Ni  Ni2  1  0.00590957  0.00537495  0.33802581  1
  Ni  Ni3  1  1.00369431  0.33736031  0.00512020  1
  Fe  Fe4  1  0.17147324  0.50397519  0.17168667  1
  Ni  Ni5  1  1.00413879  0.33696464  0.33788494  1
  Fe  Fe6  1  0.00455650  0.67121857  1.00370659  1
  Ni  Ni7  1  0.17156166  0.83801487  0.17188228  1
  Fe  Fe8  1  0.00470043  0.67089758  0.33860987  1
  Ni  Ni9  1  0.33761624  1.00329792  0.00517153  1
  Ni  Ni10  1  0.50515443  0.17141484  0.17173755  1
  Fe  Fe11  1  0.33736507  0.00525326  0.33761751  1
  Fe  Fe12  1  0.33868013  0.33780759  1.00428641  1
  Fe  Fe13  1  0.50457242  0.50424487  0.17044378  1
  Fe  Fe14  1  0.33710600  0.33717996  0.33810273  1
  Ni  Ni15  1  0.33905167  0.67301324  1.00412046  1
  Ni  Ni16  1  0.50437737  0.83768215  0.17036184  1
  Fe  Fe17  1  0.33723988  0.67122934  0.33763659  1
  Fe  Fe18  1  0.67054891  0.00475793  1.00451683  1
  Ni  Ni19  1  0.83772288  0.17251731  0.17064650  1
  Fe  Fe20  1  0.67174603  0.00547590  0.33793979  1
  Ni  Ni21  1  0.67234908  0.33879787  1.00435737  1
  Fe  Fe22  1  0.83761945  0.50341809  0.17064429  1
  Ni  Ni23  1  0.67170959  0.33840179  0.33808025  1
  Ni  Ni24  1  0.66981668  0.67046969  0.00507334  1
  Fe  Fe25  1  0.83781878  0.83926552  0.17091247  1
  Fe  Fe26  1  0.67172476  0.67115444  0.33795853  1
  Ni  Ni27  1  0.17052968  0.17139835  0.50413565  1
  Ni  Ni28  1  0.00582613  0.00507335  0.67132377  1
  Ni  Ni29  1  0.17175218  0.17044180  0.83788835  1
  Ni  Ni30  1  0.17019631  0.50428026  0.50513277  1
  Ni  Ni31  1  0.00482425  0.33799394  0.67065737  1
  Fe  Fe32  1  0.17074938  0.50448101  0.83743737  1
  Ni  Ni33  1  0.17129611  0.83798522  0.50465635  1
  Ni  Ni34  1  1.00438169  0.67059704  0.67113507  1
  Ni  Ni35  1  0.17021338  0.83858029  0.83712374  1
  Fe  Fe36  1  0.50345049  0.17062259  0.50475425  1
  Ni  Ni37  1  0.33781327  1.00407630  0.67060774  1
  Ni  Ni38  1  0.50418838  0.17230631  0.83779231  1
  Fe  Fe39  1  0.50357932  0.50509600  0.50479386  1
  Fe  Fe40  1  0.33735807  0.33721523  0.67127680  1
  Ni  Ni41  1  0.50640147  0.50388225  0.83764670  1
  Ni  Ni42  1  0.50484501  0.83764937  0.50541529  1
  Fe  Fe43  1  0.33723675  0.67220149  0.67111897  1
  Fe  Fe44  1  0.50462174  0.83781986  0.83788658  1
  Fe  Fe45  1  0.83913803  0.17083956  0.50374925  1
  Ni  Ni46  1  0.67002505  1.00363404  0.67132286  1
  Fe  Fe47  1  0.83809268  0.17156377  0.83813776  1
  Fe  Fe48  1  0.83893384  0.50480468  0.50506375  1
  Fe  Fe49  1  0.67173645  0.33763504  0.67181532  1
  Ni  Ni50  1  0.83662441  0.50541585  0.83755306  1
  Fe  Fe51  1  0.83885199  0.83801927  0.50567786  1
  Ni  Ni52  1  0.67079153  0.67135943  0.67103654  1
  Ni  Ni53  1  0.83848424  0.83636493  0.83788380  1
" 