4401,Ni48Fe47Cr4_15,-238.78031965284, 216.681301488566,Ni48Fe47Cr4,"# generated using pymatgen
 data_Cr3Fe25Ni26
_symmetry_space_group_name_H-M   'P 1'
_cell_length_a   7.41077129
_cell_length_b   7.41077129
_cell_length_c   10.48041327
_cell_angle_alpha   90.00000000
_cell_angle_beta   90.00000000
_cell_angle_gamma   90.00000000
_symmetry_Int_Tables_number   1
_chemical_formula_structural   Cr3Fe25Ni26
_chemical_formula_sum   'Cr3 Fe25 Ni26'
_cell_volume   575.57938333
_cell_formula_units_Z   1
loop_
 _symmetry_equiv_pos_site_id
 _symmetry_equiv_pos_as_xyz
  1  'x, y, z'
loop_
 _atom_site_type_symbol
 _atom_site_label
 _atom_site_symmetry_multiplicity
 _atom_site_fract_x
 _atom_site_fract_y
 _atom_site_fract_z
 _atom_site_occupancy
  Ni  Ni0  1  1.00320925  1.00234604  1.00255253  1
  Cr  Cr1  1  0.17088151  0.17136101  0.17061195  1
  Fe  Fe2  1  1.00203594  1.00275036  0.33747731  1
  Fe  Fe3  1  1.00366316  0.33687115  1.00327915  1
  Ni  Ni4  1  0.17060250  0.50404634  0.17123939  1
  Ni  Ni5  1  1.00331375  0.33786785  0.33699480  1
  Ni  Ni6  1  0.00426186  0.66998020  0.00461119  1
  Fe  Fe7  1  0.17031809  0.83540061  0.17025633  1
  Fe  Fe8  1  0.00398142  0.67131062  0.33609590  1
  Ni  Ni9  1  0.33816971  1.00340438  1.00247009  1
  Fe  Fe10  1  0.50546756  0.16990951  0.17116525  1
  Ni  Ni11  1  0.33852036  1.00239934  0.33778146  1
  Fe  Fe12  1  0.33689607  0.33756096  1.00221221  1
  Fe  Fe13  1  0.50393463  0.50419066  0.17066382  1
  Fe  Fe14  1  0.33861746  0.33802439  0.33820641  1
  Fe  Fe15  1  0.33668859  0.67113902  0.00404174  1
  Fe  Fe16  1  0.50339184  0.83729303  0.17093368  1
  Ni  Ni17  1  0.33657131  0.67094766  0.33737450  1
  Ni  Ni18  1  0.67001151  0.00446429  0.00394991  1
  Fe  Fe19  1  0.83589561  0.17055556  0.17025220  1
  Ni  Ni20  1  0.66987333  0.00420700  0.33702403  1
  Fe  Fe21  1  0.67083422  0.33611026  1.00344636  1
  Fe  Fe22  1  0.83778730  0.50390074  0.17124301  1
  Ni  Ni23  1  0.67085878  0.33591663  0.33634256  1
  Fe  Fe24  1  0.67081559  0.67237340  1.00336296  1
  Ni  Ni25  1  0.83595513  0.83690658  0.17132000  1
  Ni  Ni26  1  0.66969591  0.67126613  0.33638004  1
  Fe  Fe27  1  0.17115084  0.16955670  0.50407199  1
  Fe  Fe28  1  0.00473252  0.00388266  0.67128328  1
  Ni  Ni29  1  0.16994614  0.17157061  0.83668841  1
  Fe  Fe30  1  0.17218324  0.50427132  0.50364352  1
  Fe  Fe31  1  0.00474579  0.33641391  0.67130936  1
  Ni  Ni32  1  0.17114987  0.50203713  0.83701440  1
  Fe  Fe33  1  0.17118824  0.83756258  0.50373663  1
  Ni  Ni34  1  0.00420218  0.67056027  0.67118837  1
  Fe  Fe35  1  0.17025849  0.83744174  0.83740007  1
  Ni  Ni36  1  0.50182597  0.17054988  0.50283202  1
  Ni  Ni37  1  0.33582980  0.00469584  0.67113853  1
  Fe  Fe38  1  0.50276277  0.17112130  0.83731800  1
  Fe  Fe39  1  0.50338914  0.50417794  0.50425726  1
  Ni  Ni40  1  0.33712871  0.33663489  0.66991642  1
  Ni  Ni41  1  0.50310245  0.50461988  0.83601040  1
  Ni  Ni42  1  0.50400420  0.83719875  0.50240846  1
  Fe  Fe43  1  0.33816227  0.66993687  0.67040735  1
  Ni  Ni44  1  0.50445643  0.83573672  0.83793291  1
  Fe  Fe45  1  0.83663289  0.16948428  0.50287234  1
  Cr  Cr46  1  0.66942811  0.00385676  0.67047758  1
  Ni  Ni47  1  0.83918535  0.17021813  0.83775959  1
  Cr  Cr48  1  0.83656071  0.50513084  0.50441657  1
  Ni  Ni49  1  0.66930256  0.33818987  0.67148720  1
  Fe  Fe50  1  0.83705175  0.50414684  0.83639260  1
  Ni  Ni51  1  0.83671345  0.83732273  0.50276855  1
  Ni  Ni52  1  0.67108593  0.66926891  0.67170984  1
  Ni  Ni53  1  0.83660187  0.83694298  0.83730363  1
" 