289,Ni48Fe15Cr36_11,-225.827739147019, 167.887682414321,Ni48Fe15Cr36,"# generated using pymatgen
 data_Cr10Fe4Ni13
_symmetry_space_group_name_H-M   'P 1'
_cell_length_a   7.47940592
_cell_length_b   7.47940592
_cell_length_c   10.57747729
_cell_angle_alpha   90.00000000
_cell_angle_beta   90.00000000
_cell_angle_gamma   90.00000000
_symmetry_Int_Tables_number   1
_chemical_formula_structural   Cr10Fe4Ni13
_chemical_formula_sum   'Cr20 Fe8 Ni26'
_cell_volume   591.72008298
_cell_formula_units_Z   2
loop_
 _symmetry_equiv_pos_site_id
 _symmetry_equiv_pos_as_xyz
  1  'x, y, z'
loop_
 _atom_site_type_symbol
 _atom_site_label
 _atom_site_symmetry_multiplicity
 _atom_site_fract_x
 _atom_site_fract_y
 _atom_site_fract_z
 _atom_site_occupancy
  Ni  Ni0  1  0.99608538  0.00110183  0.99647773  1
  Cr  Cr1  1  0.16043932  0.16526489  0.16723920  1
  Ni  Ni2  1  0.99836341  0.99870141  0.33238690  1
  Ni  Ni3  1  0.99667911  0.33131364  0.99771746  1
  Cr  Cr4  1  0.16434387  0.49930520  0.16602161  1
  Ni  Ni5  1  0.99417173  0.33170533  0.33222031  1
  Cr  Cr6  1  -0.00068025  0.66757153  0.99839211  1
  Ni  Ni7  1  0.16527401  0.83210938  0.16671042  1
  Ni  Ni8  1  0.99820096  0.66669640  0.33370275  1
  Cr  Cr9  1  0.33225273  -0.00043941  0.00285589  1
  Ni  Ni10  1  0.50303463  0.16493661  0.16583195  1
  Ni  Ni11  1  0.33249121  0.99694031  0.32978445  1
  Ni  Ni12  1  0.33213979  0.33226293  0.99503008  1
  Cr  Cr13  1  0.49951683  0.49849609  0.16303002  1
  Cr  Cr14  1  0.33260661  0.32838978  0.33409855  1
  Ni  Ni15  1  0.33334165  0.66544083  0.99879066  1
  Ni  Ni16  1  0.49940423  0.83349185  0.16555546  1
  Ni  Ni17  1  0.33040895  0.67059079  0.32920126  1
  Ni  Ni18  1  0.66717064  0.00031666  0.99891443  1
  Ni  Ni19  1  0.83140218  0.16621167  0.16370948  1
  Ni  Ni20  1  0.66680625  0.00046641  0.33070365  1
  Fe  Fe21  1  0.66598806  0.32988290  0.99841790  1
  Fe  Fe22  1  0.83348259  0.49673692  0.16558771  1
  Ni  Ni23  1  0.67119035  0.33015071  0.33019774  1
  Fe  Fe24  1  0.66655664  0.66740103  0.99805853  1
  Cr  Cr25  1  0.83405378  0.83663505  0.16562334  1
  Cr  Cr26  1  0.66802696  0.66700175  0.33208662  1
  Ni  Ni27  1  0.16329448  0.16298047  0.49801436  1
  Fe  Fe28  1  -0.00042103  0.99900435  0.66811827  1
  Ni  Ni29  1  0.16367199  0.16515216  0.83329935  1
  Cr  Cr30  1  0.16377176  0.49886668  0.49641796  1
  Cr  Cr31  1  0.99852810  0.33383998  0.66684130  1
  Fe  Fe32  1  0.16555020  0.49810921  0.83584273  1
  Cr  Cr33  1  0.16409185  0.83511520  0.49873982  1
  Fe  Fe34  1  0.99766818  0.66762234  0.66699033  1
  Fe  Fe35  1  0.16551440  0.83491093  0.83395069  1
  Cr  Cr36  1  0.49929854  0.16266896  0.49927838  1
  Ni  Ni37  1  0.33083352  0.00023400  0.66771598  1
  Ni  Ni38  1  0.49787527  0.16621767  0.83324139  1
  Cr  Cr39  1  0.50058010  0.49893294  0.49775541  1
  Cr  Cr40  1  0.33049533  0.32956061  0.66821808  1
  Ni  Ni41  1  0.50052344  0.49750628  0.83629405  1
  Cr  Cr42  1  0.50077269  0.83522911  0.49796253  1
  Cr  Cr43  1  0.33052046  0.66563042  0.66882986  1
  Cr  Cr44  1  0.50235799  0.83367922  0.83356137  1
  Cr  Cr45  1  0.83369729  0.16255445  0.49813378  1
  Ni  Ni46  1  0.66768306  0.99840916  0.66779076  1
  Fe  Fe47  1  0.83015107  0.16495343  0.83497810  1
  Ni  Ni48  1  0.83571092  0.50037062  0.49584916  1
  Cr  Cr49  1  0.66765700  0.33224322  0.66723150  1
  Ni  Ni50  1  0.83256197  0.50063386  0.83553219  1
  Ni  Ni51  1  0.83505733  0.83316639  0.50053003  1
  Cr  Cr52  1  0.67000418  0.66549108  0.66499534  1
  Ni  Ni53  1  0.83518585  0.83362242  0.83092868  1
" 