2786,Ni48Fe38Cr12_14,-235.430411933271, 208.838563828177,Ni48Fe38Cr12,"# generated using pymatgen
 data_Cr4Fe10Ni13
_symmetry_space_group_name_H-M   'P 1'
_cell_length_a   7.42457974
_cell_length_b   7.42457974
_cell_length_c   10.49994137
_cell_angle_alpha   90.00000000
_cell_angle_beta   90.00000000
_cell_angle_gamma   90.00000000
_symmetry_Int_Tables_number   1
_chemical_formula_structural   Cr4Fe10Ni13
_chemical_formula_sum   'Cr8 Fe20 Ni26'
_cell_volume   578.80280361
_cell_formula_units_Z   2
loop_
 _symmetry_equiv_pos_site_id
 _symmetry_equiv_pos_as_xyz
  1  'x, y, z'
loop_
 _atom_site_type_symbol
 _atom_site_label
 _atom_site_symmetry_multiplicity
 _atom_site_fract_x
 _atom_site_fract_y
 _atom_site_fract_z
 _atom_site_occupancy
  Ni  Ni0  1  1.00264291  1.00104062  0.00409487  1
  Ni  Ni1  1  0.17091930  0.16829936  0.17065243  1
  Fe  Fe2  1  0.00494689  0.00579940  0.33451566  1
  Cr  Cr3  1  0.00441643  0.33629986  0.00350102  1
  Ni  Ni4  1  0.16985704  0.50223067  0.16878616  1
  Ni  Ni5  1  1.00175121  0.33651363  0.33662993  1
  Fe  Fe6  1  1.00240155  0.67156290  0.00384500  1
  Ni  Ni7  1  0.16837086  0.83805482  0.16872650  1
  Cr  Cr8  1  0.00380126  0.66717290  0.33473155  1
  Fe  Fe9  1  0.33645692  0.00350500  0.00318764  1
  Ni  Ni10  1  0.50035994  0.16899594  0.16943414  1
  Ni  Ni11  1  0.33573320  1.00196455  0.33571194  1
  Ni  Ni12  1  0.33501302  0.33604791  1.00225376  1
  Cr  Cr13  1  0.50236753  0.50217398  0.17089618  1
  Fe  Fe14  1  0.33442448  0.33428753  0.33560882  1
  Ni  Ni15  1  0.33559119  0.67058646  1.00224686  1
  Fe  Fe16  1  0.50169714  0.83677933  0.16910357  1
  Fe  Fe17  1  0.33579553  0.67079458  0.33588070  1
  Ni  Ni18  1  0.66962330  1.00045692  1.00240888  1
  Fe  Fe19  1  0.83769588  0.16897860  0.17088398  1
  Cr  Cr20  1  0.66731197  0.00388338  0.33562870  1
  Cr  Cr21  1  0.66916074  0.33512135  1.00198513  1
  Ni  Ni22  1  0.83627368  0.50510523  0.17087619  1
  Ni  Ni23  1  0.67248458  0.33604111  0.33637365  1
  Ni  Ni24  1  0.66970297  0.67271472  0.00324980  1
  Ni  Ni25  1  0.83697327  0.83597171  0.16759436  1
  Fe  Fe26  1  0.66933936  0.66835370  0.33567324  1
  Fe  Fe27  1  0.16917203  0.17013432  0.50323590  1
  Fe  Fe28  1  0.00358604  0.00435237  0.67105533  1
  Ni  Ni29  1  0.17128476  0.16932670  0.83528865  1
  Ni  Ni30  1  0.16941101  0.50095742  0.50405429  1
  Ni  Ni31  1  0.00408705  0.33695133  0.66856591  1
  Fe  Fe32  1  0.17127952  0.50249113  0.83538212  1
  Fe  Fe33  1  0.17196183  0.83673106  0.50302604  1
  Fe  Fe34  1  0.00360771  0.66793212  0.66970949  1
  Fe  Fe35  1  0.17008674  0.83699298  0.83680986  1
  Fe  Fe36  1  0.50169864  0.16826092  0.50273064  1
  Ni  Ni37  1  0.33632566  1.00229459  0.66934849  1
  Ni  Ni38  1  0.50003713  0.16971754  0.83580861  1
  Cr  Cr39  1  0.50200420  0.50343248  0.50116107  1
  Ni  Ni40  1  0.33313264  0.33463359  0.67004907  1
  Ni  Ni41  1  0.50111383  0.50325609  0.83626193  1
  Ni  Ni42  1  0.50131030  0.83650220  0.50382090  1
  Fe  Fe43  1  0.33581930  0.66939039  0.67022672  1
  Fe  Fe44  1  0.50327323  0.83625776  0.83571247  1
  Ni  Ni45  1  0.83851971  0.17046053  0.50292466  1
  Fe  Fe46  1  0.66834893  1.00258836  0.67044152  1
  Fe  Fe47  1  0.83679536  0.16706185  0.83513549  1
  Ni  Ni48  1  0.83749674  0.50126582  0.50293553  1
  Cr  Cr49  1  0.67117902  0.33593924  0.67045477  1
  Fe  Fe50  1  0.83605805  0.50481272  0.83507799  1
  Cr  Cr51  1  0.83560878  0.83669284  0.50442451  1
  Ni  Ni52  1  0.67002594  0.67118862  0.67007811  1
  Ni  Ni53  1  0.83610100  0.83607624  0.83623661  1
" 