6101,Ni48Fe38Cr12_6,-235.197437855857, 206.552300665455,Ni48Fe38Cr12,"# generated using pymatgen
 data_Cr4Fe10Ni13
_symmetry_space_group_name_H-M   'P 1'
_cell_length_a   7.42717429
_cell_length_b   7.42717429
_cell_length_c   10.50361061
_cell_angle_alpha   90.00000000
_cell_angle_beta   90.00000000
_cell_angle_gamma   90.00000000
_symmetry_Int_Tables_number   1
_chemical_formula_structural   Cr4Fe10Ni13
_chemical_formula_sum   'Cr8 Fe20 Ni26'
_cell_volume   579.40980954
_cell_formula_units_Z   2
loop_
 _symmetry_equiv_pos_site_id
 _symmetry_equiv_pos_as_xyz
  1  'x, y, z'
loop_
 _atom_site_type_symbol
 _atom_site_label
 _atom_site_symmetry_multiplicity
 _atom_site_fract_x
 _atom_site_fract_y
 _atom_site_fract_z
 _atom_site_occupancy
  Fe  Fe0  1  1.00212401  1.00236149  0.00311489  1
  Fe  Fe1  1  0.16612938  0.16926820  0.17225675  1
  Ni  Ni2  1  1.00262466  0.00285727  0.33514105  1
  Ni  Ni3  1  1.00202913  0.33402306  0.00416774  1
  Fe  Fe4  1  0.16587240  0.50225167  0.16955992  1
  Fe  Fe5  1  1.00241788  0.33657831  0.33630857  1
  Ni  Ni6  1  1.00124231  0.67031749  0.00419978  1
  Ni  Ni7  1  0.16894067  0.83646574  0.16942572  1
  Fe  Fe8  1  1.00152710  0.66914083  0.33574390  1
  Cr  Cr9  1  0.33498588  1.00241764  1.00229199  1
  Fe  Fe10  1  0.50356964  0.16967844  0.17228134  1
  Ni  Ni11  1  0.33475322  0.00367052  0.33589807  1
  Cr  Cr12  1  0.33548461  0.33406582  0.00357949  1
  Fe  Fe13  1  0.50546852  0.50253970  0.17023656  1
  Ni  Ni14  1  0.33623937  0.33464702  0.33705532  1
  Fe  Fe15  1  0.33556755  0.67127791  0.00389996  1
  Fe  Fe16  1  0.50487990  0.83533728  0.17006193  1
  Cr  Cr17  1  0.33718883  0.66857721  0.33531462  1
  Cr  Cr18  1  0.67014358  1.00155523  1.00245580  1
  Ni  Ni19  1  0.83601059  0.17070873  0.17079368  1
  Fe  Fe20  1  0.66844331  0.00325813  0.33566949  1
  Fe  Fe21  1  0.67169678  0.33524299  0.00427241  1
  Ni  Ni22  1  0.83541395  0.50201740  0.16903091  1
  Ni  Ni23  1  0.66937596  0.33729104  0.33547303  1
  Ni  Ni24  1  0.67006988  0.67033427  0.00371264  1
  Fe  Fe25  1  0.83789926  0.83485986  0.17024511  1
  Ni  Ni26  1  0.67122704  0.66869528  0.33654908  1
  Ni  Ni27  1  0.17070418  0.16686282  0.50123364  1
  Ni  Ni28  1  0.00329734  1.00163182  0.67168306  1
  Fe  Fe29  1  0.16800967  0.16723616  0.83463046  1
  Ni  Ni30  1  0.16936566  0.50332306  0.50134719  1
  Cr  Cr31  1  1.00168686  0.33425807  0.66692172  1
  Cr  Cr32  1  0.16846088  0.50646525  0.83541133  1
  Fe  Fe33  1  0.16902675  0.83739229  0.50299825  1
  Ni  Ni34  1  1.00250915  0.67262885  0.66669286  1
  Ni  Ni35  1  0.16829298  0.83664446  0.83532650  1
  Ni  Ni36  1  0.50291142  0.16863142  0.50189824  1
  Fe  Fe37  1  0.33620551  1.00235173  0.66869149  1
  Ni  Ni38  1  0.50405342  0.16831533  0.83349924  1
  Ni  Ni39  1  0.50406433  0.50109726  0.50342082  1
  Fe  Fe40  1  0.33663348  0.33595434  0.66611487  1
  Cr  Cr41  1  0.50395826  0.50314775  0.83563016  1
  Fe  Fe42  1  0.50282467  0.83579949  0.50327785  1
  Ni  Ni43  1  0.33663839  0.67143569  0.66891519  1
  Ni  Ni44  1  0.50202300  0.83656238  0.83488534  1
  Fe  Fe45  1  0.83535262  0.16989718  0.50144015  1
  Fe  Fe46  1  0.67067543  1.00191367  0.67027167  1
  Ni  Ni47  1  0.83523130  0.16766959  0.83661890  1
  Ni  Ni48  1  0.83453208  0.50430526  0.50166298  1
  Ni  Ni49  1  0.66817225  0.33452820  0.66916685  1
  Cr  Cr50  1  0.83577062  0.50350859  0.83647990  1
  Fe  Fe51  1  0.83651527  0.83675913  0.50311676  1
  Ni  Ni52  1  0.66897035  0.67052857  0.66846159  1
  Ni  Ni53  1  0.83774017  0.83666455  0.83641467  1
" 