5875,Ni48Fe47Cr4_6,-238.616827884423, 218.458258992545,Ni48Fe47Cr4,"# generated using pymatgen
 data_Cr3Fe25Ni26
_symmetry_space_group_name_H-M   'P 1'
_cell_length_a   7.40584462
_cell_length_b   7.40584462
_cell_length_c   10.47344590
_cell_angle_alpha   90.00000000
_cell_angle_beta   90.00000000
_cell_angle_gamma   90.00000000
_symmetry_Int_Tables_number   1
_chemical_formula_structural   Cr3Fe25Ni26
_chemical_formula_sum   'Cr3 Fe25 Ni26'
_cell_volume   574.43221182
_cell_formula_units_Z   1
loop_
 _symmetry_equiv_pos_site_id
 _symmetry_equiv_pos_as_xyz
  1  'x, y, z'
loop_
 _atom_site_type_symbol
 _atom_site_label
 _atom_site_symmetry_multiplicity
 _atom_site_fract_x
 _atom_site_fract_y
 _atom_site_fract_z
 _atom_site_occupancy
  Ni  Ni0  1  1.00104655  0.00443050  0.00447362  1
  Fe  Fe1  1  0.16986401  0.16995315  0.17036674  1
  Ni  Ni2  1  1.00279971  0.00513806  0.33791601  1
  Ni  Ni3  1  1.00361202  0.33635234  0.00691935  1
  Fe  Fe4  1  0.17236285  0.50308301  0.17237348  1
  Fe  Fe5  1  0.00505732  0.33871838  0.33726495  1
  Fe  Fe6  1  1.00403835  0.67010525  0.00507452  1
  Ni  Ni7  1  0.17055800  0.83811754  0.17072338  1
  Ni  Ni8  1  0.00541862  0.67342033  0.33638420  1
  Ni  Ni9  1  0.33685186  0.00454317  0.00587541  1
  Ni  Ni10  1  0.50280269  0.16993118  0.16998002  1
  Fe  Fe11  1  0.33592873  0.00473946  0.33640536  1
  Ni  Ni12  1  0.33879406  0.33627447  0.00516424  1
  Fe  Fe13  1  0.50644809  0.50333455  0.17323674  1
  Ni  Ni14  1  0.33943613  0.33701948  0.33755915  1
  Cr  Cr15  1  0.34093391  0.66961639  1.00360476  1
  Ni  Ni16  1  0.50258202  0.83894210  0.17324828  1
  Ni  Ni17  1  0.33873992  0.67027461  0.33800012  1
  Fe  Fe18  1  0.66849116  0.00475862  0.00490600  1
  Ni  Ni19  1  0.83683650  0.17354757  0.17091102  1
  Fe  Fe20  1  0.66934800  0.00474271  0.33787204  1
  Fe  Fe21  1  0.67085009  0.33797053  0.00544467  1
  Ni  Ni22  1  0.83963629  0.50471638  0.17197657  1
  Ni  Ni23  1  0.67000646  0.33644896  0.33834024  1
  Ni  Ni24  1  0.67225901  0.67167573  0.00565973  1
  Fe  Fe25  1  0.83662218  0.83969607  0.17200533  1
  Fe  Fe26  1  0.67159249  0.66991798  0.33775677  1
  Fe  Fe27  1  0.17031939  0.17082471  0.50393615  1
  Fe  Fe28  1  1.00314538  1.00172571  0.66911139  1
  Cr  Cr29  1  0.17138777  0.17041989  0.83879532  1
  Fe  Fe30  1  0.17266788  0.50579849  0.50402845  1
  Ni  Ni31  1  1.00249110  0.33599771  0.66760520  1
  Fe  Fe32  1  0.17115052  0.50305095  0.83626631  1
  Fe  Fe33  1  0.17097720  0.83597108  0.50289299  1
  Ni  Ni34  1  0.00567094  0.66994386  0.67210639  1
  Fe  Fe35  1  0.16993931  0.83660457  0.83816992  1
  Ni  Ni36  1  0.50102668  0.17021954  0.50537526  1
  Fe  Fe37  1  0.33742926  1.00226775  0.67087261  1
  Ni  Ni38  1  0.50395030  0.16961593  0.83746504  1
  Ni  Ni39  1  0.50480339  0.50322417  0.50305097  1
  Fe  Fe40  1  0.33770334  0.33967124  0.66986246  1
  Fe  Fe41  1  0.50626465  0.50232393  0.83662545  1
  Ni  Ni42  1  0.50230160  0.83918207  0.50177183  1
  Ni  Ni43  1  0.33710356  0.67196281  0.67090728  1
  Ni  Ni44  1  0.50348655  0.83973388  0.83740038  1
  Fe  Fe45  1  0.83435904  0.16991075  0.50251685  1
  Fe  Fe46  1  0.67058899  0.00472985  0.66942230  1
  Fe  Fe47  1  0.83539298  0.17184724  0.83817270  1
  Ni  Ni48  1  0.84105011  0.50393153  0.50201278  1
  Fe  Fe49  1  0.67185833  0.33749859  0.66920615  1
  Ni  Ni50  1  0.84028524  0.50400375  0.83862485  1
  Ni  Ni51  1  0.83913355  0.83577526  0.50203968  1
  Cr  Cr52  1  0.66956833  0.67122748  0.66793943  1
  Fe  Fe53  1  0.83615959  0.83820070  0.83751111  1
" 