6463,Ni48Fe47Cr4_3,-238.839734323224, 219.847270660483,Ni48Fe47Cr4,"# generated using pymatgen
 data_Cr3Fe25Ni26
_symmetry_space_group_name_H-M   'P 1'
_cell_length_a   7.41008464
_cell_length_b   7.41008464
_cell_length_c   10.47944220
_cell_angle_alpha   90.00000000
_cell_angle_beta   90.00000000
_cell_angle_gamma   90.00000000
_symmetry_Int_Tables_number   1
_chemical_formula_structural   Cr3Fe25Ni26
_chemical_formula_sum   'Cr3 Fe25 Ni26'
_cell_volume   575.41940530
_cell_formula_units_Z   1
loop_
 _symmetry_equiv_pos_site_id
 _symmetry_equiv_pos_as_xyz
  1  'x, y, z'
loop_
 _atom_site_type_symbol
 _atom_site_label
 _atom_site_symmetry_multiplicity
 _atom_site_fract_x
 _atom_site_fract_y
 _atom_site_fract_z
 _atom_site_occupancy
  Fe  Fe0  1  1.00325499  0.00495422  1.00376698  1
  Ni  Ni1  1  0.16928200  0.17188477  0.17028773  1
  Fe  Fe2  1  1.00347956  0.00463996  0.33715696  1
  Fe  Fe3  1  1.00377369  0.33558988  0.00438637  1
  Ni  Ni4  1  0.17094994  0.50140910  0.17021015  1
  Fe  Fe5  1  0.00430764  0.33663704  0.33681349  1
  Cr  Cr6  1  0.00503217  0.67085905  0.00387915  1
  Fe  Fe7  1  0.16840091  0.83923542  0.16999065  1
  Ni  Ni8  1  1.00275721  0.67084783  0.33740573  1
  Ni  Ni9  1  0.33680703  0.00458249  1.00265298  1
  Fe  Fe10  1  0.50396891  0.17175787  0.17029147  1
  Ni  Ni11  1  0.33694010  0.00686325  0.33890201  1
  Fe  Fe12  1  0.33813837  0.33767005  1.00361379  1
  Fe  Fe13  1  0.50498341  0.50083991  0.16944276  1
  Ni  Ni14  1  0.33835165  0.33527371  0.33652533  1
  Ni  Ni15  1  0.33677959  0.66996595  1.00267191  1
  Cr  Cr16  1  0.50582398  0.83723285  0.16847239  1
  Cr  Cr17  1  0.33419176  0.66946516  0.33751439  1
  Ni  Ni18  1  0.67098025  0.00620285  1.00274414  1
  Ni  Ni19  1  0.83787365  0.16943998  0.16972652  1
  Ni  Ni20  1  0.67157289  0.00657049  0.33797709  1
  Ni  Ni21  1  0.67027928  0.33609818  0.00393502  1
  Fe  Fe22  1  0.83680469  0.50290193  0.17123865  1
  Ni  Ni23  1  0.67012972  0.33552290  0.33716222  1
  Ni  Ni24  1  0.67012954  0.66922186  1.00340254  1
  Ni  Ni25  1  0.83661916  0.83911622  0.17187366  1
  Fe  Fe26  1  0.67205435  0.67008629  0.33774400  1
  Fe  Fe27  1  0.17150169  0.17087725  0.50337608  1
  Ni  Ni28  1  1.00316040  1.00272932  0.67075516  1
  Fe  Fe29  1  0.17164088  0.17062695  0.83737229  1
  Ni  Ni30  1  0.17057251  0.50311063  0.50515572  1
  Fe  Fe31  1  0.00493682  0.33773391  0.67032646  1
  Ni  Ni32  1  0.17201897  0.50404019  0.83616041  1
  Fe  Fe33  1  0.16991850  0.83730253  0.50545223  1
  Ni  Ni34  1  0.00483423  0.67119382  0.67036167  1
  Ni  Ni35  1  0.17116298  0.83691145  0.83703461  1
  Fe  Fe36  1  0.50364813  0.17115974  0.50355207  1
  Fe  Fe37  1  0.33637809  1.00308952  0.67076438  1
  Ni  Ni38  1  0.50494995  0.17050120  0.83738844  1
  Ni  Ni39  1  0.50321986  0.50439407  0.50423330  1
  Ni  Ni40  1  0.33800645  0.33809192  0.67048249  1
  Ni  Ni41  1  0.50291949  0.50417483  0.83792946  1
  Ni  Ni42  1  0.50494148  0.83732087  0.50571192  1
  Ni  Ni43  1  0.33572359  0.66932979  0.67099232  1
  Fe  Fe44  1  0.50268750  0.83654911  0.83770448  1
  Ni  Ni45  1  0.83740066  0.16971433  0.50377237  1
  Fe  Fe46  1  0.67053210  1.00361065  0.67017152  1
  Fe  Fe47  1  0.83696567  0.17082147  0.83727887  1
  Fe  Fe48  1  0.83687224  0.50416809  0.50360659  1
  Fe  Fe49  1  0.67024358  0.33756329  0.67057548  1
  Fe  Fe50  1  0.83614310  0.50328882  0.83668546  1
  Fe  Fe51  1  0.83715284  0.83660324  0.50340225  1
  Fe  Fe52  1  0.66987052  0.67035751  0.67069419  1
  Fe  Fe53  1  0.83648632  0.83742129  0.83682671  1
" 