3489,Ni48Fe15Cr36_15,-225.818526082211, 170.203795565927,Ni48Fe15Cr36,"# generated using pymatgen
 data_Cr10Fe4Ni13
_symmetry_space_group_name_H-M   'P 1'
_cell_length_a   7.48075727
_cell_length_b   7.48075727
_cell_length_c   10.57938838
_cell_angle_alpha   90.00000000
_cell_angle_beta   90.00000000
_cell_angle_gamma   90.00000000
_symmetry_Int_Tables_number   1
_chemical_formula_structural   Cr10Fe4Ni13
_chemical_formula_sum   'Cr20 Fe8 Ni26'
_cell_volume   592.04086843
_cell_formula_units_Z   2
loop_
 _symmetry_equiv_pos_site_id
 _symmetry_equiv_pos_as_xyz
  1  'x, y, z'
loop_
 _atom_site_type_symbol
 _atom_site_label
 _atom_site_symmetry_multiplicity
 _atom_site_fract_x
 _atom_site_fract_y
 _atom_site_fract_z
 _atom_site_occupancy
  Cr  Cr0  1  0.99811669  -0.00035770  0.99850346  1
  Ni  Ni1  1  0.16553852  0.16500972  0.16904474  1
  Fe  Fe2  1  0.00123425  0.00231398  0.33350021  1
  Cr  Cr3  1  0.99692889  0.33301102  -0.00059288  1
  Cr  Cr4  1  0.16503520  0.49881413  0.16665921  1
  Ni  Ni5  1  0.99897466  0.33059593  0.33280989  1
  Ni  Ni6  1  0.99544636  0.66535384  0.99851950  1
  Cr  Cr7  1  0.16741825  0.83301344  0.16548340  1
  Cr  Cr8  1  -0.00051161  0.66374138  0.33390877  1
  Cr  Cr9  1  0.33371199  0.00031513  -0.00032039  1
  Ni  Ni10  1  0.49972017  0.16534139  0.16805951  1
  Ni  Ni11  1  0.33239838  0.00018026  0.33279792  1
  Cr  Cr12  1  0.33346497  0.33070139  0.99663415  1
  Cr  Cr13  1  0.50101156  0.49936174  0.16479637  1
  Ni  Ni14  1  0.33028250  0.32883909  0.33375089  1
  Ni  Ni15  1  0.33383895  0.66631494  -0.00050460  1
  Ni  Ni16  1  0.49892137  0.83259467  0.16586074  1
  Ni  Ni17  1  0.33160518  0.66820788  0.33391267  1
  Cr  Cr18  1  0.66538678  -0.00014104  0.00005204  1
  Fe  Fe19  1  0.83170768  0.16819773  0.16735918  1
  Cr  Cr20  1  0.66383546  -0.00026225  0.33183543  1
  Ni  Ni21  1  0.66696045  0.33346067  0.99811231  1
  Ni  Ni22  1  0.83094992  0.49769711  0.16514028  1
  Ni  Ni23  1  0.66800960  0.32976432  0.33198557  1
  Ni  Ni24  1  0.66798116  0.66465108  0.99858021  1
  Fe  Fe25  1  0.83133493  0.83111415  0.16393344  1
  Cr  Cr26  1  0.66597467  0.66662754  0.33286825  1
  Ni  Ni27  1  0.16417628  0.16558612  0.49766615  1
  Fe  Fe28  1  0.99840951  0.99866293  0.66535040  1
  Ni  Ni29  1  0.16570265  0.16611466  0.83055571  1
  Ni  Ni30  1  0.16555305  0.49862227  0.49783732  1
  Cr  Cr31  1  0.00073256  0.33298023  0.66574418  1
  Cr  Cr32  1  0.16583264  0.49970253  0.83308265  1
  Ni  Ni33  1  0.16568244  0.83305097  0.49842051  1
  Ni  Ni34  1  0.99582844  0.66676318  0.66472043  1
  Cr  Cr35  1  0.16276466  0.83239735  0.83289528  1
  Fe  Fe36  1  0.49641664  0.16581277  0.49735923  1
  Cr  Cr37  1  0.33208287  0.00246582  0.66511182  1
  Ni  Ni38  1  0.49984255  0.16901835  0.83178959  1
  Cr  Cr39  1  0.49855128  0.49878118  0.49864123  1
  Ni  Ni40  1  0.33113542  0.32995253  0.66615464  1
  Fe  Fe41  1  0.50208970  0.49783756  0.83316985  1
  Ni  Ni42  1  0.49799221  0.83192081  0.49764565  1
  Cr  Cr43  1  0.33167277  0.66457120  0.66392232  1
  Cr  Cr44  1  0.50106893  0.83003140  0.83388512  1
  Ni  Ni45  1  0.83451994  0.16582091  0.49692850  1
  Cr  Cr46  1  0.66653233  0.99806755  0.66538740  1
  Ni  Ni47  1  0.83167321  0.16635191  0.83335864  1
  Fe  Fe48  1  0.83460106  0.49874215  0.49905579  1
  Cr  Cr49  1  0.66533160  0.33243896  0.66716405  1
  Ni  Ni50  1  0.82982165  0.50112181  0.83303123  1
  Fe  Fe51  1  0.83450121  0.83247713  0.50150325  1
  Ni  Ni52  1  0.67006148  0.66694939  0.66612577  1
  Ni  Ni53  1  0.83266425  0.82981507  0.83132131  1
" 