7998,Ni48Fe38Cr12_19,-235.474348146069, 205.519318664277,Ni48Fe38Cr12,"# generated using pymatgen
 data_Cr4Fe10Ni13
_symmetry_space_group_name_H-M   'P 1'
_cell_length_a   7.42882090
_cell_length_b   7.42882090
_cell_length_c   10.50593927
_cell_angle_alpha   90.00000000
_cell_angle_beta   90.00000000
_cell_angle_gamma   90.00000000
_symmetry_Int_Tables_number   1
_chemical_formula_structural   Cr4Fe10Ni13
_chemical_formula_sum   'Cr8 Fe20 Ni26'
_cell_volume   579.79526175
_cell_formula_units_Z   2
loop_
 _symmetry_equiv_pos_site_id
 _symmetry_equiv_pos_as_xyz
  1  'x, y, z'
loop_
 _atom_site_type_symbol
 _atom_site_label
 _atom_site_symmetry_multiplicity
 _atom_site_fract_x
 _atom_site_fract_y
 _atom_site_fract_z
 _atom_site_occupancy
  Cr  Cr0  1  1.00099885  1.00237642  0.00378106  1
  Fe  Fe1  1  0.16925038  0.17014328  0.17028719  1
  Fe  Fe2  1  1.00052075  1.00179079  0.33614087  1
  Fe  Fe3  1  1.00093991  0.33849971  0.00261314  1
  Ni  Ni4  1  0.16972892  0.50349730  0.17018522  1
  Fe  Fe5  1  0.00415304  0.33655891  0.33678250  1
  Fe  Fe6  1  0.00396417  0.66709687  0.00354691  1
  Fe  Fe7  1  0.16992835  0.83394634  0.16951929  1
  Ni  Ni8  1  1.00171592  0.66957003  0.33526882  1
  Fe  Fe9  1  0.33961314  1.00065429  0.00338370  1
  Ni  Ni10  1  0.50405803  0.16840807  0.16804899  1
  Cr  Cr11  1  0.33584859  0.00362473  0.33515322  1
  Cr  Cr12  1  0.33678921  0.33638953  0.00302376  1
  Ni  Ni13  1  0.49988528  0.50349726  0.16996112  1
  Ni  Ni14  1  0.33437484  0.33728902  0.33634442  1
  Ni  Ni15  1  0.33578821  0.66925635  0.00257586  1
  Ni  Ni16  1  0.50305073  0.83581020  0.16910821  1
  Ni  Ni17  1  0.33564711  0.66706081  0.33607377  1
  Fe  Fe18  1  0.66740491  0.00367708  0.00295857  1
  Ni  Ni19  1  0.83524482  0.16810371  0.16887366  1
  Ni  Ni20  1  0.67143939  1.00067367  0.33533553  1
  Fe  Fe21  1  0.67003868  0.33406983  0.00282264  1
  Fe  Fe22  1  0.83635284  0.50295475  0.16993723  1
  Cr  Cr23  1  0.66841301  0.33653310  0.33603646  1
  Cr  Cr24  1  0.66917802  0.66970397  0.00333750  1
  Ni  Ni25  1  0.83524564  0.83712359  0.17120568  1
  Ni  Ni26  1  0.67035455  0.67091398  0.33612475  1
  Ni  Ni27  1  0.16749957  0.16960704  0.50220445  1
  Fe  Fe28  1  1.00144744  0.00324474  0.66767115  1
  Cr  Cr29  1  0.16858364  0.17071031  0.83538850  1
  Ni  Ni30  1  0.16974097  0.50303262  0.50165161  1
  Ni  Ni31  1  1.00066910  0.33635017  0.66923900  1
  Ni  Ni32  1  0.16805025  0.50428959  0.83588003  1
  Ni  Ni33  1  0.16850205  0.83507814  0.50338165  1
  Fe  Fe34  1  1.00252273  0.66842048  0.66784956  1
  Cr  Cr35  1  0.17059830  0.83272222  0.83570163  1
  Fe  Fe36  1  0.50288122  0.16881222  0.50311751  1
  Ni  Ni37  1  0.33709739  1.00176476  0.66923883  1
  Ni  Ni38  1  0.50642167  0.16746780  0.83644202  1
  Ni  Ni39  1  0.50157752  0.50407078  0.50209018  1
  Cr  Cr40  1  0.33553266  0.33569932  0.66771463  1
  Fe  Fe41  1  0.50319546  0.50351164  0.83552921  1
  Fe  Fe42  1  0.50315565  0.83479718  0.50294602  1
  Fe  Fe43  1  0.33589926  0.66967149  0.66860774  1
  Ni  Ni44  1  0.50336126  0.83693033  0.83552288  1
  Ni  Ni45  1  0.83704803  0.16798042  0.50353171  1
  Fe  Fe46  1  0.66951513  0.00323495  0.66955461  1
  Ni  Ni47  1  0.83277056  0.17003425  0.83531612  1
  Ni  Ni48  1  0.83640045  0.50306897  0.50295488  1
  Fe  Fe49  1  0.67076413  0.33519292  0.66905743  1
  Fe  Fe50  1  0.83671900  0.50160188  0.83455510  1
  Ni  Ni51  1  0.83601244  0.83666939  0.50211686  1
  Fe  Fe52  1  0.66929636  0.66929203  0.66884593  1
  Ni  Ni53  1  0.83374520  0.83645550  0.83439542  1
" 