7555,Ni48Fe38Cr12_12,-235.295332030503, 204.203404106366,Ni48Fe38Cr12,"# generated using pymatgen
 data_Cr4Fe10Ni13
_symmetry_space_group_name_H-M   'P 1'
_cell_length_a   7.42949525
_cell_length_b   7.42949525
_cell_length_c   10.50689294
_cell_angle_alpha   90.00000000
_cell_angle_beta   90.00000000
_cell_angle_gamma   90.00000000
_symmetry_Int_Tables_number   1
_chemical_formula_structural   Cr4Fe10Ni13
_chemical_formula_sum   'Cr8 Fe20 Ni26'
_cell_volume   579.95316834
_cell_formula_units_Z   2
loop_
 _symmetry_equiv_pos_site_id
 _symmetry_equiv_pos_as_xyz
  1  'x, y, z'
loop_
 _atom_site_type_symbol
 _atom_site_label
 _atom_site_symmetry_multiplicity
 _atom_site_fract_x
 _atom_site_fract_y
 _atom_site_fract_z
 _atom_site_occupancy
  Fe  Fe0  1  1.00099882  1.00118971  1.00232964  1
  Cr  Cr1  1  0.16927989  0.17051961  0.16892446  1
  Fe  Fe2  1  0.00298203  1.00099707  0.33606830  1
  Ni  Ni3  1  0.99897088  0.33859642  0.00404077  1
  Ni  Ni4  1  0.16849612  0.50211522  0.17010728  1
  Fe  Fe5  1  0.00300246  0.33731349  0.33476402  1
  Ni  Ni6  1  1.00249208  0.66917501  0.00259714  1
  Fe  Fe7  1  0.16891673  0.83415856  0.16920702  1
  Ni  Ni8  1  0.00320030  0.66927686  0.33664331  1
  Ni  Ni9  1  0.33907776  1.00039704  1.00178086  1
  Ni  Ni10  1  0.50166090  0.16815130  0.16829158  1
  Ni  Ni11  1  0.33603111  1.00196247  0.33587880  1
  Ni  Ni12  1  0.33850616  0.33686585  0.00342989  1
  Fe  Fe13  1  0.50209799  0.50247326  0.16824151  1
  Ni  Ni14  1  0.33632929  0.33715549  0.33618149  1
  Ni  Ni15  1  0.33439342  0.67031598  0.00356948  1
  Ni  Ni16  1  0.50290702  0.83563262  0.16876485  1
  Fe  Fe17  1  0.33497306  0.66847170  0.33537078  1
  Ni  Ni18  1  0.66896439  0.00391975  0.00292529  1
  Ni  Ni19  1  0.83648556  0.16951895  0.16751358  1
  Cr  Cr20  1  0.66904084  0.00338345  0.33482972  1
  Ni  Ni21  1  0.67010549  0.33391534  1.00177445  1
  Ni  Ni22  1  0.83721148  0.50336145  0.16859190  1
  Cr  Cr23  1  0.66831629  0.33508422  0.33561369  1
  Fe  Fe24  1  0.66896301  0.66896442  1.00216457  1
  Ni  Ni25  1  0.83480843  0.83469877  0.16936312  1
  Fe  Fe26  1  0.66951448  0.66849019  0.33496413  1
  Cr  Cr27  1  0.16961842  0.16857569  0.50185073  1
  Fe  Fe28  1  0.00421509  1.00045321  0.66918189  1
  Cr  Cr29  1  0.16966438  0.16779877  0.83680716  1
  Fe  Fe30  1  0.17030074  0.50450787  0.50209187  1
  Fe  Fe31  1  1.00125331  0.33639917  0.66906257  1
  Cr  Cr32  1  0.16972444  0.50221897  0.83556254  1
  Ni  Ni33  1  0.16808512  0.83630991  0.50258387  1
  Fe  Fe34  1  0.00305573  0.67072849  0.66877858  1
  Ni  Ni35  1  0.16984274  0.83763258  0.83553386  1
  Fe  Fe36  1  0.50029981  0.17140924  0.50270829  1
  Ni  Ni37  1  0.33581103  1.00130139  0.66992156  1
  Fe  Fe38  1  0.50305767  0.16953903  0.83740933  1
  Ni  Ni39  1  0.50269604  0.50217055  0.50310677  1
  Ni  Ni40  1  0.33842982  0.33734037  0.66797221  1
  Ni  Ni41  1  0.50505872  0.50324187  0.83588039  1
  Cr  Cr42  1  0.50087041  0.83344330  0.50230445  1
  Ni  Ni43  1  0.33400443  0.66894311  0.66860839  1
  Ni  Ni44  1  0.50227646  0.83477580  0.83623746  1
  Fe  Fe45  1  0.83644771  0.16972705  0.50288537  1
  Cr  Cr46  1  0.66899465  0.00395331  0.66988614  1
  Fe  Fe47  1  0.83466060  0.16986455  0.83755997  1
  Fe  Fe48  1  0.83678994  0.50397456  0.50301905  1
  Fe  Fe49  1  0.66754152  0.33804379  0.66947291  1
  Ni  Ni50  1  0.83322837  0.50271569  0.83545589  1
  Fe  Fe51  1  0.83920067  0.83388442  0.50219933  1
  Fe  Fe52  1  0.66815611  0.66666495  0.67045095  1
  Ni  Ni53  1  0.83546152  0.83474959  0.83600826  1
" 