7305,Ni48Fe38Cr12_16,-235.27703389336, 204.740164540917,Ni48Fe38Cr12,"# generated using pymatgen
 data_Cr4Fe10Ni13
_symmetry_space_group_name_H-M   'P 1'
_cell_length_a   7.42824772
_cell_length_b   7.42824772
_cell_length_c   10.50512868
_cell_angle_alpha   90.00000000
_cell_angle_beta   90.00000000
_cell_angle_gamma   90.00000000
_symmetry_Int_Tables_number   1
_chemical_formula_structural   Cr4Fe10Ni13
_chemical_formula_sum   'Cr8 Fe20 Ni26'
_cell_volume   579.66106924
_cell_formula_units_Z   2
loop_
 _symmetry_equiv_pos_site_id
 _symmetry_equiv_pos_as_xyz
  1  'x, y, z'
loop_
 _atom_site_type_symbol
 _atom_site_label
 _atom_site_symmetry_multiplicity
 _atom_site_fract_x
 _atom_site_fract_y
 _atom_site_fract_z
 _atom_site_occupancy
  Ni  Ni0  1  1.00194375  0.00350366  0.00397034  1
  Ni  Ni1  1  0.16905946  0.16955147  0.16906978  1
  Fe  Fe2  1  1.00217707  1.00111143  0.33403179  1
  Ni  Ni3  1  0.00444043  0.33406210  1.00175206  1
  Ni  Ni4  1  0.16985934  0.50144639  0.16887086  1
  Fe  Fe5  1  0.00345751  0.33821765  0.33463134  1
  Fe  Fe6  1  1.00092188  0.66898710  0.00332834  1
  Fe  Fe7  1  0.16865144  0.83583745  0.16917124  1
  Ni  Ni8  1  0.00342891  0.67136723  0.33792411  1
  Fe  Fe9  1  0.33641714  0.00487245  0.00414535  1
  Fe  Fe10  1  0.50268114  0.16930091  0.16955693  1
  Fe  Fe11  1  0.33670895  0.00287666  0.33425443  1
  Fe  Fe12  1  0.33599365  0.33526383  1.00238601  1
  Fe  Fe13  1  0.50133162  0.50302671  0.16951669  1
  Ni  Ni14  1  0.33725693  0.33679909  0.33547205  1
  Fe  Fe15  1  0.33674892  0.66769933  0.00404834  1
  Ni  Ni16  1  0.50333995  0.83628129  0.16878410  1
  Fe  Fe17  1  0.33564586  0.66715625  0.33542942  1
  Ni  Ni18  1  0.67105606  1.00240159  0.00334467  1
  Fe  Fe19  1  0.83633349  0.16746274  0.16822703  1
  Fe  Fe20  1  0.66894785  1.00225404  0.33429068  1
  Ni  Ni21  1  0.66802449  0.33570710  1.00118637  1
  Cr  Cr22  1  0.83625454  0.50230057  0.16965886  1
  Ni  Ni23  1  0.66596143  0.33652335  0.33678409  1
  Ni  Ni24  1  0.66836453  0.66972762  1.00228443  1
  Ni  Ni25  1  0.83421873  0.83707841  0.16889541  1
  Ni  Ni26  1  0.66986263  0.66897638  0.33651159  1
  Cr  Cr27  1  0.17091776  0.16991045  0.50391053  1
  Ni  Ni28  1  1.00179303  1.00150053  0.67000622  1
  Ni  Ni29  1  0.16857058  0.17022425  0.83536712  1
  Ni  Ni30  1  0.16758557  0.50364736  0.50242579  1
  Fe  Fe31  1  1.00197103  0.33702332  0.67150035  1
  Fe  Fe32  1  0.16883475  0.49885378  0.83665012  1
  Fe  Fe33  1  0.16683946  0.83440448  0.50229597  1
  Fe  Fe34  1  1.00129216  0.66800719  0.66757480  1
  Cr  Cr35  1  0.16837558  0.83795194  0.83686150  1
  Ni  Ni36  1  0.50245394  0.16986635  0.50351191  1
  Fe  Fe37  1  0.33678001  0.00687632  0.66944102  1
  Ni  Ni38  1  0.50282527  0.17027343  0.83466015  1
  Ni  Ni39  1  0.50325781  0.50077997  0.50033415  1
  Ni  Ni40  1  0.33711034  0.33534722  0.67036184  1
  Ni  Ni41  1  0.50438500  0.50004017  0.83784559  1
  Cr  Cr42  1  0.50263913  0.83764770  0.50208456  1
  Cr  Cr43  1  0.33425419  0.66501787  0.66715719  1
  Cr  Cr44  1  0.50415687  0.83779169  0.83734213  1
  Cr  Cr45  1  0.83430793  0.17109834  0.50195404  1
  Ni  Ni46  1  0.67145964  0.00542529  0.67003221  1
  Ni  Ni47  1  0.83644104  0.17062703  0.83647961  1
  Ni  Ni48  1  0.83698556  0.50376098  0.50183726  1
  Ni  Ni49  1  0.66678821  0.33458859  0.66986052  1
  Ni  Ni50  1  0.83618598  0.50099113  0.83621618  1
  Fe  Fe51  1  0.83797981  0.83443475  0.50140171  1
  Cr  Cr52  1  0.67170241  0.66724887  0.66910300  1
  Fe  Fe53  1  0.83604802  0.83789699  0.83728701  1
" 