6920,Ni48Fe38Cr12_18,-235.370428188519, 209.471612973294,Ni48Fe38Cr12,"# generated using pymatgen
 data_Cr4Fe10Ni13
_symmetry_space_group_name_H-M   'P 1'
_cell_length_a   7.42378868
_cell_length_b   7.42378868
_cell_length_c   10.49882264
_cell_angle_alpha   90.00000000
_cell_angle_beta   90.00000000
_cell_angle_gamma   90.00000000
_symmetry_Int_Tables_number   1
_chemical_formula_structural   Cr4Fe10Ni13
_chemical_formula_sum   'Cr8 Fe20 Ni26'
_cell_volume   578.61781513
_cell_formula_units_Z   2
loop_
 _symmetry_equiv_pos_site_id
 _symmetry_equiv_pos_as_xyz
  1  'x, y, z'
loop_
 _atom_site_type_symbol
 _atom_site_label
 _atom_site_symmetry_multiplicity
 _atom_site_fract_x
 _atom_site_fract_y
 _atom_site_fract_z
 _atom_site_occupancy
  Fe  Fe0  1  0.00443128  1.00141544  1.00217927  1
  Cr  Cr1  1  0.16959509  0.16825531  0.17024115  1
  Ni  Ni2  1  1.00274336  1.00202661  0.33554840  1
  Fe  Fe3  1  1.00213704  0.33693019  1.00206431  1
  Fe  Fe4  1  0.16684556  0.50335983  0.17060964  1
  Fe  Fe5  1  1.00077338  0.33519817  0.33641234  1
  Ni  Ni6  1  0.00297975  0.66874012  1.00266208  1
  Ni  Ni7  1  0.16857047  0.83567731  0.17037835  1
  Ni  Ni8  1  1.00271764  0.66960917  0.33378746  1
  Ni  Ni9  1  0.33549157  0.00530781  0.00334656  1
  Ni  Ni10  1  0.50420247  0.16922560  0.16973602  1
  Ni  Ni11  1  0.33745086  1.00273979  0.33654521  1
  Fe  Fe12  1  0.33670718  0.33454514  1.00109340  1
  Cr  Cr13  1  0.50359729  0.50133480  0.17100021  1
  Ni  Ni14  1  0.33798812  0.33505108  0.33618233  1
  Cr  Cr15  1  0.33298043  0.66984650  0.00301011  1
  Fe  Fe16  1  0.50241888  0.83952141  0.17201374  1
  Fe  Fe17  1  0.33602630  0.67198854  0.33669984  1
  Cr  Cr18  1  0.66891227  0.00540458  0.00439096  1
  Ni  Ni19  1  0.83514272  0.17075871  0.17006841  1
  Ni  Ni20  1  0.66854577  0.00459037  0.33474191  1
  Fe  Fe21  1  0.66989840  0.33557281  0.00299995  1
  Ni  Ni22  1  0.83748634  0.50231872  0.17091032  1
  Ni  Ni23  1  0.66988335  0.33508022  0.33643936  1
  Cr  Cr24  1  0.67267138  0.66856972  0.00378662  1
  Fe  Fe25  1  0.83798262  0.83649643  0.17129914  1
  Fe  Fe26  1  0.66945746  0.66990530  0.33649164  1
  Fe  Fe27  1  0.16961617  0.16714154  0.50349560  1
  Ni  Ni28  1  0.00401053  0.00352685  0.67100948  1
  Ni  Ni29  1  0.16952514  0.16892584  0.83579486  1
  Cr  Cr30  1  0.16969765  0.50342389  0.50254821  1
  Ni  Ni31  1  1.00217209  0.33550699  0.66962852  1
  Fe  Fe32  1  0.16974563  0.50203350  0.83488725  1
  Ni  Ni33  1  0.17150078  0.83728865  0.50349097  1
  Ni  Ni34  1  1.00223097  0.66970521  0.67229017  1
  Ni  Ni35  1  0.16701643  0.83723387  0.83487381  1
  Fe  Fe36  1  0.50246654  0.16872551  0.50224871  1
  Ni  Ni37  1  0.33536953  0.00382799  0.66884650  1
  Ni  Ni38  1  0.50179913  0.17271800  0.83613273  1
  Fe  Fe39  1  0.50418442  0.50337106  0.50346085  1
  Ni  Ni40  1  0.33721154  0.33521219  0.67145128  1
  Ni  Ni41  1  0.50358605  0.49998537  0.83408851  1
  Ni  Ni42  1  0.50111611  0.83580299  0.50255856  1
  Ni  Ni43  1  0.33685333  0.66969785  0.66958364  1
  Cr  Cr44  1  0.50131816  0.83607305  0.83381604  1
  Ni  Ni45  1  0.83624499  0.17110457  0.50276686  1
  Fe  Fe46  1  0.66948328  0.00400058  0.66912161  1
  Fe  Fe47  1  0.83717024  0.17004910  0.83517750  1
  Fe  Fe48  1  0.83513043  0.50235537  0.50267734  1
  Fe  Fe49  1  0.66948322  0.33658320  0.66949153  1
  Fe  Fe50  1  0.83709766  0.50256369  0.83576377  1
  Cr  Cr51  1  0.83679901  0.83701927  0.50336030  1
  Ni  Ni52  1  0.66965905  0.66785871  0.66967580  1
  Fe  Fe53  1  0.83920578  0.83612636  0.83445173  1
" 