2744,Ni48Fe38Cr12_17,-235.561807040647, 205.838094590195,Ni48Fe38Cr12,"# generated using pymatgen
 data_Cr4Fe10Ni13
_symmetry_space_group_name_H-M   'P 1'
_cell_length_a   7.43430014
_cell_length_b   7.43430014
_cell_length_c   10.51368809
_cell_angle_alpha   90.00000000
_cell_angle_beta   90.00000000
_cell_angle_gamma   90.00000000
_symmetry_Int_Tables_number   1
_chemical_formula_structural   Cr4Fe10Ni13
_chemical_formula_sum   'Cr8 Fe20 Ni26'
_cell_volume   581.07912025
_cell_formula_units_Z   2
loop_
 _symmetry_equiv_pos_site_id
 _symmetry_equiv_pos_as_xyz
  1  'x, y, z'
loop_
 _atom_site_type_symbol
 _atom_site_label
 _atom_site_symmetry_multiplicity
 _atom_site_fract_x
 _atom_site_fract_y
 _atom_site_fract_z
 _atom_site_occupancy
  Fe  Fe0  1  1.00125469  0.00358154  0.00318198  1
  Ni  Ni1  1  0.17220895  0.16965814  0.16629731  1
  Cr  Cr2  1  1.00033787  0.99994797  0.33680997  1
  Fe  Fe3  1  1.00123288  0.33533275  1.00196123  1
  Ni  Ni4  1  0.16860916  0.50205256  0.16938505  1
  Cr  Cr5  1  0.00401577  0.33518734  0.33523009  1
  Cr  Cr6  1  1.00132579  0.66879426  0.00329471  1
  Ni  Ni7  1  0.16910164  0.83516283  0.16814293  1
  Fe  Fe8  1  1.00152069  0.66777088  0.33502444  1
  Fe  Fe9  1  0.33837631  0.00242122  0.00221154  1
  Fe  Fe10  1  0.50454584  0.17092457  0.16785925  1
  Cr  Cr11  1  0.33504180  0.00364743  0.33392950  1
  Ni  Ni12  1  0.33443002  0.33566239  0.00283981  1
  Fe  Fe13  1  0.50092007  0.50159972  0.16844068  1
  Ni  Ni14  1  0.33664070  0.33874637  0.33458925  1
  Ni  Ni15  1  0.33484192  0.66683042  1.00184272  1
  Fe  Fe16  1  0.50154967  0.83447359  0.16806764  1
  Fe  Fe17  1  0.33637824  0.66855402  0.33433455  1
  Ni  Ni18  1  0.67051770  0.00269660  0.00305212  1
  Fe  Fe19  1  0.83582658  0.16895300  0.16784749  1
  Ni  Ni20  1  0.66867154  1.00055668  0.33406745  1
  Ni  Ni21  1  0.66773578  0.33398714  1.00080622  1
  Ni  Ni22  1  0.83361494  0.50152668  0.17005616  1
  Ni  Ni23  1  0.66798351  0.33653232  0.33492508  1
  Cr  Cr24  1  0.66877966  0.67019857  1.00058279  1
  Ni  Ni25  1  0.83420360  0.83457282  0.17154451  1
  Fe  Fe26  1  0.66884239  0.66835630  0.33672604  1
  Fe  Fe27  1  0.16782695  0.16905602  0.50414170  1
  Ni  Ni28  1  1.00138991  0.00277212  0.66781429  1
  Ni  Ni29  1  0.17037204  0.17016483  0.83631435  1
  Fe  Fe30  1  0.16990407  0.50472115  0.50249494  1
  Ni  Ni31  1  0.00309208  0.33580427  0.66951297  1
  Ni  Ni32  1  0.16635141  0.50063811  0.83560213  1
  Fe  Fe33  1  0.16937554  0.83364184  0.50437262  1
  Ni  Ni34  1  0.99970857  0.66783069  0.66756908  1
  Cr  Cr35  1  0.16893617  0.83622948  0.83483376  1
  Cr  Cr36  1  0.50344610  0.16783671  0.50157386  1
  Ni  Ni37  1  0.33571118  0.00279597  0.66937388  1
  Ni  Ni38  1  0.50316676  0.16765970  0.83645456  1
  Fe  Fe39  1  0.50470597  0.50500589  0.50108568  1
  Cr  Cr40  1  0.33626549  0.33686787  0.66930544  1
  Fe  Fe41  1  0.50108444  0.50256758  0.83652278  1
  Ni  Ni42  1  0.50181238  0.83573251  0.50278313  1
  Fe  Fe43  1  0.33611539  0.67123847  0.66975892  1
  Ni  Ni44  1  0.50323925  0.83886008  0.83499562  1
  Fe  Fe45  1  0.83382716  0.16916963  0.50364822  1
  Ni  Ni46  1  0.66898692  0.99939843  0.66971311  1
  Fe  Fe47  1  0.83614772  0.16698555  0.83512831  1
  Ni  Ni48  1  0.83645286  0.50238979  0.50250143  1
  Fe  Fe49  1  0.67231720  0.33506317  0.66991723  1
  Ni  Ni50  1  0.83568414  0.50040389  0.83377851  1
  Fe  Fe51  1  0.83212195  0.83452287  0.50387227  1
  Ni  Ni52  1  0.66846698  0.66882020  0.67008587  1
  Ni  Ni53  1  0.83391641  0.83502778  0.83272758  1
" 