295,Ni48Fe52_8,-241.650591954075, 225.891363720164,Ni48Fe52,"# generated using pymatgen
 data_Fe25Ni29
_symmetry_space_group_name_H-M   'P 1'
_cell_length_a   7.39957378
_cell_length_b   7.39957378
_cell_length_c   10.46457759
_cell_angle_alpha   90.00000000
_cell_angle_beta   90.00000000
_cell_angle_gamma   90.00000000
_symmetry_Int_Tables_number   1
_chemical_formula_structural   Fe25Ni29
_chemical_formula_sum   'Fe25 Ni29'
_cell_volume   572.97425960
_cell_formula_units_Z   1
loop_
 _symmetry_equiv_pos_site_id
 _symmetry_equiv_pos_as_xyz
  1  'x, y, z'
loop_
 _atom_site_type_symbol
 _atom_site_label
 _atom_site_symmetry_multiplicity
 _atom_site_fract_x
 _atom_site_fract_y
 _atom_site_fract_z
 _atom_site_occupancy
  Fe  Fe0  1  1.00420235  1.00412602  0.00506831  1
  Ni  Ni1  1  0.17103793  0.17097194  0.17213455  1
  Fe  Fe2  1  0.00512554  1.00399261  0.33789129  1
  Fe  Fe3  1  1.00393322  0.33832543  1.00398919  1
  Fe  Fe4  1  0.17199508  0.50383238  0.17114601  1
  Fe  Fe5  1  0.00483062  0.33746082  0.33838764  1
  Ni  Ni6  1  1.00382942  0.67067749  1.00382107  1
  Ni  Ni7  1  0.17186138  0.83766610  0.17047783  1
  Fe  Fe8  1  0.00564020  0.67222526  0.33775499  1
  Fe  Fe9  1  0.33839623  1.00387153  0.00577656  1
  Ni  Ni10  1  0.50511509  0.17097599  0.17094353  1
  Ni  Ni11  1  0.33833179  0.00566641  0.33798422  1
  Ni  Ni12  1  0.33633182  0.33750410  1.00418545  1
  Fe  Fe13  1  0.50384959  0.50420594  0.17151759  1
  Ni  Ni14  1  0.33604292  0.33742860  0.33881409  1
  Fe  Fe15  1  0.33845251  0.67149669  1.00418506  1
  Ni  Ni16  1  0.50392716  0.83803526  0.17198213  1
  Ni  Ni17  1  0.33796312  0.67058046  0.33705451  1
  Ni  Ni18  1  0.67157146  1.00355068  0.00475149  1
  Ni  Ni19  1  0.83752065  0.17144681  0.17074131  1
  Ni  Ni20  1  0.67135419  1.00375771  0.33788071  1
  Fe  Fe21  1  0.67135354  0.33838722  0.00463443  1
  Fe  Fe22  1  0.83782979  0.50478049  0.17036417  1
  Fe  Fe23  1  0.66958985  0.33724149  0.33810786  1
  Ni  Ni24  1  0.67241335  0.67297655  1.00418377  1
  Fe  Fe25  1  0.83724130  0.83909352  0.17085325  1
  Ni  Ni26  1  0.67135487  0.67286072  0.33808805  1
  Fe  Fe27  1  0.17128442  0.17159966  0.50400949  1
  Fe  Fe28  1  1.00368842  1.00365474  0.67071841  1
  Fe  Fe29  1  0.17122643  0.17232119  0.83846121  1
  Ni  Ni30  1  0.17243028  0.50567247  0.50426182  1
  Ni  Ni31  1  0.00567377  0.33779894  0.67166147  1
  Ni  Ni32  1  0.17131000  0.50442823  0.83837004  1
  Ni  Ni33  1  0.17040943  0.83660133  0.50503535  1
  Fe  Fe34  1  1.00422275  0.67135622  0.67179721  1
  Fe  Fe35  1  0.17122713  0.83604170  0.83789354  1
  Ni  Ni36  1  0.50575904  0.17223363  0.50431171  1
  Fe  Fe37  1  0.33839249  1.00390921  0.67067323  1
  Fe  Fe38  1  0.50511508  0.17141749  0.83818839  1
  Ni  Ni39  1  0.50335731  0.50364686  0.50461891  1
  Fe  Fe40  1  0.33865624  0.33897896  0.67116672  1
  Ni  Ni41  1  0.50418469  0.50490601  0.83837399  1
  Fe  Fe42  1  0.50485206  0.83767448  0.50441788  1
  Ni  Ni43  1  0.33826316  0.67048461  0.67171709  1
  Ni  Ni44  1  0.50538314  0.83748403  0.83733358  1
  Ni  Ni45  1  0.83669332  0.17020844  0.50467531  1
  Ni  Ni46  1  0.67168041  1.00345820  0.67104304  1
  Fe  Fe47  1  0.83733633  0.17149507  0.83752001  1
  Fe  Fe48  1  0.83783295  0.50469984  0.50519151  1
  Fe  Fe49  1  0.67103178  0.33844767  0.67093322  1
  Ni  Ni50  1  0.83818361  0.50490660  0.83707392  1
  Ni  Ni51  1  0.83872199  0.83900416  0.50399874  1
  Ni  Ni52  1  0.67084137  0.67278729  0.67140585  1
  Ni  Ni53  1  0.83734992  0.83784722  0.83863176  1
" 