3617,Ni48Fe52_0,-241.290512901967, 228.504380252944,Ni48Fe52,"# generated using pymatgen
 data_Fe25Ni29
_symmetry_space_group_name_H-M   'P 1'
_cell_length_a   7.39720887
_cell_length_b   7.39720887
_cell_length_c   10.46123310
_cell_angle_alpha   90.00000000
_cell_angle_beta   90.00000000
_cell_angle_gamma   90.00000000
_symmetry_Int_Tables_number   1
_chemical_formula_structural   Fe25Ni29
_chemical_formula_sum   'Fe25 Ni29'
_cell_volume   572.42506518
_cell_formula_units_Z   1
loop_
 _symmetry_equiv_pos_site_id
 _symmetry_equiv_pos_as_xyz
  1  'x, y, z'
loop_
 _atom_site_type_symbol
 _atom_site_label
 _atom_site_symmetry_multiplicity
 _atom_site_fract_x
 _atom_site_fract_y
 _atom_site_fract_z
 _atom_site_occupancy
  Fe  Fe0  1  0.00530442  1.00286601  0.00584576  1
  Ni  Ni1  1  0.17129497  0.17212804  0.17139229  1
  Ni  Ni2  1  1.00451728  0.00567597  0.33720099  1
  Ni  Ni3  1  0.00623498  0.33696431  1.00426550  1
  Fe  Fe4  1  0.17170424  0.50584145  0.17168182  1
  Fe  Fe5  1  1.00470757  0.33823840  0.33727153  1
  Ni  Ni6  1  0.00621362  0.67020426  0.00484179  1
  Ni  Ni7  1  0.17145020  0.83872838  0.17220056  1
  Fe  Fe8  1  1.00322668  0.67359952  0.33815444  1
  Fe  Fe9  1  0.33734454  1.00290479  0.00490765  1
  Fe  Fe10  1  0.50511468  0.16913040  0.17156198  1
  Ni  Ni11  1  0.33725646  1.00370522  0.33868903  1
  Fe  Fe12  1  0.33819165  0.33864872  1.00423590  1
  Ni  Ni13  1  0.50493655  0.50487849  0.17155508  1
  Fe  Fe14  1  0.33980414  0.33696356  0.33871290  1
  Ni  Ni15  1  0.33732722  0.67176495  1.00454868  1
  Ni  Ni16  1  0.50491634  0.83613998  0.17215808  1
  Ni  Ni17  1  0.33691270  0.67100544  0.33793927  1
  Ni  Ni18  1  0.67113931  0.00520698  0.00606254  1
  Ni  Ni19  1  0.83903368  0.17170756  0.17131847  1
  Ni  Ni20  1  0.67219153  0.00493787  0.33826348  1
  Fe  Fe21  1  0.67234848  0.34003011  0.00530546  1
  Fe  Fe22  1  0.83818228  0.50580182  0.17114626  1
  Ni  Ni23  1  0.67277602  0.33777917  0.33706025  1
  Ni  Ni24  1  0.67071621  0.67340950  1.00409964  1
  Ni  Ni25  1  0.83743928  0.83806334  0.17122889  1
  Ni  Ni26  1  0.67051905  0.67122007  0.33755073  1
  Fe  Fe27  1  0.16987049  0.17155194  0.50454468  1
  Fe  Fe28  1  0.00492460  1.00436062  0.67037961  1
  Ni  Ni29  1  0.17156740  0.17124549  0.83701440  1
  Ni  Ni30  1  0.17098252  0.50356256  0.50427374  1
  Fe  Fe31  1  1.00358095  0.33931569  0.67194322  1
  Fe  Fe32  1  0.17274210  0.50509095  0.83768695  1
  Fe  Fe33  1  0.16999878  0.83607083  0.50423100  1
  Fe  Fe34  1  1.00327713  0.67044105  0.67131469  1
  Ni  Ni35  1  0.17145803  0.83851975  0.83689505  1
  Fe  Fe36  1  0.50624417  0.17242875  0.50572368  1
  Fe  Fe37  1  0.34096314  0.00507524  0.67170130  1
  Ni  Ni38  1  0.50457500  0.17143593  0.83929361  1
  Fe  Fe39  1  0.50583625  0.50531460  0.50452307  1
  Ni  Ni40  1  0.33716554  0.33893293  0.67115124  1
  Fe  Fe41  1  0.50322858  0.50535348  0.83822957  1
  Fe  Fe42  1  0.50511156  0.83621018  0.50442839  1
  Ni  Ni43  1  0.33690075  0.67065956  0.67127719  1
  Ni  Ni44  1  0.50495717  0.83844568  0.83742566  1
  Fe  Fe45  1  0.83827911  0.17231398  0.50353404  1
  Ni  Ni46  1  0.67310752  0.00535980  0.67040746  1
  Fe  Fe47  1  0.83774198  0.16946349  0.83943583  1
  Ni  Ni48  1  0.83763952  0.50512690  0.50399707  1
  Ni  Ni49  1  0.67147993  0.33743780  0.67296153  1
  Fe  Fe50  1  0.83798821  0.50521012  0.83812954  1
  Ni  Ni51  1  0.83673230  0.83748134  0.50466833  1
  Ni  Ni52  1  0.67019283  0.67142521  0.67211339  1
  Fe  Fe53  1  0.83756355  0.83953503  0.83842999  1
" 