6315,Ni48Fe47Cr4_8,-238.825201850193, 215.812783315501,Ni48Fe47Cr4,"# generated using pymatgen
 data_Cr3Fe25Ni26
_symmetry_space_group_name_H-M   'P 1'
_cell_length_a   7.40844271
_cell_length_b   7.40844271
_cell_length_c   10.47712015
_cell_angle_alpha   90.00000000
_cell_angle_beta   90.00000000
_cell_angle_gamma   90.00000000
_symmetry_Int_Tables_number   1
_chemical_formula_structural   Cr3Fe25Ni26
_chemical_formula_sum   'Cr3 Fe25 Ni26'
_cell_volume   575.03698433
_cell_formula_units_Z   1
loop_
 _symmetry_equiv_pos_site_id
 _symmetry_equiv_pos_as_xyz
  1  'x, y, z'
loop_
 _atom_site_type_symbol
 _atom_site_label
 _atom_site_symmetry_multiplicity
 _atom_site_fract_x
 _atom_site_fract_y
 _atom_site_fract_z
 _atom_site_occupancy
  Ni  Ni0  1  1.00314077  0.00522128  1.00350386  1
  Fe  Fe1  1  0.17006608  0.16987348  0.17034155  1
  Ni  Ni2  1  1.00299277  1.00384288  0.33746033  1
  Fe  Fe3  1  0.00533873  0.33550907  1.00268946  1
  Fe  Fe4  1  0.17350856  0.50375386  0.17114117  1
  Fe  Fe5  1  1.00349667  0.33675279  0.33890036  1
  Cr  Cr6  1  0.00503409  0.67271613  1.00288771  1
  Ni  Ni7  1  0.17141201  0.83833537  0.17228656  1
  Fe  Fe8  1  1.00352488  0.67206727  0.33815257  1
  Fe  Fe9  1  0.33685238  1.00377573  1.00335237  1
  Ni  Ni10  1  0.50286626  0.17075027  0.17164726  1
  Fe  Fe11  1  0.33746994  0.00434783  0.33661881  1
  Ni  Ni12  1  0.33813989  0.33830261  0.00429009  1
  Fe  Fe13  1  0.50216115  0.50463694  0.17045747  1
  Fe  Fe14  1  0.33842009  0.33707902  0.33656591  1
  Ni  Ni15  1  0.33895523  0.66915578  1.00352475  1
  Fe  Fe16  1  0.50407080  0.83697169  0.17091950  1
  Ni  Ni17  1  0.33685913  0.66887390  0.33592847  1
  Fe  Fe18  1  0.67011660  1.00377623  1.00391257  1
  Fe  Fe19  1  0.83746325  0.16796742  0.17145230  1
  Ni  Ni20  1  0.67277279  0.00512465  0.33616522  1
  Fe  Fe21  1  0.66919324  0.33673762  1.00339730  1
  Cr  Cr22  1  0.83675693  0.50400388  0.17188639  1
  Ni  Ni23  1  0.66938302  0.33651951  0.33851915  1
  Fe  Fe24  1  0.66843489  0.67134910  1.00260568  1
  Ni  Ni25  1  0.83760879  0.83863189  0.17227371  1
  Ni  Ni26  1  0.66995796  0.67022218  0.33642544  1
  Fe  Fe27  1  0.16908429  0.17024127  0.50440495  1
  Ni  Ni28  1  1.00376234  1.00376837  0.67090056  1
  Fe  Fe29  1  0.17078634  0.17017755  0.83712723  1
  Fe  Fe30  1  0.16943589  0.50413842  0.50399956  1
  Ni  Ni31  1  0.00405634  0.33751113  0.67151822  1
  Fe  Fe32  1  0.17184972  0.50392098  0.83671867  1
  Fe  Fe33  1  0.16793505  0.83748487  0.50402450  1
  Ni  Ni34  1  1.00334514  0.67058321  0.67007831  1
  Ni  Ni35  1  0.17146269  0.83844829  0.83565346  1
  Fe  Fe36  1  0.50548850  0.17171868  0.50384035  1
  Ni  Ni37  1  0.33678601  0.00504741  0.67182366  1
  Ni  Ni38  1  0.50291614  0.17080313  0.83616907  1
  Fe  Fe39  1  0.50545621  0.50298671  0.50366371  1
  Fe  Fe40  1  0.33725602  0.33673040  0.67138798  1
  Ni  Ni41  1  0.50443277  0.50337793  0.83741403  1
  Cr  Cr42  1  0.50427250  0.83826972  0.50405550  1
  Fe  Fe43  1  0.33621212  0.67096065  0.67187204  1
  Ni  Ni44  1  0.50292838  0.83768290  0.83836421  1
  Ni  Ni45  1  0.83758786  0.17160377  0.50340349  1
  Ni  Ni46  1  0.67131096  0.00433266  0.67141060  1
  Fe  Fe47  1  0.83695065  0.16990910  0.83666534  1
  Ni  Ni48  1  0.83786468  0.50351527  0.50391274  1
  Fe  Fe49  1  0.67158602  0.33705855  0.67036660  1
  Ni  Ni50  1  0.83671014  0.50338590  0.83598250  1
  Ni  Ni51  1  0.83899030  0.83674707  0.50362038  1
  Ni  Ni52  1  0.67165641  0.66994912  0.67193929  1
  Ni  Ni53  1  0.83746464  0.83693358  0.83596211  1
" 