2505,Ni49Fe28Cr21_19,-231.591110614248, 189.704371866844,Ni49Fe28Cr21,"# generated using pymatgen
 data_Cr13Fe15Ni26
_symmetry_space_group_name_H-M   'P 1'
_cell_length_a   7.45020071
_cell_length_b   7.45020071
_cell_length_c   10.53617489
_cell_angle_alpha   90.00000000
_cell_angle_beta   90.00000000
_cell_angle_gamma   90.00000000
_symmetry_Int_Tables_number   1
_chemical_formula_structural   Cr13Fe15Ni26
_chemical_formula_sum   'Cr13 Fe15 Ni26'
_cell_volume   584.81555747
_cell_formula_units_Z   1
loop_
 _symmetry_equiv_pos_site_id
 _symmetry_equiv_pos_as_xyz
  1  'x, y, z'
loop_
 _atom_site_type_symbol
 _atom_site_label
 _atom_site_symmetry_multiplicity
 _atom_site_fract_x
 _atom_site_fract_y
 _atom_site_fract_z
 _atom_site_occupancy
  Cr  Cr0  1  0.00137504  1.00037721  0.00158876  1
  Cr  Cr1  1  0.16540087  0.17033974  0.16613725  1
  Cr  Cr2  1  1.00095127  1.00056929  0.33498894  1
  Ni  Ni3  1  0.00114471  0.33600666  0.99965412  1
  Ni  Ni4  1  0.16874288  0.50302434  0.16639780  1
  Ni  Ni5  1  0.99875333  0.33558529  0.33574658  1
  Ni  Ni6  1  0.00307186  0.66636706  0.99990755  1
  Ni  Ni7  1  0.16958345  0.82986390  0.16666516  1
  Ni  Ni8  1  0.00127283  0.66763695  0.33490180  1
  Ni  Ni9  1  0.33619875  0.00137083  0.99900032  1
  Fe  Fe10  1  0.50325631  0.16946480  0.16598626  1
  Cr  Cr11  1  0.33454257  1.00064473  0.33573901  1
  Ni  Ni12  1  0.33512031  0.33463988  0.00150964  1
  Ni  Ni13  1  0.50009261  0.50178159  0.16754064  1
  Cr  Cr14  1  0.33628656  0.33494528  0.33393223  1
  Ni  Ni15  1  0.33277623  0.66743972  0.00288463  1
  Cr  Cr16  1  0.50066042  0.83335572  0.16615693  1
  Fe  Fe17  1  0.33262520  0.66781319  0.33395288  1
  Ni  Ni18  1  0.66618302  0.00335810  1.00022946  1
  Ni  Ni19  1  0.83164922  0.16978115  0.16817071  1
  Fe  Fe20  1  0.66860473  0.00346211  0.33646754  1
  Ni  Ni21  1  0.66707936  0.33262876  0.00234296  1
  Cr  Cr22  1  0.83559528  0.49873066  0.16626266  1
  Fe  Fe23  1  0.66957875  0.33336528  0.33489992  1
  Ni  Ni24  1  0.66779407  0.66756409  0.99902799  1
  Cr  Cr25  1  0.83337479  0.83565779  0.16729016  1
  Fe  Fe26  1  0.66736531  0.66639577  0.33616791  1
  Ni  Ni27  1  0.16610849  0.16767164  0.50470127  1
  Fe  Fe28  1  1.00081523  0.00175564  0.66745151  1
  Ni  Ni29  1  0.16682584  0.16999730  0.83227887  1
  Cr  Cr30  1  0.16600993  0.50014285  0.50108991  1
  Fe  Fe31  1  0.00137762  0.33361359  0.66891446  1
  Ni  Ni32  1  0.16559645  0.49946788  0.83606638  1
  Ni  Ni33  1  0.16810650  0.83446210  0.50202991  1
  Ni  Ni34  1  1.00081865  0.66959985  0.66853788  1
  Fe  Fe35  1  0.16830737  0.83418695  0.83505443  1
  Ni  Ni36  1  0.50302427  0.16539547  0.50274070  1
  Fe  Fe37  1  0.33521624  0.00190724  0.66746554  1
  Fe  Fe38  1  0.49974950  0.16600902  0.83493218  1
  Fe  Fe39  1  0.50159320  0.50005535  0.49968604  1
  Ni  Ni40  1  0.33304584  0.33056570  0.66728059  1
  Cr  Cr41  1  0.49930930  0.50250809  0.83696339  1
  Ni  Ni42  1  0.50267483  0.83514446  0.50029249  1
  Cr  Cr43  1  0.33304201  0.66805448  0.66677046  1
  Ni  Ni44  1  0.50247503  0.83684847  0.83616410  1
  Ni  Ni45  1  0.83431999  0.16807690  0.50039669  1
  Ni  Ni46  1  0.66836076  0.00158344  0.66715600  1
  Ni  Ni47  1  0.83519865  0.16731551  0.83516137  1
  Fe  Fe48  1  0.83520058  0.50113107  0.49936715  1
  Cr  Cr49  1  0.66689682  0.33252318  0.66696366  1
  Fe  Fe50  1  0.83759056  0.50074483  0.83659063  1
  Fe  Fe51  1  0.83527023  0.83578007  0.50129275  1
  Cr  Cr52  1  0.67055528  0.66956986  0.66721550  1
  Fe  Fe53  1  0.83448531  0.83477340  0.83494054  1
" 