311,Ni49Fe28Cr21_15,-231.922287405243, 197.51895919569,Ni49Fe28Cr21,"# generated using pymatgen
 data_Cr13Fe15Ni26
_symmetry_space_group_name_H-M   'P 1'
_cell_length_a   7.44712927
_cell_length_b   7.44712927
_cell_length_c   10.53183122
_cell_angle_alpha   90.00000000
_cell_angle_beta   90.00000000
_cell_angle_gamma   90.00000000
_symmetry_Int_Tables_number   1
_chemical_formula_structural   Cr13Fe15Ni26
_chemical_formula_sum   'Cr13 Fe15 Ni26'
_cell_volume   584.09256174
_cell_formula_units_Z   1
loop_
 _symmetry_equiv_pos_site_id
 _symmetry_equiv_pos_as_xyz
  1  'x, y, z'
loop_
 _atom_site_type_symbol
 _atom_site_label
 _atom_site_symmetry_multiplicity
 _atom_site_fract_x
 _atom_site_fract_y
 _atom_site_fract_z
 _atom_site_occupancy
  Fe  Fe0  1  1.00108970  0.99963694  0.00146880  1
  Fe  Fe1  1  0.16767866  0.16600659  0.16821225  1
  Ni  Ni2  1  0.00211620  0.99988834  0.33410787  1
  Ni  Ni3  1  0.00223228  0.33572715  0.99979573  1
  Cr  Cr4  1  0.16805775  0.50068141  0.16820005  1
  Ni  Ni5  1  0.99978798  0.33569790  0.33661680  1
  Fe  Fe6  1  1.00127690  0.67013319  0.00145521  1
  Ni  Ni7  1  0.16835312  0.83625605  0.16717326  1
  Fe  Fe8  1  0.99911756  0.66980973  0.33561750  1
  Ni  Ni9  1  0.33428207  0.99906741  0.00138406  1
  Cr  Cr10  1  0.49897354  0.16727614  0.16845017  1
  Ni  Ni11  1  0.33402514  0.99925324  0.33492253  1
  Fe  Fe12  1  0.33379224  0.33429477  1.00100957  1
  Ni  Ni13  1  0.50187702  0.50394512  0.16819676  1
  Fe  Fe14  1  0.33669677  0.33456199  0.33578362  1
  Ni  Ni15  1  0.33296435  0.66948097  1.00120046  1
  Ni  Ni16  1  0.50073718  0.83288789  0.16808362  1
  Fe  Fe17  1  0.33606741  0.66934480  0.33454784  1
  Ni  Ni18  1  0.66822642  0.99938967  0.99974317  1
  Cr  Cr19  1  0.83697911  0.16712820  0.16940204  1
  Ni  Ni20  1  0.66787219  0.99984329  0.33657045  1
  Cr  Cr21  1  0.66833578  0.33404132  0.00144140  1
  Ni  Ni22  1  0.83390751  0.50381367  0.16876582  1
  Ni  Ni23  1  0.66876507  0.33717095  0.33685675  1
  Fe  Fe24  1  0.66840704  0.67079847  0.00464041  1
  Ni  Ni25  1  0.83491988  0.83288976  0.16732926  1
  Ni  Ni26  1  0.66813238  0.66699691  0.33389939  1
  Cr  Cr27  1  0.16767880  0.16650965  0.49844032  1
  Cr  Cr28  1  1.00073060  1.00028227  0.66857587  1
  Cr  Cr29  1  0.16819050  0.16768977  0.83693961  1
  Fe  Fe30  1  0.16718053  0.50241707  0.49990433  1
  Fe  Fe31  1  0.99841718  0.33452452  0.66730895  1
  Fe  Fe32  1  0.16756941  0.50227161  0.83673703  1
  Ni  Ni33  1  0.16947159  0.83409198  0.50093896  1
  Cr  Cr34  1  0.00259848  0.66770076  0.66721719  1
  Fe  Fe35  1  0.16840234  0.83419029  0.83606627  1
  Ni  Ni36  1  0.50239232  0.16883693  0.50106231  1
  Ni  Ni37  1  0.33583367  0.99899026  0.66770170  1
  Ni  Ni38  1  0.50106626  0.16697997  0.83489604  1
  Ni  Ni39  1  0.50299472  0.50162610  0.50084652  1
  Cr  Cr40  1  0.33688600  0.33504168  0.66832722  1
  Cr  Cr41  1  0.50035395  0.50148708  0.83529840  1
  Fe  Fe42  1  0.50130464  0.83466820  0.49998265  1
  Fe  Fe43  1  0.33495797  0.66955574  0.66674406  1
  Cr  Cr44  1  0.50076390  0.83551471  0.83438622  1
  Ni  Ni45  1  0.83339765  0.17014429  0.50103224  1
  Cr  Cr46  1  0.66724335  0.00398488  0.66710043  1
  Ni  Ni47  1  0.83500469  0.16732794  0.83435702  1
  Ni  Ni48  1  0.83285653  0.50037613  0.50084497  1
  Ni  Ni49  1  0.66875353  0.33442819  0.66643620  1
  Cr  Cr50  1  0.83542555  0.50117454  0.83444976  1
  Ni  Ni51  1  0.83492463  0.83349315  0.49898445  1
  Fe  Fe52  1  0.66745975  0.66717944  0.66506200  1
  Ni  Ni53  1  0.83568530  0.83570606  0.83769958  1
" 