4854,Ni49Fe28Cr21_13,-231.985988157814, 193.388884158884,Ni49Fe28Cr21,"# generated using pymatgen
 data_Cr13Fe15Ni26
_symmetry_space_group_name_H-M   'P 1'
_cell_length_a   7.44943678
_cell_length_b   7.44943678
_cell_length_c   10.53509453
_cell_angle_alpha   90.00000000
_cell_angle_beta   90.00000000
_cell_angle_gamma   90.00000000
_symmetry_Int_Tables_number   1
_chemical_formula_structural   Cr13Fe15Ni26
_chemical_formula_sum   'Cr13 Fe15 Ni26'
_cell_volume   584.63567731
_cell_formula_units_Z   1
loop_
 _symmetry_equiv_pos_site_id
 _symmetry_equiv_pos_as_xyz
  1  'x, y, z'
loop_
 _atom_site_type_symbol
 _atom_site_label
 _atom_site_symmetry_multiplicity
 _atom_site_fract_x
 _atom_site_fract_y
 _atom_site_fract_z
 _atom_site_occupancy
  Ni  Ni0  1  1.00022403  0.00301259  1.00095830  1
  Fe  Fe1  1  0.16966342  0.16815186  0.16622630  1
  Cr  Cr2  1  1.00020966  1.00113920  0.33500647  1
  Cr  Cr3  1  0.00144597  0.33447394  0.00293430  1
  Ni  Ni4  1  0.17167018  0.49933111  0.16737557  1
  Cr  Cr5  1  1.00079458  0.33709841  0.33219551  1
  Cr  Cr6  1  0.00141650  0.66607534  1.00106754  1
  Cr  Cr7  1  0.17136174  0.83490830  0.16747157  1
  Cr  Cr8  1  0.00215790  0.66528037  0.33695285  1
  Fe  Fe9  1  0.33622686  0.00264520  1.00057832  1
  Fe  Fe10  1  0.50262656  0.16605288  0.16853923  1
  Fe  Fe11  1  0.33944884  0.99987487  0.33579328  1
  Fe  Fe12  1  0.33546067  0.33376380  0.99938428  1
  Cr  Cr13  1  0.50109364  0.50237315  0.16884826  1
  Fe  Fe14  1  0.33608784  0.33463576  0.33470592  1
  Ni  Ni15  1  0.33687925  0.66710650  1.00003640  1
  Ni  Ni16  1  0.50075871  0.83490792  0.16740467  1
  Ni  Ni17  1  0.33548212  0.66882749  0.33612983  1
  Ni  Ni18  1  0.66581404  0.00159547  0.00148111  1
  Ni  Ni19  1  0.83246795  0.16819531  0.16671602  1
  Ni  Ni20  1  0.66319589  0.00126179  0.33491533  1
  Ni  Ni21  1  0.66640527  0.33326322  1.00093849  1
  Fe  Fe22  1  0.83218011  0.49957378  0.16826448  1
  Ni  Ni23  1  0.66715129  0.33288691  0.33432609  1
  Fe  Fe24  1  0.66644518  0.66823078  0.99934589  1
  Cr  Cr25  1  0.83103823  0.83702526  0.16628497  1
  Ni  Ni26  1  0.66543822  0.66934771  0.33464400  1
  Cr  Cr27  1  0.17006429  0.16701577  0.50264250  1
  Ni  Ni28  1  1.00092850  0.99972915  0.66811542  1
  Ni  Ni29  1  0.16960827  0.16766801  0.83469511  1
  Ni  Ni30  1  0.16863121  0.50343339  0.50336499  1
  Ni  Ni31  1  0.00319458  0.33813145  0.66870174  1
  Fe  Fe32  1  0.16886204  0.49937597  0.83290973  1
  Ni  Ni33  1  0.16940004  0.83299438  0.50224164  1
  Fe  Fe34  1  1.00013820  0.66775457  0.66650687  1
  Cr  Cr35  1  0.16718133  0.83760344  0.83404996  1
  Ni  Ni36  1  0.50148866  0.16656122  0.50077173  1
  Ni  Ni37  1  0.33698169  0.00161796  0.66727592  1
  Fe  Fe38  1  0.50053185  0.16812468  0.83340220  1
  Cr  Cr39  1  0.50131310  0.50036846  0.49994092  1
  Ni  Ni40  1  0.33320438  0.33466321  0.67001863  1
  Ni  Ni41  1  0.50141722  0.50085960  0.83530003  1
  Ni  Ni42  1  0.50083829  0.83561008  0.50029333  1
  Fe  Fe43  1  0.33407584  0.66851799  0.66736816  1
  Fe  Fe44  1  0.50343906  0.83447989  0.83471323  1
  Cr  Cr45  1  0.83148699  0.16753314  0.50380222  1
  Ni  Ni46  1  0.66572546  0.99854364  0.66700337  1
  Cr  Cr47  1  0.83563409  0.16589094  0.83252978  1
  Ni  Ni48  1  0.83393702  0.50274238  0.50165095  1
  Fe  Fe49  1  0.66682215  0.33416794  0.66871611  1
  Ni  Ni50  1  0.83029777  0.50219818  0.83388116  1
  Ni  Ni51  1  0.83334697  0.83350472  0.50293600  1
  Fe  Fe52  1  0.66920741  0.66915398  0.66815061  1
  Ni  Ni53  1  0.83292822  0.83454626  0.83432198  1
" 