3579,Ni49Fe21Cr29_5,-228.523080716711, 181.326480072228,Ni49Fe21Cr29,"# generated using pymatgen
 data_Cr17Fe11Ni26
_symmetry_space_group_name_H-M   'P 1'
_cell_length_a   7.46537297
_cell_length_b   7.46537297
_cell_length_c   10.55763171
_cell_angle_alpha   90.00000000
_cell_angle_beta   90.00000000
_cell_angle_gamma   90.00000000
_symmetry_Int_Tables_number   1
_chemical_formula_structural   Cr17Fe11Ni26
_chemical_formula_sum   'Cr17 Fe11 Ni26'
_cell_volume   588.39575181
_cell_formula_units_Z   1
loop_
 _symmetry_equiv_pos_site_id
 _symmetry_equiv_pos_as_xyz
  1  'x, y, z'
loop_
 _atom_site_type_symbol
 _atom_site_label
 _atom_site_symmetry_multiplicity
 _atom_site_fract_x
 _atom_site_fract_y
 _atom_site_fract_z
 _atom_site_occupancy
  Cr  Cr0  1  0.00498492  0.00080171  0.99512617  1
  Fe  Fe1  1  0.16752495  0.16914743  0.16596935  1
  Cr  Cr2  1  0.00433113  0.00152658  0.33505822  1
  Ni  Ni3  1  0.00016483  0.33148126  0.99837666  1
  Fe  Fe4  1  0.16743613  0.49885618  0.16511071  1
  Ni  Ni5  1  0.00241209  0.33540202  0.33514266  1
  Fe  Fe6  1  0.99912447  0.66475663  0.99722909  1
  Fe  Fe7  1  0.16791091  0.83437069  0.16538402  1
  Fe  Fe8  1  0.00073517  0.66634733  0.33620642  1
  Fe  Fe9  1  0.33741219  0.00340616  0.99787211  1
  Ni  Ni10  1  0.49612652  0.16320999  0.16496043  1
  Ni  Ni11  1  0.33322758  0.99873148  0.33115224  1
  Ni  Ni12  1  0.33296494  0.33278528  0.99764307  1
  Cr  Cr13  1  0.50063374  0.49661810  0.16266061  1
  Cr  Cr14  1  0.33223118  0.33311381  0.33522846  1
  Cr  Cr15  1  0.33467793  0.67062948  0.99855618  1
  Ni  Ni16  1  0.49916117  0.83687183  0.16527440  1
  Cr  Cr17  1  0.33264142  0.66948749  0.33444395  1
  Ni  Ni18  1  0.66639219  0.00025454  0.99767103  1
  Cr  Cr19  1  0.82921898  0.16630186  0.16745270  1
  Ni  Ni20  1  0.66333519  0.99733219  0.33366963  1
  Ni  Ni21  1  0.66681439  0.33230176  0.99675065  1
  Cr  Cr22  1  0.83779165  0.50045633  0.16443678  1
  Cr  Cr23  1  0.66808963  0.33352814  0.33700325  1
  Ni  Ni24  1  0.66514455  0.66649502  0.99595215  1
  Cr  Cr25  1  0.83233730  0.83232267  0.16558501  1
  Cr  Cr26  1  0.66367826  0.66590554  0.33788821  1
  Ni  Ni27  1  0.16723297  0.16854588  0.50259829  1
  Ni  Ni28  1  0.00518318  0.00166800  0.66808175  1
  Fe  Fe29  1  0.16852171  0.16798096  0.83071001  1
  Ni  Ni30  1  0.16491155  0.50063368  0.50189118  1
  Ni  Ni31  1  0.00011390  0.33156848  0.66727114  1
  Cr  Cr32  1  0.16661563  0.50099995  0.83215645  1
  Ni  Ni33  1  0.16871865  0.83260821  0.50184271  1
  Ni  Ni34  1  0.00202688  0.66692752  0.66685075  1
  Ni  Ni35  1  0.16904264  0.83387099  0.83068409  1
  Cr  Cr36  1  0.49695999  0.16179762  0.50109544  1
  Ni  Ni37  1  0.33052430  0.99810682  0.66910708  1
  Ni  Ni38  1  0.49994816  0.16682990  0.83478001  1
  Fe  Fe39  1  0.49604214  0.50135847  0.50525307  1
  Fe  Fe40  1  0.33142890  0.33385704  0.66764318  1
  Ni  Ni41  1  0.49991218  0.49996390  0.83298820  1
  Ni  Ni42  1  0.49766969  0.83380483  0.50285955  1
  Ni  Ni43  1  0.33465306  0.66977930  0.66589452  1
  Ni  Ni44  1  0.49958931  0.83560784  0.83189435  1
  Cr  Cr45  1  0.83453031  0.16570068  0.50119906  1
  Fe  Fe46  1  0.66506525  0.99927044  0.66950492  1
  Ni  Ni47  1  0.83338583  0.16710428  0.83264080  1
  Fe  Fe48  1  0.83711051  0.50126892  0.50438500  1
  Cr  Cr49  1  0.66658280  0.33501148  0.66935513  1
  Ni  Ni50  1  0.83365310  0.49789260  0.83417210  1
  Cr  Cr51  1  0.83282541  0.83392287  0.50480790  1
  Ni  Ni52  1  0.66315418  0.66538809  0.66826586  1
  Cr  Cr53  1  0.83415098  0.83214637  0.83031994  1
" 