3640,Ni49Fe49Cr1_5,-239.071671628035, 217.12445094528,Ni49Fe49Cr1,"# generated using pymatgen
 data_Cr(FeNi)13
_symmetry_space_group_name_H-M   'P 1'
_cell_length_a   7.40381677
_cell_length_b   7.40381677
_cell_length_c   10.47057809
_cell_angle_alpha   90.00000000
_cell_angle_beta   90.00000000
_cell_angle_gamma   90.00000000
_symmetry_Int_Tables_number   1
_chemical_formula_structural   Cr(FeNi)13
_chemical_formula_sum   'Cr2 Fe26 Ni26'
_cell_volume   573.96047238
_cell_formula_units_Z   2
loop_
 _symmetry_equiv_pos_site_id
 _symmetry_equiv_pos_as_xyz
  1  'x, y, z'
loop_
 _atom_site_type_symbol
 _atom_site_label
 _atom_site_symmetry_multiplicity
 _atom_site_fract_x
 _atom_site_fract_y
 _atom_site_fract_z
 _atom_site_occupancy
  Fe  Fe0  1  0.00460925  0.00475909  1.00417033  1
  Fe  Fe1  1  0.17152457  0.17018151  0.17063742  1
  Ni  Ni2  1  1.00418617  0.00433576  0.33684788  1
  Fe  Fe3  1  1.00310595  0.33679676  1.00362254  1
  Cr  Cr4  1  0.16997765  0.50387525  0.17020862  1
  Ni  Ni5  1  0.00515599  0.33631972  0.33806193  1
  Ni  Ni6  1  1.00260939  0.67224205  1.00312848  1
  Fe  Fe7  1  0.16984910  0.83833703  0.17032529  1
  Ni  Ni8  1  1.00174527  0.67222864  0.34015667  1
  Ni  Ni9  1  0.33865330  0.00537271  1.00425697  1
  Ni  Ni10  1  0.50457077  0.17018921  0.17239450  1
  Fe  Fe11  1  0.33554860  0.00442151  0.33569028  1
  Ni  Ni12  1  0.34014575  0.33590386  1.00326780  1
  Ni  Ni13  1  0.50405032  0.50477128  0.17051680  1
  Ni  Ni14  1  0.33945522  0.33636246  0.33812623  1
  Ni  Ni15  1  0.33732334  0.67130789  1.00319403  1
  Ni  Ni16  1  0.50364212  0.83791176  0.17047997  1
  Fe  Fe17  1  0.33644714  0.66994187  0.33678431  1
  Ni  Ni18  1  0.67067573  0.00561455  1.00404156  1
  Ni  Ni19  1  0.83856204  0.17083957  0.16944532  1
  Fe  Fe20  1  0.67378114  0.00567454  0.33635164  1
  Ni  Ni21  1  0.66958520  0.33666002  0.00473446  1
  Ni  Ni22  1  0.83827820  0.50417701  0.17151153  1
  Fe  Fe23  1  0.67296880  0.33804480  0.33667239  1
  Fe  Fe24  1  0.67004607  0.67058916  0.00495589  1
  Ni  Ni25  1  0.83744727  0.83795983  0.17070871  1
  Ni  Ni26  1  0.67152443  0.67024140  0.33504594  1
  Fe  Fe27  1  0.17126451  0.17082413  0.50470472  1
  Ni  Ni28  1  1.00394143  0.00443286  0.67138407  1
  Ni  Ni29  1  0.17055299  0.17068984  0.83786079  1
  Fe  Fe30  1  0.17095886  0.50343860  0.50335813  1
  Fe  Fe31  1  1.00253898  0.33657135  0.67095439  1
  Fe  Fe32  1  0.17053030  0.50208132  0.83876433  1
  Fe  Fe33  1  0.16846918  0.83821126  0.50465773  1
  Fe  Fe34  1  1.00292844  0.67187693  0.67159106  1
  Fe  Fe35  1  0.17009747  0.83885856  0.83823452  1
  Fe  Fe36  1  0.50573412  0.17296768  0.50472923  1
  Fe  Fe37  1  0.33717549  1.00423275  0.67286459  1
  Ni  Ni38  1  0.50442962  0.16920684  0.83563427  1
  Ni  Ni39  1  0.50375014  0.50516699  0.50427510  1
  Fe  Fe40  1  0.33826576  0.33682600  0.67089133  1
  Fe  Fe41  1  0.50499436  0.50181129  0.83773702  1
  Cr  Cr42  1  0.50461124  0.83780912  0.50310274  1
  Fe  Fe43  1  0.33741155  0.67116100  0.67251079  1
  Fe  Fe44  1  0.50541707  0.83902935  0.83822656  1
  Ni  Ni45  1  0.83909960  0.17066694  0.50471653  1
  Ni  Ni46  1  0.67275314  0.00447965  0.67084995  1
  Ni  Ni47  1  0.83787744  0.17144186  0.83818411  1
  Fe  Fe48  1  0.83552996  0.50463816  0.50430066  1
  Fe  Fe49  1  0.67224518  0.33703231  0.67182304  1
  Ni  Ni50  1  0.83842930  0.50428069  0.83805808  1
  Fe  Fe51  1  0.83744744  0.83782156  0.50432208  1
  Ni  Ni52  1  0.67131486  0.67035096  0.67343744  1
  Fe  Fe53  1  0.83735103  0.83962093  0.83807741  1
" 