5645,Ni49Fe28Cr21_10,-231.952562368342, 194.222601009012,Ni49Fe28Cr21,"# generated using pymatgen
 data_Cr13Fe15Ni26
_symmetry_space_group_name_H-M   'P 1'
_cell_length_a   7.44903933
_cell_length_b   7.44903933
_cell_length_c   10.53453245
_cell_angle_alpha   90.00000000
_cell_angle_beta   90.00000000
_cell_angle_gamma   90.00000000
_symmetry_Int_Tables_number   1
_chemical_formula_structural   Cr13Fe15Ni26
_chemical_formula_sum   'Cr13 Fe15 Ni26'
_cell_volume   584.54210649
_cell_formula_units_Z   1
loop_
 _symmetry_equiv_pos_site_id
 _symmetry_equiv_pos_as_xyz
  1  'x, y, z'
loop_
 _atom_site_type_symbol
 _atom_site_label
 _atom_site_symmetry_multiplicity
 _atom_site_fract_x
 _atom_site_fract_y
 _atom_site_fract_z
 _atom_site_occupancy
  Ni  Ni0  1  0.00239388  1.00075796  0.00177849  1
  Ni  Ni1  1  0.16661576  0.16914076  0.16856756  1
  Fe  Fe2  1  0.00397699  0.00208715  0.33552743  1
  Ni  Ni3  1  0.00216509  0.33538907  0.00324299  1
  Ni  Ni4  1  0.16731975  0.50046822  0.16579726  1
  Ni  Ni5  1  0.00220471  0.33459190  0.33510421  1
  Fe  Fe6  1  1.00023994  0.66897847  0.00189761  1
  Fe  Fe7  1  0.16878129  0.83537365  0.16811969  1
  Cr  Cr8  1  1.00067981  0.66651936  0.33351592  1
  Cr  Cr9  1  0.33443925  0.00214892  0.00157192  1
  Ni  Ni10  1  0.50018860  0.16627112  0.16521236  1
  Ni  Ni11  1  0.33331505  0.99858722  0.33308524  1
  Fe  Fe12  1  0.33369823  0.33414931  0.00141385  1
  Cr  Cr13  1  0.49917549  0.50318294  0.16776177  1
  Cr  Cr14  1  0.33126506  0.33338705  0.33444922  1
  Fe  Fe15  1  0.33415182  0.66777195  1.00115590  1
  Ni  Ni16  1  0.50231080  0.83387858  0.16880412  1
  Ni  Ni17  1  0.33494973  0.67127849  0.33518530  1
  Fe  Fe18  1  0.66866993  0.99947671  0.00195916  1
  Cr  Cr19  1  0.83640510  0.16629428  0.16712004  1
  Cr  Cr20  1  0.66588251  0.99792612  0.33339148  1
  Fe  Fe21  1  0.66745799  0.33515045  1.00008837  1
  Fe  Fe22  1  0.83623058  0.50225279  0.16608093  1
  Cr  Cr23  1  0.67075835  0.33672896  0.33545255  1
  Ni  Ni24  1  0.66915341  0.66795359  0.00166413  1
  Ni  Ni25  1  0.83381405  0.83458580  0.16550136  1
  Fe  Fe26  1  0.66620326  0.66927969  0.33522368  1
  Fe  Fe27  1  0.16467858  0.16574592  0.49944089  1
  Ni  Ni28  1  1.00045235  0.99849408  0.66649218  1
  Ni  Ni29  1  0.16632827  0.16600635  0.83561782  1
  Ni  Ni30  1  0.16914865  0.50356547  0.50160462  1
  Cr  Cr31  1  1.00004691  0.33506210  0.66466156  1
  Cr  Cr32  1  0.16976150  0.50361617  0.83576250  1
  Ni  Ni33  1  0.16733603  0.83301280  0.50124319  1
  Ni  Ni34  1  0.99983408  0.67040283  0.66839962  1
  Ni  Ni35  1  0.16582921  0.83425012  0.83431249  1
  Cr  Cr36  1  0.50383077  0.16797632  0.50245868  1
  Cr  Cr37  1  0.33358464  0.99921367  0.66845701  1
  Fe  Fe38  1  0.50117467  0.16892608  0.83505301  1
  Ni  Ni39  1  0.50062334  0.50549648  0.50251520  1
  Cr  Cr40  1  0.33573056  0.33522908  0.66799911  1
  Ni  Ni41  1  0.50266804  0.50216875  0.83444457  1
  Ni  Ni42  1  0.50137236  0.83002088  0.50104738  1
  Ni  Ni43  1  0.33579616  0.66909299  0.66690607  1
  Fe  Fe44  1  0.50192272  0.83251039  0.83412601  1
  Ni  Ni45  1  0.83685517  0.16630213  0.50215357  1
  Ni  Ni46  1  0.66923826  0.99928676  0.66885376  1
  Cr  Cr47  1  0.83416696  0.16549527  0.83444653  1
  Fe  Fe48  1  0.83368482  0.50250701  0.50237770  1
  Ni  Ni49  1  0.66793267  0.33659711  0.66830290  1
  Fe  Fe50  1  0.83256540  0.50335159  0.83516321  1
  Ni  Ni51  1  0.83491635  0.83651776  0.50411478  1
  Ni  Ni52  1  0.66799403  0.66774318  0.66650743  1
  Fe  Fe53  1  0.83535438  0.83307152  0.83413902  1
" 