177,Ni49Fe28Cr21_7,-231.507435801233, 191.717473038751,Ni49Fe28Cr21,"# generated using pymatgen
 data_Cr13Fe15Ni26
_symmetry_space_group_name_H-M   'P 1'
_cell_length_a   7.44777586
_cell_length_b   7.44777586
_cell_length_c   10.53274563
_cell_angle_alpha   90.00000000
_cell_angle_beta   90.00000000
_cell_angle_gamma   90.00000000
_symmetry_Int_Tables_number   1
_chemical_formula_structural   Cr13Fe15Ni26
_chemical_formula_sum   'Cr13 Fe15 Ni26'
_cell_volume   584.24471401
_cell_formula_units_Z   1
loop_
 _symmetry_equiv_pos_site_id
 _symmetry_equiv_pos_as_xyz
  1  'x, y, z'
loop_
 _atom_site_type_symbol
 _atom_site_label
 _atom_site_symmetry_multiplicity
 _atom_site_fract_x
 _atom_site_fract_y
 _atom_site_fract_z
 _atom_site_occupancy
  Cr  Cr0  1  0.00467232  0.00281572  0.99918283  1
  Fe  Fe1  1  0.17019780  0.16843764  0.17075750  1
  Ni  Ni2  1  0.00374856  1.00079056  0.33692855  1
  Ni  Ni3  1  0.00193616  0.33460758  1.00112268  1
  Ni  Ni4  1  0.17015500  0.50072030  0.16997200  1
  Ni  Ni5  1  0.00538660  0.33622489  0.33415042  1
  Cr  Cr6  1  0.99996341  0.66789576  0.99865596  1
  Cr  Cr7  1  0.17073872  0.83432663  0.16811280  1
  Fe  Fe8  1  0.00320161  0.66743694  0.33667167  1
  Ni  Ni9  1  0.33563453  1.00040481  1.00057698  1
  Ni  Ni10  1  0.50074142  0.16774309  0.16890260  1
  Ni  Ni11  1  0.33607802  0.00196524  0.33551960  1
  Cr  Cr12  1  0.33385027  0.33118623  0.00360438  1
  Ni  Ni13  1  0.49882057  0.50257782  0.16749096  1
  Ni  Ni14  1  0.33327471  0.33451709  0.33599879  1
  Fe  Fe15  1  0.33662259  0.66973442  0.00142581  1
  Ni  Ni16  1  0.49915038  0.83353796  0.16836614  1
  Fe  Fe17  1  0.33575092  0.66760829  0.33632449  1
  Cr  Cr18  1  0.66444319  0.99926500  1.00101066  1
  Cr  Cr19  1  0.83530516  0.16778770  0.16935341  1
  Ni  Ni20  1  0.66405375  0.99794778  0.33610327  1
  Ni  Ni21  1  0.66801818  0.33593898  0.99922479  1
  Cr  Cr22  1  0.83453177  0.49998379  0.16637348  1
  Cr  Cr23  1  0.66345144  0.33595482  0.33568109  1
  Ni  Ni24  1  0.66639548  0.66819950  0.00160455  1
  Cr  Cr25  1  0.83336007  0.83595738  0.17166275  1
  Fe  Fe26  1  0.66472352  0.66848467  0.33587746  1
  Ni  Ni27  1  0.16878940  0.16625204  0.50006457  1
  Fe  Fe28  1  0.00333174  0.99916190  0.66798185  1
  Fe  Fe29  1  0.16979160  0.16587835  0.83267040  1
  Fe  Fe30  1  0.17118834  0.50123993  0.50063581  1
  Cr  Cr31  1  0.00205496  0.33500414  0.66807074  1
  Cr  Cr32  1  0.17107921  0.50305844  0.83378022  1
  Ni  Ni33  1  0.16827462  0.83454375  0.50233768  1
  Fe  Fe34  1  0.00266211  0.67087858  0.66754392  1
  Ni  Ni35  1  0.17025393  0.83562600  0.83291034  1
  Ni  Ni36  1  0.49950961  0.16746457  0.50285018  1
  Ni  Ni37  1  0.33490195  1.00040319  0.66780975  1
  Fe  Fe38  1  0.50056562  0.16592380  0.83304114  1
  Ni  Ni39  1  0.49985125  0.50221720  0.50246175  1
  Ni  Ni40  1  0.33485692  0.33277628  0.66481533  1
  Cr  Cr41  1  0.50083960  0.50197975  0.83428942  1
  Ni  Ni42  1  0.49959132  0.83419289  0.50114141  1
  Ni  Ni43  1  0.33649037  0.67010274  0.66682064  1
  Ni  Ni44  1  0.50001964  0.83385111  0.83460227  1
  Cr  Cr45  1  0.83414102  0.16630009  0.49973402  1
  Fe  Fe46  1  0.66513957  1.00012583  0.66823401  1
  Ni  Ni47  1  0.83384175  0.16906176  0.83458918  1
  Fe  Fe48  1  0.83431170  0.50364257  0.50096894  1
  Fe  Fe49  1  0.66506688  0.33484970  0.66784211  1
  Fe  Fe50  1  0.83276674  0.50287859  0.83441285  1
  Fe  Fe51  1  0.83355075  0.83408596  0.50114140  1
  Ni  Ni52  1  0.66887171  0.66971475  0.66707221  1
  Ni  Ni53  1  0.83391632  0.83660031  0.83138701  1
" 