3542,Ni49Fe28Cr21_0,-232.524048198389, 195.614477557412,Ni49Fe28Cr21,"# generated using pymatgen
 data_Cr13Fe15Ni26
_symmetry_space_group_name_H-M   'P 1'
_cell_length_a   7.45095793
_cell_length_b   7.45095793
_cell_length_c   10.53724576
_cell_angle_alpha   90.00000000
_cell_angle_beta   90.00000000
_cell_angle_gamma   90.00000000
_symmetry_Int_Tables_number   1
_chemical_formula_structural   Cr13Fe15Ni26
_chemical_formula_sum   'Cr13 Fe15 Ni26'
_cell_volume   584.99389218
_cell_formula_units_Z   1
loop_
 _symmetry_equiv_pos_site_id
 _symmetry_equiv_pos_as_xyz
  1  'x, y, z'
loop_
 _atom_site_type_symbol
 _atom_site_label
 _atom_site_symmetry_multiplicity
 _atom_site_fract_x
 _atom_site_fract_y
 _atom_site_fract_z
 _atom_site_occupancy
  Fe  Fe0  1  0.99801994  1.00038750  1.00045330  1
  Cr  Cr1  1  0.16870403  0.16971373  0.16862717  1
  Cr  Cr2  1  1.00069315  0.99882566  0.33557077  1
  Ni  Ni3  1  0.00154231  0.33613447  0.99983923  1
  Fe  Fe4  1  0.16678673  0.50203836  0.16775173  1
  Fe  Fe5  1  1.00057031  0.33732889  0.33367873  1
  Ni  Ni6  1  0.99945968  0.66743795  0.00134979  1
  Fe  Fe7  1  0.16510529  0.83153803  0.16875483  1
  Ni  Ni8  1  0.00187136  0.66828415  0.33389943  1
  Cr  Cr9  1  0.33558204  0.00329236  0.99972048  1
  Ni  Ni10  1  0.50180379  0.16994013  0.16796114  1
  Fe  Fe11  1  0.33350426  1.00054304  0.33442447  1
  Ni  Ni12  1  0.33449698  0.33543697  0.99996643  1
  Fe  Fe13  1  0.50247634  0.49896985  0.16861323  1
  Ni  Ni14  1  0.33545341  0.33643769  0.33473909  1
  Fe  Fe15  1  0.33395892  0.66503324  0.99998074  1
  Cr  Cr16  1  0.50181933  0.83401051  0.16890644  1
  Ni  Ni17  1  0.33233876  0.66462225  0.33557841  1
  Ni  Ni18  1  0.66983300  1.00091269  0.99973629  1
  Ni  Ni19  1  0.83296312  0.16971918  0.16613376  1
  Cr  Cr20  1  0.66944438  0.00161174  0.33426795  1
  Fe  Fe21  1  0.66809711  0.33466238  0.00169906  1
  Ni  Ni22  1  0.83520561  0.50178672  0.16831996  1
  Ni  Ni23  1  0.66570035  0.33578958  0.33279264  1
  Ni  Ni24  1  0.67052840  0.66844513  1.00023294  1
  Ni  Ni25  1  0.83523623  0.83173883  0.16669917  1
  Ni  Ni26  1  0.66902589  0.66548878  0.33438525  1
  Fe  Fe27  1  0.16755608  0.17019074  0.50089535  1
  Cr  Cr28  1  1.00058948  0.00116742  0.66813726  1
  Ni  Ni29  1  0.16800055  0.17085350  0.83403902  1
  Ni  Ni30  1  0.16930615  0.50029426  0.50012456  1
  Fe  Fe31  1  0.00268756  0.33395335  0.66948893  1
  Ni  Ni32  1  0.16798224  0.49887685  0.83496023  1
  Ni  Ni33  1  0.16728902  0.83303921  0.49911415  1
  Cr  Cr34  1  0.00223202  0.66761782  0.66802595  1
  Fe  Fe35  1  0.16804985  0.83235865  0.83542794  1
  Cr  Cr36  1  0.49972003  0.17040036  0.49956359  1
  Cr  Cr37  1  0.33321626  0.00238880  0.66840498  1
  Ni  Ni38  1  0.50026526  0.16892122  0.83559446  1
  Ni  Ni39  1  0.49840590  0.50003611  0.50005708  1
  Ni  Ni40  1  0.33370505  0.33629065  0.66853496  1
  Ni  Ni41  1  0.49995378  0.50048085  0.83451684  1
  Cr  Cr42  1  0.50010807  0.83198004  0.49963844  1
  Fe  Fe43  1  0.33374454  0.66501320  0.66775826  1
  Ni  Ni44  1  0.50213119  0.83383530  0.83503519  1
  Fe  Fe45  1  0.83587112  0.16903025  0.50038606  1
  Cr  Cr46  1  0.66943304  0.00118761  0.66903827  1
  Fe  Fe47  1  0.83397873  0.16952721  0.83655327  1
  Cr  Cr48  1  0.83477473  0.50061718  0.49945936  1
  Fe  Fe49  1  0.66678919  0.33468721  0.66890520  1
  Ni  Ni50  1  0.83530283  0.50074768  0.83578510  1
  Ni  Ni51  1  0.83657728  0.83400614  0.49875135  1
  Cr  Cr52  1  0.66704589  0.66685572  0.66823386  1
  Ni  Ni53  1  0.83336756  0.83381693  0.83779200  1
" 