7147,Ni49Fe28Cr21_11,-231.640112830454, 192.261928658068,Ni49Fe28Cr21,"# generated using pymatgen
 data_Cr13Fe15Ni26
_symmetry_space_group_name_H-M   'P 1'
_cell_length_a   7.45006623
_cell_length_b   7.45006623
_cell_length_c   10.53598470
_cell_angle_alpha   90.00000000
_cell_angle_beta   90.00000000
_cell_angle_gamma   90.00000000
_symmetry_Int_Tables_number   1
_chemical_formula_structural   Cr13Fe15Ni26
_chemical_formula_sum   'Cr13 Fe15 Ni26'
_cell_volume   584.78388811
_cell_formula_units_Z   1
loop_
 _symmetry_equiv_pos_site_id
 _symmetry_equiv_pos_as_xyz
  1  'x, y, z'
loop_
 _atom_site_type_symbol
 _atom_site_label
 _atom_site_symmetry_multiplicity
 _atom_site_fract_x
 _atom_site_fract_y
 _atom_site_fract_z
 _atom_site_occupancy
  Ni  Ni0  1  0.99984281  0.00437605  1.00001074  1
  Fe  Fe1  1  0.16562621  0.17066825  0.16752872  1
  Ni  Ni2  1  1.00030070  0.00242189  0.33681628  1
  Ni  Ni3  1  0.00281100  0.33282225  0.00163034  1
  Fe  Fe4  1  0.16641372  0.49881854  0.16876159  1
  Ni  Ni5  1  1.00056149  0.33279665  0.33177556  1
  Cr  Cr6  1  0.99962765  0.66535409  1.00091179  1
  Cr  Cr7  1  0.16894519  0.83474462  0.16801571  1
  Ni  Ni8  1  0.00233116  0.66820635  0.33475479  1
  Fe  Fe9  1  0.33546971  0.00268670  1.00083807  1
  Fe  Fe10  1  0.50233365  0.16722359  0.16766909  1
  Cr  Cr11  1  0.33474478  0.00143900  0.33525742  1
  Ni  Ni12  1  0.33217490  0.33406575  1.00038150  1
  Cr  Cr13  1  0.49979014  0.50066582  0.16789985  1
  Ni  Ni14  1  0.33473167  0.33432824  0.33466210  1
  Ni  Ni15  1  0.33661244  0.66756802  1.00049466  1
  Fe  Fe16  1  0.50183852  0.83544191  0.16552394  1
  Ni  Ni17  1  0.33375964  0.66750178  0.33597953  1
  Ni  Ni18  1  0.66703668  0.99993122  1.00082264  1
  Ni  Ni19  1  0.83526127  0.16896866  0.16838768  1
  Fe  Fe20  1  0.66966069  0.00375353  0.33521270  1
  Cr  Cr21  1  0.66937711  0.33426319  1.00037559  1
  Ni  Ni22  1  0.83565699  0.49752854  0.16883625  1
  Ni  Ni23  1  0.66808442  0.33219161  0.33500012  1
  Fe  Fe24  1  0.66699916  0.66893341  0.99908489  1
  Cr  Cr25  1  0.83437136  0.83641268  0.16732283  1
  Cr  Cr26  1  0.66772846  0.66779082  0.33389935  1
  Ni  Ni27  1  0.16810007  0.16682887  0.49941731  1
  Cr  Cr28  1  0.99942245  0.99957600  0.66643125  1
  Fe  Fe29  1  0.16808929  0.16978705  0.83641564  1
  Cr  Cr30  1  0.17091462  0.50217539  0.49990596  1
  Cr  Cr31  1  1.00111984  0.33469388  0.66984482  1
  Fe  Fe32  1  0.16886657  0.50069554  0.83471615  1
  Ni  Ni33  1  0.16688678  0.83451271  0.50049107  1
  Ni  Ni34  1  0.99922610  0.66896879  0.66800870  1
  Cr  Cr35  1  0.16805444  0.83468787  0.83445775  1
  Fe  Fe36  1  0.50265790  0.16994816  0.50150366  1
  Cr  Cr37  1  0.33582458  0.00220702  0.66654229  1
  Fe  Fe38  1  0.50223054  0.16725704  0.83419683  1
  Ni  Ni39  1  0.49980240  0.49951449  0.50292920  1
  Ni  Ni40  1  0.33740209  0.33504572  0.66839368  1
  Fe  Fe41  1  0.50086248  0.50267020  0.83321009  1
  Fe  Fe42  1  0.50209074  0.83350702  0.50253083  1
  Fe  Fe43  1  0.33670265  0.66651026  0.66762784  1
  Ni  Ni44  1  0.50308310  0.83391774  0.83653227  1
  Ni  Ni45  1  0.83277757  0.16540288  0.49960861  1
  Ni  Ni46  1  0.66744630  1.00010161  0.66704932  1
  Fe  Fe47  1  0.83309125  0.16603138  0.83542101  1
  Cr  Cr48  1  0.83203652  0.50040002  0.50032049  1
  Ni  Ni49  1  0.66489733  0.33469693  0.66806498  1
  Ni  Ni50  1  0.83317875  0.50138256  0.83398671  1
  Ni  Ni51  1  0.83544738  0.83720932  0.50172151  1
  Ni  Ni52  1  0.66770163  0.66857542  0.66988915  1
  Ni  Ni53  1  0.83153781  0.83433567  0.83447188  1
" 