6061,Ni49Fe28Cr21_1,-231.729541840987, 194.569607903151,Ni49Fe28Cr21,"# generated using pymatgen
 data_Cr13Fe15Ni26
_symmetry_space_group_name_H-M   'P 1'
_cell_length_a   7.44833411
_cell_length_b   7.44833411
_cell_length_c   10.53353512
_cell_angle_alpha   90.00000000
_cell_angle_beta   90.00000000
_cell_angle_gamma   90.00000000
_symmetry_Int_Tables_number   1
_chemical_formula_structural   Cr13Fe15Ni26
_chemical_formula_sum   'Cr13 Fe15 Ni26'
_cell_volume   584.37610166
_cell_formula_units_Z   1
loop_
 _symmetry_equiv_pos_site_id
 _symmetry_equiv_pos_as_xyz
  1  'x, y, z'
loop_
 _atom_site_type_symbol
 _atom_site_label
 _atom_site_symmetry_multiplicity
 _atom_site_fract_x
 _atom_site_fract_y
 _atom_site_fract_z
 _atom_site_occupancy
  Ni  Ni0  1  0.00202924  0.00186345  0.00125677  1
  Fe  Fe1  1  0.16664722  0.16819891  0.16872834  1
  Ni  Ni2  1  1.00092085  0.00390330  0.33591808  1
  Cr  Cr3  1  1.00012298  0.33473671  1.00067926  1
  Cr  Cr4  1  0.17034351  0.50097336  0.16949731  1
  Ni  Ni5  1  1.00015767  0.33435315  0.33590879  1
  Fe  Fe6  1  1.00119354  0.66845041  0.99889668  1
  Cr  Cr7  1  0.16720200  0.83444925  0.16701949  1
  Fe  Fe8  1  0.99955806  0.66724149  0.33777406  1
  Cr  Cr9  1  0.33510641  1.00006516  1.00069913  1
  Fe  Fe10  1  0.50401689  0.16915263  0.16838585  1
  Cr  Cr11  1  0.33535242  1.00091996  0.33500506  1
  Fe  Fe12  1  0.33694856  0.33477997  1.00039714  1
  Ni  Ni13  1  0.50192347  0.50103433  0.16724436  1
  Fe  Fe14  1  0.33504131  0.33406670  0.33532808  1
  Ni  Ni15  1  0.33638198  0.66761702  0.99955747  1
  Ni  Ni16  1  0.50308025  0.83219775  0.16814925  1
  Fe  Fe17  1  0.33576649  0.66739503  0.33442388  1
  Ni  Ni18  1  0.66644496  0.00203192  0.00277065  1
  Ni  Ni19  1  0.83327224  0.16776984  0.16851600  1
  Ni  Ni20  1  0.66780947  0.00156735  0.33512668  1
  Ni  Ni21  1  0.66699169  0.33600941  0.00196953  1
  Fe  Fe22  1  0.83134260  0.50028767  0.16902729  1
  Ni  Ni23  1  0.67000735  0.33516431  0.33379548  1
  Fe  Fe24  1  0.66594120  0.66713809  1.00121652  1
  Cr  Cr25  1  0.83358586  0.83713329  0.16680003  1
  Ni  Ni26  1  0.66729402  0.66700096  0.33382680  1
  Ni  Ni27  1  0.16650815  0.16635078  0.50031658  1
  Ni  Ni28  1  0.00606344  0.99924256  0.66655969  1
  Ni  Ni29  1  0.16926753  0.16589334  0.83473656  1
  Ni  Ni30  1  0.16664722  0.50327302  0.50021469  1
  Cr  Cr31  1  0.00139612  0.33594216  0.66667661  1
  Fe  Fe32  1  0.16817577  0.50419806  0.83507178  1
  Ni  Ni33  1  0.16683506  0.83419304  0.50284909  1
  Ni  Ni34  1  0.00178368  0.66808323  0.66739497  1
  Ni  Ni35  1  0.16935301  0.83443457  0.83403142  1
  Ni  Ni36  1  0.50210597  0.16692773  0.50009329  1
  Ni  Ni37  1  0.33265471  0.99926619  0.66841071  1
  Fe  Fe38  1  0.49997288  0.16701069  0.83556292  1
  Cr  Cr39  1  0.50129102  0.50191533  0.50012519  1
  Cr  Cr40  1  0.33302529  0.33252838  0.66928059  1
  Fe  Fe41  1  0.50141158  0.50319109  0.83659311  1
  Fe  Fe42  1  0.50121665  0.83497328  0.50121391  1
  Fe  Fe43  1  0.33315701  0.67119478  0.66909550  1
  Ni  Ni44  1  0.49898062  0.83227701  0.83430965  1
  Ni  Ni45  1  0.83518306  0.16699557  0.49915793  1
  Cr  Cr46  1  0.66539759  0.99972117  0.66536574  1
  Cr  Cr47  1  0.83491103  0.16725093  0.83494192  1
  Ni  Ni48  1  0.83552943  0.50200894  0.49942547  1
  Cr  Cr49  1  0.66936052  0.33668446  0.66779066  1
  Ni  Ni50  1  0.83284863  0.50294762  0.83577777  1
  Fe  Fe51  1  0.83611513  0.83417924  0.50059340  1
  Ni  Ni52  1  0.66842596  0.66773265  0.66871809  1
  Cr  Cr53  1  0.83573656  0.83391864  0.83561068  1
" 