2168,Ni49Fe21Cr29_1,-228.360149487192, 178.213153270653,Ni49Fe21Cr29,"# generated using pymatgen
 data_Cr17Fe11Ni26
_symmetry_space_group_name_H-M   'P 1'
_cell_length_a   7.46675660
_cell_length_b   7.46675660
_cell_length_c   10.55958845
_cell_angle_alpha   90.00000000
_cell_angle_beta   90.00000000
_cell_angle_gamma   90.00000000
_symmetry_Int_Tables_number   1
_chemical_formula_structural   Cr17Fe11Ni26
_chemical_formula_sum   'Cr17 Fe11 Ni26'
_cell_volume   588.72297003
_cell_formula_units_Z   1
loop_
 _symmetry_equiv_pos_site_id
 _symmetry_equiv_pos_as_xyz
  1  'x, y, z'
loop_
 _atom_site_type_symbol
 _atom_site_label
 _atom_site_symmetry_multiplicity
 _atom_site_fract_x
 _atom_site_fract_y
 _atom_site_fract_z
 _atom_site_occupancy
  Ni  Ni0  1  0.00190198  0.99712635  0.00280252  1
  Cr  Cr1  1  0.16686157  0.16650120  0.16452036  1
  Ni  Ni2  1  0.99920357  0.99882967  0.33374571  1
  Cr  Cr3  1  0.00054938  0.33368237  0.99936209  1
  Ni  Ni4  1  0.17234919  0.50160134  0.16783895  1
  Cr  Cr5  1  0.99962754  0.33225527  0.33375208  1
  Cr  Cr6  1  0.00008674  0.66806374  0.00172914  1
  Fe  Fe7  1  0.16736173  0.83447003  0.16628756  1
  Cr  Cr8  1  0.00183742  0.66919446  0.33237177  1
  Ni  Ni9  1  0.33315361  0.00131940  0.99827100  1
  Ni  Ni10  1  0.50055396  0.16751611  0.16705439  1
  Cr  Cr11  1  0.33338109  0.99968871  0.33744254  1
  Ni  Ni12  1  0.33607918  0.33273676  0.00024541  1
  Ni  Ni13  1  0.49643414  0.50041816  0.16818519  1
  Fe  Fe14  1  0.33272866  0.33263512  0.33371736  1
  Fe  Fe15  1  0.33383685  0.66592197  0.99942573  1
  Cr  Cr16  1  0.50002221  0.83303596  0.16504885  1
  Fe  Fe17  1  0.33177070  0.66672652  0.33459049  1
  Ni  Ni18  1  0.66516219  0.99979519  0.00268375  1
  Ni  Ni19  1  0.83186536  0.16095890  0.16757324  1
  Fe  Fe20  1  0.66886510  0.00090367  0.33391516  1
  Cr  Cr21  1  0.66373406  0.33381974  0.99915472  1
  Cr  Cr22  1  0.83102570  0.49987408  0.16663454  1
  Fe  Fe23  1  0.66533121  0.32918248  0.33251265  1
  Ni  Ni24  1  0.66547186  0.66644624  0.99972599  1
  Ni  Ni25  1  0.83247137  0.83659725  0.16698108  1
  Fe  Fe26  1  0.66667722  0.66896812  0.33217592  1
  Ni  Ni27  1  0.16543371  0.16663478  0.50186741  1
  Ni  Ni28  1  0.00087515  0.99960180  0.66369944  1
  Ni  Ni29  1  0.16847092  0.16496373  0.83229089  1
  Ni  Ni30  1  0.16805890  0.50072983  0.50127990  1
  Ni  Ni31  1  0.00096525  0.33263345  0.66541334  1
  Cr  Cr32  1  0.16812286  0.49808071  0.83001470  1
  Ni  Ni33  1  0.16573442  0.83304898  0.50067243  1
  Fe  Fe34  1  0.00321052  0.66878767  0.66629828  1
  Ni  Ni35  1  0.16673295  0.83555375  0.83485582  1
  Ni  Ni36  1  0.50126941  0.16624765  0.49887508  1
  Cr  Cr37  1  0.33388497  0.00096177  0.66599544  1
  Ni  Ni38  1  0.49714950  0.16661567  0.83480006  1
  Cr  Cr39  1  0.49810635  0.50077642  0.49795725  1
  Ni  Ni40  1  0.33273928  0.33417980  0.66495431  1
  Ni  Ni41  1  0.49856676  0.50118897  0.83383099  1
  Fe  Fe42  1  0.50067567  0.83361730  0.50071191  1
  Ni  Ni43  1  0.33254386  0.66734913  0.66511518  1
  Cr  Cr44  1  0.50003811  0.83394852  0.83377388  1
  Ni  Ni45  1  0.83391883  0.16308564  0.49919721  1
  Ni  Ni46  1  0.66728115  0.99939035  0.66245305  1
  Cr  Cr47  1  0.83635632  0.16384579  0.83419063  1
  Cr  Cr48  1  0.83362164  0.50017929  0.50377167  1
  Cr  Cr49  1  0.66467499  0.33064075  0.67083489  1
  Ni  Ni50  1  0.83199053  0.50289527  0.83051212  1
  Fe  Fe51  1  0.83411684  0.83595042  0.49989545  1
  Fe  Fe52  1  0.66479462  0.66735605  0.66775548  1
  Cr  Cr53  1  0.83337519  0.83451998  0.83228734  1
" 