1444,Ni49Fe21Cr29_14,-228.52216241277, 177.360463713773,Ni49Fe21Cr29,"# generated using pymatgen
 data_Cr17Fe11Ni26
_symmetry_space_group_name_H-M   'P 1'
_cell_length_a   7.46946709
_cell_length_b   7.46946709
_cell_length_c   10.56342166
_cell_angle_alpha   90.00000000
_cell_angle_beta   90.00000000
_cell_angle_gamma   90.00000000
_symmetry_Int_Tables_number   1
_chemical_formula_structural   Cr17Fe11Ni26
_chemical_formula_sum   'Cr17 Fe11 Ni26'
_cell_volume   589.36433626
_cell_formula_units_Z   1
loop_
 _symmetry_equiv_pos_site_id
 _symmetry_equiv_pos_as_xyz
  1  'x, y, z'
loop_
 _atom_site_type_symbol
 _atom_site_label
 _atom_site_symmetry_multiplicity
 _atom_site_fract_x
 _atom_site_fract_y
 _atom_site_fract_z
 _atom_site_occupancy
  Fe  Fe0  1  0.99776128  0.00041197  0.99967288  1
  Fe  Fe1  1  0.16582948  0.16602605  0.16529374  1
  Fe  Fe2  1  0.99792477  0.00338597  0.33341219  1
  Fe  Fe3  1  0.99742684  0.33304660  0.00002278  1
  Cr  Cr4  1  0.16608104  0.50022403  0.16628899  1
  Fe  Fe5  1  0.99747806  0.33138308  0.33381902  1
  Fe  Fe6  1  0.99662779  0.66598898  0.99916119  1
  Fe  Fe7  1  0.16665998  0.83379537  0.16555603  1
  Fe  Fe8  1  0.99738446  0.66502244  0.33322824  1
  Fe  Fe9  1  0.33592587  0.99834384  0.00181039  1
  Ni  Ni10  1  0.50036881  0.16448061  0.16469203  1
  Cr  Cr11  1  0.33330369  0.99914291  0.33253518  1
  Ni  Ni12  1  0.33167164  0.33304373  0.00237645  1
  Ni  Ni13  1  0.49971683  0.50195872  0.16577152  1
  Cr  Cr14  1  0.33441841  0.33213866  0.33462568  1
  Ni  Ni15  1  0.33378629  0.66823430  0.00258234  1
  Ni  Ni16  1  0.50044176  0.83298878  0.16577881  1
  Fe  Fe17  1  0.33805521  0.66710274  0.33238831  1
  Ni  Ni18  1  0.66842042  0.99825505  0.00018808  1
  Ni  Ni19  1  0.83427468  0.16514558  0.16673839  1
  Ni  Ni20  1  0.66613269  0.00003706  0.33316156  1
  Cr  Cr21  1  0.66871393  0.33380279  0.00294586  1
  Ni  Ni22  1  0.83399525  0.50058026  0.16666398  1
  Cr  Cr23  1  0.66765518  0.33332138  0.33174306  1
  Ni  Ni24  1  0.66688484  0.66818008  0.99935440  1
  Cr  Cr25  1  0.83098019  0.83369696  0.16777944  1
  Ni  Ni26  1  0.66652482  0.66583393  0.33318006  1
  Ni  Ni27  1  0.16380652  0.16754380  0.50090711  1
  Ni  Ni28  1  0.99684161  0.00086849  0.66634452  1
  Cr  Cr29  1  0.16619186  0.16857599  0.83286446  1
  Cr  Cr30  1  0.16502554  0.49863439  0.50118821  1
  Ni  Ni31  1  0.99734889  0.33266419  0.66568235  1
  Cr  Cr32  1  0.16641811  0.49806976  0.83226445  1
  Cr  Cr33  1  0.16371023  0.83325244  0.49796712  1
  Ni  Ni34  1  0.99623699  0.66608957  0.66777855  1
  Cr  Cr35  1  0.16534887  0.83281610  0.83478947  1
  Ni  Ni36  1  0.50108167  0.16537889  0.50085450  1
  Cr  Cr37  1  0.33419603  0.99960576  0.66491756  1
  Cr  Cr38  1  0.50106371  0.16490591  0.83394138  1
  Ni  Ni39  1  0.50114103  0.50116669  0.49930783  1
  Ni  Ni40  1  0.33237661  0.33241073  0.66331246  1
  Cr  Cr41  1  0.49905349  0.50048474  0.83419265  1
  Ni  Ni42  1  0.50295128  0.83313539  0.49873477  1
  Cr  Cr43  1  0.33493033  0.66771378  0.66462374  1
  Ni  Ni44  1  0.50388305  0.83319785  0.83495818  1
  Ni  Ni45  1  0.83402957  0.16589852  0.49964048  1
  Ni  Ni46  1  0.66895939  0.99878167  0.66644698  1
  Ni  Ni47  1  0.83448154  0.16428893  0.83295471  1
  Ni  Ni48  1  0.83344490  0.50019445  0.49943613  1
  Cr  Cr49  1  0.66854442  0.33326213  0.66476895  1
  Ni  Ni50  1  0.83496928  0.50151733  0.83336699  1
  Cr  Cr51  1  0.83112667  0.83420506  0.50006463  1
  Fe  Fe52  1  0.66845267  0.66714957  0.66669360  1
  Ni  Ni53  1  0.83119582  0.83387029  0.83248190  1
" 