8572,Ni49Fe28Cr21_5,-231.798626617017, 192.102624419854,Ni49Fe28Cr21,"# generated using pymatgen
 data_Cr13Fe15Ni26
_symmetry_space_group_name_H-M   'P 1'
_cell_length_a   7.45278199
_cell_length_b   7.45278199
_cell_length_c   10.53982537
_cell_angle_alpha   90.00000000
_cell_angle_beta   90.00000000
_cell_angle_gamma   90.00000000
_symmetry_Int_Tables_number   1
_chemical_formula_structural   Cr13Fe15Ni26
_chemical_formula_sum   'Cr13 Fe15 Ni26'
_cell_volume   585.42363332
_cell_formula_units_Z   1
loop_
 _symmetry_equiv_pos_site_id
 _symmetry_equiv_pos_as_xyz
  1  'x, y, z'
loop_
 _atom_site_type_symbol
 _atom_site_label
 _atom_site_symmetry_multiplicity
 _atom_site_fract_x
 _atom_site_fract_y
 _atom_site_fract_z
 _atom_site_occupancy
  Fe  Fe0  1  0.00115550  0.00097521  0.00180107  1
  Fe  Fe1  1  0.16692339  0.16779400  0.16802131  1
  Fe  Fe2  1  0.00271399  0.00100106  0.33197950  1
  Ni  Ni3  1  0.00208927  0.33459751  0.00253387  1
  Ni  Ni4  1  0.16628811  0.50122184  0.16632463  1
  Fe  Fe5  1  1.00077747  0.33644057  0.33170713  1
  Ni  Ni6  1  0.00279375  0.66672357  0.00200854  1
  Fe  Fe7  1  0.16852516  0.83349675  0.16620838  1
  Fe  Fe8  1  0.00248747  0.66624459  0.33024318  1
  Ni  Ni9  1  0.33447906  0.00202076  0.00242364  1
  Ni  Ni10  1  0.50090047  0.16600904  0.16725243  1
  Fe  Fe11  1  0.33367499  0.99969262  0.33083328  1
  Ni  Ni12  1  0.32930202  0.32983186  0.00172853  1
  Cr  Cr13  1  0.49797779  0.49952348  0.16013705  1
  Ni  Ni14  1  0.33051674  0.33358793  0.33162642  1
  Ni  Ni15  1  0.32924600  0.67083560  1.00020332  1
  Ni  Ni16  1  0.50074522  0.83642233  0.16667987  1
  Ni  Ni17  1  0.33541952  0.66596526  0.33120876  1
  Ni  Ni18  1  0.66737678  0.00194521  0.00158465  1
  Ni  Ni19  1  0.83426350  0.16682179  0.16709099  1
  Fe  Fe20  1  0.66667813  1.00028744  0.32896586  1
  Ni  Ni21  1  0.67153581  0.32926948  0.00196258  1
  Ni  Ni22  1  0.83753543  0.50048119  0.16747332  1
  Fe  Fe23  1  0.66602321  0.33757094  0.32942644  1
  Cr  Cr24  1  0.67318270  0.67149308  0.00164821  1
  Ni  Ni25  1  0.83715531  0.83656766  0.16806961  1
  Ni  Ni26  1  0.66927842  0.66894542  0.33003138  1
  Ni  Ni27  1  0.16521867  0.16839135  0.49806167  1
  Ni  Ni28  1  0.00229172  0.00349172  0.66939158  1
  Fe  Fe29  1  0.16591793  0.16747263  0.83603015  1
  Fe  Fe30  1  0.16609097  0.49887530  0.49843161  1
  Ni  Ni31  1  1.00081241  0.33533337  0.66578708  1
  Ni  Ni32  1  0.16370891  0.50128882  0.83538206  1
  Cr  Cr33  1  0.16675503  0.83205468  0.50144257  1
  Fe  Fe34  1  0.00151456  0.66674001  0.67157739  1
  Ni  Ni35  1  0.16517909  0.83437297  0.83591799  1
  Cr  Cr36  1  0.50075337  0.16935067  0.49734631  1
  Cr  Cr37  1  0.33286570  1.00078436  0.66935630  1
  Ni  Ni38  1  0.50267153  0.16711423  0.83837800  1
  Cr  Cr39  1  0.50074177  0.50101405  0.50055097  1
  Cr  Cr40  1  0.33166425  0.33295448  0.66896628  1
  Cr  Cr41  1  0.49861462  0.49731638  0.84230217  1
  Cr  Cr42  1  0.50071396  0.83224681  0.49951699  1
  Fe  Fe43  1  0.33204701  0.66647619  0.67225929  1
  Ni  Ni44  1  0.49836510  0.83713550  0.83810397  1
  Cr  Cr45  1  0.83452122  0.16925658  0.49972268  1
  Cr  Cr46  1  0.66806960  0.00172608  0.67217712  1
  Fe  Fe47  1  0.83659969  0.16890630  0.83638362  1
  Fe  Fe48  1  0.83494691  0.50151159  0.49998818  1
  Ni  Ni49  1  0.67094046  0.33577488  0.66986338  1
  Ni  Ni50  1  0.83842186  0.49806106  0.83569963  1
  Cr  Cr51  1  0.83594238  0.83435024  0.50013744  1
  Cr  Cr52  1  0.66839248  0.66718971  0.67351214  1
  Ni  Ni53  1  0.83887515  0.83672550  0.83622109  1
" 