1313,Ni49Fe28Cr21_12,-231.714221033105, 191.153376215339,Ni49Fe28Cr21,"# generated using pymatgen
 data_Cr13Fe15Ni26
_symmetry_space_group_name_H-M   'P 1'
_cell_length_a   7.44565075
_cell_length_b   7.44565075
_cell_length_c   10.52974027
_cell_angle_alpha   90.00000000
_cell_angle_beta   90.00000000
_cell_angle_gamma   90.00000000
_symmetry_Int_Tables_number   1
_chemical_formula_structural   Cr13Fe15Ni26
_chemical_formula_sum   'Cr13 Fe15 Ni26'
_cell_volume   583.74474153
_cell_formula_units_Z   1
loop_
 _symmetry_equiv_pos_site_id
 _symmetry_equiv_pos_as_xyz
  1  'x, y, z'
loop_
 _atom_site_type_symbol
 _atom_site_label
 _atom_site_symmetry_multiplicity
 _atom_site_fract_x
 _atom_site_fract_y
 _atom_site_fract_z
 _atom_site_occupancy
  Ni  Ni0  1  0.00358562  0.99930869  1.00057697  1
  Ni  Ni1  1  0.17037068  0.16662700  0.16828233  1
  Fe  Fe2  1  0.00292738  0.00166626  0.33489757  1
  Cr  Cr3  1  0.00568683  0.33604058  1.00010222  1
  Ni  Ni4  1  0.17041708  0.50089878  0.17196056  1
  Ni  Ni5  1  0.00399484  0.33397409  0.33617986  1
  Cr  Cr6  1  1.00083844  0.66955628  0.00330466  1
  Fe  Fe7  1  0.16869404  0.83450808  0.16951572  1
  Fe  Fe8  1  0.00315408  0.66832287  0.33391874  1
  Fe  Fe9  1  0.33402093  0.00240066  0.00150946  1
  Fe  Fe10  1  0.49932241  0.16917341  0.16957655  1
  Ni  Ni11  1  0.33296798  1.00047380  0.33272774  1
  Ni  Ni12  1  0.33383515  0.33259707  0.00163423  1
  Ni  Ni13  1  0.49927695  0.50316194  0.17153066  1
  Ni  Ni14  1  0.33207110  0.33508472  0.33411494  1
  Cr  Cr15  1  0.33363855  0.66699380  0.99890507  1
  Fe  Fe16  1  0.50093171  0.83555675  0.16997873  1
  Ni  Ni17  1  0.33464293  0.66914579  0.33786432  1
  Ni  Ni18  1  0.66713101  0.99911725  0.99993272  1
  Cr  Cr19  1  0.83491175  0.16697450  0.16960093  1
  Ni  Ni20  1  0.66849645  0.99843558  0.33643725  1
  Cr  Cr21  1  0.66468886  0.33662130  0.00156303  1
  Ni  Ni22  1  0.83459480  0.50335041  0.17278724  1
  Ni  Ni23  1  0.66806885  0.33566448  0.33402102  1
  Cr  Cr24  1  0.66956982  0.66914742  1.00102947  1
  Fe  Fe25  1  0.83476571  0.83525922  0.16938169  1
  Ni  Ni26  1  0.66757497  0.67000309  0.33342173  1
  Ni  Ni27  1  0.16483606  0.16729280  0.49900081  1
  Fe  Fe28  1  0.00153050  1.00031152  0.66812472  1
  Ni  Ni29  1  0.16974029  0.16689916  0.83633747  1
  Ni  Ni30  1  0.16939689  0.50349296  0.50042933  1
  Fe  Fe31  1  0.00358595  0.33573996  0.66664253  1
  Ni  Ni32  1  0.16765106  0.50254920  0.83212850  1
  Fe  Fe33  1  0.16716904  0.83400215  0.50106344  1
  Ni  Ni34  1  0.00267010  0.67049363  0.66963293  1
  Ni  Ni35  1  0.16800282  0.83472419  0.83437808  1
  Cr  Cr36  1  0.50263707  0.16788435  0.49595991  1
  Cr  Cr37  1  0.33352142  1.00098704  0.66865731  1
  Ni  Ni38  1  0.49986698  0.16395187  0.83889059  1
  Ni  Ni39  1  0.49881718  0.50555802  0.49862449  1
  Cr  Cr40  1  0.33299115  0.33392877  0.66796511  1
  Fe  Fe41  1  0.49856475  0.50121364  0.83481742  1
  Fe  Fe42  1  0.50056927  0.83371544  0.49930125  1
  Fe  Fe43  1  0.33264285  0.66815946  0.66765830  1
  Ni  Ni44  1  0.50098792  0.83725192  0.83438124  1
  Ni  Ni45  1  0.83738777  0.16390801  0.50098004  1
  Fe  Fe46  1  0.66880387  0.99990903  0.66782694  1
  Cr  Cr47  1  0.83580025  0.16635178  0.83293937  1
  Cr  Cr48  1  0.83560123  0.50034442  0.49813506  1
  Cr  Cr49  1  0.66719387  0.33382978  0.66904185  1
  Ni  Ni50  1  0.83822276  0.50393487  0.83366708  1
  Fe  Fe51  1  0.83621348  0.83554123  0.50130156  1
  Cr  Cr52  1  0.66775486  0.66987189  0.67015693  1
  Ni  Ni53  1  0.83525268  0.83568007  0.83479325  1
" 