5514,Ni49Fe21Cr29_3,-228.285478574205, 178.250282582443,Ni49Fe21Cr29,"# generated using pymatgen
 data_Cr17Fe11Ni26
_symmetry_space_group_name_H-M   'P 1'
_cell_length_a   7.46734101
_cell_length_b   7.46734101
_cell_length_c   10.56041493
_cell_angle_alpha   90.00000000
_cell_angle_beta   90.00000000
_cell_angle_gamma   90.00000000
_symmetry_Int_Tables_number   1
_chemical_formula_structural   Cr17Fe11Ni26
_chemical_formula_sum   'Cr17 Fe11 Ni26'
_cell_volume   588.86121617
_cell_formula_units_Z   1
loop_
 _symmetry_equiv_pos_site_id
 _symmetry_equiv_pos_as_xyz
  1  'x, y, z'
loop_
 _atom_site_type_symbol
 _atom_site_label
 _atom_site_symmetry_multiplicity
 _atom_site_fract_x
 _atom_site_fract_y
 _atom_site_fract_z
 _atom_site_occupancy
  Cr  Cr0  1  0.00075813  0.00084836  0.00080421  1
  Cr  Cr1  1  0.16473425  0.16605952  0.16861135  1
  Ni  Ni2  1  0.00184270  0.99757504  0.33276277  1
  Ni  Ni3  1  0.99892032  0.33540014  0.99958948  1
  Fe  Fe4  1  0.16444224  0.50154907  0.16831385  1
  Ni  Ni5  1  0.00308470  0.33494883  0.33298084  1
  Cr  Cr6  1  0.99935813  0.66474580  0.00120110  1
  Ni  Ni7  1  0.16662391  0.83214393  0.16797763  1
  Ni  Ni8  1  0.00238229  0.66748698  0.33394424  1
  Ni  Ni9  1  0.33523219  0.00052157  0.00006266  1
  Fe  Fe10  1  0.50108815  0.16500556  0.16537717  1
  Fe  Fe11  1  0.33018003  0.99986699  0.33519411  1
  Cr  Cr12  1  0.33261986  0.33213609  0.99751634  1
  Cr  Cr13  1  0.49948651  0.50020962  0.16537004  1
  Ni  Ni14  1  0.33036382  0.33298584  0.33464439  1
  Fe  Fe15  1  0.33343576  0.66665410  0.00053370  1
  Cr  Cr16  1  0.49760277  0.83274370  0.16483991  1
  Ni  Ni17  1  0.32857277  0.66665815  0.33361979  1
  Ni  Ni18  1  0.66450015  0.00047531  0.00128552  1
  Ni  Ni19  1  0.83355615  0.16766589  0.16540728  1
  Cr  Cr20  1  0.66702455  0.99971045  0.33399397  1
  Ni  Ni21  1  0.66729667  0.33386256  0.99970202  1
  Fe  Fe22  1  0.83599090  0.49952153  0.16586077  1
  Cr  Cr23  1  0.66596271  0.33242426  0.33214379  1
  Ni  Ni24  1  0.66740061  0.66556169  0.00014415  1
  Ni  Ni25  1  0.83481901  0.83403298  0.16711537  1
  Cr  Cr26  1  0.66938681  0.66788352  0.33429874  1
  Ni  Ni27  1  0.16877587  0.16585457  0.49939023  1
  Cr  Cr28  1  0.00203608  0.99988416  0.66645144  1
  Ni  Ni29  1  0.16923589  0.16976680  0.83207350  1
  Fe  Fe30  1  0.16519275  0.49850104  0.49981943  1
  Ni  Ni31  1  0.00270647  0.33666956  0.66735387  1
  Ni  Ni32  1  0.16626782  0.49813726  0.83141629  1
  Ni  Ni33  1  0.16788019  0.83292761  0.49844823  1
  Fe  Fe34  1  0.00134841  0.66312111  0.66511200  1
  Cr  Cr35  1  0.16974456  0.83329269  0.83404821  1
  Ni  Ni36  1  0.49696719  0.16564000  0.50087215  1
  Ni  Ni37  1  0.33464546  0.00259041  0.66475801  1
  Ni  Ni38  1  0.49937192  0.16731687  0.83292573  1
  Cr  Cr39  1  0.49884411  0.49886515  0.50095293  1
  Ni  Ni40  1  0.33219140  0.33152044  0.66756485  1
  Fe  Fe41  1  0.50029660  0.49751448  0.83333402  1
  Fe  Fe42  1  0.49720366  0.83599974  0.50094042  1
  Fe  Fe43  1  0.33115204  0.66583400  0.66547212  1
  Cr  Cr44  1  0.49887328  0.83396207  0.83468181  1
  Cr  Cr45  1  0.83456119  0.16906006  0.50146032  1
  Ni  Ni46  1  0.66273015  0.00062719  0.66528179  1
  Cr  Cr47  1  0.83226409  0.17010222  0.83328929  1
  Ni  Ni48  1  0.83608621  0.50042361  0.50018504  1
  Ni  Ni49  1  0.66505411  0.33337908  0.66797612  1
  Ni  Ni50  1  0.83336092  0.49737129  0.83400869  1
  Fe  Fe51  1  0.83556892  0.83294039  0.49943375  1
  Cr  Cr52  1  0.66847752  0.66624573  0.66529228  1
  Cr  Cr53  1  0.83143625  0.83271414  0.83310140  1
" 