993,Ni49Fe28Cr21_3,-231.709770799723, 194.309633401318,Ni49Fe28Cr21,"# generated using pymatgen
 data_Cr13Fe15Ni26
_symmetry_space_group_name_H-M   'P 1'
_cell_length_a   7.44756793
_cell_length_b   7.44756793
_cell_length_c   10.53245158
_cell_angle_alpha   90.00000000
_cell_angle_beta   90.00000000
_cell_angle_gamma   90.00000000
_symmetry_Int_Tables_number   1
_chemical_formula_structural   Cr13Fe15Ni26
_chemical_formula_sum   'Cr13 Fe15 Ni26'
_cell_volume   584.19578332
_cell_formula_units_Z   1
loop_
 _symmetry_equiv_pos_site_id
 _symmetry_equiv_pos_as_xyz
  1  'x, y, z'
loop_
 _atom_site_type_symbol
 _atom_site_label
 _atom_site_symmetry_multiplicity
 _atom_site_fract_x
 _atom_site_fract_y
 _atom_site_fract_z
 _atom_site_occupancy
  Ni  Ni0  1  0.00414024  0.99980683  0.00145901  1
  Ni  Ni1  1  0.16909616  0.16776340  0.16754868  1
  Ni  Ni2  1  0.00141730  1.00058553  0.33413647  1
  Ni  Ni3  1  0.00327852  0.33657608  0.00174844  1
  Fe  Fe4  1  0.16802053  0.50058517  0.16662257  1
  Fe  Fe5  1  0.00158683  0.33448322  0.33350531  1
  Ni  Ni6  1  1.00015207  0.66754122  0.00190609  1
  Ni  Ni7  1  0.16705777  0.83539266  0.16691917  1
  Cr  Cr8  1  0.00161351  0.66947221  0.33357619  1
  Ni  Ni9  1  0.33277385  0.00332471  0.00216684  1
  Ni  Ni10  1  0.49896659  0.16935734  0.16857939  1
  Fe  Fe11  1  0.33449232  0.00141166  0.33411898  1
  Ni  Ni12  1  0.33375655  0.33317414  0.99978608  1
  Cr  Cr13  1  0.49993063  0.50011425  0.16665681  1
  Ni  Ni14  1  0.33608642  0.33303674  0.33476087  1
  Ni  Ni15  1  0.33336374  0.66742698  1.00008468  1
  Cr  Cr16  1  0.49951032  0.83518288  0.16795421  1
  Ni  Ni17  1  0.33379845  0.66769967  0.33608356  1
  Cr  Cr18  1  0.66699436  1.00025359  1.00056611  1
  Cr  Cr19  1  0.83536620  0.16779019  0.16911792  1
  Ni  Ni20  1  0.66752993  0.00287537  0.33669277  1
  Fe  Fe21  1  0.66724030  0.33702246  1.00055622  1
  Fe  Fe22  1  0.83632731  0.50164183  0.16595554  1
  Fe  Fe23  1  0.66658920  0.33335838  0.33577432  1
  Ni  Ni24  1  0.67040866  0.66655982  0.99962561  1
  Ni  Ni25  1  0.83743862  0.83450777  0.16680756  1
  Cr  Cr26  1  0.66905019  0.66849159  0.33671832  1
  Cr  Cr27  1  0.16767719  0.16765705  0.50138354  1
  Ni  Ni28  1  1.00087188  1.00103790  0.66832800  1
  Fe  Fe29  1  0.16697418  0.16922401  0.83598549  1
  Cr  Cr30  1  0.16983082  0.50192157  0.50153146  1
  Ni  Ni31  1  0.00189773  0.33433638  0.66853485  1
  Ni  Ni32  1  0.16969607  0.50043362  0.83539738  1
  Ni  Ni33  1  0.16899668  0.83435835  0.50064551  1
  Cr  Cr34  1  0.99970343  0.66851792  0.66787229  1
  Fe  Fe35  1  0.16700049  0.83389030  0.83629596  1
  Ni  Ni36  1  0.50198559  0.16803699  0.49913271  1
  Cr  Cr37  1  0.33437455  1.00120001  0.66818209  1
  Fe  Fe38  1  0.49945664  0.16905400  0.83573995  1
  Fe  Fe39  1  0.50123530  0.50203533  0.50109835  1
  Fe  Fe40  1  0.33406985  0.33637314  0.66917572  1
  Fe  Fe41  1  0.50103619  0.50317156  0.83562367  1
  Fe  Fe42  1  0.50160813  0.83415597  0.50130031  1
  Ni  Ni43  1  0.33719878  0.66751835  0.66775461  1
  Fe  Fe44  1  0.50178772  0.83169939  0.83495055  1
  Cr  Cr45  1  0.83433319  0.16662310  0.50107872  1
  Fe  Fe46  1  0.66874391  0.99799162  0.66734790  1
  Cr  Cr47  1  0.83674338  0.16709760  0.83372676  1
  Ni  Ni48  1  0.83273099  0.50173604  0.50156420  1
  Cr  Cr49  1  0.66738926  0.33666032  0.66740102  1
  Ni  Ni50  1  0.83492889  0.50286374  0.83666951  1
  Ni  Ni51  1  0.83333067  0.83550086  0.50272051  1
  Ni  Ni52  1  0.66709873  0.66854530  0.66735721  1
  Ni  Ni53  1  0.83393372  0.83354443  0.83439456  1
" 