3871,Ni49Fe49Cr1_0,-239.749089527938, 222.387007153942,Ni49Fe49Cr1,"# generated using pymatgen
 data_Cr(FeNi)13
_symmetry_space_group_name_H-M   'P 1'
_cell_length_a   7.40439524
_cell_length_b   7.40439524
_cell_length_c   10.47139617
_cell_angle_alpha   90.00000000
_cell_angle_beta   90.00000000
_cell_angle_gamma   90.00000000
_symmetry_Int_Tables_number   1
_chemical_formula_structural   Cr(FeNi)13
_chemical_formula_sum   'Cr2 Fe26 Ni26'
_cell_volume   574.09501676
_cell_formula_units_Z   2
loop_
 _symmetry_equiv_pos_site_id
 _symmetry_equiv_pos_as_xyz
  1  'x, y, z'
loop_
 _atom_site_type_symbol
 _atom_site_label
 _atom_site_symmetry_multiplicity
 _atom_site_fract_x
 _atom_site_fract_y
 _atom_site_fract_z
 _atom_site_occupancy
  Fe  Fe0  1  0.00590838  1.00377678  0.00577831  1
  Ni  Ni1  1  0.17168415  0.17008850  0.17164838  1
  Ni  Ni2  1  1.00386494  0.00602940  0.33751207  1
  Fe  Fe3  1  1.00386677  0.33545552  0.00438123  1
  Fe  Fe4  1  0.17142386  0.50337134  0.17096363  1
  Ni  Ni5  1  0.00483902  0.33669380  0.33669342  1
  Ni  Ni6  1  1.00279462  0.66954902  0.00490793  1
  Ni  Ni7  1  0.16946719  0.83752120  0.17092360  1
  Fe  Fe8  1  1.00415071  0.67123446  0.33587211  1
  Ni  Ni9  1  0.33959276  0.00642525  0.00437216  1
  Ni  Ni10  1  0.50465993  0.17162045  0.17152834  1
  Fe  Fe11  1  0.33759890  1.00361016  0.33577290  1
  Ni  Ni12  1  0.33603812  0.33631378  0.00552926  1
  Fe  Fe13  1  0.50268840  0.50365853  0.17136990  1
  Fe  Fe14  1  0.33784199  0.33744873  0.33793907  1
  Fe  Fe15  1  0.33646113  0.67317764  0.00572711  1
  Fe  Fe16  1  0.50259345  0.83944098  0.17064466  1
  Ni  Ni17  1  0.33907547  0.67077234  0.33585584  1
  Ni  Ni18  1  0.67131434  1.00421450  0.00549969  1
  Fe  Fe19  1  0.83826447  0.16976880  0.17238404  1
  Fe  Fe20  1  0.67054309  0.00431493  0.33802666  1
  Fe  Fe21  1  0.67070186  0.33562318  0.00511412  1
  Fe  Fe22  1  0.83798113  0.50344566  0.17033339  1
  Fe  Fe23  1  0.67103791  0.33834519  0.33789776  1
  Fe  Fe24  1  0.67084837  0.67213803  0.00544688  1
  Fe  Fe25  1  0.83786502  0.83919862  0.17193373  1
  Ni  Ni26  1  0.66973344  0.67204890  0.33638430  1
  Fe  Fe27  1  0.17225551  0.17008143  0.50237570  1
  Fe  Fe28  1  0.00545252  1.00193098  0.66923736  1
  Ni  Ni29  1  0.17132514  0.16930261  0.83869666  1
  Ni  Ni30  1  0.17060012  0.50641624  0.50188954  1
  Cr  Cr31  1  0.00545096  0.33729381  0.67104959  1
  Ni  Ni32  1  0.16933993  0.50395694  0.84079888  1
  Fe  Fe33  1  0.17308763  0.83749783  0.50185254  1
  Fe  Fe34  1  0.00534399  0.67195898  0.67189139  1
  Fe  Fe35  1  0.17235492  0.83674365  0.83985448  1
  Ni  Ni36  1  0.50454035  0.17060387  0.50445196  1
  Fe  Fe37  1  0.33944391  1.00343632  0.67188560  1
  Ni  Ni38  1  0.50368327  0.16946220  0.83679922  1
  Ni  Ni39  1  0.50233335  0.50498925  0.50453551  1
  Ni  Ni40  1  0.33522313  0.33767209  0.66943888  1
  Cr  Cr41  1  0.50376454  0.50366846  0.83770015  1
  Ni  Ni42  1  0.50514055  0.83738704  0.50296894  1
  Ni  Ni43  1  0.33751872  0.67112546  0.67168508  1
  Ni  Ni44  1  0.50558667  0.83939899  0.83930750  1
  Ni  Ni45  1  0.83702628  0.16912784  0.50300731  1
  Ni  Ni46  1  0.67149869  1.00267645  0.66993291  1
  Fe  Fe47  1  0.83569909  0.17033748  0.83742309  1
  Fe  Fe48  1  0.83500801  0.50494182  0.50329525  1
  Fe  Fe49  1  0.66886231  0.33747088  0.66934733  1
  Ni  Ni50  1  0.83795579  0.50595651  0.83748462  1
  Ni  Ni51  1  0.83894456  0.83693581  0.50300200  1
  Ni  Ni52  1  0.67046697  0.67437195  0.67040934  1
  Fe  Fe53  1  0.83771445  0.83843018  0.83769944  1
" 