4004,Ni49Fe21Cr29_17,-228.490474529219, 181.095471731639,Ni49Fe21Cr29,"# generated using pymatgen
 data_Cr17Fe11Ni26
_symmetry_space_group_name_H-M   'P 1'
_cell_length_a   7.46954479
_cell_length_b   7.46954479
_cell_length_c   10.56353155
_cell_angle_alpha   90.00000000
_cell_angle_beta   90.00000000
_cell_angle_gamma   90.00000000
_symmetry_Int_Tables_number   1
_chemical_formula_structural   Cr17Fe11Ni26
_chemical_formula_sum   'Cr17 Fe11 Ni26'
_cell_volume   589.38272919
_cell_formula_units_Z   1
loop_
 _symmetry_equiv_pos_site_id
 _symmetry_equiv_pos_as_xyz
  1  'x, y, z'
loop_
 _atom_site_type_symbol
 _atom_site_label
 _atom_site_symmetry_multiplicity
 _atom_site_fract_x
 _atom_site_fract_y
 _atom_site_fract_z
 _atom_site_occupancy
  Ni  Ni0  1  0.00110658  0.99738722  0.99902094  1
  Ni  Ni1  1  0.16598281  0.16640910  0.16630971  1
  Fe  Fe2  1  0.00107108  0.00003681  0.33204665  1
  Cr  Cr3  1  0.99835934  0.33265639  0.00151442  1
  Ni  Ni4  1  0.16630153  0.50243797  0.16843094  1
  Ni  Ni5  1  0.00098517  0.33414871  0.33342289  1
  Ni  Ni6  1  0.00111564  0.67058021  0.00153331  1
  Ni  Ni7  1  0.16544996  0.83064478  0.16474107  1
  Ni  Ni8  1  0.00192968  0.66578787  0.33142801  1
  Ni  Ni9  1  0.33197024  0.99688077  0.99887037  1
  Cr  Cr10  1  0.49967715  0.16601525  0.16610297  1
  Cr  Cr11  1  0.33132172  0.99752871  0.33240491  1
  Cr  Cr12  1  0.33428508  0.33314150  0.00003297  1
  Fe  Fe13  1  0.49835790  0.50152129  0.16779297  1
  Ni  Ni14  1  0.33007448  0.33551926  0.33317708  1
  Ni  Ni15  1  0.33253566  0.67026972  0.00119245  1
  Ni  Ni16  1  0.49994730  0.83183202  0.16630889  1
  Ni  Ni17  1  0.33029124  0.66564300  0.33139625  1
  Fe  Fe18  1  0.66660006  0.99935105  0.99911836  1
  Cr  Cr19  1  0.83319852  0.16515087  0.16752368  1
  Ni  Ni20  1  0.66871842  0.99924195  0.33176829  1
  Ni  Ni21  1  0.66630691  0.33220781  0.99814370  1
  Fe  Fe22  1  0.83458136  0.50172545  0.16814924  1
  Ni  Ni23  1  0.66851361  0.33282970  0.33258022  1
  Cr  Cr24  1  0.66563182  0.66633013  0.00102445  1
  Ni  Ni25  1  0.83423737  0.83208252  0.16664628  1
  Fe  Fe26  1  0.66617979  0.66617182  0.33011418  1
  Ni  Ni27  1  0.16572104  0.16674738  0.50072310  1
  Fe  Fe28  1  0.00276123  0.99879130  0.66778387  1
  Fe  Fe29  1  0.16801480  0.16358955  0.83282181  1
  Ni  Ni30  1  0.16576020  0.49964905  0.49861316  1
  Cr  Cr31  1  0.00169734  0.33161409  0.66497364  1
  Cr  Cr32  1  0.16773973  0.50288567  0.83269659  1
  Ni  Ni33  1  0.16375830  0.83308983  0.50043868  1
  Ni  Ni34  1  -0.00015924  0.66950205  0.66670586  1
  Fe  Fe35  1  0.16611577  0.83562944  0.83449225  1
  Cr  Cr36  1  0.49850090  0.16728851  0.49858885  1
  Ni  Ni37  1  0.33050421  0.00120440  0.66815047  1
  Ni  Ni38  1  0.49984231  0.16540448  0.83412458  1
  Cr  Cr39  1  0.49781324  0.49914156  0.49896356  1
  Ni  Ni40  1  0.33196327  0.33001327  0.66680174  1
  Ni  Ni41  1  0.49978664  0.49879703  0.83285403  1
  Cr  Cr42  1  0.49952043  0.83294491  0.49872876  1
  Cr  Cr43  1  0.33276004  0.66771108  0.66621496  1
  Fe  Fe44  1  0.49883700  0.83376367  0.83431875  1
  Fe  Fe45  1  0.83595220  0.16597154  0.49699511  1
  Cr  Cr46  1  0.66628288  0.99923329  0.66850546  1
  Ni  Ni47  1  0.83152140  0.16257211  0.83460225  1
  Cr  Cr48  1  0.83483269  0.50142695  0.49900900  1
  Cr  Cr49  1  0.66585044  0.33331719  0.66830652  1
  Cr  Cr50  1  0.83317344  0.50187609  0.83336229  1
  Cr  Cr51  1  0.83535732  0.83315465  0.49940792  1
  Ni  Ni52  1  0.66781592  0.66804437  0.66825347  1
  Fe  Fe53  1  0.83451958  0.83407816  0.83374160  1
" 