5370,Ni49Fe49Cr1_10,-239.034551239449, 217.633965810676,Ni49Fe49Cr1,"# generated using pymatgen
 data_Cr(FeNi)13
_symmetry_space_group_name_H-M   'P 1'
_cell_length_a   7.40612361
_cell_length_b   7.40612361
_cell_length_c   10.47384045
_cell_angle_alpha   90.00000000
_cell_angle_beta   90.00000000
_cell_angle_gamma   90.00000000
_symmetry_Int_Tables_number   1
_chemical_formula_structural   Cr(FeNi)13
_chemical_formula_sum   'Cr2 Fe26 Ni26'
_cell_volume   574.49713393
_cell_formula_units_Z   2
loop_
 _symmetry_equiv_pos_site_id
 _symmetry_equiv_pos_as_xyz
  1  'x, y, z'
loop_
 _atom_site_type_symbol
 _atom_site_label
 _atom_site_symmetry_multiplicity
 _atom_site_fract_x
 _atom_site_fract_y
 _atom_site_fract_z
 _atom_site_occupancy
  Fe  Fe0  1  1.00250303  0.00436117  1.00406075  1
  Fe  Fe1  1  0.17059427  0.17039693  0.17133874  1
  Ni  Ni2  1  0.00478549  1.00376636  0.33744394  1
  Fe  Fe3  1  1.00344155  0.33797035  1.00397891  1
  Ni  Ni4  1  0.17053712  0.50390958  0.17185017  1
  Fe  Fe5  1  1.00343748  0.33666642  0.33747345  1
  Fe  Fe6  1  1.00310266  0.67000820  1.00376942  1
  Fe  Fe7  1  0.17028241  0.83790233  0.17109956  1
  Fe  Fe8  1  1.00334525  0.67061737  0.33744386  1
  Fe  Fe9  1  0.33791689  0.00510514  0.00542445  1
  Ni  Ni10  1  0.50432638  0.16936887  0.17099442  1
  Ni  Ni11  1  0.33664259  0.00485101  0.33781825  1
  Fe  Fe12  1  0.33772603  0.33797147  0.00440603  1
  Fe  Fe13  1  0.50565508  0.50393341  0.17088463  1
  Ni  Ni14  1  0.33718759  0.33584624  0.33673753  1
  Fe  Fe15  1  0.33732435  0.66926114  0.00444916  1
  Ni  Ni16  1  0.50466007  0.83784261  0.17158362  1
  Fe  Fe17  1  0.33767463  0.67230127  0.33690269  1
  Fe  Fe18  1  0.67191766  0.00476252  0.00556889  1
  Ni  Ni19  1  0.83695293  0.17077508  0.17117948  1
  Ni  Ni20  1  0.67090815  0.00440500  0.33724563  1
  Ni  Ni21  1  0.67058696  0.33800363  0.00414832  1
  Ni  Ni22  1  0.83855155  0.50424361  0.17049045  1
  Ni  Ni23  1  0.67100723  0.33693890  0.33601659  1
  Ni  Ni24  1  0.67205988  0.66903431  1.00391740  1
  Ni  Ni25  1  0.83573852  0.83731938  0.17104172  1
  Ni  Ni26  1  0.67209551  0.67099635  0.33707009  1
  Ni  Ni27  1  0.17051469  0.17105947  0.50370789  1
  Fe  Fe28  1  1.00390359  0.00430138  0.67083461  1
  Ni  Ni29  1  0.17004203  0.17269266  0.83776504  1
  Fe  Fe30  1  0.16952606  0.50358049  0.50451927  1
  Fe  Fe31  1  0.00428460  0.33806286  0.67088693  1
  Ni  Ni32  1  0.17106267  0.50317051  0.83623397  1
  Fe  Fe33  1  0.17096141  0.83819671  0.50434083  1
  Ni  Ni34  1  0.00520980  0.67153089  0.67145262  1
  Fe  Fe35  1  0.16827261  0.83756092  0.83690093  1
  Ni  Ni36  1  0.50359622  0.16784038  0.50481567  1
  Fe  Fe37  1  0.33675253  0.00476939  0.66916768  1
  Fe  Fe38  1  0.50446419  0.17292264  0.83748686  1
  Cr  Cr39  1  0.50424853  0.50541036  0.50309024  1
  Fe  Fe40  1  0.33603458  0.33724763  0.67133867  1
  Fe  Fe41  1  0.50449695  0.50202127  0.83725048  1
  Ni  Ni42  1  0.50390070  0.83892849  0.50367197  1
  Ni  Ni43  1  0.33436190  0.67121711  0.67104311  1
  Cr  Cr44  1  0.50560742  0.83657427  0.83699506  1
  Ni  Ni45  1  0.83822533  0.17119940  0.50374284  1
  Fe  Fe46  1  0.67168348  0.00447974  0.66950527  1
  Ni  Ni47  1  0.83842457  0.17052792  0.83741651  1
  Ni  Ni48  1  0.83949600  0.50392829  0.50445071  1
  Ni  Ni49  1  0.67129999  0.33609852  0.67217565  1
  Fe  Fe50  1  0.83761632  0.50384830  0.83734715  1
  Fe  Fe51  1  0.83700839  0.83809917  0.50385825  1
  Fe  Fe52  1  0.67249443  0.67070243  0.67063544  1
  Ni  Ni53  1  0.83765625  0.83757662  0.83713465  1
" 