1524,Ni49Fe49Cr1_13,-239.494684307319, 221.012333272744,Ni49Fe49Cr1,"# generated using pymatgen
 data_Cr(FeNi)13
_symmetry_space_group_name_H-M   'P 1'
_cell_length_a   7.40884443
_cell_length_b   7.40884443
_cell_length_c   10.47768827
_cell_angle_alpha   90.00000000
_cell_angle_beta   90.00000000
_cell_angle_gamma   90.00000000
_symmetry_Int_Tables_number   1
_chemical_formula_structural   Cr(FeNi)13
_chemical_formula_sum   'Cr2 Fe26 Ni26'
_cell_volume   575.13053331
_cell_formula_units_Z   2
loop_
 _symmetry_equiv_pos_site_id
 _symmetry_equiv_pos_as_xyz
  1  'x, y, z'
loop_
 _atom_site_type_symbol
 _atom_site_label
 _atom_site_symmetry_multiplicity
 _atom_site_fract_x
 _atom_site_fract_y
 _atom_site_fract_z
 _atom_site_occupancy
  Fe  Fe0  1  0.00410397  1.00347924  0.00460632  1
  Ni  Ni1  1  0.16996911  0.16927963  0.17225414  1
  Ni  Ni2  1  1.00311070  0.00395024  0.33788836  1
  Fe  Fe3  1  1.00226477  0.33797138  1.00330724  1
  Fe  Fe4  1  0.16962200  0.50503313  0.17126441  1
  Fe  Fe5  1  1.00272876  0.33603935  0.33614278  1
  Fe  Fe6  1  1.00354959  0.67033224  0.00432372  1
  Ni  Ni7  1  0.17036077  0.83746775  0.17061414  1
  Ni  Ni8  1  0.00478126  0.67204442  0.33608304  1
  Fe  Fe9  1  0.33744085  1.00180935  0.00407340  1
  Ni  Ni10  1  0.50427359  0.17030578  0.17164872  1
  Fe  Fe11  1  0.33703524  0.00408560  0.33733043  1
  Cr  Cr12  1  0.33703788  0.33851262  0.00399266  1
  Ni  Ni13  1  0.50510929  0.50487501  0.17187725  1
  Fe  Fe14  1  0.33845692  0.33587411  0.33641347  1
  Ni  Ni15  1  0.33728103  0.67129639  1.00358438  1
  Fe  Fe16  1  0.50423566  0.83729755  0.17029524  1
  Ni  Ni17  1  0.33696245  0.67033902  0.33562998  1
  Fe  Fe18  1  0.67023848  1.00309388  1.00365626  1
  Ni  Ni19  1  0.83754029  0.17066657  0.17065607  1
  Ni  Ni20  1  0.67179731  0.00585879  0.33670540  1
  Fe  Fe21  1  0.67207803  0.33836216  0.00495891  1
  Ni  Ni22  1  0.83667556  0.50448478  0.17088549  1
  Ni  Ni23  1  0.67009242  0.33587580  0.33709640  1
  Ni  Ni24  1  0.67043114  0.67098825  1.00390225  1
  Ni  Ni25  1  0.83770112  0.83663382  0.17069224  1
  Fe  Fe26  1  0.67104916  0.67068535  0.33667873  1
  Ni  Ni27  1  0.17077519  0.16924199  0.50361708  1
  Fe  Fe28  1  0.00404817  0.00402451  0.67060211  1
  Ni  Ni29  1  0.16955203  0.17087458  0.83591568  1
  Cr  Cr30  1  0.17087708  0.50319035  0.50235124  1
  Fe  Fe31  1  1.00351843  0.33625927  0.67233005  1
  Ni  Ni32  1  0.16956951  0.50403171  0.83700625  1
  Fe  Fe33  1  0.17203199  0.83862634  0.50289619  1
  Fe  Fe34  1  1.00275412  0.67149890  0.67156282  1
  Fe  Fe35  1  0.17012192  0.83666653  0.83772754  1
  Ni  Ni36  1  0.50344952  0.16986538  0.50422002  1
  Fe  Fe37  1  0.33789463  1.00386527  0.67038030  1
  Fe  Fe38  1  0.50554071  0.16954979  0.83619002  1
  Ni  Ni39  1  0.50544531  0.50477146  0.50453870  1
  Fe  Fe40  1  0.33809799  0.33609142  0.67129671  1
  Fe  Fe41  1  0.50480752  0.50540179  0.83672679  1
  Ni  Ni42  1  0.50484305  0.83714696  0.50278806  1
  Ni  Ni43  1  0.33747070  0.67034109  0.67256736  1
  Ni  Ni44  1  0.50443689  0.83680371  0.83793310  1
  Fe  Fe45  1  0.83595635  0.17035894  0.50363168  1
  Ni  Ni46  1  0.67147358  0.00495834  0.67109179  1
  Ni  Ni47  1  0.83805502  0.17066836  0.83752432  1
  Fe  Fe48  1  0.83486072  0.50332825  0.50356055  1
  Fe  Fe49  1  0.67017117  0.33738701  0.66999856  1
  Ni  Ni50  1  0.83798009  0.50429045  0.83697616  1
  Fe  Fe51  1  0.83662594  0.83810031  0.50356293  1
  Fe  Fe52  1  0.67001183  0.67129681  0.67138340  1
  Ni  Ni53  1  0.83581263  0.83682771  0.83716858  1
" 