6486,Ni49Fe21Cr29_4,-228.280390887297, 179.570613902944,Ni49Fe21Cr29,"# generated using pymatgen
 data_Cr17Fe11Ni26
_symmetry_space_group_name_H-M   'P 1'
_cell_length_a   7.46572388
_cell_length_b   7.46572388
_cell_length_c   10.55812797
_cell_angle_alpha   90.00000000
_cell_angle_beta   90.00000000
_cell_angle_gamma   90.00000000
_symmetry_Int_Tables_number   1
_chemical_formula_structural   Cr17Fe11Ni26
_chemical_formula_sum   'Cr17 Fe11 Ni26'
_cell_volume   588.47872846
_cell_formula_units_Z   1
loop_
 _symmetry_equiv_pos_site_id
 _symmetry_equiv_pos_as_xyz
  1  'x, y, z'
loop_
 _atom_site_type_symbol
 _atom_site_label
 _atom_site_symmetry_multiplicity
 _atom_site_fract_x
 _atom_site_fract_y
 _atom_site_fract_z
 _atom_site_occupancy
  Ni  Ni0  1  0.00026749  0.00027205  0.99945353  1
  Ni  Ni1  1  0.16629546  0.16939923  0.16486574  1
  Fe  Fe2  1  0.00031466  0.00135254  0.32942434  1
  Ni  Ni3  1  0.00050657  0.33488613  0.00033202  1
  Ni  Ni4  1  0.16777141  0.49967494  0.16496261  1
  Cr  Cr5  1  0.00200246  0.33663418  0.33027331  1
  Ni  Ni6  1  0.99989516  0.66540562  0.00061931  1
  Ni  Ni7  1  0.16114112  0.83162865  0.16525922  1
  Ni  Ni8  1  0.00035549  0.66557463  0.32994265  1
  Cr  Cr9  1  0.33137087  0.00118079  0.00180179  1
  Ni  Ni10  1  0.50230113  0.17224733  0.16675103  1
  Cr  Cr11  1  0.33513925  0.00242203  0.33189345  1
  Fe  Fe12  1  0.33193172  0.33539149  0.00211202  1
  Ni  Ni13  1  0.49975256  0.49552465  0.16499956  1
  Ni  Ni14  1  0.33337216  0.33219586  0.33277756  1
  Ni  Ni15  1  0.33090134  0.66405957  0.00040450  1
  Cr  Cr16  1  0.50150748  0.83172570  0.16280501  1
  Cr  Cr17  1  0.33144606  0.66375499  0.33251116  1
  Ni  Ni18  1  0.66979138  0.00093136  0.00262994  1
  Fe  Fe19  1  0.83351040  0.16677684  0.16497381  1
  Ni  Ni20  1  0.66655290  0.00213343  0.33143574  1
  Ni  Ni21  1  0.66896933  0.33551831  0.00177022  1
  Fe  Fe22  1  0.83356732  0.50029878  0.16459888  1
  Ni  Ni23  1  0.66507128  0.33082981  0.33271492  1
  Ni  Ni24  1  0.66936095  0.66455115  1.00006248  1
  Ni  Ni25  1  0.83587304  0.83419641  0.16538189  1
  Cr  Cr26  1  0.66750255  0.66589734  0.33119867  1
  Ni  Ni27  1  0.16782143  0.16999887  0.50061137  1
  Fe  Fe28  1  0.00240403  0.99884877  0.66969696  1
  Ni  Ni29  1  0.16597580  0.16959437  0.83445287  1
  Ni  Ni30  1  0.16970978  0.49768202  0.49986929  1
  Cr  Cr31  1  0.00144961  0.33353799  0.66913787  1
  Fe  Fe32  1  0.16945943  0.50042008  0.83567924  1
  Cr  Cr33  1  0.16599492  0.83201196  0.49852959  1
  Cr  Cr34  1  0.99963625  0.66404019  0.66927918  1
  Ni  Ni35  1  0.16452465  0.83139914  0.83490295  1
  Fe  Fe36  1  0.49903824  0.16911964  0.49871155  1
  Cr  Cr37  1  0.33269271  0.00088357  0.66689582  1
  Cr  Cr38  1  0.49903422  0.17284905  0.83697137  1
  Fe  Fe39  1  0.49821597  0.49830461  0.50015958  1
  Ni  Ni40  1  0.33212338  0.33546257  0.66621412  1
  Fe  Fe41  1  0.49890631  0.50074999  0.83523104  1
  Ni  Ni42  1  0.50135018  0.83132860  0.50075007  1
  Ni  Ni43  1  0.33466971  0.66396012  0.66658468  1
  Cr  Cr44  1  0.50036859  0.82948453  0.83738433  1
  Cr  Cr45  1  0.83457833  0.16674911  0.49958645  1
  Cr  Cr46  1  0.66565498  0.99871772  0.66737286  1
  Cr  Cr47  1  0.83369692  0.16667280  0.83529087  1
  Cr  Cr48  1  0.83272617  0.49966144  0.49947627  1
  Fe  Fe49  1  0.66295085  0.33721954  0.66749635  1
  Fe  Fe50  1  0.83207274  0.50114708  0.83631906  1
  Cr  Cr51  1  0.83389157  0.83414912  0.49867021  1
  Ni  Ni52  1  0.66476087  0.66520186  0.66824375  1
  Ni  Ni53  1  0.83460807  0.83112872  0.83531422  1
" 