8234,Ni49Fe28Cr21_4,-231.766181437403, 192.167390532616,Ni49Fe28Cr21,"# generated using pymatgen
 data_Cr13Fe15Ni26
_symmetry_space_group_name_H-M   'P 1'
_cell_length_a   7.44639651
_cell_length_b   7.44639651
_cell_length_c   10.53079493
_cell_angle_alpha   90.00000000
_cell_angle_beta   90.00000000
_cell_angle_gamma   90.00000000
_symmetry_Int_Tables_number   1
_chemical_formula_structural   Cr13Fe15Ni26
_chemical_formula_sum   'Cr13 Fe15 Ni26'
_cell_volume   583.92016204
_cell_formula_units_Z   1
loop_
 _symmetry_equiv_pos_site_id
 _symmetry_equiv_pos_as_xyz
  1  'x, y, z'
loop_
 _atom_site_type_symbol
 _atom_site_label
 _atom_site_symmetry_multiplicity
 _atom_site_fract_x
 _atom_site_fract_y
 _atom_site_fract_z
 _atom_site_occupancy
  Cr  Cr0  1  0.00252407  0.00218228  0.00362182  1
  Fe  Fe1  1  0.17127413  0.16878709  0.16754820  1
  Cr  Cr2  1  0.00257179  1.00125257  0.33454775  1
  Fe  Fe3  1  0.99951571  0.33531795  0.00218814  1
  Ni  Ni4  1  0.16769932  0.49975448  0.16644872  1
  Cr  Cr5  1  0.99868635  0.33503663  0.33314413  1
  Ni  Ni6  1  0.00159563  0.66694494  0.00240077  1
  Ni  Ni7  1  0.16991164  0.83416341  0.16673144  1
  Cr  Cr8  1  0.00258089  0.66786205  0.33564387  1
  Ni  Ni9  1  0.33665159  0.00165766  0.00173604  1
  Ni  Ni10  1  0.50203560  0.16800548  0.16778464  1
  Ni  Ni11  1  0.33577387  0.99952470  0.33299402  1
  Ni  Ni12  1  0.33855345  0.33374958  0.00474200  1
  Ni  Ni13  1  0.50319081  0.49920668  0.16915497  1
  Fe  Fe14  1  0.33547637  0.33503013  0.33310698  1
  Cr  Cr15  1  0.33620908  0.66885758  0.00254949  1
  Ni  Ni16  1  0.50201810  0.83693048  0.16724082  1
  Cr  Cr17  1  0.33612217  0.66842822  0.33419987  1
  Ni  Ni18  1  0.66558204  0.00423141  0.00166406  1
  Ni  Ni19  1  0.83042050  0.17028573  0.16759867  1
  Fe  Fe20  1  0.66606435  0.00199846  0.33366902  1
  Ni  Ni21  1  0.66771790  0.33464646  1.00085265  1
  Ni  Ni22  1  0.83342236  0.50002029  0.16537968  1
  Ni  Ni23  1  0.66717974  0.33540135  0.33416286  1
  Ni  Ni24  1  0.66687868  0.66513596  0.00274205  1
  Cr  Cr25  1  0.83101280  0.83309650  0.16750324  1
  Fe  Fe26  1  0.66698556  0.66669962  0.33471244  1
  Cr  Cr27  1  0.17085671  0.17114977  0.50191028  1
  Cr  Cr28  1  1.00113569  1.00128200  0.66638700  1
  Cr  Cr29  1  0.17023359  0.17034912  0.83456842  1
  Ni  Ni30  1  0.16742732  0.50192320  0.50448892  1
  Ni  Ni31  1  0.99823561  0.33572516  0.66737582  1
  Cr  Cr32  1  0.16716450  0.50197479  0.83357507  1
  Ni  Ni33  1  0.17031397  0.83248519  0.50395847  1
  Ni  Ni34  1  0.00149278  0.66757097  0.66606539  1
  Ni  Ni35  1  0.16962511  0.83323773  0.83301979  1
  Cr  Cr36  1  0.50251933  0.16808174  0.50121659  1
  Fe  Fe37  1  0.33713591  0.99902911  0.66847762  1
  Fe  Fe38  1  0.50168036  0.16860658  0.83556830  1
  Fe  Fe39  1  0.50096408  0.50227870  0.50195251  1
  Ni  Ni40  1  0.33764670  0.33750618  0.66695608  1
  Fe  Fe41  1  0.50301063  0.50054892  0.83455839  1
  Ni  Ni42  1  0.50334107  0.83485657  0.50221729  1
  Ni  Ni43  1  0.33628815  0.66875580  0.66726306  1
  Fe  Fe44  1  0.50109207  0.83545936  0.83450882  1
  Fe  Fe45  1  0.83277572  0.16917267  0.50199676  1
  Fe  Fe46  1  0.66677164  1.00119422  0.66917362  1
  Ni  Ni47  1  0.83093405  0.17024002  0.83390002  1
  Fe  Fe48  1  0.83295097  0.50170059  0.50253583  1
  Ni  Ni49  1  0.66807639  0.33548996  0.66911280  1
  Fe  Fe50  1  0.83396472  0.50100950  0.83473584  1
  Fe  Fe51  1  0.83269882  0.83308765  0.50238267  1
  Ni  Ni52  1  0.66602509  0.66600188  0.66678650  1
  Cr  Cr53  1  0.83286366  0.83195406  0.83611898  1
" 