1650,Ni49Fe28Cr21_8,-231.478736483692, 193.24843156945,Ni49Fe28Cr21,"# generated using pymatgen
 data_Cr13Fe15Ni26
_symmetry_space_group_name_H-M   'P 1'
_cell_length_a   7.44724184
_cell_length_b   7.44724184
_cell_length_c   10.53199042
_cell_angle_alpha   90.00000000
_cell_angle_beta   90.00000000
_cell_angle_gamma   90.00000000
_symmetry_Int_Tables_number   1
_chemical_formula_structural   Cr13Fe15Ni26
_chemical_formula_sum   'Cr13 Fe15 Ni26'
_cell_volume   584.11904988
_cell_formula_units_Z   1
loop_
 _symmetry_equiv_pos_site_id
 _symmetry_equiv_pos_as_xyz
  1  'x, y, z'
loop_
 _atom_site_type_symbol
 _atom_site_label
 _atom_site_symmetry_multiplicity
 _atom_site_fract_x
 _atom_site_fract_y
 _atom_site_fract_z
 _atom_site_occupancy
  Ni  Ni0  1  0.00141939  0.00359757  1.00066398  1
  Fe  Fe1  1  0.16861540  0.17024036  0.16584440  1
  Cr  Cr2  1  0.99867326  0.00210041  0.33409634  1
  Ni  Ni3  1  1.00047655  0.33294557  0.00318925  1
  Fe  Fe4  1  0.16669152  0.49735735  0.16862148  1
  Fe  Fe5  1  0.99991052  0.33638480  0.33379114  1
  Cr  Cr6  1  0.99883250  0.66763228  0.00139923  1
  Cr  Cr7  1  0.16793290  0.83527051  0.16763197  1
  Fe  Fe8  1  0.99990778  0.66570179  0.33505449  1
  Ni  Ni9  1  0.33458468  0.00234579  0.00162023  1
  Ni  Ni10  1  0.50232389  0.16695514  0.16777620  1
  Cr  Cr11  1  0.33725883  0.00311604  0.33414976  1
  Fe  Fe12  1  0.33400521  0.33137080  0.00184798  1
  Cr  Cr13  1  0.50221667  0.50044425  0.16728189  1
  Ni  Ni14  1  0.33430587  0.33549469  0.33416238  1
  Cr  Cr15  1  0.33708241  0.66914312  0.99980602  1
  Ni  Ni16  1  0.50423633  0.83689940  0.16731503  1
  Cr  Cr17  1  0.33413598  0.66632903  0.33658146  1
  Ni  Ni18  1  0.66798460  1.00081437  0.00375209  1
  Ni  Ni19  1  0.83415753  0.16871834  0.16763327  1
  Ni  Ni20  1  0.66881290  0.00260258  0.33310006  1
  Ni  Ni21  1  0.66976248  0.33489895  0.00204386  1
  Fe  Fe22  1  0.83440870  0.50021635  0.16839116  1
  Fe  Fe23  1  0.66823282  0.33318149  0.33555876  1
  Fe  Fe24  1  0.66882397  0.66924143  0.99996116  1
  Fe  Fe25  1  0.83063646  0.83595058  0.16781658  1
  Ni  Ni26  1  0.67034815  0.66733281  0.33302630  1
  Cr  Cr27  1  0.16887476  0.16860070  0.50274854  1
  Fe  Fe28  1  0.00208960  1.00067612  0.66880496  1
  Ni  Ni29  1  0.16795280  0.16671061  0.83619084  1
  Fe  Fe30  1  0.16760357  0.50161249  0.50204481  1
  Fe  Fe31  1  1.00020561  0.33529006  0.66780117  1
  Cr  Cr32  1  0.16839859  0.49902861  0.83368910  1
  Ni  Ni33  1  0.16781820  0.83210207  0.50427880  1
  Fe  Fe34  1  1.00089621  0.66801988  0.66798885  1
  Fe  Fe35  1  0.16844402  0.83745712  0.83312815  1
  Ni  Ni36  1  0.50305643  0.17025474  0.50118711  1
  Ni  Ni37  1  0.33321659  1.00009593  0.66847447  1
  Cr  Cr38  1  0.49954595  0.16803443  0.83501089  1
  Fe  Fe39  1  0.50231510  0.49897826  0.50268882  1
  Ni  Ni40  1  0.33536434  0.33567443  0.66761216  1
  Ni  Ni41  1  0.50320358  0.50325520  0.83356531  1
  Cr  Cr42  1  0.50080638  0.83533336  0.50176639  1
  Ni  Ni43  1  0.33422740  0.66821796  0.66735622  1
  Ni  Ni44  1  0.50214483  0.83308017  0.83478288  1
  Ni  Ni45  1  0.83232841  0.17101538  0.50202468  1
  Ni  Ni46  1  0.66842198  0.00165185  0.66713437  1
  Cr  Cr47  1  0.83638855  0.16800985  0.83366357  1
  Ni  Ni48  1  0.83499677  0.49974724  0.50079208  1
  Ni  Ni49  1  0.66848298  0.33632572  0.66539653  1
  Ni  Ni50  1  0.83264946  0.50295373  0.83479010  1
  Cr  Cr51  1  0.83494445  0.83411686  0.50106320  1
  Ni  Ni52  1  0.66806070  0.66601280  0.67095003  1
  Ni  Ni53  1  0.83359133  0.83326447  0.83475539  1
" 