2233,Ni49Fe28Cr21_16,-231.913241736353, 188.935937381078,Ni49Fe28Cr21,"# generated using pymatgen
 data_Cr13Fe15Ni26
_symmetry_space_group_name_H-M   'P 1'
_cell_length_a   7.45012034
_cell_length_b   7.45012034
_cell_length_c   10.53606122
_cell_angle_alpha   90.00000000
_cell_angle_beta   90.00000000
_cell_angle_gamma   90.00000000
_symmetry_Int_Tables_number   1
_chemical_formula_structural   Cr13Fe15Ni26
_chemical_formula_sum   'Cr13 Fe15 Ni26'
_cell_volume   584.79662990
_cell_formula_units_Z   1
loop_
 _symmetry_equiv_pos_site_id
 _symmetry_equiv_pos_as_xyz
  1  'x, y, z'
loop_
 _atom_site_type_symbol
 _atom_site_label
 _atom_site_symmetry_multiplicity
 _atom_site_fract_x
 _atom_site_fract_y
 _atom_site_fract_z
 _atom_site_occupancy
  Cr  Cr0  1  1.00058602  0.00219595  1.00074728  1
  Ni  Ni1  1  0.16854783  0.16814430  0.16819480  1
  Cr  Cr2  1  0.00160433  0.00359358  0.33366073  1
  Cr  Cr3  1  0.99932685  0.33181313  0.00148657  1
  Cr  Cr4  1  0.16774931  0.50030995  0.16703738  1
  Ni  Ni5  1  0.99888490  0.33268687  0.33544346  1
  Cr  Cr6  1  0.00140090  0.66940313  1.00074519  1
  Fe  Fe7  1  0.17030157  0.83612392  0.16756741  1
  Cr  Cr8  1  0.00133527  0.66686312  0.33649594  1
  Cr  Cr9  1  0.33485939  1.00097616  0.00114533  1
  Ni  Ni10  1  0.50241018  0.16679864  0.16733037  1
  Fe  Fe11  1  0.33512344  0.00167626  0.33426448  1
  Ni  Ni12  1  0.33834380  0.33536237  1.00030157  1
  Fe  Fe13  1  0.50309508  0.49975809  0.16537153  1
  Cr  Cr14  1  0.33525331  0.33325479  0.33561204  1
  Ni  Ni15  1  0.33746745  0.66774564  0.00200574  1
  Ni  Ni16  1  0.50077045  0.83553817  0.16735661  1
  Cr  Cr17  1  0.33541391  0.66938814  0.33485036  1
  Ni  Ni18  1  0.66711692  0.00240626  1.00041953  1
  Ni  Ni19  1  0.83245197  0.16982675  0.16876768  1
  Fe  Fe20  1  0.66634148  0.00339444  0.33446273  1
  Ni  Ni21  1  0.66593466  0.33443406  0.00217807  1
  Ni  Ni22  1  0.83306665  0.49870597  0.16782575  1
  Fe  Fe23  1  0.66981055  0.33337816  0.33472425  1
  Fe  Fe24  1  0.66492099  0.66695719  1.00082484  1
  Cr  Cr25  1  0.83218823  0.83508965  0.16642350  1
  Cr  Cr26  1  0.66665959  0.66645551  0.33569727  1
  Ni  Ni27  1  0.16801601  0.16803288  0.50235364  1
  Ni  Ni28  1  0.00122927  1.00109120  0.66826740  1
  Ni  Ni29  1  0.16803066  0.16711422  0.83285728  1
  Ni  Ni30  1  0.16634008  0.50059711  0.50206385  1
  Fe  Fe31  1  1.00021510  0.33310479  0.66645511  1
  Cr  Cr32  1  0.16895925  0.50022733  0.83410411  1
  Ni  Ni33  1  0.16719043  0.83477814  0.50135583  1
  Fe  Fe34  1  0.99929017  0.66875115  0.66649002  1
  Ni  Ni35  1  0.16772220  0.83522566  0.83452258  1
  Ni  Ni36  1  0.50175928  0.16739777  0.50153350  1
  Fe  Fe37  1  0.33404427  0.00282903  0.66813241  1
  Ni  Ni38  1  0.50237283  0.16827877  0.83454311  1
  Ni  Ni39  1  0.50207799  0.49987506  0.50176519  1
  Fe  Fe40  1  0.33536848  0.33219025  0.66725932  1
  Ni  Ni41  1  0.50255974  0.50093909  0.83688711  1
  Fe  Fe42  1  0.50168511  0.83603595  0.50146183  1
  Cr  Cr43  1  0.33539716  0.66805250  0.66620472  1
  Ni  Ni44  1  0.50255670  0.83419173  0.83495239  1
  Ni  Ni45  1  0.83363334  0.16824811  0.50047366  1
  Fe  Fe46  1  0.66819074  0.00190137  0.66821734  1
  Ni  Ni47  1  0.83300422  0.16711879  0.83416509  1
  Ni  Ni48  1  0.83499087  0.50070218  0.50193057  1
  Ni  Ni49  1  0.66773018  0.33451778  0.66713509  1
  Fe  Fe50  1  0.83135160  0.50023915  0.83344144  1
  Ni  Ni51  1  0.83435464  0.83445736  0.50343059  1
  Fe  Fe52  1  0.66911188  0.66742964  0.66733306  1
  Fe  Fe53  1  0.83319892  0.83573895  0.83306946  1
" 