4816,Ni49Fe21Cr29_7,-228.467217161841, 177.870200901339,Ni49Fe21Cr29,"# generated using pymatgen
 data_Cr17Fe11Ni26
_symmetry_space_group_name_H-M   'P 1'
_cell_length_a   7.46936007
_cell_length_b   7.46936007
_cell_length_c   10.56327032
_cell_angle_alpha   90.00000000
_cell_angle_beta   90.00000000
_cell_angle_gamma   90.00000000
_symmetry_Int_Tables_number   1
_chemical_formula_structural   Cr17Fe11Ni26
_chemical_formula_sum   'Cr17 Fe11 Ni26'
_cell_volume   589.33900493
_cell_formula_units_Z   1
loop_
 _symmetry_equiv_pos_site_id
 _symmetry_equiv_pos_as_xyz
  1  'x, y, z'
loop_
 _atom_site_type_symbol
 _atom_site_label
 _atom_site_symmetry_multiplicity
 _atom_site_fract_x
 _atom_site_fract_y
 _atom_site_fract_z
 _atom_site_occupancy
  Cr  Cr0  1  0.00374821  0.99898840  0.99675830  1
  Ni  Ni1  1  0.16736166  0.16204579  0.16731220  1
  Fe  Fe2  1  0.00376258  0.99822263  0.33479441  1
  Cr  Cr3  1  0.99889308  0.33280722  0.99868904  1
  Cr  Cr4  1  0.16841368  0.50364361  0.16678360  1
  Cr  Cr5  1  0.99936278  0.33270568  0.33162722  1
  Cr  Cr6  1  0.99947207  0.66796050  0.99744580  1
  Ni  Ni7  1  0.16841090  0.83435613  0.16861549  1
  Fe  Fe8  1  0.00057263  0.66818393  0.33482212  1
  Ni  Ni9  1  0.33355709  0.99799130  0.99885565  1
  Cr  Cr10  1  0.50025455  0.16283262  0.16585958  1
  Ni  Ni11  1  0.33187519  0.99680693  0.33427513  1
  Cr  Cr12  1  0.33494539  0.33145188  0.00104575  1
  Ni  Ni13  1  0.50204827  0.50321201  0.16501814  1
  Cr  Cr14  1  0.33597464  0.33123400  0.33256902  1
  Ni  Ni15  1  0.33562455  0.66863462  0.99750889  1
  Cr  Cr16  1  0.49869287  0.83200390  0.16441231  1
  Ni  Ni17  1  0.33565425  0.66983099  0.33419944  1
  Fe  Fe18  1  0.66489051  0.99957977  0.99526910  1
  Cr  Cr19  1  0.83205559  0.16498753  0.16479191  1
  Fe  Fe20  1  0.66297915  0.99888923  0.33645384  1
  Fe  Fe21  1  0.66510476  0.33533613  0.99744509  1
  Ni  Ni22  1  0.82943724  0.50177869  0.16702136  1
  Cr  Cr23  1  0.66423811  0.33653972  0.33433598  1
  Fe  Fe24  1  0.66506101  0.66470407  0.99693397  1
  Cr  Cr25  1  0.83116287  0.83297639  0.16854612  1
  Fe  Fe26  1  0.66356749  0.66659965  0.33556180  1
  Ni  Ni27  1  0.16889276  0.16521046  0.50099666  1
  Cr  Cr28  1  0.00114135  0.99809444  0.66941602  1
  Ni  Ni29  1  0.16906395  0.16770780  0.83141666  1
  Cr  Cr30  1  0.16765288  0.49854120  0.50348667  1
  Ni  Ni31  1  0.99959422  0.33331976  0.66907857  1
  Ni  Ni32  1  0.16852741  0.49954865  0.83058645  1
  Fe  Fe33  1  0.16790715  0.83366765  0.49940014  1
  Cr  Cr34  1  0.99784632  0.66809368  0.66807416  1
  Ni  Ni35  1  0.17190727  0.83219808  0.83234440  1
  Fe  Fe36  1  0.49893368  0.16575759  0.50275896  1
  Ni  Ni37  1  0.33500056  0.00006063  0.66629179  1
  Ni  Ni38  1  0.50007326  0.16418023  0.83093722  1
  Ni  Ni39  1  0.49888399  0.50259299  0.50159091  1
  Ni  Ni40  1  0.33529186  0.33078574  0.66650296  1
  Fe  Fe41  1  0.49897555  0.49913912  0.83231711  1
  Ni  Ni42  1  0.49888255  0.83434621  0.49967789  1
  Fe  Fe43  1  0.33535723  0.66779016  0.66766529  1
  Ni  Ni44  1  0.49830624  0.83500895  0.83385257  1
  Cr  Cr45  1  0.83351949  0.16616148  0.50356492  1
  Ni  Ni46  1  0.66364266  0.99921429  0.66694947  1
  Ni  Ni47  1  0.82985121  0.16760317  0.83164578  1
  Ni  Ni48  1  0.83211230  0.50105652  0.49972855  1
  Ni  Ni49  1  0.66481729  0.33409589  0.66725194  1
  Ni  Ni50  1  0.83285814  0.49763349  0.83242345  1
  Ni  Ni51  1  0.83015352  0.83339369  0.49682733  1
  Cr  Cr52  1  0.66612919  0.66780594  0.66620967  1
  Ni  Ni53  1  0.82919780  0.83432986  0.83369417  1
" 