2162,Ni49Fe49Cr1_14,-239.353847197045, 218.794596562565,Ni49Fe49Cr1,"# generated using pymatgen
 data_Cr(FeNi)13
_symmetry_space_group_name_H-M   'P 1'
_cell_length_a   7.40504780
_cell_length_b   7.40504780
_cell_length_c   10.47231902
_cell_angle_alpha   90.00000000
_cell_angle_beta   90.00000000
_cell_angle_gamma   90.00000000
_symmetry_Int_Tables_number   1
_chemical_formula_structural   Cr(FeNi)13
_chemical_formula_sum   'Cr2 Fe26 Ni26'
_cell_volume   574.24681607
_cell_formula_units_Z   2
loop_
 _symmetry_equiv_pos_site_id
 _symmetry_equiv_pos_as_xyz
  1  'x, y, z'
loop_
 _atom_site_type_symbol
 _atom_site_label
 _atom_site_symmetry_multiplicity
 _atom_site_fract_x
 _atom_site_fract_y
 _atom_site_fract_z
 _atom_site_occupancy
  Fe  Fe0  1  1.00263014  1.00250172  0.00519745  1
  Ni  Ni1  1  0.16944286  0.16942178  0.17149817  1
  Fe  Fe2  1  1.00392197  0.00449229  0.33693944  1
  Cr  Cr3  1  0.00501248  0.33996997  0.00517177  1
  Fe  Fe4  1  0.17430011  0.50570464  0.17225747  1
  Fe  Fe5  1  1.00359972  0.33921543  0.33716658  1
  Ni  Ni6  1  0.00544365  0.67226898  0.00497371  1
  Fe  Fe7  1  0.17240081  0.83698845  0.17096929  1
  Ni  Ni8  1  0.00497048  0.67275108  0.33613136  1
  Fe  Fe9  1  0.33785521  1.00325690  0.00429299  1
  Fe  Fe10  1  0.50260123  0.17097841  0.17101780  1
  Fe  Fe11  1  0.33855420  1.00206313  0.33789833  1
  Fe  Fe12  1  0.33975998  0.34034396  0.00509878  1
  Ni  Ni13  1  0.50649567  0.50563258  0.17094385  1
  Ni  Ni14  1  0.33726997  0.33496069  0.33700359  1
  Ni  Ni15  1  0.33712341  0.67240685  1.00410067  1
  Ni  Ni16  1  0.50496328  0.83706542  0.17069260  1
  Fe  Fe17  1  0.33934145  0.66926342  0.33705432  1
  Ni  Ni18  1  0.66871644  1.00390823  1.00374877  1
  Fe  Fe19  1  0.83390175  0.16988452  0.17127624  1
  Fe  Fe20  1  0.66999720  1.00301469  0.33688862  1
  Ni  Ni21  1  0.66952828  0.33648112  0.00475454  1
  Fe  Fe22  1  0.83589165  0.50591518  0.17151593  1
  Ni  Ni23  1  0.66908903  0.33686775  0.33727847  1
  Ni  Ni24  1  0.67072712  0.67129561  1.00413644  1
  Fe  Fe25  1  0.83656177  0.83721885  0.17027986  1
  Ni  Ni26  1  0.67242996  0.67132632  0.33776377  1
  Fe  Fe27  1  0.17171967  0.17073839  0.50322742  1
  Fe  Fe28  1  0.00532137  1.00392825  0.67065222  1
  Fe  Fe29  1  0.17226178  0.17120428  0.83733254  1
  Ni  Ni30  1  0.16918321  0.50425765  0.50366070  1
  Ni  Ni31  1  0.00545272  0.33789016  0.66933978  1
  Ni  Ni32  1  0.17065646  0.50493863  0.83698188  1
  Ni  Ni33  1  0.17245520  0.83724912  0.50328631  1
  Ni  Ni34  1  1.00404016  0.67107987  0.67161284  1
  Ni  Ni35  1  0.17145344  0.83882284  0.83834396  1
  Fe  Fe36  1  0.50191753  0.17125681  0.50355417  1
  Ni  Ni37  1  0.33721140  1.00371265  0.67057544  1
  Fe  Fe38  1  0.50189492  0.17120137  0.83839544  1
  Fe  Fe39  1  0.50220223  0.50667411  0.50284122  1
  Ni  Ni40  1  0.33564397  0.33538624  0.67152904  1
  Ni  Ni41  1  0.50435211  0.50625623  0.83812731  1
  Ni  Ni42  1  0.50477248  0.83862500  0.50461327  1
  Fe  Fe43  1  0.33713680  0.67010892  0.67166460  1
  Ni  Ni44  1  0.50398276  0.83785702  0.83721707  1
  Fe  Fe45  1  0.83868752  0.16941658  0.50291469  1
  Fe  Fe46  1  0.67050323  1.00337165  0.67149605  1
  Fe  Fe47  1  0.83748937  0.16956413  0.83785820  1
  Ni  Ni48  1  0.83831449  0.50273354  0.50254365  1
  Cr  Cr49  1  0.66973008  0.34038461  0.67072240  1
  Ni  Ni50  1  0.83768561  0.50309421  0.83868531  1
  Fe  Fe51  1  0.83927292  0.83416884  0.50360129  1
  Ni  Ni52  1  0.67260009  0.67264048  0.67059520  1
  Fe  Fe53  1  0.83758998  0.83430181  0.83863852  1
" 