5066,Ni49Fe49Cr1_11,-239.389333274777, 223.204754866127,Ni49Fe49Cr1,"# generated using pymatgen
 data_Cr(FeNi)13
_symmetry_space_group_name_H-M   'P 1'
_cell_length_a   7.40278177
_cell_length_b   7.40278177
_cell_length_c   10.46911438
_cell_angle_alpha   90.00000000
_cell_angle_beta   90.00000000
_cell_angle_gamma   90.00000000
_symmetry_Int_Tables_number   1
_chemical_formula_structural   Cr(FeNi)13
_chemical_formula_sum   'Cr2 Fe26 Ni26'
_cell_volume   573.71979962
_cell_formula_units_Z   2
loop_
 _symmetry_equiv_pos_site_id
 _symmetry_equiv_pos_as_xyz
  1  'x, y, z'
loop_
 _atom_site_type_symbol
 _atom_site_label
 _atom_site_symmetry_multiplicity
 _atom_site_fract_x
 _atom_site_fract_y
 _atom_site_fract_z
 _atom_site_occupancy
  Ni  Ni0  1  1.00365718  1.00314740  0.00654388  1
  Ni  Ni1  1  0.17149794  0.17057051  0.17156733  1
  Fe  Fe2  1  1.00346836  0.00487489  0.33693971  1
  Fe  Fe3  1  1.00249322  0.33898708  0.00550758  1
  Ni  Ni4  1  0.17046123  0.50420097  0.17059215  1
  Ni  Ni5  1  0.00506387  0.33775164  0.33770581  1
  Ni  Ni6  1  0.00471675  0.67167698  1.00390008  1
  Ni  Ni7  1  0.16975443  0.83825134  0.16955590  1
  Ni  Ni8  1  1.00368146  0.67005324  0.33747787  1
  Fe  Fe9  1  0.33896483  1.00324312  0.00552595  1
  Ni  Ni10  1  0.50366409  0.17150419  0.17020912  1
  Fe  Fe11  1  0.33776369  0.00532857  0.33668225  1
  Fe  Fe12  1  0.33864852  0.33841650  0.00522945  1
  Ni  Ni13  1  0.50490900  0.50346752  0.16992321  1
  Fe  Fe14  1  0.33717806  0.33803684  0.33773891  1
  Fe  Fe15  1  0.33788073  0.67136130  1.00395505  1
  Fe  Fe16  1  0.50415382  0.83730868  0.17059182  1
  Fe  Fe17  1  0.33766951  0.66965086  0.33728717  1
  Ni  Ni18  1  0.67129039  0.00492802  1.00415734  1
  Fe  Fe19  1  0.83811231  0.17143936  0.17101898  1
  Fe  Fe20  1  0.67178886  0.00438485  0.33791276  1
  Ni  Ni21  1  0.66997949  0.33742216  0.00437568  1
  Ni  Ni22  1  0.83765151  0.50521514  0.17110310  1
  Fe  Fe23  1  0.67142184  0.33802800  0.33731484  1
  Ni  Ni24  1  0.67101154  0.67067580  0.00519305  1
  Ni  Ni25  1  0.83858458  0.83700895  0.17067068  1
  Fe  Fe26  1  0.67187233  0.67060852  0.33788894  1
  Fe  Fe27  1  0.17117723  0.17218117  0.50441732  1
  Ni  Ni28  1  1.00267133  0.00460915  0.67007303  1
  Cr  Cr29  1  0.17107382  0.17114964  0.83755296  1
  Fe  Fe30  1  0.17151619  0.50278155  0.50443060  1
  Fe  Fe31  1  1.00394619  0.33901027  0.67006518  1
  Ni  Ni32  1  0.17000988  0.50550780  0.83758612  1
  Cr  Cr33  1  0.17055480  0.83749825  0.50560723  1
  Fe  Fe34  1  1.00397865  0.66997232  0.67202540  1
  Fe  Fe35  1  0.17058600  0.83547071  0.83784609  1
  Ni  Ni36  1  0.50456831  0.17154741  0.50569629  1
  Fe  Fe37  1  0.33976989  1.00372369  0.67082020  1
  Fe  Fe38  1  0.50593997  0.17173456  0.83799084  1
  Ni  Ni39  1  0.50438481  0.50387545  0.50531280  1
  Ni  Ni40  1  0.33851752  0.33887051  0.66917982  1
  Fe  Fe41  1  0.50429694  0.50473595  0.83729705  1
  Ni  Ni42  1  0.50597510  0.83759695  0.50390363  1
  Ni  Ni43  1  0.33925546  0.66925425  0.67163912  1
  Ni  Ni44  1  0.50475541  0.83788340  0.83743497  1
  Ni  Ni45  1  0.83762802  0.17084015  0.50475548  1
  Fe  Fe46  1  0.67028525  1.00376482  0.67066738  1
  Fe  Fe47  1  0.83632831  0.17100978  0.83751227  1
  Fe  Fe48  1  0.83668506  0.50465256  0.50408453  1
  Fe  Fe49  1  0.67063307  0.33797236  0.67101456  1
  Ni  Ni50  1  0.83802297  0.50471917  0.83732073  1
  Ni  Ni51  1  0.83650857  0.83801965  0.50531096  1
  Ni  Ni52  1  0.67000811  0.67136009  0.67024906  1
  Fe  Fe53  1  0.83797897  0.83711132  0.83803313  1
" 