4266,Ni49Fe49Cr1_18,-239.694508389721, 219.695538780388,Ni49Fe49Cr1,"# generated using pymatgen
 data_Cr(FeNi)13
_symmetry_space_group_name_H-M   'P 1'
_cell_length_a   7.40582163
_cell_length_b   7.40582163
_cell_length_c   10.47341338
_cell_angle_alpha   90.00000000
_cell_angle_beta   90.00000000
_cell_angle_gamma   90.00000000
_symmetry_Int_Tables_number   1
_chemical_formula_structural   Cr(FeNi)13
_chemical_formula_sum   'Cr2 Fe26 Ni26'
_cell_volume   574.42686162
_cell_formula_units_Z   2
loop_
 _symmetry_equiv_pos_site_id
 _symmetry_equiv_pos_as_xyz
  1  'x, y, z'
loop_
 _atom_site_type_symbol
 _atom_site_label
 _atom_site_symmetry_multiplicity
 _atom_site_fract_x
 _atom_site_fract_y
 _atom_site_fract_z
 _atom_site_occupancy
  Ni  Ni0  1  0.00446268  1.00396768  0.00483070  1
  Fe  Fe1  1  0.17190174  0.17060405  0.17041493  1
  Fe  Fe2  1  0.00424795  1.00353589  0.33716908  1
  Fe  Fe3  1  0.00433056  0.33636554  0.00413889  1
  Ni  Ni4  1  0.17118637  0.50525773  0.17133388  1
  Ni  Ni5  1  0.00430774  0.33822073  0.33711408  1
  Fe  Fe6  1  0.00468751  0.67105083  0.00471305  1
  Ni  Ni7  1  0.17126006  0.83616322  0.17040067  1
  Ni  Ni8  1  0.00624707  0.66934477  0.33856030  1
  Ni  Ni9  1  0.33726658  1.00408320  0.00413588  1
  Ni  Ni10  1  0.50656692  0.17060234  0.17121909  1
  Ni  Ni11  1  0.33825622  1.00349046  0.33746617  1
  Ni  Ni12  1  0.33766308  0.33740105  1.00401894  1
  Ni  Ni13  1  0.50255500  0.50344898  0.16915856  1
  Fe  Fe14  1  0.33645941  0.33742551  0.33585814  1
  Fe  Fe15  1  0.33784996  0.67116092  0.00441516  1
  Ni  Ni16  1  0.50285648  0.83835052  0.17016551  1
  Ni  Ni17  1  0.33485458  0.67245726  0.33632480  1
  Ni  Ni18  1  0.67067553  0.00416004  1.00406815  1
  Ni  Ni19  1  0.83647679  0.17067568  0.17022684  1
  Ni  Ni20  1  0.66953470  0.00542852  0.33776581  1
  Ni  Ni21  1  0.67056252  0.33761250  0.00465663  1
  Fe  Fe22  1  0.83788757  0.50329861  0.17028081  1
  Fe  Fe23  1  0.67162933  0.33479267  0.33634921  1
  Fe  Fe24  1  0.66986069  0.67148373  1.00383173  1
  Fe  Fe25  1  0.83784515  0.83843617  0.16987160  1
  Cr  Cr26  1  0.67091478  0.67216638  0.33645409  1
  Fe  Fe27  1  0.17075147  0.17069281  0.50419395  1
  Fe  Fe28  1  1.00358768  0.00422892  0.67096296  1
  Fe  Fe29  1  0.17122013  0.17070109  0.83779288  1
  Ni  Ni30  1  0.16930946  0.50522692  0.50411127  1
  Ni  Ni31  1  1.00364313  0.33756061  0.67127549  1
  Ni  Ni32  1  0.17066155  0.50394629  0.83695740  1
  Ni  Ni33  1  0.17123592  0.83609701  0.50471897  1
  Fe  Fe34  1  0.00426859  0.66964067  0.67025848  1
  Fe  Fe35  1  0.17125727  0.83739846  0.83766296  1
  Fe  Fe36  1  0.50389746  0.16870087  0.50355707  1
  Fe  Fe37  1  0.33817037  1.00353030  0.67058484  1
  Fe  Fe38  1  0.50378318  0.17111780  0.83850827  1
  Cr  Cr39  1  0.50219806  0.50457757  0.50483847  1
  Fe  Fe40  1  0.33669802  0.33805622  0.67214982  1
  Fe  Fe41  1  0.50406103  0.50432878  0.83739076  1
  Ni  Ni42  1  0.50292656  0.83937229  0.50481180  1
  Ni  Ni43  1  0.33729741  0.67227243  0.67131621  1
  Ni  Ni44  1  0.50446789  0.83760468  0.83742077  1
  Ni  Ni45  1  0.83717644  0.17078399  0.50451146  1
  Fe  Fe46  1  0.67064275  1.00391657  0.67049140  1
  Fe  Fe47  1  0.83739948  0.17099070  0.83754093  1
  Fe  Fe48  1  0.84024229  0.50359228  0.50525384  1
  Ni  Ni49  1  0.67272153  0.33741673  0.67094564  1
  Fe  Fe50  1  0.83695799  0.50429188  0.83686765  1
  Fe  Fe51  1  0.83825142  0.83780014  0.50480441  1
  Ni  Ni52  1  0.67066861  0.67126823  0.67161681  1
  Fe  Fe53  1  0.83737385  0.83711728  0.83772925  1
" 