9000,Ni49Fe49Cr1_7,-239.454022455255, 219.043617916669,Ni49Fe49Cr1,"# generated using pymatgen
 data_Cr(FeNi)13
_symmetry_space_group_name_H-M   'P 1'
_cell_length_a   7.40580851
_cell_length_b   7.40580851
_cell_length_c   10.47339483
_cell_angle_alpha   90.00000000
_cell_angle_beta   90.00000000
_cell_angle_gamma   90.00000000
_symmetry_Int_Tables_number   1
_chemical_formula_structural   Cr(FeNi)13
_chemical_formula_sum   'Cr2 Fe26 Ni26'
_cell_volume   574.42380908
_cell_formula_units_Z   2
loop_
 _symmetry_equiv_pos_site_id
 _symmetry_equiv_pos_as_xyz
  1  'x, y, z'
loop_
 _atom_site_type_symbol
 _atom_site_label
 _atom_site_symmetry_multiplicity
 _atom_site_fract_x
 _atom_site_fract_y
 _atom_site_fract_z
 _atom_site_occupancy
  Ni  Ni0  1  0.00421220  0.00439058  1.00303588  1
  Fe  Fe1  1  0.16715463  0.17081133  0.17231369  1
  Ni  Ni2  1  0.00446516  0.00479865  0.33839791  1
  Ni  Ni3  1  1.00292633  0.33804240  1.00402292  1
  Fe  Fe4  1  0.16887226  0.50341512  0.16987534  1
  Ni  Ni5  1  1.00293818  0.33908739  0.33814544  1
  Ni  Ni6  1  1.00410426  0.66999900  0.00418067  1
  Ni  Ni7  1  0.16917964  0.83604103  0.17099655  1
  Fe  Fe8  1  1.00300084  0.67199332  0.33726899  1
  Cr  Cr9  1  0.33594109  1.00389185  0.00537504  1
  Ni  Ni10  1  0.50466169  0.17274439  0.17167313  1
  Ni  Ni11  1  0.33824491  1.00333002  0.33768595  1
  Fe  Fe12  1  0.33617098  0.33950915  1.00395398  1
  Fe  Fe13  1  0.50553207  0.50468252  0.17148243  1
  Fe  Fe14  1  0.33809686  0.33515683  0.33832503  1
  Ni  Ni15  1  0.33684464  0.66962381  1.00400172  1
  Fe  Fe16  1  0.50607234  0.83681353  0.17173690  1
  Fe  Fe17  1  0.33763324  0.67081845  0.33696606  1
  Fe  Fe18  1  0.67417238  1.00355956  0.00543588  1
  Ni  Ni19  1  0.83709986  0.17122017  0.17125749  1
  Ni  Ni20  1  0.66961717  0.00518409  0.33682081  1
  Fe  Fe21  1  0.67134006  0.33795141  0.00567555  1
  Ni  Ni22  1  0.83797477  0.50409173  0.17108018  1
  Ni  Ni23  1  0.67115812  0.33810900  0.33805165  1
  Ni  Ni24  1  0.67179597  0.66851914  0.00461659  1
  Ni  Ni25  1  0.83916410  0.83739383  0.17039796  1
  Fe  Fe26  1  0.67201231  0.67140650  0.33702162  1
  Ni  Ni27  1  0.17026145  0.17110486  0.50330014  1
  Fe  Fe28  1  0.00418228  1.00352321  0.67097428  1
  Ni  Ni29  1  0.17034972  0.17249494  0.83742957  1
  Fe  Fe30  1  0.17229185  0.50361520  0.50492906  1
  Fe  Fe31  1  0.00469460  0.33610454  0.67066015  1
  Ni  Ni32  1  0.17057799  0.50353378  0.83755793  1
  Fe  Fe33  1  0.17279604  0.83809697  0.50418925  1
  Ni  Ni34  1  1.00395868  0.66855753  0.67080018  1
  Ni  Ni35  1  0.16855463  0.83648596  0.83580628  1
  Ni  Ni36  1  0.50322354  0.17093930  0.50448643  1
  Ni  Ni37  1  0.33757397  0.00497046  0.66957165  1
  Fe  Fe38  1  0.50366970  0.17224123  0.83615215  1
  Ni  Ni39  1  0.50476491  0.50451384  0.50410310  1
  Fe  Fe40  1  0.33693555  0.33689802  0.67050063  1
  Fe  Fe41  1  0.50322183  0.50310195  0.83718569  1
  Ni  Ni42  1  0.50520960  0.83706382  0.50293778  1
  Fe  Fe43  1  0.33677108  0.67107780  0.67024573  1
  Cr  Cr44  1  0.50567452  0.83678245  0.83789045  1
  Fe  Fe45  1  0.83573894  0.17040933  0.50256036  1
  Ni  Ni46  1  0.66976041  0.00572871  0.67023825  1
  Fe  Fe47  1  0.83863118  0.16990201  0.83798192  1
  Fe  Fe48  1  0.83699710  0.50347160  0.50344310  1
  Fe  Fe49  1  0.67068986  0.33756691  0.66948070  1
  Fe  Fe50  1  0.83919197  0.50506071  0.83823306  1
  Fe  Fe51  1  0.83638123  0.83893191  0.50463168  1
  Fe  Fe52  1  0.67220542  0.67159209  0.67000824  1
  Ni  Ni53  1  0.83857064  0.83691077  0.83817164  1
" 