8772,Ni49Fe21Cr29_15,-228.092631190718, 178.852367398666,Ni49Fe21Cr29,"# generated using pymatgen
 data_Cr17Fe11Ni26
_symmetry_space_group_name_H-M   'P 1'
_cell_length_a   7.46260384
_cell_length_b   7.46260384
_cell_length_c   10.55371557
_cell_angle_alpha   90.00000000
_cell_angle_beta   90.00000000
_cell_angle_gamma   90.00000000
_symmetry_Int_Tables_number   1
_chemical_formula_structural   Cr17Fe11Ni26
_chemical_formula_sum   'Cr17 Fe11 Ni26'
_cell_volume   587.74123380
_cell_formula_units_Z   1
loop_
 _symmetry_equiv_pos_site_id
 _symmetry_equiv_pos_as_xyz
  1  'x, y, z'
loop_
 _atom_site_type_symbol
 _atom_site_label
 _atom_site_symmetry_multiplicity
 _atom_site_fract_x
 _atom_site_fract_y
 _atom_site_fract_z
 _atom_site_occupancy
  Ni  Ni0  1  0.99596211  0.00127107  0.99924382  1
  Ni  Ni1  1  0.16676458  0.16875994  0.16939097  1
  Cr  Cr2  1  0.99681079  0.00256111  0.33473029  1
  Ni  Ni3  1  0.99920702  0.33308526  0.00395332  1
  Ni  Ni4  1  0.16506566  0.49671425  0.16756060  1
  Fe  Fe5  1  0.00094871  0.33396925  0.33351152  1
  Fe  Fe6  1  0.99832807  0.66609559  1.00002899  1
  Cr  Cr7  1  0.16433642  0.83529660  0.16404939  1
  Cr  Cr8  1  0.99791434  0.66455345  0.33317884  1
  Cr  Cr9  1  0.33547752  0.99871121  0.00154995  1
  Fe  Fe10  1  0.50077274  0.16781800  0.16644395  1
  Fe  Fe11  1  0.33374017  0.00217807  0.33255104  1
  Cr  Cr12  1  0.33255361  0.33746536  0.00086894  1
  Ni  Ni13  1  0.50292075  0.49984514  0.16588761  1
  Ni  Ni14  1  0.33169051  0.33411331  0.33195011  1
  Cr  Cr15  1  0.33418884  0.66546577  0.99826917  1
  Ni  Ni16  1  0.50340824  0.83337068  0.16894080  1
  Cr  Cr17  1  0.33556467  0.66477083  0.33222842  1
  Ni  Ni18  1  0.67040774  0.99881366  0.00131307  1
  Fe  Fe19  1  0.83459798  0.16723402  0.16434326  1
  Cr  Cr20  1  0.66836224  0.99756275  0.33294828  1
  Ni  Ni21  1  0.66923948  0.33363343  0.00092347  1
  Ni  Ni22  1  0.83262909  0.50044394  0.16634146  1
  Cr  Cr23  1  0.66901072  0.33363099  0.33236491  1
  Ni  Ni24  1  0.66641821  0.66864121  0.00301260  1
  Ni  Ni25  1  0.83115787  0.83170246  0.16446375  1
  Fe  Fe26  1  0.66800068  0.66622838  0.33282390  1
  Fe  Fe27  1  0.16612014  0.16865459  0.50011176  1
  Ni  Ni28  1  0.99881529  0.99900172  0.66731138  1
  Cr  Cr29  1  0.16527137  0.16501128  0.83204521  1
  Fe  Fe30  1  0.16627454  0.49938301  0.50099529  1
  Cr  Cr31  1  0.99930180  0.33316592  0.66407277  1
  Ni  Ni32  1  0.16592417  0.50238983  0.83220918  1
  Cr  Cr33  1  0.16825410  0.83464142  0.50330056  1
  Ni  Ni34  1  0.99999969  0.66790342  0.66764111  1
  Ni  Ni35  1  0.16504926  0.83240969  0.83219467  1
  Cr  Cr36  1  0.49716127  0.16704709  0.50124573  1
  Ni  Ni37  1  0.33309945  0.99871988  0.66566230  1
  Cr  Cr38  1  0.50275190  0.16872179  0.83307120  1
  Cr  Cr39  1  0.50147088  0.50059715  0.50318961  1
  Ni  Ni40  1  0.33242718  0.33651494  0.66748887  1
  Fe  Fe41  1  0.50193557  0.50286110  0.83233118  1
  Fe  Fe42  1  0.50245924  0.83249405  0.50152835  1
  Ni  Ni43  1  0.33378614  0.66614112  0.66930256  1
  Ni  Ni44  1  0.50122166  0.83254598  0.83149698  1
  Ni  Ni45  1  0.83435216  0.16811226  0.50127328  1
  Cr  Cr46  1  0.67123109  0.99942753  0.66764041  1
  Ni  Ni47  1  0.83355185  0.16646513  0.83553978  1
  Ni  Ni48  1  0.83349795  0.50165387  0.50002759  1
  Fe  Fe49  1  0.66818874  0.33480319  0.66734843  1
  Cr  Cr50  1  0.83233931  0.50092316  0.83452781  1
  Ni  Ni51  1  0.83441979  0.83119442  0.50195360  1
  Ni  Ni52  1  0.66735877  0.66837522  0.66525273  1
  Ni  Ni53  1  0.83433560  0.83298322  0.83444294  1
" 