1182,Ni49Fe28Cr21_9,-231.441020441771, 194.024691156328,Ni49Fe28Cr21,"# generated using pymatgen
 data_Cr13Fe15Ni26
_symmetry_space_group_name_H-M   'P 1'
_cell_length_a   7.44896645
_cell_length_b   7.44896645
_cell_length_c   10.53442937
_cell_angle_alpha   90.00000000
_cell_angle_beta   90.00000000
_cell_angle_gamma   90.00000000
_symmetry_Int_Tables_number   1
_chemical_formula_structural   Cr13Fe15Ni26
_chemical_formula_sum   'Cr13 Fe15 Ni26'
_cell_volume   584.52494801
_cell_formula_units_Z   1
loop_
 _symmetry_equiv_pos_site_id
 _symmetry_equiv_pos_as_xyz
  1  'x, y, z'
loop_
 _atom_site_type_symbol
 _atom_site_label
 _atom_site_symmetry_multiplicity
 _atom_site_fract_x
 _atom_site_fract_y
 _atom_site_fract_z
 _atom_site_occupancy
  Ni  Ni0  1  0.99931139  0.99963547  1.00007907  1
  Ni  Ni1  1  0.16928007  0.16775463  0.16827202  1
  Fe  Fe2  1  0.99931118  0.99896238  0.33513369  1
  Cr  Cr3  1  0.00217657  0.33430003  0.99910121  1
  Ni  Ni4  1  0.17131397  0.50228429  0.16865920  1
  Cr  Cr5  1  0.00334038  0.33555578  0.33475937  1
  Ni  Ni6  1  0.99940819  0.66962983  0.99997500  1
  Cr  Cr7  1  0.16655808  0.83351421  0.16839169  1
  Fe  Fe8  1  0.00156210  0.66908585  0.33648412  1
  Cr  Cr9  1  0.33399074  0.00212443  0.00250594  1
  Ni  Ni10  1  0.50139691  0.16878329  0.16914267  1
  Cr  Cr11  1  0.33571481  0.00285190  0.33347845  1
  Cr  Cr12  1  0.33421458  0.33538650  0.00311300  1
  Ni  Ni13  1  0.49984071  0.50174040  0.16844307  1
  Ni  Ni14  1  0.33564293  0.33648017  0.33296086  1
  Fe  Fe15  1  0.33375905  0.66630095  0.00151471  1
  Fe  Fe16  1  0.50328595  0.83319159  0.16860538  1
  Ni  Ni17  1  0.33549202  0.66476596  0.33392749  1
  Fe  Fe18  1  0.67093229  1.00061179  0.00208128  1
  Cr  Cr19  1  0.83388920  0.16544820  0.16716732  1
  Ni  Ni20  1  0.66912424  0.99981433  0.33408903  1
  Fe  Fe21  1  0.66776422  0.33530608  0.99984212  1
  Cr  Cr22  1  0.83316621  0.50335283  0.16809489  1
  Fe  Fe23  1  0.66405339  0.33504503  0.33637840  1
  Fe  Fe24  1  0.66871786  0.66772258  1.00100810  1
  Fe  Fe25  1  0.83329776  0.83461817  0.16778675  1
  Ni  Ni26  1  0.66794225  0.66930022  0.33400831  1
  Cr  Cr27  1  0.16764697  0.16782591  0.50192795  1
  Fe  Fe28  1  1.00051111  1.00096047  0.66898791  1
  Ni  Ni29  1  0.16501879  0.16676983  0.83336817  1
  Ni  Ni30  1  0.16912854  0.50386089  0.50163784  1
  Ni  Ni31  1  1.00062485  0.33478025  0.66973044  1
  Fe  Fe32  1  0.16704984  0.50222543  0.83264517  1
  Ni  Ni33  1  0.16599008  0.83215869  0.50271524  1
  Ni  Ni34  1  0.00244517  0.66792581  0.66727386  1
  Fe  Fe35  1  0.16484189  0.83370048  0.83373291  1
  Fe  Fe36  1  0.50364118  0.17054461  0.50148482  1
  Fe  Fe37  1  0.33251001  0.00151189  0.66803126  1
  Cr  Cr38  1  0.50233844  0.16975599  0.83193618  1
  Ni  Ni39  1  0.50049724  0.49971362  0.50015558  1
  Ni  Ni40  1  0.33438936  0.33524230  0.66769409  1
  Ni  Ni41  1  0.50144035  0.50169947  0.83504042  1
  Cr  Cr42  1  0.50031529  0.83345065  0.50155616  1
  Ni  Ni43  1  0.33179897  0.66669237  0.66838633  1
  Cr  Cr44  1  0.50049181  0.83227438  0.83482779  1
  Ni  Ni45  1  0.83253146  0.16714872  0.50235338  1
  Fe  Fe46  1  0.67061722  0.00355617  0.66681008  1
  Ni  Ni47  1  0.83641388  0.16738554  0.83409718  1
  Ni  Ni48  1  0.83401474  0.50100259  0.50130389  1
  Ni  Ni49  1  0.66862625  0.33336283  0.66689408  1
  Ni  Ni50  1  0.83444503  0.50115333  0.83463211  1
  Ni  Ni51  1  0.83668330  0.83549122  0.49932374  1
  Cr  Cr52  1  0.66979609  0.66667519  0.66761279  1
  Ni  Ni53  1  0.83724322  0.83510262  0.83637563  1
" 