3866,Ni49Fe28Cr21_17,-231.214364683412, 186.710943334255,Ni49Fe28Cr21,"# generated using pymatgen
 data_Cr13Fe15Ni26
_symmetry_space_group_name_H-M   'P 1'
_cell_length_a   7.45247280
_cell_length_b   7.45247280
_cell_length_c   10.53938811
_cell_angle_alpha   90.00000000
_cell_angle_beta   90.00000000
_cell_angle_gamma   90.00000000
_symmetry_Int_Tables_number   1
_chemical_formula_structural   Cr13Fe15Ni26
_chemical_formula_sum   'Cr13 Fe15 Ni26'
_cell_volume   585.35077459
_cell_formula_units_Z   1
loop_
 _symmetry_equiv_pos_site_id
 _symmetry_equiv_pos_as_xyz
  1  'x, y, z'
loop_
 _atom_site_type_symbol
 _atom_site_label
 _atom_site_symmetry_multiplicity
 _atom_site_fract_x
 _atom_site_fract_y
 _atom_site_fract_z
 _atom_site_occupancy
  Fe  Fe0  1  1.00083093  0.99927301  0.00244683  1
  Ni  Ni1  1  0.16763924  0.16754737  0.16869727  1
  Cr  Cr2  1  0.00232548  0.99760425  0.33269976  1
  Fe  Fe3  1  0.00234787  0.33532703  0.00331600  1
  Ni  Ni4  1  0.16814582  0.50244960  0.16675751  1
  Cr  Cr5  1  0.00217809  0.33833561  0.33386625  1
  Ni  Ni6  1  0.00186333  0.66759379  0.00153715  1
  Ni  Ni7  1  0.16894939  0.83301500  0.16752268  1
  Ni  Ni8  1  0.00277015  0.66680551  0.33499105  1
  Cr  Cr9  1  0.33390962  0.99961533  0.00179109  1
  Fe  Fe10  1  0.49925004  0.16898776  0.16697653  1
  Ni  Ni11  1  0.33392290  0.00136303  0.33530104  1
  Ni  Ni12  1  0.33299414  0.33670299  0.00399327  1
  Ni  Ni13  1  0.50007697  0.50215713  0.16525753  1
  Fe  Fe14  1  0.33415744  0.33561973  0.33393801  1
  Ni  Ni15  1  0.32984922  0.66635368  1.00073239  1
  Ni  Ni16  1  0.49892090  0.83329995  0.16710147  1
  Fe  Fe17  1  0.33314967  0.66800405  0.33306934  1
  Ni  Ni18  1  0.67061026  1.00097439  0.00284288  1
  Ni  Ni19  1  0.83462099  0.16804962  0.16349332  1
  Cr  Cr20  1  0.66539717  0.99965173  0.33270314  1
  Ni  Ni21  1  0.66858066  0.33316987  0.00228498  1
  Ni  Ni22  1  0.83467143  0.50054755  0.16599486  1
  Cr  Cr23  1  0.66641637  0.33579137  0.33479487  1
  Fe  Fe24  1  0.66724495  0.66874713  0.00303113  1
  Fe  Fe25  1  0.83653962  0.83175648  0.16534689  1
  Cr  Cr26  1  0.67077796  0.66719668  0.33339792  1
  Fe  Fe27  1  0.16881049  0.16717784  0.50026187  1
  Fe  Fe28  1  0.00124771  0.99718835  0.66776830  1
  Cr  Cr29  1  0.16535372  0.16730880  0.83471899  1
  Ni  Ni30  1  0.16806944  0.50458958  0.50069411  1
  Fe  Fe31  1  1.00078893  0.33619810  0.66675241  1
  Ni  Ni32  1  0.16591392  0.50277991  0.83575347  1
  Ni  Ni33  1  0.16859173  0.83358548  0.50148224  1
  Fe  Fe34  1  0.00241144  0.66968658  0.66725596  1
  Ni  Ni35  1  0.16499103  0.83283203  0.83349872  1
  Ni  Ni36  1  0.49914198  0.16658277  0.50056351  1
  Ni  Ni37  1  0.33361911  1.00024030  0.66510445  1
  Cr  Cr38  1  0.50339349  0.16783158  0.83556887  1
  Ni  Ni39  1  0.50013524  0.50150726  0.50188433  1
  Cr  Cr40  1  0.33222104  0.33545881  0.66670528  1
  Cr  Cr41  1  0.50003551  0.50211009  0.83630331  1
  Fe  Fe42  1  0.50041621  0.83295572  0.50197939  1
  Fe  Fe43  1  0.33353930  0.66930945  0.66719274  1
  Cr  Cr44  1  0.50098698  0.83347045  0.83282555  1
  Cr  Cr45  1  0.83385997  0.16625325  0.50401272  1
  Ni  Ni46  1  0.66805349  0.99837714  0.66694259  1
  Fe  Fe47  1  0.83459322  0.16533749  0.83492729  1
  Ni  Ni48  1  0.83502363  0.50352111  0.50325451  1
  Fe  Fe49  1  0.66626830  0.33468845  0.66637572  1
  Cr  Cr50  1  0.83430228  0.50069446  0.83402389  1
  Ni  Ni51  1  0.83633721  0.83247969  0.50171273  1
  Ni  Ni52  1  0.67082578  0.66900608  0.66583703  1
  Ni  Ni53  1  0.83573218  0.83569348  0.83551873  1
" 