4911,Ni49Fe21Cr29_2,-228.131025716493, 178.237480966394,Ni49Fe21Cr29,"# generated using pymatgen
 data_Cr17Fe11Ni26
_symmetry_space_group_name_H-M   'P 1'
_cell_length_a   7.46762154
_cell_length_b   7.46762154
_cell_length_c   10.56081167
_cell_angle_alpha   90.00000000
_cell_angle_beta   90.00000000
_cell_angle_gamma   90.00000000
_symmetry_Int_Tables_number   1
_chemical_formula_structural   Cr17Fe11Ni26
_chemical_formula_sum   'Cr17 Fe11 Ni26'
_cell_volume   588.92758614
_cell_formula_units_Z   1
loop_
 _symmetry_equiv_pos_site_id
 _symmetry_equiv_pos_as_xyz
  1  'x, y, z'
loop_
 _atom_site_type_symbol
 _atom_site_label
 _atom_site_symmetry_multiplicity
 _atom_site_fract_x
 _atom_site_fract_y
 _atom_site_fract_z
 _atom_site_occupancy
  Ni  Ni0  1  0.99965361  0.00017347  0.00267124  1
  Ni  Ni1  1  0.16620866  0.16579173  0.16265301  1
  Cr  Cr2  1  0.99686723  0.00081360  0.33491177  1
  Fe  Fe3  1  0.99799870  0.33203034  0.00387020  1
  Ni  Ni4  1  0.16511271  0.50052108  0.16726210  1
  Cr  Cr5  1  0.00069332  0.33189290  0.33200248  1
  Fe  Fe6  1  0.99765033  0.66881513  0.00353107  1
  Fe  Fe7  1  0.16406663  0.83170727  0.16693212  1
  Ni  Ni8  1  0.99957929  0.66414293  0.33348854  1
  Fe  Fe9  1  0.33481625  0.00044474  0.00239145  1
  Ni  Ni10  1  0.50082526  0.16594682  0.16905972  1
  Cr  Cr11  1  0.33050138  0.00185345  0.32891278  1
  Cr  Cr12  1  0.33446087  0.33329910  0.00034960  1
  Ni  Ni13  1  0.50149101  0.50120529  0.16922176  1
  Fe  Fe14  1  0.33326400  0.33456584  0.33129882  1
  Cr  Cr15  1  0.33502173  0.66563993  0.00254389  1
  Fe  Fe16  1  0.50321657  0.83223740  0.16897728  1
  Ni  Ni17  1  0.33311249  0.66259389  0.33105560  1
  Cr  Cr18  1  0.66957995  0.00051795  -0.00000870  1
  Ni  Ni19  1  0.83304334  0.16648488  0.16672933  1
  Ni  Ni20  1  0.66715785  0.00188224  0.33325203  1
  Cr  Cr21  1  0.66559796  0.33349983  0.00096917  1
  Ni  Ni22  1  0.83252732  0.50194884  0.16679948  1
  Fe  Fe23  1  0.66717375  0.33394111  0.33231635  1
  Ni  Ni24  1  0.66756401  0.66708423  0.00139223  1
  Fe  Fe25  1  0.83248855  0.83232108  0.16910898  1
  Ni  Ni26  1  0.66694073  0.66556703  0.33254052  1
  Ni  Ni27  1  0.16699761  0.16918715  0.50335176  1
  Ni  Ni28  1  0.99773925  0.00252695  0.66479636  1
  Cr  Cr29  1  0.16428333  0.16568619  0.83369423  1
  Ni  Ni30  1  0.16616147  0.49693531  0.49932594  1
  Ni  Ni31  1  0.99939573  0.33210737  0.66492854  1
  Cr  Cr32  1  0.16375915  0.49846879  0.83203951  1
  Cr  Cr33  1  0.16563254  0.83303220  0.50092707  1
  Ni  Ni34  1  0.99883444  0.66547794  0.66387108  1
  Cr  Cr35  1  0.16467464  0.83459173  0.83236086  1
  Fe  Fe36  1  0.50028732  0.16778389  0.49868234  1
  Ni  Ni37  1  0.33392437  0.00399468  0.66713182  1
  Ni  Ni38  1  0.50097500  0.16571540  0.83066880  1
  Ni  Ni39  1  0.49984498  0.49800420  0.49550788  1
  Fe  Fe40  1  0.33354071  0.33173199  0.66524055  1
  Ni  Ni41  1  0.50111124  0.49918860  0.83425086  1
  Cr  Cr42  1  0.50214731  0.83478952  0.49726554  1
  Cr  Cr43  1  0.33402106  0.66278577  0.66484495  1
  Cr  Cr44  1  0.50098675  0.83497361  0.83317139  1
  Ni  Ni45  1  0.83265870  0.16681371  0.50032933  1
  Ni  Ni46  1  0.66925111  0.00355942  0.66635843  1
  Ni  Ni47  1  0.83420541  0.16505836  0.83340310  1
  Ni  Ni48  1  0.83378848  0.50020997  0.49773780  1
  Cr  Cr49  1  0.66692486  0.33334342  0.66620275  1
  Cr  Cr50  1  0.83486200  0.49943613  0.83704753  1
  Ni  Ni51  1  0.83198995  0.83330069  0.50065399  1
  Cr  Cr52  1  0.66822722  0.66667545  0.66773042  1
  Fe  Fe53  1  0.83508675  0.83562434  0.83216923  1
" 