6035,Ni49Fe49Cr1_4,-239.421205621884, 221.408494337039,Ni49Fe49Cr1,"# generated using pymatgen
 data_Cr(FeNi)13
_symmetry_space_group_name_H-M   'P 1'
_cell_length_a   7.40592258
_cell_length_b   7.40592258
_cell_length_c   10.47355615
_cell_angle_alpha   90.00000000
_cell_angle_beta   90.00000000
_cell_angle_gamma   90.00000000
_symmetry_Int_Tables_number   1
_chemical_formula_structural   Cr(FeNi)13
_chemical_formula_sum   'Cr2 Fe26 Ni26'
_cell_volume   574.45035248
_cell_formula_units_Z   2
loop_
 _symmetry_equiv_pos_site_id
 _symmetry_equiv_pos_as_xyz
  1  'x, y, z'
loop_
 _atom_site_type_symbol
 _atom_site_label
 _atom_site_symmetry_multiplicity
 _atom_site_fract_x
 _atom_site_fract_y
 _atom_site_fract_z
 _atom_site_occupancy
  Ni  Ni0  1  1.00400919  1.00283572  0.00433710  1
  Ni  Ni1  1  0.17123732  0.16965829  0.17084283  1
  Fe  Fe2  1  1.00375040  1.00344253  0.33709209  1
  Cr  Cr3  1  0.00446304  0.33688155  1.00360228  1
  Ni  Ni4  1  0.17241245  0.50573602  0.17072318  1
  Cr  Cr5  1  0.00487059  0.33599569  0.33740872  1
  Ni  Ni6  1  0.00436596  0.67287766  1.00389874  1
  Fe  Fe7  1  0.17033097  0.83765200  0.17001478  1
  Fe  Fe8  1  1.00370883  0.67135722  0.33701562  1
  Fe  Fe9  1  0.33768089  1.00325009  1.00404990  1
  Fe  Fe10  1  0.50417238  0.17117929  0.17157743  1
  Fe  Fe11  1  0.33875467  0.00462839  0.33753455  1
  Fe  Fe12  1  0.33918813  0.33761334  0.00444736  1
  Fe  Fe13  1  0.50384448  0.50347241  0.17082833  1
  Ni  Ni14  1  0.33781419  0.33771955  0.33738626  1
  Fe  Fe15  1  0.33790586  0.67151725  1.00389788  1
  Ni  Ni16  1  0.50408924  0.83665027  0.17093353  1
  Ni  Ni17  1  0.33778048  0.67047967  0.33797481  1
  Ni  Ni18  1  0.67125646  1.00368650  1.00334402  1
  Ni  Ni19  1  0.83636607  0.16950715  0.17163640  1
  Ni  Ni20  1  0.67133780  1.00383486  0.33781583  1
  Ni  Ni21  1  0.66937048  0.33702399  1.00411326  1
  Fe  Fe22  1  0.83569472  0.50572762  0.17057109  1
  Ni  Ni23  1  0.66944471  0.33655072  0.33782427  1
  Ni  Ni24  1  0.67054513  0.67166960  1.00387747  1
  Fe  Fe25  1  0.83773398  0.83798058  0.17041937  1
  Ni  Ni26  1  0.66982300  0.67199673  0.33751533  1
  Ni  Ni27  1  0.17177089  0.16966341  0.50476076  1
  Fe  Fe28  1  0.00490325  0.00422077  0.67121277  1
  Fe  Fe29  1  0.17174622  0.16991808  0.83647553  1
  Fe  Fe30  1  0.17208203  0.50347271  0.50440611  1
  Fe  Fe31  1  1.00390046  0.33821390  0.67042367  1
  Fe  Fe32  1  0.17200588  0.50571259  0.83681140  1
  Fe  Fe33  1  0.17043530  0.83801317  0.50480051  1
  Fe  Fe34  1  0.00453645  0.66994565  0.67143678  1
  Ni  Ni35  1  0.17216644  0.83731983  0.83861424  1
  Ni  Ni36  1  0.50399409  0.17055659  0.50329295  1
  Fe  Fe37  1  0.33781011  1.00348436  0.67079600  1
  Fe  Fe38  1  0.50472532  0.17119244  0.83715403  1
  Fe  Fe39  1  0.50427516  0.50275494  0.50443285  1
  Ni  Ni40  1  0.33595570  0.33769026  0.67073570  1
  Ni  Ni41  1  0.50500142  0.50566131  0.83791201  1
  Fe  Fe42  1  0.50498123  0.83779055  0.50383074  1
  Ni  Ni43  1  0.33799735  0.67011271  0.67111514  1
  Ni  Ni44  1  0.50267058  0.83613486  0.83707008  1
  Ni  Ni45  1  0.83661499  0.17115676  0.50453223  1
  Fe  Fe46  1  0.66966668  1.00412275  0.67065035  1
  Ni  Ni47  1  0.83699876  0.17118254  0.83620939  1
  Ni  Ni48  1  0.83626026  0.50461250  0.50432826  1
  Fe  Fe49  1  0.67050429  0.33847390  0.67086546  1
  Ni  Ni50  1  0.83581021  0.50388243  0.83734757  1
  Fe  Fe51  1  0.83696321  0.83828659  0.50379872  1
  Ni  Ni52  1  0.67019952  0.67159458  0.67098754  1
  Fe  Fe53  1  0.83691821  0.83675055  0.83816218  1
" 