2394,Ni49Fe21Cr29_6,-228.401934051713, 174.820993787251,Ni49Fe21Cr29,"# generated using pymatgen
 data_Cr17Fe11Ni26
_symmetry_space_group_name_H-M   'P 1'
_cell_length_a   7.47114465
_cell_length_b   7.47114465
_cell_length_c   10.56579409
_cell_angle_alpha   90.00000000
_cell_angle_beta   90.00000000
_cell_angle_gamma   90.00000000
_symmetry_Int_Tables_number   1
_chemical_formula_structural   Cr17Fe11Ni26
_chemical_formula_sum   'Cr17 Fe11 Ni26'
_cell_volume   589.76151917
_cell_formula_units_Z   1
loop_
 _symmetry_equiv_pos_site_id
 _symmetry_equiv_pos_as_xyz
  1  'x, y, z'
loop_
 _atom_site_type_symbol
 _atom_site_label
 _atom_site_symmetry_multiplicity
 _atom_site_fract_x
 _atom_site_fract_y
 _atom_site_fract_z
 _atom_site_occupancy
  Ni  Ni0  1  0.99681560  0.00118392  0.00347084  1
  Ni  Ni1  1  0.16463892  0.16594119  0.16626722  1
  Ni  Ni2  1  -0.00011896  0.00179362  0.33177773  1
  Cr  Cr3  1  -0.00008888  0.33218603  0.99744081  1
  Cr  Cr4  1  0.16577701  0.49947743  0.16786783  1
  Ni  Ni5  1  0.99746545  0.33262806  0.33479082  1
  Cr  Cr6  1  0.99737228  0.66693585  0.00155392  1
  Ni  Ni7  1  0.16607343  0.83537911  0.16900174  1
  Fe  Fe8  1  0.00077505  0.66897913  0.33291251  1
  Cr  Cr9  1  0.33382492  0.00046850  0.00234627  1
  Fe  Fe10  1  0.49986519  0.16658736  0.16686852  1
  Ni  Ni11  1  0.33017502  0.99748035  0.33130162  1
  Ni  Ni12  1  0.33616796  0.33432509  0.99896368  1
  Fe  Fe13  1  0.50091086  0.49848741  0.16696548  1
  Cr  Cr14  1  0.32956823  0.33114311  0.33323756  1
  Cr  Cr15  1  0.33590817  0.66601553  0.99895535  1
  Ni  Ni16  1  0.49917885  0.83101453  0.16760432  1
  Ni  Ni17  1  0.33261646  0.66817014  0.33310138  1
  Cr  Cr18  1  0.66681014  0.99746208  0.00092123  1
  Ni  Ni19  1  0.83363831  0.16810428  0.16670154  1
  Cr  Cr20  1  0.66915039  0.99830636  0.33263674  1
  Fe  Fe21  1  0.66601092  0.33235940  0.99924605  1
  Ni  Ni22  1  0.83007991  0.49733393  0.16744442  1
  Fe  Fe23  1  0.66901982  0.33129634  0.33300728  1
  Fe  Fe24  1  0.66582028  0.66488712  0.00100945  1
  Ni  Ni25  1  0.83382532  0.83314691  0.16578979  1
  Cr  Cr26  1  0.66876770  0.66748119  0.33047428  1
  Ni  Ni27  1  0.16347418  0.16436950  0.49835382  1
  Ni  Ni28  1  0.99825447  0.00008593  0.66419937  1
  Cr  Cr29  1  0.16477437  0.16476760  0.83508500  1
  Ni  Ni30  1  0.16435706  0.50269521  0.49823680  1
  Cr  Cr31  1  0.99916129  0.33392577  0.66538263  1
  Ni  Ni32  1  0.16801884  0.50085390  0.83218461  1
  Ni  Ni33  1  0.16372519  0.83324730  0.49894048  1
  Fe  Fe34  1  0.99907058  0.66708997  0.66474592  1
  Cr  Cr35  1  0.16527580  0.83276746  0.83162014  1
  Cr  Cr36  1  0.50213704  0.16542771  0.50073501  1
  Ni  Ni37  1  0.33261192  0.99821238  0.66607765  1
  Ni  Ni38  1  0.50279088  0.16687576  0.83184596  1
  Cr  Cr39  1  0.50078602  0.50014983  0.49899715  1
  Cr  Cr40  1  0.33123050  0.33240574  0.66735818  1
  Fe  Fe41  1  0.50214591  0.49876013  0.83188365  1
  Cr  Cr42  1  0.49937955  0.83328538  0.50273675  1
  Fe  Fe43  1  0.33228414  0.66685965  0.66581355  1
  Ni  Ni44  1  0.50133403  0.83212628  0.82907178  1
  Ni  Ni45  1  0.83500658  0.16614838  0.50035049  1
  Ni  Ni46  1  0.66805854  0.99911668  0.66670262  1
  Ni  Ni47  1  0.82910641  0.16733642  0.83194499  1
  Fe  Fe48  1  0.83457254  0.50074492  0.49880654  1
  Ni  Ni49  1  0.66891579  0.33419679  0.66683957  1
  Fe  Fe50  1  0.83097905  0.49951201  0.83311756  1
  Ni  Ni51  1  0.83628599  0.83379751  0.50156023  1
  Ni  Ni52  1  0.66838092  0.66635966  0.66829267  1
  Cr  Cr53  1  0.83302776  0.83550183  0.83265219  1
" 