2390,Ni49Fe21Cr29_12,-228.519176241661, 180.900220065244,Ni49Fe21Cr29,"# generated using pymatgen
 data_Cr17Fe11Ni26
_symmetry_space_group_name_H-M   'P 1'
_cell_length_a   7.47054688
_cell_length_b   7.47054688
_cell_length_c   10.56494871
_cell_angle_alpha   90.00000000
_cell_angle_beta   90.00000000
_cell_angle_gamma   90.00000000
_symmetry_Int_Tables_number   1
_chemical_formula_structural   Cr17Fe11Ni26
_chemical_formula_sum   'Cr17 Fe11 Ni26'
_cell_volume   589.61996905
_cell_formula_units_Z   1
loop_
 _symmetry_equiv_pos_site_id
 _symmetry_equiv_pos_as_xyz
  1  'x, y, z'
loop_
 _atom_site_type_symbol
 _atom_site_label
 _atom_site_symmetry_multiplicity
 _atom_site_fract_x
 _atom_site_fract_y
 _atom_site_fract_z
 _atom_site_occupancy
  Cr  Cr0  1  0.99832319  0.00088943  0.99842945  1
  Ni  Ni1  1  0.16699041  0.16751870  0.16644499  1
  Ni  Ni2  1  0.99836250  0.99818657  0.33508813  1
  Fe  Fe3  1  0.99961421  0.33341195  0.99831756  1
  Cr  Cr4  1  0.16643164  0.49990142  0.16382676  1
  Cr  Cr5  1  0.99971231  0.33236004  0.33319391  1
  Fe  Fe6  1  0.99840610  0.66534734  0.99914283  1
  Cr  Cr7  1  0.16523739  0.83265555  0.16692072  1
  Ni  Ni8  1  0.99692083  0.66898272  0.33281695  1
  Cr  Cr9  1  0.33547229  0.00163452  0.00141776  1
  Ni  Ni10  1  0.50152183  0.16778319  0.16547774  1
  Cr  Cr11  1  0.33317580  0.00069847  0.33245024  1
  Fe  Fe12  1  0.33431804  0.33234949  0.99974593  1
  Ni  Ni13  1  0.50150452  0.49913455  0.16694837  1
  Cr  Cr14  1  0.33446380  0.33193413  0.33338239  1
  Ni  Ni15  1  0.33253574  0.66420569  0.00027032  1
  Ni  Ni16  1  0.50297728  0.83238040  0.16593277  1
  Cr  Cr17  1  0.33498221  0.66666472  0.33450771  1
  Ni  Ni18  1  0.66595340  0.00140919  0.99957716  1
  Cr  Cr19  1  0.83111300  0.16591667  0.16733828  1
  Ni  Ni20  1  0.66756023  0.99840399  0.33271133  1
  Ni  Ni21  1  0.66627422  0.33200875  0.99962512  1
  Fe  Fe22  1  0.83043208  0.50117299  0.16718805  1
  Ni  Ni23  1  0.66534737  0.33348544  0.33292946  1
  Cr  Cr24  1  0.66747238  0.66709759  0.00205835  1
  Ni  Ni25  1  0.83126374  0.83218353  0.16924075  1
  Ni  Ni26  1  0.66764601  0.66740762  0.33140063  1
  Fe  Fe27  1  0.16531859  0.16517483  0.50062238  1
  Ni  Ni28  1  -0.00008492  0.99853692  0.66557362  1
  Ni  Ni29  1  0.16518364  0.16945881  0.83263501  1
  Ni  Ni30  1  0.16815595  0.50239314  0.50212000  1
  Cr  Cr31  1  0.00076791  0.33212671  0.66794781  1
  Fe  Fe32  1  0.16583540  0.49863512  0.83311301  1
  Ni  Ni33  1  0.16513509  0.83147021  0.50046403  1
  Ni  Ni34  1  0.99961803  0.66787100  0.66741282  1
  Cr  Cr35  1  0.16455411  0.83075281  0.83215084  1
  Fe  Fe36  1  0.50127377  0.16784218  0.49981739  1
  Cr  Cr37  1  0.33148676  0.00173682  0.66542988  1
  Ni  Ni38  1  0.50168718  0.16985309  0.83390887  1
  Fe  Fe39  1  0.50001270  0.50000577  0.50099452  1
  Ni  Ni40  1  0.33345530  0.33373251  0.66649018  1
  Cr  Cr41  1  0.49884124  0.49766336  0.83053790  1
  Ni  Ni42  1  0.49978132  0.83128604  0.49962140  1
  Fe  Fe43  1  0.33224395  0.66436803  0.66408092  1
  Cr  Cr44  1  0.50083429  0.83297869  0.83372716  1
  Ni  Ni45  1  0.83211396  0.16486055  0.49914026  1
  Cr  Cr46  1  0.66840034  0.99969790  0.66777978  1
  Ni  Ni47  1  0.83242746  0.16705687  0.83356783  1
  Cr  Cr48  1  0.83152085  0.49929490  0.49876633  1
  Ni  Ni49  1  0.66432732  0.33402445  0.66673936  1
  Fe  Fe50  1  0.83365356  0.49910457  0.83236464  1
  Fe  Fe51  1  0.83460889  0.83346684  0.49888745  1
  Ni  Ni52  1  0.66748664  0.66547142  0.66594213  1
  Ni  Ni53  1  0.83470112  0.83336476  0.83113378  1
" 