7357,Ni49Fe49Cr1_3,-239.711681707538, 219.039275248886,Ni49Fe49Cr1,"# generated using pymatgen
 data_Cr(FeNi)13
_symmetry_space_group_name_H-M   'P 1'
_cell_length_a   7.40671265
_cell_length_b   7.40671265
_cell_length_c   10.47467348
_cell_angle_alpha   90.00000000
_cell_angle_beta   90.00000000
_cell_angle_gamma   90.00000000
_symmetry_Int_Tables_number   1
_chemical_formula_structural   Cr(FeNi)13
_chemical_formula_sum   'Cr2 Fe26 Ni26'
_cell_volume   574.63422155
_cell_formula_units_Z   2
loop_
 _symmetry_equiv_pos_site_id
 _symmetry_equiv_pos_as_xyz
  1  'x, y, z'
loop_
 _atom_site_type_symbol
 _atom_site_label
 _atom_site_symmetry_multiplicity
 _atom_site_fract_x
 _atom_site_fract_y
 _atom_site_fract_z
 _atom_site_occupancy
  Ni  Ni0  1  0.00444943  0.00465304  0.00548677  1
  Fe  Fe1  1  0.16878283  0.16974931  0.16983497  1
  Fe  Fe2  1  1.00352807  0.00421351  0.33743186  1
  Ni  Ni3  1  1.00397424  0.33719082  0.00434024  1
  Fe  Fe4  1  0.16817612  0.50461610  0.17032057  1
  Ni  Ni5  1  1.00274727  0.33820404  0.33811176  1
  Fe  Fe6  1  1.00318276  0.67103249  0.00487898  1
  Fe  Fe7  1  0.16964863  0.83785338  0.17070216  1
  Ni  Ni8  1  1.00332430  0.67005807  0.33785115  1
  Ni  Ni9  1  0.33715768  1.00385322  0.00408334  1
  Fe  Fe10  1  0.50605471  0.16941615  0.17004593  1
  Ni  Ni11  1  0.33757128  1.00170374  0.33729320  1
  Fe  Fe12  1  0.33769774  0.33684599  1.00363795  1
  Fe  Fe13  1  0.50649779  0.50478146  0.16945302  1
  Cr  Cr14  1  0.33585415  0.33771356  0.33708085  1
  Fe  Fe15  1  0.33760356  0.67090946  1.00335711  1
  Fe  Fe16  1  0.50535567  0.83801647  0.17101446  1
  Fe  Fe17  1  0.33691287  0.67258885  0.33824676  1
  Ni  Ni18  1  0.67060802  1.00333863  1.00371536  1
  Ni  Ni19  1  0.83683729  0.17070687  0.17116410  1
  Ni  Ni20  1  0.67102584  1.00227872  0.33662477  1
  Ni  Ni21  1  0.67139470  0.33819808  0.00482942  1
  Ni  Ni22  1  0.83798009  0.50355306  0.17017086  1
  Fe  Fe23  1  0.67397874  0.33762209  0.33655040  1
  Ni  Ni24  1  0.67059574  0.67068107  0.00460440  1
  Ni  Ni25  1  0.83706204  0.83795943  0.17012709  1
  Fe  Fe26  1  0.67145322  0.67126438  0.33756566  1
  Fe  Fe27  1  0.16766617  0.17010647  0.50493956  1
  Ni  Ni28  1  0.00416821  0.00491155  0.66943944  1
  Fe  Fe29  1  0.17003411  0.17100499  0.83744603  1
  Ni  Ni30  1  0.16981437  0.50507520  0.50479041  1
  Ni  Ni31  1  0.00442374  0.33640397  0.66976853  1
  Ni  Ni32  1  0.17142342  0.50428576  0.83813469  1
  Fe  Fe33  1  0.17021737  0.83725620  0.50398490  1
  Fe  Fe34  1  0.00426101  0.66950151  0.66986766  1
  Fe  Fe35  1  0.17043554  0.83795538  0.83753069  1
  Cr  Cr36  1  0.50554373  0.16910400  0.50569208  1
  Fe  Fe37  1  0.33696271  1.00352920  0.67125436  1
  Fe  Fe38  1  0.50405348  0.17142036  0.83755149  1
  Fe  Fe39  1  0.50565576  0.50671542  0.50576982  1
  Ni  Ni40  1  0.33627220  0.33893534  0.67170530  1
  Fe  Fe41  1  0.50444182  0.50368961  0.83699220  1
  Ni  Ni42  1  0.50355778  0.83670595  0.50380819  1
  Ni  Ni43  1  0.33867651  0.67026091  0.66939135  1
  Fe  Fe44  1  0.50408362  0.83711216  0.83721218  1
  Ni  Ni45  1  0.83835748  0.17093051  0.50343738  1
  Fe  Fe46  1  0.67183795  1.00375837  0.67096347  1
  Ni  Ni47  1  0.83660346  0.17041319  0.83761402  1
  Ni  Ni48  1  0.83909780  0.50370224  0.50437157  1
  Ni  Ni49  1  0.67152410  0.33920108  0.67058376  1
  Fe  Fe50  1  0.83728807  0.50328924  0.83753529  1
  Ni  Ni51  1  0.83674765  0.83758628  0.50424915  1
  Ni  Ni52  1  0.66963831  0.67051657  0.66971754  1
  Fe  Fe53  1  0.83770042  0.83756809  0.83766734  1
" 