1972,Ni49Fe21Cr29_8,-228.624168731995, 179.105382307944,Ni49Fe21Cr29,"# generated using pymatgen
 data_Cr17Fe11Ni26
_symmetry_space_group_name_H-M   'P 1'
_cell_length_a   7.47222972
_cell_length_b   7.47222972
_cell_length_c   10.56732861
_cell_angle_alpha   90.00000000
_cell_angle_beta   90.00000000
_cell_angle_gamma   90.00000000
_symmetry_Int_Tables_number   1
_chemical_formula_structural   Cr17Fe11Ni26
_chemical_formula_sum   'Cr17 Fe11 Ni26'
_cell_volume   590.01851927
_cell_formula_units_Z   1
loop_
 _symmetry_equiv_pos_site_id
 _symmetry_equiv_pos_as_xyz
  1  'x, y, z'
loop_
 _atom_site_type_symbol
 _atom_site_label
 _atom_site_symmetry_multiplicity
 _atom_site_fract_x
 _atom_site_fract_y
 _atom_site_fract_z
 _atom_site_occupancy
  Ni  Ni0  1  -0.00012227  0.99870626  -0.00018384  1
  Cr  Cr1  1  0.16494905  0.16514366  0.16684004  1
  Ni  Ni2  1  0.00014198  0.99646469  0.33343726  1
  Ni  Ni3  1  0.99696345  0.33519071  0.00184284  1
  Ni  Ni4  1  0.16577739  0.50139029  0.16796258  1
  Fe  Fe5  1  0.99937160  0.33646673  0.33116363  1
  Fe  Fe6  1  -0.00026147  0.66570552  0.00036399  1
  Ni  Ni7  1  0.16497253  0.83213071  0.16561038  1
  Ni  Ni8  1  -0.00016868  0.66697647  0.33318040  1
  Ni  Ni9  1  0.33290460  0.99658108  0.00044128  1
  Fe  Fe10  1  0.50043622  0.16685024  0.16465318  1
  Cr  Cr11  1  0.33292531  0.99697246  0.33377263  1
  Cr  Cr12  1  0.33370224  0.33631890  0.00054514  1
  Ni  Ni13  1  0.50000040  0.49916802  0.16839935  1
  Ni  Ni14  1  0.33331746  0.33518958  0.33138646  1
  Cr  Cr15  1  0.33194599  0.66732997  0.00070417  1
  Fe  Fe16  1  0.49808384  0.83057736  0.16662560  1
  Ni  Ni17  1  0.33165003  0.66614601  0.33009990  1
  Ni  Ni18  1  0.66641881  -0.00001894  0.00098261  1
  Fe  Fe19  1  0.83422304  0.16794169  0.16394105  1
  Cr  Cr20  1  0.66671615  0.99773205  0.33383614  1
  Ni  Ni21  1  0.66900458  0.33370994  0.00121950  1
  Ni  Ni22  1  0.83310780  0.50012245  0.16578674  1
  Cr  Cr23  1  0.66696017  0.33471734  0.33111577  1
  Cr  Cr24  1  0.66480532  0.66438455  0.99956728  1
  Cr  Cr25  1  0.83484081  0.83300329  0.16675487  1
  Ni  Ni26  1  0.66712654  0.66537095  0.33340856  1
  Cr  Cr27  1  0.17062219  0.16627622  0.49886676  1
  Cr  Cr28  1  0.99954478  0.99621122  0.66428060  1
  Cr  Cr29  1  0.16831973  0.16495635  0.83285585  1
  Cr  Cr30  1  0.16812251  0.50267360  0.49732616  1
  Cr  Cr31  1  0.99796450  0.33637146  0.66582388  1
  Fe  Fe32  1  0.16587653  0.50174098  0.83253251  1
  Ni  Ni33  1  0.16514485  0.83115414  0.49955660  1
  Fe  Fe34  1  0.99854214  0.66758269  0.66559855  1
  Fe  Fe35  1  0.16698542  0.83202987  0.83306437  1
  Ni  Ni36  1  0.49852520  0.16673747  0.50368582  1
  Ni  Ni37  1  0.33523829  0.99585406  0.66495492  1
  Cr  Cr38  1  0.50004054  0.16729860  0.83165831  1
  Cr  Cr39  1  0.49970338  0.50002617  0.50018519  1
  Ni  Ni40  1  0.33505144  0.33497712  0.66694848  1
  Ni  Ni41  1  0.50026175  0.50086751  0.83023828  1
  Fe  Fe42  1  0.49965658  0.83130796  0.50141011  1
  Ni  Ni43  1  0.33347914  0.66819221  0.66801004  1
  Fe  Fe44  1  0.50129612  0.83364461  0.83138924  1
  Cr  Cr45  1  0.83090259  0.16533645  0.49910393  1
  Ni  Ni46  1  0.66431422  0.99614964  0.66503556  1
  Cr  Cr47  1  0.83077727  0.16324292  0.83638018  1
  Ni  Ni48  1  0.83126369  0.50589469  0.50022406  1
  Ni  Ni49  1  0.66525933  0.33560253  0.66682742  1
  Fe  Fe50  1  0.83107516  0.50030182  0.83312519  1
  Ni  Ni51  1  0.83321257  0.82900922  0.49944317  1
  Ni  Ni52  1  0.66664006  0.66713494  0.66648307  1
  Ni  Ni53  1  0.83366217  0.83042861  0.83280930  1
" 