6103,Ni49Fe49Cr1_15,-239.201759178889, 218.944242226267,Ni49Fe49Cr1,"# generated using pymatgen
 data_Cr(FeNi)13
_symmetry_space_group_name_H-M   'P 1'
_cell_length_a   7.40747801
_cell_length_b   7.40747801
_cell_length_c   10.47575587
_cell_angle_alpha   90.00000000
_cell_angle_beta   90.00000000
_cell_angle_gamma   90.00000000
_symmetry_Int_Tables_number   1
_chemical_formula_structural   Cr(FeNi)13
_chemical_formula_sum   'Cr2 Fe26 Ni26'
_cell_volume   574.81237657
_cell_formula_units_Z   2
loop_
 _symmetry_equiv_pos_site_id
 _symmetry_equiv_pos_as_xyz
  1  'x, y, z'
loop_
 _atom_site_type_symbol
 _atom_site_label
 _atom_site_symmetry_multiplicity
 _atom_site_fract_x
 _atom_site_fract_y
 _atom_site_fract_z
 _atom_site_occupancy
  Ni  Ni0  1  0.00430705  0.00415289  1.00390941  1
  Fe  Fe1  1  0.16969784  0.17024215  0.17059322  1
  Ni  Ni2  1  1.00229436  1.00248522  0.33661965  1
  Ni  Ni3  1  1.00298016  0.33614193  1.00359430  1
  Fe  Fe4  1  0.17058046  0.50423325  0.17076485  1
  Fe  Fe5  1  1.00282217  0.33776238  0.33583196  1
  Fe  Fe6  1  0.00418624  0.67004958  1.00351188  1
  Fe  Fe7  1  0.16987502  0.83758474  0.17006421  1
  Fe  Fe8  1  1.00373577  0.67046071  0.33760822  1
  Ni  Ni9  1  0.33585903  1.00369698  0.00501466  1
  Fe  Fe10  1  0.50530223  0.17081395  0.17039999  1
  Fe  Fe11  1  0.33910270  1.00322443  0.33678923  1
  Ni  Ni12  1  0.33809841  0.33750573  1.00388893  1
  Fe  Fe13  1  0.50505655  0.50430031  0.17060739  1
  Ni  Ni14  1  0.33949052  0.33930546  0.33634613  1
  Ni  Ni15  1  0.33829095  0.67085933  1.00310084  1
  Ni  Ni16  1  0.50337740  0.83728812  0.17031772  1
  Ni  Ni17  1  0.33709443  0.66999363  0.33834319  1
  Fe  Fe18  1  0.67025524  0.00476872  0.00477931  1
  Ni  Ni19  1  0.83798328  0.17173059  0.17117811  1
  Ni  Ni20  1  0.67248140  0.00488082  0.33797952  1
  Ni  Ni21  1  0.67098668  0.33857236  0.00444009  1
  Ni  Ni22  1  0.83772278  0.50330809  0.17099330  1
  Ni  Ni23  1  0.67007269  0.33698323  0.33728430  1
  Ni  Ni24  1  0.67052934  0.66952599  0.00450204  1
  Ni  Ni25  1  0.83667309  0.83702276  0.17043633  1
  Fe  Fe26  1  0.67020482  0.67114145  0.33709761  1
  Cr  Cr27  1  0.17072299  0.17095690  0.50504093  1
  Ni  Ni28  1  0.00412765  1.00190859  0.67153135  1
  Fe  Fe29  1  0.17051227  0.17046754  0.83721891  1
  Fe  Fe30  1  0.17173614  0.50589161  0.50392070  1
  Fe  Fe31  1  0.00470640  0.33831344  0.67217308  1
  Fe  Fe32  1  0.17054477  0.50322129  0.83737584  1
  Fe  Fe33  1  0.17076348  0.83604467  0.50479953  1
  Ni  Ni34  1  1.00343329  0.67248132  0.67063939  1
  Ni  Ni35  1  0.17173195  0.83730586  0.83666867  1
  Fe  Fe36  1  0.50444437  0.16991349  0.50356299  1
  Ni  Ni37  1  0.33647951  1.00371463  0.67063320  1
  Ni  Ni38  1  0.50295591  0.16977719  0.83761055  1
  Fe  Fe39  1  0.50273997  0.50473395  0.50299023  1
  Ni  Ni40  1  0.33755995  0.33752509  0.67182821  1
  Fe  Fe41  1  0.50374983  0.50424309  0.83846513  1
  Ni  Ni42  1  0.50389963  0.83696185  0.50487045  1
  Fe  Fe43  1  0.33694043  0.67148814  0.67040107  1
  Fe  Fe44  1  0.50432164  0.83749293  0.83747036  1
  Fe  Fe45  1  0.83621716  0.16894321  0.50265751  1
  Fe  Fe46  1  0.67034984  1.00233003  0.67015997  1
  Ni  Ni47  1  0.83797900  0.17145810  0.83757469  1
  Fe  Fe48  1  0.83758774  0.50536955  0.50366277  1
  Cr  Cr49  1  0.66949808  0.33798273  0.67063373  1
  Ni  Ni50  1  0.83845842  0.50389564  0.83819083  1
  Fe  Fe51  1  0.83737375  0.83774994  0.50387501  1
  Ni  Ni52  1  0.67160426  0.67139908  0.66993245  1
  Fe  Fe53  1  0.83763011  0.83752448  0.83724519  1
" 