7561,Ni49Fe21Cr29_16,-228.319787516627, 177.800202989957,Ni49Fe21Cr29,"# generated using pymatgen
 data_Cr17Fe11Ni26
_symmetry_space_group_name_H-M   'P 1'
_cell_length_a   7.46617912
_cell_length_b   7.46617912
_cell_length_c   10.55877177
_cell_angle_alpha   90.00000000
_cell_angle_beta   90.00000000
_cell_angle_gamma   90.00000000
_symmetry_Int_Tables_number   1
_chemical_formula_structural   Cr17Fe11Ni26
_chemical_formula_sum   'Cr17 Fe11 Ni26'
_cell_volume   588.58638510
_cell_formula_units_Z   1
loop_
 _symmetry_equiv_pos_site_id
 _symmetry_equiv_pos_as_xyz
  1  'x, y, z'
loop_
 _atom_site_type_symbol
 _atom_site_label
 _atom_site_symmetry_multiplicity
 _atom_site_fract_x
 _atom_site_fract_y
 _atom_site_fract_z
 _atom_site_occupancy
  Ni  Ni0  1  0.99787486  0.00110371  0.00189449  1
  Fe  Fe1  1  0.16659751  0.16719462  0.16552018  1
  Cr  Cr2  1  1.00004044  0.00114688  0.33306774  1
  Ni  Ni3  1  0.99686101  0.33048120  0.99901004  1
  Cr  Cr4  1  0.16355040  0.49994292  0.16587443  1
  Ni  Ni5  1  0.00068776  0.33297155  0.33622404  1
  Ni  Ni6  1  0.00103351  0.66820822  0.99924268  1
  Ni  Ni7  1  0.16480598  0.83481055  0.16336114  1
  Ni  Ni8  1  0.99991696  0.66742544  0.33531358  1
  Fe  Fe9  1  0.33370895  0.00129472  0.00221710  1
  Ni  Ni10  1  0.49996881  0.16466925  0.16394753  1
  Cr  Cr11  1  0.33214795  0.99959155  0.33357491  1
  Fe  Fe12  1  0.33356282  0.33099702  0.99988704  1
  Cr  Cr13  1  0.50097776  0.49857378  0.16716656  1
  Fe  Fe14  1  0.33015171  0.33218270  0.33434934  1
  Ni  Ni15  1  0.33228025  0.66907455  0.00161936  1
  Ni  Ni16  1  0.50004726  0.83648070  0.16533511  1
  Cr  Cr17  1  0.33226670  0.66884471  0.33451503  1
  Ni  Ni18  1  0.66784059  0.00355066  0.00013565  1
  Fe  Fe19  1  0.83433880  0.16626779  0.16501468  1
  Cr  Cr20  1  0.66814489  0.99880318  0.33216877  1
  Ni  Ni21  1  0.66807515  0.32817848  0.99847125  1
  Cr  Cr22  1  0.83544088  0.50041714  0.16759239  1
  Cr  Cr23  1  0.66987848  0.33108248  0.33278527  1
  Cr  Cr24  1  0.66655253  0.66717762  0.99901025  1
  Fe  Fe25  1  0.83370850  0.83322635  0.16496371  1
  Ni  Ni26  1  0.66838865  0.66921445  0.33509914  1
  Ni  Ni27  1  0.16377385  0.16752862  0.50069381  1
  Ni  Ni28  1  0.99806852  0.00036656  0.66495337  1
  Cr  Cr29  1  0.16686056  0.16547951  0.83266257  1
  Ni  Ni30  1  0.16184250  0.49868409  0.49976481  1
  Ni  Ni31  1  0.99790609  0.33250681  0.66512776  1
  Cr  Cr32  1  0.16262912  0.49937129  0.83499663  1
  Ni  Ni33  1  0.16482921  0.83428333  0.50213320  1
  Ni  Ni34  1  0.99856291  0.66727021  0.66585958  1
  Cr  Cr35  1  0.16326747  0.83579867  0.83511663  1
  Cr  Cr36  1  0.50044880  0.16524154  0.50240029  1
  Fe  Fe37  1  0.33071334  0.00209276  0.66473561  1
  Ni  Ni38  1  0.50188418  0.16612790  0.83301976  1
  Cr  Cr39  1  0.50337749  0.49986686  0.49888477  1
  Ni  Ni40  1  0.33319916  0.33204563  0.66523969  1
  Cr  Cr41  1  0.50188849  0.49666574  0.83437626  1
  Ni  Ni42  1  0.50238707  0.83438935  0.50212676  1
  Cr  Cr43  1  0.33166290  0.66642363  0.66536367  1
  Cr  Cr44  1  0.50083730  0.83862782  0.83235109  1
  Ni  Ni45  1  0.83564591  0.16807240  0.50231868  1
  Fe  Fe46  1  0.67024788  0.00102805  0.66743240  1
  Fe  Fe47  1  0.83325912  0.16558021  0.83267642  1
  Ni  Ni48  1  0.83638161  0.50031132  0.50046535  1
  Ni  Ni49  1  0.66923755  0.33133516  0.66882187  1
  Ni  Ni50  1  0.83482807  0.49926665  0.83282150  1
  Fe  Fe51  1  0.83459081  0.83254181  0.50180117  1
  Fe  Fe52  1  0.67136550  0.66528876  0.66635603  1
  Ni  Ni53  1  0.83459621  0.83403379  0.83327965  1
" 