6849,Ni49Fe21Cr29_13,-228.379541929582, 182.470122905538,Ni49Fe21Cr29,"# generated using pymatgen
 data_Cr17Fe11Ni26
_symmetry_space_group_name_H-M   'P 1'
_cell_length_a   7.46394444
_cell_length_b   7.46394444
_cell_length_c   10.55561146
_cell_angle_alpha   90.00000000
_cell_angle_beta   90.00000000
_cell_angle_gamma   90.00000000
_symmetry_Int_Tables_number   1
_chemical_formula_structural   Cr17Fe11Ni26
_chemical_formula_sum   'Cr17 Fe11 Ni26'
_cell_volume   588.05804031
_cell_formula_units_Z   1
loop_
 _symmetry_equiv_pos_site_id
 _symmetry_equiv_pos_as_xyz
  1  'x, y, z'
loop_
 _atom_site_type_symbol
 _atom_site_label
 _atom_site_symmetry_multiplicity
 _atom_site_fract_x
 _atom_site_fract_y
 _atom_site_fract_z
 _atom_site_occupancy
  Fe  Fe0  1  0.99740277  0.00043305  0.99878177  1
  Cr  Cr1  1  0.16449686  0.16798074  0.16635717  1
  Fe  Fe2  1  0.99758350  0.00073656  0.33618544  1
  Fe  Fe3  1  0.99912056  0.33342793  0.99903416  1
  Ni  Ni4  1  0.16636383  0.50077976  0.16619501  1
  Fe  Fe5  1  0.99975204  0.33356992  0.33556147  1
  Ni  Ni6  1  0.99891446  0.66714496  0.00228540  1
  Cr  Cr7  1  0.16835317  0.83314175  0.16530968  1
  Cr  Cr8  1  0.99956064  0.66776468  0.33420651  1
  Cr  Cr9  1  0.33769418  0.00182214  0.99839607  1
  Ni  Ni10  1  0.50324222  0.16464860  0.16693953  1
  Cr  Cr11  1  0.33547530  0.00107902  0.33459238  1
  Cr  Cr12  1  0.33653724  0.33249177  0.99954606  1
  Cr  Cr13  1  0.50093637  0.50245452  0.16761377  1
  Cr  Cr14  1  0.33534197  0.33280584  0.33456803  1
  Ni  Ni15  1  0.33425557  0.66642972  0.00166520  1
  Ni  Ni16  1  0.50324452  0.83315149  0.16648927  1
  Fe  Fe17  1  0.33626432  0.66653988  0.33519974  1
  Ni  Ni18  1  0.66712106  0.00084812  0.00132488  1
  Cr  Cr19  1  0.83222769  0.16608538  0.16799844  1
  Fe  Fe20  1  0.66674490  0.99913375  0.33463316  1
  Ni  Ni21  1  0.66645491  0.33124958  0.99893513  1
  Cr  Cr22  1  0.83266207  0.49921032  0.16498809  1
  Ni  Ni23  1  0.66596709  0.33215340  0.33494463  1
  Ni  Ni24  1  0.66738036  0.66829701  0.99981898  1
  Ni  Ni25  1  0.83074199  0.83480764  0.16645277  1
  Ni  Ni26  1  0.66837848  0.66840034  0.33464784  1
  Ni  Ni27  1  0.16442629  0.16751993  0.50160191  1
  Ni  Ni28  1  0.99822186  0.00154391  0.66512240  1
  Ni  Ni29  1  0.16310111  0.16748363  0.83209130  1
  Ni  Ni30  1  0.16909347  0.49855043  0.50056334  1
  Fe  Fe31  1  0.00098343  0.32974523  0.66614894  1
  Cr  Cr32  1  0.16924986  0.49938958  0.83360125  1
  Fe  Fe33  1  0.16885583  0.83468297  0.50080460  1
  Cr  Cr34  1  0.99896626  0.66818242  0.66472582  1
  Cr  Cr35  1  0.16910378  0.83442084  0.83420819  1
  Ni  Ni36  1  0.50234963  0.16677421  0.50111184  1
  Cr  Cr37  1  0.33498010  0.00251777  0.66767309  1
  Fe  Fe38  1  0.50386036  0.16767651  0.83233177  1
  Ni  Ni39  1  0.49961245  0.50164769  0.50131062  1
  Ni  Ni40  1  0.33579503  0.33368141  0.66580753  1
  Ni  Ni41  1  0.50064864  0.50256145  0.83190261  1
  Ni  Ni42  1  0.50132202  0.83210248  0.50026856  1
  Ni  Ni43  1  0.33433192  0.66507301  0.66415803  1
  Ni  Ni44  1  0.50140898  0.83091744  0.83406980  1
  Ni  Ni45  1  0.83365235  0.16533025  0.50021839  1
  Ni  Ni46  1  0.66804286  0.00267470  0.66538862  1
  Ni  Ni47  1  0.83372639  0.16648100  0.83297912  1
  Cr  Cr48  1  0.82972522  0.49639445  0.50220123  1
  Ni  Ni49  1  0.66433891  0.33102455  0.66681407  1
  Cr  Cr50  1  0.82987133  0.49748195  0.83367357  1
  Fe  Fe51  1  0.83070517  0.83640019  0.49992551  1
  Fe  Fe52  1  0.66236555  0.66827297  0.66638770  1
  Cr  Cr53  1  0.83026848  0.83610646  0.83346498  1
" 