4557,Ni49Fe28Cr21_14,-231.463839301334, 191.302532904561,Ni49Fe28Cr21,"# generated using pymatgen
 data_Cr13Fe15Ni26
_symmetry_space_group_name_H-M   'P 1'
_cell_length_a   7.45190046
_cell_length_b   7.45190046
_cell_length_c   10.53857870
_cell_angle_alpha   90.00000000
_cell_angle_beta   90.00000000
_cell_angle_gamma   90.00000000
_symmetry_Int_Tables_number   1
_chemical_formula_structural   Cr13Fe15Ni26
_chemical_formula_sum   'Cr13 Fe15 Ni26'
_cell_volume   585.21592158
_cell_formula_units_Z   1
loop_
 _symmetry_equiv_pos_site_id
 _symmetry_equiv_pos_as_xyz
  1  'x, y, z'
loop_
 _atom_site_type_symbol
 _atom_site_label
 _atom_site_symmetry_multiplicity
 _atom_site_fract_x
 _atom_site_fract_y
 _atom_site_fract_z
 _atom_site_occupancy
  Fe  Fe0  1  0.00616210  0.99911805  1.00023407  1
  Ni  Ni1  1  0.16824429  0.16487438  0.16857467  1
  Fe  Fe2  1  0.00124529  0.00192490  0.33394393  1
  Fe  Fe3  1  0.00186396  0.33539770  1.00002626  1
  Cr  Cr4  1  0.16757590  0.50206161  0.16855500  1
  Ni  Ni5  1  0.99941223  0.33255507  0.33328864  1
  Ni  Ni6  1  1.00096619  0.66693408  0.99995091  1
  Ni  Ni7  1  0.16990757  0.83648488  0.16606627  1
  Cr  Cr8  1  1.00003369  0.66592934  0.33521593  1
  Ni  Ni9  1  0.33396046  0.99995419  0.00200614  1
  Ni  Ni10  1  0.49983284  0.16686772  0.16913324  1
  Fe  Fe11  1  0.33573030  1.00058947  0.33273146  1
  Cr  Cr12  1  0.33340884  0.33182951  0.99892007  1
  Cr  Cr13  1  0.50277426  0.50265183  0.16836410  1
  Fe  Fe14  1  0.33598292  0.33384191  0.33461084  1
  Ni  Ni15  1  0.33253203  0.67119847  1.00031609  1
  Fe  Fe16  1  0.49748834  0.83563198  0.16840165  1
  Ni  Ni17  1  0.33750934  0.66997454  0.33360955  1
  Cr  Cr18  1  0.66432722  1.00089554  1.00023079  1
  Cr  Cr19  1  0.83513588  0.16961672  0.16779611  1
  Fe  Fe20  1  0.66618698  1.00090903  0.33606181  1
  Fe  Fe21  1  0.66762966  0.33678772  1.00005415  1
  Fe  Fe22  1  0.83444304  0.50006187  0.16721960  1
  Fe  Fe23  1  0.66766042  0.33537777  0.33678780  1
  Fe  Fe24  1  0.66722983  0.66699481  0.99887320  1
  Cr  Cr25  1  0.83465262  0.83319571  0.16715645  1
  Ni  Ni26  1  0.66603895  0.66858150  0.33558926  1
  Cr  Cr27  1  0.16691861  0.16789952  0.50181225  1
  Fe  Fe28  1  0.00180006  1.00070897  0.66889331  1
  Ni  Ni29  1  0.16851222  0.16679786  0.83354474  1
  Cr  Cr30  1  0.16868461  0.50005699  0.50161109  1
  Ni  Ni31  1  1.00032045  0.33602428  0.66859639  1
  Ni  Ni32  1  0.16625618  0.50126683  0.83390811  1
  Cr  Cr33  1  0.16829618  0.83506086  0.50217489  1
  Ni  Ni34  1  0.99748721  0.66644751  0.66890936  1
  Ni  Ni35  1  0.16790092  0.83493121  0.83584481  1
  Ni  Ni36  1  0.50306063  0.16861433  0.50065332  1
  Ni  Ni37  1  0.33541182  0.00349228  0.66982780  1
  Fe  Fe38  1  0.49813598  0.16764614  0.83319292  1
  Ni  Ni39  1  0.50449859  0.50111695  0.50089842  1
  Ni  Ni40  1  0.33507121  0.33153308  0.66856359  1
  Fe  Fe41  1  0.50199594  0.50188906  0.83356509  1
  Ni  Ni42  1  0.50284564  0.83339928  0.49804332  1
  Cr  Cr43  1  0.33475309  0.66768151  0.66913150  1
  Ni  Ni44  1  0.49980148  0.83289248  0.83632559  1
  Ni  Ni45  1  0.83308464  0.16919322  0.49983002  1
  Cr  Cr46  1  0.66594611  1.00011335  0.66590939  1
  Cr  Cr47  1  0.83597321  0.16909246  0.83415901  1
  Ni  Ni48  1  0.83087908  0.49956180  0.50124956  1
  Ni  Ni49  1  0.66767712  0.33548995  0.66649495  1
  Ni  Ni50  1  0.83409845  0.50254063  0.83553826  1
  Fe  Fe51  1  0.83156793  0.83355279  0.50149609  1
  Ni  Ni52  1  0.67059999  0.66681371  0.66774501  1
  Ni  Ni53  1  0.83536922  0.83082436  0.83324491  1
" 