4054,Ni49Fe49Cr1_12,-239.532166541719, 221.644630534537,Ni49Fe49Cr1,"# generated using pymatgen
 data_Cr(FeNi)13
_symmetry_space_group_name_H-M   'P 1'
_cell_length_a   7.40417966
_cell_length_b   7.40417966
_cell_length_c   10.47109130
_cell_angle_alpha   90.00000000
_cell_angle_beta   90.00000000
_cell_angle_gamma   90.00000000
_symmetry_Int_Tables_number   1
_chemical_formula_structural   Cr(FeNi)13
_chemical_formula_sum   'Cr2 Fe26 Ni26'
_cell_volume   574.04487347
_cell_formula_units_Z   2
loop_
 _symmetry_equiv_pos_site_id
 _symmetry_equiv_pos_as_xyz
  1  'x, y, z'
loop_
 _atom_site_type_symbol
 _atom_site_label
 _atom_site_symmetry_multiplicity
 _atom_site_fract_x
 _atom_site_fract_y
 _atom_site_fract_z
 _atom_site_occupancy
  Ni  Ni0  1  0.00483773  0.00507057  0.00425399  1
  Ni  Ni1  1  0.17214602  0.17240848  0.16981333  1
  Cr  Cr2  1  0.00567363  0.00471105  0.33812567  1
  Fe  Fe3  1  1.00382111  0.33868934  1.00416341  1
  Ni  Ni4  1  0.17092898  0.50416795  0.16979761  1
  Fe  Fe5  1  0.00509962  0.33943159  0.33770531  1
  Fe  Fe6  1  1.00378161  0.67125498  0.00443109  1
  Ni  Ni7  1  0.17016591  0.83662491  0.16998800  1
  Fe  Fe8  1  0.00605325  0.66987641  0.33711452  1
  Fe  Fe9  1  0.33861043  1.00384726  0.00457982  1
  Ni  Ni10  1  0.50456306  0.17074192  0.17090866  1
  Ni  Ni11  1  0.33785830  0.00556021  0.33656839  1
  Fe  Fe12  1  0.33836638  0.33767163  1.00406863  1
  Fe  Fe13  1  0.50238458  0.50460402  0.17059206  1
  Ni  Ni14  1  0.33707779  0.33850977  0.33618509  1
  Ni  Ni15  1  0.33840000  0.66993411  1.00311900  1
  Fe  Fe16  1  0.50150136  0.83695084  0.17184030  1
  Ni  Ni17  1  0.33825942  0.66915790  0.33889488  1
  Fe  Fe18  1  0.67031809  1.00335983  0.00603509  1
  Fe  Fe19  1  0.83854180  0.17062793  0.17018740  1
  Ni  Ni20  1  0.67105249  1.00331497  0.33659112  1
  Ni  Ni21  1  0.67000721  0.33823640  0.00491544  1
  Fe  Fe22  1  0.83816952  0.50334175  0.17040691  1
  Fe  Fe23  1  0.66895663  0.33611628  0.33682769  1
  Ni  Ni24  1  0.66981079  0.66912180  0.00517934  1
  Ni  Ni25  1  0.83584765  0.83635783  0.17001379  1
  Ni  Ni26  1  0.67112330  0.66894970  0.33611418  1
  Ni  Ni27  1  0.16985141  0.17327823  0.50448239  1
  Ni  Ni28  1  0.00444345  0.00520027  0.67071333  1
  Ni  Ni29  1  0.16853210  0.17196078  0.83809277  1
  Ni  Ni30  1  0.17227385  0.50257319  0.50519920  1
  Fe  Fe31  1  0.00508383  0.33628727  0.67085731  1
  Fe  Fe32  1  0.17363670  0.50409587  0.83799340  1
  Fe  Fe33  1  0.17478782  0.83831496  0.50391980  1
  Cr  Cr34  1  1.00332171  0.67289997  0.67132817  1
  Fe  Fe35  1  0.17413240  0.84002776  0.83918820  1
  Fe  Fe36  1  0.50230862  0.17169709  0.50246280  1
  Ni  Ni37  1  0.33614346  0.00736600  0.67053116  1
  Fe  Fe38  1  0.50254552  0.17072521  0.83891765  1
  Ni  Ni39  1  0.50419980  0.50583172  0.50468840  1
  Ni  Ni40  1  0.33894164  0.33716852  0.67214075  1
  Ni  Ni41  1  0.50526131  0.50580056  0.83739086  1
  Ni  Ni42  1  0.50622025  0.83678561  0.50313675  1
  Fe  Fe43  1  0.33987981  0.67277544  0.67105082  1
  Ni  Ni44  1  0.50665256  0.83662446  0.83810210  1
  Ni  Ni45  1  0.83717072  0.17067221  0.50519206  1
  Fe  Fe46  1  0.66932315  1.00285763  0.66955139  1
  Fe  Fe47  1  0.83546294  0.17032654  0.83740826  1
  Fe  Fe48  1  0.83611353  0.50265240  0.50323191  1
  Fe  Fe49  1  0.67029101  0.33641908  0.67166645  1
  Fe  Fe50  1  0.83589468  0.50326124  0.83912353  1
  Fe  Fe51  1  0.83591517  0.83672855  0.50315159  1
  Ni  Ni52  1  0.67110439  0.66924577  0.67152126  1
  Fe  Fe53  1  0.83640508  0.83903780  0.83979052  1
" 