3601,Ni49Fe28Cr21_6,-231.470295932417, 190.118844921056,Ni49Fe28Cr21,"# generated using pymatgen
 data_Cr13Fe15Ni26
_symmetry_space_group_name_H-M   'P 1'
_cell_length_a   7.44813548
_cell_length_b   7.44813548
_cell_length_c   10.53325421
_cell_angle_alpha   90.00000000
_cell_angle_beta   90.00000000
_cell_angle_gamma   90.00000000
_symmetry_Int_Tables_number   1
_chemical_formula_structural   Cr13Fe15Ni26
_chemical_formula_sum   'Cr13 Fe15 Ni26'
_cell_volume   584.32935042
_cell_formula_units_Z   1
loop_
 _symmetry_equiv_pos_site_id
 _symmetry_equiv_pos_as_xyz
  1  'x, y, z'
loop_
 _atom_site_type_symbol
 _atom_site_label
 _atom_site_symmetry_multiplicity
 _atom_site_fract_x
 _atom_site_fract_y
 _atom_site_fract_z
 _atom_site_occupancy
  Ni  Ni0  1  1.00026861  0.00240868  0.00195743  1
  Ni  Ni1  1  0.16566811  0.16831035  0.16927003  1
  Fe  Fe2  1  0.99805003  0.00214096  0.33338277  1
  Ni  Ni3  1  1.00123187  0.33317953  1.00067748  1
  Cr  Cr4  1  0.16775355  0.49992497  0.16667240  1
  Fe  Fe5  1  0.99933609  0.33171576  0.33340330  1
  Ni  Ni6  1  0.00160358  0.66837378  0.00260014  1
  Ni  Ni7  1  0.16494416  0.83618044  0.16751739  1
  Fe  Fe8  1  0.99801986  0.66982666  0.33270333  1
  Cr  Cr9  1  0.33631426  1.00117115  0.00224353  1
  Fe  Fe10  1  0.50298170  0.16807554  0.16750804  1
  Cr  Cr11  1  0.33572117  0.00202158  0.33320855  1
  Fe  Fe12  1  0.33455651  0.33293127  1.00058435  1
  Ni  Ni13  1  0.50320362  0.49896264  0.16959404  1
  Fe  Fe14  1  0.33849441  0.33307325  0.33444969  1
  Fe  Fe15  1  0.33516880  0.66770754  0.00216933  1
  Ni  Ni16  1  0.50415121  0.83449382  0.16795004  1
  Cr  Cr17  1  0.33661523  0.66952959  0.33249348  1
  Ni  Ni18  1  0.66887865  0.00265154  0.00143973  1
  Fe  Fe19  1  0.83406398  0.16711647  0.16678080  1
  Ni  Ni20  1  0.66813767  0.00185874  0.33384571  1
  Ni  Ni21  1  0.66866522  0.33232938  0.00312055  1
  Fe  Fe22  1  0.83385812  0.50141059  0.16837147  1
  Ni  Ni23  1  0.66863499  0.33387886  0.33318306  1
  Cr  Cr24  1  0.66809111  0.67012270  0.00201158  1
  Ni  Ni25  1  0.83394169  0.83648972  0.16970951  1
  Ni  Ni26  1  0.66814673  0.66807745  0.33484740  1
  Fe  Fe27  1  0.16857001  0.16709709  0.50186965  1
  Ni  Ni28  1  0.99986715  0.00278644  0.66758256  1
  Ni  Ni29  1  0.16807866  0.16876670  0.83325521  1
  Cr  Cr30  1  0.16949397  0.49930781  0.50082016  1
  Cr  Cr31  1  1.00057491  0.33174964  0.67041874  1
  Ni  Ni32  1  0.16983422  0.49927226  0.83639566  1
  Cr  Cr33  1  0.16783115  0.83678132  0.50136946  1
  Cr  Cr34  1  1.00018231  0.66865145  0.66984027  1
  Cr  Cr35  1  0.16816995  0.83544039  0.83556723  1
  Fe  Fe36  1  0.50303957  0.16796647  0.50228055  1
  Ni  Ni37  1  0.33623027  0.00248377  0.66779647  1
  Ni  Ni38  1  0.50293636  0.16725329  0.83401845  1
  Fe  Fe39  1  0.50194923  0.50130457  0.50143507  1
  Ni  Ni40  1  0.33594496  0.33303761  0.66724169  1
  Cr  Cr41  1  0.49983215  0.49994529  0.83255098  1
  Ni  Ni42  1  0.50404013  0.83606497  0.50281227  1
  Ni  Ni43  1  0.33663662  0.66839111  0.66856272  1
  Ni  Ni44  1  0.50317117  0.83737024  0.83269210  1
  Fe  Fe45  1  0.83243724  0.16494354  0.50141070  1
  Ni  Ni46  1  0.66741634  0.00221040  0.66851823  1
  Ni  Ni47  1  0.83299987  0.16525013  0.83559365  1
  Cr  Cr48  1  0.83158616  0.50024116  0.49983860  1
  Ni  Ni49  1  0.66615937  0.33178190  0.66725333  1
  Cr  Cr50  1  0.83398461  0.49965745  0.83640193  1
  Fe  Fe51  1  0.83217658  0.83730780  0.50072709  1
  Fe  Fe52  1  0.66596734  0.67029307  0.66711862  1
  Ni  Ni53  1  0.83294655  0.83923889  0.83349125  1
" 