4132,Ni49Fe21Cr29_9,-228.559440608829, 176.240996905172,Ni49Fe21Cr29,"# generated using pymatgen
 data_Cr17Fe11Ni26
_symmetry_space_group_name_H-M   'P 1'
_cell_length_a   7.47215351
_cell_length_b   7.47215351
_cell_length_c   10.56722084
_cell_angle_alpha   90.00000000
_cell_angle_beta   90.00000000
_cell_angle_gamma   90.00000000
_symmetry_Int_Tables_number   1
_chemical_formula_structural   Cr17Fe11Ni26
_chemical_formula_sum   'Cr17 Fe11 Ni26'
_cell_volume   590.00046617
_cell_formula_units_Z   1
loop_
 _symmetry_equiv_pos_site_id
 _symmetry_equiv_pos_as_xyz
  1  'x, y, z'
loop_
 _atom_site_type_symbol
 _atom_site_label
 _atom_site_symmetry_multiplicity
 _atom_site_fract_x
 _atom_site_fract_y
 _atom_site_fract_z
 _atom_site_occupancy
  Ni  Ni0  1  0.99791467  0.00089708  0.00142869  1
  Ni  Ni1  1  0.16545807  0.16498435  0.16604355  1
  Ni  Ni2  1  0.99826075  0.00389690  0.33131690  1
  Fe  Fe3  1  0.99741938  0.32913226  0.00193432  1
  Cr  Cr4  1  0.16628411  0.49552312  0.16797394  1
  Fe  Fe5  1  0.99597278  0.33077925  0.33289821  1
  Cr  Cr6  1  0.99828530  0.66555995  0.99946432  1
  Cr  Cr7  1  0.16853533  0.83822104  0.16863005  1
  Cr  Cr8  1  0.99814616  0.66433624  0.33406686  1
  Ni  Ni9  1  0.33497877  0.00226439  0.00029978  1
  Ni  Ni10  1  0.49929492  0.16588039  0.16590108  1
  Ni  Ni11  1  0.33537000  0.00256008  0.33185232  1
  Cr  Cr12  1  0.33595307  0.33146245  0.99837313  1
  Cr  Cr13  1  0.50470754  0.49878958  0.16857552  1
  Fe  Fe14  1  0.33609110  0.33040999  0.33425806  1
  Cr  Cr15  1  0.33302656  0.66631566  0.99717726  1
  Cr  Cr16  1  0.50033731  0.83413704  0.16829896  1
  Ni  Ni17  1  0.33474644  0.66479183  0.33650654  1
  Ni  Ni18  1  0.66597736  0.00348390  0.99843852  1
  Fe  Fe19  1  0.83133511  0.16751446  0.16694148  1
  Ni  Ni20  1  0.66500936  0.00442858  0.33477377  1
  Ni  Ni21  1  0.66667016  0.33095544  0.00103809  1
  Ni  Ni22  1  0.83050711  0.49539864  0.16531216  1
  Ni  Ni23  1  0.66696862  0.33135199  0.33362597  1
  Fe  Fe24  1  0.66535400  0.66723733  0.99818922  1
  Cr  Cr25  1  0.82975311  0.83316591  0.16577404  1
  Ni  Ni26  1  0.66566048  0.66306178  0.33409121  1
  Cr  Cr27  1  0.16512926  0.16647819  0.49980356  1
  Ni  Ni28  1  0.99598333  0.99829627  0.66608669  1
  Cr  Cr29  1  0.16538052  0.16658322  0.83262433  1
  Fe  Fe30  1  0.16804892  0.49874593  0.50105680  1
  Fe  Fe31  1  0.99816040  0.33475729  0.66399584  1
  Fe  Fe32  1  0.16708568  0.49858312  0.82965682  1
  Cr  Cr33  1  0.16863332  0.83397448  0.49819408  1
  Ni  Ni34  1  0.00009730  0.66425877  0.66629001  1
  Cr  Cr35  1  0.16552150  0.83534564  0.83213425  1
  Ni  Ni36  1  0.50174852  0.16827804  0.50017753  1
  Cr  Cr37  1  0.33834005  0.00089545  0.66639459  1
  Fe  Fe38  1  0.50244821  0.16810541  0.83271614  1
  Ni  Ni39  1  0.50152434  0.49993599  0.49956342  1
  Ni  Ni40  1  0.33632798  0.33719187  0.66642741  1
  Ni  Ni41  1  0.50145487  0.50033052  0.83158405  1
  Ni  Ni42  1  0.50036515  0.83074164  0.49887990  1
  Ni  Ni43  1  0.33345659  0.66161984  0.66605884  1
  Fe  Fe44  1  0.50365122  0.83314911  0.83189509  1
  Ni  Ni45  1  0.83164816  0.16892683  0.49970092  1
  Ni  Ni46  1  0.66753334  0.00167341  0.66552776  1
  Cr  Cr47  1  0.83277135  0.16611747  0.83145741  1
  Ni  Ni48  1  0.82962389  0.49694874  0.50064414  1
  Ni  Ni49  1  0.66361527  0.33265782  0.66423812  1
  Cr  Cr50  1  0.82904879  0.49841342  0.83289239  1
  Cr  Cr51  1  0.83008476  0.83404471  0.50208300  1
  Ni  Ni52  1  0.66561240  0.66500269  0.66678054  1
  Fe  Fe53  1  0.83023755  0.83395475  0.83150266  1
" 