4517,Ni49Fe21Cr29_0,-228.543806035706, 179.348453986532,Ni49Fe21Cr29,"# generated using pymatgen
 data_Cr17Fe11Ni26
_symmetry_space_group_name_H-M   'P 1'
_cell_length_a   7.46598099
_cell_length_b   7.46598099
_cell_length_c   10.55849158
_cell_angle_alpha   90.00000000
_cell_angle_beta   90.00000000
_cell_angle_gamma   90.00000000
_symmetry_Int_Tables_number   1
_chemical_formula_structural   Cr17Fe11Ni26
_chemical_formula_sum   'Cr17 Fe11 Ni26'
_cell_volume   588.53952923
_cell_formula_units_Z   1
loop_
 _symmetry_equiv_pos_site_id
 _symmetry_equiv_pos_as_xyz
  1  'x, y, z'
loop_
 _atom_site_type_symbol
 _atom_site_label
 _atom_site_symmetry_multiplicity
 _atom_site_fract_x
 _atom_site_fract_y
 _atom_site_fract_z
 _atom_site_occupancy
  Ni  Ni0  1  0.00070908  0.00084174  0.99982708  1
  Cr  Cr1  1  0.16565835  0.16737207  0.16649079  1
  Cr  Cr2  1  0.99840902  0.99962238  0.33239591  1
  Ni  Ni3  1  0.99669127  0.33164226  0.00185160  1
  Ni  Ni4  1  0.16540170  0.50060987  0.16749940  1
  Ni  Ni5  1  0.00039126  0.33608920  0.33305508  1
  Cr  Cr6  1  0.00168641  0.66736740  0.00311240  1
  Fe  Fe7  1  0.16565017  0.83229585  0.16488450  1
  Fe  Fe8  1  0.99787265  0.66345517  0.33231197  1
  Ni  Ni9  1  0.33058387  0.99507880  0.99973765  1
  Cr  Cr10  1  0.50113544  0.16776146  0.16949502  1
  Fe  Fe11  1  0.33455822  0.00384842  0.33469396  1
  Cr  Cr12  1  0.33445017  0.33697467  0.00046105  1
  Ni  Ni13  1  0.50165288  0.50092135  0.16589307  1
  Ni  Ni14  1  0.33354632  0.33525209  0.33659938  1
  Ni  Ni15  1  0.33487398  0.66810808  0.99904006  1
  Cr  Cr16  1  0.50041525  0.83249540  0.16588289  1
  Cr  Cr17  1  0.33254497  0.66368919  0.33119094  1
  Cr  Cr18  1  0.66908737  0.00088613  0.99955079  1
  Ni  Ni19  1  0.83403405  0.16798629  0.16498852  1
  Ni  Ni20  1  0.66762352  0.00035973  0.33401970  1
  Ni  Ni21  1  0.66932606  0.33594219  0.00059970  1
  Ni  Ni22  1  0.83314687  0.49979165  0.16747266  1
  Ni  Ni23  1  0.66629452  0.33425843  0.33314249  1
  Ni  Ni24  1  0.66354347  0.66410412  0.00095937  1
  Ni  Ni25  1  0.83368415  0.83236657  0.16842984  1
  Fe  Fe26  1  0.66916467  0.66434462  0.33240060  1
  Ni  Ni27  1  0.16956281  0.16849357  0.50033353  1
  Ni  Ni28  1  0.00026398  0.99829312  0.66767292  1
  Cr  Cr29  1  0.16470205  0.16366018  0.83370801  1
  Ni  Ni30  1  0.16673393  0.49848296  0.50003447  1
  Cr  Cr31  1  0.99998304  0.33272063  0.66583025  1
  Cr  Cr32  1  0.16854265  0.50202045  0.83307392  1
  Cr  Cr33  1  0.16506762  0.83386069  0.50109918  1
  Fe  Fe34  1  0.00013126  0.66895650  0.66558354  1
  Ni  Ni35  1  0.16883349  0.83468304  0.83366963  1
  Ni  Ni36  1  0.49884051  0.16817917  0.49952023  1
  Ni  Ni37  1  0.33319176  0.99863005  0.66603415  1
  Cr  Cr38  1  0.50179907  0.16710070  0.83220449  1
  Ni  Ni39  1  0.50048139  0.49763741  0.50098341  1
  Fe  Fe40  1  0.33600511  0.33272683  0.66370814  1
  Ni  Ni41  1  0.50113233  0.50248684  0.83327693  1
  Cr  Cr42  1  0.50272711  0.83522131  0.50062437  1
  Fe  Fe43  1  0.33431714  0.66645082  0.66764565  1
  Fe  Fe44  1  0.49774071  0.83172417  0.83309728  1
  Cr  Cr45  1  0.83180845  0.16634241  0.50050788  1
  Ni  Ni46  1  0.66676101  0.00016331  0.66648402  1
  Ni  Ni47  1  0.83320650  0.16605490  0.83465015  1
  Fe  Fe48  1  0.83260386  0.50040844  0.49897270  1
  Ni  Ni49  1  0.66459867  0.33413256  0.66649588  1
  Cr  Cr50  1  0.83046556  0.49807763  0.83430024  1
  Fe  Fe51  1  0.83255691  0.83235680  0.50063187  1
  Fe  Fe52  1  0.66577164  0.66640010  0.66662331  1
  Cr  Cr53  1  0.83389307  0.83512760  0.83110476  1
" 