4611,Ni49Fe21Cr29_11,-228.663248914329, 177.541997022112,Ni49Fe21Cr29,"# generated using pymatgen
 data_Cr17Fe11Ni26
_symmetry_space_group_name_H-M   'P 1'
_cell_length_a   7.46881039
_cell_length_b   7.46881039
_cell_length_c   10.56249294
_cell_angle_alpha   90.00000000
_cell_angle_beta   90.00000000
_cell_angle_gamma   90.00000000
_symmetry_Int_Tables_number   1
_chemical_formula_structural   Cr17Fe11Ni26
_chemical_formula_sum   'Cr17 Fe11 Ni26'
_cell_volume   589.20890225
_cell_formula_units_Z   1
loop_
 _symmetry_equiv_pos_site_id
 _symmetry_equiv_pos_as_xyz
  1  'x, y, z'
loop_
 _atom_site_type_symbol
 _atom_site_label
 _atom_site_symmetry_multiplicity
 _atom_site_fract_x
 _atom_site_fract_y
 _atom_site_fract_z
 _atom_site_occupancy
  Fe  Fe0  1  0.00038766  0.99847104  0.99864152  1
  Fe  Fe1  1  0.16721293  0.16702427  0.16484877  1
  Ni  Ni2  1  0.99942586  0.99698088  0.33247452  1
  Fe  Fe3  1  0.00219981  0.33551570  0.99951023  1
  Ni  Ni4  1  0.16593878  0.50042705  0.16364919  1
  Cr  Cr5  1  0.00086085  0.33749960  0.33138949  1
  Fe  Fe6  1  0.00088124  0.66551678  0.99885400  1
  Fe  Fe7  1  0.16491039  0.83064118  0.16591827  1
  Ni  Ni8  1  0.99822538  0.66633318  0.33427027  1
  Cr  Cr9  1  0.33453562  0.99852129  0.00393546  1
  Ni  Ni10  1  0.50160034  0.16674009  0.16800061  1
  Cr  Cr11  1  0.33280921  0.99877141  0.33033786  1
  Ni  Ni12  1  0.33250116  0.33634144  0.00155256  1
  Fe  Fe13  1  0.50024987  0.50128572  0.16495360  1
  Cr  Cr14  1  0.33386409  0.33425863  0.33228985  1
  Ni  Ni15  1  0.33030046  0.66426172  0.00131723  1
  Ni  Ni16  1  0.50141717  0.83247899  0.16513594  1
  Cr  Cr17  1  0.33124853  0.66596144  0.33203390  1
  Ni  Ni18  1  0.66839557  0.99977720  0.99879811  1
  Cr  Cr19  1  0.83445835  0.16583466  0.16703740  1
  Ni  Ni20  1  0.66613061  0.99885202  0.33291339  1
  Cr  Cr21  1  0.66747206  0.33331266  0.99860993  1
  Fe  Fe22  1  0.83247275  0.50176526  0.16629438  1
  Fe  Fe23  1  0.66606926  0.33490021  0.33373027  1
  Fe  Fe24  1  0.66449978  0.66688622  0.99947869  1
  Cr  Cr25  1  0.83172926  0.83213670  0.16734739  1
  Ni  Ni26  1  0.66777723  0.66545984  0.33174477  1
  Cr  Cr27  1  0.16587729  0.16602007  0.50229016  1
  Ni  Ni28  1  0.00136032  0.99625921  0.66883272  1
  Cr  Cr29  1  0.16596584  0.16829295  0.83351656  1
  Ni  Ni30  1  0.16650401  0.50316759  0.50215389  1
  Cr  Cr31  1  0.99452455  0.33904937  0.66894655  1
  Ni  Ni32  1  0.16743464  0.50288076  0.83353992  1
  Ni  Ni33  1  0.16299571  0.83109995  0.50013007  1
  Ni  Ni34  1  0.00211223  0.66811023  0.66604795  1
  Ni  Ni35  1  0.16420243  0.83041240  0.83286329  1
  Fe  Fe36  1  0.50020215  0.16750608  0.50099646  1
  Ni  Ni37  1  0.33005746  0.99639630  0.66527188  1
  Cr  Cr38  1  0.49937208  0.16848908  0.82894640  1
  Ni  Ni39  1  0.50033833  0.49899320  0.50015761  1
  Fe  Fe40  1  0.33311139  0.33732872  0.66594977  1
  Ni  Ni41  1  0.49771339  0.49987546  0.83425276  1
  Cr  Cr42  1  0.50114888  0.83081103  0.50056711  1
  Ni  Ni43  1  0.33034600  0.66540305  0.66698813  1
  Cr  Cr44  1  0.49809581  0.82984286  0.83482375  1
  Cr  Cr45  1  0.83309304  0.16486506  0.49798829  1
  Cr  Cr46  1  0.67005875  0.00006396  0.66877754  1
  Ni  Ni47  1  0.83453649  0.16618463  0.83463926  1
  Ni  Ni48  1  0.83231021  0.50275786  0.49622837  1
  Ni  Ni49  1  0.66583832  0.33578200  0.66563219  1
  Ni  Ni50  1  0.83442297  0.50123610  0.83647181  1
  Ni  Ni51  1  0.83619586  0.83141099  0.49731222  1
  Cr  Cr52  1  0.67157721  0.66267897  0.66939306  1
  Ni  Ni53  1  0.83665791  0.83275445  0.83584215  1
" 