713,Ni49Fe49Cr1_17,-239.644039986873, 219.937394554775,Ni49Fe49Cr1,"# generated using pymatgen
 data_Cr(FeNi)13
_symmetry_space_group_name_H-M   'P 1'
_cell_length_a   7.40447764
_cell_length_b   7.40447764
_cell_length_c   10.47151271
_cell_angle_alpha   90.00000000
_cell_angle_beta   90.00000000
_cell_angle_gamma   90.00000000
_symmetry_Int_Tables_number   1
_chemical_formula_structural   Cr(FeNi)13
_chemical_formula_sum   'Cr2 Fe26 Ni26'
_cell_volume   574.11418366
_cell_formula_units_Z   2
loop_
 _symmetry_equiv_pos_site_id
 _symmetry_equiv_pos_as_xyz
  1  'x, y, z'
loop_
 _atom_site_type_symbol
 _atom_site_label
 _atom_site_symmetry_multiplicity
 _atom_site_fract_x
 _atom_site_fract_y
 _atom_site_fract_z
 _atom_site_occupancy
  Ni  Ni0  1  1.00371336  0.00466891  1.00388949  1
  Ni  Ni1  1  0.16920089  0.17055780  0.16928537  1
  Fe  Fe2  1  0.00518559  1.00381122  0.33655867  1
  Fe  Fe3  1  1.00333541  0.33459285  1.00413940  1
  Fe  Fe4  1  0.17065117  0.50486743  0.17095978  1
  Fe  Fe5  1  1.00330027  0.33718536  0.33783949  1
  Cr  Cr6  1  0.00427342  0.67245755  0.00503152  1
  Ni  Ni7  1  0.17252149  0.83823386  0.17112956  1
  Fe  Fe8  1  0.00511706  0.67168161  0.33801341  1
  Fe  Fe9  1  0.33795147  0.00436791  0.00445188  1
  Fe  Fe10  1  0.50513267  0.16876349  0.16985776  1
  Ni  Ni11  1  0.33790246  1.00200369  0.33685023  1
  Fe  Fe12  1  0.33770550  0.33666563  0.00441372  1
  Fe  Fe13  1  0.50493018  0.50541934  0.17046884  1
  Cr  Cr14  1  0.33834648  0.33690317  0.33886883  1
  Fe  Fe15  1  0.33980090  0.67163854  0.00495905  1
  Ni  Ni16  1  0.50323343  0.83634661  0.17073290  1
  Ni  Ni17  1  0.33672808  0.67306334  0.33751390  1
  Ni  Ni18  1  0.67089159  0.00543105  0.00468047  1
  Ni  Ni19  1  0.83879096  0.17168841  0.17031428  1
  Fe  Fe20  1  0.67006359  1.00371149  0.33769784  1
  Ni  Ni21  1  0.67021029  0.33640667  0.00484502  1
  Fe  Fe22  1  0.83709247  0.50360303  0.17193305  1
  Fe  Fe23  1  0.67168644  0.33755133  0.33816169  1
  Fe  Fe24  1  0.66973734  0.67207486  0.00435646  1
  Ni  Ni25  1  0.83692157  0.83855985  0.17148781  1
  Fe  Fe26  1  0.66975610  0.67141265  0.33780675  1
  Fe  Fe27  1  0.17038422  0.16957427  0.50462965  1
  Fe  Fe28  1  1.00324383  0.00443858  0.67122396  1
  Fe  Fe29  1  0.17079768  0.16993895  0.83795424  1
  Fe  Fe30  1  0.16978750  0.50566415  0.50526469  1
  Ni  Ni31  1  1.00330483  0.33940649  0.67104469  1
  Fe  Fe32  1  0.17125878  0.50352813  0.83645619  1
  Ni  Ni33  1  0.17157825  0.83700118  0.50413001  1
  Ni  Ni34  1  0.00444549  0.67010784  0.67007565  1
  Fe  Fe35  1  0.17152600  0.83921099  0.83658361  1
  Ni  Ni36  1  0.50497687  0.17099734  0.50489520  1
  Ni  Ni37  1  0.33891632  1.00396956  0.67044761  1
  Ni  Ni38  1  0.50454395  0.17122563  0.83814419  1
  Ni  Ni39  1  0.50466655  0.50466103  0.50577691  1
  Fe  Fe40  1  0.33802944  0.33701142  0.67070195  1
  Fe  Fe41  1  0.50538278  0.50378029  0.83747736  1
  Ni  Ni42  1  0.50277319  0.83701620  0.50424973  1
  Fe  Fe43  1  0.33783598  0.67109588  0.67018425  1
  Ni  Ni44  1  0.50421164  0.83720374  0.83768886  1
  Ni  Ni45  1  0.83757459  0.17215955  0.50443747  1
  Ni  Ni46  1  0.66963749  0.00511182  0.67055074  1
  Ni  Ni47  1  0.83782855  0.17123579  0.83792389  1
  Ni  Ni48  1  0.83758644  0.50320894  0.50435060  1
  Ni  Ni49  1  0.67120756  0.33670817  0.67006602  1
  Fe  Fe50  1  0.83603509  0.50305829  0.83595145  1
  Ni  Ni51  1  0.83832408  0.83730879  0.50439265  1
  Fe  Fe52  1  0.67139607  0.67123534  0.67051522  1
  Ni  Ni53  1  0.83672442  0.83863178  0.83679374  1
" 