880,Ni49Fe28Cr21_18,-232.024602946272, 194.622430290428,Ni49Fe28Cr21,"# generated using pymatgen
 data_Cr13Fe15Ni26
_symmetry_space_group_name_H-M   'P 1'
_cell_length_a   7.45538968
_cell_length_b   7.45538968
_cell_length_c   10.54351319
_cell_angle_alpha   90.00000000
_cell_angle_beta   90.00000000
_cell_angle_gamma   90.00000000
_symmetry_Int_Tables_number   1
_chemical_formula_structural   Cr13Fe15Ni26
_chemical_formula_sum   'Cr13 Fe15 Ni26'
_cell_volume   586.03835671
_cell_formula_units_Z   1
loop_
 _symmetry_equiv_pos_site_id
 _symmetry_equiv_pos_as_xyz
  1  'x, y, z'
loop_
 _atom_site_type_symbol
 _atom_site_label
 _atom_site_symmetry_multiplicity
 _atom_site_fract_x
 _atom_site_fract_y
 _atom_site_fract_z
 _atom_site_occupancy
  Ni  Ni0  1  0.99998331  0.99967921  1.00013566  1
  Cr  Cr1  1  0.17118454  0.16806296  0.16567419  1
  Cr  Cr2  1  1.00060189  0.99703009  0.33483720  1
  Fe  Fe3  1  0.00248524  0.33531478  0.99850544  1
  Ni  Ni4  1  0.16805091  0.50345956  0.16659802  1
  Cr  Cr5  1  0.00201783  0.33425465  0.33373808  1
  Ni  Ni6  1  0.00355199  0.66852782  0.00204699  1
  Ni  Ni7  1  0.16799719  0.83142049  0.16666612  1
  Fe  Fe8  1  0.00217622  0.66908649  0.33317897  1
  Fe  Fe9  1  0.33351606  0.99884283  0.00096375  1
  Ni  Ni10  1  0.50087645  0.16556677  0.16871105  1
  Fe  Fe11  1  0.33570120  0.00151672  0.33427367  1
  Ni  Ni12  1  0.33379741  0.33617349  1.00067400  1
  Cr  Cr13  1  0.49898647  0.49995900  0.16781675  1
  Ni  Ni14  1  0.33798140  0.33480614  0.33588218  1
  Ni  Ni15  1  0.33258105  0.66693301  1.00016426  1
  Ni  Ni16  1  0.50104981  0.83631782  0.16650987  1
  Ni  Ni17  1  0.33374756  0.66713017  0.33292301  1
  Ni  Ni18  1  0.66824476  0.00089440  0.00253335  1
  Cr  Cr19  1  0.83092282  0.16639294  0.16464701  1
  Fe  Fe20  1  0.66451673  1.00066002  0.33253878  1
  Fe  Fe21  1  0.66742742  0.33393331  0.99951835  1
  Cr  Cr22  1  0.83580836  0.50312046  0.16728277  1
  Ni  Ni23  1  0.66233619  0.33305133  0.33476130  1
  Fe  Fe24  1  0.66714254  0.66898566  0.99990306  1
  Ni  Ni25  1  0.83329603  0.83319626  0.16742836  1
  Fe  Fe26  1  0.66680068  0.66814717  0.33470749  1
  Ni  Ni27  1  0.17131630  0.16580047  0.50298736  1
  Ni  Ni28  1  0.00213448  1.00067028  0.66697802  1
  Ni  Ni29  1  0.16702248  0.16783765  0.83359528  1
  Cr  Cr30  1  0.16829118  0.50071580  0.49993692  1
  Fe  Fe31  1  0.00097779  0.33411982  0.66978570  1
  Ni  Ni32  1  0.16573958  0.49996626  0.83553654  1
  Ni  Ni33  1  0.16536785  0.83597669  0.50091116  1
  Ni  Ni34  1  1.00012589  0.67005589  0.66675501  1
  Ni  Ni35  1  0.16750055  0.83454566  0.83476854  1
  Ni  Ni36  1  0.49895948  0.16943181  0.49950672  1
  Fe  Fe37  1  0.33197188  0.00184648  0.66710636  1
  Cr  Cr38  1  0.49996253  0.16666502  0.83423974  1
  Ni  Ni39  1  0.50198815  0.49757786  0.50043654  1
  Fe  Fe40  1  0.33397081  0.33294859  0.66712844  1
  Fe  Fe41  1  0.50062238  0.50151347  0.83425122  1
  Cr  Cr42  1  0.50189148  0.83501629  0.50083812  1
  Cr  Cr43  1  0.33425680  0.66687674  0.66967481  1
  Fe  Fe44  1  0.49943583  0.83270870  0.83537478  1
  Cr  Cr45  1  0.83245546  0.16632235  0.50320148  1
  Fe  Fe46  1  0.66828103  1.00008823  0.66735819  1
  Fe  Fe47  1  0.83683629  0.16872589  0.83417860  1
  Cr  Cr48  1  0.83220300  0.50393423  0.50107539  1
  Ni  Ni49  1  0.66639331  0.33492075  0.66772957  1
  Ni  Ni50  1  0.83446559  0.50023677  0.83372901  1
  Ni  Ni51  1  0.83506400  0.83294966  0.50126317  1
  Ni  Ni52  1  0.66797596  0.66554232  0.66793397  1
  Cr  Cr53  1  0.83422757  0.83276241  0.83331937  1
" 