6967,Ni49Fe21Cr29_19,-228.746877049735, 178.622125273891,Ni49Fe21Cr29,"# generated using pymatgen
 data_Cr17Fe11Ni26
_symmetry_space_group_name_H-M   'P 1'
_cell_length_a   7.46837466
_cell_length_b   7.46837466
_cell_length_c   10.56187673
_cell_angle_alpha   90.00000000
_cell_angle_beta   90.00000000
_cell_angle_gamma   90.00000000
_symmetry_Int_Tables_number   1
_chemical_formula_structural   Cr17Fe11Ni26
_chemical_formula_sum   'Cr17 Fe11 Ni26'
_cell_volume   589.10578523
_cell_formula_units_Z   1
loop_
 _symmetry_equiv_pos_site_id
 _symmetry_equiv_pos_as_xyz
  1  'x, y, z'
loop_
 _atom_site_type_symbol
 _atom_site_label
 _atom_site_symmetry_multiplicity
 _atom_site_fract_x
 _atom_site_fract_y
 _atom_site_fract_z
 _atom_site_occupancy
  Fe  Fe0  1  0.00257626  -0.00001655  0.00161060  1
  Ni  Ni1  1  0.16877901  0.16495483  0.16691547  1
  Ni  Ni2  1  0.00140052  0.00090688  0.33093779  1
  Fe  Fe3  1  0.00256908  0.33218661  0.00350855  1
  Ni  Ni4  1  0.16777307  0.50051280  0.16533999  1
  Ni  Ni5  1  0.00116934  0.33205047  0.32711212  1
  Ni  Ni6  1  0.00156746  0.66771834  0.00125172  1
  Ni  Ni7  1  0.16793096  0.83403052  0.16534903  1
  Cr  Cr8  1  0.00211089  0.66682146  0.33418550  1
  Ni  Ni9  1  0.33230618  0.99862550  0.00152226  1
  Ni  Ni10  1  0.49772563  0.16538823  0.16807997  1
  Ni  Ni11  1  0.33238107  0.99681809  0.33097860  1
  Ni  Ni12  1  0.33417739  0.33303630  0.00340045  1
  Ni  Ni13  1  0.49872480  0.50116302  0.16632393  1
  Fe  Fe14  1  0.33273471  0.33422029  0.33004656  1
  Fe  Fe15  1  0.33351856  0.66711396  0.00153742  1
  Fe  Fe16  1  0.49715104  0.83327116  0.16770100  1
  Ni  Ni17  1  0.33412651  0.66817481  0.33145615  1
  Cr  Cr18  1  0.66565953  0.00002919  0.00078896  1
  Ni  Ni19  1  0.83503332  0.16542937  0.16661358  1
  Ni  Ni20  1  0.66493707  0.99877944  0.33175002  1
  Cr  Cr21  1  0.66663026  0.33240673  0.00182653  1
  Ni  Ni22  1  0.83349504  0.50059191  0.16529418  1
  Cr  Cr23  1  0.66727858  0.33338596  0.32941696  1
  Fe  Fe24  1  0.66422987  0.66610086  0.00177030  1
  Cr  Cr25  1  0.83337600  0.83189837  0.16855294  1
  Ni  Ni26  1  0.66244998  0.66729858  0.33123876  1
  Cr  Cr27  1  0.16627409  0.16311215  0.49859013  1
  Ni  Ni28  1  0.99896656  0.99634129  0.66871892  1
  Cr  Cr29  1  0.16732979  0.16369272  0.83320079  1
  Cr  Cr30  1  0.16634011  0.50061027  0.49935052  1
  Ni  Ni31  1  0.99736398  0.33278874  0.66882433  1
  Cr  Cr32  1  0.16691022  0.50217966  0.83497419  1
  Ni  Ni33  1  0.16603777  0.83542581  0.50049724  1
  Ni  Ni34  1  0.99889750  0.67070905  0.66615803  1
  Ni  Ni35  1  0.16450025  0.83443610  0.83461907  1
  Cr  Cr36  1  0.50036496  0.16492056  0.49964117  1
  Ni  Ni37  1  0.33295958  0.99602884  0.66661721  1
  Cr  Cr38  1  0.49970267  0.16637236  0.83023241  1
  Ni  Ni39  1  0.50127900  0.50228926  0.49802812  1
  Cr  Cr40  1  0.33519011  0.33522567  0.66490293  1
  Ni  Ni41  1  0.50172232  0.50119475  0.83512442  1
  Fe  Fe42  1  0.49877051  0.83351956  0.49728730  1
  Cr  Cr43  1  0.33101341  0.66926385  0.66685016  1
  Fe  Fe44  1  0.49700280  0.83270647  0.83465239  1
  Cr  Cr45  1  0.83395371  0.16472983  0.50110204  1
  Ni  Ni46  1  0.66803125  0.99880103  0.66784838  1
  Fe  Fe47  1  0.83465582  0.16551408  0.83222513  1
  Cr  Cr48  1  0.83209830  0.50094425  0.49957003  1
  Ni  Ni49  1  0.66803657  0.33281841  0.66815387  1
  Cr  Cr50  1  0.83357148  0.50170263  0.83435904  1
  Fe  Fe51  1  0.83251098  0.83530498  0.49837689  1
  Cr  Cr52  1  0.66507190  0.66769115  0.66628716  1
  Fe  Fe53  1  0.83483461  0.83398179  0.83450121  1
" 