4119,Ni49Fe21Cr29_18,-228.247652072767, 181.891083635456,Ni49Fe21Cr29,"# generated using pymatgen
 data_Cr17Fe11Ni26
_symmetry_space_group_name_H-M   'P 1'
_cell_length_a   7.46416024
_cell_length_b   7.46416024
_cell_length_c   10.55591665
_cell_angle_alpha   90.00000000
_cell_angle_beta   90.00000000
_cell_angle_gamma   90.00000000
_symmetry_Int_Tables_number   1
_chemical_formula_structural   Cr17Fe11Ni26
_chemical_formula_sum   'Cr17 Fe11 Ni26'
_cell_volume   588.10904849
_cell_formula_units_Z   1
loop_
 _symmetry_equiv_pos_site_id
 _symmetry_equiv_pos_as_xyz
  1  'x, y, z'
loop_
 _atom_site_type_symbol
 _atom_site_label
 _atom_site_symmetry_multiplicity
 _atom_site_fract_x
 _atom_site_fract_y
 _atom_site_fract_z
 _atom_site_occupancy
  Cr  Cr0  1  0.00255771  0.00085568  0.99932892  1
  Fe  Fe1  1  0.17051311  0.16893271  0.16701315  1
  Cr  Cr2  1  0.99998826  0.00052176  0.33368926  1
  Fe  Fe3  1  0.00257215  0.33246636  0.99970007  1
  Ni  Ni4  1  0.16867137  0.49973023  0.16771741  1
  Ni  Ni5  1  0.00125898  0.33455254  0.33328131  1
  Cr  Cr6  1  0.99929969  0.66738350  0.00038490  1
  Fe  Fe7  1  0.16824650  0.83257630  0.16740737  1
  Fe  Fe8  1  0.00039122  0.66599078  0.33290864  1
  Ni  Ni9  1  0.33147400  0.00102038  0.00067756  1
  Ni  Ni10  1  0.49734649  0.16702343  0.16855620  1
  Ni  Ni11  1  0.33461099  0.00233774  0.33234421  1
  Ni  Ni12  1  0.33267252  0.33354095  0.00162982  1
  Ni  Ni13  1  0.49675764  0.50004103  0.16715951  1
  Ni  Ni14  1  0.33418196  0.33381043  0.33344318  1
  Fe  Fe15  1  0.33571277  0.66669780  1.00012111  1
  Cr  Cr16  1  0.49972352  0.83409486  0.16672734  1
  Ni  Ni17  1  0.33398938  0.66443366  0.33114965  1
  Cr  Cr18  1  0.66627634  0.99805986  0.99931354  1
  Cr  Cr19  1  0.83281147  0.16677407  0.16750649  1
  Ni  Ni20  1  0.66637437  0.00055395  0.33422452  1
  Cr  Cr21  1  0.66541554  0.33640049  0.99970430  1
  Cr  Cr22  1  0.83479284  0.50074424  0.16768918  1
  Fe  Fe23  1  0.66439430  0.33283441  0.33563206  1
  Ni  Ni24  1  0.66550135  0.66592440  0.99860631  1
  Ni  Ni25  1  0.83328460  0.83254956  0.16844591  1
  Fe  Fe26  1  0.66658274  0.66603359  0.33364134  1
  Ni  Ni27  1  0.16681358  0.16749106  0.49969825  1
  Ni  Ni28  1  0.99832610  0.99979860  0.66793565  1
  Ni  Ni29  1  0.16470484  0.16552921  0.83478344  1
  Cr  Cr30  1  0.16631140  0.49971967  0.49953135  1
  Cr  Cr31  1  0.99893266  0.33166793  0.66759415  1
  Cr  Cr32  1  0.16735302  0.49996488  0.83343233  1
  Cr  Cr33  1  0.16559695  0.83342501  0.50002705  1
  Ni  Ni34  1  0.99809191  0.66916496  0.66665307  1
  Ni  Ni35  1  0.16694017  0.83450157  0.83364843  1
  Ni  Ni36  1  0.50209860  0.16837966  0.49952772  1
  Cr  Cr37  1  0.33211143  0.00222244  0.66704874  1
  Cr  Cr38  1  0.50079017  0.16645945  0.83226323  1
  Ni  Ni39  1  0.50193194  0.49724572  0.49891945  1
  Fe  Fe40  1  0.33581163  0.33246281  0.66603957  1
  Ni  Ni41  1  0.50090469  0.50219532  0.83450175  1
  Cr  Cr42  1  0.50128366  0.83521700  0.49830033  1
  Cr  Cr43  1  0.33382657  0.66536104  0.66898018  1
  Ni  Ni44  1  0.50010989  0.83179424  0.83574379  1
  Ni  Ni45  1  0.83167059  0.16727504  0.50067300  1
  Ni  Ni46  1  0.67020087  0.00222550  0.66701540  1
  Ni  Ni47  1  0.83517942  0.16632481  0.83184722  1
  Ni  Ni48  1  0.83271413  0.49923074  0.49902693  1
  Ni  Ni49  1  0.66662572  0.33310897  0.66548214  1
  Fe  Fe50  1  0.83193075  0.50025590  0.83295785  1
  Fe  Fe51  1  0.83321507  0.83433953  0.50023843  1
  Cr  Cr52  1  0.66800970  0.66517032  0.66820461  1
  Fe  Fe53  1  0.83355714  0.83402831  0.83236707  1
" 