4154,Ni49Fe49Cr1_8,-239.598752252023, 223.94488670876,Ni49Fe49Cr1,"# generated using pymatgen
 data_Cr(FeNi)13
_symmetry_space_group_name_H-M   'P 1'
_cell_length_a   7.40352219
_cell_length_b   7.40352219
_cell_length_c   10.47016149
_cell_angle_alpha   90.00000000
_cell_angle_beta   90.00000000
_cell_angle_gamma   90.00000000
_symmetry_Int_Tables_number   1
_chemical_formula_structural   Cr(FeNi)13
_chemical_formula_sum   'Cr2 Fe26 Ni26'
_cell_volume   573.89196527
_cell_formula_units_Z   2
loop_
 _symmetry_equiv_pos_site_id
 _symmetry_equiv_pos_as_xyz
  1  'x, y, z'
loop_
 _atom_site_type_symbol
 _atom_site_label
 _atom_site_symmetry_multiplicity
 _atom_site_fract_x
 _atom_site_fract_y
 _atom_site_fract_z
 _atom_site_occupancy
  Fe  Fe0  1  1.00308451  1.00301419  1.00307717  1
  Cr  Cr1  1  0.16996886  0.17072383  0.17055437  1
  Fe  Fe2  1  1.00230133  1.00413758  0.33886569  1
  Fe  Fe3  1  1.00283281  0.33634161  1.00309568  1
  Fe  Fe4  1  0.17011960  0.50530478  0.17262457  1
  Ni  Ni5  1  0.00460621  0.33904207  0.33756697  1
  Cr  Cr6  1  1.00208874  0.66903513  1.00337527  1
  Fe  Fe7  1  0.17036080  0.83604542  0.17162126  1
  Ni  Ni8  1  1.00387471  0.67014708  0.33836865  1
  Ni  Ni9  1  0.34033243  1.00391586  1.00361642  1
  Fe  Fe10  1  0.50744072  0.17213269  0.17106675  1
  Fe  Fe11  1  0.33791632  1.00354071  0.33869113  1
  Fe  Fe12  1  0.33948753  0.33869454  1.00389841  1
  Ni  Ni13  1  0.50330922  0.50660401  0.17104001  1
  Ni  Ni14  1  0.33766827  0.33675566  0.33776166  1
  Ni  Ni15  1  0.33725515  0.67139989  0.00547042  1
  Fe  Fe16  1  0.50567673  0.83865700  0.17060164  1
  Fe  Fe17  1  0.33846240  0.67005622  0.33798412  1
  Ni  Ni18  1  0.67105851  0.00547929  1.00394599  1
  Ni  Ni19  1  0.83799277  0.17049763  0.17080618  1
  Ni  Ni20  1  0.67027572  0.00479008  0.33797710  1
  Fe  Fe21  1  0.67097160  0.33840256  1.00404121  1
  Ni  Ni22  1  0.83525701  0.50362824  0.17187827  1
  Fe  Fe23  1  0.67181915  0.33862532  0.33754978  1
  Fe  Fe24  1  0.66912342  0.67228503  1.00425562  1
  Ni  Ni25  1  0.83590726  0.83881854  0.17153449  1
  Ni  Ni26  1  0.67235940  0.67317808  0.33641136  1
  Ni  Ni27  1  0.16991090  0.17273308  0.50548158  1
  Fe  Fe28  1  1.00348494  0.00528966  0.67086266  1
  Fe  Fe29  1  0.17057575  0.16997817  0.83735607  1
  Ni  Ni30  1  0.17202133  0.50299908  0.50341451  1
  Ni  Ni31  1  0.00440967  0.33712210  0.67147077  1
  Ni  Ni32  1  0.17341996  0.50229049  0.83800549  1
  Fe  Fe33  1  0.17093761  0.83785405  0.50446614  1
  Fe  Fe34  1  0.00487871  0.66785122  0.67134282  1
  Fe  Fe35  1  0.17083546  0.83717962  0.83714645  1
  Fe  Fe36  1  0.50345146  0.17132100  0.50417940  1
  Fe  Fe37  1  0.33916185  0.00443749  0.67117641  1
  Fe  Fe38  1  0.50619263  0.17142329  0.83752900  1
  Fe  Fe39  1  0.50444003  0.50387109  0.50439809  1
  Ni  Ni40  1  0.33712350  0.33761661  0.67226108  1
  Fe  Fe41  1  0.50590288  0.50517070  0.83728410  1
  Ni  Ni42  1  0.50525937  0.83574515  0.50376413  1
  Ni  Ni43  1  0.33764539  0.67087733  0.67083671  1
  Ni  Ni44  1  0.50364168  0.83689489  0.83867920  1
  Ni  Ni45  1  0.83898333  0.17120375  0.50298971  1
  Fe  Fe46  1  0.67003322  0.00548200  0.67056183  1
  Ni  Ni47  1  0.83834775  0.17078954  0.83847339  1
  Fe  Fe48  1  0.83781029  0.50429430  0.50463779  1
  Ni  Ni49  1  0.67181817  0.33661258  0.66966848  1
  Ni  Ni50  1  0.83761813  0.50297891  0.83616459  1
  Fe  Fe51  1  0.83760842  0.83741272  0.50396318  1
  Ni  Ni52  1  0.67072039  0.67191006  0.67206606  1
  Ni  Ni53  1  0.83388770  0.83907975  0.83581184  1
" 