552,Ni49Fe49Cr1_1,-239.648210450934, 223.248310259477,Ni49Fe49Cr1,"# generated using pymatgen
 data_Cr(FeNi)13
_symmetry_space_group_name_H-M   'P 1'
_cell_length_a   7.40536200
_cell_length_b   7.40536200
_cell_length_c   10.47276338
_cell_angle_alpha   90.00000000
_cell_angle_beta   90.00000000
_cell_angle_gamma   90.00000000
_symmetry_Int_Tables_number   1
_chemical_formula_structural   Cr(FeNi)13
_chemical_formula_sum   'Cr2 Fe26 Ni26'
_cell_volume   574.31991734
_cell_formula_units_Z   2
loop_
 _symmetry_equiv_pos_site_id
 _symmetry_equiv_pos_as_xyz
  1  'x, y, z'
loop_
 _atom_site_type_symbol
 _atom_site_label
 _atom_site_symmetry_multiplicity
 _atom_site_fract_x
 _atom_site_fract_y
 _atom_site_fract_z
 _atom_site_occupancy
  Fe  Fe0  1  0.00437849  1.00387783  1.00344063  1
  Fe  Fe1  1  0.17105786  0.17103512  0.17102679  1
  Fe  Fe2  1  0.00491980  1.00345133  0.33818234  1
  Fe  Fe3  1  0.00452694  0.33733522  1.00399681  1
  Fe  Fe4  1  0.17001063  0.50387433  0.17080592  1
  Fe  Fe5  1  1.00359498  0.33770764  0.33779821  1
  Ni  Ni6  1  1.00281730  0.67117723  1.00321823  1
  Fe  Fe7  1  0.17050272  0.83758510  0.17072952  1
  Ni  Ni8  1  1.00319100  0.67069619  0.33847250  1
  Ni  Ni9  1  0.33791215  0.00530522  1.00389749  1
  Ni  Ni10  1  0.50335786  0.17294543  0.17000221  1
  Ni  Ni11  1  0.33601195  0.00477487  0.33772779  1
  Ni  Ni12  1  0.33799239  0.33601942  0.00442550  1
  Ni  Ni13  1  0.50416971  0.50301407  0.17091114  1
  Fe  Fe14  1  0.33852113  0.33783996  0.33788558  1
  Fe  Fe15  1  0.33699795  0.67076368  1.00394394  1
  Fe  Fe16  1  0.50447511  0.83702184  0.17022071  1
  Fe  Fe17  1  0.33813205  0.67058823  0.33804259  1
  Fe  Fe18  1  0.67082716  0.00453141  0.00419156  1
  Ni  Ni19  1  0.83749024  0.17103169  0.17019363  1
  Cr  Cr20  1  0.66973173  1.00408303  0.33823778  1
  Fe  Fe21  1  0.67031128  0.33704613  0.00461964  1
  Ni  Ni22  1  0.83672120  0.50497246  0.17110222  1
  Ni  Ni23  1  0.67051467  0.33979900  0.33770169  1
  Fe  Fe24  1  0.67069701  0.67092080  0.00482975  1
  Ni  Ni25  1  0.83944710  0.83649072  0.16948656  1
  Ni  Ni26  1  0.67216799  0.66877133  0.33672997  1
  Ni  Ni27  1  0.17182970  0.17056188  0.50444806  1
  Ni  Ni28  1  0.00479691  1.00409224  0.67065497  1
  Fe  Fe29  1  0.17060645  0.17013959  0.83693886  1
  Ni  Ni30  1  0.17182603  0.50488019  0.50444621  1
  Ni  Ni31  1  0.00473909  0.33677191  0.67110008  1
  Fe  Fe32  1  0.17034430  0.50382373  0.83717299  1
  Ni  Ni33  1  0.16917156  0.83705147  0.50420404  1
  Fe  Fe34  1  0.00590698  0.67062340  0.67076771  1
  Ni  Ni35  1  0.16960712  0.83641685  0.83698083  1
  Ni  Ni36  1  0.50331815  0.17329621  0.50526485  1
  Fe  Fe37  1  0.33711946  0.00542225  0.67061100  1
  Ni  Ni38  1  0.50473029  0.17218767  0.83723340  1
  Ni  Ni39  1  0.50303221  0.50186421  0.50311209  1
  Ni  Ni40  1  0.33742477  0.33659849  0.67060430  1
  Fe  Fe41  1  0.50371545  0.50299656  0.83797990  1
  Fe  Fe42  1  0.50169741  0.83743301  0.50371099  1
  Fe  Fe43  1  0.33519870  0.66981716  0.67050639  1
  Fe  Fe44  1  0.50365588  0.83926015  0.83856161  1
  Fe  Fe45  1  0.83876748  0.17206506  0.50551597  1
  Fe  Fe46  1  0.67161299  0.00714745  0.67110039  1
  Ni  Ni47  1  0.83621044  0.17024071  0.83710312  1
  Fe  Fe48  1  0.83844789  0.50324967  0.50271241  1
  Ni  Ni49  1  0.67033271  0.33637515  0.67075930  1
  Fe  Fe50  1  0.83843376  0.50329055  0.83853551  1
  Ni  Ni51  1  0.84037095  0.83733809  0.50430958  1
  Cr  Cr52  1  0.67157177  0.67077213  0.67005204  1
  Ni  Ni53  1  0.83995930  0.83853110  0.83869883  1
" 