7554,Ni49Fe49Cr1_9,-239.595689942005, 221.611863826609,Ni49Fe49Cr1,"# generated using pymatgen
 data_Cr(FeNi)13
_symmetry_space_group_name_H-M   'P 1'
_cell_length_a   7.40718436
_cell_length_b   7.40718436
_cell_length_c   10.47534058
_cell_angle_alpha   90.00000000
_cell_angle_beta   90.00000000
_cell_angle_gamma   90.00000000
_symmetry_Int_Tables_number   1
_chemical_formula_structural   Cr(FeNi)13
_chemical_formula_sum   'Cr2 Fe26 Ni26'
_cell_volume   574.74401796
_cell_formula_units_Z   2
loop_
 _symmetry_equiv_pos_site_id
 _symmetry_equiv_pos_as_xyz
  1  'x, y, z'
loop_
 _atom_site_type_symbol
 _atom_site_label
 _atom_site_symmetry_multiplicity
 _atom_site_fract_x
 _atom_site_fract_y
 _atom_site_fract_z
 _atom_site_occupancy
  Fe  Fe0  1  1.00220416  1.00290022  1.00337905  1
  Fe  Fe1  1  0.16994758  0.17140777  0.17131798  1
  Fe  Fe2  1  0.00428562  0.00419514  0.33738785  1
  Fe  Fe3  1  1.00388794  0.33798374  1.00329391  1
  Fe  Fe4  1  0.17050990  0.50420067  0.17087227  1
  Fe  Fe5  1  0.00434402  0.33753211  0.33781529  1
  Ni  Ni6  1  1.00388573  0.67007945  1.00288632  1
  Fe  Fe7  1  0.16972432  0.83651209  0.17137074  1
  Ni  Ni8  1  0.00447814  0.67027304  0.33776099  1
  Cr  Cr9  1  0.33767949  1.00346554  1.00309922  1
  Fe  Fe10  1  0.50542936  0.17121736  0.17250354  1
  Ni  Ni11  1  0.33804368  0.00437474  0.33793893  1
  Fe  Fe12  1  0.33735162  0.33955639  0.00408234  1
  Fe  Fe13  1  0.50417479  0.50370194  0.17122155  1
  Ni  Ni14  1  0.33804979  0.33719319  0.33741847  1
  Ni  Ni15  1  0.33655769  0.66931260  1.00363084  1
  Fe  Fe16  1  0.50515055  0.83720162  0.17088277  1
  Ni  Ni17  1  0.33607347  0.67055378  0.33716253  1
  Ni  Ni18  1  0.67223727  0.00432532  1.00327295  1
  Ni  Ni19  1  0.83698926  0.17015292  0.17067786  1
  Ni  Ni20  1  0.67036802  0.00542987  0.33752298  1
  Fe  Fe21  1  0.67088288  0.33807857  0.00419477  1
  Fe  Fe22  1  0.83743714  0.50392052  0.17065123  1
  Ni  Ni23  1  0.67065034  0.33642469  0.33742272  1
  Ni  Ni24  1  0.67167898  0.67078267  0.00428478  1
  Fe  Fe25  1  0.83724833  0.83776640  0.17008777  1
  Fe  Fe26  1  0.66995336  0.67039341  0.33733968  1
  Fe  Fe27  1  0.17057190  0.17095017  0.50399335  1
  Ni  Ni28  1  0.00424792  0.00413046  0.67141976  1
  Ni  Ni29  1  0.16966260  0.17065364  0.83757556  1
  Ni  Ni30  1  0.16990436  0.50485921  0.50291605  1
  Ni  Ni31  1  1.00151788  0.33734155  0.67046014  1
  Ni  Ni32  1  0.16972611  0.50455824  0.83852607  1
  Fe  Fe33  1  0.17151512  0.83652970  0.50428789  1
  Fe  Fe34  1  0.00446350  0.67015389  0.67096449  1
  Ni  Ni35  1  0.17071311  0.83691025  0.83671013  1
  Ni  Ni36  1  0.50461499  0.16974385  0.50251408  1
  Ni  Ni37  1  0.33685469  1.00192422  0.67068860  1
  Fe  Fe38  1  0.50526208  0.17008559  0.83683717  1
  Ni  Ni39  1  0.50460796  0.50414052  0.50294167  1
  Cr  Cr40  1  0.33751701  0.33795427  0.67101155  1
  Fe  Fe41  1  0.50431403  0.50596662  0.83787826  1
  Fe  Fe42  1  0.50339212  0.83674429  0.50421932  1
  Ni  Ni43  1  0.33696531  0.67269967  0.67132939  1
  Ni  Ni44  1  0.50459588  0.83719191  0.83644536  1
  Fe  Fe45  1  0.83668734  0.17217263  0.50378184  1
  Fe  Fe46  1  0.67032035  0.00440224  0.67092080  1
  Fe  Fe47  1  0.83821678  0.17029970  0.83746966  1
  Ni  Ni48  1  0.83760995  0.50379776  0.50331268  1
  Ni  Ni49  1  0.67306822  0.33745248  0.67117790  1
  Ni  Ni50  1  0.83778870  0.50420276  0.83760292  1
  Fe  Fe51  1  0.83721365  0.83677858  0.50407678  1
  Fe  Fe52  1  0.67082070  0.67037310  0.67136294  1
  Ni  Ni53  1  0.83681243  0.83725507  0.83830440  1
" 