1462,Ni49Fe49Cr1_19,-239.62818620458, 220.233265371051,Ni49Fe49Cr1,"# generated using pymatgen
 data_Cr(FeNi)13
_symmetry_space_group_name_H-M   'P 1'
_cell_length_a   7.41004117
_cell_length_b   7.41004117
_cell_length_c   10.47938072
_cell_angle_alpha   90.00000000
_cell_angle_beta   90.00000000
_cell_angle_gamma   90.00000000
_symmetry_Int_Tables_number   1
_chemical_formula_structural   Cr(FeNi)13
_chemical_formula_sum   'Cr2 Fe26 Ni26'
_cell_volume   575.40927783
_cell_formula_units_Z   2
loop_
 _symmetry_equiv_pos_site_id
 _symmetry_equiv_pos_as_xyz
  1  'x, y, z'
loop_
 _atom_site_type_symbol
 _atom_site_label
 _atom_site_symmetry_multiplicity
 _atom_site_fract_x
 _atom_site_fract_y
 _atom_site_fract_z
 _atom_site_occupancy
  Cr  Cr0  1  1.00286456  0.00470090  0.00539381  1
  Fe  Fe1  1  0.17143517  0.17248847  0.17201245  1
  Fe  Fe2  1  1.00310685  0.00494122  0.33758623  1
  Fe  Fe3  1  1.00308529  0.33958646  0.00414720  1
  Fe  Fe4  1  0.17018180  0.50325998  0.17100338  1
  Ni  Ni5  1  0.00388964  0.33718015  0.33667590  1
  Fe  Fe6  1  1.00284806  0.66683792  0.00514690  1
  Fe  Fe7  1  0.17091953  0.83578691  0.17111784  1
  Ni  Ni8  1  1.00312779  0.67045702  0.33697212  1
  Fe  Fe9  1  0.34057435  0.00428254  0.00435311  1
  Fe  Fe10  1  0.50460144  0.17175324  0.17085138  1
  Ni  Ni11  1  0.33641241  0.00465454  0.33654406  1
  Ni  Ni12  1  0.33759261  0.33771918  1.00281452  1
  Ni  Ni13  1  0.50411047  0.50478621  0.17018150  1
  Ni  Ni14  1  0.33686255  0.33622820  0.33776079  1
  Ni  Ni15  1  0.33874298  0.66912132  0.00498713  1
  Fe  Fe16  1  0.50495747  0.83670401  0.17008616  1
  Fe  Fe17  1  0.33779829  0.66948075  0.33739146  1
  Fe  Fe18  1  0.66825498  0.00404412  0.00406694  1
  Ni  Ni19  1  0.83669022  0.17180511  0.17159416  1
  Ni  Ni20  1  0.67059305  0.00389766  0.33720809  1
  Ni  Ni21  1  0.67016380  0.33835929  0.00433044  1
  Ni  Ni22  1  0.83642173  0.50275830  0.17111599  1
  Ni  Ni23  1  0.67078829  0.33762744  0.33689624  1
  Ni  Ni24  1  0.67014087  0.66960395  1.00331603  1
  Fe  Fe25  1  0.83566502  0.83544099  0.17176114  1
  Ni  Ni26  1  0.67154796  0.67001434  0.33713089  1
  Ni  Ni27  1  0.16935309  0.16988161  0.50403674  1
  Ni  Ni28  1  0.00429013  0.00500838  0.66863160  1
  Fe  Fe29  1  0.17106660  0.17243606  0.83579601  1
  Ni  Ni30  1  0.17183867  0.50422221  0.50379014  1
  Fe  Fe31  1  1.00369291  0.33684575  0.67002132  1
  Fe  Fe32  1  0.17063493  0.50257203  0.83708701  1
  Fe  Fe33  1  0.17066371  0.83745630  0.50437495  1
  Fe  Fe34  1  1.00319623  0.66982363  0.66936607  1
  Cr  Cr35  1  0.17347273  0.83611161  0.83560203  1
  Fe  Fe36  1  0.50319216  0.17140925  0.50335026  1
  Ni  Ni37  1  0.33567866  0.00421634  0.67084968  1
  Fe  Fe38  1  0.50448001  0.17068875  0.83733466  1
  Ni  Ni39  1  0.50317563  0.50507785  0.50391779  1
  Fe  Fe40  1  0.33724355  0.33746573  0.66982747  1
  Fe  Fe41  1  0.50481724  0.50422337  0.83745243  1
  Fe  Fe42  1  0.50329749  0.83729387  0.50446089  1
  Ni  Ni43  1  0.33843582  0.67042629  0.66933287  1
  Ni  Ni44  1  0.50389244  0.83695346  0.83769566  1
  Ni  Ni45  1  0.83794510  0.17000833  0.50339342  1
  Fe  Fe46  1  0.67035617  1.00351195  0.67045317  1
  Ni  Ni47  1  0.83636109  0.17237472  0.83654867  1
  Fe  Fe48  1  0.83727545  0.50308178  0.50347775  1
  Ni  Ni49  1  0.67100558  0.33830024  0.67031583  1
  Ni  Ni50  1  0.83683625  0.50236099  0.83727472  1
  Fe  Fe51  1  0.83757712  0.83685620  0.50359413  1
  Ni  Ni52  1  0.67019759  0.66939200  0.67110067  1
  Fe  Fe53  1  0.83436109  0.83619570  0.83618283  1
" 