7213,Ni49Fe28Cr21_2,-231.552107957831, 194.413323499543,Ni49Fe28Cr21,"# generated using pymatgen
 data_Cr13Fe15Ni26
_symmetry_space_group_name_H-M   'P 1'
_cell_length_a   7.44774644
_cell_length_b   7.44774644
_cell_length_c   10.53270402
_cell_angle_alpha   90.00000000
_cell_angle_beta   90.00000000
_cell_angle_gamma   90.00000000
_symmetry_Int_Tables_number   1
_chemical_formula_structural   Cr13Fe15Ni26
_chemical_formula_sum   'Cr13 Fe15 Ni26'
_cell_volume   584.23779022
_cell_formula_units_Z   1
loop_
 _symmetry_equiv_pos_site_id
 _symmetry_equiv_pos_as_xyz
  1  'x, y, z'
loop_
 _atom_site_type_symbol
 _atom_site_label
 _atom_site_symmetry_multiplicity
 _atom_site_fract_x
 _atom_site_fract_y
 _atom_site_fract_z
 _atom_site_occupancy
  Ni  Ni0  1  0.00162075  0.00493634  0.00195682  1
  Ni  Ni1  1  0.16823860  0.16767861  0.16811175  1
  Fe  Fe2  1  1.00118223  0.00205365  0.33294284  1
  Fe  Fe3  1  1.00012509  0.33372082  1.00114665  1
  Fe  Fe4  1  0.16705100  0.49859817  0.16758824  1
  Fe  Fe5  1  1.00003862  0.33576787  0.33461889  1
  Fe  Fe6  1  0.00160126  0.66457830  0.00192064  1
  Fe  Fe7  1  0.16701295  0.83576719  0.16729500  1
  Ni  Ni8  1  0.00186285  0.66452226  0.33392210  1
  Fe  Fe9  1  0.33491342  0.00427234  0.00138920  1
  Ni  Ni10  1  0.49989259  0.17115520  0.16713809  1
  Ni  Ni11  1  0.33266976  0.00351064  0.33137497  1
  Ni  Ni12  1  0.33278245  0.33506214  0.00197016  1
  Ni  Ni13  1  0.50179772  0.49807590  0.16666860  1
  Fe  Fe14  1  0.33487831  0.33583824  0.33266737  1
  Fe  Fe15  1  0.33552837  0.66564386  1.00042394  1
  Cr  Cr16  1  0.50037590  0.83466848  0.16552741  1
  Cr  Cr17  1  0.33308767  0.66602963  0.33494600  1
  Ni  Ni18  1  0.66812360  0.00346913  1.00051772  1
  Ni  Ni19  1  0.83578017  0.17037976  0.16760327  1
  Cr  Cr20  1  0.66826360  0.00348174  0.33539669  1
  Fe  Fe21  1  0.66802499  0.33396828  0.00215753  1
  Ni  Ni22  1  0.83475033  0.49951999  0.16715995  1
  Ni  Ni23  1  0.67001647  0.33487811  0.33326664  1
  Ni  Ni24  1  0.66739248  0.66560867  1.00067812  1
  Cr  Cr25  1  0.83679307  0.83331328  0.16599100  1
  Cr  Cr26  1  0.67011205  0.66471721  0.33747148  1
  Cr  Cr27  1  0.16709261  0.17024870  0.50127701  1
  Fe  Fe28  1  1.00076959  0.00284661  0.66895039  1
  Fe  Fe29  1  0.16756895  0.17142974  0.83635665  1
  Ni  Ni30  1  0.16752151  0.50142913  0.50236296  1
  Ni  Ni31  1  0.00136634  0.33596579  0.66903350  1
  Fe  Fe32  1  0.16831021  0.49914904  0.83364617  1
  Cr  Cr33  1  0.16616372  0.83405225  0.50134310  1
  Ni  Ni34  1  0.00166572  0.66283833  0.66745291  1
  Cr  Cr35  1  0.16741589  0.83341247  0.83554623  1
  Cr  Cr36  1  0.50048443  0.17326087  0.49947913  1
  Cr  Cr37  1  0.33688109  0.00253535  0.67085420  1
  Ni  Ni38  1  0.50113036  0.17119047  0.83709661  1
  Ni  Ni39  1  0.50018793  0.49900642  0.50207685  1
  Ni  Ni40  1  0.33225277  0.33740420  0.66867047  1
  Ni  Ni41  1  0.50077394  0.49967414  0.83507381  1
  Fe  Fe42  1  0.50029877  0.83385444  0.50141571  1
  Ni  Ni43  1  0.33408978  0.66400371  0.66839366  1
  Ni  Ni44  1  0.49978010  0.83314625  0.83656364  1
  Ni  Ni45  1  0.83626091  0.16989724  0.50155114  1
  Cr  Cr46  1  0.66914256  0.00251325  0.66778904  1
  Ni  Ni47  1  0.83485863  0.17064925  0.83488406  1
  Ni  Ni48  1  0.83630915  0.49979750  0.50115288  1
  Fe  Fe49  1  0.66861667  0.33627825  0.66837969  1
  Ni  Ni50  1  0.83429025  0.49908091  0.83544756  1
  Ni  Ni51  1  0.83931634  0.83424700  0.50159681  1
  Cr  Cr52  1  0.66772927  0.66758950  0.66545514  1
  Cr  Cr53  1  0.83577796  0.83325514  0.83627137  1
" 