4238,Ni49Fe21Cr29_10,-228.43963414659, 181.534563246999,Ni49Fe21Cr29,"# generated using pymatgen
 data_Cr17Fe11Ni26
_symmetry_space_group_name_H-M   'P 1'
_cell_length_a   7.46110453
_cell_length_b   7.46110453
_cell_length_c   10.55159522
_cell_angle_alpha   90.00000000
_cell_angle_beta   90.00000000
_cell_angle_gamma   90.00000000
_symmetry_Int_Tables_number   1
_chemical_formula_structural   Cr17Fe11Ni26
_chemical_formula_sum   'Cr17 Fe11 Ni26'
_cell_volume   587.38705556
_cell_formula_units_Z   1
loop_
 _symmetry_equiv_pos_site_id
 _symmetry_equiv_pos_as_xyz
  1  'x, y, z'
loop_
 _atom_site_type_symbol
 _atom_site_label
 _atom_site_symmetry_multiplicity
 _atom_site_fract_x
 _atom_site_fract_y
 _atom_site_fract_z
 _atom_site_occupancy
  Fe  Fe0  1  0.99765934  1.00007571  0.99990353  1
  Cr  Cr1  1  0.16629069  0.16722274  0.16547569  1
  Ni  Ni2  1  0.99839198  0.99810804  0.33267491  1
  Ni  Ni3  1  0.99650061  0.33349936  0.00113833  1
  Ni  Ni4  1  0.16847051  0.50110986  0.16603414  1
  Cr  Cr5  1  0.00286300  0.33386987  0.33305354  1
  Cr  Cr6  1  0.00098535  0.66327242  0.99899036  1
  Cr  Cr7  1  0.16538499  0.83317049  0.16318673  1
  Ni  Ni8  1  0.99979710  0.66823491  0.33313346  1
  Ni  Ni9  1  0.33870043  0.99791228  0.99917821  1
  Cr  Cr10  1  0.50099492  0.16802137  0.16546249  1
  Cr  Cr11  1  0.33276685  1.00021454  0.33683295  1
  Cr  Cr12  1  0.33261779  0.33786806  0.99946484  1
  Ni  Ni13  1  0.50038150  0.50209482  0.16730585  1
  Ni  Ni14  1  0.33372528  0.33659962  0.33597978  1
  Ni  Ni15  1  0.33587773  0.66749489  1.00019679  1
  Fe  Fe16  1  0.50164670  0.83400989  0.16558265  1
  Cr  Cr17  1  0.33353752  0.66622260  0.33322656  1
  Ni  Ni18  1  0.66802601  0.00067768  0.99917111  1
  Ni  Ni19  1  0.83309576  0.16365077  0.16430749  1
  Fe  Fe20  1  0.66809961  0.99807785  0.33249916  1
  Fe  Fe21  1  0.66748437  0.33414989  0.99886826  1
  Fe  Fe22  1  0.83494870  0.50025502  0.16674805  1
  Cr  Cr23  1  0.66628345  0.33512587  0.33171791  1
  Cr  Cr24  1  0.66582466  0.66788095  0.00091361  1
  Ni  Ni25  1  0.83213740  0.83505264  0.16845016  1
  Fe  Fe26  1  0.66676845  0.66880182  0.33266944  1
  Ni  Ni27  1  0.16703602  0.16696578  0.50164878  1
  Ni  Ni28  1  1.00038239  0.00129944  0.66763989  1
  Cr  Cr29  1  0.16704581  0.16689781  0.83465497  1
  Ni  Ni30  1  0.16871670  0.50021781  0.50292748  1
  Ni  Ni31  1  0.00248129  0.33391258  0.66794307  1
  Ni  Ni32  1  0.16694732  0.49968724  0.83229322  1
  Fe  Fe33  1  0.16695589  0.83271640  0.50265700  1
  Fe  Fe34  1  0.00181350  0.66604518  0.66853261  1
  Cr  Cr35  1  0.16968676  0.83294331  0.83345249  1
  Cr  Cr36  1  0.49896240  0.16765484  0.50303440  1
  Ni  Ni37  1  0.33437130  0.99819793  0.66567237  1
  Fe  Fe38  1  0.49979429  0.16618440  0.83318519  1
  Ni  Ni39  1  0.49751433  0.50371751  0.50160396  1
  Ni  Ni40  1  0.33114050  0.33572334  0.66571645  1
  Ni  Ni41  1  0.50019720  0.50309339  0.83219116  1
  Ni  Ni42  1  0.50153920  0.83172529  0.50132354  1
  Ni  Ni43  1  0.33590199  0.66697425  0.66720531  1
  Ni  Ni44  1  0.50194830  0.83413884  0.83408908  1
  Cr  Cr45  1  0.83558227  0.16461454  0.50114099  1
  Ni  Ni46  1  0.66622141  0.99652080  0.66978189  1
  Fe  Fe47  1  0.83334861  0.16665731  0.83460707  1
  Cr  Cr48  1  0.83321235  0.50371526  0.50142858  1
  Cr  Cr49  1  0.66730680  0.33497814  0.67130344  1
  Ni  Ni50  1  0.83371044  0.49949489  0.83295985  1
  Cr  Cr51  1  0.83328606  0.83325944  0.50193941  1
  Ni  Ni52  1  0.66455807  0.66882312  0.66844749  1
  Fe  Fe53  1  0.83258475  0.83267383  0.83196092  1
" 