6085,Ni49Fe49Cr1_2,-239.679997676926, 221.552843482334,Ni49Fe49Cr1,"# generated using pymatgen
 data_Cr(FeNi)13
_symmetry_space_group_name_H-M   'P 1'
_cell_length_a   7.40517754
_cell_length_b   7.40517754
_cell_length_c   10.47250251
_cell_angle_alpha   90.00000000
_cell_angle_beta   90.00000000
_cell_angle_gamma   90.00000000
_symmetry_Int_Tables_number   1
_chemical_formula_structural   Cr(FeNi)13
_chemical_formula_sum   'Cr2 Fe26 Ni26'
_cell_volume   574.27700160
_cell_formula_units_Z   2
loop_
 _symmetry_equiv_pos_site_id
 _symmetry_equiv_pos_as_xyz
  1  'x, y, z'
loop_
 _atom_site_type_symbol
 _atom_site_label
 _atom_site_symmetry_multiplicity
 _atom_site_fract_x
 _atom_site_fract_y
 _atom_site_fract_z
 _atom_site_occupancy
  Fe  Fe0  1  0.00430551  0.00478164  0.00484317  1
  Ni  Ni1  1  0.17092070  0.17158932  0.16974209  1
  Cr  Cr2  1  1.00398267  0.00518771  0.33688284  1
  Ni  Ni3  1  1.00367063  0.33687015  0.00435906  1
  Ni  Ni4  1  0.17118260  0.50410469  0.17112807  1
  Fe  Fe5  1  1.00417372  0.33894941  0.33705993  1
  Ni  Ni6  1  0.00656006  0.66976407  0.00520327  1
  Fe  Fe7  1  0.17226452  0.83648753  0.16989311  1
  Fe  Fe8  1  1.00403260  0.66900064  0.33799083  1
  Fe  Fe9  1  0.33782443  1.00380306  1.00404300  1
  Ni  Ni10  1  0.50507782  0.17106938  0.17078057  1
  Fe  Fe11  1  0.33952839  0.00468852  0.33757933  1
  Fe  Fe12  1  0.33810737  0.33852249  0.00479340  1
  Ni  Ni13  1  0.50428223  0.50409254  0.17064429  1
  Fe  Fe14  1  0.33804410  0.33735690  0.33737448  1
  Ni  Ni15  1  0.33713408  0.67110953  1.00327570  1
  Fe  Fe16  1  0.50395370  0.83798415  0.17025857  1
  Ni  Ni17  1  0.33702951  0.66995605  0.33809244  1
  Ni  Ni18  1  0.67006802  0.00620943  0.00513829  1
  Ni  Ni19  1  0.83653774  0.17057232  0.16960370  1
  Ni  Ni20  1  0.66987111  0.00616022  0.33817598  1
  Ni  Ni21  1  0.67141115  0.33636482  1.00391234  1
  Fe  Fe22  1  0.83753344  0.50254321  0.17061091  1
  Ni  Ni23  1  0.67048175  0.33641277  0.33745465  1
  Ni  Ni24  1  0.66884100  0.66995624  0.00558126  1
  Fe  Fe25  1  0.83631191  0.83733721  0.16952105  1
  Fe  Fe26  1  0.67041341  0.67048525  0.33791836  1
  Ni  Ni27  1  0.17110655  0.17064688  0.50480148  1
  Ni  Ni28  1  0.00530244  0.00525698  0.67035502  1
  Fe  Fe29  1  0.17114160  0.17017866  0.83730965  1
  Ni  Ni30  1  0.17061730  0.50446668  0.50445361  1
  Fe  Fe31  1  0.00435161  0.33839064  0.67061205  1
  Fe  Fe32  1  0.17131042  0.50585073  0.83785213  1
  Ni  Ni33  1  0.17086385  0.83742007  0.50547668  1
  Ni  Ni34  1  0.00626048  0.67092779  0.66923730  1
  Ni  Ni35  1  0.17183043  0.83785938  0.83776487  1
  Fe  Fe36  1  0.50379057  0.17168618  0.50322109  1
  Fe  Fe37  1  0.33645988  1.00255533  0.67091210  1
  Fe  Fe38  1  0.50439843  0.17006798  0.83830333  1
  Ni  Ni39  1  0.50506508  0.50445550  0.50412832  1
  Fe  Fe40  1  0.33706694  0.33859086  0.67036544  1
  Ni  Ni41  1  0.50462797  0.50458477  0.83775944  1
  Fe  Fe42  1  0.50333717  0.83632797  0.50456041  1
  Ni  Ni43  1  0.33734420  0.67073899  0.67116861  1
  Ni  Ni44  1  0.50292157  0.83644173  0.83758796  1
  Fe  Fe45  1  0.83738209  0.17226334  0.50434041  1
  Fe  Fe46  1  0.67036098  1.00344581  0.67029871  1
  Fe  Fe47  1  0.83699325  0.17189564  0.83837061  1
  Ni  Ni48  1  0.83684841  0.50469887  0.50410460  1
  Fe  Fe49  1  0.67111559  0.33905744  0.67060184  1
  Fe  Fe50  1  0.83709945  0.50385560  0.83740515  1
  Fe  Fe51  1  0.83765559  0.83593626  0.50556786  1
  Ni  Ni52  1  0.66892703  0.66956935  0.66958657  1
  Cr  Cr53  1  0.83786125  0.83705560  0.83757840  1
" 