2047,Ni49Fe49Cr1_16,-239.305524326255, 220.178485507589,Ni49Fe49Cr1,"# generated using pymatgen
 data_Cr(FeNi)13
_symmetry_space_group_name_H-M   'P 1'
_cell_length_a   7.40360349
_cell_length_b   7.40360349
_cell_length_c   10.47027647
_cell_angle_alpha   90.00000000
_cell_angle_beta   90.00000000
_cell_angle_gamma   90.00000000
_symmetry_Int_Tables_number   1
_chemical_formula_structural   Cr(FeNi)13
_chemical_formula_sum   'Cr2 Fe26 Ni26'
_cell_volume   573.91087249
_cell_formula_units_Z   2
loop_
 _symmetry_equiv_pos_site_id
 _symmetry_equiv_pos_as_xyz
  1  'x, y, z'
loop_
 _atom_site_type_symbol
 _atom_site_label
 _atom_site_symmetry_multiplicity
 _atom_site_fract_x
 _atom_site_fract_y
 _atom_site_fract_z
 _atom_site_occupancy
  Ni  Ni0  1  0.00464993  1.00361541  0.00515506  1
  Ni  Ni1  1  0.17098581  0.17079581  0.17044189  1
  Ni  Ni2  1  0.00532472  1.00402442  0.33749006  1
  Ni  Ni3  1  0.00562995  0.33859907  0.00503438  1
  Ni  Ni4  1  0.17052132  0.50520695  0.17070346  1
  Fe  Fe5  1  1.00423181  0.33686245  0.33739442  1
  Ni  Ni6  1  0.00503720  0.67064008  1.00395869  1
  Ni  Ni7  1  0.17052276  0.83684987  0.17109338  1
  Ni  Ni8  1  0.00648466  0.67107643  0.33756690  1
  Fe  Fe9  1  0.33662388  1.00412708  0.00520693  1
  Ni  Ni10  1  0.50499403  0.17050453  0.17107459  1
  Ni  Ni11  1  0.33712477  0.00501122  0.33769129  1
  Fe  Fe12  1  0.33660695  0.33736464  0.00433186  1
  Fe  Fe13  1  0.50231931  0.50313554  0.17050960  1
  Fe  Fe14  1  0.33756515  0.33683926  0.33820670  1
  Ni  Ni15  1  0.33693475  0.67034414  0.00454932  1
  Fe  Fe16  1  0.50225874  0.83906658  0.17051295  1
  Fe  Fe17  1  0.33603970  0.67160222  0.33733221  1
  Ni  Ni18  1  0.67051032  1.00369062  0.00547498  1
  Fe  Fe19  1  0.83828003  0.17064883  0.17114731  1
  Ni  Ni20  1  0.67040659  0.00655475  0.33828238  1
  Fe  Fe21  1  0.67100139  0.33847109  0.00509596  1
  Fe  Fe22  1  0.83947486  0.50306864  0.16973301  1
  Ni  Ni23  1  0.67010895  0.33590162  0.33819138  1
  Fe  Fe24  1  0.67215276  0.67131606  1.00341799  1
  Fe  Fe25  1  0.83953681  0.83913554  0.16973648  1
  Cr  Cr26  1  0.67089759  0.67061053  0.33765512  1
  Ni  Ni27  1  0.17036646  0.17147252  0.50420208  1
  Fe  Fe28  1  1.00411598  1.00421488  0.67017616  1
  Fe  Fe29  1  0.17133370  0.17113214  0.83773673  1
  Ni  Ni30  1  0.17127304  0.50452615  0.50401471  1
  Fe  Fe31  1  0.00431696  0.33833549  0.67039777  1
  Fe  Fe32  1  0.17000982  0.50457673  0.83804274  1
  Fe  Fe33  1  0.17154202  0.83811671  0.50324387  1
  Fe  Fe34  1  1.00322025  0.67030330  0.67125397  1
  Fe  Fe35  1  0.16976332  0.83714379  0.83869483  1
  Ni  Ni36  1  0.50548211  0.17049798  0.50461410  1
  Fe  Fe37  1  0.33896977  0.00492533  0.67009090  1
  Fe  Fe38  1  0.50408429  0.17094852  0.83731785  1
  Ni  Ni39  1  0.50322841  0.50415071  0.50498114  1
  Ni  Ni40  1  0.33775556  0.33753864  0.67108700  1
  Fe  Fe41  1  0.50522393  0.50457502  0.83679024  1
  Ni  Ni42  1  0.50421173  0.83820635  0.50488921  1
  Fe  Fe43  1  0.33912295  0.67034322  0.67084773  1
  Fe  Fe44  1  0.50565308  0.83732931  0.83721598  1
  Ni  Ni45  1  0.83700285  0.17048912  0.50381928  1
  Ni  Ni46  1  0.67026379  1.00342675  0.66909713  1
  Cr  Cr47  1  0.83724619  0.17082591  0.83800724  1
  Fe  Fe48  1  0.83757238  0.50276554  0.50544042  1
  Ni  Ni49  1  0.66927428  0.33852486  0.67006478  1
  Ni  Ni50  1  0.83762130  0.50630176  0.83754912  1
  Fe  Fe51  1  0.83786223  0.83890977  0.50531798  1
  Ni  Ni52  1  0.67130982  0.67090263  0.67156839  1
  Ni  Ni53  1  0.83732165  0.83582613  0.83792298  1
" 