8030,Ni49Fe49Cr1_6,-239.903039308009, 221.967994569166,Ni49Fe49Cr1,"# generated using pymatgen
 data_Cr(FeNi)13
_symmetry_space_group_name_H-M   'P 1'
_cell_length_a   7.40758975
_cell_length_b   7.40758975
_cell_length_c   10.47591389
_cell_angle_alpha   90.00000000
_cell_angle_beta   90.00000000
_cell_angle_gamma   90.00000000
_symmetry_Int_Tables_number   1
_chemical_formula_structural   Cr(FeNi)13
_chemical_formula_sum   'Cr2 Fe26 Ni26'
_cell_volume   574.83838992
_cell_formula_units_Z   2
loop_
 _symmetry_equiv_pos_site_id
 _symmetry_equiv_pos_as_xyz
  1  'x, y, z'
loop_
 _atom_site_type_symbol
 _atom_site_label
 _atom_site_symmetry_multiplicity
 _atom_site_fract_x
 _atom_site_fract_y
 _atom_site_fract_z
 _atom_site_occupancy
  Fe  Fe0  1  0.00562712  0.00402197  0.00465988  1
  Ni  Ni1  1  0.17032871  0.17043221  0.17056543  1
  Fe  Fe2  1  0.00533814  1.00374710  0.33760929  1
  Ni  Ni3  1  1.00266313  0.33740574  0.00410839  1
  Ni  Ni4  1  0.17163553  0.50458185  0.17097576  1
  Fe  Fe5  1  0.00536473  0.33698880  0.33705610  1
  Ni  Ni6  1  0.00406194  0.66942486  0.00493060  1
  Ni  Ni7  1  0.17039408  0.83702345  0.16984407  1
  Ni  Ni8  1  0.00484355  0.66982769  0.33738332  1
  Ni  Ni9  1  0.33740413  1.00337858  1.00313823  1
  Fe  Fe10  1  0.50236458  0.17061518  0.17156970  1
  Ni  Ni11  1  0.33820037  0.00450573  0.33837125  1
  Fe  Fe12  1  0.33748992  0.33766173  0.00589662  1
  Ni  Ni13  1  0.50367102  0.50428551  0.16989359  1
  Ni  Ni14  1  0.33689818  0.33713202  0.33758994  1
  Ni  Ni15  1  0.33759861  0.67257446  0.00453189  1
  Fe  Fe16  1  0.50258079  0.83708507  0.17004181  1
  Ni  Ni17  1  0.33585930  0.67040387  0.33738291  1
  Fe  Fe18  1  0.67003762  1.00393184  0.00429729  1
  Fe  Fe19  1  0.83809848  0.17107728  0.17059235  1
  Ni  Ni20  1  0.67003283  0.00481244  0.33770790  1
  Fe  Fe21  1  0.67098614  0.33851108  1.00321039  1
  Fe  Fe22  1  0.83868928  0.50449545  0.16955560  1
  Fe  Fe23  1  0.66939815  0.33738494  0.33823386  1
  Ni  Ni24  1  0.67038264  0.66966461  1.00394134  1
  Fe  Fe25  1  0.83803941  0.83646439  0.17069361  1
  Fe  Fe26  1  0.66942367  0.67068028  0.33679321  1
  Ni  Ni27  1  0.17032869  0.17043732  0.50411422  1
  Fe  Fe28  1  0.00408651  0.00543907  0.66977426  1
  Fe  Fe29  1  0.17010037  0.16864217  0.83786832  1
  Ni  Ni30  1  0.17164660  0.50471434  0.50294407  1
  Fe  Fe31  1  1.00204814  0.33585996  0.67038829  1
  Cr  Cr32  1  0.17069219  0.50513674  0.83853827  1
  Ni  Ni33  1  0.17037795  0.83688605  0.50407645  1
  Fe  Fe34  1  1.00355454  0.67074129  0.66914456  1
  Ni  Ni35  1  0.17276611  0.83837335  0.83811699  1
  Ni  Ni36  1  0.50529935  0.17122564  0.50348542  1
  Fe  Fe37  1  0.33788016  0.00415685  0.67078373  1
  Fe  Fe38  1  0.50466148  0.16990339  0.83659817  1
  Ni  Ni39  1  0.50371792  0.50366651  0.50442045  1
  Fe  Fe40  1  0.33902849  0.33624961  0.66853505  1
  Fe  Fe41  1  0.50637198  0.50484903  0.83747967  1
  Fe  Fe42  1  0.50334154  0.83829774  0.50419629  1
  Fe  Fe43  1  0.33880295  0.67163915  0.66983429  1
  Ni  Ni44  1  0.50261729  0.83749378  0.83765711  1
  Ni  Ni45  1  0.83641292  0.16995476  0.50385012  1
  Ni  Ni46  1  0.66979548  0.00585065  0.67035215  1
  Ni  Ni47  1  0.83636539  0.17224749  0.83781729  1
  Fe  Fe48  1  0.83793152  0.50327627  0.50468474  1
  Ni  Ni49  1  0.67148869  0.33652685  0.67120524  1
  Ni  Ni50  1  0.83548919  0.50170143  0.83765204  1
  Fe  Fe51  1  0.83754069  0.83793973  0.50386657  1
  Fe  Fe52  1  0.66968064  0.66959501  0.67078597  1
  Cr  Cr53  1  0.83727972  0.83779626  0.83797447  1
" 