2645,Ni4Fe33Cr62_16,-213.356558104021, 186.49909323689,Ni4Fe33Cr62,"# generated using pymatgen
 data_Cr17Fe9Ni
_symmetry_space_group_name_H-M   'P 1'
_cell_length_a   7.54564762
_cell_length_b   7.54564762
_cell_length_c   10.67115720
_cell_angle_alpha   90.00000000
_cell_angle_beta   90.00000000
_cell_angle_gamma   90.00000000
_symmetry_Int_Tables_number   1
_chemical_formula_structural   Cr17Fe9Ni
_chemical_formula_sum   'Cr34 Fe18 Ni2'
_cell_volume   607.58152182
_cell_formula_units_Z   2
loop_
 _symmetry_equiv_pos_site_id
 _symmetry_equiv_pos_as_xyz
  1  'x, y, z'
loop_
 _atom_site_type_symbol
 _atom_site_label
 _atom_site_symmetry_multiplicity
 _atom_site_fract_x
 _atom_site_fract_y
 _atom_site_fract_z
 _atom_site_occupancy
  Cr  Cr0  1  0.99318861  -0.00362834  0.99425286  1
  Cr  Cr1  1  0.16262123  0.16225206  0.16106735  1
  Cr  Cr2  1  -0.00402065  0.99441152  0.32868487  1
  Cr  Cr3  1  0.99417666  0.32665835  0.99292897  1
  Cr  Cr4  1  0.16260132  0.49678686  0.16062445  1
  Cr  Cr5  1  0.99391569  0.32789907  0.32890715  1
  Cr  Cr6  1  0.99317352  0.66129878  -0.00213734  1
  Cr  Cr7  1  0.16248375  0.82548604  0.16260199  1
  Fe  Fe8  1  -0.00262452  0.66311336  0.32850600  1
  Cr  Cr9  1  0.32961360  -0.00437242  0.99474271  1
  Cr  Cr10  1  0.49838070  0.16077408  0.16136510  1
  Cr  Cr11  1  0.32694034  0.99261290  0.33158296  1
  Fe  Fe12  1  0.33040727  0.32855080  0.99328752  1
  Cr  Cr13  1  0.49297641  0.49323009  0.16077423  1
  Cr  Cr14  1  0.32818212  0.32880695  0.32958813  1
  Fe  Fe15  1  0.32926671  0.66065804  0.99453067  1
  Fe  Fe16  1  0.49402640  0.82628994  0.16134014  1
  Ni  Ni17  1  0.32818346  0.66211074  0.32694295  1
  Fe  Fe18  1  0.66239326  -0.00352618  -0.00471716  1
  Fe  Fe19  1  0.82739408  0.16137249  0.16075390  1
  Cr  Cr20  1  0.66153438  0.99390617  0.32412689  1
  Fe  Fe21  1  0.66081862  0.32603519  0.99306663  1
  Cr  Cr22  1  0.82871014  0.49308938  0.16532586  1
  Fe  Fe23  1  0.66071216  0.32823111  0.32785939  1
  Cr  Cr24  1  0.65921571  0.66065019  0.99338269  1
  Fe  Fe25  1  0.82665630  0.82914492  0.16120094  1
  Cr  Cr26  1  0.66031581  0.66033061  0.32924345  1
  Fe  Fe27  1  0.16091168  0.16250922  0.49568967  1
  Cr  Cr28  1  -0.00232726  -0.00157858  0.66153539  1
  Fe  Fe29  1  0.16257232  0.16264152  0.82765199  1
  Cr  Cr30  1  0.16190867  0.49642031  0.49375284  1
  Fe  Fe31  1  -0.00180322  0.32701716  0.66192798  1
  Cr  Cr32  1  0.16421631  0.49347733  0.83028626  1
  Fe  Fe33  1  0.16302167  0.82516556  0.49447544  1
  Cr  Cr34  1  -0.00517701  0.66075265  0.66001388  1
  Cr  Cr35  1  0.16261569  0.82673748  0.82797646  1
  Cr  Cr36  1  0.49480760  0.16193485  0.49293733  1
  Cr  Cr37  1  0.32586247  -0.00363195  0.65806836  1
  Fe  Fe38  1  0.49450343  0.16411729  0.82922787  1
  Cr  Cr39  1  0.49352164  0.49520342  0.49634634  1
  Fe  Fe40  1  0.32656927  0.32906174  0.66245655  1
  Fe  Fe41  1  0.49294775  0.49463978  0.82751033  1
  Cr  Cr42  1  0.49288211  0.82728572  0.49600640  1
  Ni  Ni43  1  0.32948806  0.65863437  0.66251772  1
  Cr  Cr44  1  0.49425763  0.82864766  0.82749426  1
  Cr  Cr45  1  0.82725880  0.16246286  0.49379638  1
  Cr  Cr46  1  0.66074046  -0.00484497  0.66368230  1
  Fe  Fe47  1  0.82724359  0.16213253  0.82823860  1
  Cr  Cr48  1  0.82887054  0.49452784  0.49477213  1
  Cr  Cr49  1  0.66037971  0.33082535  0.66214959  1
  Cr  Cr50  1  0.82820036  0.49373282  0.82442079  1
  Cr  Cr51  1  0.82899435  0.82756353  0.49671122  1
  Fe  Fe52  1  0.65793318  0.66129748  0.66208981  1
  Cr  Cr53  1  0.82710885  0.82984612  0.82718253  1
" 