2549,Ni4Fe33Cr62_12,-213.600796945418, 190.905460402777,Ni4Fe33Cr62,"# generated using pymatgen
 data_Cr17Fe9Ni
_symmetry_space_group_name_H-M   'P 1'
_cell_length_a   7.55984946
_cell_length_b   7.55984946
_cell_length_c   10.69124164
_cell_angle_alpha   90.00000000
_cell_angle_beta   90.00000000
_cell_angle_gamma   90.00000000
_symmetry_Int_Tables_number   1
_chemical_formula_structural   Cr17Fe9Ni
_chemical_formula_sum   'Cr34 Fe18 Ni2'
_cell_volume   611.01861315
_cell_formula_units_Z   2
loop_
 _symmetry_equiv_pos_site_id
 _symmetry_equiv_pos_as_xyz
  1  'x, y, z'
loop_
 _atom_site_type_symbol
 _atom_site_label
 _atom_site_symmetry_multiplicity
 _atom_site_fract_x
 _atom_site_fract_y
 _atom_site_fract_z
 _atom_site_occupancy
  Cr  Cr0  1  0.99233394  0.99320264  -0.00483244  1
  Fe  Fe1  1  0.16124782  0.16132711  0.16032459  1
  Cr  Cr2  1  0.99333443  -0.00470702  0.32491181  1
  Cr  Cr3  1  0.99266627  0.32602864  -0.00369541  1
  Cr  Cr4  1  0.15862957  0.49430685  0.15843182  1
  Cr  Cr5  1  0.99269275  0.32620416  0.32671733  1
  Fe  Fe6  1  0.98955248  0.66063819  -0.00467804  1
  Cr  Cr7  1  0.16122118  0.82574016  0.15944109  1
  Cr  Cr8  1  -0.00574115  0.66001659  0.32615511  1
  Cr  Cr9  1  0.32640332  -0.00584741  -0.00467827  1
  Fe  Fe10  1  0.49446217  0.16294615  0.16057171  1
  Cr  Cr11  1  0.32581911  0.99321736  0.32889460  1
  Fe  Fe12  1  0.32883305  0.32791414  -0.00464290  1
  Fe  Fe13  1  0.49572348  0.49508316  0.16065546  1
  Cr  Cr14  1  0.32739609  0.32909525  0.32592161  1
  Cr  Cr15  1  0.33019794  0.65875499  0.99243550  1
  Cr  Cr16  1  0.49478979  0.82792592  0.16290256  1
  Cr  Cr17  1  0.32998279  0.65961544  0.33181392  1
  Cr  Cr18  1  0.66304993  0.99232930  0.99356957  1
  Fe  Fe19  1  0.82573898  0.16233883  0.16079977  1
  Cr  Cr20  1  0.66219800  0.99342936  0.32531272  1
  Cr  Cr21  1  0.66018225  0.32962691  -0.00576870  1
  Ni  Ni22  1  0.82407843  0.49382728  0.16155457  1
  Fe  Fe23  1  0.66004818  0.32890694  0.32516016  1
  Ni  Ni24  1  0.66196925  0.65918849  -0.00399744  1
  Fe  Fe25  1  0.82678665  0.82296395  0.15985099  1
  Fe  Fe26  1  0.66140484  0.65774610  0.32537981  1
  Fe  Fe27  1  0.16026570  0.16095621  0.49343390  1
  Cr  Cr28  1  -0.00567383  0.99253587  0.66091356  1
  Cr  Cr29  1  0.16228813  0.16172990  0.82838888  1
  Fe  Fe30  1  0.16035555  0.49374016  0.49351861  1
  Cr  Cr31  1  -0.00502786  0.32752752  0.65771945  1
  Cr  Cr32  1  0.15861319  0.49597147  0.82871201  1
  Fe  Fe33  1  0.15869700  0.82672056  0.49336325  1
  Fe  Fe34  1  -0.00518438  0.66155067  0.65990116  1
  Fe  Fe35  1  0.15872823  0.82632837  0.82770315  1
  Cr  Cr36  1  0.49382329  0.15924438  0.49451318  1
  Cr  Cr37  1  0.32558566  0.99129167  0.65825266  1
  Cr  Cr38  1  0.49268318  0.16056771  0.82785151  1
  Fe  Fe39  1  0.49610994  0.49317603  0.49292429  1
  Cr  Cr40  1  0.32739297  0.33045847  0.66114378  1
  Fe  Fe41  1  0.49448788  0.49466964  0.82865126  1
  Fe  Fe42  1  0.49587267  0.82624886  0.49318669  1
  Cr  Cr43  1  0.32673872  0.65997013  0.65722645  1
  Cr  Cr44  1  0.49393028  0.82757504  0.82726751  1
  Cr  Cr45  1  0.82523827  0.16145190  0.49454401  1
  Cr  Cr46  1  0.66155989  0.99207435  0.66267662  1
  Cr  Cr47  1  0.82674492  0.16163297  0.82404049  1
  Cr  Cr48  1  0.82806891  0.49451762  0.49288158  1
  Cr  Cr49  1  0.65969052  0.32962625  0.66140173  1
  Cr  Cr50  1  0.82918700  0.49695203  0.82665777  1
  Cr  Cr51  1  0.82624462  0.82546120  0.49335997  1
  Cr  Cr52  1  0.65842570  0.65990516  0.66123907  1
  Fe  Fe53  1  0.82871055  0.82485461  0.82857415  1
" 