5650,Ni4Fe33Cr62_1,-213.465813006059, 188.696155207047,Ni4Fe33Cr62,"# generated using pymatgen
 data_Cr17Fe9Ni
_symmetry_space_group_name_H-M   'P 1'
_cell_length_a   7.55025467
_cell_length_b   7.55025467
_cell_length_c   10.67767255
_cell_angle_alpha   90.00000000
_cell_angle_beta   90.00000000
_cell_angle_gamma   90.00000000
_symmetry_Int_Tables_number   1
_chemical_formula_structural   Cr17Fe9Ni
_chemical_formula_sum   'Cr34 Fe18 Ni2'
_cell_volume   608.69509162
_cell_formula_units_Z   2
loop_
 _symmetry_equiv_pos_site_id
 _symmetry_equiv_pos_as_xyz
  1  'x, y, z'
loop_
 _atom_site_type_symbol
 _atom_site_label
 _atom_site_symmetry_multiplicity
 _atom_site_fract_x
 _atom_site_fract_y
 _atom_site_fract_z
 _atom_site_occupancy
  Cr  Cr0  1  -0.00236109  0.99411046  0.99036525  1
  Cr  Cr1  1  0.16167064  0.15979799  0.16287307  1
  Cr  Cr2  1  -0.00538444  0.99342178  0.33134449  1
  Cr  Cr3  1  -0.00498023  0.32791090  -0.00297145  1
  Cr  Cr4  1  0.16315163  0.49680009  0.16111753  1
  Cr  Cr5  1  0.99251551  0.32895282  0.32711042  1
  Fe  Fe6  1  -0.00325588  0.66284266  0.99309217  1
  Cr  Cr7  1  0.16259658  0.82669383  0.16179530  1
  Cr  Cr8  1  0.99332640  0.66116217  0.33112161  1
  Cr  Cr9  1  0.32844264  0.99415613  0.99381709  1
  Fe  Fe10  1  0.49415979  0.15884608  0.16258548  1
  Fe  Fe11  1  0.33075673  0.99175146  0.32831811  1
  Cr  Cr12  1  0.32857714  0.32423038  0.99207440  1
  Cr  Cr13  1  0.49258502  0.49733223  0.15962319  1
  Cr  Cr14  1  0.32876842  0.32586042  0.32589856  1
  Fe  Fe15  1  0.32742673  0.66308859  0.99334044  1
  Fe  Fe16  1  0.49349552  0.82829700  0.16216472  1
  Fe  Fe17  1  0.32890638  0.66407605  0.32899817  1
  Cr  Cr18  1  0.65725512  0.99437887  -0.00294034  1
  Cr  Cr19  1  0.82666878  0.15795431  0.16363890  1
  Fe  Fe20  1  0.65969318  0.99355888  0.32927799  1
  Cr  Cr21  1  0.65969434  0.32718313  -0.00515803  1
  Cr  Cr22  1  0.82770562  0.49678018  0.15791585  1
  Cr  Cr23  1  0.66221832  0.32775581  0.32774824  1
  Fe  Fe24  1  0.65934523  0.66178245  -0.00549451  1
  Cr  Cr25  1  0.82672956  0.82877416  0.15738354  1
  Cr  Cr26  1  0.66024466  0.66348417  0.32978447  1
  Cr  Cr27  1  0.16048742  0.15953753  0.49524099  1
  Fe  Fe28  1  0.99346477  0.99245947  0.66089261  1
  Fe  Fe29  1  0.16142415  0.15978328  0.82625643  1
  Cr  Cr30  1  0.16396919  0.49486993  0.49200487  1
  Cr  Cr31  1  0.99419812  0.32780826  0.65958961  1
  Cr  Cr32  1  0.16326793  0.49587509  0.82931774  1
  Fe  Fe33  1  0.16291772  0.82914613  0.49486864  1
  Cr  Cr34  1  0.99426248  0.66285455  0.65925867  1
  Ni  Ni35  1  0.16118094  0.82908311  0.82743057  1
  Cr  Cr36  1  0.49639732  0.16007930  0.49577223  1
  Cr  Cr37  1  0.32724348  0.99447735  0.66477625  1
  Fe  Fe38  1  0.49499635  0.15992217  0.82519999  1
  Cr  Cr39  1  0.49347866  0.49434084  0.49742256  1
  Fe  Fe40  1  0.32886279  0.32604513  0.66217622  1
  Cr  Cr41  1  0.49394301  0.49282428  0.82527024  1
  Fe  Fe42  1  0.49431366  0.83044977  0.49447887  1
  Cr  Cr43  1  0.32692604  0.66392038  0.65967095  1
  Cr  Cr44  1  0.49594139  0.82694556  0.82878127  1
  Fe  Fe45  1  0.82630611  0.15957839  0.49630049  1
  Ni  Ni46  1  0.66124264  -0.00414314  0.65813039  1
  Cr  Cr47  1  0.82623619  0.15840497  0.82431092  1
  Fe  Fe48  1  0.82697057  0.49302413  0.49508713  1
  Fe  Fe49  1  0.66083376  0.32544597  0.66082456  1
  Cr  Cr50  1  0.82625256  0.49550602  0.83038833  1
  Fe  Fe51  1  0.82619342  0.83128945  0.49583805  1
  Cr  Cr52  1  0.66256394  0.66237494  0.65913252  1
  Cr  Cr53  1  0.82862146  0.82956252  0.82920258  1
" 