1365,Ni4Fe33Cr62_15,-213.682717233214, 189.257822094722,Ni4Fe33Cr62,"# generated using pymatgen
 data_Cr17Fe9Ni
_symmetry_space_group_name_H-M   'P 1'
_cell_length_a   7.54735170
_cell_length_b   7.54735170
_cell_length_c   10.67356714
_cell_angle_alpha   90.00000000
_cell_angle_beta   90.00000000
_cell_angle_gamma   90.00000000
_symmetry_Int_Tables_number   1
_chemical_formula_structural   Cr17Fe9Ni
_chemical_formula_sum   'Cr34 Fe18 Ni2'
_cell_volume   607.99325761
_cell_formula_units_Z   2
loop_
 _symmetry_equiv_pos_site_id
 _symmetry_equiv_pos_as_xyz
  1  'x, y, z'
loop_
 _atom_site_type_symbol
 _atom_site_label
 _atom_site_symmetry_multiplicity
 _atom_site_fract_x
 _atom_site_fract_y
 _atom_site_fract_z
 _atom_site_occupancy
  Cr  Cr0  1  0.99141264  0.99427312  0.99152995  1
  Cr  Cr1  1  0.15962167  0.16011627  0.16033698  1
  Cr  Cr2  1  0.99173171  0.99310079  0.32848433  1
  Cr  Cr3  1  0.99163277  0.32678801  -0.00357766  1
  Cr  Cr4  1  0.15836456  0.49351203  0.16164798  1
  Fe  Fe5  1  0.99466944  0.32889862  0.32875912  1
  Cr  Cr6  1  0.99293097  0.66288857  0.99190447  1
  Cr  Cr7  1  0.16281168  0.83053203  0.15898416  1
  Cr  Cr8  1  0.99383257  0.66154046  0.33306380  1
  Ni  Ni9  1  0.32971957  0.99401417  -0.00426548  1
  Cr  Cr10  1  0.49495628  0.15743120  0.16284041  1
  Cr  Cr11  1  0.32944294  0.99366602  0.32992376  1
  Cr  Cr12  1  0.33051845  0.32928429  -0.00477984  1
  Fe  Fe13  1  0.49537664  0.49519221  0.16268924  1
  Cr  Cr14  1  0.32875472  0.33014831  0.32967745  1
  Cr  Cr15  1  0.32988245  0.66102872  -0.00219814  1
  Fe  Fe16  1  0.49636644  0.82830770  0.16208640  1
  Cr  Cr17  1  0.32874760  0.66026268  0.32624807  1
  Cr  Cr18  1  0.66337029  -0.00529972  0.99449790  1
  Fe  Fe19  1  0.82773883  0.15990659  0.16307932  1
  Fe  Fe20  1  0.66189043  0.99198658  0.32731777  1
  Cr  Cr21  1  0.66159719  0.32748171  0.99242777  1
  Cr  Cr22  1  0.82680784  0.49488572  0.16470499  1
  Cr  Cr23  1  0.66096086  0.32818266  0.32842960  1
  Cr  Cr24  1  0.66090523  0.66162365  -0.00131632  1
  Fe  Fe25  1  0.82661465  0.82928925  0.16311794  1
  Fe  Fe26  1  0.66149480  0.66346137  0.32834950  1
  Cr  Cr27  1  0.16155667  0.16184557  0.49243674  1
  Cr  Cr28  1  0.99315573  0.99183466  0.66309337  1
  Cr  Cr29  1  0.16226647  0.16013385  0.83209438  1
  Fe  Fe30  1  0.16084632  0.49618245  0.49632749  1
  Cr  Cr31  1  0.99454588  0.32873865  0.66009292  1
  Cr  Cr32  1  0.16065452  0.49576017  0.82657160  1
  Fe  Fe33  1  0.16048842  0.82557070  0.49617244  1
  Fe  Fe34  1  0.99268968  0.66246879  0.65885726  1
  Cr  Cr35  1  0.16251547  0.82824834  0.82775516  1
  Fe  Fe36  1  0.49598189  0.16231518  0.49545746  1
  Cr  Cr37  1  0.32759503  -0.00476250  0.65832393  1
  Cr  Cr38  1  0.49451728  0.16093377  0.82377091  1
  Cr  Cr39  1  0.49783892  0.49578740  0.49839507  1
  Fe  Fe40  1  0.32914247  0.32956147  0.65992750  1
  Cr  Cr41  1  0.49715783  0.49643449  0.82561479  1
  Cr  Cr42  1  0.49711698  0.82806128  0.49319662  1
  Fe  Fe43  1  0.32819438  0.66115768  0.65991936  1
  Cr  Cr44  1  0.49493916  0.82725250  0.82946569  1
  Cr  Cr45  1  0.82659651  0.16296621  0.49181232  1
  Cr  Cr46  1  0.66326277  -0.00515009  0.66105082  1
  Fe  Fe47  1  0.82749817  0.16151610  0.82664996  1
  Fe  Fe48  1  0.82759498  0.49714059  0.49617711  1
  Fe  Fe49  1  0.66157999  0.32876903  0.65999122  1
  Cr  Cr50  1  0.82623028  0.49612216  0.82454587  1
  Fe  Fe51  1  0.82666839  0.82519975  0.49598117  1
  Ni  Ni52  1  0.66402630  0.66012204  0.65912063  1
  Fe  Fe53  1  0.82590532  0.82600579  0.82595375  1
" 