6246,Ni4Fe84Cr11_12,-223.566399124182, 142.458152847118,Ni4Fe84Cr11,"# generated using pymatgen
 data_Cr7Fe45Ni2
_symmetry_space_group_name_H-M   'P 1'
_cell_length_a   7.45367319
_cell_length_b   7.45367319
_cell_length_c   10.54108572
_cell_angle_alpha   90.00000000
_cell_angle_beta   90.00000000
_cell_angle_gamma   90.00000000
_symmetry_Int_Tables_number   1
_chemical_formula_structural   Cr7Fe45Ni2
_chemical_formula_sum   'Cr7 Fe45 Ni2'
_cell_volume   585.63367213
_cell_formula_units_Z   1
loop_
 _symmetry_equiv_pos_site_id
 _symmetry_equiv_pos_as_xyz
  1  'x, y, z'
loop_
 _atom_site_type_symbol
 _atom_site_label
 _atom_site_symmetry_multiplicity
 _atom_site_fract_x
 _atom_site_fract_y
 _atom_site_fract_z
 _atom_site_occupancy
  Fe  Fe0  1  1.00066993  1.00043610  1.00037391  1
  Fe  Fe1  1  0.16684344  0.16834985  0.16689136  1
  Cr  Cr2  1  0.00154434  0.00178459  0.33461984  1
  Fe  Fe3  1  0.00304388  0.33347498  0.00155269  1
  Fe  Fe4  1  0.16773115  0.50062718  0.16761779  1
  Fe  Fe5  1  1.00066138  0.33583559  0.33440028  1
  Fe  Fe6  1  0.00138605  0.66878539  0.00091854  1
  Fe  Fe7  1  0.16855931  0.83371845  0.16633757  1
  Fe  Fe8  1  0.00229966  0.66614161  0.33425167  1
  Fe  Fe9  1  0.33265076  1.00081385  1.00062379  1
  Cr  Cr10  1  0.50025723  0.16576753  0.16960368  1
  Fe  Fe11  1  0.33513824  0.99996043  0.33494898  1
  Fe  Fe12  1  0.33214716  0.33495891  1.00017933  1
  Fe  Fe13  1  0.49948904  0.50234159  0.16752264  1
  Fe  Fe14  1  0.33351569  0.33494614  0.33494486  1
  Fe  Fe15  1  0.33342762  0.66691900  0.00133015  1
  Fe  Fe16  1  0.50020878  0.83353223  0.16675155  1
  Fe  Fe17  1  0.33262370  0.66778114  0.33420905  1
  Fe  Fe18  1  0.66937046  0.99915788  1.00063344  1
  Fe  Fe19  1  0.83564055  0.16763379  0.16762689  1
  Fe  Fe20  1  0.66687754  0.00160425  0.33492741  1
  Cr  Cr21  1  0.66741831  0.33512214  0.99974796  1
  Fe  Fe22  1  0.83546898  0.50063734  0.16743737  1
  Fe  Fe23  1  0.66851517  0.33332044  0.33475568  1
  Fe  Fe24  1  0.66788156  0.66929925  0.00226460  1
  Fe  Fe25  1  0.83392174  0.83442630  0.16557211  1
  Cr  Cr26  1  0.66640683  0.66718536  0.33281843  1
  Fe  Fe27  1  0.16900635  0.16761604  0.50081348  1
  Fe  Fe28  1  1.00087933  0.99875820  0.66808195  1
  Fe  Fe29  1  0.16772658  0.16560087  0.83498904  1
  Fe  Fe30  1  0.16822853  0.50157289  0.50011216  1
  Cr  Cr31  1  0.00154071  0.33256159  0.66768917  1
  Fe  Fe32  1  0.16934009  0.50307431  0.83496290  1
  Fe  Fe33  1  0.16832461  0.83350334  0.50214480  1
  Fe  Fe34  1  0.00159707  0.67042914  0.66751698  1
  Ni  Ni35  1  0.16567907  0.83471770  0.83371237  1
  Fe  Fe36  1  0.50091992  0.16754118  0.50068617  1
  Fe  Fe37  1  0.33294309  0.00152234  0.66713146  1
  Fe  Fe38  1  0.50038798  0.16734193  0.83370090  1
  Fe  Fe39  1  0.50021507  0.50017245  0.50164619  1
  Fe  Fe40  1  0.33575445  0.33425243  0.66757520  1
  Fe  Fe41  1  0.49874954  0.50131854  0.83350942  1
  Fe  Fe42  1  0.50019508  0.83497712  0.50165895  1
  Fe  Fe43  1  0.33298676  0.66692023  0.66715492  1
  Cr  Cr44  1  0.50114098  0.83500219  0.83525645  1
  Fe  Fe45  1  0.83276765  0.16763616  0.50081453  1
  Fe  Fe46  1  0.66886990  0.00152524  0.66714826  1
  Fe  Fe47  1  0.83457509  0.16323999  0.83424750  1
  Fe  Fe48  1  0.83424545  0.50084910  0.50102549  1
  Fe  Fe49  1  0.66535034  0.33353711  0.66700797  1
  Cr  Cr50  1  0.83456961  0.50304568  0.83383258  1
  Fe  Fe51  1  0.83417049  0.83420571  0.50288510  1
  Fe  Fe52  1  0.66810744  0.66763550  0.66624386  1
  Ni  Ni53  1  0.83647747  0.83532887  0.83403779  1
" 