6775,Ni4Fe84Cr11_13,-223.410369556297, 142.93294479069,Ni4Fe84Cr11,"# generated using pymatgen
 data_Cr7Fe45Ni2
_symmetry_space_group_name_H-M   'P 1'
_cell_length_a   7.45137423
_cell_length_b   7.45137423
_cell_length_c   10.53783449
_cell_angle_alpha   90.00000000
_cell_angle_beta   90.00000000
_cell_angle_gamma   90.00000000
_symmetry_Int_Tables_number   1
_chemical_formula_structural   Cr7Fe45Ni2
_chemical_formula_sum   'Cr7 Fe45 Ni2'
_cell_volume   585.09195192
_cell_formula_units_Z   1
loop_
 _symmetry_equiv_pos_site_id
 _symmetry_equiv_pos_as_xyz
  1  'x, y, z'
loop_
 _atom_site_type_symbol
 _atom_site_label
 _atom_site_symmetry_multiplicity
 _atom_site_fract_x
 _atom_site_fract_y
 _atom_site_fract_z
 _atom_site_occupancy
  Fe  Fe0  1  1.00103774  0.00110531  1.00103188  1
  Cr  Cr1  1  0.16676456  0.16662027  0.16573763  1
  Fe  Fe2  1  1.00023802  1.00034466  0.33521650  1
  Fe  Fe3  1  1.00010130  0.33492749  1.00023537  1
  Fe  Fe4  1  0.16826711  0.50321637  0.16768149  1
  Fe  Fe5  1  0.00106977  0.33387583  0.33435218  1
  Fe  Fe6  1  1.00008555  0.66712272  0.00177704  1
  Fe  Fe7  1  0.16766262  0.83212409  0.16672032  1
  Fe  Fe8  1  0.00183628  0.66893272  0.33360255  1
  Fe  Fe9  1  0.33477760  1.00071264  0.00163126  1
  Fe  Fe10  1  0.50182480  0.16924350  0.16688026  1
  Cr  Cr11  1  0.33543629  1.00055755  0.33524016  1
  Fe  Fe12  1  0.33529744  0.33490393  0.99999245  1
  Fe  Fe13  1  0.50087151  0.50153320  0.16837741  1
  Fe  Fe14  1  0.33567148  0.33684882  0.33582168  1
  Fe  Fe15  1  0.33570797  0.66753529  0.00219425  1
  Ni  Ni16  1  0.50032353  0.83115016  0.16628718  1
  Fe  Fe17  1  0.33530255  0.66635138  0.33441032  1
  Cr  Cr18  1  0.66736227  1.00041377  0.00195802  1
  Fe  Fe19  1  0.83376971  0.16864340  0.16776111  1
  Cr  Cr20  1  0.66899836  1.00095810  0.33429440  1
  Fe  Fe21  1  0.66775501  0.33586125  1.00101266  1
  Fe  Fe22  1  0.83401617  0.50143339  0.16788697  1
  Fe  Fe23  1  0.66640691  0.33524491  0.33401928  1
  Fe  Fe24  1  0.66736172  0.66659401  0.00140876  1
  Fe  Fe25  1  0.83545468  0.83307916  0.16773747  1
  Fe  Fe26  1  0.66601381  0.66719025  0.33359960  1
  Fe  Fe27  1  0.16656194  0.16851692  0.50083376  1
  Fe  Fe28  1  1.00047165  0.00204181  0.66690598  1
  Fe  Fe29  1  0.16695876  0.16846240  0.83539841  1
  Fe  Fe30  1  0.16921560  0.50181837  0.50026035  1
  Fe  Fe31  1  1.00031028  0.33356094  0.66856451  1
  Fe  Fe32  1  0.16687143  0.50027060  0.83521097  1
  Fe  Fe33  1  0.16728963  0.83282278  0.50208934  1
  Fe  Fe34  1  0.00128300  0.66755269  0.66778044  1
  Cr  Cr35  1  0.16874397  0.83609270  0.83581994  1
  Fe  Fe36  1  0.50202557  0.16950931  0.50186956  1
  Fe  Fe37  1  0.33513448  1.00029144  0.66678855  1
  Fe  Fe38  1  0.50079715  0.16749089  0.83440711  1
  Ni  Ni39  1  0.50098516  0.50197698  0.49941724  1
  Cr  Cr40  1  0.33324364  0.33544303  0.66694204  1
  Fe  Fe41  1  0.50163246  0.50197883  0.83447329  1
  Fe  Fe42  1  0.50123721  0.83189660  0.50203216  1
  Fe  Fe43  1  0.33550696  0.66812555  0.66654820  1
  Fe  Fe44  1  0.50179267  0.83368477  0.83426898  1
  Fe  Fe45  1  0.83456917  0.16757147  0.50179752  1
  Fe  Fe46  1  0.66755137  0.00125447  0.66775597  1
  Fe  Fe47  1  0.83539659  0.16829841  0.83359961  1
  Cr  Cr48  1  0.83235533  0.50030004  0.50125962  1
  Fe  Fe49  1  0.66811315  0.33393480  0.66812040  1
  Fe  Fe50  1  0.83464929  0.50125545  0.83421824  1
  Fe  Fe51  1  0.83463165  0.83455219  0.50188475  1
  Fe  Fe52  1  0.66636427  0.66796506  0.66814253  1
  Fe  Fe53  1  0.83368524  0.83359971  0.83353474  1
" 