4197,Ni4Fe33Cr62_10,-213.735612076586, 189.172915941944,Ni4Fe33Cr62,"# generated using pymatgen
 data_Cr17Fe9Ni
_symmetry_space_group_name_H-M   'P 1'
_cell_length_a   7.55201186
_cell_length_b   7.55201186
_cell_length_c   10.68015759
_cell_angle_alpha   90.00000000
_cell_angle_beta   90.00000000
_cell_angle_gamma   90.00000000
_symmetry_Int_Tables_number   1
_chemical_formula_structural   Cr17Fe9Ni
_chemical_formula_sum   'Cr34 Fe18 Ni2'
_cell_volume   609.12017944
_cell_formula_units_Z   2
loop_
 _symmetry_equiv_pos_site_id
 _symmetry_equiv_pos_as_xyz
  1  'x, y, z'
loop_
 _atom_site_type_symbol
 _atom_site_label
 _atom_site_symmetry_multiplicity
 _atom_site_fract_x
 _atom_site_fract_y
 _atom_site_fract_z
 _atom_site_occupancy
  Fe  Fe0  1  0.99373713  0.99372528  0.99387353  1
  Cr  Cr1  1  0.15998756  0.16062679  0.15819571  1
  Cr  Cr2  1  -0.00474838  0.99389380  0.32699799  1
  Fe  Fe3  1  0.99423718  0.32823933  -0.00553273  1
  Cr  Cr4  1  0.16233293  0.49839961  0.16302083  1
  Cr  Cr5  1  -0.00223525  0.32699682  0.32700794  1
  Cr  Cr6  1  0.99367216  0.66379070  -0.00239620  1
  Fe  Fe7  1  0.16367205  0.82812198  0.16248942  1
  Fe  Fe8  1  -0.00479687  0.66288258  0.32735459  1
  Cr  Cr9  1  0.32598013  0.99408562  -0.00315010  1
  Cr  Cr10  1  0.49680207  0.15969631  0.16570906  1
  Fe  Fe11  1  0.32748178  -0.00549833  0.32691657  1
  Cr  Cr12  1  0.32691627  0.32673511  0.99179872  1
  Cr  Cr13  1  0.49370374  0.49500595  0.15925580  1
  Fe  Fe14  1  0.32902931  0.32623349  0.32815754  1
  Fe  Fe15  1  0.32852195  0.66153407  -0.00518895  1
  Fe  Fe16  1  0.49226508  0.82648739  0.16284300  1
  Fe  Fe17  1  0.32811597  0.66336698  0.32664741  1
  Cr  Cr18  1  0.66015115  0.99144952  -0.00261945  1
  Cr  Cr19  1  0.82578811  0.16237315  0.15662665  1
  Fe  Fe20  1  0.66065732  -0.00486041  0.32848109  1
  Ni  Ni21  1  0.65874136  0.32813648  -0.00489102  1
  Cr  Cr22  1  0.82755115  0.49144374  0.16169903  1
  Fe  Fe23  1  0.66024672  0.32733183  0.32763978  1
  Cr  Cr24  1  0.66122631  0.66201473  0.99026349  1
  Cr  Cr25  1  0.82838682  0.82980577  0.16264155  1
  Cr  Cr26  1  0.66174568  0.66357596  0.32867722  1
  Fe  Fe27  1  0.16305162  0.15941278  0.49308038  1
  Fe  Fe28  1  -0.00534362  -0.00472960  0.66095765  1
  Fe  Fe29  1  0.15965559  0.15857271  0.82853082  1
  Cr  Cr30  1  0.16195779  0.49639485  0.49078787  1
  Cr  Cr31  1  -0.00215556  0.32454740  0.66092924  1
  Cr  Cr32  1  0.16129262  0.49586169  0.82914552  1
  Cr  Cr33  1  0.16182064  0.82830942  0.49488249  1
  Cr  Cr34  1  0.99114684  0.66270160  0.65690302  1
  Cr  Cr35  1  0.16027574  0.82895599  0.82755369  1
  Fe  Fe36  1  0.49187205  0.16069547  0.49187295  1
  Fe  Fe37  1  0.32581543  -0.00486550  0.66071654  1
  Cr  Cr38  1  0.49591049  0.16006432  0.82624923  1
  Cr  Cr39  1  0.49368724  0.49385104  0.49482883  1
  Cr  Cr40  1  0.32567605  0.32331185  0.66035941  1
  Fe  Fe41  1  0.49538485  0.49281138  0.82939986  1
  Cr  Cr42  1  0.49187338  0.83048026  0.49439532  1
  Cr  Cr43  1  0.32926730  0.65844811  0.66502803  1
  Cr  Cr44  1  0.49231801  0.82836707  0.82801604  1
  Cr  Cr45  1  0.82541379  0.16035954  0.49299843  1
  Cr  Cr46  1  0.66235688  0.99188646  0.65868890  1
  Cr  Cr47  1  0.82800297  0.16001416  0.83341088  1
  Cr  Cr48  1  0.82859546  0.49315959  0.49171376  1
  Cr  Cr49  1  0.65934881  0.32824607  0.66093435  1
  Cr  Cr50  1  0.82851539  0.49206573  0.82937872  1
  Fe  Fe51  1  0.82782663  0.82832386  0.49323051  1
  Cr  Cr52  1  0.66288077  0.66272949  0.66428147  1
  Ni  Ni53  1  0.83061873  0.83066531  0.82544293  1
" 