3257,Ni4Fe74Cr21_5,-222.608684041963, 153.619433936213,Ni4Fe74Cr21,"# generated using pymatgen
 data_Cr6Fe20Ni
_symmetry_space_group_name_H-M   'P 1'
_cell_length_a   7.47250474
_cell_length_b   7.47250474
_cell_length_c   10.56771755
_cell_angle_alpha   90.00000000
_cell_angle_beta   90.00000000
_cell_angle_gamma   90.00000000
_symmetry_Int_Tables_number   1
_chemical_formula_structural   Cr6Fe20Ni
_chemical_formula_sum   'Cr12 Fe40 Ni2'
_cell_volume   590.08366899
_cell_formula_units_Z   2
loop_
 _symmetry_equiv_pos_site_id
 _symmetry_equiv_pos_as_xyz
  1  'x, y, z'
loop_
 _atom_site_type_symbol
 _atom_site_label
 _atom_site_symmetry_multiplicity
 _atom_site_fract_x
 _atom_site_fract_y
 _atom_site_fract_z
 _atom_site_occupancy
  Fe  Fe0  1  0.99818472  0.99890623  0.99907079  1
  Cr  Cr1  1  0.16540214  0.16522675  0.16886068  1
  Fe  Fe2  1  0.00008655  0.99833267  0.33487074  1
  Fe  Fe3  1  0.00088575  0.33390810  0.99925576  1
  Fe  Fe4  1  0.16561775  0.49965308  0.16584539  1
  Fe  Fe5  1  0.99842792  0.33217663  0.33449389  1
  Fe  Fe6  1  0.00000948  0.66687514  0.99890547  1
  Fe  Fe7  1  0.16492505  0.83255251  0.16500225  1
  Fe  Fe8  1  0.99754412  0.66820091  0.33395396  1
  Fe  Fe9  1  0.33299684  0.99753622  0.99792512  1
  Cr  Cr10  1  0.49744415  0.16564769  0.16513558  1
  Fe  Fe11  1  0.33297696  0.00030662  0.33582424  1
  Fe  Fe12  1  0.33092373  0.33459958  0.99902261  1
  Cr  Cr13  1  0.50081951  0.50045425  0.16862289  1
  Fe  Fe14  1  0.33468754  0.33199588  0.33524087  1
  Fe  Fe15  1  0.33185540  0.66728845  0.00035331  1
  Fe  Fe16  1  0.50004110  0.83353296  0.16478012  1
  Cr  Cr17  1  0.33077095  0.66849018  0.33167635  1
  Fe  Fe18  1  0.66722666  0.99674854  0.99900630  1
  Fe  Fe19  1  0.83348289  0.16641220  0.16689937  1
  Cr  Cr20  1  0.66701461  0.00126046  0.33315073  1
  Cr  Cr21  1  0.66785914  0.33082071  0.99875754  1
  Cr  Cr22  1  0.83298404  0.50241644  0.16873161  1
  Ni  Ni23  1  0.66774507  0.33263020  0.33472723  1
  Fe  Fe24  1  0.66694587  0.66887703  0.99892004  1
  Fe  Fe25  1  0.83372231  0.83503240  0.16558652  1
  Fe  Fe26  1  0.66664655  0.66730380  0.33563802  1
  Fe  Fe27  1  0.16757188  0.16438980  0.49941065  1
  Cr  Cr28  1  0.99938026  0.99795632  0.66467130  1
  Cr  Cr29  1  0.16718250  0.16607235  0.83161225  1
  Cr  Cr30  1  0.16536236  0.49796475  0.50131085  1
  Fe  Fe31  1  0.00012966  0.33295449  0.66665344  1
  Fe  Fe32  1  0.16497193  0.50155546  0.83213796  1
  Fe  Fe33  1  0.16663544  0.83341087  0.49967509  1
  Fe  Fe34  1  0.99905015  0.66589803  0.66713079  1
  Fe  Fe35  1  0.16785523  0.83114156  0.83270844  1
  Fe  Fe36  1  0.49794308  0.16643773  0.49976633  1
  Ni  Ni37  1  0.33313516  0.99693253  0.66475389  1
  Fe  Fe38  1  0.49956873  0.16306400  0.83228563  1
  Fe  Fe39  1  0.50102388  0.49998937  0.49901890  1
  Fe  Fe40  1  0.33319868  0.33029200  0.66549789  1
  Cr  Cr41  1  0.49910624  0.50180018  0.83187352  1
  Fe  Fe42  1  0.49924577  0.83278495  0.50091991  1
  Fe  Fe43  1  0.33268057  0.66833585  0.66556733  1
  Fe  Fe44  1  0.49879379  0.83541866  0.83218969  1
  Fe  Fe45  1  0.83468028  0.16766556  0.49878387  1
  Fe  Fe46  1  0.66438691  0.99814460  0.66553607  1
  Fe  Fe47  1  0.83279470  0.16438800  0.83299834  1
  Fe  Fe48  1  0.83206751  0.50059463  0.49849292  1
  Cr  Cr49  1  0.66802405  0.33224909  0.66570830  1
  Fe  Fe50  1  0.83575734  0.50096065  0.83294398  1
  Fe  Fe51  1  0.83319801  0.83086370  0.49959795  1
  Fe  Fe52  1  0.66689289  0.66958653  0.66552259  1
  Fe  Fe53  1  0.83241829  0.83224476  0.83325676  1
" 