7852,Ni4Fe74Cr21_9,-222.459110075901, 149.714879895118,Ni4Fe74Cr21,"# generated using pymatgen
 data_Cr6Fe20Ni
_symmetry_space_group_name_H-M   'P 1'
_cell_length_a   7.47665421
_cell_length_b   7.47665421
_cell_length_c   10.57358578
_cell_angle_alpha   90.00000000
_cell_angle_beta   90.00000000
_cell_angle_gamma   90.00000000
_symmetry_Int_Tables_number   1
_chemical_formula_structural   Cr6Fe20Ni
_chemical_formula_sum   'Cr12 Fe40 Ni2'
_cell_volume   591.06723226
_cell_formula_units_Z   2
loop_
 _symmetry_equiv_pos_site_id
 _symmetry_equiv_pos_as_xyz
  1  'x, y, z'
loop_
 _atom_site_type_symbol
 _atom_site_label
 _atom_site_symmetry_multiplicity
 _atom_site_fract_x
 _atom_site_fract_y
 _atom_site_fract_z
 _atom_site_occupancy
  Fe  Fe0  1  0.00037429  0.99829037  0.99850343  1
  Ni  Ni1  1  0.16539815  0.16760440  0.16684239  1
  Fe  Fe2  1  0.00062978  0.99893780  0.33279625  1
  Fe  Fe3  1  0.00110520  0.33478403  -0.00014121  1
  Ni  Ni4  1  0.16532124  0.49889180  0.16570151  1
  Fe  Fe5  1  -0.00003421  0.33374091  0.33161085  1
  Fe  Fe6  1  0.00044335  0.66506104  0.99902143  1
  Fe  Fe7  1  0.16510816  0.83323072  0.16844316  1
  Fe  Fe8  1  0.00038890  0.66511961  0.33232237  1
  Cr  Cr9  1  0.33130266  0.99853005  0.00086882  1
  Cr  Cr10  1  0.49985277  0.16637365  0.16544834  1
  Fe  Fe11  1  0.33166604  0.99849345  0.33203280  1
  Fe  Fe12  1  0.33078287  0.33383004  -0.00061609  1
  Cr  Cr13  1  0.49965175  0.49980279  0.16750341  1
  Fe  Fe14  1  0.33085676  0.33274621  0.33225958  1
  Cr  Cr15  1  0.33038801  0.66678790  0.00061952  1
  Fe  Fe16  1  0.49814680  0.83296254  0.16868577  1
  Fe  Fe17  1  0.33102825  0.66697369  0.33230303  1
  Fe  Fe18  1  0.66619818  0.99930673  0.99613667  1
  Cr  Cr19  1  0.83271248  0.16414419  0.16444354  1
  Fe  Fe20  1  0.66552577  0.99881313  0.33505872  1
  Fe  Fe21  1  0.66595984  0.33228324  0.99682522  1
  Fe  Fe22  1  0.83532082  0.49760943  0.16668926  1
  Fe  Fe23  1  0.66707025  0.33285710  0.33493420  1
  Cr  Cr24  1  0.66605479  0.66488483  0.99822113  1
  Cr  Cr25  1  0.83090702  0.83174889  0.16522260  1
  Fe  Fe26  1  0.66638505  0.66620580  0.33419782  1
  Cr  Cr27  1  0.16609042  0.16588219  0.50036642  1
  Fe  Fe28  1  0.99859118  0.99793518  0.66582863  1
  Cr  Cr29  1  0.16605061  0.16717897  0.83149974  1
  Cr  Cr30  1  0.16712027  0.49921242  0.50180256  1
  Fe  Fe31  1  0.99773049  0.33328924  0.66666530  1
  Fe  Fe32  1  0.16514055  0.50068636  0.83199157  1
  Fe  Fe33  1  0.16606274  0.83219907  0.49965418  1
  Fe  Fe34  1  0.99744984  0.66681491  0.66677822  1
  Fe  Fe35  1  0.16456966  0.83175586  0.83095533  1
  Fe  Fe36  1  0.49881079  0.16633642  0.49749281  1
  Fe  Fe37  1  0.33313554  0.99789613  0.66617080  1
  Fe  Fe38  1  0.49968966  0.16695748  0.83399214  1
  Fe  Fe39  1  0.49970035  0.50021555  0.49807339  1
  Fe  Fe40  1  0.33479928  0.33316199  0.66684751  1
  Fe  Fe41  1  0.49769779  0.49841029  0.83219225  1
  Fe  Fe42  1  0.49767679  0.83172701  0.49870700  1
  Fe  Fe43  1  0.33447499  0.66696656  0.66732155  1
  Fe  Fe44  1  0.49827490  0.83261836  0.83170937  1
  Fe  Fe45  1  0.83327116  0.16609840  0.49743039  1
  Cr  Cr46  1  0.66637972  0.00026178  0.66607791  1
  Fe  Fe47  1  0.83299545  0.16625333  0.83467582  1
  Fe  Fe48  1  0.83299902  0.50037388  0.49837824  1
  Cr  Cr49  1  0.66726917  0.33308932  0.66475173  1
  Fe  Fe50  1  0.83517185  0.49884257  0.83239113  1
  Fe  Fe51  1  0.83426634  0.83182665  0.49839491  1
  Fe  Fe52  1  0.66620918  0.66630479  0.66629235  1
  Fe  Fe53  1  0.83513553  0.83299924  0.83293250  1
" 