828,Ni4Fe33Cr62_0,-213.570591750248, 187.38576160856,Ni4Fe33Cr62,"# generated using pymatgen
 data_Cr17Fe9Ni
_symmetry_space_group_name_H-M   'P 1'
_cell_length_a   7.55275929
_cell_length_b   7.55275929
_cell_length_c   10.68121462
_cell_angle_alpha   90.00000000
_cell_angle_beta   90.00000000
_cell_angle_gamma   90.00000000
_symmetry_Int_Tables_number   1
_chemical_formula_structural   Cr17Fe9Ni
_chemical_formula_sum   'Cr34 Fe18 Ni2'
_cell_volume   609.30105296
_cell_formula_units_Z   2
loop_
 _symmetry_equiv_pos_site_id
 _symmetry_equiv_pos_as_xyz
  1  'x, y, z'
loop_
 _atom_site_type_symbol
 _atom_site_label
 _atom_site_symmetry_multiplicity
 _atom_site_fract_x
 _atom_site_fract_y
 _atom_site_fract_z
 _atom_site_occupancy
  Fe  Fe0  1  -0.00562453  -0.00475418  -0.00474857  1
  Fe  Fe1  1  0.16099566  0.16017225  0.16010179  1
  Cr  Cr2  1  0.99420923  -0.00457642  0.32617640  1
  Fe  Fe3  1  0.99341511  0.32589219  -0.00507254  1
  Cr  Cr4  1  0.15978961  0.49451298  0.16053925  1
  Cr  Cr5  1  -0.00555335  0.32737018  0.32747779  1
  Fe  Fe6  1  0.99351777  0.66184135  0.99380329  1
  Cr  Cr7  1  0.15903311  0.82909751  0.15979268  1
  Fe  Fe8  1  0.99342647  0.66107318  0.32775985  1
  Ni  Ni9  1  0.32502430  -0.00428105  -0.00353773  1
  Fe  Fe10  1  0.49392088  0.16057776  0.16133767  1
  Fe  Fe11  1  0.32808198  -0.00444579  0.32682634  1
  Cr  Cr12  1  0.32559597  0.32618531  -0.00337986  1
  Cr  Cr13  1  0.49496740  0.49137333  0.16153160  1
  Fe  Fe14  1  0.32858055  0.32594035  0.32678547  1
  Cr  Cr15  1  0.32722100  0.66116577  0.99260611  1
  Cr  Cr16  1  0.49376579  0.83027685  0.16075317  1
  Cr  Cr17  1  0.32772705  0.66077059  0.32960181  1
  Cr  Cr18  1  0.66321167  -0.00545349  -0.00526010  1
  Ni  Ni19  1  0.82796537  0.16044981  0.15973731  1
  Cr  Cr20  1  0.66067905  -0.00503092  0.32645363  1
  Cr  Cr21  1  0.66331385  0.32652961  -0.00475492  1
  Cr  Cr22  1  0.82822112  0.49393828  0.16228921  1
  Fe  Fe23  1  0.66109767  0.32672573  0.32664423  1
  Cr  Cr24  1  0.66277834  0.66190034  0.99285630  1
  Fe  Fe25  1  0.82891709  0.82884525  0.16070635  1
  Cr  Cr26  1  0.66186729  0.66100446  0.32891141  1
  Cr  Cr27  1  0.16207853  0.16111857  0.49517175  1
  Cr  Cr28  1  0.99305685  -0.00278647  0.66206343  1
  Cr  Cr29  1  0.15924766  0.16070318  0.82765394  1
  Cr  Cr30  1  0.15968502  0.49436144  0.49453019  1
  Fe  Fe31  1  0.99307692  0.32808511  0.66131778  1
  Cr  Cr32  1  0.15906612  0.49396588  0.82790880  1
  Cr  Cr33  1  0.16119752  0.82749999  0.49304710  1
  Cr  Cr34  1  0.99331158  0.65847445  0.65991543  1
  Cr  Cr35  1  0.15943538  0.82830795  0.83013129  1
  Cr  Cr36  1  0.49469421  0.16188578  0.49356988  1
  Cr  Cr37  1  0.32808687  -0.00554324  0.65910021  1
  Cr  Cr38  1  0.49553719  0.16151196  0.82667393  1
  Cr  Cr39  1  0.49594021  0.49243608  0.49454471  1
  Fe  Fe40  1  0.32764806  0.32768831  0.66105640  1
  Cr  Cr41  1  0.49569902  0.49312804  0.82690804  1
  Fe  Fe42  1  0.49383700  0.82818203  0.49388630  1
  Cr  Cr43  1  0.32890201  0.66014882  0.66076545  1
  Cr  Cr44  1  0.49450607  0.82833547  0.82756389  1
  Cr  Cr45  1  0.82620745  0.16341083  0.49664613  1
  Cr  Cr46  1  0.66183562  -0.00557585  0.66177511  1
  Fe  Fe47  1  0.82848614  0.16186676  0.82807774  1
  Fe  Fe48  1  0.82775106  0.49339849  0.49423878  1
  Fe  Fe49  1  0.66225299  0.32808468  0.66149726  1
  Fe  Fe50  1  0.82850491  0.49350781  0.82772752  1
  Cr  Cr51  1  0.82813628  0.82625325  0.49232479  1
  Cr  Cr52  1  0.66076378  0.66043960  0.66120611  1
  Fe  Fe53  1  0.82850350  0.82760323  0.82835351  1
" 