1872,Ni4Fe96_14,-241.020826923234, 185.768455480743,Ni4Fe96,"# generated using pymatgen
 data_FeNi26
_symmetry_space_group_name_H-M   'P 1'
_cell_length_a   7.45607907
_cell_length_b   7.45607907
_cell_length_c   10.54448814
_cell_angle_alpha   90.00000000
_cell_angle_beta   90.00000000
_cell_angle_gamma   90.00000000
_symmetry_Int_Tables_number   1
_chemical_formula_structural   FeNi26
_chemical_formula_sum   'Fe2 Ni52'
_cell_volume   586.20094310
_cell_formula_units_Z   2
loop_
 _symmetry_equiv_pos_site_id
 _symmetry_equiv_pos_as_xyz
  1  'x, y, z'
loop_
 _atom_site_type_symbol
 _atom_site_label
 _atom_site_symmetry_multiplicity
 _atom_site_fract_x
 _atom_site_fract_y
 _atom_site_fract_z
 _atom_site_occupancy
  Ni  Ni0  1  0.99896367  0.00129628  0.00073554  1
  Ni  Ni1  1  0.16734143  0.16745480  0.16749235  1
  Ni  Ni2  1  1.00038649  0.00098747  0.33380382  1
  Ni  Ni3  1  0.00250742  0.33350814  0.00073554  1
  Ni  Ni4  1  0.16738966  0.50074810  0.16761064  1
  Ni  Ni5  1  0.00108460  0.33381695  0.33380382  1
  Ni  Ni6  1  1.00073554  0.66740221  0.00073554  1
  Ni  Ni7  1  0.16716228  0.83382895  0.16718937  1
  Ni  Ni8  1  0.00073554  0.66740221  0.33341896  1
  Fe  Fe9  1  0.33315745  0.99982411  0.00073554  1
  Ni  Ni10  1  0.50073554  0.16740221  0.16701141  1
  Ni  Ni11  1  0.33431979  0.00098646  0.33300624  1
  Ni  Ni12  1  0.33359049  0.33454726  0.00073554  1
  Ni  Ni13  1  0.50068295  0.50079632  0.16749235  1
  Ni  Ni14  1  0.33397446  0.33416329  0.33419428  1
  Ni  Ni15  1  0.33462962  0.66563034  0.00073554  1
  Ni  Ni16  1  0.50078813  0.83400810  0.16749235  1
  Ni  Ni17  1  0.33432080  0.66705316  0.33380382  1
  Ni  Ni18  1  0.66788060  1.00025716  0.00073554  1
  Ni  Ni19  1  0.83412966  0.16734962  0.16749235  1
  Ni  Ni20  1  0.66749663  1.00064113  0.33419428  1
  Fe  Fe21  1  0.66831364  0.33498031  0.00073554  1
  Ni  Ni22  1  0.83430881  0.50097547  0.16718937  1
  Ni  Ni23  1  0.66715130  0.33381796  0.33300624  1
  Ni  Ni24  1  0.66684147  0.66917408  0.00073554  1
  Ni  Ni25  1  0.83408143  0.83405632  0.16761064  1
  Ni  Ni26  1  0.66715028  0.66775126  0.33380382  1
  Ni  Ni27  1  0.16760326  0.16701056  0.50073554  1
  Ni  Ni28  1  1.00038649  0.00098747  0.66766726  1
  Ni  Ni29  1  0.16734143  0.16745480  0.83397873  1
  Ni  Ni30  1  0.16721118  0.50092657  0.50073554  1
  Ni  Ni31  1  0.00108460  0.33381695  0.66766726  1
  Ni  Ni32  1  0.16738966  0.50074810  0.83386045  1
  Ni  Ni33  1  0.16760304  0.83426971  0.50073554  1
  Ni  Ni34  1  0.00073554  0.66740221  0.66805213  1
  Ni  Ni35  1  0.16716228  0.83382895  0.83428172  1
  Ni  Ni36  1  0.50073554  0.16740221  0.50073554  1
  Ni  Ni37  1  0.33431979  0.00098646  0.66846484  1
  Ni  Ni38  1  0.50073554  0.16740221  0.83445967  1
  Ni  Ni39  1  0.50112720  0.50053450  0.50073554  1
  Ni  Ni40  1  0.33397446  0.33416329  0.66727681  1
  Ni  Ni41  1  0.50068295  0.50079632  0.83397873  1
  Ni  Ni42  1  0.50034389  0.83426992  0.50073554  1
  Ni  Ni43  1  0.33432080  0.66705316  0.66766726  1
  Ni  Ni44  1  0.50078813  0.83400810  0.83397873  1
  Ni  Ni45  1  0.83386783  0.16779386  0.50073554  1
  Ni  Ni46  1  0.66749663  1.00064113  0.66727681  1
  Ni  Ni47  1  0.83412966  0.16734962  0.83397873  1
  Ni  Ni48  1  0.83386804  0.50053471  0.50073554  1
  Ni  Ni49  1  0.66715130  0.33381796  0.66846484  1
  Ni  Ni50  1  0.83430881  0.50097547  0.83428172  1
  Ni  Ni51  1  0.83425990  0.83387785  0.50073554  1
  Ni  Ni52  1  0.66715028  0.66775126  0.66766726  1
  Ni  Ni53  1  0.83408143  0.83405632  0.83386045  1
" 