252,Ni4Fe74Cr21_11,-222.35862503535, 151.349232050489,Ni4Fe74Cr21,"# generated using pymatgen
 data_Cr6Fe20Ni
_symmetry_space_group_name_H-M   'P 1'
_cell_length_a   7.47649107
_cell_length_b   7.47649107
_cell_length_c   10.57335507
_cell_angle_alpha   90.00000000
_cell_angle_beta   90.00000000
_cell_angle_gamma   90.00000000
_symmetry_Int_Tables_number   1
_chemical_formula_structural   Cr6Fe20Ni
_chemical_formula_sum   'Cr12 Fe40 Ni2'
_cell_volume   591.02854277
_cell_formula_units_Z   2
loop_
 _symmetry_equiv_pos_site_id
 _symmetry_equiv_pos_as_xyz
  1  'x, y, z'
loop_
 _atom_site_type_symbol
 _atom_site_label
 _atom_site_symmetry_multiplicity
 _atom_site_fract_x
 _atom_site_fract_y
 _atom_site_fract_z
 _atom_site_occupancy
  Fe  Fe0  1  -0.00060647  0.00033260  -0.00037284  1
  Ni  Ni1  1  0.16539372  0.16612137  0.16550283  1
  Fe  Fe2  1  -0.00021712  -0.00055026  0.33197250  1
  Fe  Fe3  1  0.00087813  0.33178411  0.99889863  1
  Cr  Cr4  1  0.16424792  0.49683637  0.16530411  1
  Fe  Fe5  1  0.99740363  0.33274013  0.33285725  1
  Fe  Fe6  1  0.99759421  0.66587509  0.99797756  1
  Cr  Cr7  1  0.16584650  0.83465624  0.16669159  1
  Fe  Fe8  1  0.99598354  0.66598271  0.33437669  1
  Fe  Fe9  1  0.33259993  0.00188964  -0.00016251  1
  Fe  Fe10  1  0.49603170  0.16620778  0.16622196  1
  Fe  Fe11  1  0.33209574  0.00127145  0.33111442  1
  Fe  Fe12  1  0.33130643  0.33062527  0.99933185  1
  Fe  Fe13  1  0.49943512  0.49910813  0.16585587  1
  Fe  Fe14  1  0.33368637  0.33105924  0.33128126  1
  Fe  Fe15  1  0.33292915  0.66565589  -0.00031754  1
  Fe  Fe16  1  0.49968113  0.83281777  0.16443417  1
  Cr  Cr17  1  0.33281241  0.66538885  0.33442432  1
  Fe  Fe18  1  0.66638301  0.99807730  0.00134722  1
  Fe  Fe19  1  0.83652384  0.16624542  0.16561216  1
  Cr  Cr20  1  0.66748965  0.00019905  0.33026696  1
  Cr  Cr21  1  0.66667275  0.33183786  0.00040300  1
  Fe  Fe22  1  0.83303562  0.49970237  0.16766391  1
  Fe  Fe23  1  0.66680075  0.33564555  0.33225639  1
  Fe  Fe24  1  0.66756723  0.66708777  0.00097860  1
  Fe  Fe25  1  0.83345485  0.83214306  0.16491575  1
  Fe  Fe26  1  0.66844671  0.66379057  0.33229464  1
  Cr  Cr27  1  0.16502026  0.16480111  0.49650988  1
  Fe  Fe28  1  -0.00015503  0.99651285  0.66587182  1
  Fe  Fe29  1  0.16885177  0.16526799  0.83412841  1
  Fe  Fe30  1  0.16518615  0.50031538  0.49932550  1
  Cr  Cr31  1  0.99929103  0.33441324  0.66703876  1
  Fe  Fe32  1  0.16531258  0.50045075  0.83411237  1
  Fe  Fe33  1  0.16291128  0.83130734  0.49996893  1
  Fe  Fe34  1  0.99893164  0.66720115  0.66545622  1
  Fe  Fe35  1  0.16446496  0.83255723  0.83307577  1
  Cr  Cr36  1  0.49952857  0.16710538  0.50242751  1
  Fe  Fe37  1  0.33012669  -0.00047437  0.66767008  1
  Fe  Fe38  1  0.49755458  0.16559187  0.83151632  1
  Fe  Fe39  1  0.50096780  0.49825397  0.50062845  1
  Fe  Fe40  1  0.33214541  0.33328573  0.66667567  1
  Cr  Cr41  1  0.49951313  0.49964715  0.83049912  1
  Cr  Cr42  1  0.49920062  0.83202480  0.50068680  1
  Fe  Fe43  1  0.32952021  0.66513099  0.66513346  1
  Cr  Cr44  1  0.50023581  0.83335618  0.83344081  1
  Fe  Fe45  1  0.83233429  0.16697811  0.49972147  1
  Fe  Fe46  1  0.66812718  0.99912015  0.66594911  1
  Cr  Cr47  1  0.83299409  0.16515743  0.83126081  1
  Ni  Ni48  1  0.83221943  0.50058809  0.49866069  1
  Fe  Fe49  1  0.66638667  0.33441563  0.66508397  1
  Fe  Fe50  1  0.83353880  0.50275071  0.83232695  1
  Fe  Fe51  1  0.83473042  0.83205039  0.49993753  1
  Fe  Fe52  1  0.66948723  0.66468047  0.66484281  1
  Fe  Fe53  1  0.83399462  0.83087559  0.83281666  1
" 