583,Ni4Fe84Cr11_7,-223.31348677774, 136.932844888553,Ni4Fe84Cr11,"# generated using pymatgen
 data_Cr7Fe45Ni2
_symmetry_space_group_name_H-M   'P 1'
_cell_length_a   7.45581177
_cell_length_b   7.45581177
_cell_length_c   10.54411012
_cell_angle_alpha   90.00000000
_cell_angle_beta   90.00000000
_cell_angle_gamma   90.00000000
_symmetry_Int_Tables_number   1
_chemical_formula_structural   Cr7Fe45Ni2
_chemical_formula_sum   'Cr7 Fe45 Ni2'
_cell_volume   586.13789910
_cell_formula_units_Z   1
loop_
 _symmetry_equiv_pos_site_id
 _symmetry_equiv_pos_as_xyz
  1  'x, y, z'
loop_
 _atom_site_type_symbol
 _atom_site_label
 _atom_site_symmetry_multiplicity
 _atom_site_fract_x
 _atom_site_fract_y
 _atom_site_fract_z
 _atom_site_occupancy
  Fe  Fe0  1  1.00002536  0.00075413  0.00077744  1
  Fe  Fe1  1  0.16560268  0.16825376  0.16670360  1
  Fe  Fe2  1  0.99930765  0.00081348  0.33403896  1
  Fe  Fe3  1  1.00012255  0.33197173  0.00227511  1
  Fe  Fe4  1  0.16635738  0.50075388  0.16719201  1
  Fe  Fe5  1  0.00095454  0.33386109  0.33406331  1
  Fe  Fe6  1  1.00014519  0.66953416  0.00229765  1
  Fe  Fe7  1  0.16554242  0.83325256  0.16664349  1
  Fe  Fe8  1  0.00097673  0.66758596  0.33397870  1
  Fe  Fe9  1  0.33332736  0.00075426  0.99946464  1
  Cr  Cr10  1  0.50179789  0.16692184  0.16746609  1
  Cr  Cr11  1  0.33307383  1.00010416  0.33473761  1
  Fe  Fe12  1  0.33398387  0.33272537  0.99998834  1
  Cr  Cr13  1  0.50046789  0.50101891  0.16687094  1
  Fe  Fe14  1  0.33256543  0.33559202  0.33553690  1
  Fe  Fe15  1  0.33396059  0.66878025  1.00001000  1
  Cr  Cr16  1  0.50180044  0.83431992  0.16686270  1
  Fe  Fe17  1  0.33298500  0.66629469  0.33595418  1
  Ni  Ni18  1  0.66887719  0.00110049  0.99895071  1
  Fe  Fe19  1  0.83477881  0.16704232  0.16704194  1
  Fe  Fe20  1  0.67003137  1.00039403  0.33536381  1
  Fe  Fe21  1  0.66815407  0.33260760  0.99977091  1
  Fe  Fe22  1  0.83523074  0.50075395  0.16723195  1
  Fe  Fe23  1  0.66874106  0.33392683  0.33579899  1
  Fe  Fe24  1  0.66815481  0.66887812  0.99997234  1
  Fe  Fe25  1  0.83483846  0.83446450  0.16698179  1
  Fe  Fe26  1  0.66830025  0.66793929  0.33603646  1
  Fe  Fe27  1  0.16730954  0.16760198  0.50152678  1
  Fe  Fe28  1  1.00061043  0.00103841  0.66744389  1
  Fe  Fe29  1  0.16722040  0.16623277  0.83402997  1
  Fe  Fe30  1  0.16806429  0.50134637  0.50097832  1
  Fe  Fe31  1  0.00225167  0.33258733  0.66592160  1
  Cr  Cr32  1  0.16774487  0.50000220  0.83346470  1
  Fe  Fe33  1  0.16745367  0.83331158  0.50150458  1
  Fe  Fe34  1  1.00053354  0.66863481  0.66598353  1
  Fe  Fe35  1  0.16715855  0.83529528  0.83411267  1
  Fe  Fe36  1  0.50076008  0.16666695  0.50048798  1
  Fe  Fe37  1  0.33460984  1.00059956  0.66677907  1
  Fe  Fe38  1  0.50038011  0.16680822  0.83554131  1
  Fe  Fe39  1  0.49998395  0.50225955  0.49975957  1
  Fe  Fe40  1  0.33328136  0.33334112  0.66673321  1
  Fe  Fe41  1  0.49993609  0.50143985  0.83510575  1
  Ni  Ni42  1  0.50199531  0.83359435  0.50162752  1
  Fe  Fe43  1  0.33544063  0.66831807  0.66629427  1
  Fe  Fe44  1  0.50115289  0.83401309  0.83409489  1
  Fe  Fe45  1  0.83419111  0.16605545  0.49998320  1
  Fe  Fe46  1  0.66704117  0.99887991  0.66765741  1
  Fe  Fe47  1  0.83465998  0.16501959  0.83523361  1
  Fe  Fe48  1  0.83421274  0.50211701  0.50022962  1
  Cr  Cr49  1  0.66675460  0.33397129  0.66756824  1
  Cr  Cr50  1  0.83432113  0.50136420  0.83508658  1
  Fe  Fe51  1  0.83327897  0.83408839  0.50075233  1
  Fe  Fe52  1  0.66628830  0.66995954  0.66625291  1
  Fe  Fe53  1  0.83394998  0.83574257  0.83452468  1
" 