865,Ni4Fe96_6,-241.019767061664, 185.703806958542,Ni4Fe96,"# generated using pymatgen
 data_FeNi26
_symmetry_space_group_name_H-M   'P 1'
_cell_length_a   7.45519152
_cell_length_b   7.45519152
_cell_length_c   10.54323296
_cell_angle_alpha   90.00000000
_cell_angle_beta   90.00000000
_cell_angle_gamma   90.00000000
_symmetry_Int_Tables_number   1
_chemical_formula_structural   FeNi26
_chemical_formula_sum   'Fe2 Ni52'
_cell_volume   585.99162997
_cell_formula_units_Z   2
loop_
 _symmetry_equiv_pos_site_id
 _symmetry_equiv_pos_as_xyz
  1  'x, y, z'
loop_
 _atom_site_type_symbol
 _atom_site_label
 _atom_site_symmetry_multiplicity
 _atom_site_fract_x
 _atom_site_fract_y
 _atom_site_fract_z
 _atom_site_occupancy
  Ni  Ni0  1  0.00112470  1.00061646  1.00046611  1
  Ni  Ni1  1  0.16675552  0.16691161  0.16746182  1
  Ni  Ni2  1  0.00112470  1.00061646  0.33445754  1
  Ni  Ni3  1  0.00105921  0.33437135  1.00039145  1
  Ni  Ni4  1  0.16707429  0.50150833  0.16746182  1
  Ni  Ni5  1  0.00105921  0.33437135  0.33453220  1
  Ni  Ni6  1  1.00077949  0.66739124  0.00084677  1
  Ni  Ni7  1  0.16844785  0.83396478  0.16746182  1
  Ni  Ni8  1  1.00077949  0.66739124  0.33407688  1
  Ni  Ni9  1  0.33412849  0.00089288  1.00076027  1
  Ni  Ni10  1  0.50150146  0.16691161  0.16746182  1
  Ni  Ni11  1  0.33412849  0.00089288  0.33416337  1
  Ni  Ni12  1  0.33412849  0.33404557  0.00115972  1
  Ni  Ni13  1  0.50118269  0.50150833  0.16746182  1
  Ni  Ni14  1  0.33412849  0.33404557  0.33376392  1
  Ni  Ni15  1  0.33412849  0.66745333  1.00001371  1
  Ni  Ni16  1  0.49980913  0.83396478  0.16746182  1
  Ni  Ni17  1  0.33412849  0.66745333  0.33490994  1
  Ni  Ni18  1  0.66713228  1.00061646  1.00046611  1
  Ni  Ni19  1  0.83412849  0.16828336  0.16746182  1
  Ni  Ni20  1  0.66713228  1.00061646  0.33445754  1
  Ni  Ni21  1  0.66719777  0.33437135  1.00039145  1
  Ni  Ni22  1  0.83412849  0.49981673  0.16746182  1
  Ni  Ni23  1  0.66719777  0.33437135  0.33453220  1
  Ni  Ni24  1  0.66747749  0.66739124  0.00084677  1
  Fe  Fe25  1  0.83412849  0.83429753  0.16746182  1
  Ni  Ni26  1  0.66747749  0.66739124  0.33407688  1
  Ni  Ni27  1  0.16719777  0.16721896  0.50039145  1
  Ni  Ni28  1  0.00118269  1.00008198  0.66746182  1
  Ni  Ni29  1  0.16719777  0.16721896  0.83453220  1
  Ni  Ni30  1  0.16713228  0.50097385  0.50046611  1
  Ni  Ni31  1  0.00150146  0.33467870  0.66746182  1
  Ni  Ni32  1  0.16713228  0.50097385  0.83445754  1
  Ni  Ni33  1  0.16747749  0.83419907  0.50084677  1
  Ni  Ni34  1  0.99980913  0.66762553  0.66746182  1
  Ni  Ni35  1  0.16747749  0.83419907  0.83407688  1
  Ni  Ni36  1  0.50105921  0.16721896  0.50039145  1
  Ni  Ni37  1  0.33412849  0.00177359  0.66746182  1
  Ni  Ni38  1  0.50105921  0.16721896  0.83453220  1
  Ni  Ni39  1  0.50112470  0.50097385  0.50046611  1
  Ni  Ni40  1  0.33412849  0.33330696  0.66746182  1
  Ni  Ni41  1  0.50112470  0.50097385  0.83445754  1
  Ni  Ni42  1  0.50077949  0.83419907  0.50084677  1
  Fe  Fe43  1  0.33412849  0.66729278  0.66746182  1
  Ni  Ni44  1  0.50077949  0.83419907  0.83407688  1
  Ni  Ni45  1  0.83412849  0.16754474  0.50115972  1
  Ni  Ni46  1  0.66707429  1.00008198  0.66746182  1
  Ni  Ni47  1  0.83412849  0.16754474  0.83376392  1
  Ni  Ni48  1  0.83412849  0.50069743  0.50076027  1
  Ni  Ni49  1  0.66675552  0.33467870  0.66746182  1
  Ni  Ni50  1  0.83412849  0.50069743  0.83416337  1
  Ni  Ni51  1  0.83412849  0.83413698  0.50001371  1
  Ni  Ni52  1  0.66844785  0.66762553  0.66746182  1
  Ni  Ni53  1  0.83412849  0.83413698  0.83490994  1
" 