5669,Ni4Fe33Cr62_7,-213.614176972937, 189.742015663334,Ni4Fe33Cr62,"# generated using pymatgen
 data_Cr17Fe9Ni
_symmetry_space_group_name_H-M   'P 1'
_cell_length_a   7.55165510
_cell_length_b   7.55165510
_cell_length_c   10.67965306
_cell_angle_alpha   90.00000000
_cell_angle_beta   90.00000000
_cell_angle_gamma   90.00000000
_symmetry_Int_Tables_number   1
_chemical_formula_structural   Cr17Fe9Ni
_chemical_formula_sum   'Cr34 Fe18 Ni2'
_cell_volume   609.03385790
_cell_formula_units_Z   2
loop_
 _symmetry_equiv_pos_site_id
 _symmetry_equiv_pos_as_xyz
  1  'x, y, z'
loop_
 _atom_site_type_symbol
 _atom_site_label
 _atom_site_symmetry_multiplicity
 _atom_site_fract_x
 _atom_site_fract_y
 _atom_site_fract_z
 _atom_site_occupancy
  Cr  Cr0  1  0.99391999  0.99187859  0.99237402  1
  Cr  Cr1  1  0.15883034  0.16170604  0.16157647  1
  Cr  Cr2  1  0.99344770  0.98870719  0.32654008  1
  Cr  Cr3  1  0.99242024  0.33136770  0.99147136  1
  Fe  Fe4  1  0.16078291  0.49465276  0.16156665  1
  Fe  Fe5  1  0.99375279  0.32977315  0.32573518  1
  Cr  Cr6  1  -0.00370705  0.66092495  -0.00238096  1
  Ni  Ni7  1  0.16095527  0.82664987  0.15962952  1
  Fe  Fe8  1  -0.00425536  0.65945144  0.32504152  1
  Cr  Cr9  1  0.32675135  -0.00421567  0.99417152  1
  Fe  Fe10  1  0.49341485  0.16054865  0.16157039  1
  Cr  Cr11  1  0.32906141  -0.00435624  0.33011451  1
  Fe  Fe12  1  0.32575254  0.32895688  0.99392975  1
  Cr  Cr13  1  0.49523474  0.49525629  0.15874923  1
  Cr  Cr14  1  0.33092039  0.32737457  0.32837025  1
  Fe  Fe15  1  0.32541584  0.66035812  -0.00487883  1
  Cr  Cr16  1  0.49474879  0.82596197  0.15884430  1
  Cr  Cr17  1  0.32548599  0.66102482  0.32697802  1
  Cr  Cr18  1  0.66078629  -0.00293802  -0.00448143  1
  Cr  Cr19  1  0.82876299  0.16205789  0.16115600  1
  Fe  Fe20  1  0.66094587  -0.00493857  0.32755949  1
  Cr  Cr21  1  0.65912929  0.32752724  0.99388982  1
  Fe  Fe22  1  0.83018996  0.49460098  0.16221672  1
  Fe  Fe23  1  0.66190179  0.32642398  0.32677412  1
  Cr  Cr24  1  0.66626063  0.65896249  0.99331316  1
  Fe  Fe25  1  0.82899386  0.82730495  0.16140832  1
  Cr  Cr26  1  0.66639837  0.66049018  0.32836234  1
  Cr  Cr27  1  0.15711599  0.16253907  0.49452500  1
  Cr  Cr28  1  0.99380608  0.99214167  0.66444930  1
  Cr  Cr29  1  0.15788996  0.16206555  0.82641385  1
  Cr  Cr30  1  0.15920170  0.49153489  0.49331908  1
  Fe  Fe31  1  0.99354663  0.32845769  0.66382712  1
  Fe  Fe32  1  0.15953882  0.49575359  0.82797056  1
  Cr  Cr33  1  0.16141974  0.82821011  0.49520015  1
  Cr  Cr34  1  0.99230564  0.65966117  0.66098812  1
  Fe  Fe35  1  0.16045696  0.82436089  0.82907555  1
  Fe  Fe36  1  0.49698299  0.16270562  0.49341216  1
  Cr  Cr37  1  0.32802610  -0.00404276  0.65918189  1
  Fe  Fe38  1  0.49396116  0.16205690  0.82830899  1
  Cr  Cr39  1  0.49636637  0.49742216  0.49602862  1
  Cr  Cr40  1  0.32896163  0.32743243  0.66033737  1
  Cr  Cr41  1  0.49425258  0.49780182  0.82876056  1
  Cr  Cr42  1  0.49807562  0.82592692  0.49671388  1
  Cr  Cr43  1  0.32435506  0.66039530  0.66168261  1
  Cr  Cr44  1  0.49265619  0.82634823  0.82802715  1
  Cr  Cr45  1  0.83091729  0.16156515  0.49402064  1
  Cr  Cr46  1  0.66117110  -0.00293375  0.66033305  1
  Fe  Fe47  1  0.82574980  0.16302431  0.82769909  1
  Cr  Cr48  1  0.82775153  0.49257700  0.49398601  1
  Cr  Cr49  1  0.66144521  0.32882226  0.66329437  1
  Ni  Ni50  1  0.82892576  0.49286020  0.82622961  1
  Fe  Fe51  1  0.82882107  0.82707227  0.49473830  1
  Fe  Fe52  1  0.66244377  0.66091589  0.66246008  1
  Cr  Cr53  1  0.82504997  0.82730970  0.82691184  1
" 