3272,Ni4Fe96_9,-240.970353791545, 185.61397117445,Ni4Fe96,"# generated using pymatgen
 data_FeNi26
_symmetry_space_group_name_H-M   'P 1'
_cell_length_a   7.45518247
_cell_length_b   7.45518247
_cell_length_c   10.54322016
_cell_angle_alpha   90.00000000
_cell_angle_beta   90.00000000
_cell_angle_gamma   90.00000000
_symmetry_Int_Tables_number   1
_chemical_formula_structural   FeNi26
_chemical_formula_sum   'Fe2 Ni52'
_cell_volume   585.98949522
_cell_formula_units_Z   2
loop_
 _symmetry_equiv_pos_site_id
 _symmetry_equiv_pos_as_xyz
  1  'x, y, z'
loop_
 _atom_site_type_symbol
 _atom_site_label
 _atom_site_symmetry_multiplicity
 _atom_site_fract_x
 _atom_site_fract_y
 _atom_site_fract_z
 _atom_site_occupancy
  Ni  Ni0  1  0.00138920  1.00052835  0.00112827  1
  Ni  Ni1  1  0.16746243  0.16747801  0.16787982  1
  Ni  Ni2  1  1.00030183  1.00021094  0.33419371  1
  Ni  Ni3  1  0.99994239  0.33381296  0.00112946  1
  Ni  Ni4  1  0.16746243  0.50078019  0.16704504  1
  Ni  Ni5  1  0.99994239  0.33444523  0.33379540  1
  Ni  Ni6  1  1.00030183  0.66804726  1.00073115  1
  Ni  Ni7  1  0.16746243  0.83412910  0.16746243  1
  Ni  Ni8  1  0.00138920  0.66772984  0.33379659  1
  Ni  Ni9  1  0.33353566  1.00052835  0.00112827  1
  Ni  Ni10  1  0.50069698  0.16753919  0.16738264  1
  Ni  Ni11  1  0.33462303  1.00021094  0.33419371  1
  Ni  Ni12  1  0.33498247  0.33381296  0.00112946  1
  Ni  Ni13  1  0.50069698  0.50071900  0.16754222  1
  Ni  Ni14  1  0.33498247  0.33444523  0.33379540  1
  Ni  Ni15  1  0.33462303  0.66804726  1.00073115  1
  Ni  Ni16  1  0.50061073  0.83412910  0.16746243  1
  Ni  Ni17  1  0.33353566  0.66772984  0.33379659  1
  Fe  Fe18  1  0.66746243  1.00073827  0.00082538  1
  Ni  Ni19  1  0.83422789  0.16753919  0.16738264  1
  Ni  Ni20  1  0.66746243  0.00169059  0.33339336  1
  Ni  Ni21  1  0.66746243  0.33488201  1.00072763  1
  Ni  Ni22  1  0.83422789  0.50071900  0.16754222  1
  Ni  Ni23  1  0.66746243  0.33337618  0.33419724  1
  Ni  Ni24  1  0.66746243  0.66656760  0.00153150  1
  Ni  Ni25  1  0.83431413  0.83412910  0.16746243  1
  Fe  Fe26  1  0.66746243  0.66751992  0.33409949  1
  Ni  Ni27  1  0.16746243  0.16762401  0.50047494  1
  Ni  Ni28  1  1.00061040  1.00052621  0.66707065  1
  Ni  Ni29  1  0.16746243  0.16747705  0.83403289  1
  Ni  Ni30  1  0.16746243  0.50078115  0.50089197  1
  Ni  Ni31  1  1.00025871  0.33412910  0.66746243  1
  Ni  Ni32  1  0.16746243  0.50063419  0.83444993  1
  Ni  Ni33  1  0.16746243  0.83398240  0.50089239  1
  Ni  Ni34  1  1.00061040  0.66773199  0.66785421  1
  Ni  Ni35  1  0.16746243  0.83427579  0.83403247  1
  Ni  Ni36  1  0.50095019  0.16729320  0.50089222  1
  Ni  Ni37  1  0.33431446  1.00052621  0.66707065  1
  Ni  Ni38  1  0.50057515  0.16752077  0.83413558  1
  Ni  Ni39  1  0.50057515  0.50073742  0.50078928  1
  Ni  Ni40  1  0.33466615  0.33412910  0.66746243  1
  Ni  Ni41  1  0.50095019  0.50096500  0.83403265  1
  Ni  Ni42  1  0.50089492  0.83436946  0.50080165  1
  Ni  Ni43  1  0.33431446  0.66773199  0.66785421  1
  Ni  Ni44  1  0.50089492  0.83388873  0.83412321  1
  Ni  Ni45  1  0.83397467  0.16729320  0.50089222  1
  Ni  Ni46  1  0.66746243  0.00087206  0.66824769  1
  Ni  Ni47  1  0.83434971  0.16752077  0.83413558  1
  Ni  Ni48  1  0.83434971  0.50073742  0.50078928  1
  Ni  Ni49  1  0.66746243  0.33412910  0.66746243  1
  Ni  Ni50  1  0.83397467  0.50096500  0.83403265  1
  Ni  Ni51  1  0.83402994  0.83436946  0.50080165  1
  Ni  Ni52  1  0.66746243  0.66738613  0.66667717  1
  Ni  Ni53  1  0.83402994  0.83388873  0.83412321  1
" 