4872,Ni4Fe84Cr11_5,-223.464976161377, 139.643589090787,Ni4Fe84Cr11,"# generated using pymatgen
 data_Cr7Fe45Ni2
_symmetry_space_group_name_H-M   'P 1'
_cell_length_a   7.45524355
_cell_length_b   7.45524355
_cell_length_c   10.54330655
_cell_angle_alpha   90.00000000
_cell_angle_beta   90.00000000
_cell_angle_gamma   90.00000000
_symmetry_Int_Tables_number   1
_chemical_formula_structural   Cr7Fe45Ni2
_chemical_formula_sum   'Cr7 Fe45 Ni2'
_cell_volume   586.00389896
_cell_formula_units_Z   1
loop_
 _symmetry_equiv_pos_site_id
 _symmetry_equiv_pos_as_xyz
  1  'x, y, z'
loop_
 _atom_site_type_symbol
 _atom_site_label
 _atom_site_symmetry_multiplicity
 _atom_site_fract_x
 _atom_site_fract_y
 _atom_site_fract_z
 _atom_site_occupancy
  Fe  Fe0  1  0.99906866  0.99820136  0.00191884  1
  Fe  Fe1  1  0.16824098  0.16691580  0.16727802  1
  Cr  Cr2  1  0.00132767  0.00087795  0.33445532  1
  Cr  Cr3  1  0.00225471  0.33407665  0.00286807  1
  Fe  Fe4  1  0.16755437  0.50188425  0.16812848  1
  Fe  Fe5  1  1.00062857  0.33521965  0.33396156  1
  Fe  Fe6  1  1.00032564  0.66954679  0.00174885  1
  Fe  Fe7  1  0.16745305  0.83357400  0.16684574  1
  Fe  Fe8  1  1.00033369  0.66666286  0.33383864  1
  Fe  Fe9  1  0.33531239  1.00005963  0.00140446  1
  Fe  Fe10  1  0.49994392  0.16692768  0.16749541  1
  Fe  Fe11  1  0.33414173  0.00084137  0.33419534  1
  Fe  Fe12  1  0.33529517  0.33531294  0.00141885  1
  Fe  Fe13  1  0.50101915  0.50226044  0.16777365  1
  Fe  Fe14  1  0.33412502  0.33373676  0.33407946  1
  Fe  Fe15  1  0.33472686  0.66700221  1.00070134  1
  Fe  Fe16  1  0.50110325  0.83318989  0.16649976  1
  Fe  Fe17  1  0.33407218  0.66779681  0.33422660  1
  Fe  Fe18  1  0.66799907  0.99876674  0.00108528  1
  Fe  Fe19  1  0.83419059  0.16682657  0.16748944  1
  Cr  Cr20  1  0.66662978  1.00047782  0.33335002  1
  Cr  Cr21  1  0.66594741  0.33313006  0.00089764  1
  Fe  Fe22  1  0.83379979  0.50303517  0.16828976  1
  Fe  Fe23  1  0.66762143  0.33514670  0.33403439  1
  Ni  Ni24  1  0.66601419  0.67054414  0.00148984  1
  Ni  Ni25  1  0.83383827  0.83202226  0.16511211  1
  Fe  Fe26  1  0.66796827  0.66667869  0.33328483  1
  Fe  Fe27  1  0.16810170  0.16806054  0.50163020  1
  Fe  Fe28  1  0.00139230  1.00015949  0.66663702  1
  Cr  Cr29  1  0.16857004  0.16669280  0.83325829  1
  Fe  Fe30  1  0.16741585  0.50077232  0.50081243  1
  Fe  Fe31  1  1.00058336  0.33390921  0.66635669  1
  Fe  Fe32  1  0.16940002  0.50265809  0.83344223  1
  Fe  Fe33  1  0.16815362  0.83354258  0.50150709  1
  Fe  Fe34  1  0.00132057  0.66830724  0.66677583  1
  Fe  Fe35  1  0.16729536  0.83271329  0.83402335  1
  Fe  Fe36  1  0.49949254  0.16871804  0.50079532  1
  Fe  Fe37  1  0.33349229  1.00014160  0.66677149  1
  Fe  Fe38  1  0.50092703  0.16766049  0.83408435  1
  Fe  Fe39  1  0.50085643  0.50079278  0.50081065  1
  Fe  Fe40  1  0.33496743  0.33459877  0.66687344  1
  Fe  Fe41  1  0.49898539  0.50154650  0.83379192  1
  Fe  Fe42  1  0.49946091  0.83286449  0.50082783  1
  Fe  Fe43  1  0.33424699  0.66763311  0.66744727  1
  Fe  Fe44  1  0.50042826  0.83317130  0.83504918  1
  Fe  Fe45  1  0.83478117  0.16945647  0.50152702  1
  Cr  Cr46  1  0.66803522  0.00113415  0.66849979  1
  Fe  Fe47  1  0.83354111  0.16556603  0.83336931  1
  Fe  Fe48  1  0.83410269  0.50074023  0.50101745  1
  Fe  Fe49  1  0.66682351  0.33466926  0.66696728  1
  Cr  Cr50  1  0.83322701  0.50285148  0.83269262  1
  Fe  Fe51  1  0.83476034  0.83217779  0.50093405  1
  Fe  Fe52  1  0.66680368  0.66683263  0.66732958  1
  Fe  Fe53  1  0.83464907  0.83466388  0.83564632  1
" 