5539,Ni4Fe96_10,-240.970353791545, 185.613971157384,Ni4Fe96,"# generated using pymatgen
 data_FeNi26
_symmetry_space_group_name_H-M   'P 1'
_cell_length_a   7.45518247
_cell_length_b   7.45518247
_cell_length_c   10.54322016
_cell_angle_alpha   90.00000000
_cell_angle_beta   90.00000000
_cell_angle_gamma   90.00000000
_symmetry_Int_Tables_number   1
_chemical_formula_structural   FeNi26
_chemical_formula_sum   'Fe2 Ni52'
_cell_volume   585.98949522
_cell_formula_units_Z   2
loop_
 _symmetry_equiv_pos_site_id
 _symmetry_equiv_pos_as_xyz
  1  'x, y, z'
loop_
 _atom_site_type_symbol
 _atom_site_label
 _atom_site_symmetry_multiplicity
 _atom_site_fract_x
 _atom_site_fract_y
 _atom_site_fract_z
 _atom_site_occupancy
  Ni  Ni0  1  1.00062653  1.00064134  0.00089222  1
  Ni  Ni1  1  0.16746243  0.16692538  0.16746243  1
  Ni  Ni2  1  0.00085411  0.00101638  0.33413558  1
  Ni  Ni3  1  0.00095734  0.33412910  1.00047494  1
  Ni  Ni4  1  0.16746243  0.50133282  0.16746243  1
  Ni  Ni5  1  0.00081038  0.33412910  0.33403289  1
  Ni  Ni6  1  1.00062653  0.66761685  0.00089222  1
  Ni  Ni7  1  0.16746243  0.83412910  0.16746243  1
  Ni  Ni8  1  0.00085411  0.66724182  0.33413558  1
  Ni  Ni9  1  0.33407075  0.00101638  1.00078928  1
  Ni  Ni10  1  0.50106532  0.16727707  0.16785421  1
  Ni  Ni11  1  0.33429833  1.00064134  0.33403265  1
  Ni  Ni12  1  0.33411448  0.33412910  0.00089197  1
  Ni  Ni13  1  0.50106532  0.50098113  0.16785421  1
  Ni  Ni14  1  0.33396752  0.33412910  0.33444993  1
  Ni  Ni15  1  0.33407075  0.66724182  1.00078928  1
  Ni  Ni16  1  0.50071947  0.83412910  0.16667717  1
  Ni  Ni17  1  0.33429833  0.66761685  0.33403265  1
  Ni  Ni18  1  0.66770279  1.00069661  0.00080165  1
  Ni  Ni19  1  0.83385954  0.16727707  0.16707065  1
  Ni  Ni20  1  0.66722207  1.00069661  0.33412321  1
  Ni  Ni21  1  0.66731574  0.33412910  0.00089239  1
  Ni  Ni22  1  0.83385954  0.50098113  0.16707065  1
  Ni  Ni23  1  0.66760913  0.33412910  0.33403247  1
  Ni  Ni24  1  0.66770279  0.66756159  0.00080165  1
  Ni  Ni25  1  0.83420540  0.83412910  0.16824769  1
  Ni  Ni26  1  0.66722207  0.66756159  0.33412321  1
  Ni  Ni27  1  0.16714629  0.16660906  0.50112946  1
  Ni  Ni28  1  0.00087252  0.00089455  0.66738264  1
  Ni  Ni29  1  0.16777857  0.16660906  0.83379540  1
  Ni  Ni30  1  0.16714629  0.50164913  0.50112946  1
  Ni  Ni31  1  0.00081134  0.33412910  0.66787982  1
  Ni  Ni32  1  0.16777857  0.50164913  0.83379540  1
  Ni  Ni33  1  0.16821534  0.83412910  0.50072763  1
  Ni  Ni34  1  0.00087252  0.66736364  0.66738264  1
  Ni  Ni35  1  0.16670952  0.83412910  0.83419724  1
  Ni  Ni36  1  0.50138059  0.16696850  0.50073115  1
  Ni  Ni37  1  0.33405234  0.00089455  0.66754222  1
  Ni  Ni38  1  0.50106317  0.16805587  0.83379659  1
  Ni  Ni39  1  0.50138059  0.50128970  0.50073115  1
  Ni  Ni40  1  0.33411352  0.33412910  0.66704504  1
  Ni  Ni41  1  0.50106317  0.50020233  0.83379659  1
  Ni  Ni42  1  0.49990094  0.83412910  0.50153150  1
  Ni  Ni43  1  0.33405234  0.66736364  0.66754222  1
  Fe  Fe44  1  0.50085326  0.83412910  0.83409949  1
  Ni  Ni45  1  0.83386169  0.16805587  0.50112827  1
  Ni  Ni46  1  0.66746243  0.00098080  0.66746243  1
  Ni  Ni47  1  0.83354427  0.16696850  0.83419371  1
  Ni  Ni48  1  0.83386169  0.50020233  0.50112827  1
  Ni  Ni49  1  0.66746243  0.33412910  0.66746243  1
  Ni  Ni50  1  0.83354427  0.50128970  0.83419371  1
  Fe  Fe51  1  0.83407161  0.83412910  0.50082538  1
  Ni  Ni52  1  0.66746243  0.66727740  0.66746243  1
  Ni  Ni53  1  0.83502392  0.83412910  0.83339336  1
" 