7997,Ni4Fe84Cr11_0,-223.238585650549, 139.281914680395,Ni4Fe84Cr11,"# generated using pymatgen
 data_Cr7Fe45Ni2
_symmetry_space_group_name_H-M   'P 1'
_cell_length_a   7.45495527
_cell_length_b   7.45495527
_cell_length_c   10.54289885
_cell_angle_alpha   90.00000000
_cell_angle_beta   90.00000000
_cell_angle_gamma   90.00000000
_symmetry_Int_Tables_number   1
_chemical_formula_structural   Cr7Fe45Ni2
_chemical_formula_sum   'Cr7 Fe45 Ni2'
_cell_volume   585.93592199
_cell_formula_units_Z   1
loop_
 _symmetry_equiv_pos_site_id
 _symmetry_equiv_pos_as_xyz
  1  'x, y, z'
loop_
 _atom_site_type_symbol
 _atom_site_label
 _atom_site_symmetry_multiplicity
 _atom_site_fract_x
 _atom_site_fract_y
 _atom_site_fract_z
 _atom_site_occupancy
  Fe  Fe0  1  0.00101411  1.00060763  0.00090844  1
  Fe  Fe1  1  0.16958694  0.16748188  0.16627314  1
  Cr  Cr2  1  0.99983482  0.99909036  0.33317524  1
  Fe  Fe3  1  0.00099489  0.33432574  0.00090552  1
  Fe  Fe4  1  0.16701122  0.49990058  0.16717291  1
  Cr  Cr5  1  0.99897524  0.33549447  0.33402969  1
  Fe  Fe6  1  0.99948476  0.66749990  0.00140791  1
  Fe  Fe7  1  0.16703420  0.83505115  0.16714646  1
  Ni  Ni8  1  1.00040385  0.66765960  0.33395712  1
  Fe  Fe9  1  0.33378804  0.00313604  0.00185751  1
  Ni  Ni10  1  0.49988219  0.16716871  0.16810164  1
  Fe  Fe11  1  0.33575891  0.00143496  0.33311058  1
  Fe  Fe12  1  0.33449956  0.33248476  0.00114833  1
  Fe  Fe13  1  0.50215612  0.49874677  0.16743006  1
  Fe  Fe14  1  0.33577838  0.33352450  0.33312826  1
  Cr  Cr15  1  0.33379764  0.66713007  0.00139135  1
  Fe  Fe16  1  0.50215715  0.83622516  0.16724627  1
  Cr  Cr17  1  0.33327355  0.66784890  0.33426855  1
  Fe  Fe18  1  0.66763266  0.00163730  0.00182297  1
  Fe  Fe19  1  0.83207901  0.16747920  0.16608556  1
  Fe  Fe20  1  0.66632835  1.00063484  0.33385075  1
  Fe  Fe21  1  0.66693551  0.33401009  0.00094685  1
  Fe  Fe22  1  0.83326097  0.50131360  0.16714500  1
  Fe  Fe23  1  0.66632119  0.33433803  0.33403312  1
  Fe  Fe24  1  0.66947260  0.66678609  0.00137659  1
  Fe  Fe25  1  0.83323888  0.83363990  0.16712196  1
  Fe  Fe26  1  0.66990112  0.66745904  0.33419960  1
  Cr  Cr27  1  0.16905203  0.16833314  0.50141633  1
  Fe  Fe28  1  0.99992585  1.00038831  0.66800675  1
  Fe  Fe29  1  0.16764766  0.16729560  0.83388793  1
  Fe  Fe30  1  0.16713489  0.50248692  0.50183166  1
  Fe  Fe31  1  0.00146793  0.33475340  0.66799145  1
  Fe  Fe32  1  0.16700533  0.50030040  0.83343055  1
  Fe  Fe33  1  0.16715302  0.83245925  0.50183475  1
  Fe  Fe34  1  1.00066614  0.66729520  0.66688621  1
  Fe  Fe35  1  0.16546787  0.83483546  0.83345024  1
  Fe  Fe36  1  0.50148686  0.16678688  0.49954704  1
  Fe  Fe37  1  0.33433965  0.00096670  0.66746471  1
  Fe  Fe38  1  0.50009774  0.16815404  0.83536510  1
  Fe  Fe39  1  0.50061103  0.50060701  0.50091993  1
  Fe  Fe40  1  0.33349398  0.33486832  0.66816049  1
  Fe  Fe41  1  0.50081357  0.49951947  0.83408749  1
  Fe  Fe42  1  0.50130134  0.83503677  0.50179180  1
  Fe  Fe43  1  0.33371096  0.66660246  0.66683910  1
  Cr  Cr44  1  0.50239097  0.83473675  0.83354686  1
  Fe  Fe45  1  0.83210641  0.16679860  0.50160041  1
  Fe  Fe46  1  0.66817309  1.00016300  0.66675926  1
  Fe  Fe47  1  0.83468722  0.16660112  0.83474297  1
  Fe  Fe48  1  0.83467729  0.50231169  0.50045828  1
  Cr  Cr49  1  0.66766209  0.33310569  0.66754040  1
  Fe  Fe50  1  0.83461144  0.50170664  0.83483386  1
  Fe  Fe51  1  0.83397288  0.83331621  0.50116165  1
  Fe  Fe52  1  0.66806001  0.66813521  0.66685317  1
  Fe  Fe53  1  0.83547635  0.83412198  0.83414570  1
" 