8576,Ni4Fe96_5,-241.012848480271, 185.6510584502,Ni4Fe96,"# generated using pymatgen
 data_FeNi26
_symmetry_space_group_name_H-M   'P 1'
_cell_length_a   7.45547095
_cell_length_b   7.45547095
_cell_length_c   10.54362813
_cell_angle_alpha   90.00000000
_cell_angle_beta   90.00000000
_cell_angle_gamma   90.00000000
_symmetry_Int_Tables_number   1
_chemical_formula_structural   FeNi26
_chemical_formula_sum   'Fe2 Ni52'
_cell_volume   586.05752219
_cell_formula_units_Z   2
loop_
 _symmetry_equiv_pos_site_id
 _symmetry_equiv_pos_as_xyz
  1  'x, y, z'
loop_
 _atom_site_type_symbol
 _atom_site_label
 _atom_site_symmetry_multiplicity
 _atom_site_fract_x
 _atom_site_fract_y
 _atom_site_fract_z
 _atom_site_occupancy
  Ni  Ni0  1  0.00102757  0.00101107  1.00055892  1
  Ni  Ni1  1  0.16752978  0.16761968  0.16750404  1
  Ni  Ni2  1  0.00103046  0.00086300  0.33443086  1
  Ni  Ni3  1  1.00070169  0.33412321  0.00093010  1
  Ni  Ni4  1  0.16787425  0.50034519  0.16712210  1
  Ni  Ni5  1  1.00068289  0.33427773  0.33404506  1
  Ni  Ni6  1  0.00103003  0.66718941  1.00012089  1
  Ni  Ni7  1  0.16752966  0.83436379  0.16712191  1
  Ni  Ni8  1  0.00103047  0.66718897  0.33443116  1
  Ni  Ni9  1  0.33401349  1.00060303  0.00085372  1
  Ni  Ni10  1  0.50060129  0.16761815  0.16673629  1
  Ni  Ni11  1  0.33428635  0.00086312  0.33404873  1
  Ni  Ni12  1  0.33404906  0.33417038  1.00004906  1
  Ni  Ni13  1  0.50059976  0.50068966  0.16750404  1
  Ni  Ni14  1  0.33428481  0.33393463  0.33481648  1
  Ni  Ni15  1  0.33409624  0.66751775  0.00093010  1
  Ni  Ni16  1  0.50094440  0.83401622  0.16750772  1
  Ni  Ni17  1  0.33394171  0.66753655  0.33404506  1
  Ni  Ni18  1  0.66730651  0.00091293  1.00050508  1
  Ni  Ni19  1  0.83420322  0.16727504  0.16750772  1
  Ni  Ni20  1  0.66701186  0.00120758  0.33443068  1
  Ni  Ni21  1  0.66761641  0.33420595  0.00085372  1
  Ni  Ni22  1  0.83385565  0.50068978  0.16712191  1
  Ni  Ni23  1  0.66735632  0.33393309  0.33404873  1
  Ni  Ni24  1  0.66720837  0.66719187  1.00055892  1
  Ni  Ni25  1  0.83385564  0.83436380  0.16712161  1
  Ni  Ni26  1  0.66735644  0.66718898  0.33443086  1
  Ni  Ni27  1  0.16726970  0.16734682  0.50069905  1
  Ni  Ni28  1  0.00131780  0.00132085  0.66734284  1
  Ni  Ni29  1  0.16660979  0.16739540  0.83409026  1
  Ni  Ni30  1  0.16757959  0.50063985  0.50104770  1
  Ni  Ni31  1  0.99993439  0.33411941  0.66734927  1
  Ni  Ni32  1  0.16794681  0.50027263  0.83410294  1
  Ni  Ni33  1  0.16767774  0.83436091  0.50099385  1
  Ni  Ni34  1  0.00132716  0.66689228  0.66777474  1
  Ni  Ni35  1  0.16798751  0.83465113  0.83420994  1
  Ni  Ni36  1  0.50083705  0.16738239  0.50150371  1
  Ni  Ni37  1  0.33406207  0.99994313  0.66746251  1
  Fe  Fe38  1  0.50111048  0.16710896  0.83438129  1
  Ni  Ni39  1  0.50087262  0.50094974  0.50069905  1
  Fe  Fe40  1  0.33377563  0.33444381  0.66717149  1
  Ni  Ni41  1  0.50082404  0.50160965  0.83409026  1
  Ni  Ni42  1  0.50078987  0.83403503  0.50062267  1
  Ni  Ni43  1  0.33410003  0.66828505  0.66734927  1
  Ni  Ni44  1  0.50078608  0.83326772  0.83420350  1
  Ni  Ni45  1  0.83418441  0.16742957  0.50062267  1
  Ni  Ni46  1  0.66693930  0.00128014  0.66744984  1
  Ni  Ni47  1  0.83495172  0.16743336  0.83420350  1
  Ni  Ni48  1  0.83385853  0.50054170  0.50099385  1
  Ni  Ni49  1  0.66827631  0.33415737  0.66746251  1
  Ni  Ni50  1  0.83356831  0.50023193  0.83420994  1
  Ni  Ni51  1  0.83385608  0.83436336  0.50143188  1
  Ni  Ni52  1  0.66689860  0.66690164  0.66734284  1
  Ni  Ni53  1  0.83355895  0.83466049  0.83377803  1
" 