3270,Ni4Fe84Cr11_1,-223.566593797125, 140.087465745306,Ni4Fe84Cr11,"# generated using pymatgen
 data_Cr7Fe45Ni2
_symmetry_space_group_name_H-M   'P 1'
_cell_length_a   7.45066324
_cell_length_b   7.45066324
_cell_length_c   10.53682900
_cell_angle_alpha   90.00000000
_cell_angle_beta   90.00000000
_cell_angle_gamma   90.00000000
_symmetry_Int_Tables_number   1
_chemical_formula_structural   Cr7Fe45Ni2
_chemical_formula_sum   'Cr7 Fe45 Ni2'
_cell_volume   584.92448317
_cell_formula_units_Z   1
loop_
 _symmetry_equiv_pos_site_id
 _symmetry_equiv_pos_as_xyz
  1  'x, y, z'
loop_
 _atom_site_type_symbol
 _atom_site_label
 _atom_site_symmetry_multiplicity
 _atom_site_fract_x
 _atom_site_fract_y
 _atom_site_fract_z
 _atom_site_occupancy
  Fe  Fe0  1  1.00071698  1.00069923  1.00010639  1
  Cr  Cr1  1  0.16654449  0.16779502  0.16803933  1
  Fe  Fe2  1  1.00016280  1.00070902  0.33528152  1
  Fe  Fe3  1  0.99896166  0.33510894  0.00124984  1
  Fe  Fe4  1  0.16573963  0.50317696  0.16785426  1
  Ni  Ni5  1  1.00090443  0.33360807  0.33384260  1
  Fe  Fe6  1  0.00146407  0.66752895  1.00081402  1
  Fe  Fe7  1  0.16774611  0.83413991  0.16659688  1
  Fe  Fe8  1  1.00012902  0.66758181  0.33335518  1
  Fe  Fe9  1  0.33509565  0.99905330  1.00068677  1
  Fe  Fe10  1  0.50238605  0.16456763  0.16730338  1
  Fe  Fe11  1  0.33500069  0.00264740  0.33394995  1
  Cr  Cr12  1  0.33482384  0.33484663  0.00267945  1
  Fe  Fe13  1  0.50219736  0.50281508  0.16673261  1
  Fe  Fe14  1  0.33288305  0.33363834  0.33503085  1
  Fe  Fe15  1  0.33451647  0.66973195  0.00163897  1
  Ni  Ni16  1  0.50215963  0.83465468  0.16634266  1
  Cr  Cr17  1  0.33453564  0.66784384  0.33371141  1
  Fe  Fe18  1  0.66745107  0.00132374  0.00110526  1
  Fe  Fe19  1  0.83346700  0.16619782  0.16697310  1
  Fe  Fe20  1  0.66878018  0.99990234  0.33291377  1
  Fe  Fe21  1  0.66963802  0.33433191  0.00126556  1
  Fe  Fe22  1  0.83550520  0.50196030  0.16752290  1
  Cr  Cr23  1  0.66668891  0.33347546  0.33350457  1
  Fe  Fe24  1  0.66741868  0.66762549  1.00086758  1
  Fe  Fe25  1  0.83443472  0.83492274  0.16728908  1
  Fe  Fe26  1  0.66967148  0.66908611  0.33258266  1
  Fe  Fe27  1  0.16733682  0.16809960  0.50050790  1
  Fe  Fe28  1  1.00075118  1.00078066  0.66812079  1
  Fe  Fe29  1  0.16709501  0.16719529  0.83435499  1
  Fe  Fe30  1  0.16864932  0.49990004  0.50150833  1
  Fe  Fe31  1  0.00176411  0.33350041  0.66793087  1
  Fe  Fe32  1  0.16704013  0.50161299  0.83400908  1
  Fe  Fe33  1  0.16537510  0.83484687  0.50187872  1
  Fe  Fe34  1  0.00329972  0.66887319  0.66894678  1
  Fe  Fe35  1  0.16775445  0.83450551  0.83450800  1
  Fe  Fe36  1  0.50042511  0.16901005  0.50229906  1
  Fe  Fe37  1  0.33357526  0.00169918  0.66881463  1
  Fe  Fe38  1  0.50166450  0.16708225  0.83391478  1
  Fe  Fe39  1  0.49903768  0.49887739  0.50211258  1
  Fe  Fe40  1  0.33449339  0.33452012  0.66849664  1
  Fe  Fe41  1  0.50097083  0.50096628  0.83456975  1
  Cr  Cr42  1  0.50160676  0.83574071  0.50121918  1
  Fe  Fe43  1  0.33192276  0.66723659  0.66835235  1
  Fe  Fe44  1  0.50034176  0.83522679  0.83570190  1
  Fe  Fe45  1  0.83535935  0.16570811  0.50125268  1
  Fe  Fe46  1  0.66895336  0.00348044  0.66892898  1
  Fe  Fe47  1  0.83455231  0.16778413  0.83460448  1
  Cr  Cr48  1  0.83580646  0.50110206  0.50098870  1
  Fe  Fe49  1  0.66730558  0.33209504  0.66837808  1
  Fe  Fe50  1  0.83527014  0.50029073  0.83487038  1
  Fe  Fe51  1  0.83681607  0.83674593  0.50058795  1
  Cr  Cr52  1  0.66792508  0.66826718  0.66795061  1
  Fe  Fe53  1  0.83525924  0.83525409  0.83532557  1
" 