3981,Ni4Fe96_19,-241.003157044827, 185.837577685137,Ni4Fe96,"# generated using pymatgen
 data_FeNi26
_symmetry_space_group_name_H-M   'P 1'
_cell_length_a   7.45557049
_cell_length_b   7.45557049
_cell_length_c   10.54376891
_cell_angle_alpha   90.00000000
_cell_angle_beta   90.00000000
_cell_angle_gamma   90.00000000
_symmetry_Int_Tables_number   1
_chemical_formula_structural   FeNi26
_chemical_formula_sum   'Fe2 Ni52'
_cell_volume   586.08099780
_cell_formula_units_Z   2
loop_
 _symmetry_equiv_pos_site_id
 _symmetry_equiv_pos_as_xyz
  1  'x, y, z'
loop_
 _atom_site_type_symbol
 _atom_site_label
 _atom_site_symmetry_multiplicity
 _atom_site_fract_x
 _atom_site_fract_y
 _atom_site_fract_z
 _atom_site_occupancy
  Ni  Ni0  1  0.00093173  1.00058985  0.00086064  1
  Ni  Ni1  1  0.16735375  0.16751898  0.16743637  1
  Ni  Ni2  1  1.00066423  1.00071434  0.33406317  1
  Ni  Ni3  1  1.00060258  0.33411282  0.00085970  1
  Ni  Ni4  1  0.16768147  0.50045258  0.16708151  1
  Ni  Ni5  1  1.00075991  0.33427015  0.33401303  1
  Ni  Ni6  1  0.00093874  0.66760541  1.00045015  1
  Ni  Ni7  1  0.16767893  0.83434559  0.16782268  1
  Ni  Ni8  1  1.00062649  0.66729316  0.33402499  1
  Ni  Ni9  1  0.33386731  1.00053398  0.00077059  1
  Ni  Ni10  1  0.50052714  0.16719381  0.16705006  1
  Ni  Ni11  1  0.33433876  0.00100543  0.33410214  1
  Ni  Ni12  1  0.33415839  0.33420850  0.00080957  1
  Ni  Ni13  1  0.50052460  0.50108682  0.16779122  1
  Ni  Ni14  1  0.33428288  0.33394101  0.33401210  1
  Ni  Ni15  1  0.33392319  0.66759840  0.00086064  1
  Ni  Ni16  1  0.50085232  0.83402042  0.16743637  1
  Ni  Ni17  1  0.33404768  0.66733090  0.33406317  1
  Ni  Ni18  1  0.66754183  0.00082506  0.00080957  1
  Ni  Ni19  1  0.83442015  0.16719127  0.16779122  1
  Ni  Ni20  1  0.66727434  0.00094955  0.33401210  1
  Ni  Ni21  1  0.66757958  0.33424624  0.00084775  1
  Ni  Ni22  1  0.83410303  0.50076970  0.16743637  1
  Ni  Ni23  1  0.66726733  0.33393399  0.33442258  1
  Ni  Ni24  1  0.66744616  0.66726925  0.00085970  1
  Ni  Ni25  1  0.83378592  0.83434814  0.16708151  1
  Ni  Ni26  1  0.66760348  0.66742658  0.33401303  1
  Ni  Ni27  1  0.16734867  0.16816243  0.50070879  1
  Ni  Ni28  1  1.00074002  0.00078052  0.66730207  1
  Ni  Ni29  1  0.16671030  0.16752406  0.83416395  1
  Ni  Ni30  1  0.16768518  0.49962673  0.50108320  1
  Ni  Ni31  1  1.00075067  0.33412207  0.66743637  1
  Ni  Ni32  1  0.16797652  0.50015247  0.83415607  1
  Fe  Fe33  1  0.16733541  0.83400207  0.50072543  1
  Ni  Ni34  1  1.00070390  0.66737057  0.66775794  1
  Ni  Ni35  1  0.16797029  0.83463696  0.83342049  1
  Ni  Ni36  1  0.50023577  0.16690244  0.50145224  1
  Ni  Ni37  1  0.33410303  0.00076970  0.66743637  1
  Fe  Fe38  1  0.50087066  0.16753733  0.83414730  1
  Ni  Ni39  1  0.50022955  0.50138694  0.50071667  1
  Ni  Ni40  1  0.33409221  0.33413272  0.66757067  1
  Ni  Ni41  1  0.50052089  0.50191267  0.83378954  1
  Ni  Ni42  1  0.50149577  0.83401534  0.50070879  1
  Ni  Ni43  1  0.33411386  0.66740668  0.66730207  1
  Ni  Ni44  1  0.50085740  0.83337697  0.83416395  1
  Ni  Ni45  1  0.83472027  0.16689621  0.50071667  1
  Ni  Ni46  1  0.66746605  1.00075888  0.66757067  1
  Ni  Ni47  1  0.83524600  0.16718755  0.83378954  1
  Ni  Ni48  1  0.83440451  0.50107117  0.50107665  1
  Ni  Ni49  1  0.66750217  0.33416883  0.66711480  1
  Ni  Ni50  1  0.83380156  0.50046823  0.83379609  1
  Ni  Ni51  1  0.83296006  0.83435185  0.50108320  1
  Ni  Ni52  1  0.66745540  0.66741733  0.66743637  1
  Ni  Ni53  1  0.83348580  0.83464319  0.83415607  1
" 