1416,Ni4Fe33Cr62_8,-213.49703129867, 188.865803813387,Ni4Fe33Cr62,"# generated using pymatgen
 data_Cr17Fe9Ni
_symmetry_space_group_name_H-M   'P 1'
_cell_length_a   7.55118266
_cell_length_b   7.55118266
_cell_length_c   10.67898493
_cell_angle_alpha   90.00000000
_cell_angle_beta   90.00000000
_cell_angle_gamma   90.00000000
_symmetry_Int_Tables_number   1
_chemical_formula_structural   Cr17Fe9Ni
_chemical_formula_sum   'Cr34 Fe18 Ni2'
_cell_volume   608.91956057
_cell_formula_units_Z   2
loop_
 _symmetry_equiv_pos_site_id
 _symmetry_equiv_pos_as_xyz
  1  'x, y, z'
loop_
 _atom_site_type_symbol
 _atom_site_label
 _atom_site_symmetry_multiplicity
 _atom_site_fract_x
 _atom_site_fract_y
 _atom_site_fract_z
 _atom_site_occupancy
  Cr  Cr0  1  -0.00541232  0.99170149  -0.00505326  1
  Cr  Cr1  1  0.16261230  0.16344578  0.16117662  1
  Cr  Cr2  1  0.99392736  -0.00468965  0.32758154  1
  Cr  Cr3  1  -0.00547672  0.32910827  0.99385280  1
  Cr  Cr4  1  0.16206166  0.49275774  0.16096394  1
  Fe  Fe5  1  -0.00537170  0.32676381  0.32861309  1
  Fe  Fe6  1  0.99435112  0.66202605  0.99358037  1
  Fe  Fe7  1  0.16056695  0.82741195  0.16066849  1
  Cr  Cr8  1  -0.00440101  0.66158664  0.32612902  1
  Cr  Cr9  1  0.32642129  -0.00540565  -0.00539272  1
  Cr  Cr10  1  0.49244359  0.16250852  0.15938110  1
  Cr  Cr11  1  0.32722244  0.99416581  0.32945597  1
  Fe  Fe12  1  0.32825905  0.32811566  -0.00471343  1
  Fe  Fe13  1  0.49401090  0.49300971  0.16233884  1
  Ni  Ni14  1  0.33054770  0.32956751  0.32700347  1
  Cr  Cr15  1  0.32558659  0.65991247  -0.00465970  1
  Cr  Cr16  1  0.49582219  0.82673324  0.16164752  1
  Cr  Cr17  1  0.32870802  0.65957156  0.32952585  1
  Cr  Cr18  1  0.66228200  -0.00484889  0.99442032  1
  Cr  Cr19  1  0.82822980  0.16097311  0.16379700  1
  Cr  Cr20  1  0.66213456  -0.00358934  0.32827486  1
  Cr  Cr21  1  0.65971712  0.32827285  0.99336978  1
  Cr  Cr22  1  0.82788427  0.49613108  0.16267087  1
  Fe  Fe23  1  0.65976620  0.32812595  0.32900989  1
  Cr  Cr24  1  0.66261828  0.65986140  0.99355156  1
  Cr  Cr25  1  0.82695328  0.82618529  0.16027826  1
  Fe  Fe26  1  0.65926555  0.65949559  0.32817852  1
  Cr  Cr27  1  0.16021567  0.16169575  0.49528812  1
  Fe  Fe28  1  -0.00513326  -0.00518395  0.66057847  1
  Cr  Cr29  1  0.16191393  0.16128566  0.82682588  1
  Cr  Cr30  1  0.16142781  0.49271876  0.49347339  1
  Fe  Fe31  1  0.99213761  0.32654753  0.66070606  1
  Cr  Cr32  1  0.15904311  0.49399676  0.82885373  1
  Fe  Fe33  1  0.16125523  0.82903323  0.49529894  1
  Cr  Cr34  1  -0.00454618  0.66194585  0.66467429  1
  Fe  Fe35  1  0.15993150  0.82826545  0.82733096  1
  Fe  Fe36  1  0.49584240  0.16251967  0.49394644  1
  Fe  Fe37  1  0.32691549  0.99333749  0.66028782  1
  Cr  Cr38  1  0.49297220  0.16031081  0.82846914  1
  Fe  Fe39  1  0.49530726  0.49257534  0.49319242  1
  Cr  Cr40  1  0.32925903  0.32743637  0.66125729  1
  Cr  Cr41  1  0.49501393  0.49415069  0.82888172  1
  Fe  Fe42  1  0.49406830  0.82820155  0.49446139  1
  Cr  Cr43  1  0.32698463  0.66287056  0.65842392  1
  Cr  Cr44  1  0.49519692  0.82882498  0.82696915  1
  Ni  Ni45  1  0.82686006  0.16239308  0.49495852  1
  Cr  Cr46  1  0.66171314  -0.00295761  0.66058119  1
  Cr  Cr47  1  0.82839961  0.16111660  0.82530532  1
  Cr  Cr48  1  0.82689872  0.49206228  0.49393690  1
  Fe  Fe49  1  0.66247382  0.32746530  0.65988586  1
  Fe  Fe50  1  0.82810459  0.49479126  0.82734811  1
  Cr  Cr51  1  0.82588637  0.82863062  0.49346614  1
  Cr  Cr52  1  0.66084574  0.65935233  0.66134557  1
  Fe  Fe53  1  0.82944872  0.82688254  0.82776952  1
" 