4043,Ni4Fe96_11,-241.019767061664, 185.703806956977,Ni4Fe96,"# generated using pymatgen
 data_FeNi26
_symmetry_space_group_name_H-M   'P 1'
_cell_length_a   7.45519152
_cell_length_b   7.45519152
_cell_length_c   10.54323296
_cell_angle_alpha   90.00000000
_cell_angle_beta   90.00000000
_cell_angle_gamma   90.00000000
_symmetry_Int_Tables_number   1
_chemical_formula_structural   FeNi26
_chemical_formula_sum   'Fe2 Ni52'
_cell_volume   585.99162997
_cell_formula_units_Z   2
loop_
 _symmetry_equiv_pos_site_id
 _symmetry_equiv_pos_as_xyz
  1  'x, y, z'
loop_
 _atom_site_type_symbol
 _atom_site_label
 _atom_site_symmetry_multiplicity
 _atom_site_fract_x
 _atom_site_fract_y
 _atom_site_fract_z
 _atom_site_occupancy
  Ni  Ni0  1  1.00071224  0.00079516  0.00115972  1
  Ni  Ni1  1  0.16817500  0.16784936  0.16746182  1
  Ni  Ni2  1  1.00071224  0.00079516  0.33376392  1
  Ni  Ni3  1  0.00103802  0.33386444  1.00039145  1
  Ni  Ni4  1  0.16648339  0.50079516  0.16746182  1
  Ni  Ni5  1  0.00103802  0.33386444  0.33453220  1
  Ni  Ni6  1  0.00103802  0.66772587  1.00039145  1
  Ni  Ni7  1  0.16817500  0.83374096  0.16746182  1
  Ni  Ni8  1  0.00103802  0.66772587  0.33453220  1
  Ni  Ni9  1  0.33412000  0.00079516  1.00001371  1
  Ni  Ni10  1  0.50063145  0.16647579  0.16746182  1
  Ni  Ni11  1  0.33412000  0.00079516  0.33490994  1
  Ni  Ni12  1  0.33405791  0.33414416  0.00084677  1
  Fe  Fe13  1  0.50096420  0.50079516  0.16746182  1
  Ni  Ni14  1  0.33405791  0.33414416  0.33407688  1
  Ni  Ni15  1  0.33405791  0.66744615  0.00084677  1
  Ni  Ni16  1  0.50063145  0.83511452  0.16746182  1
  Ni  Ni17  1  0.33405791  0.66744615  0.33407688  1
  Ni  Ni18  1  0.66755955  0.00079516  1.00076027  1
  Ni  Ni19  1  0.83357827  0.16816813  0.16746182  1
  Ni  Ni20  1  0.66755955  0.00079516  0.33416337  1
  Ni  Ni21  1  0.66728313  0.33379895  1.00046611  1
  Ni  Ni22  1  0.83495002  0.50079516  0.16746182  1
  Ni  Ni23  1  0.66728313  0.33379895  0.33445754  1
  Ni  Ni24  1  0.66728313  0.66779136  1.00046611  1
  Ni  Ni25  1  0.83357827  0.83342219  0.16746182  1
  Ni  Ni26  1  0.66728313  0.66779136  0.33445754  1
  Ni  Ni27  1  0.16764052  0.16779136  0.50046611  1
  Ni  Ni28  1  0.99997362  0.00079516  0.66746182  1
  Ni  Ni29  1  0.16764052  0.16779136  0.83445754  1
  Ni  Ni30  1  0.16736410  0.50079516  0.50076027  1
  Ni  Ni31  1  0.00134537  0.33342219  0.66746182  1
  Ni  Ni32  1  0.16736410  0.50079516  0.83416337  1
  Ni  Ni33  1  0.16764052  0.83379895  0.50046611  1
  Ni  Ni34  1  0.00134537  0.66816813  0.66746182  1
  Ni  Ni35  1  0.16764052  0.83379895  0.83445754  1
  Ni  Ni36  1  0.50086574  0.16744615  0.50084677  1
  Fe  Fe37  1  0.33395945  0.00079516  0.66746182  1
  Ni  Ni38  1  0.50086574  0.16744615  0.83407688  1
  Ni  Ni39  1  0.50080365  0.50079516  0.50001371  1
  Ni  Ni40  1  0.33429219  0.33511452  0.66746182  1
  Ni  Ni41  1  0.50080365  0.50079516  0.83490994  1
  Ni  Ni42  1  0.50086574  0.83414416  0.50084677  1
  Ni  Ni43  1  0.33429219  0.66647579  0.66746182  1
  Ni  Ni44  1  0.50086574  0.83414416  0.83407688  1
  Ni  Ni45  1  0.83388563  0.16772587  0.50039145  1
  Ni  Ni46  1  0.66844025  0.00079516  0.66746182  1
  Ni  Ni47  1  0.83388563  0.16772587  0.83453220  1
  Ni  Ni48  1  0.83421141  0.50079516  0.50115972  1
  Ni  Ni49  1  0.66674865  0.33374096  0.66746182  1
  Ni  Ni50  1  0.83421141  0.50079516  0.83376392  1
  Ni  Ni51  1  0.83388563  0.83386444  0.50039145  1
  Ni  Ni52  1  0.66674865  0.66784936  0.66746182  1
  Ni  Ni53  1  0.83388563  0.83386444  0.83453220  1
" 