2334,Ni4Fe96_18,-241.012848480271, 185.651058422792,Ni4Fe96,"# generated using pymatgen
 data_FeNi26
_symmetry_space_group_name_H-M   'P 1'
_cell_length_a   7.45547095
_cell_length_b   7.45547095
_cell_length_c   10.54362813
_cell_angle_alpha   90.00000000
_cell_angle_beta   90.00000000
_cell_angle_gamma   90.00000000
_symmetry_Int_Tables_number   1
_chemical_formula_structural   FeNi26
_chemical_formula_sum   'Fe2 Ni52'
_cell_volume   586.05752219
_cell_formula_units_Z   2
loop_
 _symmetry_equiv_pos_site_id
 _symmetry_equiv_pos_as_xyz
  1  'x, y, z'
loop_
 _atom_site_type_symbol
 _atom_site_label
 _atom_site_symmetry_multiplicity
 _atom_site_fract_x
 _atom_site_fract_y
 _atom_site_fract_z
 _atom_site_occupancy
  Ni  Ni0  1  1.00068978  0.00103046  0.00109753  1
  Ni  Ni1  1  0.16719187  0.16767774  0.16766052  1
  Ni  Ni2  1  1.00023193  0.00131780  0.33400950  1
  Ni  Ni3  1  1.00068966  0.33428635  1.00071540  1
  Ni  Ni4  1  0.16751775  0.50078987  0.16728934  1
  Ni  Ni5  1  0.00160965  0.33406207  0.33412918  1
  Ni  Ni6  1  1.00034519  0.66701186  0.00109735  1
  Ni  Ni7  1  0.16718941  0.83385608  0.16809855  1
  Ni  Ni8  1  1.00027263  0.66693930  0.33411650  1
  Ni  Ni9  1  0.33436380  0.00103047  0.00109783  1
  Ni  Ni10  1  0.50091293  0.16757959  0.16771436  1
  Ni  Ni11  1  0.33466049  0.00132716  0.33444141  1
  Ni  Ni12  1  0.33401622  0.33394171  1.00071172  1
  Ni  Ni13  1  0.50060303  0.50087262  0.16736572  1
  Ni  Ni14  1  0.33326772  0.33410003  0.33401594  1
  Ni  Ni15  1  0.33436379  0.66735644  0.00109753  1
  Ni  Ni16  1  0.50101107  0.83385853  0.16766052  1
  Ni  Ni17  1  0.33465113  0.66689860  0.33400950  1
  Ni  Ni18  1  0.66727504  1.00068289  1.00071172  1
  Ni  Ni19  1  0.83420595  0.16726970  0.16736572  1
  Ni  Ni20  1  0.66743336  0.99993439  0.33401594  1
  Ni  Ni21  1  0.66761815  0.33428481  0.00148315  1
  Ni  Ni22  1  0.83417038  0.50083705  0.16817038  1
  Fe  Fe23  1  0.66710896  0.33377563  0.33383815  1
  Ni  Ni24  1  0.66761968  0.66735632  1.00071540  1
  Ni  Ni25  1  0.83412321  0.83418441  0.16728934  1
  Ni  Ni26  1  0.66739540  0.66827631  0.33412918  1
  Ni  Ni27  1  0.16690164  0.16798751  0.50087660  1
  Ni  Ni28  1  1.00054170  0.00102757  0.66722559  1
  Ni  Ni29  1  0.16718898  0.16752966  0.83378858  1
  Ni  Ni30  1  0.16828505  0.50078608  0.50087017  1
  Ni  Ni31  1  0.00094974  0.33401349  0.66752039  1
  Ni  Ni32  1  0.16753655  0.50094440  0.83417438  1
  Ni  Ni33  1  0.16689228  0.83355895  0.50044470  1
  Ni  Ni34  1  1.00063985  0.66730651  0.66717174  1
  Ni  Ni35  1  0.16718897  0.83385564  0.83378828  1
  Ni  Ni36  1  0.50128014  0.16794681  0.50076960  1
  Ni  Ni37  1  0.33436336  0.00103003  0.66678756  1
  Ni  Ni38  1  0.50120758  0.16787425  0.83378876  1
  Ni  Ni39  1  0.49994313  0.50082404  0.50075693  1
  Ni  Ni40  1  0.33403503  0.33409624  0.66759677  1
  Ni  Ni41  1  0.50086312  0.50059976  0.83417071  1
  Ni  Ni42  1  0.50132085  0.83356831  0.50087660  1
  Ni  Ni43  1  0.33436091  0.66720837  0.66722559  1
  Ni  Ni44  1  0.50086300  0.83385565  0.83378858  1
  Ni  Ni45  1  0.83415737  0.16660979  0.50075693  1
  Ni  Ni46  1  0.66742957  1.00070169  0.66759677  1
  Ni  Ni47  1  0.83393309  0.16752978  0.83417071  1
  Fe  Fe48  1  0.83444381  0.50111048  0.50104795  1
  Ni  Ni49  1  0.66738239  0.33404906  0.66671573  1
  Ni  Ni50  1  0.83393463  0.50060129  0.83340296  1
  Ni  Ni51  1  0.83411941  0.83495172  0.50087017  1
  Ni  Ni52  1  0.66734682  0.66761641  0.66752039  1
  Ni  Ni53  1  0.83427773  0.83420322  0.83417438  1
" 