2479,Ni4Fe33Cr62_9,-213.378657960503, 185.870139119448,Ni4Fe33Cr62,"# generated using pymatgen
 data_Cr17Fe9Ni
_symmetry_space_group_name_H-M   'P 1'
_cell_length_a   7.55800636
_cell_length_b   7.55800636
_cell_length_c   10.68863510
_cell_angle_alpha   90.00000000
_cell_angle_beta   90.00000000
_cell_angle_gamma   90.00000000
_symmetry_Int_Tables_number   1
_chemical_formula_structural   Cr17Fe9Ni
_chemical_formula_sum   'Cr34 Fe18 Ni2'
_cell_volume   610.57182036
_cell_formula_units_Z   2
loop_
 _symmetry_equiv_pos_site_id
 _symmetry_equiv_pos_as_xyz
  1  'x, y, z'
loop_
 _atom_site_type_symbol
 _atom_site_label
 _atom_site_symmetry_multiplicity
 _atom_site_fract_x
 _atom_site_fract_y
 _atom_site_fract_z
 _atom_site_occupancy
  Fe  Fe0  1  -0.00488590  0.99364859  -0.00561964  1
  Cr  Cr1  1  0.15899668  0.16097646  0.15806372  1
  Cr  Cr2  1  -0.00539419  0.99078287  0.32718282  1
  Fe  Fe3  1  0.99339477  0.32693477  -0.00560504  1
  Cr  Cr4  1  0.15926764  0.49455785  0.15939681  1
  Cr  Cr5  1  0.99119699  0.32936370  0.32619926  1
  Cr  Cr6  1  -0.00533898  0.66195040  -0.00461643  1
  Fe  Fe7  1  0.15995952  0.82742653  0.15980990  1
  Fe  Fe8  1  0.99193737  0.66106120  0.32692451  1
  Fe  Fe9  1  0.32577993  0.99223902  0.99397996  1
  Cr  Cr10  1  0.49470508  0.15882738  0.16229530  1
  Cr  Cr11  1  0.32738730  -0.00575882  0.32825209  1
  Cr  Cr12  1  0.32732847  0.32680161  0.99346405  1
  Cr  Cr13  1  0.49427524  0.49655699  0.16102505  1
  Cr  Cr14  1  0.33077554  0.32589751  0.33043039  1
  Fe  Fe15  1  0.32664118  0.66229259  0.99396031  1
  Cr  Cr16  1  0.49527674  0.82656004  0.15993494  1
  Cr  Cr17  1  0.32705200  0.66181486  0.32734866  1
  Cr  Cr18  1  0.66086860  -0.00590507  -0.00568719  1
  Cr  Cr19  1  0.82824806  0.15997872  0.15986087  1
  Fe  Fe20  1  0.66006216  0.99353518  0.32775531  1
  Cr  Cr21  1  0.66204779  0.32816408  -0.00486646  1
  Fe  Fe22  1  0.82673435  0.49521468  0.16188408  1
  Fe  Fe23  1  0.66007209  0.32853981  0.32854113  1
  Cr  Cr24  1  0.66085894  0.65968932  -0.00575658  1
  Fe  Fe25  1  0.82760555  0.82599531  0.16198333  1
  Ni  Ni26  1  0.66364235  0.65894780  0.32746378  1
  Cr  Cr27  1  0.16228871  0.16220712  0.49439829  1
  Cr  Cr28  1  -0.00537773  0.99231566  0.66150095  1
  Cr  Cr29  1  0.15912945  0.16164060  0.82949576  1
  Cr  Cr30  1  0.16077020  0.49417718  0.49397078  1
  Cr  Cr31  1  0.99236970  0.32776833  0.66165204  1
  Cr  Cr32  1  0.16165960  0.49316847  0.82858686  1
  Fe  Fe33  1  0.16070668  0.82754707  0.49359773  1
  Cr  Cr34  1  0.99326567  0.66186325  0.65872111  1
  Fe  Fe35  1  0.16106462  0.82771115  0.82854419  1
  Ni  Ni36  1  0.49586972  0.16230883  0.49454805  1
  Cr  Cr37  1  0.32749953  -0.00531696  0.65947893  1
  Cr  Cr38  1  0.49402863  0.15950993  0.82581344  1
  Fe  Fe39  1  0.49659929  0.49221870  0.49388371  1
  Fe  Fe40  1  0.32926240  0.32680731  0.65933016  1
  Cr  Cr41  1  0.49239239  0.49618487  0.82589091  1
  Cr  Cr42  1  0.49691430  0.82753806  0.49389388  1
  Cr  Cr43  1  0.32762877  0.66071968  0.66141723  1
  Cr  Cr44  1  0.49450732  0.82625080  0.82811898  1
  Cr  Cr45  1  0.82442953  0.16006592  0.49478429  1
  Fe  Fe46  1  0.65981141  -0.00518516  0.65982742  1
  Cr  Cr47  1  0.82878649  0.15951884  0.82731125  1
  Fe  Fe48  1  0.82425352  0.49437287  0.49315285  1
  Fe  Fe49  1  0.65890887  0.32717441  0.65904057  1
  Cr  Cr50  1  0.82789414  0.49364940  0.82639996  1
  Cr  Cr51  1  0.82538981  0.82601647  0.49327029  1
  Fe  Fe52  1  0.66075534  0.65995629  0.65940946  1
  Cr  Cr53  1  0.82575796  0.82877915  0.82541759  1
" 