2175,Ni4Fe74Cr21_7,-222.824901001506, 150.32512559889,Ni4Fe74Cr21,"# generated using pymatgen
 data_Cr6Fe20Ni
_symmetry_space_group_name_H-M   'P 1'
_cell_length_a   7.48215043
_cell_length_b   7.48215043
_cell_length_c   10.58135861
_cell_angle_alpha   90.00000000
_cell_angle_beta   90.00000000
_cell_angle_gamma   90.00000000
_symmetry_Int_Tables_number   1
_chemical_formula_structural   Cr6Fe20Ni
_chemical_formula_sum   'Cr12 Fe40 Ni2'
_cell_volume   592.37170269
_cell_formula_units_Z   2
loop_
 _symmetry_equiv_pos_site_id
 _symmetry_equiv_pos_as_xyz
  1  'x, y, z'
loop_
 _atom_site_type_symbol
 _atom_site_label
 _atom_site_symmetry_multiplicity
 _atom_site_fract_x
 _atom_site_fract_y
 _atom_site_fract_z
 _atom_site_occupancy
  Fe  Fe0  1  -0.00096881  0.99838331  -0.00014227  1
  Fe  Fe1  1  0.16687688  0.16633600  0.16427644  1
  Fe  Fe2  1  0.99803364  -0.00006979  0.33340022  1
  Fe  Fe3  1  0.99720893  0.33331299  0.00117429  1
  Fe  Fe4  1  0.16739961  0.49822434  0.16394225  1
  Cr  Cr5  1  0.00068439  0.33195983  0.33149986  1
  Fe  Fe6  1  0.99634873  0.66568901  -0.00088724  1
  Cr  Cr7  1  0.16703303  0.83271766  0.16472975  1
  Cr  Cr8  1  0.99803206  0.66534576  0.33499613  1
  Fe  Fe9  1  0.33164528  0.00048914  -0.00056455  1
  Fe  Fe10  1  0.49801437  0.16735074  0.16647844  1
  Fe  Fe11  1  0.33027481  0.00217696  0.33285468  1
  Fe  Fe12  1  0.33440152  0.33200987  0.00067766  1
  Fe  Fe13  1  0.49874923  0.49740677  0.16586940  1
  Fe  Fe14  1  0.33373689  0.33261882  0.33231993  1
  Fe  Fe15  1  0.33314127  0.66424529  -0.00069428  1
  Cr  Cr16  1  0.49946903  0.83036278  0.16904230  1
  Fe  Fe17  1  0.33161461  0.66198498  0.33299281  1
  Cr  Cr18  1  0.66485526  0.99850112  0.99840297  1
  Fe  Fe19  1  0.83214345  0.16496170  0.16622712  1
  Fe  Fe20  1  0.66867787  0.00151496  0.33240241  1
  Fe  Fe21  1  0.66515778  0.33481902  -0.00041973  1
  Fe  Fe22  1  0.83091192  0.49975205  0.16353008  1
  Fe  Fe23  1  0.66530396  0.33214535  0.33280133  1
  Fe  Fe24  1  0.66709558  0.66262994  0.99843360  1
  Fe  Fe25  1  0.83265510  0.83213084  0.16592603  1
  Fe  Fe26  1  0.66638489  0.66287975  0.33260877  1
  Fe  Fe27  1  0.16663881  0.16360747  0.49913137  1
  Fe  Fe28  1  0.99812203  0.99673795  0.66360129  1
  Cr  Cr29  1  0.16530418  0.16474759  0.83368007  1
  Fe  Fe30  1  0.16812478  0.49927801  0.49976449  1
  Cr  Cr31  1  -0.00094628  0.33392006  0.66253876  1
  Cr  Cr32  1  0.16458674  0.49988298  0.83333199  1
  Fe  Fe33  1  0.16402927  0.83421514  0.49962549  1
  Fe  Fe34  1  -0.00052554  0.66742652  0.66506247  1
  Fe  Fe35  1  0.16247073  0.83183329  0.83267286  1
  Fe  Fe36  1  0.50025656  0.16702387  0.49885538  1
  Fe  Fe37  1  0.33176280  -0.00040147  0.66471521  1
  Fe  Fe38  1  0.49864724  0.16928174  0.83149452  1
  Fe  Fe39  1  0.49939633  0.49593060  0.49827026  1
  Fe  Fe40  1  0.33524070  0.33261075  0.66445783  1
  Fe  Fe41  1  0.50047705  0.49581715  0.83314447  1
  Cr  Cr42  1  0.49784843  0.83144897  0.49513119  1
  Fe  Fe43  1  0.33031701  0.66482554  0.66443833  1
  Cr  Cr44  1  0.49614824  0.83219359  0.83284094  1
  Ni  Ni45  1  0.83192536  0.16574559  0.49809386  1
  Fe  Fe46  1  0.66645426  0.00129463  0.66434905  1
  Cr  Cr47  1  0.83219286  0.16837672  0.83136812  1
  Fe  Fe48  1  0.82981036  0.49799505  0.49952092  1
  Fe  Fe49  1  0.66445930  0.33175522  0.66467955  1
  Ni  Ni50  1  0.83154296  0.49908678  0.83385372  1
  Fe  Fe51  1  0.83291635  0.83526725  0.49924132  1
  Cr  Cr52  1  0.66742325  0.66529056  0.66713754  1
  Fe  Fe53  1  0.83599507  0.83042943  0.83262074  1
" 