2671,Ni4Fe33Cr62_6,-213.683260524133, 192.403456446501,Ni4Fe33Cr62,"# generated using pymatgen
 data_Cr17Fe9Ni
_symmetry_space_group_name_H-M   'P 1'
_cell_length_a   7.54484898
_cell_length_b   7.54484898
_cell_length_c   10.67002776
_cell_angle_alpha   90.00000000
_cell_angle_beta   90.00000000
_cell_angle_gamma   90.00000000
_symmetry_Int_Tables_number   1
_chemical_formula_structural   Cr17Fe9Ni
_chemical_formula_sum   'Cr34 Fe18 Ni2'
_cell_volume   607.38862195
_cell_formula_units_Z   2
loop_
 _symmetry_equiv_pos_site_id
 _symmetry_equiv_pos_as_xyz
  1  'x, y, z'
loop_
 _atom_site_type_symbol
 _atom_site_label
 _atom_site_symmetry_multiplicity
 _atom_site_fract_x
 _atom_site_fract_y
 _atom_site_fract_z
 _atom_site_occupancy
  Fe  Fe0  1  -0.00392741  -0.00343560  0.99455579  1
  Cr  Cr1  1  0.15999652  0.16249649  0.16639678  1
  Cr  Cr2  1  -0.00485684  -0.00507958  0.32818314  1
  Cr  Cr3  1  0.99102844  0.32847155  -0.00501145  1
  Cr  Cr4  1  0.16308790  0.49354942  0.16417909  1
  Fe  Fe5  1  0.99446382  0.32767370  0.32894944  1
  Cr  Cr6  1  -0.00211777  0.66141332  0.99383362  1
  Fe  Fe7  1  0.16221235  0.82811215  0.16278210  1
  Cr  Cr8  1  0.99316924  0.65799298  0.32611056  1
  Cr  Cr9  1  0.32791390  0.99442824  -0.00350949  1
  Fe  Fe10  1  0.49401156  0.16209028  0.16071075  1
  Cr  Cr11  1  0.32941919  0.99388402  0.32987001  1
  Fe  Fe12  1  0.32556632  0.32787696  -0.00356666  1
  Cr  Cr13  1  0.49284953  0.49306813  0.16132855  1
  Ni  Ni14  1  0.32863324  0.32621404  0.32833733  1
  Cr  Cr15  1  0.32599902  0.66388221  0.99433046  1
  Cr  Cr16  1  0.49701563  0.82670887  0.16417858  1
  Fe  Fe17  1  0.32894237  0.65973050  0.32861613  1
  Fe  Fe18  1  0.66296450  -0.00309727  -0.00405997  1
  Fe  Fe19  1  0.82672104  0.16217625  0.16033209  1
  Cr  Cr20  1  0.65970312  -0.00400755  0.32970145  1
  Fe  Fe21  1  0.66038030  0.32577762  -0.00337219  1
  Fe  Fe22  1  0.82844429  0.49422245  0.16067074  1
  Cr  Cr23  1  0.66407195  0.32895002  0.32455394  1
  Cr  Cr24  1  0.66188634  0.65815459  -0.00465487  1
  Cr  Cr25  1  0.82952885  0.83075556  0.15998088  1
  Cr  Cr26  1  0.66278506  0.65966575  0.33233533  1
  Fe  Fe27  1  0.16268050  0.16295131  0.49288302  1
  Cr  Cr28  1  -0.00324007  -0.00443975  0.66185952  1
  Cr  Cr29  1  0.16098901  0.16410138  0.82453292  1
  Cr  Cr30  1  0.16302360  0.49161797  0.49269058  1
  Cr  Cr31  1  -0.00473089  0.32912793  0.65893019  1
  Fe  Fe32  1  0.16163064  0.49317767  0.82849050  1
  Cr  Cr33  1  0.15873829  0.82690046  0.49221063  1
  Cr  Cr34  1  -0.00510885  0.65975477  0.66359690  1
  Fe  Fe35  1  0.16250034  0.83009643  0.82856942  1
  Cr  Cr36  1  0.49334840  0.16560066  0.49428916  1
  Cr  Cr37  1  0.32822407  -0.00372872  0.65817770  1
  Cr  Cr38  1  0.49384604  0.16324484  0.83080692  1
  Cr  Cr39  1  0.49347672  0.49555202  0.49625418  1
  Fe  Fe40  1  0.32821980  0.32942700  0.66074832  1
  Cr  Cr41  1  0.49192561  0.49337996  0.82789832  1
  Fe  Fe42  1  0.49460619  0.82660517  0.49543680  1
  Cr  Cr43  1  0.32720977  0.66369469  0.66428218  1
  Cr  Cr44  1  0.49985788  0.82770059  0.82595177  1
  Cr  Cr45  1  0.83155457  0.15944227  0.49457244  1
  Cr  Cr46  1  0.65982503  -0.00446350  0.65853606  1
  Fe  Fe47  1  0.82675855  0.16184293  0.82922507  1
  Fe  Fe48  1  0.82839880  0.49467414  0.49547022  1
  Cr  Cr49  1  0.66324463  0.32877149  0.66289102  1
  Cr  Cr50  1  0.82583896  0.49687715  0.82688860  1
  Fe  Fe51  1  0.82779102  0.82565766  0.49610996  1
  Ni  Ni52  1  0.66200767  0.66079067  0.65734229  1
  Cr  Cr53  1  0.82907120  0.83154769  0.82717311  1
" 