3677,Ni4Fe33Cr62_14,-213.757960818725, 192.07028481361,Ni4Fe33Cr62,"# generated using pymatgen
 data_Cr17Fe9Ni
_symmetry_space_group_name_H-M   'P 1'
_cell_length_a   7.54972637
_cell_length_b   7.54972637
_cell_length_c   10.67692542
_cell_angle_alpha   90.00000000
_cell_angle_beta   90.00000000
_cell_angle_gamma   90.00000000
_symmetry_Int_Tables_number   1
_chemical_formula_structural   Cr17Fe9Ni
_chemical_formula_sum   'Cr34 Fe18 Ni2'
_cell_volume   608.56732713
_cell_formula_units_Z   2
loop_
 _symmetry_equiv_pos_site_id
 _symmetry_equiv_pos_as_xyz
  1  'x, y, z'
loop_
 _atom_site_type_symbol
 _atom_site_label
 _atom_site_symmetry_multiplicity
 _atom_site_fract_x
 _atom_site_fract_y
 _atom_site_fract_z
 _atom_site_occupancy
  Fe  Fe0  1  0.99238361  -0.00536597  0.99397685  1
  Cr  Cr1  1  0.16067656  0.16155860  0.15747959  1
  Cr  Cr2  1  -0.00261471  -0.00438402  0.32461510  1
  Fe  Fe3  1  0.99403513  0.32645541  0.99415842  1
  Cr  Cr4  1  0.16354602  0.49355998  0.16078752  1
  Cr  Cr5  1  0.99307888  0.32808196  0.32955100  1
  Cr  Cr6  1  -0.00442380  0.66216051  0.99362152  1
  Fe  Fe7  1  0.16259651  0.82520119  0.15978393  1
  Cr  Cr8  1  -0.00221632  0.66028751  0.33031479  1
  Cr  Cr9  1  0.32587178  0.99152668  -0.00540394  1
  Fe  Fe10  1  0.49413823  0.16018379  0.16032728  1
  Cr  Cr11  1  0.32861477  0.99354824  0.32567845  1
  Fe  Fe12  1  0.32877065  0.32617498  -0.00519092  1
  Cr  Cr13  1  0.49176862  0.49517388  0.15924824  1
  Cr  Cr14  1  0.32830504  0.32624676  0.32972798  1
  Fe  Fe15  1  0.32855350  0.66278758  -0.00539828  1
  Fe  Fe16  1  0.49326539  0.82687583  0.16109589  1
  Ni  Ni17  1  0.32788971  0.66347665  0.32555424  1
  Cr  Cr18  1  0.65872442  -0.00274001  -0.00543519  1
  Fe  Fe19  1  0.82851255  0.16140850  0.16004310  1
  Fe  Fe20  1  0.65903396  -0.00508104  0.32550320  1
  Cr  Cr21  1  0.66343776  0.32893035  -0.00406072  1
  Cr  Cr22  1  0.82911481  0.49706564  0.15915094  1
  Cr  Cr23  1  0.66149736  0.32514989  0.32421740  1
  Fe  Fe24  1  0.66044792  0.66463776  0.99406936  1
  Cr  Cr25  1  0.82758651  0.83039156  0.16429475  1
  Cr  Cr26  1  0.66017636  0.65841964  0.32689154  1
  Fe  Fe27  1  0.16095095  0.16230011  0.49596347  1
  Cr  Cr28  1  -0.00195517  0.99390617  0.66339940  1
  Cr  Cr29  1  0.16031767  0.16223490  0.82853716  1
  Fe  Fe30  1  0.16311750  0.49336391  0.49472182  1
  Fe  Fe31  1  -0.00376763  0.32765453  0.66048837  1
  Cr  Cr32  1  0.16287615  0.49251561  0.82902906  1
  Cr  Cr33  1  0.16118089  0.82835826  0.49166638  1
  Cr  Cr34  1  -0.00415575  0.65984041  0.65979190  1
  Ni  Ni35  1  0.15916280  0.82767168  0.83196182  1
  Cr  Cr36  1  0.49408166  0.16029577  0.49600108  1
  Cr  Cr37  1  0.32708300  0.99378341  0.66267543  1
  Cr  Cr38  1  0.49306133  0.16271197  0.82531169  1
  Cr  Cr39  1  0.49118234  0.49499797  0.49413978  1
  Fe  Fe40  1  0.32537470  0.32922624  0.65992200  1
  Cr  Cr41  1  0.49337185  0.49492380  0.83109856  1
  Cr  Cr42  1  0.49755775  0.82794150  0.49453195  1
  Cr  Cr43  1  0.32584313  0.66446940  0.66270545  1
  Fe  Fe44  1  0.49168472  0.82799633  0.82915462  1
  Cr  Cr45  1  0.82804312  0.15710604  0.49469614  1
  Fe  Fe46  1  0.66126620  0.99408707  0.66290989  1
  Fe  Fe47  1  0.82941555  0.16226060  0.82831482  1
  Cr  Cr48  1  0.82773456  0.49521317  0.49520675  1
  Cr  Cr49  1  0.66341891  0.32794035  0.66276288  1
  Fe  Fe50  1  0.83074988  0.49326024  0.82953446  1
  Cr  Cr51  1  0.82604614  0.82993325  0.49327267  1
  Cr  Cr52  1  0.66130848  0.65899376  0.66580761  1
  Cr  Cr53  1  0.82659496  0.82959856  0.82610969  1
" 