5585,Ni4Fe74Cr21_16,-222.524632917959, 150.607670183499,Ni4Fe74Cr21,"# generated using pymatgen
 data_Cr6Fe20Ni
_symmetry_space_group_name_H-M   'P 1'
_cell_length_a   7.47649788
_cell_length_b   7.47649788
_cell_length_c   10.57336470
_cell_angle_alpha   90.00000000
_cell_angle_beta   90.00000000
_cell_angle_gamma   90.00000000
_symmetry_Int_Tables_number   1
_chemical_formula_structural   Cr6Fe20Ni
_chemical_formula_sum   'Cr12 Fe40 Ni2'
_cell_volume   591.03015663
_cell_formula_units_Z   2
loop_
 _symmetry_equiv_pos_site_id
 _symmetry_equiv_pos_as_xyz
  1  'x, y, z'
loop_
 _atom_site_type_symbol
 _atom_site_label
 _atom_site_symmetry_multiplicity
 _atom_site_fract_x
 _atom_site_fract_y
 _atom_site_fract_z
 _atom_site_occupancy
  Fe  Fe0  1  0.99830566  -0.00000287  -0.00002615  1
  Fe  Fe1  1  0.16476658  0.16399690  0.16512244  1
  Fe  Fe2  1  0.00109259  0.99666016  0.33197631  1
  Fe  Fe3  1  -0.00012670  0.33127148  0.00002555  1
  Fe  Fe4  1  0.16742787  0.50200805  0.16611462  1
  Cr  Cr5  1  0.99930213  0.33195020  0.33205745  1
  Cr  Cr6  1  0.99933990  0.66867842  -0.00061272  1
  Ni  Ni7  1  0.16588672  0.83180739  0.16801155  1
  Fe  Fe8  1  -0.00019106  0.66793833  0.33085956  1
  Cr  Cr9  1  0.33035668  0.99780519  0.00016992  1
  Fe  Fe10  1  0.50010572  0.16406321  0.16442284  1
  Fe  Fe11  1  0.33242974  0.99753517  0.33160859  1
  Fe  Fe12  1  0.33176619  0.33492558  0.00005238  1
  Fe  Fe13  1  0.49816973  0.50288596  0.16481605  1
  Cr  Cr14  1  0.33358180  0.33143647  0.33119391  1
  Fe  Fe15  1  0.33314402  0.66558647  0.00131603  1
  Fe  Fe16  1  0.49898968  0.83162710  0.16688753  1
  Ni  Ni17  1  0.33354547  0.66858481  0.33130043  1
  Fe  Fe18  1  0.66840412  0.99757716  0.00041783  1
  Fe  Fe19  1  0.83309316  0.16350314  0.16505987  1
  Fe  Fe20  1  0.66424666  0.99724560  0.33182916  1
  Fe  Fe21  1  0.66685773  0.33369523  0.00064928  1
  Fe  Fe22  1  0.83245930  0.50127089  0.16512839  1
  Cr  Cr23  1  0.66489707  0.33446337  0.33346323  1
  Fe  Fe24  1  0.66408798  0.66673637  0.99904851  1
  Fe  Fe25  1  0.83272434  0.83359676  0.16695558  1
  Fe  Fe26  1  0.66512494  0.66752653  0.33283559  1
  Fe  Fe27  1  0.16675094  0.16283584  0.49903540  1
  Cr  Cr28  1  0.00162773  0.99710288  0.66871127  1
  Fe  Fe29  1  0.16477860  0.16759346  0.83397155  1
  Cr  Cr30  1  0.16508215  0.50297604  0.49911783  1
  Fe  Fe31  1  0.99895885  0.33440691  0.66761326  1
  Fe  Fe32  1  0.16663523  0.49914788  0.83243398  1
  Fe  Fe33  1  0.16685153  0.83412175  0.49705416  1
  Fe  Fe34  1  -0.00004384  0.66506984  0.66812049  1
  Fe  Fe35  1  0.16800290  0.83138292  0.83330733  1
  Fe  Fe36  1  0.49711287  0.16176470  0.49924913  1
  Fe  Fe37  1  0.33455872  0.99601668  0.66568760  1
  Cr  Cr38  1  0.50216908  0.16461690  0.83245034  1
  Fe  Fe39  1  0.49835021  0.50351943  0.49750432  1
  Cr  Cr40  1  0.33301375  0.33136848  0.66448251  1
  Fe  Fe41  1  0.49827786  0.50105350  0.83482771  1
  Fe  Fe42  1  0.49801818  0.83300065  0.49794348  1
  Fe  Fe43  1  0.33217020  0.66883985  0.66616547  1
  Fe  Fe44  1  0.49910798  0.83072062  0.83314357  1
  Cr  Cr45  1  0.83177675  0.16413924  0.50068473  1
  Fe  Fe46  1  0.66465558  0.99739042  0.66582017  1
  Fe  Fe47  1  0.83435735  0.16650534  0.83410969  1
  Fe  Fe48  1  0.83356264  0.50319959  0.49853773  1
  Cr  Cr49  1  0.66588737  0.33519558  0.66381667  1
  Fe  Fe50  1  0.83307799  0.49796073  0.83388805  1
  Fe  Fe51  1  0.83378807  0.83105587  0.49781636  1
  Cr  Cr52  1  0.66676243  0.66652936  0.66593675  1
  Fe  Fe53  1  0.83079295  0.83398458  0.83375882  1
" 