1461,Ni4Fe96_13,-241.019507636393, 185.776044740489,Ni4Fe96,"# generated using pymatgen
 data_FeNi26
_symmetry_space_group_name_H-M   'P 1'
_cell_length_a   7.45540458
_cell_length_b   7.45540458
_cell_length_c   10.54353427
_cell_angle_alpha   90.00000000
_cell_angle_beta   90.00000000
_cell_angle_gamma   90.00000000
_symmetry_Int_Tables_number   1
_chemical_formula_structural   FeNi26
_chemical_formula_sum   'Fe2 Ni52'
_cell_volume   586.04187181
_cell_formula_units_Z   2
loop_
 _symmetry_equiv_pos_site_id
 _symmetry_equiv_pos_as_xyz
  1  'x, y, z'
loop_
 _atom_site_type_symbol
 _atom_site_label
 _atom_site_symmetry_multiplicity
 _atom_site_fract_x
 _atom_site_fract_y
 _atom_site_fract_z
 _atom_site_occupancy
  Ni  Ni0  1  0.00164534  0.00078084  1.00067463  1
  Ni  Ni1  1  0.16744751  0.16658301  0.16755373  1
  Ni  Ni2  1  0.00085885  0.00078084  0.33427782  1
  Ni  Ni3  1  1.00011240  0.33344573  1.00076971  1
  Fe  Fe4  1  0.16744751  0.50078084  0.16715426  1
  Ni  Ni5  1  1.00043806  0.33377139  0.33377716  1
  Ni  Ni6  1  1.00011240  0.66811596  1.00076971  1
  Ni  Ni7  1  0.16744751  0.83497868  0.16755373  1
  Ni  Ni8  1  1.00043806  0.66779029  0.33377716  1
  Ni  Ni9  1  0.33324968  0.00078084  1.00067463  1
  Ni  Ni10  1  0.50011240  0.16811596  0.16745865  1
  Ni  Ni11  1  0.33403617  0.00078084  0.33427782  1
  Ni  Ni12  1  0.33478262  0.33344573  1.00076971  1
  Ni  Ni13  1  0.50164534  0.50078084  0.16755373  1
  Ni  Ni14  1  0.33445696  0.33377139  0.33377716  1
  Ni  Ni15  1  0.33478262  0.66811596  1.00076971  1
  Ni  Ni16  1  0.50011240  0.83344573  0.16745865  1
  Ni  Ni17  1  0.33445696  0.66779029  0.33377716  1
  Fe  Fe18  1  0.66744751  0.00078084  0.00107410  1
  Ni  Ni19  1  0.83478262  0.16811596  0.16745865  1
  Ni  Ni20  1  0.66744751  0.00078084  0.33301098  1
  Ni  Ni21  1  0.66744751  0.33497868  1.00067463  1
  Ni  Ni22  1  0.83324968  0.50078084  0.16755373  1
  Ni  Ni23  1  0.66744751  0.33419218  0.33427782  1
  Ni  Ni24  1  0.66744751  0.66658301  1.00067463  1
  Ni  Ni25  1  0.83478262  0.83344573  0.16745865  1
  Ni  Ni26  1  0.66744751  0.66736951  0.33427782  1
  Ni  Ni27  1  0.16744751  0.16753252  0.50084278  1
  Ni  Ni28  1  1.00069583  0.00078084  0.66738557  1
  Ni  Ni29  1  0.16744751  0.16736951  0.83395053  1
  Ni  Ni30  1  0.16744751  0.50078084  0.50002978  1
  Ni  Ni31  1  1.00069632  0.33402965  0.66778710  1
  Ni  Ni32  1  0.16744751  0.50078084  0.83521738  1
  Ni  Ni33  1  0.16744751  0.83402916  0.50084278  1
  Ni  Ni34  1  1.00069632  0.66753204  0.66778710  1
  Ni  Ni35  1  0.16744751  0.83419218  0.83395053  1
  Ni  Ni36  1  0.50069632  0.16753204  0.50044126  1
  Ni  Ni37  1  0.33419919  0.00078084  0.66738557  1
  Ni  Ni38  1  0.50043806  0.16779029  0.83445120  1
  Ni  Ni39  1  0.50069583  0.50078084  0.50084278  1
  Ni  Ni40  1  0.33419870  0.33402965  0.66778710  1
  Ni  Ni41  1  0.50085885  0.50078084  0.83395053  1
  Ni  Ni42  1  0.50069632  0.83402965  0.50044126  1
  Ni  Ni43  1  0.33419870  0.66753204  0.66778710  1
  Ni  Ni44  1  0.50043806  0.83377139  0.83445120  1
  Ni  Ni45  1  0.83419870  0.16753204  0.50044126  1
  Ni  Ni46  1  0.66744751  0.00078084  0.66819858  1
  Ni  Ni47  1  0.83445696  0.16779029  0.83445120  1
  Ni  Ni48  1  0.83419919  0.50078084  0.50084278  1
  Ni  Ni49  1  0.66744751  0.33402916  0.66738557  1
  Ni  Ni50  1  0.83403617  0.50078084  0.83395053  1
  Ni  Ni51  1  0.83419870  0.83402965  0.50044126  1
  Ni  Ni52  1  0.66744751  0.66753252  0.66738557  1
  Ni  Ni53  1  0.83445696  0.83377139  0.83445120  1
" 