1665,Ni4Fe74Cr21_6,-222.593763535099, 148.304682002683,Ni4Fe74Cr21,"# generated using pymatgen
 data_Cr6Fe20Ni
_symmetry_space_group_name_H-M   'P 1'
_cell_length_a   7.47228873
_cell_length_b   7.47228873
_cell_length_c   10.56741206
_cell_angle_alpha   90.00000000
_cell_angle_beta   90.00000000
_cell_angle_gamma   90.00000000
_symmetry_Int_Tables_number   1
_chemical_formula_structural   Cr6Fe20Ni
_chemical_formula_sum   'Cr12 Fe40 Ni2'
_cell_volume   590.03249623
_cell_formula_units_Z   2
loop_
 _symmetry_equiv_pos_site_id
 _symmetry_equiv_pos_as_xyz
  1  'x, y, z'
loop_
 _atom_site_type_symbol
 _atom_site_label
 _atom_site_symmetry_multiplicity
 _atom_site_fract_x
 _atom_site_fract_y
 _atom_site_fract_z
 _atom_site_occupancy
  Fe  Fe0  1  0.99913261  -0.00015374  -0.00004989  1
  Fe  Fe1  1  0.16530039  0.16765631  0.16475944  1
  Fe  Fe2  1  0.99759336  0.00115941  0.33185700  1
  Fe  Fe3  1  0.99897615  0.33226506  -0.00005678  1
  Fe  Fe4  1  0.16527474  0.49854667  0.16738962  1
  Fe  Fe5  1  -0.00024701  0.33220407  0.33268715  1
  Cr  Cr6  1  0.99808467  0.66492572  -0.00023216  1
  Fe  Fe7  1  0.16430988  0.83320252  0.16719415  1
  Fe  Fe8  1  0.99869132  0.66531020  0.33166287  1
  Fe  Fe9  1  0.33157675  0.00065672  -0.00007178  1
  Fe  Fe10  1  0.50128823  0.16712619  0.16410210  1
  Cr  Cr11  1  0.33413472  0.00310508  0.33121535  1
  Fe  Fe12  1  0.33131706  0.33300112  -0.00003384  1
  Cr  Cr13  1  0.50030545  0.49899137  0.16565648  1
  Fe  Fe14  1  0.33134762  0.33343403  0.33254745  1
  Cr  Cr15  1  0.33216712  0.66720164  0.99710563  1
  Cr  Cr16  1  0.50069958  0.83208663  0.16556419  1
  Fe  Fe17  1  0.33064960  0.66475498  0.33246328  1
  Fe  Fe18  1  0.66850095  0.99813874  -0.00028508  1
  Fe  Fe19  1  0.83245432  0.16656229  0.16587624  1
  Fe  Fe20  1  0.66920095  0.00146481  0.33284084  1
  Fe  Fe21  1  0.66889871  0.33452499  -0.00018384  1
  Fe  Fe22  1  0.83290843  0.49903102  0.16697432  1
  Fe  Fe23  1  0.66753114  0.33065187  0.33307824  1
  Ni  Ni24  1  0.66784586  0.66550434  0.99814693  1
  Fe  Fe25  1  0.83303390  0.83309470  0.16657218  1
  Fe  Fe26  1  0.66942811  0.66601373  0.33231791  1
  Fe  Fe27  1  0.16510452  0.16905685  0.49959565  1
  Fe  Fe28  1  0.99786635  0.00039904  0.66698752  1
  Fe  Fe29  1  0.16400734  0.16717677  0.83417196  1
  Fe  Fe30  1  0.16553349  0.49812351  0.49943684  1
  Fe  Fe31  1  0.00009754  0.33165735  0.66631075  1
  Fe  Fe32  1  0.16692922  0.49630579  0.83236745  1
  Cr  Cr33  1  0.16447770  0.83254243  0.49896629  1
  Cr  Cr34  1  0.99857349  0.66442914  0.66763700  1
  Fe  Fe35  1  0.16563225  0.83503508  0.83225426  1
  Fe  Fe36  1  0.50122336  0.16709833  0.50003263  1
  Cr  Cr37  1  0.33340283  0.00154293  0.66676375  1
  Cr  Cr38  1  0.50123948  0.16805463  0.83465649  1
  Cr  Cr39  1  0.49873369  0.49916476  0.50000534  1
  Fe  Fe40  1  0.33131456  0.33529904  0.66704136  1
  Fe  Fe41  1  0.49991450  0.49942385  0.83339475  1
  Cr  Cr42  1  0.50030422  0.83167747  0.49985204  1
  Ni  Ni43  1  0.33207551  0.66550356  0.66865337  1
  Fe  Fe44  1  0.50077638  0.83318803  0.83367722  1
  Fe  Fe45  1  0.83319214  0.16616518  0.49986979  1
  Fe  Fe46  1  0.66903526  0.00041119  0.66649130  1
  Fe  Fe47  1  0.83506144  0.16653420  0.83314943  1
  Fe  Fe48  1  0.83412984  0.49873768  0.49804460  1
  Fe  Fe49  1  0.66764274  0.33199950  0.66615063  1
  Fe  Fe50  1  0.83196515  0.49565432  0.83442215  1
  Fe  Fe51  1  0.83263063  0.83372129  0.49835284  1
  Cr  Cr52  1  0.66755183  0.66563025  0.66912120  1
  Fe  Fe53  1  0.83224195  0.83606938  0.83455745  1
" 