7528,Ni4Fe84Cr11_10,-223.755866205871, 138.093101143606,Ni4Fe84Cr11,"# generated using pymatgen
 data_Cr7Fe45Ni2
_symmetry_space_group_name_H-M   'P 1'
_cell_length_a   7.46005154
_cell_length_b   7.46005154
_cell_length_c   10.55010606
_cell_angle_alpha   90.00000000
_cell_angle_beta   90.00000000
_cell_angle_gamma   90.00000000
_symmetry_Int_Tables_number   1
_chemical_formula_structural   Cr7Fe45Ni2
_chemical_formula_sum   'Cr7 Fe45 Ni2'
_cell_volume   587.13839494
_cell_formula_units_Z   1
loop_
 _symmetry_equiv_pos_site_id
 _symmetry_equiv_pos_as_xyz
  1  'x, y, z'
loop_
 _atom_site_type_symbol
 _atom_site_label
 _atom_site_symmetry_multiplicity
 _atom_site_fract_x
 _atom_site_fract_y
 _atom_site_fract_z
 _atom_site_occupancy
  Fe  Fe0  1  0.00325853  1.00046884  0.00204801  1
  Fe  Fe1  1  0.16749055  0.16673938  0.16626721  1
  Cr  Cr2  1  1.00002794  0.99973878  0.33248191  1
  Fe  Fe3  1  0.00168539  0.33356914  0.00192833  1
  Fe  Fe4  1  0.16632690  0.50110058  0.16633307  1
  Fe  Fe5  1  0.99833826  0.33593009  0.33308905  1
  Fe  Fe6  1  0.00172412  0.66736897  0.00185083  1
  Fe  Fe7  1  0.16822098  0.83356598  0.16674242  1
  Fe  Fe8  1  0.00053874  0.66610400  0.33382229  1
  Fe  Fe9  1  0.33234811  0.00048932  0.00107576  1
  Fe  Fe10  1  0.50003077  0.16674785  0.16748250  1
  Ni  Ni11  1  0.33576245  0.99883845  0.33260782  1
  Fe  Fe12  1  0.33401793  0.33364153  0.00059035  1
  Fe  Fe13  1  0.50166360  0.50156326  0.16671653  1
  Cr  Cr14  1  0.33412921  0.33411588  0.33341908  1
  Fe  Fe15  1  0.33396017  0.66727604  1.00033715  1
  Fe  Fe16  1  0.49976404  0.83309360  0.16863498  1
  Fe  Fe17  1  0.33433851  0.66951746  0.33382214  1
  Cr  Cr18  1  0.66676759  0.99981494  0.00215916  1
  Fe  Fe19  1  0.83388754  0.16864228  0.16681366  1
  Fe  Fe20  1  0.66475534  0.99993381  0.33360584  1
  Fe  Fe21  1  0.66570364  0.33517593  0.00184949  1
  Fe  Fe22  1  0.83341685  0.50083264  0.16728447  1
  Fe  Fe23  1  0.66816708  0.33370986  0.33380106  1
  Fe  Fe24  1  0.66572278  0.66569898  0.00249120  1
  Fe  Fe25  1  0.83342547  0.83193021  0.16721616  1
  Ni  Ni26  1  0.66770166  0.66690060  0.33347327  1
  Cr  Cr27  1  0.16762842  0.16691518  0.50153534  1
  Fe  Fe28  1  0.00109370  0.99974981  0.66628971  1
  Fe  Fe29  1  0.16814886  0.16711218  0.83360590  1
  Fe  Fe30  1  0.16632860  0.50254765  0.50129206  1
  Fe  Fe31  1  0.00118606  0.33450636  0.66639190  1
  Fe  Fe32  1  0.16813143  0.50044797  0.83378060  1
  Fe  Fe33  1  0.16821918  0.83210065  0.50085795  1
  Fe  Fe34  1  0.00195902  0.66715079  0.66573644  1
  Fe  Fe35  1  0.16814444  0.83384660  0.83380117  1
  Fe  Fe36  1  0.50219539  0.16602922  0.50085886  1
  Fe  Fe37  1  0.33451869  0.99977392  0.66726608  1
  Fe  Fe38  1  0.49872690  0.16784933  0.83306485  1
  Fe  Fe39  1  0.50142624  0.50134699  0.50086782  1
  Fe  Fe40  1  0.33451855  0.33457303  0.66772995  1
  Fe  Fe41  1  0.49948990  0.50046881  0.83382168  1
  Fe  Fe42  1  0.50026524  0.83402977  0.49968529  1
  Fe  Fe43  1  0.33372228  0.66705928  0.66724737  1
  Fe  Fe44  1  0.49874558  0.83308773  0.83308559  1
  Fe  Fe45  1  0.83172427  0.16791901  0.50152854  1
  Fe  Fe46  1  0.66579585  0.00054795  0.66600284  1
  Cr  Cr47  1  0.83512360  0.16793686  0.83247752  1
  Fe  Fe48  1  0.83365363  0.50061696  0.50029869  1
  Fe  Fe49  1  0.66570218  0.33370714  0.66575598  1
  Cr  Cr50  1  0.83286303  0.50087356  0.83473877  1
  Fe  Fe51  1  0.83292373  0.83286874  0.50110489  1
  Fe  Fe52  1  0.66572468  0.66715159  0.66513726  1
  Cr  Cr53  1  0.83418713  0.83259524  0.83341394  1
" 