2084,Ni4Fe84Cr11_8,-223.380440457161, 141.451696990228,Ni4Fe84Cr11,"# generated using pymatgen
 data_Cr7Fe45Ni2
_symmetry_space_group_name_H-M   'P 1'
_cell_length_a   7.45291005
_cell_length_b   7.45291005
_cell_length_c   10.54000648
_cell_angle_alpha   90.00000000
_cell_angle_beta   90.00000000
_cell_angle_gamma   90.00000000
_symmetry_Int_Tables_number   1
_chemical_formula_structural   Cr7Fe45Ni2
_chemical_formula_sum   'Cr7 Fe45 Ni2'
_cell_volume   585.45381155
_cell_formula_units_Z   1
loop_
 _symmetry_equiv_pos_site_id
 _symmetry_equiv_pos_as_xyz
  1  'x, y, z'
loop_
 _atom_site_type_symbol
 _atom_site_label
 _atom_site_symmetry_multiplicity
 _atom_site_fract_x
 _atom_site_fract_y
 _atom_site_fract_z
 _atom_site_occupancy
  Fe  Fe0  1  0.00199390  0.99988576  0.00134010  1
  Fe  Fe1  1  0.16813603  0.16711641  0.16856583  1
  Fe  Fe2  1  1.00037616  1.00002335  0.33349462  1
  Cr  Cr3  1  0.00145155  0.33274401  0.99942267  1
  Fe  Fe4  1  0.16903442  0.50086239  0.16826578  1
  Fe  Fe5  1  0.00150898  0.33483411  0.33441629  1
  Fe  Fe6  1  0.00273440  0.66937809  1.00060605  1
  Fe  Fe7  1  0.16666377  0.83485885  0.16626973  1
  Fe  Fe8  1  1.00057925  0.66799099  0.33538558  1
  Fe  Fe9  1  0.33371824  1.00077126  1.00060204  1
  Fe  Fe10  1  0.50111751  0.16783216  0.16766074  1
  Fe  Fe11  1  0.33433018  0.00237971  0.33279695  1
  Fe  Fe12  1  0.33576481  0.33432707  0.00104891  1
  Fe  Fe13  1  0.50029004  0.50023274  0.16684309  1
  Fe  Fe14  1  0.33464883  0.33392822  0.33389444  1
  Fe  Fe15  1  0.33373943  0.66774805  1.00079127  1
  Fe  Fe16  1  0.50195654  0.83477887  0.16714944  1
  Cr  Cr17  1  0.33368820  0.66651599  0.33463932  1
  Fe  Fe18  1  0.66713610  0.00191557  0.00172213  1
  Fe  Fe19  1  0.83359335  0.16546068  0.16832840  1
  Fe  Fe20  1  0.66814505  0.00145531  0.33358793  1
  Fe  Fe21  1  0.66550029  0.33358987  1.00018888  1
  Cr  Cr22  1  0.83358765  0.50254116  0.16803822  1
  Fe  Fe23  1  0.66668617  0.33372334  0.33498185  1
  Fe  Fe24  1  0.66637077  0.66734348  1.00081678  1
  Fe  Fe25  1  0.83422663  0.83569117  0.16748023  1
  Fe  Fe26  1  0.66904330  0.66767400  0.33444122  1
  Cr  Cr27  1  0.16864905  0.16842402  0.50068757  1
  Fe  Fe28  1  0.00103026  1.00039464  0.66801284  1
  Fe  Fe29  1  0.16811885  0.16593531  0.83340362  1
  Ni  Ni30  1  0.16595775  0.50087269  0.50162490  1
  Fe  Fe31  1  1.00028978  0.33554557  0.66815790  1
  Fe  Fe32  1  0.16809524  0.50257084  0.83296792  1
  Fe  Fe33  1  0.16544575  0.83287332  0.50228572  1
  Fe  Fe34  1  0.00382251  0.66690983  0.66686559  1
  Ni  Ni35  1  0.16909410  0.83444326  0.83339530  1
  Fe  Fe36  1  0.50179179  0.16963464  0.50094956  1
  Fe  Fe37  1  0.33419225  1.00036215  0.66944455  1
  Fe  Fe38  1  0.50058597  0.16682817  0.83423499  1
  Fe  Fe39  1  0.50005552  0.49786385  0.50092122  1
  Fe  Fe40  1  0.33491826  0.33557209  0.66790191  1
  Fe  Fe41  1  0.49994337  0.50101796  0.83507989  1
  Cr  Cr42  1  0.50138857  0.83627282  0.50209767  1
  Fe  Fe43  1  0.33141112  0.66691787  0.66811809  1
  Fe  Fe44  1  0.49811810  0.83499707  0.83478535  1
  Fe  Fe45  1  0.83321038  0.16797817  0.50096981  1
  Fe  Fe46  1  0.66763024  0.00389806  0.66754684  1
  Fe  Fe47  1  0.83413993  0.16777153  0.83353978  1
  Fe  Fe48  1  0.83568816  0.50026878  0.50001450  1
  Fe  Fe49  1  0.66763688  0.33276159  0.66767586  1
  Fe  Fe50  1  0.83480122  0.50009491  0.83455317  1
  Fe  Fe51  1  0.83717398  0.83459684  0.50034079  1
  Cr  Cr52  1  0.66672237  0.66647226  0.66672444  1
  Cr  Cr53  1  0.83528384  0.83433595  0.83613851  1
" 