2652,Ni4Fe74Cr21_10,-222.596258490804, 151.775652601022,Ni4Fe74Cr21,"# generated using pymatgen
 data_Cr6Fe20Ni
_symmetry_space_group_name_H-M   'P 1'
_cell_length_a   7.47669480
_cell_length_b   7.47669480
_cell_length_c   10.57364318
_cell_angle_alpha   90.00000000
_cell_angle_beta   90.00000000
_cell_angle_gamma   90.00000000
_symmetry_Int_Tables_number   1
_chemical_formula_structural   Cr6Fe20Ni
_chemical_formula_sum   'Cr12 Fe40 Ni2'
_cell_volume   591.07685829
_cell_formula_units_Z   2
loop_
 _symmetry_equiv_pos_site_id
 _symmetry_equiv_pos_as_xyz
  1  'x, y, z'
loop_
 _atom_site_type_symbol
 _atom_site_label
 _atom_site_symmetry_multiplicity
 _atom_site_fract_x
 _atom_site_fract_y
 _atom_site_fract_z
 _atom_site_occupancy
  Fe  Fe0  1  0.00019778  0.99827148  0.00030781  1
  Fe  Fe1  1  0.16288579  0.16563490  0.16484308  1
  Fe  Fe2  1  0.99718148  0.00034886  0.33175501  1
  Fe  Fe3  1  0.99659009  0.33303842  0.00016504  1
  Fe  Fe4  1  0.16253939  0.49999614  0.16515197  1
  Fe  Fe5  1  0.99885267  0.33187094  0.33267272  1
  Fe  Fe6  1  0.99910701  0.66645319  0.99842619  1
  Fe  Fe7  1  0.16371647  0.83246757  0.16450079  1
  Fe  Fe8  1  0.99597370  0.66591391  0.33287727  1
  Fe  Fe9  1  0.33162947  0.99678110  0.00051459  1
  Fe  Fe10  1  0.50151365  0.16463794  0.16570881  1
  Cr  Cr11  1  0.33365959  0.00066312  0.32993091  1
  Cr  Cr12  1  0.33318954  0.33296858  0.00161473  1
  Fe  Fe13  1  0.50154511  0.50113337  0.16434554  1
  Cr  Cr14  1  0.33148325  0.33342962  0.33488667  1
  Fe  Fe15  1  0.33200891  0.66921569  0.00076444  1
  Fe  Fe16  1  0.50158636  0.83236759  0.16596729  1
  Cr  Cr17  1  0.33007494  0.66394203  0.33152007  1
  Cr  Cr18  1  0.66729905  -0.00023367  0.99802569  1
  Fe  Fe19  1  0.83401903  0.16534296  0.16627017  1
  Ni  Ni20  1  0.67009868  0.99843771  0.33310591  1
  Fe  Fe21  1  0.66902452  0.33376816  0.00015245  1
  Fe  Fe22  1  0.83365650  0.50022072  0.16518126  1
  Cr  Cr23  1  0.66540696  0.33161555  0.33224548  1
  Fe  Fe24  1  0.66729349  0.66579797  0.00049269  1
  Fe  Fe25  1  0.83303431  0.83241985  0.16699482  1
  Fe  Fe26  1  0.66758381  0.66742999  0.33163922  1
  Fe  Fe27  1  0.16286622  0.16571939  0.50000362  1
  Fe  Fe28  1  0.99672534  0.99906479  0.66631997  1
  Cr  Cr29  1  0.16372949  0.16484206  0.83221386  1
  Fe  Fe30  1  0.16180206  0.50060487  0.50054032  1
  Fe  Fe31  1  0.99818697  0.33483312  0.66513184  1
  Fe  Fe32  1  0.16382150  0.50150186  0.83234555  1
  Cr  Cr33  1  0.16439453  0.83434493  0.50026448  1
  Ni  Ni34  1  0.99868930  0.66734769  0.66731156  1
  Fe  Fe35  1  0.16588620  0.83008248  0.83193034  1
  Fe  Fe36  1  0.50116578  0.16283125  0.49917354  1
  Fe  Fe37  1  0.33303267  0.99811263  0.66696729  1
  Fe  Fe38  1  0.49903390  0.16415408  0.83242361  1
  Fe  Fe39  1  0.50119650  0.50096423  0.50019419  1
  Cr  Cr40  1  0.33230765  0.33304471  0.66167860  1
  Cr  Cr41  1  0.50115164  0.50209608  0.83359972  1
  Cr  Cr42  1  0.50175614  0.83133436  0.50041698  1
  Fe  Fe43  1  0.33097072  0.66635684  0.66687680  1
  Fe  Fe44  1  0.49815736  0.83431980  0.83142227  1
  Fe  Fe45  1  0.83406878  0.16319791  0.49893943  1
  Fe  Fe46  1  0.66825115  0.99747336  0.66669144  1
  Fe  Fe47  1  0.83248732  0.16637003  0.83288015  1
  Fe  Fe48  1  0.83455082  0.50203551  0.50002450  1
  Cr  Cr49  1  0.66672286  0.32996697  0.66698550  1
  Fe  Fe50  1  0.83621660  0.50021694  0.83306044  1
  Fe  Fe51  1  0.83339224  0.83244457  0.49960616  1
  Fe  Fe52  1  0.66944797  0.66653383  0.66655503  1
  Fe  Fe53  1  0.83399860  0.83143389  0.83154409  1
" 