8975,Ni4Fe33Cr62_11,-213.642580025319, 185.818936972223,Ni4Fe33Cr62,"# generated using pymatgen
 data_Cr17Fe9Ni
_symmetry_space_group_name_H-M   'P 1'
_cell_length_a   7.55856623
_cell_length_b   7.55856623
_cell_length_c   10.68942688
_cell_angle_alpha   90.00000000
_cell_angle_beta   90.00000000
_cell_angle_gamma   90.00000000
_symmetry_Int_Tables_number   1
_chemical_formula_structural   Cr17Fe9Ni
_chemical_formula_sum   'Cr34 Fe18 Ni2'
_cell_volume   610.70751865
_cell_formula_units_Z   2
loop_
 _symmetry_equiv_pos_site_id
 _symmetry_equiv_pos_as_xyz
  1  'x, y, z'
loop_
 _atom_site_type_symbol
 _atom_site_label
 _atom_site_symmetry_multiplicity
 _atom_site_fract_x
 _atom_site_fract_y
 _atom_site_fract_z
 _atom_site_occupancy
  Fe  Fe0  1  0.99261210  -0.00463694  0.99379088  1
  Cr  Cr1  1  0.16157974  0.16101497  0.16036225  1
  Cr  Cr2  1  -0.00460842  0.99268812  0.32881578  1
  Cr  Cr3  1  0.99148891  0.32725301  0.99270295  1
  Cr  Cr4  1  0.16245612  0.49422476  0.15902258  1
  Cr  Cr5  1  0.99302618  0.32801150  0.32794665  1
  Cr  Cr6  1  0.99289951  0.66046157  -0.00512004  1
  Cr  Cr7  1  0.16140401  0.82657055  0.15803156  1
  Cr  Cr8  1  0.99384932  0.66112729  0.32823954  1
  Cr  Cr9  1  0.32924926  0.99365982  -0.00351993  1
  Fe  Fe10  1  0.49572265  0.16055417  0.16189194  1
  Cr  Cr11  1  0.32985807  0.99290404  0.32743789  1
  Cr  Cr12  1  0.33072459  0.32729220  -0.00589152  1
  Fe  Fe13  1  0.49452054  0.49501742  0.16090882  1
  Cr  Cr14  1  0.33031544  0.32699918  0.32645386  1
  Fe  Fe15  1  0.33060380  0.65904631  0.99346118  1
  Fe  Fe16  1  0.49484135  0.82618283  0.16113832  1
  Cr  Cr17  1  0.32862119  0.66193751  0.32892782  1
  Cr  Cr18  1  0.65948255  -0.00465636  0.99320586  1
  Cr  Cr19  1  0.82516144  0.15989132  0.16192913  1
  Fe  Fe20  1  0.65922128  0.99329572  0.32689582  1
  Cr  Cr21  1  0.65971122  0.32783493  0.99378723  1
  Cr  Cr22  1  0.82510559  0.49467365  0.16427687  1
  Fe  Fe23  1  0.65864423  0.32753158  0.32770525  1
  Cr  Cr24  1  0.65918436  0.65888585  0.99330207  1
  Cr  Cr25  1  0.82460390  0.82737797  0.16104944  1
  Fe  Fe26  1  0.65732741  0.66101448  0.32739791  1
  Cr  Cr27  1  0.16148298  0.16207527  0.49511555  1
  Fe  Fe28  1  0.99230092  -0.00506416  0.66052354  1
  Cr  Cr29  1  0.15991919  0.16062827  0.82646962  1
  Cr  Cr30  1  0.16311491  0.49299181  0.49555311  1
  Fe  Fe31  1  0.99191893  0.32678041  0.66091715  1
  Cr  Cr32  1  0.16434607  0.49385961  0.82755980  1
  Fe  Fe33  1  0.16110784  0.82715703  0.49484096  1
  Cr  Cr34  1  -0.00592388  0.66148822  0.65875801  1
  Cr  Cr35  1  0.16120263  0.82730990  0.82947428  1
  Cr  Cr36  1  0.49537338  0.16094235  0.49328891  1
  Cr  Cr37  1  0.32750719  0.99193358  0.65765539  1
  Cr  Cr38  1  0.49431560  0.16161946  0.82542758  1
  Fe  Fe39  1  0.49554746  0.49394074  0.49643776  1
  Fe  Fe40  1  0.33025418  0.32900622  0.66089642  1
  Ni  Ni41  1  0.49411768  0.49356860  0.82437018  1
  Fe  Fe42  1  0.49491150  0.82544383  0.49486493  1
  Fe  Fe43  1  0.33030784  0.65867183  0.66013283  1
  Cr  Cr44  1  0.49424765  0.82498168  0.82636370  1
  Cr  Cr45  1  0.82528242  0.16053984  0.49535924  1
  Fe  Fe46  1  0.66106977  -0.00507566  0.66079857  1
  Fe  Fe47  1  0.82599659  0.16170644  0.82454978  1
  Cr  Cr48  1  0.82428964  0.49414788  0.49208880  1
  Ni  Ni49  1  0.65956573  0.32832784  0.66091621  1
  Cr  Cr50  1  0.82546891  0.49411521  0.82545126  1
  Cr  Cr51  1  0.82301445  0.82725446  0.49331878  1
  Fe  Fe52  1  0.65824616  0.65876804  0.66037310  1
  Cr  Cr53  1  0.82649368  0.82980962  0.82743019  1
" 