8367,Ni4Fe33Cr62_3,-213.479183934992, 185.870775157832,Ni4Fe33Cr62,"# generated using pymatgen
 data_Cr17Fe9Ni
_symmetry_space_group_name_H-M   'P 1'
_cell_length_a   7.54843953
_cell_length_b   7.54843953
_cell_length_c   10.67510556
_cell_angle_alpha   90.00000000
_cell_angle_beta   90.00000000
_cell_angle_gamma   90.00000000
_symmetry_Int_Tables_number   1
_chemical_formula_structural   Cr17Fe9Ni
_chemical_formula_sum   'Cr34 Fe18 Ni2'
_cell_volume   608.25619291
_cell_formula_units_Z   2
loop_
 _symmetry_equiv_pos_site_id
 _symmetry_equiv_pos_as_xyz
  1  'x, y, z'
loop_
 _atom_site_type_symbol
 _atom_site_label
 _atom_site_symmetry_multiplicity
 _atom_site_fract_x
 _atom_site_fract_y
 _atom_site_fract_z
 _atom_site_occupancy
  Cr  Cr0  1  -0.00518629  0.99265867  0.99432851  1
  Cr  Cr1  1  0.16094091  0.15836262  0.16017714  1
  Cr  Cr2  1  -0.00298658  0.99161636  0.32810553  1
  Cr  Cr3  1  -0.00330845  0.32990552  0.99223214  1
  Cr  Cr4  1  0.16129682  0.49949528  0.15959106  1
  Cr  Cr5  1  -0.00356268  0.33070497  0.32881610  1
  Cr  Cr6  1  -0.00467570  0.66145374  -0.00425822  1
  Ni  Ni7  1  0.16426871  0.82585092  0.16378927  1
  Fe  Fe8  1  -0.00381620  0.66258087  0.32995135  1
  Cr  Cr9  1  0.32914185  0.99255111  -0.00042726  1
  Cr  Cr10  1  0.49569668  0.16193129  0.16607650  1
  Fe  Fe11  1  0.32623081  0.99205322  0.32726914  1
  Cr  Cr12  1  0.32654814  0.33016964  0.99284485  1
  Cr  Cr13  1  0.49586069  0.49663029  0.16098020  1
  Cr  Cr14  1  0.32619827  0.32714040  0.32839492  1
  Fe  Fe15  1  0.32800174  0.66316526  0.99449892  1
  Fe  Fe16  1  0.49232344  0.82654339  0.16193863  1
  Cr  Cr17  1  0.32490911  0.66296946  0.32681211  1
  Cr  Cr18  1  0.65996925  0.99120442  0.99287470  1
  Cr  Cr19  1  0.82704648  0.16264194  0.16008693  1
  Cr  Cr20  1  0.65964006  0.99308385  0.32732910  1
  Cr  Cr21  1  0.66057563  0.32916582  0.99460647  1
  Cr  Cr22  1  0.82664161  0.49523519  0.16407739  1
  Fe  Fe23  1  0.66218420  0.32884048  0.32940256  1
  Cr  Cr24  1  0.65937426  0.66358060  0.98915653  1
  Cr  Cr25  1  0.83064458  0.82592376  0.16123762  1
  Cr  Cr26  1  0.66336003  0.66223409  0.33108707  1
  Cr  Cr27  1  0.16186090  0.15867866  0.49999095  1
  Fe  Fe28  1  0.99355382  0.99200390  0.66145662  1
  Cr  Cr29  1  0.16062906  0.16125328  0.82407286  1
  Fe  Fe30  1  0.16117679  0.49528550  0.49552254  1
  Fe  Fe31  1  -0.00515553  0.33005169  0.66122493  1
  Fe  Fe32  1  0.16139900  0.49624404  0.82580449  1
  Fe  Fe33  1  0.16102276  0.82728080  0.49467497  1
  Cr  Cr34  1  -0.00520006  0.66041135  0.65650158  1
  Cr  Cr35  1  0.16169310  0.82632268  0.82717287  1
  Cr  Cr36  1  0.49350724  0.16130394  0.49342206  1
  Fe  Fe37  1  0.32723619  0.99227257  0.66144770  1
  Cr  Cr38  1  0.49299217  0.16229873  0.82511335  1
  Cr  Cr39  1  0.49474564  0.49497113  0.49466171  1
  Fe  Fe40  1  0.32618922  0.33143372  0.66164317  1
  Fe  Fe41  1  0.49248620  0.49743385  0.82682566  1
  Cr  Cr42  1  0.49136557  0.82746569  0.49629391  1
  Fe  Fe43  1  0.32770575  0.66013139  0.66171741  1
  Fe  Fe44  1  0.49323510  0.82723343  0.82694863  1
  Cr  Cr45  1  0.82835810  0.16162428  0.49515030  1
  Cr  Cr46  1  0.66201485  0.99160083  0.66342010  1
  Cr  Cr47  1  0.82988644  0.15983678  0.82841681  1
  Fe  Fe48  1  0.82938513  0.49522158  0.49403810  1
  Cr  Cr49  1  0.66116542  0.32990528  0.66068510  1
  Fe  Fe50  1  0.82971088  0.49623162  0.82697207  1
  Fe  Fe51  1  0.82961098  0.82771706  0.49535911  1
  Cr  Cr52  1  0.66196848  0.66258836  0.66386875  1
  Ni  Ni53  1  0.82900881  0.82437407  0.82548435  1
" 