656,Ni4Fe74Cr21_19,-222.336729601588, 149.601842410994,Ni4Fe74Cr21,"# generated using pymatgen
 data_Cr6Fe20Ni
_symmetry_space_group_name_H-M   'P 1'
_cell_length_a   7.47959442
_cell_length_b   7.47959442
_cell_length_c   10.57774387
_cell_angle_alpha   90.00000000
_cell_angle_beta   90.00000000
_cell_angle_gamma   90.00000000
_symmetry_Int_Tables_number   1
_chemical_formula_structural   Cr6Fe20Ni
_chemical_formula_sum   'Cr12 Fe40 Ni2'
_cell_volume   591.76482208
_cell_formula_units_Z   2
loop_
 _symmetry_equiv_pos_site_id
 _symmetry_equiv_pos_as_xyz
  1  'x, y, z'
loop_
 _atom_site_type_symbol
 _atom_site_label
 _atom_site_symmetry_multiplicity
 _atom_site_fract_x
 _atom_site_fract_y
 _atom_site_fract_z
 _atom_site_occupancy
  Fe  Fe0  1  -0.00038224  0.99751771  -0.00012912  1
  Fe  Fe1  1  0.16538512  0.16804959  0.16490651  1
  Fe  Fe2  1  0.99716361  -0.00017105  0.33314494  1
  Fe  Fe3  1  0.99891100  0.33446535  0.00052393  1
  Fe  Fe4  1  0.16407959  0.49826343  0.16565364  1
  Fe  Fe5  1  -0.00061467  0.33088841  0.33113425  1
  Ni  Ni6  1  0.99888342  0.66385432  0.99796681  1
  Cr  Cr7  1  0.16435555  0.83214779  0.16505318  1
  Fe  Fe8  1  0.99861256  0.66676407  0.33112446  1
  Fe  Fe9  1  0.33106676  0.99771518  0.00017871  1
  Fe  Fe10  1  0.49889290  0.16570242  0.16623840  1
  Cr  Cr11  1  0.33367501  0.00035917  0.33317689  1
  Fe  Fe12  1  0.33065443  0.33306102  0.00040909  1
  Cr  Cr13  1  0.49947294  0.49921327  0.16756275  1
  Fe  Fe14  1  0.33291684  0.33201806  0.33319348  1
  Fe  Fe15  1  0.33120753  0.66671849  0.99853408  1
  Fe  Fe16  1  0.50037102  0.83238216  0.16591012  1
  Fe  Fe17  1  0.33317795  0.66535316  0.33312973  1
  Cr  Cr18  1  0.66443467  0.99803901  0.00119066  1
  Fe  Fe19  1  0.83321754  0.16651173  0.16632320  1
  Fe  Fe20  1  0.66685681  -0.00045103  0.33264877  1
  Fe  Fe21  1  0.66797404  0.33455423  0.00036071  1
  Fe  Fe22  1  0.83451291  0.49985681  0.16566629  1
  Fe  Fe23  1  0.66521455  0.33037743  0.33317747  1
  Fe  Fe24  1  0.66812206  0.66579307  -0.00077502  1
  Fe  Fe25  1  0.83202984  0.83105235  0.16611300  1
  Fe  Fe26  1  0.66565299  0.66754430  0.33251431  1
  Fe  Fe27  1  0.16496143  0.16463588  0.49932186  1
  Fe  Fe28  1  -0.00079815  0.99811022  0.66434761  1
  Cr  Cr29  1  0.16479012  0.16383588  0.83327015  1
  Cr  Cr30  1  0.16679615  0.50078358  0.49743068  1
  Fe  Fe31  1  -0.00070386  0.33264457  0.66571260  1
  Fe  Fe32  1  0.16348436  0.50102095  0.83330989  1
  Fe  Fe33  1  0.16552187  0.83368382  0.49961856  1
  Fe  Fe34  1  -0.00080870  0.66671923  0.66785088  1
  Fe  Fe35  1  0.16564013  0.83084855  0.83314442  1
  Ni  Ni36  1  0.50029172  0.16416776  0.49824133  1
  Fe  Fe37  1  0.33316932  0.99705568  0.66380803  1
  Cr  Cr38  1  0.49872824  0.16448274  0.83464033  1
  Fe  Fe39  1  0.49923750  0.49971394  0.49764421  1
  Cr  Cr40  1  0.33173359  0.33199383  0.66290663  1
  Cr  Cr41  1  0.50010072  0.50161503  0.83279301  1
  Fe  Fe42  1  0.49987113  0.83210214  0.49983455  1
  Fe  Fe43  1  0.33266222  0.66838483  0.66578515  1
  Fe  Fe44  1  0.49844526  0.83232340  0.83182523  1
  Fe  Fe45  1  0.83261513  0.16395614  0.49868160  1
  Fe  Fe46  1  0.66512491  0.99700870  0.66423086  1
  Cr  Cr47  1  0.83388429  0.16604879  0.83107041  1
  Cr  Cr48  1  0.83154153  0.49975962  0.49895474  1
  Cr  Cr49  1  0.66650848  0.33201780  0.66479519  1
  Fe  Fe50  1  0.83496857  0.50117239  0.83332766  1
  Fe  Fe51  1  0.83209344  0.83431588  0.49913789  1
  Fe  Fe52  1  0.66565818  0.66842914  0.66581814  1
  Fe  Fe53  1  0.83334593  0.83029731  0.83227538  1
" 