7428,Ni4Fe74Cr21_8,-222.554917846484, 149.246575394316,Ni4Fe74Cr21,"# generated using pymatgen
 data_Cr6Fe20Ni
_symmetry_space_group_name_H-M   'P 1'
_cell_length_a   7.47770914
_cell_length_b   7.47770914
_cell_length_c   10.57507768
_cell_angle_alpha   90.00000000
_cell_angle_beta   90.00000000
_cell_angle_gamma   90.00000000
_symmetry_Int_Tables_number   1
_chemical_formula_structural   Cr6Fe20Ni
_chemical_formula_sum   'Cr12 Fe40 Ni2'
_cell_volume   591.31745980
_cell_formula_units_Z   2
loop_
 _symmetry_equiv_pos_site_id
 _symmetry_equiv_pos_as_xyz
  1  'x, y, z'
loop_
 _atom_site_type_symbol
 _atom_site_label
 _atom_site_symmetry_multiplicity
 _atom_site_fract_x
 _atom_site_fract_y
 _atom_site_fract_z
 _atom_site_occupancy
  Fe  Fe0  1  -0.00003153  0.00036165  -0.00066570  1
  Fe  Fe1  1  0.16703980  0.16599233  0.16564669  1
  Fe  Fe2  1  0.00017885  0.00067733  0.33185803  1
  Fe  Fe3  1  0.00097032  0.33043268  0.99896285  1
  Fe  Fe4  1  0.16734199  0.49706359  0.16637885  1
  Cr  Cr5  1  0.99750663  0.33290181  0.33356186  1
  Cr  Cr6  1  0.99859063  0.66582909  0.00122738  1
  Fe  Fe7  1  0.16787880  0.83545601  0.16631742  1
  Cr  Cr8  1  0.00084723  0.66750259  0.33085769  1
  Fe  Fe9  1  0.33095244  0.00074050  0.99835286  1
  Fe  Fe10  1  0.49757713  0.16485713  0.16759750  1
  Fe  Fe11  1  0.33221929  0.99862790  0.33412267  1
  Fe  Fe12  1  0.33086889  0.33094956  0.99764072  1
  Cr  Cr13  1  0.49766009  0.49963611  0.16748390  1
  Fe  Fe14  1  0.33320979  0.33058794  0.33397613  1
  Cr  Cr15  1  0.33105871  0.66718103  0.99712418  1
  Fe  Fe16  1  0.49895259  0.83381514  0.16826537  1
  Fe  Fe17  1  0.33416630  0.66817445  0.33342629  1
  Cr  Cr18  1  0.66422262  0.99845691  0.99910896  1
  Fe  Fe19  1  0.83280411  0.16419281  0.16664475  1
  Fe  Fe20  1  0.66541864  -0.00021146  0.33244577  1
  Cr  Cr21  1  0.66577862  0.33024290  0.99770233  1
  Cr  Cr22  1  0.83060976  0.49989293  0.16587723  1
  Fe  Fe23  1  0.66453868  0.33118527  0.33414223  1
  Fe  Fe24  1  0.66508318  0.66694826  0.99750550  1
  Fe  Fe25  1  0.83106990  0.83511854  0.16714563  1
  Fe  Fe26  1  0.66466280  0.66725400  0.33399215  1
  Fe  Fe27  1  0.16552489  0.16216593  0.49889953  1
  Fe  Fe28  1  -0.00012144  -0.00028620  0.66672754  1
  Fe  Fe29  1  0.16477907  0.16559404  0.83327956  1
  Cr  Cr30  1  0.16740367  0.49894170  0.50007233  1
  Fe  Fe31  1  0.99842505  0.33218999  0.66574397  1
  Fe  Fe32  1  0.16405917  0.49877879  0.83042798  1
  Fe  Fe33  1  0.16756995  0.83290868  0.50032838  1
  Ni  Ni34  1  0.99827942  0.66575880  0.66619611  1
  Fe  Fe35  1  0.16358213  0.83308454  0.83103658  1
  Fe  Fe36  1  0.50154140  0.16445935  0.49783467  1
  Cr  Cr37  1  0.33472447  0.99780087  0.66567035  1
  Fe  Fe38  1  0.49949011  0.16538466  0.83250243  1
  Fe  Fe39  1  0.50180981  0.50116423  0.49829110  1
  Cr  Cr40  1  0.33558108  0.33143101  0.66570364  1
  Fe  Fe41  1  0.50018101  0.49981656  0.83199885  1
  Ni  Ni42  1  0.49971969  0.83278687  0.49905841  1
  Fe  Fe43  1  0.33277810  0.66651046  0.66656908  1
  Fe  Fe44  1  0.50041068  0.83187188  0.83076730  1
  Fe  Fe45  1  0.83103471  0.16639752  0.50060764  1
  Fe  Fe46  1  0.66705508  -0.00058977  0.66660861  1
  Fe  Fe47  1  0.83429460  0.16523693  0.83098511  1
  Fe  Fe48  1  0.83007683  0.50029729  0.50117502  1
  Fe  Fe49  1  0.66845161  0.33295374  0.66654587  1
  Fe  Fe50  1  0.83330419  0.49992937  0.83102274  1
  Cr  Cr51  1  0.83274939  0.83482042  0.50028322  1
  Fe  Fe52  1  0.66435765  0.66604186  0.66600574  1
  Fe  Fe53  1  0.83326553  0.83218757  0.83046310  1
" 