2195,Ni4Fe96_12,-240.923269753192, 185.393635107237,Ni4Fe96,"# generated using pymatgen
 data_FeNi26
_symmetry_space_group_name_H-M   'P 1'
_cell_length_a   7.45506018
_cell_length_b   7.45506018
_cell_length_c   10.54304721
_cell_angle_alpha   90.00000000
_cell_angle_beta   90.00000000
_cell_angle_gamma   90.00000000
_symmetry_Int_Tables_number   1
_chemical_formula_structural   FeNi26
_chemical_formula_sum   'Fe2 Ni52'
_cell_volume   585.96065798
_cell_formula_units_Z   2
loop_
 _symmetry_equiv_pos_site_id
 _symmetry_equiv_pos_as_xyz
  1  'x, y, z'
loop_
 _atom_site_type_symbol
 _atom_site_label
 _atom_site_symmetry_multiplicity
 _atom_site_fract_x
 _atom_site_fract_y
 _atom_site_fract_z
 _atom_site_occupancy
  Ni  Ni0  1  1.00070493  1.00038191  1.00048172  1
  Ni  Ni1  1  0.16747065  0.16755443  0.16741301  1
  Ni  Ni2  1  1.00049003  1.00059721  0.33446746  1
  Ni  Ni3  1  1.00038867  0.33439796  1.00048179  1
  Ni  Ni4  1  0.16747065  0.50056589  0.16741302  1
  Ni  Ni5  1  1.00052601  0.33438715  0.33436589  1
  Ni  Ni6  1  0.00104929  0.66763210  0.00086172  1
  Ni  Ni7  1  0.16747065  0.83429119  0.16817847  1
  Ni  Ni8  1  0.00081768  0.66740156  0.33407314  1
  Ni  Ni9  1  0.33423637  1.00038191  1.00048172  1
  Ni  Ni10  1  0.50038867  0.16721000  0.16779284  1
  Ni  Ni11  1  0.33445126  1.00059721  0.33446746  1
  Ni  Ni12  1  0.33455262  0.33439796  1.00048179  1
  Ni  Ni13  1  0.50070493  0.50122605  0.16779291  1
  Ni  Ni14  1  0.33441528  0.33438715  0.33436589  1
  Ni  Ni15  1  0.33389201  0.66763210  0.00086172  1
  Ni  Ni16  1  0.50104929  0.83397586  0.16741291  1
  Ni  Ni17  1  0.33412362  0.66740156  0.33407314  1
  Ni  Ni18  1  0.66747065  0.00104207  0.00086160  1
  Ni  Ni19  1  0.83455262  0.16721000  0.16779284  1
  Ni  Ni20  1  0.66747065  0.00090229  0.33398799  1
  Ni  Ni21  1  0.66747065  0.33405353  0.00086162  1
  Ni  Ni22  1  0.83423637  0.50122605  0.16779291  1
  Ni  Ni23  1  0.66747065  0.33405306  0.33438487  1
  Ni  Ni24  1  0.66747065  0.66731677  1.00009615  1
  Ni  Ni25  1  0.83389201  0.83397586  0.16741291  1
  Ni  Ni26  1  0.66747065  0.66745013  0.33474896  1
  Ni  Ni27  1  0.16747065  0.16829073  0.50110939  1
  Ni  Ni28  1  1.00015712  1.00031851  0.66748869  1
  Ni  Ni29  1  0.16747065  0.16755490  0.83388976  1
  Ni  Ni30  1  0.16747065  0.49992376  0.50071527  1
  Ni  Ni31  1  1.00022471  0.33468182  0.66756015  1
  Ni  Ni32  1  0.16747065  0.50070567  0.83428663  1
  Fe  Fe33  1  0.16747065  0.83411044  0.50084586  1
  Ni  Ni34  1  0.00155596  0.66738332  0.66749556  1
  Ni  Ni35  1  0.16747065  0.83415783  0.83352566  1
  Ni  Ni36  1  0.50022471  0.16692614  0.50071448  1
  Ni  Ni37  1  0.33478417  1.00031851  0.66748869  1
  Ni  Ni38  1  0.50052601  0.16722081  0.83390874  1
  Ni  Ni39  1  0.50015712  0.50128945  0.50078594  1
  Ni  Ni40  1  0.33471659  0.33468182  0.66756015  1
  Ni  Ni41  1  0.50049003  0.50101075  0.83380717  1
  Ni  Ni42  1  0.50155596  0.83422464  0.50077907  1
  Ni  Ni43  1  0.33338534  0.66738332  0.66749556  1
  Ni  Ni44  1  0.50081768  0.83420640  0.83420149  1
  Ni  Ni45  1  0.83471659  0.16692614  0.50071448  1
  Ni  Ni46  1  0.66747065  0.00168420  0.66755935  1
  Ni  Ni47  1  0.83441528  0.16722081  0.83390874  1
  Ni  Ni48  1  0.83478417  0.50128945  0.50078594  1
  Ni  Ni49  1  0.66747065  0.33331722  0.66716523  1
  Ni  Ni50  1  0.83445126  0.50101075  0.83380717  1
  Ni  Ni51  1  0.83338534  0.83422464  0.50077907  1
  Fe  Fe52  1  0.66747065  0.66749752  0.66742876  1
  Ni  Ni53  1  0.83412362  0.83420640  0.83420149  1
" 