6319,Ni4Fe74Cr21_15,-222.610852975615, 150.23036666691,Ni4Fe74Cr21,"# generated using pymatgen
 data_Cr6Fe20Ni
_symmetry_space_group_name_H-M   'P 1'
_cell_length_a   7.47542494
_cell_length_b   7.47542494
_cell_length_c   10.57184733
_cell_angle_alpha   90.00000000
_cell_angle_beta   90.00000000
_cell_angle_gamma   90.00000000
_symmetry_Int_Tables_number   1
_chemical_formula_structural   Cr6Fe20Ni
_chemical_formula_sum   'Cr12 Fe40 Ni2'
_cell_volume   590.77574010
_cell_formula_units_Z   2
loop_
 _symmetry_equiv_pos_site_id
 _symmetry_equiv_pos_as_xyz
  1  'x, y, z'
loop_
 _atom_site_type_symbol
 _atom_site_label
 _atom_site_symmetry_multiplicity
 _atom_site_fract_x
 _atom_site_fract_y
 _atom_site_fract_z
 _atom_site_occupancy
  Cr  Cr0  1  -0.00003776  0.99862658  -0.00038178  1
  Fe  Fe1  1  0.16787981  0.16766767  0.16650108  1
  Cr  Cr2  1  0.99863620  0.99779429  0.33302043  1
  Fe  Fe3  1  -0.00007188  0.33437675  0.00060729  1
  Fe  Fe4  1  0.16371504  0.49935963  0.16681257  1
  Fe  Fe5  1  0.00013065  0.33410381  0.33150565  1
  Ni  Ni6  1  0.99799442  0.66702685  0.00149443  1
  Fe  Fe7  1  0.16697711  0.83122682  0.16635617  1
  Fe  Fe8  1  0.00066679  0.66496164  0.33169665  1
  Fe  Fe9  1  0.33395517  0.00049502  -0.00041931  1
  Fe  Fe10  1  0.49876344  0.16407758  0.16674037  1
  Fe  Fe11  1  0.33474804  0.99879220  0.33203618  1
  Fe  Fe12  1  0.33021676  0.33022348  -0.00052158  1
  Cr  Cr13  1  0.49961307  0.50043104  0.16710142  1
  Fe  Fe14  1  0.33213517  0.33287716  0.33333059  1
  Cr  Cr15  1  0.33322510  0.66590007  0.99785977  1
  Fe  Fe16  1  0.50007360  0.83493824  0.16680368  1
  Fe  Fe17  1  0.33141906  0.66691072  0.33359071  1
  Fe  Fe18  1  0.66512218  0.99703554  -0.00048734  1
  Fe  Fe19  1  0.83155482  0.16720871  0.16671201  1
  Fe  Fe20  1  0.66451012  -0.00055885  0.33276645  1
  Cr  Cr21  1  0.66415857  0.33311940  0.99775523  1
  Fe  Fe22  1  0.83498628  0.50047518  0.16654633  1
  Fe  Fe23  1  0.66632331  0.33075479  0.33233267  1
  Fe  Fe24  1  0.66917733  0.66852294  0.99851401  1
  Fe  Fe25  1  0.83115142  0.83054673  0.16586014  1
  Fe  Fe26  1  0.66642013  0.66813588  0.33315337  1
  Cr  Cr27  1  0.16636084  0.16734561  0.50046787  1
  Cr  Cr28  1  0.99881455  0.99910270  0.66589354  1
  Fe  Fe29  1  0.16710990  0.16512983  0.83301763  1
  Ni  Ni30  1  0.16727290  0.50085434  0.49691772  1
  Fe  Fe31  1  0.99792020  0.33318996  0.66628580  1
  Cr  Cr32  1  0.16362912  0.49853525  0.83335407  1
  Fe  Fe33  1  0.16849685  0.83008012  0.49830705  1
  Cr  Cr34  1  0.00121773  0.66871248  0.66497054  1
  Fe  Fe35  1  0.16718338  0.83377635  0.83335439  1
  Fe  Fe36  1  0.50128981  0.16632846  0.49855022  1
  Fe  Fe37  1  0.33503140  0.99677447  0.66684155  1
  Fe  Fe38  1  0.49900998  0.16435268  0.83277711  1
  Fe  Fe39  1  0.49737964  0.49941756  0.49730424  1
  Cr  Cr40  1  0.33637433  0.33494626  0.66633114  1
  Fe  Fe41  1  0.50044530  0.49937946  0.83327575  1
  Fe  Fe42  1  0.49805251  0.83272170  0.49869683  1
  Fe  Fe43  1  0.33257024  0.66807360  0.66512196  1
  Fe  Fe44  1  0.49910929  0.83455127  0.83286191  1
  Fe  Fe45  1  0.83040532  0.16655698  0.49933437  1
  Fe  Fe46  1  0.66449704  0.00069055  0.66603930  1
  Fe  Fe47  1  0.83241221  0.16699793  0.83202659  1
  Cr  Cr48  1  0.83399121  0.49795605  0.49853449  1
  Fe  Fe49  1  0.66784304  0.33028001  0.66722880  1
  Fe  Fe50  1  0.83284818  0.49954044  0.83380244  1
  Fe  Fe51  1  0.83148657  0.83319802  0.49818985  1
  Cr  Cr52  1  0.66353193  0.66428207  0.66831723  1
  Fe  Fe53  1  0.83201503  0.83193842  0.83465288  1
" 