6513,Ni4Fe74Cr21_14,-222.641918581512, 150.16652792685,Ni4Fe74Cr21,"# generated using pymatgen
 data_Cr6Fe20Ni
_symmetry_space_group_name_H-M   'P 1'
_cell_length_a   7.47689208
_cell_length_b   7.47689208
_cell_length_c   10.57392218
_cell_angle_alpha   90.00000000
_cell_angle_beta   90.00000000
_cell_angle_gamma   90.00000000
_symmetry_Int_Tables_number   1
_chemical_formula_structural   Cr6Fe20Ni
_chemical_formula_sum   'Cr12 Fe40 Ni2'
_cell_volume   591.12364786
_cell_formula_units_Z   2
loop_
 _symmetry_equiv_pos_site_id
 _symmetry_equiv_pos_as_xyz
  1  'x, y, z'
loop_
 _atom_site_type_symbol
 _atom_site_label
 _atom_site_symmetry_multiplicity
 _atom_site_fract_x
 _atom_site_fract_y
 _atom_site_fract_z
 _atom_site_occupancy
  Ni  Ni0  1  0.99891283  0.00079589  -0.00031942  1
  Fe  Fe1  1  0.16576186  0.16588845  0.16510079  1
  Fe  Fe2  1  -0.00044336  0.99917899  0.33155854  1
  Fe  Fe3  1  0.00025865  0.33278829  0.00010978  1
  Fe  Fe4  1  0.16493596  0.49837450  0.16631412  1
  Fe  Fe5  1  0.99926336  0.33323298  0.33082239  1
  Fe  Fe6  1  0.99672481  0.66664604  -0.00028084  1
  Cr  Cr7  1  0.16672347  0.83383945  0.16729172  1
  Fe  Fe8  1  0.00091122  0.66539327  0.33297433  1
  Fe  Fe9  1  0.33200277  0.00146826  0.00015999  1
  Fe  Fe10  1  0.49866309  0.16492443  0.16633153  1
  Fe  Fe11  1  0.33473085  0.99819815  0.33341162  1
  Fe  Fe12  1  0.33142069  0.32921987  0.00040757  1
  Fe  Fe13  1  0.50003958  0.49881078  0.16540622  1
  Cr  Cr14  1  0.33174172  0.33351093  0.33394187  1
  Cr  Cr15  1  0.33418546  0.66519565  0.00212461  1
  Ni  Ni16  1  0.49832185  0.83338437  0.16617848  1
  Fe  Fe17  1  0.33242386  0.66724005  0.33287817  1
  Cr  Cr18  1  0.66536553  0.99673196  -0.00033009  1
  Fe  Fe19  1  0.83341895  0.16506535  0.16636866  1
  Fe  Fe20  1  0.66379204  -0.00007160  0.33047688  1
  Fe  Fe21  1  0.66672680  0.33312447  0.00084874  1
  Fe  Fe22  1  0.83303963  0.49958166  0.16564872  1
  Fe  Fe23  1  0.66525005  0.33185768  0.33063684  1
  Fe  Fe24  1  0.66873978  0.66607050  0.00128891  1
  Fe  Fe25  1  0.83305135  0.83343597  0.16559552  1
  Cr  Cr26  1  0.66477033  0.66821610  0.33089521  1
  Fe  Fe27  1  0.16689196  0.16393408  0.49922327  1
  Fe  Fe28  1  -0.00054262  0.99789614  0.66567472  1
  Fe  Fe29  1  0.16865720  0.16651497  0.83444871  1
  Fe  Fe30  1  0.16702175  0.50142372  0.49938608  1
  Cr  Cr31  1  0.00323035  0.33248501  0.66664498  1
  Fe  Fe32  1  0.16555337  0.49878104  0.83379198  1
  Fe  Fe33  1  0.16536026  0.83281585  0.49926102  1
  Fe  Fe34  1  0.99913674  0.66744387  0.66585710  1
  Cr  Cr35  1  0.16668585  0.83375672  0.83380933  1
  Fe  Fe36  1  0.49775363  0.16412287  0.49912199  1
  Fe  Fe37  1  0.33341427  0.00080854  0.66499200  1
  Fe  Fe38  1  0.49604461  0.16409133  0.83265617  1
  Fe  Fe39  1  0.49726209  0.50075774  0.50013147  1
  Fe  Fe40  1  0.33231666  0.33173947  0.66476084  1
  Cr  Cr41  1  0.50031430  0.49924340  0.83286630  1
  Fe  Fe42  1  0.49907102  0.83356859  0.49917511  1
  Fe  Fe43  1  0.33241950  0.66559003  0.66478043  1
  Fe  Fe44  1  0.50035412  0.83376475  0.83205443  1
  Cr  Cr45  1  0.83214440  0.16475492  0.49617626  1
  Fe  Fe46  1  0.66495076  0.99674603  0.66602193  1
  Cr  Cr47  1  0.83270746  0.16662083  0.83252595  1
  Cr  Cr48  1  0.83186625  0.49852426  0.49908151  1
  Cr  Cr49  1  0.66461770  0.33162172  0.66474105  1
  Fe  Fe50  1  0.83436073  0.50249004  0.83356085  1
  Fe  Fe51  1  0.83348288  0.83300354  0.49983502  1
  Fe  Fe52  1  0.66633244  0.66910119  0.66559602  1
  Fe  Fe53  1  0.83230955  0.83074730  0.83243498  1
" 