7092,Ni4Fe74Cr21_2,-222.684597511919, 149.329725110443,Ni4Fe74Cr21,"# generated using pymatgen
 data_Cr6Fe20Ni
_symmetry_space_group_name_H-M   'P 1'
_cell_length_a   7.47621908
_cell_length_b   7.47621908
_cell_length_c   10.57297042
_cell_angle_alpha   90.00000000
_cell_angle_beta   90.00000000
_cell_angle_gamma   90.00000000
_symmetry_Int_Tables_number   1
_chemical_formula_structural   Cr6Fe20Ni
_chemical_formula_sum   'Cr12 Fe40 Ni2'
_cell_volume   590.96404170
_cell_formula_units_Z   2
loop_
 _symmetry_equiv_pos_site_id
 _symmetry_equiv_pos_as_xyz
  1  'x, y, z'
loop_
 _atom_site_type_symbol
 _atom_site_label
 _atom_site_symmetry_multiplicity
 _atom_site_fract_x
 _atom_site_fract_y
 _atom_site_fract_z
 _atom_site_occupancy
  Fe  Fe0  1  0.99858112  0.99682100  0.99721252  1
  Cr  Cr1  1  0.16546507  0.16622450  0.16469004  1
  Fe  Fe2  1  0.99797894  0.99776537  0.33307736  1
  Fe  Fe3  1  -0.00041184  0.33435334  0.99582154  1
  Cr  Cr4  1  0.16377682  0.49980775  0.16592090  1
  Fe  Fe5  1  0.99711837  0.33530218  0.33516400  1
  Fe  Fe6  1  0.99837328  0.66698380  0.99787239  1
  Fe  Fe7  1  0.16362700  0.83420898  0.16735388  1
  Fe  Fe8  1  0.99827854  0.66501127  0.33359405  1
  Fe  Fe9  1  0.33284601  0.99930853  0.99626184  1
  Cr  Cr10  1  0.49977961  0.16417750  0.16539874  1
  Fe  Fe11  1  0.33422071  0.99757090  0.33409963  1
  Fe  Fe12  1  0.33215966  0.33272697  0.99663455  1
  Fe  Fe13  1  0.50057377  0.49869465  0.16798498  1
  Cr  Cr14  1  0.33355681  0.33381473  0.33390521  1
  Cr  Cr15  1  0.33291213  0.66692886  -0.00015702  1
  Cr  Cr16  1  0.50039612  0.83314358  0.16725827  1
  Fe  Fe17  1  0.33387844  0.66627360  0.33421812  1
  Fe  Fe18  1  0.66685297  0.99805719  0.99659654  1
  Cr  Cr19  1  0.83303956  0.16640739  0.16635986  1
  Fe  Fe20  1  0.66627342  0.99854745  0.33579876  1
  Cr  Cr21  1  0.66610745  0.33375921  0.99896141  1
  Fe  Fe22  1  0.83201094  0.50076652  0.16817334  1
  Fe  Fe23  1  0.66760022  0.33424775  0.33438074  1
  Cr  Cr24  1  0.66682054  0.66662545  -0.00016868  1
  Fe  Fe25  1  0.83586524  0.83242820  0.16727180  1
  Fe  Fe26  1  0.66611073  0.66548849  0.33415298  1
  Cr  Cr27  1  0.16503681  0.16589797  0.49888747  1
  Fe  Fe28  1  0.99821818  0.99775988  0.66707890  1
  Fe  Fe29  1  0.16668422  0.16528180  0.83310763  1
  Ni  Ni30  1  0.16507469  0.50042359  0.50119016  1
  Cr  Cr31  1  0.99876160  0.33172201  0.66493655  1
  Fe  Fe32  1  0.16613114  0.49978217  0.83158500  1
  Cr  Cr33  1  0.16747729  0.83107167  0.49964718  1
  Fe  Fe34  1  0.99886780  0.66661634  0.66650410  1
  Fe  Fe35  1  0.16531759  0.83318559  0.83133938  1
  Fe  Fe36  1  0.50047029  0.16468850  0.50038683  1
  Fe  Fe37  1  0.33408718  0.99929007  0.66642419  1
  Fe  Fe38  1  0.49884247  0.16541218  0.83197612  1
  Fe  Fe39  1  0.49864664  0.50198232  0.50096640  1
  Fe  Fe40  1  0.33426836  0.33372514  0.66570090  1
  Fe  Fe41  1  0.49897360  0.49925734  0.83061589  1
  Ni  Ni42  1  0.50193933  0.83212772  0.50119427  1
  Fe  Fe43  1  0.33342195  0.66511198  0.66617538  1
  Fe  Fe44  1  0.49965002  0.83349141  0.83032379  1
  Fe  Fe45  1  0.83014273  0.16477134  0.49853853  1
  Fe  Fe46  1  0.66637215  -0.00049573  0.66555775  1
  Fe  Fe47  1  0.83261612  0.16454467  0.83269426  1
  Fe  Fe48  1  0.83211673  0.50172185  0.49903661  1
  Fe  Fe49  1  0.66476238  0.33249006  0.66634031  1
  Fe  Fe50  1  0.83321965  0.50049810  0.83148724  1
  Fe  Fe51  1  0.83243567  0.83180867  0.49977320  1
  Fe  Fe52  1  0.66625648  0.66620652  0.66606697  1
  Fe  Fe53  1  0.83329497  0.83305930  0.83150490  1
" 