8820,Ni4Fe33Cr62_18,-213.779290462255, 189.246157697221,Ni4Fe33Cr62,"# generated using pymatgen
 data_Cr17Fe9Ni
_symmetry_space_group_name_H-M   'P 1'
_cell_length_a   7.55275795
_cell_length_b   7.55275795
_cell_length_c   10.68121273
_cell_angle_alpha   90.00000000
_cell_angle_beta   90.00000000
_cell_angle_gamma   90.00000000
_symmetry_Int_Tables_number   1
_chemical_formula_structural   Cr17Fe9Ni
_chemical_formula_sum   'Cr34 Fe18 Ni2'
_cell_volume   609.30072979
_cell_formula_units_Z   2
loop_
 _symmetry_equiv_pos_site_id
 _symmetry_equiv_pos_as_xyz
  1  'x, y, z'
loop_
 _atom_site_type_symbol
 _atom_site_label
 _atom_site_symmetry_multiplicity
 _atom_site_fract_x
 _atom_site_fract_y
 _atom_site_fract_z
 _atom_site_occupancy
  Cr  Cr0  1  -0.00242318  0.99377954  -0.00541087  1
  Fe  Fe1  1  0.16400080  0.15986572  0.16146026  1
  Cr  Cr2  1  -0.00334111  0.99397892  0.32922177  1
  Cr  Cr3  1  0.99394839  0.32994293  -0.00449832  1
  Fe  Fe4  1  0.16124529  0.49444706  0.16151704  1
  Cr  Cr5  1  0.99411258  0.32777428  0.32453002  1
  Cr  Cr6  1  -0.00393160  0.65927987  -0.00437126  1
  Fe  Fe7  1  0.16383453  0.82867880  0.16108366  1
  Cr  Cr8  1  -0.00376892  0.66124233  0.32573828  1
  Fe  Fe9  1  0.32800839  0.99398273  -0.00431099  1
  Fe  Fe10  1  0.49310125  0.15858578  0.16255407  1
  Fe  Fe11  1  0.32851880  0.99420816  0.32586498  1
  Cr  Cr12  1  0.32776424  0.32517051  -0.00566057  1
  Cr  Cr13  1  0.49319091  0.49491908  0.16371390  1
  Fe  Fe14  1  0.32820021  0.32685800  0.32662912  1
  Cr  Cr15  1  0.32530418  0.66365189  -0.00556982  1
  Ni  Ni16  1  0.49144506  0.83018960  0.16124566  1
  Cr  Cr17  1  0.32694762  0.66230589  0.32906863  1
  Cr  Cr18  1  0.65689600  -0.00371744  0.99410170  1
  Cr  Cr19  1  0.82818582  0.16142844  0.16292699  1
  Fe  Fe20  1  0.65874013  -0.00543724  0.32617750  1
  Cr  Cr21  1  0.66131507  0.32665056  0.99389460  1
  Fe  Fe22  1  0.82723034  0.49451727  0.16155957  1
  Fe  Fe23  1  0.65981562  0.32717279  0.32727730  1
  Cr  Cr24  1  0.66156300  0.66001177  0.99405394  1
  Cr  Cr25  1  0.82556356  0.82730485  0.16128824  1
  Cr  Cr26  1  0.65983040  0.65983736  0.32841701  1
  Cr  Cr27  1  0.16044641  0.16185532  0.49558080  1
  Ni  Ni28  1  -0.00319474  -0.00505666  0.66034531  1
  Cr  Cr29  1  0.16097725  0.16231329  0.82573217  1
  Cr  Cr30  1  0.16421453  0.49205620  0.49578600  1
  Fe  Fe31  1  -0.00482427  0.32685693  0.66180894  1
  Fe  Fe32  1  0.15998463  0.49441571  0.82674232  1
  Fe  Fe33  1  0.16038198  0.82920437  0.49489180  1
  Cr  Cr34  1  -0.00350244  0.66219990  0.66165696  1
  Fe  Fe35  1  0.16040293  0.82826922  0.82712503  1
  Cr  Cr36  1  0.49282082  0.16299441  0.49207474  1
  Cr  Cr37  1  0.32551008  -0.00565461  0.66226586  1
  Fe  Fe38  1  0.49344521  0.16098293  0.82753247  1
  Fe  Fe39  1  0.49394967  0.49263366  0.49385386  1
  Fe  Fe40  1  0.32676787  0.32745929  0.66154596  1
  Cr  Cr41  1  0.49225253  0.49422780  0.82518071  1
  Cr  Cr42  1  0.49466931  0.82611989  0.49265047  1
  Cr  Cr43  1  0.32624061  0.66021514  0.65960579  1
  Cr  Cr44  1  0.49383626  0.82757744  0.83041201  1
  Cr  Cr45  1  0.82963030  0.15925362  0.49517413  1
  Cr  Cr46  1  0.66177229  -0.00348532  0.66143222  1
  Cr  Cr47  1  0.83008477  0.16066892  0.82485660  1
  Cr  Cr48  1  0.82695175  0.49391485  0.49371065  1
  Cr  Cr49  1  0.65989033  0.32748446  0.66178454  1
  Fe  Fe50  1  0.82905972  0.49385838  0.82711383  1
  Cr  Cr51  1  0.82801015  0.82978229  0.49499385  1
  Cr  Cr52  1  0.66028042  0.65891666  0.66053490  1
  Cr  Cr53  1  0.82824239  0.82790459  0.82670380  1
" 