2747,Ni4Fe74Cr21_0,-222.706292445719, 149.367623083168,Ni4Fe74Cr21,"# generated using pymatgen
 data_Cr6Fe20Ni
_symmetry_space_group_name_H-M   'P 1'
_cell_length_a   7.47540195
_cell_length_b   7.47540195
_cell_length_c   10.57181482
_cell_angle_alpha   90.00000000
_cell_angle_beta   90.00000000
_cell_angle_gamma   90.00000000
_symmetry_Int_Tables_number   1
_chemical_formula_structural   Cr6Fe20Ni
_chemical_formula_sum   'Cr12 Fe40 Ni2'
_cell_volume   590.77029027
_cell_formula_units_Z   2
loop_
 _symmetry_equiv_pos_site_id
 _symmetry_equiv_pos_as_xyz
  1  'x, y, z'
loop_
 _atom_site_type_symbol
 _atom_site_label
 _atom_site_symmetry_multiplicity
 _atom_site_fract_x
 _atom_site_fract_y
 _atom_site_fract_z
 _atom_site_occupancy
  Ni  Ni0  1  0.00017058  0.99878967  0.99912488  1
  Fe  Fe1  1  0.16620183  0.16544625  0.16442675  1
  Fe  Fe2  1  0.00004991  0.00122335  0.33417940  1
  Fe  Fe3  1  0.99883948  0.33058072  0.99674985  1
  Cr  Cr4  1  0.16625295  0.49976557  0.16385502  1
  Fe  Fe5  1  0.99890675  0.33099191  0.33536433  1
  Fe  Fe6  1  0.99777104  0.66709921  0.99746233  1
  Cr  Cr7  1  0.16627738  0.83535508  0.16590334  1
  Cr  Cr8  1  0.99751601  0.66649253  0.33543422  1
  Fe  Fe9  1  0.33380012  0.00120534  0.99849763  1
  Fe  Fe10  1  0.49939119  0.16449140  0.16448244  1
  Fe  Fe11  1  0.33361528  0.99821385  0.33368493  1
  Fe  Fe12  1  0.33233266  0.32909017  0.99890197  1
  Cr  Cr13  1  0.50038338  0.50087340  0.16539328  1
  Cr  Cr14  1  0.33193685  0.33022670  0.33114892  1
  Fe  Fe15  1  0.33306630  0.66825017  0.99775443  1
  Fe  Fe16  1  0.50147645  0.83444291  0.16607009  1
  Fe  Fe17  1  0.33374596  0.66891782  0.33387517  1
  Fe  Fe18  1  0.66641186  -0.00017617  0.99864965  1
  Cr  Cr19  1  0.83406695  0.16445513  0.16656011  1
  Fe  Fe20  1  0.66504134  0.99848177  0.33366262  1
  Ni  Ni21  1  0.66461260  0.33222426  0.99811574  1
  Cr  Cr22  1  0.83132652  0.49786254  0.16532660  1
  Fe  Fe23  1  0.66738619  0.33123559  0.33356483  1
  Fe  Fe24  1  0.66748542  0.66859665  0.99800082  1
  Fe  Fe25  1  0.83132468  0.83286583  0.16498702  1
  Fe  Fe26  1  0.66477024  0.66866985  0.33386758  1
  Fe  Fe27  1  0.16726831  0.16515207  0.49890161  1
  Cr  Cr28  1  0.99927130  0.99836400  0.66569193  1
  Fe  Fe29  1  0.16720261  0.16553299  0.83439376  1
  Fe  Fe30  1  0.16615551  0.50008790  0.49989308  1
  Cr  Cr31  1  -0.00018795  0.33372032  0.66584659  1
  Fe  Fe32  1  0.16536902  0.50035519  0.83393022  1
  Fe  Fe33  1  0.16846258  0.83292373  0.49935395  1
  Fe  Fe34  1  0.00103576  0.66626800  0.66580659  1
  Fe  Fe35  1  0.16667742  0.83245950  0.83441535  1
  Fe  Fe36  1  0.50018537  0.16383527  0.50020898  1
  Fe  Fe37  1  0.33438684  -0.00051397  0.66623578  1
  Fe  Fe38  1  0.49981590  0.16456335  0.83305510  1
  Cr  Cr39  1  0.49935699  0.49905292  0.49955106  1
  Fe  Fe40  1  0.33278123  0.33080130  0.66582721  1
  Cr  Cr41  1  0.49863097  0.49822737  0.83292656  1
  Fe  Fe42  1  0.49867220  0.83525176  0.49900924  1
  Fe  Fe43  1  0.32945251  0.66768145  0.66631447  1
  Fe  Fe44  1  0.49859006  0.83493754  0.83326614  1
  Fe  Fe45  1  0.83085235  0.16617275  0.49779510  1
  Fe  Fe46  1  0.66498849  0.00139862  0.66617848  1
  Fe  Fe47  1  0.83153294  0.16594479  0.83517224  1
  Fe  Fe48  1  0.83269519  0.49816907  0.49883438  1
  Fe  Fe49  1  0.66655076  0.32953187  0.66708988  1
  Fe  Fe50  1  0.83367960  0.49901920  0.83499026  1
  Fe  Fe51  1  0.83114630  0.83415623  0.49890662  1
  Cr  Cr52  1  0.66788272  0.66764184  0.66643402  1
  Fe  Fe53  1  0.83321048  0.83341883  0.83475286  1
" 