6180,Ni4Fe33Cr62_5,-213.346615094708, 187.633569317224,Ni4Fe33Cr62,"# generated using pymatgen
 data_Cr17Fe9Ni
_symmetry_space_group_name_H-M   'P 1'
_cell_length_a   7.54186023
_cell_length_b   7.54186023
_cell_length_c   10.66580102
_cell_angle_alpha   90.00000000
_cell_angle_beta   90.00000000
_cell_angle_gamma   90.00000000
_symmetry_Int_Tables_number   1
_chemical_formula_structural   Cr17Fe9Ni
_chemical_formula_sum   'Cr34 Fe18 Ni2'
_cell_volume   606.66708988
_cell_formula_units_Z   2
loop_
 _symmetry_equiv_pos_site_id
 _symmetry_equiv_pos_as_xyz
  1  'x, y, z'
loop_
 _atom_site_type_symbol
 _atom_site_label
 _atom_site_symmetry_multiplicity
 _atom_site_fract_x
 _atom_site_fract_y
 _atom_site_fract_z
 _atom_site_occupancy
  Cr  Cr0  1  -0.00226788  0.99385526  0.99333829  1
  Cr  Cr1  1  0.15847302  0.16469383  0.16096515  1
  Cr  Cr2  1  -0.00446276  0.99234636  0.32768905  1
  Fe  Fe3  1  -0.00330796  0.32996505  0.99384346  1
  Cr  Cr4  1  0.16094857  0.49639487  0.16577246  1
  Fe  Fe5  1  -0.00495014  0.33021844  0.33108838  1
  Cr  Cr6  1  0.99358524  0.66309874  -0.00378855  1
  Fe  Fe7  1  0.15907118  0.82857908  0.16316448  1
  Fe  Fe8  1  0.99442593  0.66054313  0.33028101  1
  Cr  Cr9  1  0.32572133  0.99483150  -0.00438107  1
  Cr  Cr10  1  0.49797641  0.16135377  0.16415200  1
  Cr  Cr11  1  0.32748419  -0.00398385  0.32799850  1
  Cr  Cr12  1  0.32946908  0.32804897  -0.00332142  1
  Fe  Fe13  1  0.49709934  0.49401978  0.16293075  1
  Cr  Cr14  1  0.32966968  0.32749013  0.32944682  1
  Cr  Cr15  1  0.32782038  0.66190801  -0.00084888  1
  Cr  Cr16  1  0.49643800  0.82772672  0.16231211  1
  Cr  Cr17  1  0.32843254  0.66148409  0.32710213  1
  Cr  Cr18  1  0.66231560  0.99470853  -0.00333772  1
  Cr  Cr19  1  0.82841654  0.16121358  0.16381763  1
  Fe  Fe20  1  0.66018407  0.99338319  0.33113909  1
  Cr  Cr21  1  0.66193274  0.33328857  -0.00466781  1
  Cr  Cr22  1  0.83087090  0.49342863  0.16202553  1
  Fe  Fe23  1  0.66130025  0.32849902  0.33034996  1
  Fe  Fe24  1  0.66183836  0.66283953  -0.00378980  1
  Fe  Fe25  1  0.82963852  0.82800806  0.16346852  1
  Cr  Cr26  1  0.66400890  0.65963058  0.32775716  1
  Fe  Fe27  1  0.16189829  0.16182366  0.49460202  1
  Cr  Cr28  1  -0.00359268  0.99461286  0.66397004  1
  Fe  Fe29  1  0.16332405  0.16330117  0.82857685  1
  Fe  Fe30  1  0.15931980  0.49209428  0.49420371  1
  Cr  Cr31  1  0.99461063  0.32838229  0.66145084  1
  Cr  Cr32  1  0.16181230  0.49599503  0.82566998  1
  Cr  Cr33  1  0.16242762  0.82354912  0.49534810  1
  Cr  Cr34  1  0.99179093  0.66119148  0.65831385  1
  Fe  Fe35  1  0.16292816  0.82630451  0.82708378  1
  Ni  Ni36  1  0.49430024  0.16319560  0.49355190  1
  Cr  Cr37  1  0.32696008  -0.00258689  0.66034215  1
  Cr  Cr38  1  0.49624266  0.16121447  0.82674585  1
  Cr  Cr39  1  0.49078768  0.49634018  0.49641584  1
  Fe  Fe40  1  0.32767702  0.32762415  0.65933624  1
  Cr  Cr41  1  0.49241818  0.49764348  0.82986410  1
  Fe  Fe42  1  0.49698278  0.82968103  0.49372842  1
  Fe  Fe43  1  0.32733989  0.66129470  0.66027419  1
  Cr  Cr44  1  0.49359290  0.82735696  0.82550329  1
  Cr  Cr45  1  0.82802697  0.16068251  0.49129281  1
  Cr  Cr46  1  0.66256289  0.99464757  0.65565129  1
  Cr  Cr47  1  0.82976016  0.16312029  0.83093573  1
  Fe  Fe48  1  0.82846860  0.49504448  0.49238134  1
  Cr  Cr49  1  0.66174502  0.33061260  0.66117226  1
  Fe  Fe50  1  0.82864311  0.49600562  0.82973472  1
  Ni  Ni51  1  0.82932364  0.82677860  0.49119327  1
  Cr  Cr52  1  0.66379748  0.65996894  0.66161172  1
  Cr  Cr53  1  0.82688903  0.82871718  0.82870793  1
" 