6271,Ni4Fe84Cr11_19,-223.422449113585, 139.301265181233,Ni4Fe84Cr11,"# generated using pymatgen
 data_Cr7Fe45Ni2
_symmetry_space_group_name_H-M   'P 1'
_cell_length_a   7.45328689
_cell_length_b   7.45328689
_cell_length_c   10.54053940
_cell_angle_alpha   90.00000000
_cell_angle_beta   90.00000000
_cell_angle_gamma   90.00000000
_symmetry_Int_Tables_number   1
_chemical_formula_structural   Cr7Fe45Ni2
_chemical_formula_sum   'Cr7 Fe45 Ni2'
_cell_volume   585.54262033
_cell_formula_units_Z   1
loop_
 _symmetry_equiv_pos_site_id
 _symmetry_equiv_pos_as_xyz
  1  'x, y, z'
loop_
 _atom_site_type_symbol
 _atom_site_label
 _atom_site_symmetry_multiplicity
 _atom_site_fract_x
 _atom_site_fract_y
 _atom_site_fract_z
 _atom_site_occupancy
  Fe  Fe0  1  0.99907554  0.99830123  0.00131941  1
  Cr  Cr1  1  0.16793593  0.16711140  0.16841418  1
  Fe  Fe2  1  0.99883489  1.00082896  0.33396413  1
  Fe  Fe3  1  0.99946211  0.33652566  0.00113259  1
  Fe  Fe4  1  0.16812435  0.50339535  0.16571875  1
  Cr  Cr5  1  1.00076987  0.33494254  0.33467144  1
  Ni  Ni6  1  0.00148288  0.66738438  1.00069154  1
  Fe  Fe7  1  0.16720289  0.83315475  0.16668080  1
  Cr  Cr8  1  1.00028885  0.66769166  0.33259405  1
  Fe  Fe9  1  0.33514253  0.99887130  1.00063738  1
  Fe  Fe10  1  0.50226375  0.16624909  0.16683633  1
  Fe  Fe11  1  0.33554938  0.00120877  0.33453737  1
  Fe  Fe12  1  0.33514361  0.33634511  0.00094750  1
  Fe  Fe13  1  0.50055567  0.50200124  0.16694654  1
  Fe  Fe14  1  0.33478495  0.33521367  0.33505573  1
  Fe  Fe15  1  0.33343423  0.66755342  1.00086495  1
  Fe  Fe16  1  0.50143699  0.83451807  0.16772267  1
  Fe  Fe17  1  0.33656116  0.66634933  0.33362160  1
  Fe  Fe18  1  0.66855087  1.00001203  0.00129709  1
  Fe  Fe19  1  0.83272968  0.16533317  0.16613637  1
  Fe  Fe20  1  0.66838379  0.99904830  0.33391029  1
  Fe  Fe21  1  0.66816406  0.33481732  0.00111415  1
  Fe  Fe22  1  0.83408875  0.50257088  0.16494626  1
  Cr  Cr23  1  0.66696940  0.33364464  0.33323458  1
  Fe  Fe24  1  0.66873512  0.66793955  0.00134480  1
  Ni  Ni25  1  0.83293344  0.83407920  0.16780050  1
  Fe  Fe26  1  0.66660889  0.66926060  0.33396979  1
  Fe  Fe27  1  0.16757813  0.16911723  0.50088900  1
  Fe  Fe28  1  0.99791486  0.00099047  0.66748742  1
  Cr  Cr29  1  0.16671438  0.16805724  0.83430838  1
  Fe  Fe30  1  0.16913043  0.49935505  0.50243929  1
  Fe  Fe31  1  1.00040042  0.33474309  0.66648421  1
  Fe  Fe32  1  0.16723885  0.50279640  0.83460833  1
  Cr  Cr33  1  0.16678379  0.83534496  0.50012106  1
  Fe  Fe34  1  1.00041808  0.66703717  0.66873010  1
  Fe  Fe35  1  0.16652333  0.83165445  0.83512354  1
  Fe  Fe36  1  0.50065750  0.16739130  0.50089410  1
  Cr  Cr37  1  0.33648959  1.00071679  0.66862581  1
  Fe  Fe38  1  0.50315220  0.16834351  0.83503754  1
  Fe  Fe39  1  0.49992550  0.50189674  0.50164628  1
  Fe  Fe40  1  0.33497890  0.33651088  0.66676913  1
  Fe  Fe41  1  0.50067061  0.50063777  0.83417351  1
  Fe  Fe42  1  0.50314843  0.83348093  0.50018231  1
  Fe  Fe43  1  0.33502235  0.66532967  0.66828073  1
  Fe  Fe44  1  0.50136843  0.83378648  0.83486832  1
  Fe  Fe45  1  0.83453642  0.16588958  0.50249345  1
  Fe  Fe46  1  0.66910277  0.00094502  0.66756399  1
  Fe  Fe47  1  0.83272068  0.16762588  0.83413672  1
  Fe  Fe48  1  0.83371286  0.50184449  0.50324738  1
  Fe  Fe49  1  0.66738829  0.33400542  0.66736124  1
  Fe  Fe50  1  0.83486147  0.50101002  0.83457135  1
  Fe  Fe51  1  0.83198804  0.83503491  0.50104142  1
  Fe  Fe52  1  0.66732682  0.66781900  0.66745681  1
  Fe  Fe53  1  0.83488237  0.83413302  0.83519688  1
" 