8510,Ni4Fe84Cr11_9,-223.428431416081, 139.909321617928,Ni4Fe84Cr11,"# generated using pymatgen
 data_Cr7Fe45Ni2
_symmetry_space_group_name_H-M   'P 1'
_cell_length_a   7.45088851
_cell_length_b   7.45088851
_cell_length_c   10.53714758
_cell_angle_alpha   90.00000000
_cell_angle_beta   90.00000000
_cell_angle_gamma   90.00000000
_symmetry_Int_Tables_number   1
_chemical_formula_structural   Cr7Fe45Ni2
_chemical_formula_sum   'Cr7 Fe45 Ni2'
_cell_volume   584.97754040
_cell_formula_units_Z   1
loop_
 _symmetry_equiv_pos_site_id
 _symmetry_equiv_pos_as_xyz
  1  'x, y, z'
loop_
 _atom_site_type_symbol
 _atom_site_label
 _atom_site_symmetry_multiplicity
 _atom_site_fract_x
 _atom_site_fract_y
 _atom_site_fract_z
 _atom_site_occupancy
  Fe  Fe0  1  1.00083866  1.00033584  0.00188719  1
  Fe  Fe1  1  0.16707968  0.16699376  0.16635263  1
  Fe  Fe2  1  0.00122175  0.00195244  0.33438104  1
  Fe  Fe3  1  0.99898996  0.33508296  0.00158585  1
  Fe  Fe4  1  0.16550520  0.50201530  0.16730324  1
  Fe  Fe5  1  1.00048433  0.33331019  0.33381303  1
  Fe  Fe6  1  0.00180680  0.66758204  1.00081738  1
  Fe  Fe7  1  0.16798584  0.83407697  0.16769609  1
  Fe  Fe8  1  1.00030704  0.66795099  0.33384682  1
  Fe  Fe9  1  0.33431680  1.00045851  0.00170933  1
  Fe  Fe10  1  0.50059138  0.16667377  0.16708184  1
  Fe  Fe11  1  0.33450763  0.99985724  0.33454118  1
  Fe  Fe12  1  0.33554602  0.33414547  0.00111239  1
  Cr  Cr13  1  0.50151477  0.50211488  0.16748443  1
  Cr  Cr14  1  0.33330227  0.33291547  0.33501715  1
  Fe  Fe15  1  0.33321379  0.66839870  0.99997334  1
  Fe  Fe16  1  0.49978424  0.83602243  0.16919747  1
  Fe  Fe17  1  0.33449389  0.67043666  0.33473532  1
  Cr  Cr18  1  0.66806879  0.00160034  0.00115612  1
  Fe  Fe19  1  0.83543395  0.16861293  0.16744319  1
  Fe  Fe20  1  0.66750807  0.99983572  0.33521226  1
  Ni  Ni21  1  0.66822835  0.33395856  0.99951756  1
  Fe  Fe22  1  0.83667247  0.50049296  0.16719167  1
  Cr  Cr23  1  0.66837593  0.33362847  0.33546126  1
  Cr  Cr24  1  0.66909269  0.66848385  0.99965145  1
  Fe  Fe25  1  0.83563693  0.83416685  0.16942538  1
  Fe  Fe26  1  0.66839380  0.66982298  0.33502810  1
  Fe  Fe27  1  0.16666908  0.16496571  0.50258925  1
  Fe  Fe28  1  0.99956353  1.00006850  0.66693194  1
  Cr  Cr29  1  0.16710606  0.16715080  0.83388599  1
  Cr  Cr30  1  0.16737739  0.50117191  0.50178140  1
  Fe  Fe31  1  0.99862076  0.33372078  0.66754177  1
  Fe  Fe32  1  0.16768723  0.50241805  0.83373716  1
  Fe  Fe33  1  0.16756915  0.83581013  0.50110116  1
  Fe  Fe34  1  0.99961353  0.66929817  0.66850414  1
  Fe  Fe35  1  0.16762864  0.83297327  0.83445184  1
  Fe  Fe36  1  0.50125868  0.16590351  0.50314519  1
  Fe  Fe37  1  0.33586815  1.00015365  0.66695882  1
  Fe  Fe38  1  0.50224520  0.16832443  0.83315397  1
  Fe  Fe39  1  0.50267949  0.50292692  0.50241529  1
  Fe  Fe40  1  0.33677991  0.33363884  0.66723116  1
  Fe  Fe41  1  0.50015235  0.49942572  0.83417361  1
  Fe  Fe42  1  0.50137786  0.83454250  0.50165183  1
  Fe  Fe43  1  0.33582235  0.66928531  0.66850303  1
  Fe  Fe44  1  0.49979019  0.83557564  0.83250962  1
  Fe  Fe45  1  0.83531816  0.16653816  0.50256846  1
  Ni  Ni46  1  0.66815421  1.00104062  0.66766814  1
  Fe  Fe47  1  0.83313074  0.16827615  0.83316380  1
  Fe  Fe48  1  0.83376848  0.50233500  0.50221463  1
  Fe  Fe49  1  0.66782239  0.33378698  0.66816792  1
  Fe  Fe50  1  0.83553032  0.49931809  0.83364505  1
  Fe  Fe51  1  0.83433716  0.83453552  0.50151141  1
  Fe  Fe52  1  0.66785018  0.66873385  0.66831633  1
  Fe  Fe53  1  0.83593400  0.83571172  0.83241059  1
" 