5418,Ni4Fe74Cr21_12,-222.381418244009, 148.057222829111,Ni4Fe74Cr21,"# generated using pymatgen
 data_Cr6Fe20Ni
_symmetry_space_group_name_H-M   'P 1'
_cell_length_a   7.47793316
_cell_length_b   7.47793316
_cell_length_c   10.57539450
_cell_angle_alpha   90.00000000
_cell_angle_beta   90.00000000
_cell_angle_gamma   90.00000000
_symmetry_Int_Tables_number   1
_chemical_formula_structural   Cr6Fe20Ni
_chemical_formula_sum   'Cr12 Fe40 Ni2'
_cell_volume   591.37060780
_cell_formula_units_Z   2
loop_
 _symmetry_equiv_pos_site_id
 _symmetry_equiv_pos_as_xyz
  1  'x, y, z'
loop_
 _atom_site_type_symbol
 _atom_site_label
 _atom_site_symmetry_multiplicity
 _atom_site_fract_x
 _atom_site_fract_y
 _atom_site_fract_z
 _atom_site_occupancy
  Fe  Fe0  1  0.00018793  0.99735484  -0.00072382  1
  Fe  Fe1  1  0.16753761  0.16484045  0.16598128  1
  Fe  Fe2  1  -0.00060531  0.99844413  0.33169649  1
  Cr  Cr3  1  -0.00014837  0.33358014  -0.00014996  1
  Fe  Fe4  1  0.16638363  0.49975717  0.16596201  1
  Fe  Fe5  1  0.99880730  0.33405216  0.33219296  1
  Fe  Fe6  1  0.99912783  0.66701061  -0.00072770  1
  Fe  Fe7  1  0.16531844  0.83322055  0.16608398  1
  Fe  Fe8  1  0.99893920  0.66532245  0.33216412  1
  Fe  Fe9  1  0.33214164  0.00002626  -0.00070003  1
  Ni  Ni10  1  0.49825891  0.16719870  0.16663001  1
  Fe  Fe11  1  0.33292821  -0.00043039  0.33138209  1
  Fe  Fe12  1  0.33472666  0.33231864  -0.00011710  1
  Fe  Fe13  1  0.49989460  0.49812604  0.16564330  1
  Cr  Cr14  1  0.33210333  0.33200201  0.33201910  1
  Fe  Fe15  1  0.33206353  0.66546888  0.99881484  1
  Cr  Cr16  1  0.49806429  0.83133904  0.16695892  1
  Fe  Fe17  1  0.33163309  0.66594056  0.33172715  1
  Cr  Cr18  1  0.66542063  0.99917502  0.99780838  1
  Cr  Cr19  1  0.83312580  0.16679841  0.16617912  1
  Fe  Fe20  1  0.66548884  -0.00029559  0.33220020  1
  Fe  Fe21  1  0.66395427  0.33338158  0.99880656  1
  Fe  Fe22  1  0.83153966  0.50034884  0.16642673  1
  Fe  Fe23  1  0.66611048  0.33275634  0.33185355  1
  Fe  Fe24  1  0.66662235  0.66441732  0.99882828  1
  Fe  Fe25  1  0.83355331  0.83167274  0.16642309  1
  Fe  Fe26  1  0.66724383  0.66535988  0.33217547  1
  Cr  Cr27  1  0.16572755  0.16564017  0.49897760  1
  Fe  Fe28  1  0.99832711  0.99737821  0.66684713  1
  Cr  Cr29  1  0.16614926  0.16438149  0.83326061  1
  Fe  Fe30  1  0.16502301  0.50020567  0.49927658  1
  Cr  Cr31  1  -0.00024334  0.33475935  0.66504787  1
  Fe  Fe32  1  0.16731257  0.50068306  0.83257410  1
  Cr  Cr33  1  0.16582276  0.83190085  0.49955853  1
  Fe  Fe34  1  0.99881950  0.66640416  0.66638153  1
  Fe  Fe35  1  0.16637184  0.83213426  0.83246005  1
  Fe  Fe36  1  0.49960484  0.16533345  0.49973746  1
  Fe  Fe37  1  0.33371566  -0.00027238  0.66713950  1
  Ni  Ni38  1  0.49994889  0.16687614  0.83130704  1
  Cr  Cr39  1  0.50002715  0.49974660  0.49982147  1
  Fe  Fe40  1  0.33428898  0.33276200  0.66653776  1
  Fe  Fe41  1  0.49914064  0.49857016  0.83243610  1
  Cr  Cr42  1  0.49942358  0.83247681  0.49909874  1
  Fe  Fe43  1  0.33193970  0.66532150  0.66727885  1
  Fe  Fe44  1  0.49865312  0.83283580  0.83208174  1
  Cr  Cr45  1  0.83204653  0.16625064  0.49920844  1
  Fe  Fe46  1  0.66577229  -0.00027883  0.66727743  1
  Fe  Fe47  1  0.83067958  0.16548117  0.83209876  1
  Fe  Fe48  1  0.83320530  0.50079069  0.49877800  1
  Fe  Fe49  1  0.66470299  0.33227452  0.66715769  1
  Fe  Fe50  1  0.83136379  0.49959588  0.83260898  1
  Fe  Fe51  1  0.83260222  0.83169177  0.49925850  1
  Fe  Fe52  1  0.66705801  0.66582141  0.66681687  1
  Fe  Fe53  1  0.83279112  0.83274500  0.83213000  1
" 