6028,Ni4Fe33Cr62_17,-213.518166504533, 192.224514464888,Ni4Fe33Cr62,"# generated using pymatgen
 data_Cr17Fe9Ni
_symmetry_space_group_name_H-M   'P 1'
_cell_length_a   7.54502673
_cell_length_b   7.54502673
_cell_length_c   10.67027913
_cell_angle_alpha   90.00000000
_cell_angle_beta   90.00000000
_cell_angle_gamma   90.00000000
_symmetry_Int_Tables_number   1
_chemical_formula_structural   Cr17Fe9Ni
_chemical_formula_sum   'Cr34 Fe18 Ni2'
_cell_volume   607.43155069
_cell_formula_units_Z   2
loop_
 _symmetry_equiv_pos_site_id
 _symmetry_equiv_pos_as_xyz
  1  'x, y, z'
loop_
 _atom_site_type_symbol
 _atom_site_label
 _atom_site_symmetry_multiplicity
 _atom_site_fract_x
 _atom_site_fract_y
 _atom_site_fract_z
 _atom_site_occupancy
  Fe  Fe0  1  0.99478163  -0.00239106  0.99286172  1
  Fe  Fe1  1  0.16205848  0.15965516  0.16301059  1
  Fe  Fe2  1  -0.00515437  0.99379627  0.32881380  1
  Cr  Cr3  1  0.99454326  0.32652115  -0.00485949  1
  Cr  Cr4  1  0.16430039  0.49318842  0.16156940  1
  Cr  Cr5  1  -0.00444004  0.32664802  0.32670868  1
  Cr  Cr6  1  -0.00301502  0.66028005  0.99403890  1
  Cr  Cr7  1  0.15970195  0.82991029  0.16025960  1
  Cr  Cr8  1  -0.00483732  0.66072774  0.33001159  1
  Cr  Cr9  1  0.32755785  0.99346753  0.99459760  1
  Cr  Cr10  1  0.49399612  0.16355237  0.16387243  1
  Fe  Fe11  1  0.32767618  -0.00480831  0.32909274  1
  Cr  Cr12  1  0.32699019  0.32657014  0.99288684  1
  Cr  Cr13  1  0.49540487  0.49349172  0.16015462  1
  Fe  Fe14  1  0.32876739  0.32915205  0.32882216  1
  Fe  Fe15  1  0.32883722  0.66023687  0.99285802  1
  Cr  Cr16  1  0.49669704  0.82752294  0.16117861  1
  Cr  Cr17  1  0.32815224  0.66539523  0.32980311  1
  Cr  Cr18  1  0.66093428  -0.00374302  0.99338244  1
  Cr  Cr19  1  0.82802756  0.15916629  0.16267882  1
  Fe  Fe20  1  0.66176591  0.99449225  0.33009736  1
  Cr  Cr21  1  0.66288277  0.32590667  0.98860563  1
  Cr  Cr22  1  0.82530058  0.49589166  0.16033370  1
  Cr  Cr23  1  0.66403997  0.32785021  0.33263075  1
  Fe  Fe24  1  0.66014696  0.65969736  0.99252753  1
  Cr  Cr25  1  0.82811710  0.82875982  0.15878781  1
  Cr  Cr26  1  0.66061531  0.66344584  0.33090684  1
  Cr  Cr27  1  0.16255812  0.16124271  0.49383317  1
  Fe  Fe28  1  0.99333504  -0.00231611  0.66214743  1
  Cr  Cr29  1  0.16133186  0.16022987  0.82590735  1
  Cr  Cr30  1  0.16235587  0.49389953  0.49676163  1
  Cr  Cr31  1  0.99278279  0.32986972  0.66216386  1
  Fe  Fe32  1  0.16024229  0.49523735  0.82768395  1
  Cr  Cr33  1  0.15937674  0.82994810  0.50049630  1
  Fe  Fe34  1  0.99307990  0.66076712  0.66237922  1
  Cr  Cr35  1  0.16011527  0.82800559  0.82411739  1
  Cr  Cr36  1  0.49430792  0.16287446  0.49538422  1
  Ni  Ni37  1  0.32794566  0.99429793  0.66065379  1
  Fe  Fe38  1  0.49479169  0.15919927  0.82631699  1
  Fe  Fe39  1  0.49429839  0.49494831  0.49541160  1
  Cr  Cr40  1  0.32885132  0.32742360  0.66424611  1
  Fe  Fe41  1  0.49539084  0.49493007  0.82831301  1
  Fe  Fe42  1  0.49271678  0.83119835  0.49534530  1
  Cr  Cr43  1  0.32828855  0.66302561  0.66171886  1
  Cr  Cr44  1  0.49479731  0.82662581  0.82822537  1
  Fe  Fe45  1  0.83049996  0.16019222  0.49576028  1
  Cr  Cr46  1  0.65941957  -0.00423281  0.66152004  1
  Ni  Ni47  1  0.82917776  0.16248318  0.82596546  1
  Fe  Fe48  1  0.82887023  0.49375558  0.49544599  1
  Cr  Cr49  1  0.66378909  0.32750480  0.66326756  1
  Fe  Fe50  1  0.82905299  0.49610857  0.82795368  1
  Cr  Cr51  1  0.82877794  0.82954402  0.49614695  1
  Cr  Cr52  1  0.66178428  0.66072146  0.65875399  1
  Cr  Cr53  1  0.82916377  0.82908250  0.82939914  1
" 