3580,Ni4Fe74Cr21_13,-222.378612692851, 150.506086388561,Ni4Fe74Cr21,"# generated using pymatgen
 data_Cr6Fe20Ni
_symmetry_space_group_name_H-M   'P 1'
_cell_length_a   7.46849024
_cell_length_b   7.46849024
_cell_length_c   10.56204019
_cell_angle_alpha   90.00000000
_cell_angle_beta   90.00000000
_cell_angle_gamma   90.00000000
_symmetry_Int_Tables_number   1
_chemical_formula_structural   Cr6Fe20Ni
_chemical_formula_sum   'Cr12 Fe40 Ni2'
_cell_volume   589.13313796
_cell_formula_units_Z   2
loop_
 _symmetry_equiv_pos_site_id
 _symmetry_equiv_pos_as_xyz
  1  'x, y, z'
loop_
 _atom_site_type_symbol
 _atom_site_label
 _atom_site_symmetry_multiplicity
 _atom_site_fract_x
 _atom_site_fract_y
 _atom_site_fract_z
 _atom_site_occupancy
  Fe  Fe0  1  0.99839245  0.99971568  0.99976160  1
  Fe  Fe1  1  0.16716464  0.16619660  0.16581539  1
  Fe  Fe2  1  0.99909786  0.99938141  0.33254475  1
  Fe  Fe3  1  0.00034599  0.33282225  0.00044055  1
  Fe  Fe4  1  0.16540013  0.50047868  0.16547231  1
  Cr  Cr5  1  0.00158681  0.33391277  0.33439056  1
  Fe  Fe6  1  0.00065795  0.66717381  0.00021633  1
  Fe  Fe7  1  0.16646229  0.83317374  0.16694555  1
  Fe  Fe8  1  0.99853616  0.66718357  0.33312216  1
  Fe  Fe9  1  0.33386609  0.00065492  0.00105701  1
  Fe  Fe10  1  0.49952387  0.16403398  0.16704719  1
  Fe  Fe11  1  0.33254621  0.00201317  0.33161473  1
  Fe  Fe12  1  0.33156878  0.33150359  0.99974740  1
  Cr  Cr13  1  0.50007780  0.49948290  0.16770276  1
  Fe  Fe14  1  0.33353251  0.33136779  0.33360532  1
  Fe  Fe15  1  0.33098373  0.66771036  0.00095452  1
  Fe  Fe16  1  0.49938680  0.83622627  0.16733863  1
  Fe  Fe17  1  0.33058289  0.66649378  0.33188481  1
  Ni  Ni18  1  0.66678341  0.99978651  0.00107942  1
  Fe  Fe19  1  0.83348204  0.16502475  0.16669432  1
  Fe  Fe20  1  0.66769964  0.00080020  0.33177916  1
  Cr  Cr21  1  0.66681374  0.33217794  0.99973970  1
  Fe  Fe22  1  0.83555663  0.50022656  0.16798541  1
  Fe  Fe23  1  0.66798154  0.33175182  0.33325434  1
  Cr  Cr24  1  0.66803128  0.66872724  0.00084197  1
  Fe  Fe25  1  0.83406775  0.83485983  0.16732584  1
  Fe  Fe26  1  0.67048615  0.66673260  0.33270508  1
  Fe  Fe27  1  0.16697018  0.16787487  0.49878730  1
  Cr  Cr28  1  0.99915375  0.00021550  0.66574710  1
  Fe  Fe29  1  0.16669565  0.16647524  0.83487447  1
  Fe  Fe30  1  0.16502430  0.50163618  0.50003134  1
  Fe  Fe31  1  0.99769153  0.33415241  0.66592869  1
  Fe  Fe32  1  0.16474323  0.50073081  0.83427031  1
  Cr  Cr33  1  0.16594436  0.83505665  0.49980545  1
  Fe  Fe34  1  0.99887414  0.66400270  0.66677391  1
  Fe  Fe35  1  0.16494446  0.83224417  0.83385216  1
  Fe  Fe36  1  0.50078353  0.16656747  0.49785960  1
  Fe  Fe37  1  0.33205548  0.00136009  0.66736347  1
  Fe  Fe38  1  0.49903038  0.16554951  0.83430847  1
  Cr  Cr39  1  0.50208643  0.50028049  0.49949869  1
  Cr  Cr40  1  0.33147173  0.33262069  0.66499756  1
  Cr  Cr41  1  0.50097640  0.49989214  0.83175516  1
  Cr  Cr42  1  0.49865767  0.83285278  0.49946101  1
  Fe  Fe43  1  0.33000321  0.66748352  0.66710088  1
  Cr  Cr44  1  0.49811392  0.83344185  0.83305110  1
  Fe  Fe45  1  0.83187786  0.16729176  0.49888978  1
  Cr  Cr46  1  0.66676500  0.99975692  0.66682426  1
  Fe  Fe47  1  0.83381182  0.16623169  0.83441496  1
  Ni  Ni48  1  0.83356764  0.49824499  0.50091697  1
  Fe  Fe49  1  0.67029672  0.33247240  0.66667746  1
  Fe  Fe50  1  0.83628678  0.50003725  0.83143235  1
  Fe  Fe51  1  0.83251366  0.82996690  0.49807637  1
  Fe  Fe52  1  0.67088971  0.66549794  0.66651621  1
  Fe  Fe53  1  0.83493993  0.83323496  0.83450277  1
" 