573,Ni4Fe96_17,-241.003157044827, 185.83757766909,Ni4Fe96,"# generated using pymatgen
 data_FeNi26
_symmetry_space_group_name_H-M   'P 1'
_cell_length_a   7.45557049
_cell_length_b   7.45557049
_cell_length_c   10.54376891
_cell_angle_alpha   90.00000000
_cell_angle_beta   90.00000000
_cell_angle_gamma   90.00000000
_symmetry_Int_Tables_number   1
_chemical_formula_structural   FeNi26
_chemical_formula_sum   'Fe2 Ni52'
_cell_volume   586.08099780
_cell_formula_units_Z   2
loop_
 _symmetry_equiv_pos_site_id
 _symmetry_equiv_pos_as_xyz
  1  'x, y, z'
loop_
 _atom_site_type_symbol
 _atom_site_label
 _atom_site_symmetry_multiplicity
 _atom_site_fract_x
 _atom_site_fract_y
 _atom_site_fract_z
 _atom_site_occupancy
  Ni  Ni0  1  1.00070390  1.00070390  1.00044813  1
  Fe  Fe1  1  0.16733541  0.16733541  0.16748064  1
  Ni  Ni2  1  1.00062649  1.00062649  0.33418108  1
  Ni  Ni3  1  1.00074002  0.33411386  0.00090400  1
  Ni  Ni4  1  0.16734867  0.50149577  0.16749728  1
  Ni  Ni5  1  1.00066423  0.33404768  0.33414290  1
  Ni  Ni6  1  1.00075067  0.66745540  0.00076970  1
  Ni  Ni7  1  0.16768518  0.83296006  0.16712287  1
  Ni  Ni8  1  1.00075991  0.66760348  0.33419304  1
  Ni  Ni9  1  0.33411386  1.00074002  0.00090400  1
  Ni  Ni10  1  0.50149577  0.16734867  0.16749728  1
  Ni  Ni11  1  0.33404768  1.00066423  0.33414290  1
  Ni  Ni12  1  0.33410303  0.33410303  1.00076970  1
  Ni  Ni13  1  0.50023577  0.50023577  0.16675383  1
  Ni  Ni14  1  0.33433876  0.33433876  0.33410392  1
  Ni  Ni15  1  0.33409221  0.66746605  1.00063540  1
  Ni  Ni16  1  0.50022955  0.83472027  0.16748940  1
  Ni  Ni17  1  0.33428288  0.66727434  0.33419397  1
  Ni  Ni18  1  0.66745540  1.00075067  0.00076970  1
  Ni  Ni19  1  0.83296006  0.16768518  0.16712287  1
  Ni  Ni20  1  0.66760348  1.00075991  0.33419304  1
  Ni  Ni21  1  0.66746605  0.33409221  1.00063540  1
  Ni  Ni22  1  0.83472027  0.50022955  0.16748940  1
  Ni  Ni23  1  0.66727434  0.33428288  0.33419397  1
  Ni  Ni24  1  0.66750217  0.66750217  0.00109127  1
  Ni  Ni25  1  0.83440451  0.83440451  0.16712942  1
  Ni  Ni26  1  0.66726733  0.66726733  0.33378348  1
  Ni  Ni27  1  0.16767893  0.16767893  0.50038339  1
  Ni  Ni28  1  0.00093874  0.00093874  0.66775592  1
  Ni  Ni29  1  0.16797029  0.16797029  0.83478557  1
  Ni  Ni30  1  0.16735375  0.50085232  0.50076970  1
  Ni  Ni31  1  0.00093173  0.33392319  0.66734543  1
  Ni  Ni32  1  0.16671030  0.50085740  0.83404212  1
  Ni  Ni33  1  0.16768147  0.83378592  0.50112456  1
  Ni  Ni34  1  1.00060258  0.66744616  0.66734636  1
  Ni  Ni35  1  0.16797652  0.83348580  0.83405000  1
  Ni  Ni36  1  0.50085232  0.16735375  0.50076970  1
  Ni  Ni37  1  0.33392319  0.00093173  0.66734543  1
  Ni  Ni38  1  0.50085740  0.16671030  0.83404212  1
  Ni  Ni39  1  0.50052714  0.50052714  0.50115601  1
  Ni  Ni40  1  0.33386731  0.33386731  0.66743548  1
  Fe  Fe41  1  0.50087066  0.50087066  0.83405877  1
  Ni  Ni42  1  0.50052460  0.83442015  0.50041484  1
  Ni  Ni43  1  0.33415839  0.66754183  0.66739650  1
  Ni  Ni44  1  0.50052089  0.83524600  0.83441653  1
  Ni  Ni45  1  0.83378592  0.16768147  0.50112456  1
  Ni  Ni46  1  0.66744616  1.00060258  0.66734636  1
  Ni  Ni47  1  0.83348580  0.16797652  0.83405000  1
  Ni  Ni48  1  0.83442015  0.50052460  0.50041484  1
  Ni  Ni49  1  0.66754183  0.33415839  0.66739650  1
  Ni  Ni50  1  0.83524600  0.50052089  0.83441653  1
  Ni  Ni51  1  0.83410303  0.83410303  0.50076970  1
  Ni  Ni52  1  0.66757958  0.66757958  0.66735832  1
  Ni  Ni53  1  0.83380156  0.83380156  0.83440998  1
" 