4594,Ni4Fe96_16,-240.970353791545, 185.61397117344,Ni4Fe96,"# generated using pymatgen
 data_FeNi26
_symmetry_space_group_name_H-M   'P 1'
_cell_length_a   7.45518247
_cell_length_b   7.45518247
_cell_length_c   10.54322016
_cell_angle_alpha   90.00000000
_cell_angle_beta   90.00000000
_cell_angle_gamma   90.00000000
_symmetry_Int_Tables_number   1
_chemical_formula_structural   FeNi26
_chemical_formula_sum   'Fe2 Ni52'
_cell_volume   585.98949522
_cell_formula_units_Z   2
loop_
 _symmetry_equiv_pos_site_id
 _symmetry_equiv_pos_as_xyz
  1  'x, y, z'
loop_
 _atom_site_type_symbol
 _atom_site_label
 _atom_site_symmetry_multiplicity
 _atom_site_fract_x
 _atom_site_fract_y
 _atom_site_fract_z
 _atom_site_occupancy
  Ni  Ni0  1  1.00047963  0.00164913  0.00112946  1
  Ni  Ni1  1  0.16738567  0.16736364  0.16754222  1
  Ni  Ni2  1  0.00111190  0.00164913  0.33379540  1
  Ni  Ni3  1  0.00154868  0.33412910  1.00072763  1
  Ni  Ni4  1  0.16738567  0.50089455  0.16754222  1
  Ni  Ni5  1  1.00004285  0.33412910  0.33419724  1
  Ni  Ni6  1  1.00047963  0.66660906  0.00112946  1
  Ni  Ni7  1  0.16744686  0.83412910  0.16704504  1
  Ni  Ni8  1  0.00111190  0.66660906  0.33379540  1
  Ni  Ni9  1  0.33471393  0.00128970  1.00073115  1
  Ni  Ni10  1  0.50079576  0.16727740  0.16746243  1
  Ni  Ni11  1  0.33439651  1.00020233  0.33379659  1
  Ni  Ni12  1  0.33323427  0.33412910  0.00153150  1
  Ni  Ni13  1  0.50079576  0.50098080  0.16746243  1
  Fe  Fe14  1  0.33418659  0.33412910  0.33409949  1
  Ni  Ni15  1  0.33471393  0.66696850  1.00073115  1
  Ni  Ni16  1  0.50079576  0.83412910  0.16746243  1
  Ni  Ni17  1  0.33439651  0.66805587  0.33379659  1
  Ni  Ni18  1  0.66719502  1.00020233  0.00112827  1
  Ni  Ni19  1  0.83420586  0.16736364  0.16738264  1
  Ni  Ni20  1  0.66687760  0.00128970  0.33419371  1
  Fe  Fe21  1  0.66740494  0.33412910  0.00082538  1
  Ni  Ni22  1  0.83420586  0.50089455  0.16738264  1
  Ni  Ni23  1  0.66835726  0.33412910  0.33339336  1
  Ni  Ni24  1  0.66719502  0.66805587  0.00112827  1
  Ni  Ni25  1  0.83414467  0.83412910  0.16787982  1
  Ni  Ni26  1  0.66687760  0.66696850  0.33419371  1
  Ni  Ni27  1  0.16740409  0.16724182  0.50078928  1
  Ni  Ni28  1  0.00079576  0.00133282  0.66746243  1
  Ni  Ni29  1  0.16763166  0.16761685  0.83403265  1
  Ni  Ni30  1  0.16740409  0.50101638  0.50078928  1
  Ni  Ni31  1  0.00079576  0.33412910  0.66746243  1
  Ni  Ni32  1  0.16763166  0.50064134  0.83403265  1
  Ni  Ni33  1  0.16744782  0.83412910  0.50089197  1
  Ni  Ni34  1  1.00079576  0.66692538  0.66746243  1
  Ni  Ni35  1  0.16730085  0.83412910  0.83444993  1
  Ni  Ni36  1  0.50103613  0.16756159  0.50080165  1
  Ni  Ni37  1  0.33439865  0.00098113  0.66785421  1
  Ni  Ni38  1  0.50055540  0.16756159  0.83412321  1
  Ni  Ni39  1  0.50103613  0.50069661  0.50080165  1
  Ni  Ni40  1  0.33405280  0.33412910  0.66667717  1
  Ni  Ni41  1  0.50055540  0.50069661  0.83412321  1
  Ni  Ni42  1  0.50064907  0.83412910  0.50089239  1
  Ni  Ni43  1  0.33439865  0.66727707  0.66785421  1
  Ni  Ni44  1  0.50094246  0.83412910  0.83403247  1
  Ni  Ni45  1  0.83395986  0.16761685  0.50089222  1
  Ni  Ni46  1  0.66719288  0.00098113  0.66707065  1
  Ni  Ni47  1  0.83418744  0.16724182  0.83413558  1
  Ni  Ni48  1  0.83395986  0.50064134  0.50089222  1
  Ni  Ni49  1  0.66753873  0.33412910  0.66824769  1
  Ni  Ni50  1  0.83418744  0.50101638  0.83413558  1
  Ni  Ni51  1  0.83429068  0.83412910  0.50047494  1
  Ni  Ni52  1  0.66719288  0.66727707  0.66707065  1
  Ni  Ni53  1  0.83414371  0.83412910  0.83403289  1
" 