8012,Ni4Fe74Cr21_17,-222.566053076952, 151.395719393717,Ni4Fe74Cr21,"# generated using pymatgen
 data_Cr6Fe20Ni
_symmetry_space_group_name_H-M   'P 1'
_cell_length_a   7.47473585
_cell_length_b   7.47473585
_cell_length_c   10.57087281
_cell_angle_alpha   90.00000000
_cell_angle_beta   90.00000000
_cell_angle_gamma   90.00000000
_symmetry_Int_Tables_number   1
_chemical_formula_structural   Cr6Fe20Ni
_chemical_formula_sum   'Cr12 Fe40 Ni2'
_cell_volume   590.61238033
_cell_formula_units_Z   2
loop_
 _symmetry_equiv_pos_site_id
 _symmetry_equiv_pos_as_xyz
  1  'x, y, z'
loop_
 _atom_site_type_symbol
 _atom_site_label
 _atom_site_symmetry_multiplicity
 _atom_site_fract_x
 _atom_site_fract_y
 _atom_site_fract_z
 _atom_site_occupancy
  Fe  Fe0  1  0.00069113  -0.00043465  -0.00042829  1
  Fe  Fe1  1  0.16902584  0.16605451  0.16679980  1
  Fe  Fe2  1  0.00210849  0.99850592  0.33307578  1
  Fe  Fe3  1  0.00082678  0.33381513  -0.00033130  1
  Fe  Fe4  1  0.16558604  0.49751535  0.16611999  1
  Fe  Fe5  1  0.00253381  0.33412936  0.33347285  1
  Cr  Cr6  1  0.00309746  0.66763729  -0.00024252  1
  Fe  Fe7  1  0.16586845  0.83570858  0.16640934  1
  Fe  Fe8  1  0.99678322  0.66604140  0.33225233  1
  Fe  Fe9  1  0.33139737  0.99733682  0.00008244  1
  Fe  Fe10  1  0.49695790  0.16524075  0.16600779  1
  Fe  Fe11  1  0.33264299  0.00240183  0.33422590  1
  Fe  Fe12  1  0.33197387  0.33432555  0.00115170  1
  Fe  Fe13  1  0.49882192  0.50023386  0.16611565  1
  Fe  Fe14  1  0.33114482  0.33199436  0.33314889  1
  Fe  Fe15  1  0.33595283  0.66663971  -0.00004306  1
  Fe  Fe16  1  0.49938434  0.83332000  0.16679388  1
  Cr  Cr17  1  0.32771592  0.66734712  0.33268955  1
  Cr  Cr18  1  0.66625314  0.00053036  0.99804029  1
  Cr  Cr19  1  0.83774814  0.16609388  0.16493533  1
  Fe  Fe20  1  0.66630784  0.99697093  0.33156345  1
  Cr  Cr21  1  0.66687787  0.33339403  0.99833486  1
  Fe  Fe22  1  0.83340983  0.50140850  0.16683622  1
  Cr  Cr23  1  0.66526709  0.33087752  0.33328861  1
  Fe  Fe24  1  0.66634407  0.66694749  0.99920370  1
  Fe  Fe25  1  0.83285255  0.83175039  0.16727565  1
  Fe  Fe26  1  0.66658161  0.66562506  0.33220944  1
  Ni  Ni27  1  0.16658780  0.16778928  0.49856359  1
  Fe  Fe28  1  0.00176858  0.99820004  0.66616416  1
  Cr  Cr29  1  0.16404067  0.16751626  0.83428132  1
  Fe  Fe30  1  0.16350131  0.49839422  0.49934017  1
  Fe  Fe31  1  0.00330852  0.33417514  0.66566548  1
  Fe  Fe32  1  0.16677859  0.49941778  0.83356174  1
  Fe  Fe33  1  0.16332323  0.83617781  0.49963011  1
  Fe  Fe34  1  0.99728246  0.66703224  0.66682383  1
  Fe  Fe35  1  0.16705502  0.83458919  0.83281684  1
  Fe  Fe36  1  0.49644015  0.16468706  0.50078614  1
  Ni  Ni37  1  0.33036529  0.99856192  0.66399209  1
  Cr  Cr38  1  0.49568126  0.16466435  0.82966340  1
  Fe  Fe39  1  0.49776962  0.49708723  0.49949059  1
  Fe  Fe40  1  0.33043544  0.33166561  0.66366123  1
  Fe  Fe41  1  0.49796786  0.50076222  0.83319212  1
  Cr  Cr42  1  0.50211460  0.83206643  0.50018338  1
  Cr  Cr43  1  0.32769803  0.66634374  0.66745339  1
  Fe  Fe44  1  0.49791476  0.83185765  0.83162987  1
  Cr  Cr45  1  0.83569972  0.16376832  0.50158983  1
  Fe  Fe46  1  0.66593793  0.99598619  0.66739373  1
  Fe  Fe47  1  0.83442047  0.16533448  0.83126215  1
  Fe  Fe48  1  0.83430405  0.50128042  0.49947935  1
  Cr  Cr49  1  0.66685567  0.33212916  0.66635060  1
  Fe  Fe50  1  0.83491505  0.50001084  0.83207498  1
  Fe  Fe51  1  0.83581245  0.83152123  0.49923018  1
  Fe  Fe52  1  0.66641577  0.66648856  0.66741197  1
  Fe  Fe53  1  0.83367917  0.83331036  0.83154829  1
" 