382,Ni4Fe84Cr11_18,-223.600630832453, 142.035577748406,Ni4Fe84Cr11,"# generated using pymatgen
 data_Cr7Fe45Ni2
_symmetry_space_group_name_H-M   'P 1'
_cell_length_a   7.45129364
_cell_length_b   7.45129364
_cell_length_c   10.53772052
_cell_angle_alpha   90.00000000
_cell_angle_beta   90.00000000
_cell_angle_gamma   90.00000000
_symmetry_Int_Tables_number   1
_chemical_formula_structural   Cr7Fe45Ni2
_chemical_formula_sum   'Cr7 Fe45 Ni2'
_cell_volume   585.07296808
_cell_formula_units_Z   1
loop_
 _symmetry_equiv_pos_site_id
 _symmetry_equiv_pos_as_xyz
  1  'x, y, z'
loop_
 _atom_site_type_symbol
 _atom_site_label
 _atom_site_symmetry_multiplicity
 _atom_site_fract_x
 _atom_site_fract_y
 _atom_site_fract_z
 _atom_site_occupancy
  Fe  Fe0  1  0.99914395  1.00066374  0.00108420  1
  Cr  Cr1  1  0.16689129  0.16862549  0.16805283  1
  Fe  Fe2  1  1.00011698  0.99799730  0.33392357  1
  Ni  Ni3  1  0.99882818  0.33579385  1.00059129  1
  Fe  Fe4  1  0.16621893  0.50173316  0.16604917  1
  Fe  Fe5  1  0.00138307  0.33691775  0.33356625  1
  Fe  Fe6  1  1.00058202  0.66720075  1.00104942  1
  Fe  Fe7  1  0.16587749  0.83303523  0.16571221  1
  Fe  Fe8  1  0.99931923  0.66817946  0.33424263  1
  Fe  Fe9  1  0.33486842  1.00039434  1.00105578  1
  Fe  Fe10  1  0.50350539  0.16841048  0.16679717  1
  Cr  Cr11  1  0.33514587  1.00028864  0.33539437  1
  Fe  Fe12  1  0.33468751  0.33606985  1.00093662  1
  Fe  Fe13  1  0.50168022  0.50003287  0.16677109  1
  Fe  Fe14  1  0.33543005  0.33552409  0.33538510  1
  Fe  Fe15  1  0.33363352  0.66684105  0.00152314  1
  Fe  Fe16  1  0.50280922  0.83466864  0.16558905  1
  Cr  Cr17  1  0.33322923  0.66849910  0.33383571  1
  Fe  Fe18  1  0.66895875  0.00181113  1.00007654  1
  Fe  Fe19  1  0.83281288  0.16827019  0.16761602  1
  Fe  Fe20  1  0.66841438  0.99944718  0.33412081  1
  Fe  Fe21  1  0.66854757  0.33467895  1.00053746  1
  Fe  Fe22  1  0.83494129  0.50049077  0.16744722  1
  Fe  Fe23  1  0.66632781  0.33541229  0.33387013  1
  Fe  Fe24  1  0.66889953  0.66670158  0.00109327  1
  Fe  Fe25  1  0.83445919  0.83466700  0.16764014  1
  Fe  Fe26  1  0.66894678  0.66799943  0.33393771  1
  Fe  Fe27  1  0.16778338  0.17000816  0.50099717  1
  Fe  Fe28  1  0.99847074  0.99905191  0.66806745  1
  Cr  Cr29  1  0.16658858  0.16839029  0.83354946  1
  Fe  Fe30  1  0.16619873  0.49998819  0.50207281  1
  Fe  Fe31  1  0.00178749  0.33563093  0.66834015  1
  Fe  Fe32  1  0.16731387  0.50283782  0.83488500  1
  Fe  Fe33  1  0.16388470  0.83328107  0.50189848  1
  Fe  Fe34  1  1.00000322  0.66842494  0.66789333  1
  Fe  Fe35  1  0.16716208  0.83200520  0.83517275  1
  Fe  Fe36  1  0.50229764  0.16895430  0.50104599  1
  Cr  Cr37  1  0.33525535  0.99972656  0.66611866  1
  Fe  Fe38  1  0.50220824  0.16655887  0.83599901  1
  Fe  Fe39  1  0.50193336  0.50084460  0.50119664  1
  Fe  Fe40  1  0.33482265  0.33607666  0.66674203  1
  Fe  Fe41  1  0.49944665  0.50223129  0.83565885  1
  Fe  Fe42  1  0.50537290  0.83321678  0.50177994  1
  Fe  Fe43  1  0.33558441  0.66600305  0.66734713  1
  Fe  Fe44  1  0.50197544  0.83389635  0.83528319  1
  Cr  Cr45  1  0.83567170  0.16636858  0.50053002  1
  Ni  Ni46  1  0.66778543  1.00033094  0.66858118  1
  Fe  Fe47  1  0.83364222  0.16624432  0.83550140  1
  Fe  Fe48  1  0.83498921  0.50298079  0.50041165  1
  Cr  Cr49  1  0.66952636  0.33443922  0.67048279  1
  Fe  Fe50  1  0.83625853  0.50207253  0.83582669  1
  Fe  Fe51  1  0.83364548  0.83240160  0.50158270  1
  Fe  Fe52  1  0.66757644  0.66990012  0.66812566  1
  Fe  Fe53  1  0.83424146  0.83486562  0.83409601  1
" 