8703,Ni4Fe33Cr62_13,-213.579510758554, 189.800226355608,Ni4Fe33Cr62,"# generated using pymatgen
 data_Cr17Fe9Ni
_symmetry_space_group_name_H-M   'P 1'
_cell_length_a   7.54766379
_cell_length_b   7.54766379
_cell_length_c   10.67400849
_cell_angle_alpha   90.00000000
_cell_angle_beta   90.00000000
_cell_angle_gamma   90.00000000
_symmetry_Int_Tables_number   1
_chemical_formula_structural   Cr17Fe9Ni
_chemical_formula_sum   'Cr34 Fe18 Ni2'
_cell_volume   608.06868193
_cell_formula_units_Z   2
loop_
 _symmetry_equiv_pos_site_id
 _symmetry_equiv_pos_as_xyz
  1  'x, y, z'
loop_
 _atom_site_type_symbol
 _atom_site_label
 _atom_site_symmetry_multiplicity
 _atom_site_fract_x
 _atom_site_fract_y
 _atom_site_fract_z
 _atom_site_occupancy
  Fe  Fe0  1  0.99362660  -0.00286486  0.99348273  1
  Cr  Cr1  1  0.16087262  0.16265218  0.15869221  1
  Cr  Cr2  1  -0.00187829  -0.00442895  0.33004426  1
  Cr  Cr3  1  -0.00518101  0.32792401  -0.00250159  1
  Fe  Fe4  1  0.16324228  0.49499751  0.15988595  1
  Cr  Cr5  1  0.99459804  0.32904937  0.32487164  1
  Cr  Cr6  1  0.99326742  0.65996455  -0.00502426  1
  Cr  Cr7  1  0.16209658  0.82565208  0.16104360  1
  Cr  Cr8  1  -0.00405387  0.65964461  0.32866441  1
  Cr  Cr9  1  0.32814485  -0.00299222  -0.00358258  1
  Fe  Fe10  1  0.49277783  0.16210226  0.16020083  1
  Fe  Fe11  1  0.32636730  0.99446093  0.32829501  1
  Ni  Ni12  1  0.32723283  0.32771764  0.99293555  1
  Cr  Cr13  1  0.49083641  0.49387490  0.15901656  1
  Cr  Cr14  1  0.32699108  0.32423136  0.32856907  1
  Fe  Fe15  1  0.32843802  0.65788777  0.99454313  1
  Cr  Cr16  1  0.49262978  0.82745576  0.16252491  1
  Fe  Fe17  1  0.32720262  0.66154144  0.32821147  1
  Cr  Cr18  1  0.66141554  -0.00433022  -0.00425971  1
  Fe  Fe19  1  0.82787798  0.16107754  0.16094048  1
  Cr  Cr20  1  0.65758797  -0.00361521  0.32482975  1
  Cr  Cr21  1  0.66136522  0.32789837  -0.00277326  1
  Fe  Fe22  1  0.82902523  0.49494244  0.16103707  1
  Cr  Cr23  1  0.66227536  0.32731429  0.32348774  1
  Cr  Cr24  1  0.66243403  0.66040953  0.99138404  1
  Cr  Cr25  1  0.82933907  0.83021732  0.15963933  1
  Cr  Cr26  1  0.66215900  0.66045884  0.32797592  1
  Fe  Fe27  1  0.16133966  0.16028975  0.49489414  1
  Fe  Fe28  1  0.99369861  -0.00412677  0.66258726  1
  Fe  Fe29  1  0.16107941  0.16148409  0.82900751  1
  Cr  Cr30  1  0.16286710  0.49419573  0.49268649  1
  Cr  Cr31  1  -0.00398936  0.32635399  0.66100664  1
  Cr  Cr32  1  0.16493017  0.49212417  0.83142003  1
  Fe  Fe33  1  0.16191124  0.82949630  0.49397226  1
  Cr  Cr34  1  0.99409943  0.66220928  0.66056560  1
  Cr  Cr35  1  0.15816862  0.82934882  0.83102816  1
  Cr  Cr36  1  0.49589539  0.16280275  0.49486529  1
  Cr  Cr37  1  0.32527702  -0.00313870  0.65754052  1
  Cr  Cr38  1  0.49545467  0.16530779  0.82680813  1
  Cr  Cr39  1  0.49442743  0.49251713  0.49878294  1
  Fe  Fe40  1  0.32913363  0.32820887  0.66290235  1
  Fe  Fe41  1  0.49473629  0.49206896  0.82811487  1
  Cr  Cr42  1  0.49408666  0.82849041  0.49120434  1
  Cr  Cr43  1  0.32790811  0.66277384  0.66157159  1
  Cr  Cr44  1  0.49562945  0.82711741  0.82961979  1
  Cr  Cr45  1  0.82748909  0.16103516  0.49629716  1
  Fe  Fe46  1  0.66281399  -0.00343034  0.66311154  1
  Fe  Fe47  1  0.82894676  0.16071353  0.82652435  1
  Cr  Cr48  1  0.82695851  0.49234017  0.49400942  1
  Ni  Ni49  1  0.66173904  0.32661591  0.66439166  1
  Fe  Fe50  1  0.82664137  0.49221672  0.82689820  1
  Cr  Cr51  1  0.82871211  0.83074027  0.49756164  1
  Cr  Cr52  1  0.66214466  0.65992296  0.66459305  1
  Fe  Fe53  1  0.82882493  0.83069303  0.82751531  1
" 