53,Ni4Fe74Cr21_3,-222.375728133073, 151.389071422717,Ni4Fe74Cr21,"# generated using pymatgen
 data_Cr6Fe20Ni
_symmetry_space_group_name_H-M   'P 1'
_cell_length_a   7.47577015
_cell_length_b   7.47577015
_cell_length_c   10.57233554
_cell_angle_alpha   90.00000000
_cell_angle_beta   90.00000000
_cell_angle_gamma   90.00000000
_symmetry_Int_Tables_number   1
_chemical_formula_structural   Cr6Fe20Ni
_chemical_formula_sum   'Cr12 Fe40 Ni2'
_cell_volume   590.85759032
_cell_formula_units_Z   2
loop_
 _symmetry_equiv_pos_site_id
 _symmetry_equiv_pos_as_xyz
  1  'x, y, z'
loop_
 _atom_site_type_symbol
 _atom_site_label
 _atom_site_symmetry_multiplicity
 _atom_site_fract_x
 _atom_site_fract_y
 _atom_site_fract_z
 _atom_site_occupancy
  Fe  Fe0  1  0.99815442  0.00059318  -0.00047226  1
  Fe  Fe1  1  0.16481012  0.16733328  0.16482851  1
  Cr  Cr2  1  0.99902081  0.99875777  0.33106018  1
  Fe  Fe3  1  -0.00036987  0.33131085  0.99884232  1
  Fe  Fe4  1  0.16608986  0.49944357  0.16610955  1
  Fe  Fe5  1  -0.00035814  0.33382938  0.33207872  1
  Cr  Cr6  1  0.99773013  0.66592615  0.99761289  1
  Fe  Fe7  1  0.16611402  0.83147408  0.16626490  1
  Fe  Fe8  1  -0.00023825  0.66488292  0.33131048  1
  Cr  Cr9  1  0.33231073  0.00038470  0.00000422  1
  Fe  Fe10  1  0.50130652  0.16669368  0.16547706  1
  Cr  Cr11  1  0.33315031  0.00128158  0.33205116  1
  Fe  Fe12  1  0.33197957  0.33358611  0.00034483  1
  Fe  Fe13  1  0.50001779  0.50007246  0.16528991  1
  Cr  Cr14  1  0.33317571  0.33264907  0.33430277  1
  Fe  Fe15  1  0.33336299  0.66543385  0.00010430  1
  Fe  Fe16  1  0.50063183  0.83148639  0.16627443  1
  Fe  Fe17  1  0.33256217  0.66493703  0.33143438  1
  Fe  Fe18  1  0.66755363  0.99920487  -0.00055256  1
  Fe  Fe19  1  0.83213330  0.16671468  0.16566166  1
  Fe  Fe20  1  0.66595640  -0.00042358  0.33148493  1
  Fe  Fe21  1  0.66664006  0.33214105  0.00008528  1
  Fe  Fe22  1  0.83214063  0.49877220  0.16692674  1
  Fe  Fe23  1  0.66600426  0.33238916  0.33147530  1
  Fe  Fe24  1  0.66527775  0.66690474  -0.00015423  1
  Fe  Fe25  1  0.83150113  0.83276160  0.16613065  1
  Fe  Fe26  1  0.66592764  0.66628358  0.33170125  1
  Fe  Fe27  1  0.16734006  0.16862096  0.50144166  1
  Cr  Cr28  1  0.00053895  0.99906107  0.66771013  1
  Fe  Fe29  1  0.16626109  0.16750443  0.83198576  1
  Fe  Fe30  1  0.16628804  0.49840379  0.50039017  1
  Ni  Ni31  1  0.00139442  0.33449609  0.66740814  1
  Fe  Fe32  1  0.16501317  0.49845844  0.83175163  1
  Cr  Cr33  1  0.16672796  0.83061502  0.50020434  1
  Fe  Fe34  1  0.00123041  0.66464638  0.66750972  1
  Fe  Fe35  1  0.16735370  0.83229005  0.83159377  1
  Fe  Fe36  1  0.49905062  0.16691715  0.50104246  1
  Ni  Ni37  1  0.33404215  0.00192058  0.66696643  1
  Fe  Fe38  1  0.49968486  0.16499418  0.83173636  1
  Fe  Fe39  1  0.49819273  0.49819815  0.49949515  1
  Fe  Fe40  1  0.33137282  0.33134487  0.66520374  1
  Cr  Cr41  1  0.49845621  0.49945634  0.83379811  1
  Cr  Cr42  1  0.49891632  0.83344391  0.49962638  1
  Fe  Fe43  1  0.33009806  0.66581274  0.66671624  1
  Fe  Fe44  1  0.49900225  0.83439237  0.83217438  1
  Cr  Cr45  1  0.83136337  0.16698049  0.49896903  1
  Fe  Fe46  1  0.66462966  0.00123451  0.66731585  1
  Fe  Fe47  1  0.83230963  0.16732939  0.83284891  1
  Cr  Cr48  1  0.83418679  0.49816351  0.49888613  1
  Fe  Fe49  1  0.66579040  0.33011128  0.66668876  1
  Fe  Fe50  1  0.83440411  0.49777162  0.83215521  1
  Fe  Fe51  1  0.83206786  0.83208018  0.49867868  1
  Cr  Cr52  1  0.66829920  0.66627424  0.66708526  1
  Fe  Fe53  1  0.83189673  0.83315100  0.83343726  1
" 