1837,Ni4Fe84Cr11_2,-223.540235978463, 140.083460521327,Ni4Fe84Cr11,"# generated using pymatgen
 data_Cr7Fe45Ni2
_symmetry_space_group_name_H-M   'P 1'
_cell_length_a   7.45293613
_cell_length_b   7.45293613
_cell_length_c   10.54004336
_cell_angle_alpha   90.00000000
_cell_angle_beta   90.00000000
_cell_angle_gamma   90.00000000
_symmetry_Int_Tables_number   1
_chemical_formula_structural   Cr7Fe45Ni2
_chemical_formula_sum   'Cr7 Fe45 Ni2'
_cell_volume   585.45995678
_cell_formula_units_Z   1
loop_
 _symmetry_equiv_pos_site_id
 _symmetry_equiv_pos_as_xyz
  1  'x, y, z'
loop_
 _atom_site_type_symbol
 _atom_site_label
 _atom_site_symmetry_multiplicity
 _atom_site_fract_x
 _atom_site_fract_y
 _atom_site_fract_z
 _atom_site_occupancy
  Cr  Cr0  1  0.00246219  0.99993581  0.00371189  1
  Fe  Fe1  1  0.16998471  0.16880398  0.16682634  1
  Fe  Fe2  1  1.00019426  0.99812765  0.33481630  1
  Fe  Fe3  1  0.00271662  0.33739825  0.00141999  1
  Ni  Ni4  1  0.16850218  0.50242056  0.16677958  1
  Cr  Cr5  1  0.00167026  0.33581796  0.33431916  1
  Fe  Fe6  1  1.00054726  0.66513970  0.00260726  1
  Fe  Fe7  1  0.16564743  0.83202717  0.16778786  1
  Ni  Ni8  1  1.00007578  0.66873399  0.33317451  1
  Fe  Fe9  1  0.33576322  0.00239723  0.00109719  1
  Fe  Fe10  1  0.49968032  0.17029479  0.16688811  1
  Cr  Cr11  1  0.33334364  0.00227181  0.33376889  1
  Fe  Fe12  1  0.33370402  0.33435368  0.00133879  1
  Fe  Fe13  1  0.50044380  0.49925160  0.16759819  1
  Fe  Fe14  1  0.33478553  0.33658498  0.33388889  1
  Fe  Fe15  1  0.33378040  0.66608830  0.00125778  1
  Cr  Cr16  1  0.50086890  0.83345433  0.16647105  1
  Fe  Fe17  1  0.33232488  0.66495406  0.33463322  1
  Fe  Fe18  1  0.66546851  1.00022421  1.00023607  1
  Cr  Cr19  1  0.83256037  0.16744959  0.16903255  1
  Fe  Fe20  1  0.66980859  1.00057375  0.33567012  1
  Fe  Fe21  1  0.66641431  0.33542577  1.00092776  1
  Fe  Fe22  1  0.83443048  0.50359811  0.16721471  1
  Fe  Fe23  1  0.66584152  0.33529743  0.33502511  1
  Fe  Fe24  1  0.66851560  0.66719384  1.00011083  1
  Fe  Fe25  1  0.83592493  0.83127207  0.16867423  1
  Fe  Fe26  1  0.66902883  0.66696573  0.33501511  1
  Fe  Fe27  1  0.16762245  0.16753836  0.50248172  1
  Fe  Fe28  1  0.00097043  0.00102182  0.66643338  1
  Fe  Fe29  1  0.16969982  0.16966254  0.83353656  1
  Fe  Fe30  1  0.16798650  0.50201829  0.50072488  1
  Fe  Fe31  1  0.00167271  0.33490532  0.66679824  1
  Fe  Fe32  1  0.16737720  0.49933063  0.83487607  1
  Fe  Fe33  1  0.16656074  0.83328750  0.50152097  1
  Fe  Fe34  1  1.00022488  0.66691274  0.66636197  1
  Cr  Cr35  1  0.16952427  0.83262047  0.83389047  1
  Fe  Fe36  1  0.50169060  0.16831723  0.50160182  1
  Fe  Fe37  1  0.33495911  0.00166973  0.66674397  1
  Fe  Fe38  1  0.49935293  0.16735906  0.83434757  1
  Fe  Fe39  1  0.50098057  0.50088910  0.50099196  1
  Fe  Fe40  1  0.33423396  0.33423663  0.66761088  1
  Fe  Fe41  1  0.50100311  0.50096729  0.83425003  1
  Fe  Fe42  1  0.50162563  0.83363521  0.50151265  1
  Fe  Fe43  1  0.33503772  0.66693162  0.66694396  1
  Fe  Fe44  1  0.50256255  0.83451394  0.83451462  1
  Fe  Fe45  1  0.83352699  0.16689166  0.50168069  1
  Fe  Fe46  1  0.66691202  1.00022184  0.66693134  1
  Cr  Cr47  1  0.83345536  0.16882995  0.83268495  1
  Fe  Fe48  1  0.83387203  0.50195348  0.50135246  1
  Fe  Fe49  1  0.66693257  0.33498238  0.66688709  1
  Fe  Fe50  1  0.83445972  0.50254094  0.83427006  1
  Fe  Fe51  1  0.83465205  0.83399720  0.50055456  1
  Fe  Fe52  1  0.66758012  0.66763728  0.66771158  1
  Fe  Fe53  1  0.83215752  0.83219358  0.83361619  1
" 