125,Ni4Fe33Cr62_19,-213.670961411306, 183.697985556669,Ni4Fe33Cr62,"# generated using pymatgen
 data_Cr17Fe9Ni
_symmetry_space_group_name_H-M   'P 1'
_cell_length_a   7.55572577
_cell_length_b   7.55572577
_cell_length_c   10.68540986
_cell_angle_alpha   90.00000000
_cell_angle_beta   90.00000000
_cell_angle_gamma   90.00000000
_symmetry_Int_Tables_number   1
_chemical_formula_structural   Cr17Fe9Ni
_chemical_formula_sum   'Cr34 Fe18 Ni2'
_cell_volume   610.01927787
_cell_formula_units_Z   2
loop_
 _symmetry_equiv_pos_site_id
 _symmetry_equiv_pos_as_xyz
  1  'x, y, z'
loop_
 _atom_site_type_symbol
 _atom_site_label
 _atom_site_symmetry_multiplicity
 _atom_site_fract_x
 _atom_site_fract_y
 _atom_site_fract_z
 _atom_site_occupancy
  Cr  Cr0  1  0.99303669  -0.00309669  -0.00583053  1
  Cr  Cr1  1  0.16156287  0.16109600  0.16313086  1
  Fe  Fe2  1  0.99198171  0.99355293  0.32812486  1
  Cr  Cr3  1  -0.00468430  0.32562586  0.99056318  1
  Cr  Cr4  1  0.16223426  0.49380268  0.15874672  1
  Cr  Cr5  1  0.99259929  0.32641163  0.32963212  1
  Cr  Cr6  1  0.99231416  0.65872890  0.99335672  1
  Cr  Cr7  1  0.16009597  0.82736801  0.16285147  1
  Cr  Cr8  1  0.99160230  0.65813389  0.32789433  1
  Cr  Cr9  1  0.32864884  -0.00198250  0.99276187  1
  Cr  Cr10  1  0.49619622  0.16481445  0.15989215  1
  Cr  Cr11  1  0.33017841  -0.00456734  0.32930275  1
  Fe  Fe12  1  0.33039821  0.32875128  0.99151900  1
  Fe  Fe13  1  0.49340459  0.49239511  0.15956255  1
  Cr  Cr14  1  0.32915040  0.32777255  0.32815815  1
  Fe  Fe15  1  0.32746989  0.65941706  0.99260781  1
  Cr  Cr16  1  0.49292503  0.82781087  0.15944404  1
  Cr  Cr17  1  0.33080432  0.65960404  0.32840520  1
  Cr  Cr18  1  0.66025827  -0.00460867  0.99113862  1
  Cr  Cr19  1  0.82514884  0.16197728  0.16242413  1
  Cr  Cr20  1  0.65982074  0.99399528  0.32890084  1
  Fe  Fe21  1  0.65993060  0.32620130  0.99154294  1
  Cr  Cr22  1  0.82440872  0.49072217  0.16181069  1
  Fe  Fe23  1  0.65924301  0.32757781  0.33052773  1
  Cr  Cr24  1  0.65847913  0.65860998  -0.00347338  1
  Fe  Fe25  1  0.82694419  0.82842386  0.16110665  1
  Cr  Cr26  1  0.65968278  0.65943595  0.32750099  1
  Cr  Cr27  1  0.16185210  0.16081015  0.49257059  1
  Cr  Cr28  1  0.99407862  -0.00235503  0.66368347  1
  Fe  Fe29  1  0.16302221  0.16156258  0.82688156  1
  Cr  Cr30  1  0.16126385  0.49378082  0.49591428  1
  Cr  Cr31  1  -0.00541325  0.32642535  0.66244815  1
  Fe  Fe32  1  0.16502132  0.49041333  0.82743133  1
  Cr  Cr33  1  0.16096716  0.82736336  0.49338604  1
  Cr  Cr34  1  0.99335217  0.65725295  0.66180636  1
  Cr  Cr35  1  0.16176596  0.82490598  0.82684433  1
  Fe  Fe36  1  0.49745026  0.16315751  0.49624428  1
  Cr  Cr37  1  0.33146032  -0.00284626  0.65939597  1
  Ni  Ni38  1  0.49456774  0.16685722  0.82485029  1
  Fe  Fe39  1  0.49586008  0.49068725  0.49483090  1
  Fe  Fe40  1  0.32970206  0.32760542  0.66164320  1
  Fe  Fe41  1  0.49435100  0.49189047  0.82761192  1
  Fe  Fe42  1  0.49497095  0.82844370  0.49513669  1
  Cr  Cr43  1  0.33012044  0.65870117  0.65998214  1
  Cr  Cr44  1  0.49443312  0.82888535  0.82537943  1
  Fe  Fe45  1  0.82536442  0.16209221  0.49593325  1
  Fe  Fe46  1  0.66131973  -0.00150409  0.66157565  1
  Ni  Ni47  1  0.82188261  0.16491978  0.82540868  1
  Fe  Fe48  1  0.82492797  0.49085690  0.49494065  1
  Fe  Fe49  1  0.65862719  0.32547232  0.66026215  1
  Cr  Cr50  1  0.82519052  0.49290440  0.82559565  1
  Cr  Cr51  1  0.82734723  0.82854304  0.49603782  1
  Cr  Cr52  1  0.65940677  0.65960735  0.65832511  1
  Cr  Cr53  1  0.82638542  0.82870617  0.82739074  1
" 