7833,Ni4Fe74Cr21_1,-222.619568034377, 149.340919195696,Ni4Fe74Cr21,"# generated using pymatgen
 data_Cr6Fe20Ni
_symmetry_space_group_name_H-M   'P 1'
_cell_length_a   7.47786830
_cell_length_b   7.47786830
_cell_length_c   10.57530276
_cell_angle_alpha   90.00000000
_cell_angle_beta   90.00000000
_cell_angle_gamma   90.00000000
_symmetry_Int_Tables_number   1
_chemical_formula_structural   Cr6Fe20Ni
_chemical_formula_sum   'Cr12 Fe40 Ni2'
_cell_volume   591.35521821
_cell_formula_units_Z   2
loop_
 _symmetry_equiv_pos_site_id
 _symmetry_equiv_pos_as_xyz
  1  'x, y, z'
loop_
 _atom_site_type_symbol
 _atom_site_label
 _atom_site_symmetry_multiplicity
 _atom_site_fract_x
 _atom_site_fract_y
 _atom_site_fract_z
 _atom_site_occupancy
  Cr  Cr0  1  -0.00062659  -0.00014308  0.99850131  1
  Fe  Fe1  1  0.16504344  0.16777169  0.16693727  1
  Fe  Fe2  1  0.99822144  0.00033658  0.33231411  1
  Fe  Fe3  1  0.99842919  0.33323396  0.99918381  1
  Fe  Fe4  1  0.16595302  0.49832740  0.16591250  1
  Fe  Fe5  1  0.99897828  0.33201629  0.33220647  1
  Fe  Fe6  1  0.99896304  0.66471875  0.99894793  1
  Cr  Cr7  1  0.16565721  0.83198031  0.16601534  1
  Cr  Cr8  1  0.99914845  0.66440424  0.33355310  1
  Cr  Cr9  1  0.33304013  0.99864723  -0.00060346  1
  Fe  Fe10  1  0.50002798  0.16670147  0.16670825  1
  Cr  Cr11  1  0.33388121  0.99893184  0.33163723  1
  Cr  Cr12  1  0.33178394  0.33306318  -0.00062079  1
  Fe  Fe13  1  0.49956945  0.49986013  0.16637644  1
  Fe  Fe14  1  0.33289407  0.33406454  0.33195412  1
  Fe  Fe15  1  0.33306290  0.66576823  0.99882235  1
  Fe  Fe16  1  0.50066476  0.83126782  0.16635691  1
  Fe  Fe17  1  0.33365530  0.66490424  0.33335281  1
  Cr  Cr18  1  0.66541579  0.99834317  0.00001485  1
  Fe  Fe19  1  0.83275928  0.16667805  0.16685083  1
  Fe  Fe20  1  0.66652287  -0.00042070  0.33194958  1
  Fe  Fe21  1  0.66729584  0.33368008  -0.00070166  1
  Fe  Fe22  1  0.83230455  0.49896685  0.16547699  1
  Fe  Fe23  1  0.66595560  0.33258375  0.33303957  1
  Fe  Fe24  1  0.66580348  0.66522662  -0.00067880  1
  Fe  Fe25  1  0.83122958  0.83218193  0.16650269  1
  Fe  Fe26  1  0.66447427  0.66566865  0.33207786  1
  Cr  Cr27  1  0.16560827  0.16593072  0.49854886  1
  Fe  Fe28  1  0.99825422  0.99853114  0.66670483  1
  Fe  Fe29  1  0.16458820  0.16638273  0.83210133  1
  Fe  Fe30  1  0.16671798  0.50090454  0.49923600  1
  Cr  Cr31  1  0.99789155  0.33380046  0.66640183  1
  Fe  Fe32  1  0.16609012  0.50003080  0.83268617  1
  Ni  Ni33  1  0.16594905  0.83099467  0.50043076  1
  Fe  Fe34  1  -0.00026810  0.66639941  0.66597257  1
  Fe  Fe35  1  0.16561557  0.83141488  0.83186034  1
  Fe  Fe36  1  0.50106655  0.16656893  0.49971218  1
  Cr  Cr37  1  0.33271243  0.99792698  0.66679499  1
  Cr  Cr38  1  0.50025690  0.16783788  0.83115047  1
  Fe  Fe39  1  0.49911947  0.49939811  0.49957410  1
  Fe  Fe40  1  0.33408732  0.33437623  0.66610773  1
  Fe  Fe41  1  0.49999255  0.50033291  0.83187862  1
  Fe  Fe42  1  0.49854307  0.83185853  0.49923083  1
  Fe  Fe43  1  0.33259839  0.66479389  0.66565560  1
  Fe  Fe44  1  0.49971821  0.83037354  0.83224433  1
  Fe  Fe45  1  0.83140324  0.16623061  0.49912132  1
  Fe  Fe46  1  0.66697315  0.00002381  0.66610541  1
  Fe  Fe47  1  0.83279336  0.16665568  0.83185878  1
  Fe  Fe48  1  0.83199106  0.49838557  0.49956312  1
  Ni  Ni49  1  0.66612471  0.33353833  0.66535638  1
  Fe  Fe50  1  0.83174344  0.49929727  0.83279007  1
  Cr  Cr51  1  0.83325624  0.83339148  0.49968244  1
  Fe  Fe52  1  0.66550048  0.66491179  0.66643108  1
  Fe  Fe53  1  0.83249433  0.83187614  0.83164244  1
" 