101,Ni4Fe84Cr11_14,-223.549029502649, 142.106991552597,Ni4Fe84Cr11,"# generated using pymatgen
 data_Cr7Fe45Ni2
_symmetry_space_group_name_H-M   'P 1'
_cell_length_a   7.45417867
_cell_length_b   7.45417867
_cell_length_c   10.54180057
_cell_angle_alpha   90.00000000
_cell_angle_beta   90.00000000
_cell_angle_gamma   90.00000000
_symmetry_Int_Tables_number   1
_chemical_formula_structural   Cr7Fe45Ni2
_chemical_formula_sum   'Cr7 Fe45 Ni2'
_cell_volume   585.75282515
_cell_formula_units_Z   1
loop_
 _symmetry_equiv_pos_site_id
 _symmetry_equiv_pos_as_xyz
  1  'x, y, z'
loop_
 _atom_site_type_symbol
 _atom_site_label
 _atom_site_symmetry_multiplicity
 _atom_site_fract_x
 _atom_site_fract_y
 _atom_site_fract_z
 _atom_site_occupancy
  Fe  Fe0  1  1.00086252  0.00087371  0.00158829  1
  Fe  Fe1  1  0.16729867  0.16582086  0.16659462  1
  Fe  Fe2  1  0.00238715  0.99934832  0.33351181  1
  Fe  Fe3  1  0.99966460  0.33457767  0.00216661  1
  Fe  Fe4  1  0.16745239  0.50195529  0.16697236  1
  Cr  Cr5  1  1.00035920  0.33479690  0.33072635  1
  Fe  Fe6  1  0.00205881  0.66714073  1.00043617  1
  Ni  Ni7  1  0.16930173  0.83342675  0.16767517  1
  Fe  Fe8  1  0.00126953  0.66941497  0.33390812  1
  Fe  Fe9  1  0.33459248  0.99966126  0.00169759  1
  Fe  Fe10  1  0.50121237  0.16671546  0.16755444  1
  Fe  Fe11  1  0.33359843  1.00065514  0.33415578  1
  Fe  Fe12  1  0.33497954  0.33498021  0.00149135  1
  Fe  Fe13  1  0.50106686  0.50106491  0.16757813  1
  Fe  Fe14  1  0.33651078  0.33346153  0.33361634  1
  Fe  Fe15  1  0.33379993  0.66794746  0.00121199  1
  Fe  Fe16  1  0.49925126  0.83480922  0.16753227  1
  Fe  Fe17  1  0.33435040  0.66847186  0.33307946  1
  Fe  Fe18  1  0.66713552  0.00205443  1.00015690  1
  Ni  Ni19  1  0.83288034  0.16835519  0.16536806  1
  Fe  Fe20  1  0.66660255  0.00150740  0.33412390  1
  Fe  Fe21  1  0.66794352  0.33378350  0.00123021  1
  Fe  Fe22  1  0.83406935  0.49999591  0.16681707  1
  Fe  Fe23  1  0.66566223  0.33457927  0.33309663  1
  Fe  Fe24  1  0.66673375  0.66675474  0.99997840  1
  Cr  Cr25  1  0.83478712  0.83559705  0.16861746  1
  Fe  Fe26  1  0.66697654  0.66650269  0.33513051  1
  Fe  Fe27  1  0.16909273  0.16607754  0.50122009  1
  Fe  Fe28  1  0.00088800  0.99937100  0.66749090  1
  Cr  Cr29  1  0.16632493  0.16848261  0.83349654  1
  Cr  Cr30  1  0.16977042  0.50146213  0.50310092  1
  Fe  Fe31  1  1.00011289  0.33451042  0.66806147  1
  Fe  Fe32  1  0.16755152  0.50230417  0.83388730  1
  Fe  Fe33  1  0.16650166  0.83520961  0.49949357  1
  Fe  Fe34  1  1.00011243  0.66870871  0.66825655  1
  Fe  Fe35  1  0.16675329  0.83194895  0.83553756  1
  Fe  Fe36  1  0.49905125  0.16928585  0.49941467  1
  Cr  Cr37  1  0.33406972  1.00018341  0.66604736  1
  Fe  Fe38  1  0.50231848  0.16903718  0.83562128  1
  Fe  Fe39  1  0.50259247  0.50061596  0.50088407  1
  Fe  Fe40  1  0.33590599  0.33545549  0.66748661  1
  Fe  Fe41  1  0.50061609  0.50063832  0.83412722  1
  Fe  Fe42  1  0.50095122  0.83268658  0.49938955  1
  Fe  Fe43  1  0.33515042  0.66699817  0.66830525  1
  Fe  Fe44  1  0.50072043  0.83291299  0.83566875  1
  Cr  Cr45  1  0.83425977  0.16636788  0.50194248  1
  Cr  Cr46  1  0.66710588  1.00018308  0.66930235  1
  Fe  Fe47  1  0.83344890  0.16823790  0.83533905  1
  Fe  Fe48  1  0.83193007  0.50320458  0.50167279  1
  Fe  Fe49  1  0.66657308  0.33623335  0.66826174  1
  Fe  Fe50  1  0.83442233  0.50069951  0.83408903  1
  Fe  Fe51  1  0.83513430  0.83167069  0.50000536  1
  Fe  Fe52  1  0.66733014  0.66622252  0.66748309  1
  Fe  Fe53  1  0.83511698  0.83365195  0.83501140  1
" 