8667,Ni4Fe84Cr11_3,-223.599589775618, 142.675830574944,Ni4Fe84Cr11,"# generated using pymatgen
 data_Cr7Fe45Ni2
_symmetry_space_group_name_H-M   'P 1'
_cell_length_a   7.45274265
_cell_length_b   7.45274265
_cell_length_c   10.53976974
_cell_angle_alpha   90.00000000
_cell_angle_beta   90.00000000
_cell_angle_gamma   90.00000000
_symmetry_Int_Tables_number   1
_chemical_formula_structural   Cr7Fe45Ni2
_chemical_formula_sum   'Cr7 Fe45 Ni2'
_cell_volume   585.41436223
_cell_formula_units_Z   1
loop_
 _symmetry_equiv_pos_site_id
 _symmetry_equiv_pos_as_xyz
  1  'x, y, z'
loop_
 _atom_site_type_symbol
 _atom_site_label
 _atom_site_symmetry_multiplicity
 _atom_site_fract_x
 _atom_site_fract_y
 _atom_site_fract_z
 _atom_site_occupancy
  Fe  Fe0  1  0.00148919  0.99963323  1.00014762  1
  Fe  Fe1  1  0.16925969  0.16774098  0.16762918  1
  Fe  Fe2  1  0.00186892  1.00006690  0.33557027  1
  Fe  Fe3  1  0.00329069  0.33585676  1.00017399  1
  Fe  Fe4  1  0.16702892  0.50099931  0.16720225  1
  Fe  Fe5  1  0.00324330  0.33503492  0.33509934  1
  Ni  Ni6  1  0.00155088  0.66858178  0.00152873  1
  Fe  Fe7  1  0.16702902  0.83414081  0.16789899  1
  Fe  Fe8  1  0.00108773  0.66777911  0.33407077  1
  Fe  Fe9  1  0.33391876  1.00061032  1.00093403  1
  Fe  Fe10  1  0.49784549  0.16606919  0.16766776  1
  Fe  Fe11  1  0.33340035  0.00164007  0.33394048  1
  Fe  Fe12  1  0.33212689  0.33489980  1.00077440  1
  Fe  Fe13  1  0.49963542  0.50224565  0.16793975  1
  Fe  Fe14  1  0.33204082  0.33348425  0.33365197  1
  Fe  Fe15  1  0.33375445  0.66736881  1.00093517  1
  Fe  Fe16  1  0.50130708  0.83456475  0.16788573  1
  Fe  Fe17  1  0.33262857  0.66775734  0.33319360  1
  Fe  Fe18  1  0.66747500  0.99801335  0.99996737  1
  Cr  Cr19  1  0.83688153  0.16616972  0.16628546  1
  Fe  Fe20  1  0.66760902  0.99947537  0.33445689  1
  Cr  Cr21  1  0.66587731  0.33422088  0.99870672  1
  Fe  Fe22  1  0.83620710  0.50445632  0.16725658  1
  Cr  Cr23  1  0.66630690  0.33351526  0.33646814  1
  Fe  Fe24  1  0.66842973  0.66917736  0.00098280  1
  Fe  Fe25  1  0.83454258  0.83234025  0.16720166  1
  Fe  Fe26  1  0.66915959  0.66913509  0.33269818  1
  Fe  Fe27  1  0.16728269  0.16608428  0.50015424  1
  Fe  Fe28  1  0.00313120  1.00085302  0.66715852  1
  Fe  Fe29  1  0.16688501  0.16691285  0.83509411  1
  Fe  Fe30  1  0.16550296  0.50271396  0.50015683  1
  Fe  Fe31  1  0.99906002  0.33402077  0.66760172  1
  Fe  Fe32  1  0.16648196  0.50203636  0.83551895  1
  Ni  Ni33  1  0.16602320  0.83519116  0.50188721  1
  Fe  Fe34  1  0.00134122  0.66800788  0.66782879  1
  Fe  Fe35  1  0.16728484  0.83393013  0.83397672  1
  Fe  Fe36  1  0.49955940  0.16619819  0.50016111  1
  Fe  Fe37  1  0.33159187  0.99980146  0.66800817  1
  Fe  Fe38  1  0.50019910  0.16684202  0.83504675  1
  Cr  Cr39  1  0.50143809  0.50188949  0.50195349  1
  Cr  Cr40  1  0.33477559  0.33352230  0.66742871  1
  Fe  Fe41  1  0.50098428  0.50248356  0.83394719  1
  Cr  Cr42  1  0.49880133  0.83387042  0.50054745  1
  Fe  Fe43  1  0.33262937  0.66980241  0.66875661  1
  Fe  Fe44  1  0.50024697  0.83355295  0.83481251  1
  Fe  Fe45  1  0.83603699  0.16701441  0.50075714  1
  Cr  Cr46  1  0.66798133  0.00256590  0.66742181  1
  Fe  Fe47  1  0.83579359  0.16765163  0.83443844  1
  Fe  Fe48  1  0.83703362  0.50256027  0.50176849  1
  Fe  Fe49  1  0.66995724  0.33506822  0.66839501  1
  Fe  Fe50  1  0.83541474  0.50208041  0.83385756  1
  Fe  Fe51  1  0.83714016  0.83330427  0.50013310  1
  Fe  Fe52  1  0.66890621  0.66573865  0.66920193  1
  Fe  Fe53  1  0.83534641  0.83314987  0.83554400  1
" 