1828,Ni4Fe74Cr21_18,-222.491626876901, 150.144636696939,Ni4Fe74Cr21,"# generated using pymatgen
 data_Cr6Fe20Ni
_symmetry_space_group_name_H-M   'P 1'
_cell_length_a   7.47416531
_cell_length_b   7.47416531
_cell_length_c   10.57006594
_cell_angle_alpha   90.00000000
_cell_angle_beta   90.00000000
_cell_angle_gamma   90.00000000
_symmetry_Int_Tables_number   1
_chemical_formula_structural   Cr6Fe20Ni
_chemical_formula_sum   'Cr12 Fe40 Ni2'
_cell_volume   590.47714807
_cell_formula_units_Z   2
loop_
 _symmetry_equiv_pos_site_id
 _symmetry_equiv_pos_as_xyz
  1  'x, y, z'
loop_
 _atom_site_type_symbol
 _atom_site_label
 _atom_site_symmetry_multiplicity
 _atom_site_fract_x
 _atom_site_fract_y
 _atom_site_fract_z
 _atom_site_occupancy
  Fe  Fe0  1  0.99870033  0.00009670  -0.00039237  1
  Fe  Fe1  1  0.16384223  0.16852369  0.16526552  1
  Fe  Fe2  1  0.99742082  -0.00026897  0.33399652  1
  Fe  Fe3  1  0.00013787  0.33216051  -0.00045034  1
  Fe  Fe4  1  0.16885922  0.49767611  0.16633775  1
  Fe  Fe5  1  0.00151367  0.33219338  0.33345547  1
  Cr  Cr6  1  0.99943807  0.66574035  0.99747620  1
  Cr  Cr7  1  0.16643426  0.83308065  0.16660500  1
  Fe  Fe8  1  0.00125175  0.66656658  0.33444515  1
  Fe  Fe9  1  0.33335945  0.99765439  0.99880539  1
  Cr  Cr10  1  0.49945016  0.16640028  0.16422567  1
  Cr  Cr11  1  0.33167674  0.00083830  0.33423581  1
  Fe  Fe12  1  0.33190264  0.33469982  0.00000266  1
  Fe  Fe13  1  0.49618501  0.50143638  0.16422463  1
  Fe  Fe14  1  0.33108749  0.33508588  0.33377153  1
  Ni  Ni15  1  0.33414662  0.66646148  -0.00038151  1
  Fe  Fe16  1  0.50063092  0.83098332  0.16453841  1
  Fe  Fe17  1  0.33127713  0.66370319  0.33266917  1
  Fe  Fe18  1  0.66649654  0.99788319  0.99881468  1
  Fe  Fe19  1  0.83511322  0.16393586  0.16553593  1
  Fe  Fe20  1  0.66885100  -0.00037705  0.33276884  1
  Fe  Fe21  1  0.66651530  0.33300963  0.99898590  1
  Cr  Cr22  1  0.83298848  0.49872764  0.16442656  1
  Cr  Cr23  1  0.66560990  0.33232806  0.33562956  1
  Fe  Fe24  1  0.66407519  0.66768323  -0.00019416  1
  Fe  Fe25  1  0.83136109  0.83592045  0.16608826  1
  Cr  Cr26  1  0.66716816  0.66732922  0.33035743  1
  Fe  Fe27  1  0.16419775  0.16571825  0.49904331  1
  Fe  Fe28  1  0.99815979  0.99866065  0.66517213  1
  Cr  Cr29  1  0.16458564  0.16517863  0.83599669  1
  Fe  Fe30  1  0.16568170  0.50133772  0.49878991  1
  Fe  Fe31  1  0.99772952  0.33329064  0.66563416  1
  Fe  Fe32  1  0.16546278  0.50107606  0.83320555  1
  Ni  Ni33  1  0.16335050  0.83139003  0.50079489  1
  Fe  Fe34  1  0.00031592  0.66658445  0.66602294  1
  Fe  Fe35  1  0.16686741  0.83077647  0.83280834  1
  Fe  Fe36  1  0.50029603  0.16671868  0.49938282  1
  Cr  Cr37  1  0.33272094  0.99882284  0.66758052  1
  Fe  Fe38  1  0.50223237  0.16494786  0.83440261  1
  Fe  Fe39  1  0.49826550  0.49970098  0.50034243  1
  Cr  Cr40  1  0.33359485  0.33235932  0.66316167  1
  Cr  Cr41  1  0.50097129  0.50066757  0.83403055  1
  Cr  Cr42  1  0.49900355  0.83203694  0.49974523  1
  Fe  Fe43  1  0.33101223  0.66651532  0.66651724  1
  Fe  Fe44  1  0.49964854  0.83333457  0.83385988  1
  Fe  Fe45  1  0.83404119  0.16455807  0.50026367  1
  Fe  Fe46  1  0.66798568  0.00049672  0.66690838  1
  Fe  Fe47  1  0.83121443  0.16644622  0.83289150  1
  Fe  Fe48  1  0.83467852  0.50050097  0.50072274  1
  Fe  Fe49  1  0.66804255  0.33196711  0.66524347  1
  Fe  Fe50  1  0.83379057  0.49847908  0.83225312  1
  Fe  Fe51  1  0.83562130  0.83350608  0.50016357  1
  Fe  Fe52  1  0.66724134  0.66611931  0.66600143  1
  Fe  Fe53  1  0.83208256  0.83362491  0.83210532  1
" 