7593,Ni4Fe33Cr62_4,-213.341619781589, 187.06359166374,Ni4Fe33Cr62,"# generated using pymatgen
 data_Cr17Fe9Ni
_symmetry_space_group_name_H-M   'P 1'
_cell_length_a   7.55062130
_cell_length_b   7.55062130
_cell_length_c   10.67819105
_cell_angle_alpha   90.00000000
_cell_angle_beta   90.00000000
_cell_angle_gamma   90.00000000
_symmetry_Int_Tables_number   1
_chemical_formula_structural   Cr17Fe9Ni
_chemical_formula_sum   'Cr34 Fe18 Ni2'
_cell_volume   608.78376816
_cell_formula_units_Z   2
loop_
 _symmetry_equiv_pos_site_id
 _symmetry_equiv_pos_as_xyz
  1  'x, y, z'
loop_
 _atom_site_type_symbol
 _atom_site_label
 _atom_site_symmetry_multiplicity
 _atom_site_fract_x
 _atom_site_fract_y
 _atom_site_fract_z
 _atom_site_occupancy
  Cr  Cr0  1  -0.00238822  0.99311482  0.99431138  1
  Ni  Ni1  1  0.15943671  0.16069420  0.16281652  1
  Fe  Fe2  1  -0.00229755  -0.00499017  0.32552906  1
  Cr  Cr3  1  -0.00453545  0.33018925  -0.00482036  1
  Fe  Fe4  1  0.16285616  0.49219129  0.16020310  1
  Cr  Cr5  1  -0.00355505  0.32907326  0.32763732  1
  Cr  Cr6  1  -0.00483474  0.65999696  -0.00263189  1
  Fe  Fe7  1  0.16167193  0.83045811  0.16177946  1
  Cr  Cr8  1  -0.00527002  0.66071560  0.32234848  1
  Cr  Cr9  1  0.32617754  -0.00492817  -0.00494530  1
  Cr  Cr10  1  0.49350760  0.16250685  0.15863556  1
  Fe  Fe11  1  0.32489356  -0.00533249  0.32598608  1
  Fe  Fe12  1  0.32328446  0.32845626  -0.00461345  1
  Cr  Cr13  1  0.49291392  0.49531975  0.15832872  1
  Cr  Cr14  1  0.32604324  0.32463089  0.32706577  1
  Fe  Fe15  1  0.32427601  0.66112040  -0.00466360  1
  Cr  Cr16  1  0.49468301  0.82605581  0.16181668  1
  Cr  Cr17  1  0.32511183  0.66133731  0.32815781  1
  Cr  Cr18  1  0.65995704  0.99417107  0.99277544  1
  Cr  Cr19  1  0.82988240  0.15976130  0.16065292  1
  Fe  Fe20  1  0.66145136  -0.00494909  0.32642914  1
  Fe  Fe21  1  0.66330975  0.33041067  -0.00539915  1
  Fe  Fe22  1  0.82654303  0.49338838  0.16017498  1
  Cr  Cr23  1  0.66163622  0.32798260  0.32797991  1
  Fe  Fe24  1  0.66311612  0.66015998  -0.00528293  1
  Fe  Fe25  1  0.82805168  0.82914020  0.16067894  1
  Cr  Cr26  1  0.66356488  0.66078643  0.32848942  1
  Fe  Fe27  1  0.16183452  0.16077811  0.49523256  1
  Fe  Fe28  1  -0.00384935  -0.00505839  0.66127649  1
  Cr  Cr29  1  0.15918805  0.16255113  0.82577856  1
  Cr  Cr30  1  0.16221515  0.49349549  0.49729999  1
  Fe  Fe31  1  -0.00382529  0.32767229  0.66159860  1
  Fe  Fe32  1  0.16151000  0.49476863  0.82724520  1
  Cr  Cr33  1  0.15989672  0.82854376  0.49512088  1
  Cr  Cr34  1  -0.00476437  0.66010116  0.66374396  1
  Fe  Fe35  1  0.16225360  0.82597917  0.82767529  1
  Cr  Cr36  1  0.49394821  0.16117975  0.49209515  1
  Cr  Cr37  1  0.32784431  -0.00428656  0.66184806  1
  Cr  Cr38  1  0.49375755  0.16459700  0.83220119  1
  Cr  Cr39  1  0.49100965  0.49471466  0.49591942  1
  Ni  Ni40  1  0.32363813  0.32698749  0.66222052  1
  Cr  Cr41  1  0.49099674  0.49497780  0.83007439  1
  Cr  Cr42  1  0.49322928  0.82682185  0.49296278  1
  Fe  Fe43  1  0.32707181  0.65957439  0.66255583  1
  Cr  Cr44  1  0.49257881  0.82359112  0.82847301  1
  Cr  Cr45  1  0.83325349  0.15944802  0.49552829  1
  Cr  Cr46  1  0.65884136  -0.00532406  0.66166006  1
  Cr  Cr47  1  0.83044143  0.16214626  0.82651162  1
  Cr  Cr48  1  0.83056572  0.49360471  0.49509440  1
  Cr  Cr49  1  0.65963136  0.32786552  0.66146870  1
  Fe  Fe50  1  0.82731436  0.49421534  0.82872197  1
  Cr  Cr51  1  0.83009151  0.83067612  0.49186388  1
  Cr  Cr52  1  0.66296308  0.66108811  0.65977799  1
  Cr  Cr53  1  0.83002855  0.82898145  0.82776302  1
" 