271,Ni4Fe84Cr11_6,-223.520368012697, 142.835879932855,Ni4Fe84Cr11,"# generated using pymatgen
 data_Cr7Fe45Ni2
_symmetry_space_group_name_H-M   'P 1'
_cell_length_a   7.45087156
_cell_length_b   7.45087156
_cell_length_c   10.53712362
_cell_angle_alpha   90.00000000
_cell_angle_beta   90.00000000
_cell_angle_gamma   90.00000000
_symmetry_Int_Tables_number   1
_chemical_formula_structural   Cr7Fe45Ni2
_chemical_formula_sum   'Cr7 Fe45 Ni2'
_cell_volume   584.97354980
_cell_formula_units_Z   1
loop_
 _symmetry_equiv_pos_site_id
 _symmetry_equiv_pos_as_xyz
  1  'x, y, z'
loop_
 _atom_site_type_symbol
 _atom_site_label
 _atom_site_symmetry_multiplicity
 _atom_site_fract_x
 _atom_site_fract_y
 _atom_site_fract_z
 _atom_site_occupancy
  Cr  Cr0  1  0.00248500  1.00079741  1.00081301  1
  Fe  Fe1  1  0.16930637  0.17002845  0.16791642  1
  Cr  Cr2  1  0.99943500  1.00026158  0.33360780  1
  Fe  Fe3  1  0.00202126  0.33686679  0.00225039  1
  Ni  Ni4  1  0.16706526  0.50114399  0.16855985  1
  Fe  Fe5  1  1.00068760  0.33702105  0.33318714  1
  Fe  Fe6  1  0.00120628  0.66606604  0.00146113  1
  Fe  Fe7  1  0.16930592  0.83216749  0.16775941  1
  Fe  Fe8  1  0.00148331  0.66591598  0.33398211  1
  Fe  Fe9  1  0.33369176  1.00032599  0.00178583  1
  Fe  Fe10  1  0.49967988  0.16904235  0.16824732  1
  Fe  Fe11  1  0.33675845  1.00031640  0.33362204  1
  Fe  Fe12  1  0.33325524  0.33509712  0.00222399  1
  Fe  Fe13  1  0.50036095  0.50106082  0.16832270  1
  Fe  Fe14  1  0.33496330  0.33570840  0.33365086  1
  Fe  Fe15  1  0.33406710  0.66783349  0.00143694  1
  Fe  Fe16  1  0.49967982  0.83315251  0.16845208  1
  Fe  Fe17  1  0.33416476  0.66723303  0.33444502  1
  Cr  Cr18  1  0.66747012  0.99940848  0.00360400  1
  Fe  Fe19  1  0.83426882  0.17071385  0.16831549  1
  Fe  Fe20  1  0.66628479  0.00111230  0.33435412  1
  Fe  Fe21  1  0.66797718  0.33724119  0.00256883  1
  Fe  Fe22  1  0.83525558  0.50106189  0.16764042  1
  Fe  Fe23  1  0.66760668  0.33442735  0.33488203  1
  Fe  Fe24  1  0.66798162  0.66649318  1.00094985  1
  Fe  Fe25  1  0.83426931  0.83147946  0.16851861  1
  Fe  Fe26  1  0.66760881  0.66771823  0.33485793  1
  Cr  Cr27  1  0.16823193  0.16795014  0.50329436  1
  Fe  Fe28  1  0.00264157  0.99954029  0.66778508  1
  Fe  Fe29  1  0.16853936  0.16842222  0.83334249  1
  Fe  Fe30  1  0.16847870  0.50263178  0.50044321  1
  Fe  Fe31  1  1.00087361  0.33562848  0.66782282  1
  Fe  Fe32  1  0.16766314  0.50060386  0.83510024  1
  Fe  Fe33  1  0.16914196  0.83156967  0.50194426  1
  Fe  Fe34  1  1.00085650  0.66808887  0.66781565  1
  Fe  Fe35  1  0.16853588  0.83422945  0.83354857  1
  Fe  Fe36  1  0.50187297  0.16926346  0.50052978  1
  Fe  Fe37  1  0.33276277  0.99954542  0.66785420  1
  Cr  Cr38  1  0.49822993  0.16892855  0.83393447  1
  Ni  Ni39  1  0.50193395  0.50166644  0.50156074  1
  Fe  Fe40  1  0.33501183  0.33610729  0.66738841  1
  Fe  Fe41  1  0.50142828  0.50243096  0.83373649  1
  Fe  Fe42  1  0.50007091  0.83316665  0.50030172  1
  Fe  Fe43  1  0.33502299  0.66760473  0.66737774  1
  Fe  Fe44  1  0.49975200  0.83160477  0.83450194  1
  Fe  Fe45  1  0.83224183  0.16993149  0.50132501  1
  Cr  Cr46  1  0.66857704  0.99995831  0.66496202  1
  Cr  Cr47  1  0.83664059  0.16984533  0.83302719  1
  Fe  Fe48  1  0.83383868  0.50083158  0.50117365  1
  Fe  Fe49  1  0.66737342  0.33787889  0.66580530  1
  Fe  Fe50  1  0.83416531  0.50243944  0.83444277  1
  Fe  Fe51  1  0.83404224  0.83249174  0.50109870  1
  Fe  Fe52  1  0.66737871  0.66583624  0.66745030  1
  Fe  Fe53  1  0.83497151  0.83072688  0.83363531  1
" 