5310,Ni4Fe84Cr11_11,-223.405835419723, 140.163027591871,Ni4Fe84Cr11,"# generated using pymatgen
 data_Cr7Fe45Ni2
_symmetry_space_group_name_H-M   'P 1'
_cell_length_a   7.45172634
_cell_length_b   7.45172634
_cell_length_c   10.53833245
_cell_angle_alpha   90.00000000
_cell_angle_beta   90.00000000
_cell_angle_gamma   90.00000000
_symmetry_Int_Tables_number   1
_chemical_formula_structural   Cr7Fe45Ni2
_chemical_formula_sum   'Cr7 Fe45 Ni2'
_cell_volume   585.17489976
_cell_formula_units_Z   1
loop_
 _symmetry_equiv_pos_site_id
 _symmetry_equiv_pos_as_xyz
  1  'x, y, z'
loop_
 _atom_site_type_symbol
 _atom_site_label
 _atom_site_symmetry_multiplicity
 _atom_site_fract_x
 _atom_site_fract_y
 _atom_site_fract_z
 _atom_site_occupancy
  Fe  Fe0  1  0.00122336  1.00089084  1.00101602  1
  Fe  Fe1  1  0.16829142  0.16720474  0.16690760  1
  Fe  Fe2  1  1.00078822  0.99915068  0.33428095  1
  Fe  Fe3  1  0.00197958  0.33381145  1.00043096  1
  Fe  Fe4  1  0.16885558  0.50135549  0.16806489  1
  Cr  Cr5  1  0.00271374  0.33453548  0.33658114  1
  Fe  Fe6  1  1.00030811  0.66838454  1.00087815  1
  Fe  Fe7  1  0.16632383  0.83452640  0.16873304  1
  Ni  Ni8  1  0.00271643  0.67045200  0.33504999  1
  Fe  Fe9  1  0.33438639  0.00250272  1.00098530  1
  Fe  Fe10  1  0.50048115  0.16729834  0.16689997  1
  Fe  Fe11  1  0.33415322  1.00052457  0.33473405  1
  Fe  Fe12  1  0.33363054  0.33220346  0.00161233  1
  Fe  Fe13  1  0.49955214  0.50089585  0.16759260  1
  Fe  Fe14  1  0.33297567  0.33425599  0.33373803  1
  Cr  Cr15  1  0.33332399  0.66822558  0.00127665  1
  Fe  Fe16  1  0.50199405  0.83488492  0.16897126  1
  Fe  Fe17  1  0.33328638  0.66830782  0.33375982  1
  Fe  Fe18  1  0.66747463  1.00083058  0.00105348  1
  Fe  Fe19  1  0.83431071  0.16477373  0.16617464  1
  Fe  Fe20  1  0.66814283  0.99882768  0.33471271  1
  Fe  Fe21  1  0.66747563  0.33310952  0.00124336  1
  Cr  Cr22  1  0.83373768  0.50313599  0.16563677  1
  Cr  Cr23  1  0.66621945  0.33206826  0.33552794  1
  Fe  Fe24  1  0.66908107  0.66914531  1.00098952  1
  Fe  Fe25  1  0.83476825  0.83545883  0.16800878  1
  Fe  Fe26  1  0.66824137  0.67076743  0.33468350  1
  Fe  Fe27  1  0.16855254  0.16587896  0.50106383  1
  Fe  Fe28  1  0.00124534  0.00138407  0.66778708  1
  Fe  Fe29  1  0.16720320  0.16717893  0.83511605  1
  Fe  Fe30  1  0.16647056  0.50340681  0.50066238  1
  Fe  Fe31  1  0.99953851  0.33435118  0.66750934  1
  Fe  Fe32  1  0.16477760  0.50103343  0.83436556  1
  Fe  Fe33  1  0.16826726  0.83379942  0.50068098  1
  Fe  Fe34  1  0.00126530  0.66734962  0.66716803  1
  Fe  Fe35  1  0.16714741  0.83487134  0.83366920  1
  Fe  Fe36  1  0.50101934  0.16410562  0.50103430  1
  Fe  Fe37  1  0.33475776  0.99918855  0.66736650  1
  Fe  Fe38  1  0.50173536  0.16558432  0.83515112  1
  Cr  Cr39  1  0.50154330  0.50316576  0.49946775  1
  Cr  Cr40  1  0.33325551  0.33312912  0.66711085  1
  Cr  Cr41  1  0.50310447  0.50129129  0.83489839  1
  Ni  Ni42  1  0.50083108  0.83551647  0.50152732  1
  Fe  Fe43  1  0.33331135  0.67096565  0.66762159  1
  Fe  Fe44  1  0.50172945  0.83652711  0.83300510  1
  Fe  Fe45  1  0.83351105  0.16589861  0.50255838  1
  Fe  Fe46  1  0.66708038  1.00091446  0.66731916  1
  Fe  Fe47  1  0.83414359  0.16795968  0.83436210  1
  Fe  Fe48  1  0.83557562  0.50341034  0.50197929  1
  Fe  Fe49  1  0.67069863  0.33290351  0.66751232  1
  Fe  Fe50  1  0.83580774  0.50102907  0.83455467  1
  Fe  Fe51  1  0.83378996  0.83377550  0.50061292  1
  Fe  Fe52  1  0.66851210  0.66927167  0.66740242  1
  Fe  Fe53  1  0.83420406  0.83409517  0.83446381  1
" 