5309,Ni4Fe84Cr11_4,-223.444627005438, 140.676580813978,Ni4Fe84Cr11,"# generated using pymatgen
 data_Cr7Fe45Ni2
_symmetry_space_group_name_H-M   'P 1'
_cell_length_a   7.45410473
_cell_length_b   7.45410473
_cell_length_c   10.54169600
_cell_angle_alpha   90.00000000
_cell_angle_beta   90.00000000
_cell_angle_gamma   90.00000000
_symmetry_Int_Tables_number   1
_chemical_formula_structural   Cr7Fe45Ni2
_chemical_formula_sum   'Cr7 Fe45 Ni2'
_cell_volume   585.73539417
_cell_formula_units_Z   1
loop_
 _symmetry_equiv_pos_site_id
 _symmetry_equiv_pos_as_xyz
  1  'x, y, z'
loop_
 _atom_site_type_symbol
 _atom_site_label
 _atom_site_symmetry_multiplicity
 _atom_site_fract_x
 _atom_site_fract_y
 _atom_site_fract_z
 _atom_site_occupancy
  Fe  Fe0  1  0.00345498  1.00057293  0.00190493  1
  Ni  Ni1  1  0.16836639  0.16840523  0.16709467  1
  Fe  Fe2  1  1.00049510  0.99979904  0.33462106  1
  Fe  Fe3  1  0.00343579  0.33451199  0.00168883  1
  Fe  Fe4  1  0.16694347  0.50029430  0.16790382  1
  Fe  Fe5  1  0.00218539  0.33506248  0.33481880  1
  Fe  Fe6  1  0.00225461  0.66751915  0.00287917  1
  Fe  Fe7  1  0.16617959  0.83403898  0.16714561  1
  Ni  Ni8  1  0.99984666  0.66648472  0.33417486  1
  Fe  Fe9  1  0.33383936  0.00125375  0.00142990  1
  Fe  Fe10  1  0.49944307  0.16827629  0.16699502  1
  Cr  Cr11  1  0.33392361  1.00076218  0.33224952  1
  Fe  Fe12  1  0.33381828  0.33379431  0.00120619  1
  Fe  Fe13  1  0.50048910  0.49996473  0.16749756  1
  Fe  Fe14  1  0.33248013  0.33662605  0.33310428  1
  Fe  Fe15  1  0.33432004  0.66755725  1.00072739  1
  Fe  Fe16  1  0.50125171  0.83436539  0.16673574  1
  Fe  Fe17  1  0.33354185  0.66606450  0.33428387  1
  Fe  Fe18  1  0.66531050  1.00006922  0.00156830  1
  Cr  Cr19  1  0.83477016  0.16699866  0.16806969  1
  Fe  Fe20  1  0.66961092  0.99873474  0.33426074  1
  Fe  Fe21  1  0.66534921  0.33499194  0.00152886  1
  Fe  Fe22  1  0.83516974  0.50210222  0.16763586  1
  Fe  Fe23  1  0.66794274  0.33611469  0.33427979  1
  Fe  Fe24  1  0.66602973  0.66754251  0.00230376  1
  Fe  Fe25  1  0.83517218  0.83298540  0.16765879  1
  Fe  Fe26  1  0.66804914  0.66775656  0.33419983  1
  Fe  Fe27  1  0.16608629  0.16752207  0.50031383  1
  Fe  Fe28  1  0.00235933  0.99946083  0.66607910  1
  Fe  Fe29  1  0.16933254  0.16679168  0.83554398  1
  Fe  Fe30  1  0.16813471  0.50182140  0.49981313  1
  Cr  Cr31  1  0.00154017  0.33433609  0.66607120  1
  Fe  Fe32  1  0.16933099  0.50167262  0.83488511  1
  Fe  Fe33  1  0.16660614  0.83325847  0.50133328  1
  Fe  Fe34  1  0.00233176  0.66902454  0.66546696  1
  Fe  Fe35  1  0.16856069  0.83414110  0.83412022  1
  Cr  Cr36  1  0.50165312  0.16885920  0.50111598  1
  Fe  Fe37  1  0.33324134  1.00035253  0.66809547  1
  Fe  Fe38  1  0.49988708  0.16755724  0.83392149  1
  Fe  Fe39  1  0.50086451  0.50226550  0.50094989  1
  Fe  Fe40  1  0.33494874  0.33491823  0.66829633  1
  Fe  Fe41  1  0.49980958  0.50082251  0.83415696  1
  Fe  Fe42  1  0.50162183  0.83205529  0.50168468  1
  Fe  Fe43  1  0.33406388  0.66733550  0.66759349  1
  Fe  Fe44  1  0.49982212  0.83422475  0.83417812  1
  Fe  Fe45  1  0.83481696  0.16676426  0.50026042  1
  Fe  Fe46  1  0.66700366  1.00033966  0.66677909  1
  Cr  Cr47  1  0.83312971  0.16672490  0.83445646  1
  Fe  Fe48  1  0.83360281  0.50173768  0.49999562  1
  Fe  Fe49  1  0.66531938  0.33494793  0.66680361  1
  Cr  Cr50  1  0.83361123  0.50175176  0.83574352  1
  Fe  Fe51  1  0.83437492  0.83409946  0.50074160  1
  Fe  Fe52  1  0.66620808  0.66731878  0.66610563  1
  Cr  Cr53  1  0.83494624  0.83412806  0.83440923  1
" 