4194,Ni4Fe96_4,-240.99601721932, 185.839086577883,Ni4Fe96,"# generated using pymatgen
 data_FeNi26
_symmetry_space_group_name_H-M   'P 1'
_cell_length_a   7.45637100
_cell_length_b   7.45637100
_cell_length_c   10.54490100
_cell_angle_alpha   90.00000000
_cell_angle_beta   90.00000000
_cell_angle_gamma   90.00000000
_symmetry_Int_Tables_number   1
_chemical_formula_structural   FeNi26
_chemical_formula_sum   'Fe2 Ni52'
_cell_volume   586.26980163
_cell_formula_units_Z   2
loop_
 _symmetry_equiv_pos_site_id
 _symmetry_equiv_pos_as_xyz
  1  'x, y, z'
loop_
 _atom_site_type_symbol
 _atom_site_label
 _atom_site_symmetry_multiplicity
 _atom_site_fract_x
 _atom_site_fract_y
 _atom_site_fract_z
 _atom_site_occupancy
  Ni  Ni0  1  0.00071594  0.00071594  1.00053363  1
  Ni  Ni1  1  0.16714978  0.16681768  0.16738261  1
  Ni  Ni2  1  0.00071594  0.00071594  0.33423158  1
  Ni  Ni3  1  0.00071594  0.33406410  0.00096344  1
  Ni  Ni4  1  0.16846875  0.50071594  0.16738261  1
  Ni  Ni5  1  0.00071594  0.33406410  0.33380177  1
  Ni  Ni6  1  0.00071594  0.66736778  0.00096344  1
  Ni  Ni7  1  0.16714978  0.83461420  0.16738261  1
  Ni  Ni8  1  0.00071594  0.66736778  0.33380177  1
  Ni  Ni9  1  0.33388900  0.00071594  1.00070277  1
  Fe  Fe10  1  0.50071594  0.16814826  0.16738261  1
  Ni  Ni11  1  0.33388900  0.00071594  0.33406245  1
  Ni  Ni12  1  0.33398426  0.33406735  1.00064250  1
  Ni  Ni13  1  0.50071594  0.50071594  0.16738261  1
  Ni  Ni14  1  0.33398426  0.33406735  0.33412271  1
  Ni  Ni15  1  0.33398426  0.66736453  1.00064250  1
  Fe  Fe16  1  0.50071594  0.83328362  0.16738261  1
  Ni  Ni17  1  0.33398426  0.66736453  0.33412271  1
  Ni  Ni18  1  0.66754288  0.00071594  1.00070277  1
  Ni  Ni19  1  0.83428210  0.16681768  0.16738261  1
  Ni  Ni20  1  0.66754288  0.00071594  0.33406245  1
  Ni  Ni21  1  0.66744762  0.33406735  1.00064250  1
  Ni  Ni22  1  0.83296313  0.50071594  0.16738261  1
  Ni  Ni23  1  0.66744762  0.33406735  0.33412271  1
  Ni  Ni24  1  0.66744762  0.66736453  1.00064250  1
  Ni  Ni25  1  0.83428210  0.83461420  0.16738261  1
  Ni  Ni26  1  0.66744762  0.66736453  0.33412271  1
  Ni  Ni27  1  0.16754032  0.16713645  0.50046343  1
  Ni  Ni28  1  0.00071594  0.00071594  0.66738261  1
  Ni  Ni29  1  0.16754032  0.16713645  0.83430178  1
  Ni  Ni30  1  0.16788390  0.50071594  0.50006557  1
  Ni  Ni31  1  0.00071594  0.33422303  0.66738261  1
  Ni  Ni32  1  0.16788390  0.50071594  0.83469964  1
  Ni  Ni33  1  0.16754032  0.83429543  0.50046343  1
  Ni  Ni34  1  0.00071594  0.66720885  0.66738261  1
  Ni  Ni35  1  0.16754032  0.83429543  0.83430178  1
  Ni  Ni36  1  0.50071594  0.16746676  0.50005989  1
  Ni  Ni37  1  0.33440288  1.00071594  0.66738261  1
  Ni  Ni38  1  0.50071594  0.16746676  0.83470532  1
  Ni  Ni39  1  0.50071594  0.50071594  0.50084730  1
  Ni  Ni40  1  0.33405265  0.33387215  0.66738261  1
  Ni  Ni41  1  0.50071594  0.50071594  0.83391791  1
  Ni  Ni42  1  0.50071594  0.83396511  0.50005989  1
  Ni  Ni43  1  0.33405265  0.66755972  0.66738261  1
  Ni  Ni44  1  0.50071594  0.83396511  0.83470532  1
  Ni  Ni45  1  0.83389155  0.16713645  0.50046343  1
  Ni  Ni46  1  0.66702900  0.00071594  0.66738261  1
  Ni  Ni47  1  0.83389155  0.16713645  0.83430178  1
  Ni  Ni48  1  0.83354798  0.50071594  0.50006557  1
  Ni  Ni49  1  0.66737923  0.33387215  0.66738261  1
  Ni  Ni50  1  0.83354798  0.50071594  0.83469964  1
  Ni  Ni51  1  0.83389155  0.83429543  0.50046343  1
  Ni  Ni52  1  0.66737923  0.66755972  0.66738261  1
  Ni  Ni53  1  0.83389155  0.83429543  0.83430178  1
" 