992,Ni4Fe33Cr62_2,-213.498388213525, 191.492362414599,Ni4Fe33Cr62,"# generated using pymatgen
 data_Cr17Fe9Ni
_symmetry_space_group_name_H-M   'P 1'
_cell_length_a   7.54172991
_cell_length_b   7.54172991
_cell_length_c   10.66561672
_cell_angle_alpha   90.00000000
_cell_angle_beta   90.00000000
_cell_angle_gamma   90.00000000
_symmetry_Int_Tables_number   1
_chemical_formula_structural   Cr17Fe9Ni
_chemical_formula_sum   'Cr34 Fe18 Ni2'
_cell_volume   606.63564131
_cell_formula_units_Z   2
loop_
 _symmetry_equiv_pos_site_id
 _symmetry_equiv_pos_as_xyz
  1  'x, y, z'
loop_
 _atom_site_type_symbol
 _atom_site_label
 _atom_site_symmetry_multiplicity
 _atom_site_fract_x
 _atom_site_fract_y
 _atom_site_fract_z
 _atom_site_occupancy
  Fe  Fe0  1  0.99347207  0.99333358  -0.00440007  1
  Cr  Cr1  1  0.16105436  0.16134431  0.15843461  1
  Cr  Cr2  1  0.99404487  0.99466443  0.32804326  1
  Fe  Fe3  1  0.99307565  0.32882963  0.99423937  1
  Cr  Cr4  1  0.16198219  0.49425454  0.16073210  1
  Fe  Fe5  1  0.99473487  0.32985576  0.32843390  1
  Cr  Cr6  1  0.99314958  0.66057835  0.99399177  1
  Cr  Cr7  1  0.15991374  0.82890430  0.16331747  1
  Cr  Cr8  1  0.99326770  0.65933863  0.32955829  1
  Fe  Fe9  1  0.32913631  0.99467410  -0.00483109  1
  Fe  Fe10  1  0.49589229  0.16043934  0.15987794  1
  Cr  Cr11  1  0.33156723  -0.00479217  0.32947535  1
  Fe  Fe12  1  0.32937583  0.32733852  -0.00476460  1
  Cr  Cr13  1  0.49639959  0.49458996  0.15923009  1
  Cr  Cr14  1  0.32913310  0.32749261  0.32697756  1
  Cr  Cr15  1  0.32845488  0.66181360  0.99394635  1
  Cr  Cr16  1  0.49626635  0.82718079  0.16175740  1
  Cr  Cr17  1  0.32862792  0.66242908  0.33105386  1
  Cr  Cr18  1  0.66157810  -0.00480323  0.99445404  1
  Cr  Cr19  1  0.82942068  0.16100607  0.16240355  1
  Fe  Fe20  1  0.66196258  0.99274282  0.32784900  1
  Fe  Fe21  1  0.66317044  0.32929234  -0.00402935  1
  Fe  Fe22  1  0.82914439  0.49633344  0.15943048  1
  Cr  Cr23  1  0.66427703  0.32783904  0.32776051  1
  Fe  Fe24  1  0.66304213  0.66215390  0.99504285  1
  Ni  Ni25  1  0.82731977  0.82866596  0.15879826  1
  Cr  Cr26  1  0.66364957  0.66106399  0.32522556  1
  Cr  Cr27  1  0.16014575  0.16168581  0.49464715  1
  Cr  Cr28  1  0.99479950  0.99444321  0.66398454  1
  Cr  Cr29  1  0.16148830  0.16194845  0.83183778  1
  Cr  Cr30  1  0.16097665  0.49600339  0.49652003  1
  Cr  Cr31  1  0.99446638  0.33072858  0.66106987  1
  Fe  Fe32  1  0.16130742  0.49338905  0.82829312  1
  Fe  Fe33  1  0.16232835  0.82923160  0.49582651  1
  Fe  Fe34  1  0.99438752  0.66277396  0.66224145  1
  Cr  Cr35  1  0.15968214  0.82821267  0.82840530  1
  Cr  Cr36  1  0.49711581  0.16213723  0.49520843  1
  Cr  Cr37  1  0.32953444  0.99445943  0.66075738  1
  Cr  Cr38  1  0.49504435  0.16475494  0.82822985  1
  Cr  Cr39  1  0.49675049  0.49602197  0.49712886  1
  Fe  Fe40  1  0.32795671  0.32781734  0.66248107  1
  Cr  Cr41  1  0.49431207  0.49544443  0.82842075  1
  Ni  Ni42  1  0.49755288  0.82716736  0.49474389  1
  Cr  Cr43  1  0.32707530  0.66256017  0.66121471  1
  Fe  Fe44  1  0.49570723  0.82902304  0.82897901  1
  Cr  Cr45  1  0.82816031  0.16216474  0.49544270  1
  Cr  Cr46  1  0.66071384  0.99491683  0.66165289  1
  Cr  Cr47  1  0.82863685  0.16100711  0.82754722  1
  Fe  Fe48  1  0.82663344  0.49595675  0.49619413  1
  Fe  Fe49  1  0.66139011  0.32890094  0.66150361  1
  Cr  Cr50  1  0.82625579  0.49551567  0.82780024  1
  Cr  Cr51  1  0.82833345  0.82826550  0.49576584  1
  Cr  Cr52  1  0.66228774  0.66328417  0.66441008  1
  Fe  Fe53  1  0.82647534  0.82825333  0.83031650  1
" 