978,Ni4Fe96_1,-241.01814118814, 185.823828471754,Ni4Fe96,"# generated using pymatgen
 data_FeNi26
_symmetry_space_group_name_H-M   'P 1'
_cell_length_a   7.45398720
_cell_length_b   7.45398720
_cell_length_c   10.54152979
_cell_angle_alpha   90.00000000
_cell_angle_beta   90.00000000
_cell_angle_gamma   90.00000000
_symmetry_Int_Tables_number   1
_chemical_formula_structural   FeNi26
_chemical_formula_sum   'Fe2 Ni52'
_cell_volume   585.70768868
_cell_formula_units_Z   2
loop_
 _symmetry_equiv_pos_site_id
 _symmetry_equiv_pos_as_xyz
  1  'x, y, z'
loop_
 _atom_site_type_symbol
 _atom_site_label
 _atom_site_symmetry_multiplicity
 _atom_site_fract_x
 _atom_site_fract_y
 _atom_site_fract_z
 _atom_site_occupancy
  Ni  Ni0  1  1.00065537  1.00063617  0.00118206  1
  Ni  Ni1  1  0.16729994  0.16778553  0.16736980  1
  Ni  Ni2  1  1.00041804  1.00037566  0.33420940  1
  Ni  Ni3  1  1.00073363  0.33435184  0.00121927  1
  Ni  Ni4  1  0.16758669  0.50085328  0.16753194  1
  Ni  Ni5  1  1.00032883  0.33475664  0.33420940  1
  Ni  Ni6  1  0.00102081  0.66764302  0.00092352  1
  Ni  Ni7  1  0.16730284  0.83398871  0.16723674  1
  Ni  Ni8  1  0.00156346  0.66749642  0.33420940  1
  Ni  Ni9  1  0.33445220  1.00063327  0.00104901  1
  Ni  Ni10  1  0.50109676  0.16778263  0.16723674  1
  Ni  Ni11  1  0.33470967  1.00037581  0.33420940  1
  Ni  Ni12  1  0.33444930  0.33443010  0.00118206  1
  Ni  Ni13  1  0.50073133  0.50077578  0.16749528  1
  Ni  Ni14  1  0.33470981  0.33466743  0.33420940  1
  Ni  Ni15  1  0.33416545  0.66756553  0.00088687  1
  Ni  Ni16  1  0.50101851  0.83406696  0.16719954  1
  Ni  Ni17  1  0.33347552  0.66758531  0.33420940  1
  Ni  Ni18  1  0.66751994  0.00092002  0.00088687  1
  Ni  Ni19  1  0.83423219  0.16749878  0.16753194  1
  Ni  Ni20  1  0.66750017  0.00160995  0.33420940  1
  Ni  Ni21  1  0.66744245  0.33406466  0.00092352  1
  Ni  Ni22  1  0.83431196  0.50077351  0.16691674  1
  Ni  Ni23  1  0.66758905  0.33352201  0.33420940  1
  Ni  Ni24  1  0.66744018  0.66764530  0.00150206  1
  Ni  Ni25  1  0.83430969  0.83435414  0.16749528  1
  Fe  Fe26  1  0.66757694  0.66750853  0.33420940  1
  Ni  Ni27  1  0.16729994  0.16778553  0.50104901  1
  Ni  Ni28  1  1.00065537  1.00063617  0.66723674  1
  Ni  Ni29  1  0.16704247  0.16804300  0.83420940  1
  Ni  Ni30  1  0.16758669  0.50085328  0.50088687  1
  Ni  Ni31  1  1.00073363  0.33435184  0.66719954  1
  Ni  Ni32  1  0.16827662  0.50083350  0.83420940  1
  Ni  Ni33  1  0.16730284  0.83398871  0.50118206  1
  Ni  Ni34  1  0.00102081  0.66764302  0.66749528  1
  Ni  Ni35  1  0.16704233  0.83375137  0.83420940  1
  Ni  Ni36  1  0.50109676  0.16778263  0.50118206  1
  Ni  Ni37  1  0.33445220  1.00063327  0.66736980  1
  Ni  Ni38  1  0.50133410  0.16804314  0.83420940  1
  Ni  Ni39  1  0.50073133  0.50077578  0.50092352  1
  Ni  Ni40  1  0.33444930  0.33443010  0.66723674  1
  Ni  Ni41  1  0.50018868  0.50092238  0.83420940  1
  Ni  Ni42  1  0.50101851  0.83406696  0.50121927  1
  Ni  Ni43  1  0.33416545  0.66756553  0.66753194  1
  Ni  Ni44  1  0.50142330  0.83366217  0.83420940  1
  Ni  Ni45  1  0.83423219  0.16749878  0.50088687  1
  Ni  Ni46  1  0.66751994  0.00092002  0.66753194  1
  Ni  Ni47  1  0.83425197  0.16680885  0.83420940  1
  Ni  Ni48  1  0.83431196  0.50077351  0.50150206  1
  Ni  Ni49  1  0.66744245  0.33406466  0.66749528  1
  Fe  Fe50  1  0.83417520  0.50091027  0.83420940  1
  Ni  Ni51  1  0.83430969  0.83435414  0.50092352  1
  Ni  Ni52  1  0.66744018  0.66764530  0.66691674  1
  Ni  Ni53  1  0.83416309  0.83489679  0.83420940  1
" 