3025,Ni4Fe84Cr11_17,-223.535895521465, 140.766531088078,Ni4Fe84Cr11,"# generated using pymatgen
 data_Cr7Fe45Ni2
_symmetry_space_group_name_H-M   'P 1'
_cell_length_a   7.45136015
_cell_length_b   7.45136015
_cell_length_c   10.53781458
_cell_angle_alpha   90.00000000
_cell_angle_beta   90.00000000
_cell_angle_gamma   90.00000000
_symmetry_Int_Tables_number   1
_chemical_formula_structural   Cr7Fe45Ni2
_chemical_formula_sum   'Cr7 Fe45 Ni2'
_cell_volume   585.08863488
_cell_formula_units_Z   1
loop_
 _symmetry_equiv_pos_site_id
 _symmetry_equiv_pos_as_xyz
  1  'x, y, z'
loop_
 _atom_site_type_symbol
 _atom_site_label
 _atom_site_symmetry_multiplicity
 _atom_site_fract_x
 _atom_site_fract_y
 _atom_site_fract_z
 _atom_site_occupancy
  Fe  Fe0  1  0.00229005  0.00353863  0.00118689  1
  Fe  Fe1  1  0.16740240  0.16731403  0.16752842  1
  Fe  Fe2  1  0.00258861  1.00067433  0.33499131  1
  Fe  Fe3  1  1.00055982  0.33371544  0.00112134  1
  Fe  Fe4  1  0.16705073  0.50165804  0.16832136  1
  Fe  Fe5  1  1.00005293  0.33357761  0.33341492  1
  Fe  Fe6  1  0.00239403  0.66619451  0.00179080  1
  Fe  Fe7  1  0.16875352  0.83389247  0.16815891  1
  Ni  Ni8  1  0.00162859  0.66601789  0.33471236  1
  Fe  Fe9  1  0.33436859  0.00130699  1.00079201  1
  Fe  Fe10  1  0.50118480  0.16746682  0.16655078  1
  Fe  Fe11  1  0.33136218  1.00046994  0.33458819  1
  Fe  Fe12  1  0.33484491  0.33382899  0.00116602  1
  Fe  Fe13  1  0.50125793  0.50127498  0.16804495  1
  Fe  Fe14  1  0.33354052  0.33263337  0.33204614  1
  Fe  Fe15  1  0.33492206  0.66805194  0.00106617  1
  Fe  Fe16  1  0.49982275  0.83475645  0.16623670  1
  Fe  Fe17  1  0.33390843  0.66983218  0.33250216  1
  Ni  Ni18  1  0.66589655  0.00245051  0.99973271  1
  Fe  Fe19  1  0.83392442  0.16875962  0.16637386  1
  Cr  Cr20  1  0.66593678  0.00182746  0.33657294  1
  Fe  Fe21  1  0.66770951  0.33409103  0.00122055  1
  Fe  Fe22  1  0.83498021  0.50006252  0.16806538  1
  Fe  Fe23  1  0.66969232  0.33575667  0.33311885  1
  Fe  Fe24  1  0.66593172  0.66665374  1.00057189  1
  Cr  Cr25  1  0.83428554  0.83576618  0.16654255  1
  Fe  Fe26  1  0.66911729  0.66658446  0.33435081  1
  Fe  Fe27  1  0.16730979  0.16760632  0.50019884  1
  Fe  Fe28  1  1.00027995  0.00183070  0.66665801  1
  Fe  Fe29  1  0.16651049  0.16812936  0.83515788  1
  Cr  Cr30  1  0.16911258  0.49988936  0.50183439  1
  Fe  Fe31  1  1.00013367  0.33329921  0.66893881  1
  Fe  Fe32  1  0.16721501  0.50124863  0.83437059  1
  Fe  Fe33  1  0.16689405  0.83439684  0.49971012  1
  Fe  Fe34  1  0.00278981  0.66855460  0.66746068  1
  Fe  Fe35  1  0.16850940  0.83369446  0.83544173  1
  Fe  Fe36  1  0.49996851  0.16893263  0.50127105  1
  Cr  Cr37  1  0.33494942  0.00114934  0.66758828  1
  Fe  Fe38  1  0.50220992  0.16815548  0.83539160  1
  Cr  Cr39  1  0.49947831  0.49937100  0.49987390  1
  Fe  Fe40  1  0.33482181  0.33441847  0.67016793  1
  Fe  Fe41  1  0.50059006  0.50045014  0.83483108  1
  Fe  Fe42  1  0.49904666  0.83380087  0.50051753  1
  Fe  Fe43  1  0.33341446  0.66779677  0.66991353  1
  Fe  Fe44  1  0.49995665  0.83447417  0.83619961  1
  Fe  Fe45  1  0.83557067  0.16975866  0.50208626  1
  Fe  Fe46  1  0.66882806  0.00345743  0.66716229  1
  Fe  Fe47  1  0.83412049  0.16953037  0.83502687  1
  Fe  Fe48  1  0.83559238  0.49994299  0.49982268  1
  Fe  Fe49  1  0.66810344  0.33188221  0.66845103  1
  Fe  Fe50  1  0.83528865  0.49934033  0.83517516  1
  Fe  Fe51  1  0.83721534  0.83335587  0.50047163  1
  Cr  Cr52  1  0.66846436  0.66770471  0.66677811  1
  Cr  Cr53  1  0.83506234  0.83651576  0.83557495  1
" 