4703,Ni4Fe74Cr21_4,-222.457666214871, 151.743607959539,Ni4Fe74Cr21,"# generated using pymatgen
 data_Cr6Fe20Ni
_symmetry_space_group_name_H-M   'P 1'
_cell_length_a   7.47079047
_cell_length_b   7.47079047
_cell_length_c   10.56529320
_cell_angle_alpha   90.00000000
_cell_angle_beta   90.00000000
_cell_angle_gamma   90.00000000
_symmetry_Int_Tables_number   1
_chemical_formula_structural   Cr6Fe20Ni
_chemical_formula_sum   'Cr12 Fe40 Ni2'
_cell_volume   589.67764811
_cell_formula_units_Z   2
loop_
 _symmetry_equiv_pos_site_id
 _symmetry_equiv_pos_as_xyz
  1  'x, y, z'
loop_
 _atom_site_type_symbol
 _atom_site_label
 _atom_site_symmetry_multiplicity
 _atom_site_fract_x
 _atom_site_fract_y
 _atom_site_fract_z
 _atom_site_occupancy
  Fe  Fe0  1  0.00057181  0.99882446  0.99926681  1
  Cr  Cr1  1  0.16864915  0.16713895  0.16757823  1
  Fe  Fe2  1  0.00031494  0.00247895  0.33314483  1
  Cr  Cr3  1  0.99756950  0.33270893  0.99699545  1
  Fe  Fe4  1  0.16786607  0.49864897  0.16578901  1
  Fe  Fe5  1  -0.00005906  0.33152221  0.33390766  1
  Fe  Fe6  1  0.99973582  0.66787570  0.00012831  1
  Fe  Fe7  1  0.16587394  0.83569622  0.16625799  1
  Cr  Cr8  1  0.00232289  0.66717149  0.33057533  1
  Fe  Fe9  1  0.33332649  0.00222287  0.99895616  1
  Fe  Fe10  1  0.50125305  0.16776169  0.16770373  1
  Ni  Ni11  1  0.33335482  -0.00000648  0.33448463  1
  Fe  Fe12  1  0.33394348  0.33158639  0.99878686  1
  Fe  Fe13  1  0.49865764  0.49595757  0.16676194  1
  Fe  Fe14  1  0.33493954  0.33175530  0.33480146  1
  Cr  Cr15  1  0.33095848  0.66746300  0.00030120  1
  Cr  Cr16  1  0.50199798  0.83439550  0.16579273  1
  Cr  Cr17  1  0.33230206  0.66620979  0.33438083  1
  Fe  Fe18  1  0.66668997  0.00229607  0.99895712  1
  Fe  Fe19  1  0.83134372  0.16508676  0.16709092  1
  Fe  Fe20  1  0.66538028  0.00179792  0.33270312  1
  Fe  Fe21  1  0.66384199  0.33081395  0.00043666  1
  Cr  Cr22  1  0.83128511  0.50074769  0.16515392  1
  Ni  Ni23  1  0.66695260  0.33040388  0.33342846  1
  Fe  Fe24  1  0.66695652  0.66608499  0.99941423  1
  Fe  Fe25  1  0.83458673  0.83675644  0.16529359  1
  Fe  Fe26  1  0.66477858  0.66417677  0.33254717  1
  Fe  Fe27  1  0.16648143  0.16579873  0.49916026  1
  Fe  Fe28  1  0.00016984  0.00119113  0.66644888  1
  Fe  Fe29  1  0.16765678  0.16539423  0.83252372  1
  Fe  Fe30  1  0.16730732  0.49843170  0.50182140  1
  Fe  Fe31  1  0.00089043  0.33107293  0.66793025  1
  Fe  Fe32  1  0.16524602  0.50028321  0.83130768  1
  Fe  Fe33  1  0.16596321  0.83528943  0.50120577  1
  Fe  Fe34  1  0.00192476  0.66680401  0.66655641  1
  Fe  Fe35  1  0.16743347  0.83426662  0.83183355  1
  Fe  Fe36  1  0.50019678  0.16741329  0.49914618  1
  Fe  Fe37  1  0.33209900  0.00176817  0.66624379  1
  Fe  Fe38  1  0.49966523  0.16457412  0.83282013  1
  Fe  Fe39  1  0.49979551  0.49688183  0.50094224  1
  Fe  Fe40  1  0.33248636  0.33160498  0.66597692  1
  Cr  Cr41  1  0.50076657  0.49883465  0.83294250  1
  Cr  Cr42  1  0.50043227  0.83336868  0.50293296  1
  Fe  Fe43  1  0.33148546  0.66594030  0.66679974  1
  Fe  Fe44  1  0.49807387  0.83540729  0.83215194  1
  Fe  Fe45  1  0.83254558  0.16636826  0.49976721  1
  Fe  Fe46  1  0.66656183  0.00222766  0.66742347  1
  Fe  Fe47  1  0.83135022  0.16677483  0.83181949  1
  Cr  Cr48  1  0.83274127  0.49925629  0.50240573  1
  Fe  Fe49  1  0.66571705  0.33023776  0.66575590  1
  Fe  Fe50  1  0.83363088  0.49838460  0.83112146  1
  Cr  Cr51  1  0.83214748  0.83375191  0.49755075  1
  Fe  Fe52  1  0.66580764  0.66604927  0.66749036  1
  Cr  Cr53  1  0.83250264  0.83152115  0.83375598  1
" 