8920,Ni4Fe84Cr11_15,-223.4614666812, 138.281816591411,Ni4Fe84Cr11,"# generated using pymatgen
 data_Cr7Fe45Ni2
_symmetry_space_group_name_H-M   'P 1'
_cell_length_a   7.45707975
_cell_length_b   7.45707975
_cell_length_c   10.54590332
_cell_angle_alpha   90.00000000
_cell_angle_beta   90.00000000
_cell_angle_gamma   90.00000000
_symmetry_Int_Tables_number   1
_chemical_formula_structural   Cr7Fe45Ni2
_chemical_formula_sum   'Cr7 Fe45 Ni2'
_cell_volume   586.43699645
_cell_formula_units_Z   1
loop_
 _symmetry_equiv_pos_site_id
 _symmetry_equiv_pos_as_xyz
  1  'x, y, z'
loop_
 _atom_site_type_symbol
 _atom_site_label
 _atom_site_symmetry_multiplicity
 _atom_site_fract_x
 _atom_site_fract_y
 _atom_site_fract_z
 _atom_site_occupancy
  Cr  Cr0  1  1.00061533  0.99875162  0.00100886  1
  Cr  Cr1  1  0.16621205  0.16793975  0.16621053  1
  Fe  Fe2  1  0.99870441  1.00015904  0.33473062  1
  Fe  Fe3  1  1.00004212  0.33747385  1.00035569  1
  Fe  Fe4  1  0.16667068  0.50287081  0.16664615  1
  Fe  Fe5  1  0.99865303  0.33446945  0.33467156  1
  Fe  Fe6  1  0.00173025  0.66553150  1.00027811  1
  Fe  Fe7  1  0.16736030  0.83107109  0.16733567  1
  Fe  Fe8  1  0.00110697  0.66737649  0.33395707  1
  Fe  Fe9  1  0.33638075  0.99970663  1.00019014  1
  Fe  Fe10  1  0.50361264  0.16731349  0.16582321  1
  Cr  Cr11  1  0.33333080  0.99975743  0.33545363  1
  Fe  Fe12  1  0.33473333  0.33463130  0.99961299  1
  Fe  Fe13  1  0.50038145  0.50046191  0.16739848  1
  Cr  Cr14  1  0.33519789  0.33597682  0.33486933  1
  Fe  Fe15  1  0.33233575  0.66766842  0.00084957  1
  Fe  Fe16  1  0.50044068  0.83423031  0.16732018  1
  Fe  Fe17  1  0.33399758  0.66739316  0.33389923  1
  Fe  Fe18  1  0.66509789  0.00139223  0.00147461  1
  Fe  Fe19  1  0.83179387  0.16800273  0.16792189  1
  Fe  Fe20  1  0.66860920  0.00089052  0.33395740  1
  Fe  Fe21  1  0.66723018  0.33343077  0.00112880  1
  Fe  Fe22  1  0.83495584  0.49969244  0.16742302  1
  Fe  Fe23  1  0.66862766  0.33377925  0.33389923  1
  Cr  Cr24  1  0.66841456  0.66663247  0.99970470  1
  Fe  Fe25  1  0.83420380  0.83430712  0.16882947  1
  Fe  Fe26  1  0.66690048  0.66733508  0.33378113  1
  Fe  Fe27  1  0.16696172  0.16843789  0.50158065  1
  Cr  Cr28  1  0.00140491  0.99954774  0.66599242  1
  Fe  Fe29  1  0.17000418  0.16975262  0.83383635  1
  Fe  Fe30  1  0.16704632  0.50099199  0.50168998  1
  Fe  Fe31  1  0.00180187  0.33650844  0.66697817  1
  Fe  Fe32  1  0.16671352  0.50007538  0.83367060  1
  Fe  Fe33  1  0.16729466  0.83257516  0.50057268  1
  Fe  Fe34  1  0.00086086  0.66494682  0.66776845  1
  Fe  Fe35  1  0.16790860  0.83217262  0.83409776  1
  Fe  Fe36  1  0.50174077  0.16769036  0.50251529  1
  Fe  Fe37  1  0.33542085  0.00146651  0.66714176  1
  Fe  Fe38  1  0.49943789  0.16826416  0.83367086  1
  Fe  Fe39  1  0.50093325  0.50101328  0.50169069  1
  Ni  Ni40  1  0.33471108  0.33406777  0.66767984  1
  Fe  Fe41  1  0.50053379  0.49935938  0.83291566  1
  Fe  Fe42  1  0.50142712  0.83330252  0.50133636  1
  Fe  Fe43  1  0.33380204  0.66685957  0.66725610  1
  Fe  Fe44  1  0.50082617  0.83438125  0.83334869  1
  Fe  Fe45  1  0.83330285  0.16793942  0.49998420  1
  Fe  Fe46  1  0.66451321  1.00052651  0.66657489  1
  Cr  Cr47  1  0.83242300  0.16999812  0.83480513  1
  Fe  Fe48  1  0.83402725  0.50067808  0.50123283  1
  Fe  Fe49  1  0.66642315  0.33489627  0.66697783  1
  Ni  Ni50  1  0.83533352  0.50133081  0.83292620  1
  Fe  Fe51  1  0.83328195  0.83338647  0.49989086  1
  Fe  Fe52  1  0.66734303  0.66658502  0.66794453  1
  Fe  Fe53  1  0.83327379  0.83109099  0.83328078  1
" 