7011,Ni4Fe84Cr11_16,-223.647695803663, 140.881223606041,Ni4Fe84Cr11,"# generated using pymatgen
 data_Cr7Fe45Ni2
_symmetry_space_group_name_H-M   'P 1'
_cell_length_a   7.45910604
_cell_length_b   7.45910604
_cell_length_c   10.54876892
_cell_angle_alpha   90.00000000
_cell_angle_beta   90.00000000
_cell_angle_gamma   90.00000000
_symmetry_Int_Tables_number   1
_chemical_formula_structural   Cr7Fe45Ni2
_chemical_formula_sum   'Cr7 Fe45 Ni2'
_cell_volume   586.91517871
_cell_formula_units_Z   1
loop_
 _symmetry_equiv_pos_site_id
 _symmetry_equiv_pos_as_xyz
  1  'x, y, z'
loop_
 _atom_site_type_symbol
 _atom_site_label
 _atom_site_symmetry_multiplicity
 _atom_site_fract_x
 _atom_site_fract_y
 _atom_site_fract_z
 _atom_site_occupancy
  Fe  Fe0  1  0.99981813  1.00053168  0.00129477  1
  Fe  Fe1  1  0.16576998  0.16911905  0.16570968  1
  Fe  Fe2  1  0.99977418  0.00122579  0.33318095  1
  Ni  Ni3  1  0.99918780  0.33558487  0.00181283  1
  Fe  Fe4  1  0.16457595  0.50033061  0.16677283  1
  Fe  Fe5  1  1.00032900  0.33406894  0.33276056  1
  Fe  Fe6  1  1.00013221  0.66595324  0.00096066  1
  Fe  Fe7  1  0.16440540  0.83214892  0.16644813  1
  Fe  Fe8  1  0.00116482  0.66630237  0.33266859  1
  Fe  Fe9  1  0.33239408  0.00202914  0.00159074  1
  Fe  Fe10  1  0.50200436  0.16859078  0.16642247  1
  Cr  Cr11  1  0.33289891  0.00149895  0.33408184  1
  Fe  Fe12  1  0.33305570  0.33376768  1.00048257  1
  Cr  Cr13  1  0.50088474  0.50056804  0.16751186  1
  Fe  Fe14  1  0.33317205  0.33462376  0.33480800  1
  Fe  Fe15  1  0.33073057  0.66580216  0.99964553  1
  Cr  Cr16  1  0.50211012  0.83376010  0.16735574  1
  Fe  Fe17  1  0.33141731  0.66483558  0.33476526  1
  Fe  Fe18  1  0.66938461  0.00285523  1.00047996  1
  Fe  Fe19  1  0.83382273  0.16842284  0.16679618  1
  Fe  Fe20  1  0.66956249  0.00298105  0.33309352  1
  Fe  Fe21  1  0.66923345  0.33345474  1.00012541  1
  Ni  Ni22  1  0.83655636  0.49972488  0.16763505  1
  Fe  Fe23  1  0.66809858  0.33323381  0.33434059  1
  Fe  Fe24  1  0.67073728  0.66528802  1.00013691  1
  Fe  Fe25  1  0.83514680  0.83279357  0.16753355  1
  Fe  Fe26  1  0.66901885  0.66538077  0.33343901  1
  Fe  Fe27  1  0.16638115  0.16752522  0.50159587  1
  Fe  Fe28  1  0.00056476  1.00042229  0.66711850  1
  Cr  Cr29  1  0.16594251  0.16845525  0.83390621  1
  Fe  Fe30  1  0.16731451  0.50100095  0.50057279  1
  Fe  Fe31  1  0.99970337  0.33466910  0.66705178  1
  Fe  Fe32  1  0.16711169  0.50196078  0.83425349  1
  Fe  Fe33  1  0.16641851  0.83307174  0.50137345  1
  Fe  Fe34  1  0.00136790  0.66650821  0.66796758  1
  Fe  Fe35  1  0.16568046  0.83226631  0.83377710  1
  Fe  Fe36  1  0.50157213  0.16937774  0.50134775  1
  Fe  Fe37  1  0.33304770  0.00132506  0.66614266  1
  Fe  Fe38  1  0.50213195  0.16871751  0.83382729  1
  Fe  Fe39  1  0.50068731  0.49918623  0.50032666  1
  Fe  Fe40  1  0.33478624  0.33464390  0.66630794  1
  Fe  Fe41  1  0.50021774  0.49878593  0.83398267  1
  Cr  Cr42  1  0.50079354  0.83213400  0.50059110  1
  Fe  Fe43  1  0.33221974  0.66562712  0.66718759  1
  Cr  Cr44  1  0.50122232  0.83317584  0.83365104  1
  Fe  Fe45  1  0.83364283  0.16848688  0.50059692  1
  Fe  Fe46  1  0.66798380  0.00298927  0.66802061  1
  Fe  Fe47  1  0.83243762  0.16728659  0.83420574  1
  Fe  Fe48  1  0.83359522  0.49915461  0.49982573  1
  Fe  Fe49  1  0.66710530  0.33384039  0.66713332  1
  Fe  Fe50  1  0.83426649  0.50013152  0.83497304  1
  Cr  Cr51  1  0.83354312  0.83418195  0.49964345  1
  Fe  Fe52  1  0.66801003  0.66476496  0.66802147  1
  Fe  Fe53  1  0.83561199  0.83418049  0.83349145  1
" 