1769,Ni4Fe96_8,-240.970353791545, 185.613971163398,Ni4Fe96,"# generated using pymatgen
 data_FeNi26
_symmetry_space_group_name_H-M   'P 1'
_cell_length_a   7.45518247
_cell_length_b   7.45518247
_cell_length_c   10.54322016
_cell_angle_alpha   90.00000000
_cell_angle_beta   90.00000000
_cell_angle_gamma   90.00000000
_symmetry_Int_Tables_number   1
_chemical_formula_structural   FeNi26
_chemical_formula_sum   'Fe2 Ni52'
_cell_volume   585.98949522
_cell_formula_units_Z   2
loop_
 _symmetry_equiv_pos_site_id
 _symmetry_equiv_pos_as_xyz
  1  'x, y, z'
loop_
 _atom_site_type_symbol
 _atom_site_label
 _atom_site_symmetry_multiplicity
 _atom_site_fract_x
 _atom_site_fract_y
 _atom_site_fract_z
 _atom_site_occupancy
  Ni  Ni0  1  0.00138920  0.00106317  0.00112827  1
  Ni  Ni1  1  0.16746243  0.16746243  0.16746243  1
  Ni  Ni2  1  1.00030183  0.00138059  0.33419371  1
  Ni  Ni3  1  1.00030183  0.33354427  1.00073115  1
  Ni  Ni4  1  0.16746243  0.50081134  0.16704504  1
  Ni  Ni5  1  0.00138920  0.33386169  0.33379659  1
  Ni  Ni6  1  0.99994239  0.66777857  0.00112946  1
  Ni  Ni7  1  0.16746243  0.83411352  0.16787982  1
  Ni  Ni8  1  0.99994239  0.66714629  0.33379540  1
  Ni  Ni9  1  0.33353566  0.00106317  0.00112827  1
  Ni  Ni10  1  0.50061073  0.16746243  0.16746243  1
  Ni  Ni11  1  0.33462303  0.00138059  0.33419371  1
  Ni  Ni12  1  0.33462303  0.33354427  1.00073115  1
  Ni  Ni13  1  0.50069698  0.50087252  0.16754222  1
  Ni  Ni14  1  0.33353566  0.33386169  0.33379659  1
  Ni  Ni15  1  0.33498247  0.66777857  0.00112946  1
  Ni  Ni16  1  0.50069698  0.83405234  0.16738264  1
  Ni  Ni17  1  0.33498247  0.66714629  0.33379540  1
  Fe  Fe18  1  0.66746243  0.00085326  0.00082538  1
  Ni  Ni19  1  0.83431413  0.16746243  0.16746243  1
  Ni  Ni20  1  0.66746243  0.99990094  0.33339336  1
  Ni  Ni21  1  0.66746243  0.33502392  0.00153150  1
  Ni  Ni22  1  0.83422789  0.50087252  0.16754222  1
  Fe  Fe23  1  0.66746243  0.33407161  0.33409949  1
  Ni  Ni24  1  0.66746243  0.66670952  1.00072763  1
  Ni  Ni25  1  0.83422789  0.83405234  0.16738264  1
  Ni  Ni26  1  0.66746243  0.66821534  0.33419724  1
  Ni  Ni27  1  0.16746243  0.16760913  0.50089239  1
  Ni  Ni28  1  1.00061040  0.00106532  0.66707065  1
  Ni  Ni29  1  0.16746243  0.16731574  0.83403247  1
  Ni  Ni30  1  0.16746243  0.50081038  0.50089197  1
  Ni  Ni31  1  1.00061040  0.33385954  0.66785421  1
  Ni  Ni32  1  0.16746243  0.50095734  0.83444993  1
  Ni  Ni33  1  0.16746243  0.83396752  0.50047494  1
  Ni  Ni34  1  1.00025871  0.66746243  0.66746243  1
  Ni  Ni35  1  0.16746243  0.83411448  0.83403289  1
  Ni  Ni36  1  0.50089492  0.16722207  0.50080165  1
  Ni  Ni37  1  0.33431446  0.00106532  0.66707065  1
  Ni  Ni38  1  0.50089492  0.16770279  0.83412321  1
  Ni  Ni39  1  0.50057515  0.50085411  0.50078928  1
  Ni  Ni40  1  0.33431446  0.33385954  0.66785421  1
  Ni  Ni41  1  0.50095019  0.50062653  0.83403265  1
  Ni  Ni42  1  0.50095019  0.83429833  0.50089222  1
  Ni  Ni43  1  0.33466615  0.66746243  0.66746243  1
  Ni  Ni44  1  0.50057515  0.83407075  0.83413558  1
  Ni  Ni45  1  0.83402994  0.16722207  0.50080165  1
  Ni  Ni46  1  0.66746243  1.00071947  0.66824769  1
  Ni  Ni47  1  0.83402994  0.16770279  0.83412321  1
  Ni  Ni48  1  0.83434971  0.50085411  0.50078928  1
  Ni  Ni49  1  0.66746243  0.33420540  0.66667717  1
  Ni  Ni50  1  0.83397467  0.50062653  0.83403265  1
  Ni  Ni51  1  0.83397467  0.83429833  0.50089222  1
  Ni  Ni52  1  0.66746243  0.66746243  0.66746243  1
  Ni  Ni53  1  0.83434971  0.83407075  0.83413558  1
" 