6344,Ni50Fe27Cr21_17,-231.893188782368, 193.993213874628,Ni50Fe27Cr21,"# generated using pymatgen
 data_Cr13Fe14Ni27
_symmetry_space_group_name_H-M   'P 1'
_cell_length_a   7.44784175
_cell_length_b   7.44784175
_cell_length_c   10.53283882
_cell_angle_alpha   90.00000000
_cell_angle_beta   90.00000000
_cell_angle_gamma   90.00000000
_symmetry_Int_Tables_number   1
_chemical_formula_structural   Cr13Fe14Ni27
_chemical_formula_sum   'Cr13 Fe14 Ni27'
_cell_volume   584.26022184
_cell_formula_units_Z   1
loop_
 _symmetry_equiv_pos_site_id
 _symmetry_equiv_pos_as_xyz
  1  'x, y, z'
loop_
 _atom_site_type_symbol
 _atom_site_label
 _atom_site_symmetry_multiplicity
 _atom_site_fract_x
 _atom_site_fract_y
 _atom_site_fract_z
 _atom_site_occupancy
  Cr  Cr0  1  1.00046940  0.99983346  0.00219092  1
  Ni  Ni1  1  0.16616258  0.16983308  0.16897582  1
  Ni  Ni2  1  0.99896039  0.99881571  0.33328382  1
  Fe  Fe3  1  0.00237350  0.33346891  1.00063867  1
  Cr  Cr4  1  0.16872811  0.49996952  0.16744923  1
  Fe  Fe5  1  1.00111942  0.33379559  0.33560890  1
  Ni  Ni6  1  1.00117834  0.67058924  0.99920208  1
  Ni  Ni7  1  0.16747364  0.83309277  0.16828979  1
  Ni  Ni8  1  0.00146824  0.67065776  0.33636788  1
  Cr  Cr9  1  0.33391378  0.00207751  0.00202210  1
  Fe  Fe10  1  0.50190771  0.16784021  0.17002993  1
  Cr  Cr11  1  0.33461096  0.99987845  0.33448939  1
  Ni  Ni12  1  0.33636430  0.33317225  0.00220586  1
  Fe  Fe13  1  0.50079636  0.50109374  0.16978559  1
  Ni  Ni14  1  0.33848938  0.33654080  0.33492309  1
  Ni  Ni15  1  0.33320188  0.66816188  0.00400408  1
  Ni  Ni16  1  0.50265623  0.83362250  0.16855242  1
  Ni  Ni17  1  0.33413442  0.66686196  0.33399734  1
  Fe  Fe18  1  0.66806925  1.00079922  0.00241283  1
  Ni  Ni19  1  0.83523834  0.16641652  0.16932589  1
  Ni  Ni20  1  0.66982051  0.00274876  0.33356409  1
  Cr  Cr21  1  0.66740147  0.33203639  1.00045281  1
  Cr  Cr22  1  0.83702846  0.50087147  0.16944573  1
  Ni  Ni23  1  0.66679482  0.33404005  0.33613490  1
  Cr  Cr24  1  0.66916550  0.66797858  0.00351974  1
  Ni  Ni25  1  0.83326474  0.83633772  0.16944584  1
  Fe  Fe26  1  0.66614530  0.66956107  0.33496812  1
  Cr  Cr27  1  0.16804830  0.17038998  0.49975119  1
  Cr  Cr28  1  0.00178231  0.99894158  0.66736516  1
  Ni  Ni29  1  0.16843361  0.16984692  0.83452474  1
  Ni  Ni30  1  0.16932492  0.50302001  0.50044559  1
  Cr  Cr31  1  0.99815959  0.33554688  0.66787636  1
  Cr  Cr32  1  0.16914886  0.50083497  0.83644917  1
  Fe  Fe33  1  0.16984852  0.83292601  0.50026322  1
  Fe  Fe34  1  1.00105268  0.66795929  0.66712568  1
  Fe  Fe35  1  0.16770467  0.83408711  0.83429463  1
  Ni  Ni36  1  0.50428778  0.16744376  0.50356393  1
  Ni  Ni37  1  0.33539968  1.00047838  0.66804287  1
  Fe  Fe38  1  0.50099526  0.16796026  0.83200244  1
  Ni  Ni39  1  0.49994439  0.50279627  0.50071565  1
  Ni  Ni40  1  0.33748787  0.33477236  0.66702645  1
  Cr  Cr41  1  0.49905571  0.50273796  0.83338073  1
  Ni  Ni42  1  0.50357726  0.83386998  0.50225619  1
  Ni  Ni43  1  0.33289594  0.66867864  0.66556743  1
  Cr  Cr44  1  0.50232192  0.83521493  0.83333965  1
  Ni  Ni45  1  0.83186535  0.16668322  0.49917063  1
  Ni  Ni46  1  0.66869218  0.00322780  0.66826713  1
  Ni  Ni47  1  0.83418690  0.16611114  0.83517395  1
  Fe  Fe48  1  0.83244926  0.50080322  0.49965900  1
  Ni  Ni49  1  0.66747793  0.33460227  0.66730479  1
  Fe  Fe50  1  0.83466596  0.50214988  0.83431234  1
  Fe  Fe51  1  0.83248023  0.83514881  0.50019799  1
  Fe  Fe52  1  0.66822060  0.66792279  0.66633337  1
  Ni  Ni53  1  0.83318054  0.83537575  0.83392813  1
" 