6717,Ni50Fe25Cr24_9,-230.927104195526, 189.932768012766,Ni50Fe25Cr24,"# generated using pymatgen
 data_Cr14Fe13Ni27
_symmetry_space_group_name_H-M   'P 1'
_cell_length_a   7.45227863
_cell_length_b   7.45227863
_cell_length_c   10.53911351
_cell_angle_alpha   90.00000000
_cell_angle_beta   90.00000000
_cell_angle_gamma   90.00000000
_symmetry_Int_Tables_number   1
_chemical_formula_structural   Cr14Fe13Ni27
_chemical_formula_sum   'Cr14 Fe13 Ni27'
_cell_volume   585.30502221
_cell_formula_units_Z   1
loop_
 _symmetry_equiv_pos_site_id
 _symmetry_equiv_pos_as_xyz
  1  'x, y, z'
loop_
 _atom_site_type_symbol
 _atom_site_label
 _atom_site_symmetry_multiplicity
 _atom_site_fract_x
 _atom_site_fract_y
 _atom_site_fract_z
 _atom_site_occupancy
  Ni  Ni0  1  1.00084716  0.00199784  1.00039639  1
  Ni  Ni1  1  0.16912855  0.16667376  0.16824273  1
  Ni  Ni2  1  0.00316295  0.00306743  0.33494240  1
  Cr  Cr3  1  0.99984143  0.33354966  0.00298991  1
  Ni  Ni4  1  0.16712549  0.50144494  0.16678014  1
  Fe  Fe5  1  1.00091430  0.33397753  0.33219477  1
  Fe  Fe6  1  1.00076854  0.66744216  0.00282292  1
  Ni  Ni7  1  0.16443351  0.83532093  0.16666591  1
  Ni  Ni8  1  0.00149743  0.67017129  0.33127626  1
  Ni  Ni9  1  0.33094400  0.99982569  0.00395566  1
  Cr  Cr10  1  0.50070376  0.16763175  0.16611561  1
  Fe  Fe11  1  0.33269470  1.00009590  0.33368660  1
  Ni  Ni12  1  0.33277317  0.33699168  1.00070533  1
  Ni  Ni13  1  0.50151500  0.49786500  0.16664501  1
  Fe  Fe14  1  0.33329484  0.33571444  0.33247724  1
  Ni  Ni15  1  0.33311169  0.66594943  0.00253823  1
  Fe  Fe16  1  0.50024830  0.83345454  0.16706848  1
  Cr  Cr17  1  0.33643421  0.66864872  0.33316094  1
  Ni  Ni18  1  0.67191404  0.00107313  0.00276707  1
  Fe  Fe19  1  0.83568122  0.16752210  0.16911298  1
  Fe  Fe20  1  0.67010287  0.99851934  0.33298428  1
  Ni  Ni21  1  0.66930637  0.33565825  0.99989622  1
  Ni  Ni22  1  0.83412617  0.50303640  0.17044936  1
  Ni  Ni23  1  0.66853562  0.33608757  0.33414047  1
  Cr  Cr24  1  0.66753651  0.66560575  0.00350736  1
  Ni  Ni25  1  0.83594197  0.83438192  0.16785589  1
  Ni  Ni26  1  0.66585547  0.66583243  0.33332819  1
  Ni  Ni27  1  0.16726929  0.16730602  0.49870284  1
  Ni  Ni28  1  0.00269908  0.00226835  0.66753339  1
  Ni  Ni29  1  0.16940492  0.16844798  0.83559073  1
  Cr  Cr30  1  0.16633727  0.50057338  0.50053666  1
  Cr  Cr31  1  1.00001439  0.32983197  0.66812690  1
  Ni  Ni32  1  0.16719830  0.50076876  0.83517080  1
  Fe  Fe33  1  0.16652774  0.83495818  0.49886206  1
  Fe  Fe34  1  0.99893697  0.66780823  0.66893890  1
  Cr  Cr35  1  0.16475165  0.83347283  0.83558950  1
  Cr  Cr36  1  0.50142986  0.17011676  0.49892563  1
  Cr  Cr37  1  0.33056418  0.99970280  0.66445300  1
  Cr  Cr38  1  0.49975527  0.16944021  0.83742525  1
  Ni  Ni39  1  0.50117752  0.50087049  0.50316430  1
  Fe  Fe40  1  0.33463098  0.33532479  0.66900968  1
  Fe  Fe41  1  0.49979198  0.50165784  0.83454455  1
  Ni  Ni42  1  0.50196559  0.83295581  0.49911119  1
  Fe  Fe43  1  0.33556087  0.66598887  0.66786532  1
  Cr  Cr44  1  0.50225086  0.83598394  0.83722988  1
  Ni  Ni45  1  0.83537490  0.16739505  0.49932981  1
  Cr  Cr46  1  0.67099363  0.00129456  0.66768711  1
  Fe  Fe47  1  0.83568591  0.16651847  0.83502709  1
  Cr  Cr48  1  0.83384413  0.50186161  0.49848882  1
  Ni  Ni49  1  0.66849432  0.33826531  0.66890533  1
  Ni  Ni50  1  0.83462413  0.50375913  0.83351822  1
  Cr  Cr51  1  0.83567780  0.83191744  0.50127384  1
  Ni  Ni52  1  0.66450764  0.66491150  0.66745733  1
  Ni  Ni53  1  0.83560037  0.83256895  0.83433431  1
" 