3710,Ni50Fe43Cr5_19,-238.280020471724, 216.164683777178,Ni50Fe43Cr5,"# generated using pymatgen
 data_Cr4Fe23Ni27
_symmetry_space_group_name_H-M   'P 1'
_cell_length_a   7.41694445
_cell_length_b   7.41694445
_cell_length_c   10.48914343
_cell_angle_alpha   90.00000000
_cell_angle_beta   90.00000000
_cell_angle_gamma   90.00000000
_symmetry_Int_Tables_number   1
_chemical_formula_structural   Cr4Fe23Ni27
_chemical_formula_sum   'Cr4 Fe23 Ni27'
_cell_volume   577.01894983
_cell_formula_units_Z   1
loop_
 _symmetry_equiv_pos_site_id
 _symmetry_equiv_pos_as_xyz
  1  'x, y, z'
loop_
 _atom_site_type_symbol
 _atom_site_label
 _atom_site_symmetry_multiplicity
 _atom_site_fract_x
 _atom_site_fract_y
 _atom_site_fract_z
 _atom_site_occupancy
  Ni  Ni0  1  1.00160747  0.00469315  0.00503171  1
  Fe  Fe1  1  0.16949301  0.17088602  0.16961097  1
  Fe  Fe2  1  1.00260459  0.00339412  0.33655981  1
  Ni  Ni3  1  0.00343075  0.33625041  0.00424208  1
  Ni  Ni4  1  0.16979468  0.50348208  0.16883085  1
  Ni  Ni5  1  1.00289152  0.33631814  0.33615145  1
  Fe  Fe6  1  1.00239773  0.66856153  0.00436150  1
  Fe  Fe7  1  0.17019114  0.83630596  0.17018529  1
  Fe  Fe8  1  1.00306365  0.66974916  0.33687435  1
  Fe  Fe9  1  0.33830806  0.00400353  0.00426285  1
  Ni  Ni10  1  0.50352706  0.16969256  0.16985898  1
  Fe  Fe11  1  0.33670300  0.00474563  0.33685559  1
  Ni  Ni12  1  0.33621614  0.33778739  0.00374877  1
  Ni  Ni13  1  0.50297570  0.50345739  0.16993630  1
  Fe  Fe14  1  0.33750856  0.33700210  0.33658582  1
  Fe  Fe15  1  0.33698769  0.66867895  0.00504490  1
  Ni  Ni16  1  0.50352401  0.83698530  0.16957156  1
  Ni  Ni17  1  0.33641665  0.66984070  0.33565939  1
  Fe  Fe18  1  0.67047241  0.00426670  0.00420788  1
  Ni  Ni19  1  0.83656302  0.16991703  0.16947098  1
  Ni  Ni20  1  0.67068775  0.00411476  0.33589736  1
  Fe  Fe21  1  0.67058777  0.33640717  0.00384014  1
  Ni  Ni22  1  0.83736235  0.50347675  0.17031872  1
  Ni  Ni23  1  0.67090394  0.33612148  0.33660885  1
  Ni  Ni24  1  0.66908583  0.67087586  0.00387153  1
  Ni  Ni25  1  0.83658713  0.83673813  0.16910751  1
  Fe  Fe26  1  0.67081071  0.66894648  0.33558095  1
  Ni  Ni27  1  0.17066503  0.17017128  0.50401428  1
  Fe  Fe28  1  1.00216091  1.00292954  0.66865928  1
  Cr  Cr29  1  0.17047813  0.17125440  0.83669656  1
  Ni  Ni30  1  0.16929796  0.50246732  0.50409225  1
  Ni  Ni31  1  1.00265657  0.33656018  0.66973777  1
  Fe  Fe32  1  0.16861008  0.50099115  0.83770905  1
  Ni  Ni33  1  0.16699718  0.83749378  0.50246883  1
  Fe  Fe34  1  1.00125619  0.66947321  0.66889697  1
  Cr  Cr35  1  0.16919421  0.83602944  0.83712917  1
  Ni  Ni36  1  0.50245849  0.17196869  0.50409811  1
  Ni  Ni37  1  0.33745422  0.00495953  0.66899668  1
  Ni  Ni38  1  0.50485426  0.16995565  0.83617653  1
  Ni  Ni39  1  0.50375454  0.50060081  0.50269583  1
  Fe  Fe40  1  0.33777263  0.33573235  0.66918985  1
  Fe  Fe41  1  0.50495003  0.50220565  0.83756742  1
  Cr  Cr42  1  0.50444966  0.83750631  0.50251044  1
  Cr  Cr43  1  0.33779735  0.66943563  0.67061439  1
  Fe  Fe44  1  0.50646699  0.83776861  0.83742509  1
  Fe  Fe45  1  0.83717916  0.17030663  0.50290780  1
  Fe  Fe46  1  0.67054002  0.00435797  0.67042451  1
  Ni  Ni47  1  0.83469620  0.17095749  0.83655769  1
  Fe  Fe48  1  0.83703293  0.50313437  0.50369741  1
  Fe  Fe49  1  0.66949271  0.33664247  0.66993727  1
  Ni  Ni50  1  0.83653561  0.50355635  0.83656828  1
  Ni  Ni51  1  0.83887773  0.83619599  0.50460610  1
  Ni  Ni52  1  0.67141932  0.67000174  0.66991867  1
  Fe  Fe53  1  0.83464079  0.83703619  0.83681886  1
" 