1252,Ni50Fe27Cr21_5,-231.751142123227, 189.011010401496,Ni50Fe27Cr21,"# generated using pymatgen
 data_Cr13Fe14Ni27
_symmetry_space_group_name_H-M   'P 1'
_cell_length_a   7.45176216
_cell_length_b   7.45176216
_cell_length_c   10.53838310
_cell_angle_alpha   90.00000000
_cell_angle_beta   90.00000000
_cell_angle_gamma   90.00000000
_symmetry_Int_Tables_number   1
_chemical_formula_structural   Cr13Fe14Ni27
_chemical_formula_sum   'Cr13 Fe14 Ni27'
_cell_volume   585.18333799
_cell_formula_units_Z   1
loop_
 _symmetry_equiv_pos_site_id
 _symmetry_equiv_pos_as_xyz
  1  'x, y, z'
loop_
 _atom_site_type_symbol
 _atom_site_label
 _atom_site_symmetry_multiplicity
 _atom_site_fract_x
 _atom_site_fract_y
 _atom_site_fract_z
 _atom_site_occupancy
  Cr  Cr0  1  1.00086654  0.99906191  0.00201391  1
  Ni  Ni1  1  0.17280544  0.16654974  0.16788016  1
  Cr  Cr2  1  1.00043629  1.00010726  0.33175731  1
  Cr  Cr3  1  0.00347952  0.33495830  1.00006923  1
  Cr  Cr4  1  0.17094195  0.50251434  0.16763313  1
  Cr  Cr5  1  0.00454877  0.33401690  0.33416631  1
  Ni  Ni6  1  0.00251818  0.66903648  0.99960011  1
  Ni  Ni7  1  0.17161691  0.83473622  0.16839175  1
  Fe  Fe8  1  1.00081130  0.66710040  0.33563184  1
  Fe  Fe9  1  0.33693800  0.00363146  0.00152335  1
  Ni  Ni10  1  0.49909177  0.16711707  0.16869001  1
  Fe  Fe11  1  0.33595575  0.00485714  0.33287414  1
  Ni  Ni12  1  0.33824124  0.33517048  1.00025589  1
  Ni  Ni13  1  0.50031192  0.50172104  0.16708674  1
  Ni  Ni14  1  0.33571734  0.33610582  0.33593828  1
  Fe  Fe15  1  0.33727486  0.66750642  0.99999323  1
  Ni  Ni16  1  0.49918550  0.83467623  0.16807069  1
  Fe  Fe17  1  0.33727122  0.66696675  0.33420578  1
  Ni  Ni18  1  0.66346782  0.99993680  0.00180294  1
  Fe  Fe19  1  0.83011976  0.16659092  0.16624919  1
  Ni  Ni20  1  0.66505723  0.99851189  0.33331344  1
  Ni  Ni21  1  0.66114292  0.33331646  0.00185226  1
  Cr  Cr22  1  0.83114170  0.50011946  0.16574638  1
  Cr  Cr23  1  0.66260939  0.33273837  0.33343446  1
  Fe  Fe24  1  0.66608937  0.66721617  0.99871902  1
  Cr  Cr25  1  0.83228058  0.83235417  0.16796653  1
  Fe  Fe26  1  0.66523624  0.66709822  0.33492565  1
  Ni  Ni27  1  0.16909457  0.16916258  0.50329408  1
  Ni  Ni28  1  0.99942297  0.99978092  0.66824561  1
  Ni  Ni29  1  0.17085699  0.17004946  0.83144515  1
  Fe  Fe30  1  0.17048237  0.49995752  0.50334514  1
  Ni  Ni31  1  0.00347080  0.33650556  0.66818727  1
  Ni  Ni32  1  0.16836208  0.50036109  0.83248959  1
  Cr  Cr33  1  0.16863190  0.83553621  0.50148403  1
  Ni  Ni34  1  0.00126255  0.66721303  0.66695110  1
  Cr  Cr35  1  0.16927631  0.83446084  0.83378258  1
  Fe  Fe36  1  0.49823647  0.16846234  0.50232847  1
  Fe  Fe37  1  0.33466794  0.00371031  0.66893352  1
  Ni  Ni38  1  0.49989078  0.16813755  0.83230728  1
  Ni  Ni39  1  0.50130579  0.50110202  0.50129961  1
  Ni  Ni40  1  0.33566107  0.33691785  0.66701832  1
  Ni  Ni41  1  0.50152885  0.50044471  0.83494193  1
  Cr  Cr42  1  0.50155957  0.83437216  0.50200043  1
  Ni  Ni43  1  0.33536468  0.66425495  0.66927689  1
  Ni  Ni44  1  0.50313754  0.83445322  0.83426479  1
  Cr  Cr45  1  0.83372641  0.16780897  0.50352824  1
  Ni  Ni46  1  0.66690755  0.99957069  0.66845680  1
  Cr  Cr47  1  0.83261292  0.16907910  0.83435729  1
  Fe  Fe48  1  0.83436065  0.50277051  0.50366538  1
  Ni  Ni49  1  0.66409087  0.33498591  0.66777296  1
  Ni  Ni50  1  0.83345162  0.50266486  0.83289676  1
  Fe  Fe51  1  0.83334662  0.83308045  0.50267394  1
  Fe  Fe52  1  0.66744698  0.66508633  0.66905386  1
  Ni  Ni53  1  0.83206947  0.83173834  0.83159110  1
" 