7721,Ni50Fe47Cr2_11,-239.673744335469, 219.696172390488,Ni50Fe47Cr2,"# generated using pymatgen
 data_Cr2Fe25Ni27
_symmetry_space_group_name_H-M   'P 1'
_cell_length_a   7.41248366
_cell_length_b   7.41248366
_cell_length_c   10.48283493
_cell_angle_alpha   90.00000000
_cell_angle_beta   90.00000000
_cell_angle_gamma   90.00000000
_symmetry_Int_Tables_number   1
_chemical_formula_structural   Cr2Fe25Ni27
_chemical_formula_sum   'Cr2 Fe25 Ni27'
_cell_volume   575.97846426
_cell_formula_units_Z   1
loop_
 _symmetry_equiv_pos_site_id
 _symmetry_equiv_pos_as_xyz
  1  'x, y, z'
loop_
 _atom_site_type_symbol
 _atom_site_label
 _atom_site_symmetry_multiplicity
 _atom_site_fract_x
 _atom_site_fract_y
 _atom_site_fract_z
 _atom_site_occupancy
  Fe  Fe0  1  0.00375559  0.00375477  0.00473285  1
  Ni  Ni1  1  0.17123977  0.16993326  0.17015894  1
  Fe  Fe2  1  1.00342917  1.00254018  0.33622567  1
  Fe  Fe3  1  1.00278667  0.33695435  1.00359773  1
  Ni  Ni4  1  0.17153550  0.50359553  0.17083219  1
  Fe  Fe5  1  1.00362547  0.33782485  0.33649739  1
  Fe  Fe6  1  0.00369877  0.67033267  0.00429718  1
  Ni  Ni7  1  0.16895008  0.83751306  0.17066554  1
  Fe  Fe8  1  0.00438637  0.67067741  0.33762062  1
  Fe  Fe9  1  0.33774349  1.00334466  0.00409554  1
  Ni  Ni10  1  0.50316316  0.17156149  0.17085336  1
  Ni  Ni11  1  0.33707685  1.00245650  0.33599913  1
  Fe  Fe12  1  0.33830578  0.33695294  0.00415908  1
  Ni  Ni13  1  0.50339619  0.50249321  0.17014067  1
  Fe  Fe14  1  0.33828338  0.33809650  0.33568893  1
  Fe  Fe15  1  0.33779944  0.67074448  1.00366021  1
  Fe  Fe16  1  0.50282863  0.83706931  0.16982379  1
  Ni  Ni17  1  0.33570772  0.67082226  0.33691927  1
  Ni  Ni18  1  0.66961364  0.00450663  0.00504333  1
  Fe  Fe19  1  0.83718691  0.17034283  0.17035042  1
  Fe  Fe20  1  0.66997115  0.00386498  0.33703629  1
  Fe  Fe21  1  0.66994988  0.33701232  1.00367945  1
  Fe  Fe22  1  0.83715882  0.50368893  0.17019980  1
  Ni  Ni23  1  0.67122636  0.33637356  0.33690699  1
  Ni  Ni24  1  0.66961824  0.66998534  0.00445814  1
  Ni  Ni25  1  0.83774094  0.83728338  0.17024055  1
  Fe  Fe26  1  0.66969645  0.67003432  0.33709569  1
  Cr  Cr27  1  0.17069421  0.16977254  0.50351382  1
  Fe  Fe28  1  1.00311771  1.00218277  0.67008071  1
  Fe  Fe29  1  0.17060241  0.17031011  0.83739086  1
  Ni  Ni30  1  0.17135484  0.50575655  0.50369068  1
  Fe  Fe31  1  1.00187008  0.33873190  0.67094569  1
  Fe  Fe32  1  0.17054170  0.50404548  0.83657650  1
  Ni  Ni33  1  0.16951723  0.83553670  0.50356632  1
  Ni  Ni34  1  0.00526425  0.66889079  0.66939326  1
  Ni  Ni35  1  0.17170333  0.83734861  0.83681165  1
  Fe  Fe36  1  0.50580272  0.17049968  0.50334331  1
  Fe  Fe37  1  0.33802946  1.00122628  0.67119699  1
  Ni  Ni38  1  0.50389556  0.17106967  0.83642937  1
  Ni  Ni39  1  0.50382661  0.50353703  0.50384532  1
  Fe  Fe40  1  0.33859202  0.33900559  0.67119366  1
  Ni  Ni41  1  0.50410681  0.50313381  0.83705496  1
  Fe  Fe42  1  0.50374577  0.83619118  0.50441038  1
  Ni  Ni43  1  0.33594848  0.67026668  0.67076712  1
  Ni  Ni44  1  0.50180560  0.83684113  0.83734771  1
  Ni  Ni45  1  0.83527123  0.16954079  0.50359370  1
  Ni  Ni46  1  0.66984813  0.00515031  0.66910975  1
  Ni  Ni47  1  0.83645892  0.17179074  0.83710419  1
  Ni  Ni48  1  0.83586192  0.50433691  0.50368054  1
  Fe  Fe49  1  0.67057725  0.33801223  0.67005389  1
  Ni  Ni50  1  0.83595085  0.50211510  0.83695278  1
  Ni  Ni51  1  0.83748862  0.83716449  0.50433509  1
  Ni  Ni52  1  0.66982853  0.66990083  0.66935442  1
  Cr  Cr53  1  0.83717077  0.83663175  0.83602797  1
" 