1430,Ni50Fe33Cr15_11,-235.559007245047, 206.997163573021,Ni50Fe33Cr15,"# generated using pymatgen
 data_CrFe2Ni3
_symmetry_space_group_name_H-M   'P 1'
_cell_length_a   7.43852706
_cell_length_b   7.43852706
_cell_length_c   10.51966585
_cell_angle_alpha   90.00000000
_cell_angle_beta   90.00000000
_cell_angle_gamma   90.00000000
_symmetry_Int_Tables_number   1
_chemical_formula_structural   CrFe2Ni3
_chemical_formula_sum   'Cr9 Fe18 Ni27'
_cell_volume   582.07083464
_cell_formula_units_Z   9
loop_
 _symmetry_equiv_pos_site_id
 _symmetry_equiv_pos_as_xyz
  1  'x, y, z'
loop_
 _atom_site_type_symbol
 _atom_site_label
 _atom_site_symmetry_multiplicity
 _atom_site_fract_x
 _atom_site_fract_y
 _atom_site_fract_z
 _atom_site_occupancy
  Ni  Ni0  1  0.00268306  0.00336134  1.00059241  1
  Cr  Cr1  1  0.16879985  0.17061900  0.16677736  1
  Cr  Cr2  1  0.00223248  0.00350045  0.33665340  1
  Ni  Ni3  1  1.00178525  0.33594303  0.00232842  1
  Ni  Ni4  1  0.16691312  0.50246543  0.16898403  1
  Ni  Ni5  1  0.00249243  0.33643770  0.33430724  1
  Ni  Ni6  1  1.00183090  0.66644648  0.00216685  1
  Fe  Fe7  1  0.17016736  0.83367429  0.16699498  1
  Fe  Fe8  1  0.00364621  0.66628437  0.33491513  1
  Ni  Ni9  1  0.33552012  1.00087136  1.00059842  1
  Cr  Cr10  1  0.50266654  0.16702426  0.16882282  1
  Ni  Ni11  1  0.33681036  1.00099927  0.33669885  1
  Ni  Ni12  1  0.33383371  0.33585222  0.99992591  1
  Fe  Fe13  1  0.50253268  0.50325854  0.16915378  1
  Ni  Ni14  1  0.33413151  0.33639137  0.33805160  1
  Fe  Fe15  1  0.33447563  0.66942341  1.00112915  1
  Ni  Ni16  1  0.50152455  0.83506703  0.16829190  1
  Fe  Fe17  1  0.33532453  0.66813478  0.33604004  1
  Ni  Ni18  1  0.66755002  1.00091826  1.00187752  1
  Ni  Ni19  1  0.83459994  0.17093500  0.16770107  1
  Fe  Fe20  1  0.66658896  0.00213571  0.33694748  1
  Fe  Fe21  1  0.67011245  0.33509741  1.00145180  1
  Ni  Ni22  1  0.83733737  0.50102317  0.16817328  1
  Fe  Fe23  1  0.66844077  0.33506852  0.33530081  1
  Ni  Ni24  1  0.66763937  0.66812959  0.00202685  1
  Cr  Cr25  1  0.83388434  0.83445951  0.16740551  1
  Ni  Ni26  1  0.66690501  0.66876872  0.33524668  1
  Fe  Fe27  1  0.17044096  0.16990985  0.50047282  1
  Fe  Fe28  1  1.00136964  1.00058424  0.66810573  1
  Fe  Fe29  1  0.16961636  0.16821304  0.83742386  1
  Ni  Ni30  1  0.17045646  0.50193955  0.50130174  1
  Cr  Cr31  1  0.00376298  0.33448294  0.66928574  1
  Ni  Ni32  1  0.16885018  0.50241874  0.83546704  1
  Fe  Fe33  1  0.16959061  0.83342758  0.50244835  1
  Fe  Fe34  1  0.00568961  0.67003600  0.66901418  1
  Ni  Ni35  1  0.16864488  0.83347705  0.83616087  1
  Ni  Ni36  1  0.50204282  0.16860977  0.50125849  1
  Cr  Cr37  1  0.33597181  1.00171929  0.66859489  1
  Ni  Ni38  1  0.50254202  0.16894929  0.83570484  1
  Ni  Ni39  1  0.49844879  0.50005295  0.50162995  1
  Ni  Ni40  1  0.33536298  0.33704291  0.66777237  1
  Fe  Fe41  1  0.50003565  0.50180771  0.83524301  1
  Ni  Ni42  1  0.50302254  0.83708597  0.50061707  1
  Ni  Ni43  1  0.33500579  0.66690163  0.66831580  1
  Ni  Ni44  1  0.50099357  0.83709182  0.83684185  1
  Fe  Fe45  1  0.83313033  0.16713810  0.50157785  1
  Ni  Ni46  1  0.66926905  0.00231385  0.66662148  1
  Fe  Fe47  1  0.83461165  0.16821935  0.83671002  1
  Cr  Cr48  1  0.83672858  0.50326767  0.50064620  1
  Fe  Fe49  1  0.66493000  0.33275092  0.66899584  1
  Fe  Fe50  1  0.83552974  0.50141147  0.83758903  1
  Ni  Ni51  1  0.83496285  0.83691291  0.50253191  1
  Cr  Cr52  1  0.66617370  0.66970455  0.66904473  1
  Cr  Cr53  1  0.83591039  0.83576315  0.83558357  1
" 