6480,Ni50Fe43Cr5_15,-238.600288758458, 218.83807523274,Ni50Fe43Cr5,"# generated using pymatgen
 data_Cr4Fe23Ni27
_symmetry_space_group_name_H-M   'P 1'
_cell_length_a   7.41514282
_cell_length_b   7.41514282
_cell_length_c   10.48659554
_cell_angle_alpha   90.00000000
_cell_angle_beta   90.00000000
_cell_angle_gamma   90.00000000
_symmetry_Int_Tables_number   1
_chemical_formula_structural   Cr4Fe23Ni27
_chemical_formula_sum   'Cr4 Fe23 Ni27'
_cell_volume   576.59856693
_cell_formula_units_Z   1
loop_
 _symmetry_equiv_pos_site_id
 _symmetry_equiv_pos_as_xyz
  1  'x, y, z'
loop_
 _atom_site_type_symbol
 _atom_site_label
 _atom_site_symmetry_multiplicity
 _atom_site_fract_x
 _atom_site_fract_y
 _atom_site_fract_z
 _atom_site_occupancy
  Fe  Fe0  1  1.00343613  0.00393376  1.00337233  1
  Ni  Ni1  1  0.17023632  0.17154238  0.17006936  1
  Cr  Cr2  1  1.00261582  1.00344355  0.33735298  1
  Fe  Fe3  1  0.00509693  0.33632978  0.00350810  1
  Fe  Fe4  1  0.17032850  0.50340440  0.16952332  1
  Fe  Fe5  1  1.00295602  0.33814990  0.33724566  1
  Ni  Ni6  1  0.00504150  0.67244736  0.00469914  1
  Fe  Fe7  1  0.17050054  0.83589912  0.16928458  1
  Fe  Fe8  1  1.00283126  0.66844192  0.33625500  1
  Fe  Fe9  1  0.33659229  0.00378422  1.00279384  1
  Fe  Fe10  1  0.50416139  0.17092513  0.17088648  1
  Fe  Fe11  1  0.33986253  0.00371816  0.33764100  1
  Ni  Ni12  1  0.33777582  0.33731595  1.00253972  1
  Ni  Ni13  1  0.50284935  0.50443937  0.16982798  1
  Ni  Ni14  1  0.33705132  0.33669011  0.33619551  1
  Ni  Ni15  1  0.33547902  0.66970429  1.00277875  1
  Fe  Fe16  1  0.50386091  0.83687008  0.17071138  1
  Ni  Ni17  1  0.33622583  0.67027151  0.33587861  1
  Fe  Fe18  1  0.67047015  1.00313901  0.00379900  1
  Ni  Ni19  1  0.83731494  0.17038283  0.16913313  1
  Ni  Ni20  1  0.66962255  0.00414532  0.33735704  1
  Ni  Ni21  1  0.66900052  0.33513446  0.00475192  1
  Fe  Fe22  1  0.83641175  0.50310665  0.17009101  1
  Ni  Ni23  1  0.67020694  0.33560829  0.33564660  1
  Fe  Fe24  1  0.66899198  0.67057315  0.00421356  1
  Ni  Ni25  1  0.83568944  0.83625219  0.16962944  1
  Ni  Ni26  1  0.67042053  0.67074725  0.33543503  1
  Fe  Fe27  1  0.17151642  0.17050974  0.50468492  1
  Ni  Ni28  1  0.00382805  0.00550252  0.67144924  1
  Ni  Ni29  1  0.16931612  0.17127529  0.83586186  1
  Fe  Fe30  1  0.17021017  0.50243259  0.50314626  1
  Ni  Ni31  1  1.00313720  0.33324608  0.66942455  1
  Ni  Ni32  1  0.17321034  0.50186314  0.83750736  1
  Fe  Fe33  1  0.17275448  0.83755914  0.50385565  1
  Cr  Cr34  1  0.00439066  0.67193892  0.66888459  1
  Fe  Fe35  1  0.17048508  0.83763152  0.83736094  1
  Ni  Ni36  1  0.50379790  0.16818445  0.50278032  1
  Ni  Ni37  1  0.33602361  1.00304428  0.66955713  1
  Fe  Fe38  1  0.50368423  0.17036913  0.83647862  1
  Cr  Cr39  1  0.50320749  0.50478643  0.50522535  1
  Fe  Fe40  1  0.33545425  0.33609156  0.67114302  1
  Fe  Fe41  1  0.50211546  0.50349896  0.83726433  1
  Ni  Ni42  1  0.50331049  0.83749461  0.50256735  1
  Ni  Ni43  1  0.33784630  0.67171761  0.67184578  1
  Ni  Ni44  1  0.50373129  0.83541093  0.83632508  1
  Ni  Ni45  1  0.83691017  0.17085823  0.50478423  1
  Fe  Fe46  1  0.67037018  1.00318753  0.66968870  1
  Ni  Ni47  1  0.83846965  0.16830312  0.83658973  1
  Fe  Fe48  1  0.83603214  0.50205112  0.50319181  1
  Ni  Ni49  1  0.67060457  0.33505754  0.67010965  1
  Cr  Cr50  1  0.83646473  0.50279457  0.83760822  1
  Fe  Fe51  1  0.83398132  0.83744763  0.50333093  1
  Ni  Ni52  1  0.66814848  0.67102478  0.67086593  1
  Ni  Ni53  1  0.83496453  0.83931405  0.83684359  1
" 