2632,Ni50Fe33Cr15_3,-234.875324600626, 205.835916333289,Ni50Fe33Cr15,"# generated using pymatgen
 data_CrFe2Ni3
_symmetry_space_group_name_H-M   'P 1'
_cell_length_a   7.43198173
_cell_length_b   7.43198173
_cell_length_c   10.51040936
_cell_angle_alpha   90.00000000
_cell_angle_beta   90.00000000
_cell_angle_gamma   90.00000000
_symmetry_Int_Tables_number   1
_chemical_formula_structural   CrFe2Ni3
_chemical_formula_sum   'Cr9 Fe18 Ni27'
_cell_volume   580.53565475
_cell_formula_units_Z   9
loop_
 _symmetry_equiv_pos_site_id
 _symmetry_equiv_pos_as_xyz
  1  'x, y, z'
loop_
 _atom_site_type_symbol
 _atom_site_label
 _atom_site_symmetry_multiplicity
 _atom_site_fract_x
 _atom_site_fract_y
 _atom_site_fract_z
 _atom_site_occupancy
  Ni  Ni0  1  1.00191272  0.00470160  1.00196884  1
  Fe  Fe1  1  0.16911736  0.16951854  0.16856423  1
  Ni  Ni2  1  1.00195311  1.00071486  0.33511781  1
  Fe  Fe3  1  0.00331357  0.33370491  1.00131100  1
  Ni  Ni4  1  0.17286600  0.50305744  0.16933354  1
  Cr  Cr5  1  0.00249698  0.33570575  0.33500688  1
  Cr  Cr6  1  0.00303753  0.66918409  1.00054157  1
  Ni  Ni7  1  0.16999161  0.83585080  0.17068325  1
  Ni  Ni8  1  0.00408555  0.67071366  0.33853133  1
  Cr  Cr9  1  0.33483631  0.00269108  0.00328647  1
  Ni  Ni10  1  0.50318319  0.17074797  0.17037389  1
  Fe  Fe11  1  0.33551545  1.00101702  0.33571423  1
  Ni  Ni12  1  0.33580841  0.33687161  1.00231678  1
  Ni  Ni13  1  0.50032042  0.50147987  0.16848600  1
  Ni  Ni14  1  0.33741054  0.33620907  0.33440524  1
  Fe  Fe15  1  0.33679334  0.66753650  0.00266194  1
  Fe  Fe16  1  0.50163478  0.83431498  0.16962111  1
  Ni  Ni17  1  0.33497041  0.66936756  0.33350019  1
  Fe  Fe18  1  0.66970772  0.00310335  1.00170304  1
  Ni  Ni19  1  0.83488861  0.16787070  0.16785454  1
  Fe  Fe20  1  0.66831850  0.00361184  0.33698407  1
  Fe  Fe21  1  0.66827442  0.33522986  1.00166832  1
  Cr  Cr22  1  0.83409876  0.50087711  0.16913195  1
  Fe  Fe23  1  0.66783241  0.33424383  0.33616004  1
  Ni  Ni24  1  0.66657817  0.66827962  1.00123343  1
  Cr  Cr25  1  0.83673471  0.83792789  0.16984097  1
  Fe  Fe26  1  0.66831515  0.66922230  0.33650520  1
  Cr  Cr27  1  0.17124493  0.16697717  0.50111597  1
  Cr  Cr28  1  0.00242538  1.00057863  0.66987607  1
  Ni  Ni29  1  0.16907269  0.16880047  0.83732494  1
  Fe  Fe30  1  0.16917147  0.50517175  0.50145892  1
  Cr  Cr31  1  1.00169922  0.33803385  0.66952656  1
  Ni  Ni32  1  0.17007865  0.50217697  0.83506635  1
  Ni  Ni33  1  0.16938674  0.83434417  0.50170348  1
  Fe  Fe34  1  1.00169792  0.66903955  0.66887022  1
  Ni  Ni35  1  0.16985396  0.83610158  0.83469195  1
  Ni  Ni36  1  0.50436276  0.16742646  0.50337422  1
  Ni  Ni37  1  0.33834175  1.00146574  0.66891057  1
  Fe  Fe38  1  0.50186301  0.17019371  0.83444557  1
  Cr  Cr39  1  0.50345686  0.50166118  0.50270278  1
  Fe  Fe40  1  0.33816616  0.33493541  0.67090253  1
  Ni  Ni41  1  0.50336554  0.50292145  0.83625993  1
  Ni  Ni42  1  0.50170454  0.83746643  0.50192506  1
  Fe  Fe43  1  0.33602042  0.67083380  0.66971399  1
  Ni  Ni44  1  0.50282227  0.83459102  0.83532665  1
  Ni  Ni45  1  0.83209311  0.16896044  0.50139329  1
  Ni  Ni46  1  0.66626997  1.00201832  0.66913115  1
  Fe  Fe47  1  0.83486076  0.16918230  0.83688223  1
  Ni  Ni48  1  0.83521575  0.50342084  0.50220698  1
  Ni  Ni49  1  0.66829861  0.33577575  0.66929181  1
  Ni  Ni50  1  0.83363636  0.50213835  0.83571815  1
  Fe  Fe51  1  0.83462089  0.83546097  0.50141274  1
  Ni  Ni52  1  0.66929178  0.66928285  0.66955848  1
  Fe  Fe53  1  0.83437529  0.83467954  0.83609607  1
" 