7516,Ni50Fe33Cr15_10,-234.595038281928, 205.157119854623,Ni50Fe33Cr15,"# generated using pymatgen
 data_CrFe2Ni3
_symmetry_space_group_name_H-M   'P 1'
_cell_length_a   7.43190699
_cell_length_b   7.43190699
_cell_length_c   10.51030366
_cell_angle_alpha   90.00000000
_cell_angle_beta   90.00000000
_cell_angle_gamma   90.00000000
_symmetry_Int_Tables_number   1
_chemical_formula_structural   CrFe2Ni3
_chemical_formula_sum   'Cr9 Fe18 Ni27'
_cell_volume   580.51814108
_cell_formula_units_Z   9
loop_
 _symmetry_equiv_pos_site_id
 _symmetry_equiv_pos_as_xyz
  1  'x, y, z'
loop_
 _atom_site_type_symbol
 _atom_site_label
 _atom_site_symmetry_multiplicity
 _atom_site_fract_x
 _atom_site_fract_y
 _atom_site_fract_z
 _atom_site_occupancy
  Cr  Cr0  1  1.00126960  1.00196715  1.00204137  1
  Fe  Fe1  1  0.17050106  0.16866095  0.17009039  1
  Ni  Ni2  1  0.00472119  1.00162683  0.33627984  1
  Ni  Ni3  1  1.00149265  0.33614050  0.00244746  1
  Cr  Cr4  1  0.16779300  0.50173635  0.16938283  1
  Fe  Fe5  1  1.00063249  0.33335645  0.33556245  1
  Ni  Ni6  1  0.99998659  0.66890563  0.00244826  1
  Ni  Ni7  1  0.16999551  0.83667660  0.17172711  1
  Fe  Fe8  1  1.00063575  0.67086239  0.33549276  1
  Fe  Fe9  1  0.33628061  0.00381569  0.00280454  1
  Ni  Ni10  1  0.50231772  0.16903710  0.16829417  1
  Ni  Ni11  1  0.33315304  0.00242037  0.33476076  1
  Ni  Ni12  1  0.33699787  0.33373462  1.00185383  1
  Ni  Ni13  1  0.50453545  0.50151819  0.17057560  1
  Ni  Ni14  1  0.33748068  0.33457166  0.33586309  1
  Cr  Cr15  1  0.33606036  0.66943907  1.00218178  1
  Ni  Ni16  1  0.50189185  0.83653790  0.16884489  1
  Fe  Fe17  1  0.33825357  0.67105375  0.33532307  1
  Ni  Ni18  1  0.66801695  1.00235395  0.00273719  1
  Ni  Ni19  1  0.83471056  0.17104808  0.16946494  1
  Cr  Cr20  1  0.66955720  1.00229736  0.33514407  1
  Fe  Fe21  1  0.66993789  0.33574691  0.00288936  1
  Ni  Ni22  1  0.83457158  0.50158677  0.16911200  1
  Ni  Ni23  1  0.66801809  0.33825884  0.33528223  1
  Fe  Fe24  1  0.67110859  0.66846943  0.00310860  1
  Fe  Fe25  1  0.83496202  0.83413471  0.16907279  1
  Ni  Ni26  1  0.66880930  0.66697819  0.33555906  1
  Ni  Ni27  1  0.16801150  0.16879768  0.50058745  1
  Fe  Fe28  1  1.00052647  0.00287296  0.66908806  1
  Ni  Ni29  1  0.16872632  0.16902316  0.83681138  1
  Cr  Cr30  1  0.16787433  0.50113557  0.50110955  1
  Ni  Ni31  1  0.99876006  0.33503303  0.66930292  1
  Cr  Cr32  1  0.16616278  0.50112490  0.83659872  1
  Fe  Fe33  1  0.16747622  0.83765606  0.50073689  1
  Ni  Ni34  1  0.99964445  0.67043529  0.66972233  1
  Ni  Ni35  1  0.16793194  0.83678125  0.83405727  1
  Fe  Fe36  1  0.50296213  0.16917010  0.50113124  1
  Cr  Cr37  1  0.33548675  1.00191845  0.66993592  1
  Fe  Fe38  1  0.50442178  0.16866554  0.83744708  1
  Fe  Fe39  1  0.50535385  0.50235775  0.50010728  1
  Cr  Cr40  1  0.33669122  0.33482654  0.66967451  1
  Fe  Fe41  1  0.50594846  0.50117736  0.83669010  1
  Ni  Ni42  1  0.50414275  0.83532018  0.50194756  1
  Cr  Cr43  1  0.33562538  0.67034884  0.66881387  1
  Fe  Fe44  1  0.50510696  0.83724795  0.83626115  1
  Fe  Fe45  1  0.83630315  0.16911900  0.50334499  1
  Ni  Ni46  1  0.67106453  0.00258334  0.66874435  1
  Ni  Ni47  1  0.83472224  0.16984966  0.83347069  1
  Fe  Fe48  1  0.83420373  0.50270797  0.50266847  1
  Ni  Ni49  1  0.67135921  0.33508811  0.66919193  1
  Ni  Ni50  1  0.83499338  0.50231320  0.83505788  1
  Ni  Ni51  1  0.83471266  0.83527329  0.50343509  1
  Fe  Fe52  1  0.67127421  0.66897393  0.66841749  1
  Ni  Ni53  1  0.83448768  0.83492871  0.83496666  1
" 