5853,Ni50Fe44Cr5_1,-238.217205606055, 215.876112933028,Ni50Fe44Cr5,"# generated using pymatgen
 data_Cr4Fe23Ni27
_symmetry_space_group_name_H-M   'P 1'
_cell_length_a   7.41121591
_cell_length_b   7.41121591
_cell_length_c   10.48104205
_cell_angle_alpha   90.00000000
_cell_angle_beta   90.00000000
_cell_angle_gamma   90.00000000
_symmetry_Int_Tables_number   1
_chemical_formula_structural   Cr4Fe23Ni27
_chemical_formula_sum   'Cr4 Fe23 Ni27'
_cell_volume   575.68298579
_cell_formula_units_Z   1
loop_
 _symmetry_equiv_pos_site_id
 _symmetry_equiv_pos_as_xyz
  1  'x, y, z'
loop_
 _atom_site_type_symbol
 _atom_site_label
 _atom_site_symmetry_multiplicity
 _atom_site_fract_x
 _atom_site_fract_y
 _atom_site_fract_z
 _atom_site_occupancy
  Fe  Fe0  1  0.00543904  0.00692597  0.00440589  1
  Ni  Ni1  1  0.17270023  0.17173570  0.17075587  1
  Fe  Fe2  1  0.00413784  0.00382216  0.33663917  1
  Ni  Ni3  1  1.00213725  0.33807995  1.00190089  1
  Ni  Ni4  1  0.17046834  0.50088212  0.17068310  1
  Ni  Ni5  1  1.00263558  0.33624706  0.33909002  1
  Fe  Fe6  1  1.00352151  0.66878730  0.00590471  1
  Fe  Fe7  1  0.16937754  0.83575784  0.16974509  1
  Ni  Ni8  1  0.00578076  0.66913117  0.33569080  1
  Ni  Ni9  1  0.33838167  1.00140768  1.00231237  1
  Fe  Fe10  1  0.50444298  0.17169544  0.16931935  1
  Fe  Fe11  1  0.33583953  0.00417876  0.33456891  1
  Fe  Fe12  1  0.33745686  0.33554526  1.00338271  1
  Fe  Fe13  1  0.50311183  0.50369029  0.17067918  1
  Fe  Fe14  1  0.33615803  0.34056851  0.33701907  1
  Ni  Ni15  1  0.33529189  0.67119845  1.00335544  1
  Fe  Fe16  1  0.50232066  0.83576243  0.16901874  1
  Ni  Ni17  1  0.33645656  0.67275191  0.33729297  1
  Ni  Ni18  1  0.66893795  0.00651331  0.00454782  1
  Fe  Fe19  1  0.84021042  0.17275997  0.16927787  1
  Fe  Fe20  1  0.67075088  1.00277514  0.33458105  1
  Ni  Ni21  1  0.67281926  0.33593875  1.00335733  1
  Ni  Ni22  1  0.83747481  0.50630484  0.17163557  1
  Ni  Ni23  1  0.67223161  0.33561775  0.33523934  1
  Fe  Fe24  1  0.66721538  0.66894694  0.00547241  1
  Ni  Ni25  1  0.83584138  0.83656812  0.16974573  1
  Ni  Ni26  1  0.66840382  0.66909225  0.33671879  1
  Ni  Ni27  1  0.16995550  0.17096266  0.50410677  1
  Ni  Ni28  1  0.00433576  0.00469477  0.67093154  1
  Ni  Ni29  1  0.17164266  0.17095835  0.83674744  1
  Fe  Fe30  1  0.17326755  0.50240533  0.50179603  1
  Fe  Fe31  1  0.00510236  0.33501321  0.67114648  1
  Fe  Fe32  1  0.17249413  0.50240218  0.83983744  1
  Fe  Fe33  1  0.17340477  0.83887827  0.50298618  1
  Cr  Cr34  1  0.00868115  0.66778612  0.67101689  1
  Fe  Fe35  1  0.17276282  0.83828893  0.83768430  1
  Cr  Cr36  1  0.49998339  0.17264651  0.50391308  1
  Fe  Fe37  1  0.33580154  0.00495629  0.67240347  1
  Ni  Ni38  1  0.50228063  0.17078428  0.83761743  1
  Ni  Ni39  1  0.50391728  0.50442413  0.50292228  1
  Ni  Ni40  1  0.33757563  0.34047800  0.67247024  1
  Ni  Ni41  1  0.50394691  0.50392809  0.83828885  1
  Fe  Fe42  1  0.50097878  0.83698480  0.50458972  1
  Ni  Ni43  1  0.33787464  0.67013124  0.66996279  1
  Ni  Ni44  1  0.50408427  0.83629078  0.83483694  1
  Fe  Fe45  1  0.83697561  0.17208342  0.50532408  1
  Ni  Ni46  1  0.66994737  0.00690439  0.67128587  1
  Ni  Ni47  1  0.83820579  0.17051896  0.83636472  1
  Fe  Fe48  1  0.83569507  0.50000585  0.50234193  1
  Ni  Ni49  1  0.67073637  0.33607360  0.67215151  1
  Ni  Ni50  1  0.83547791  0.50355731  0.83680730  1
  Cr  Cr51  1  0.83574334  0.83482770  0.50343615  1
  Fe  Fe52  1  0.66780034  0.66827134  0.66985053  1
  Cr  Cr53  1  0.83518680  0.83646040  0.84024183  1
" 