126,Ni50Fe25Cr24_15,-231.233347059797, 189.887348114777,Ni50Fe25Cr24,"# generated using pymatgen
 data_Cr14Fe13Ni27
_symmetry_space_group_name_H-M   'P 1'
_cell_length_a   7.44370181
_cell_length_b   7.44370181
_cell_length_c   10.52698406
_cell_angle_alpha   90.00000000
_cell_angle_beta   90.00000000
_cell_angle_gamma   90.00000000
_symmetry_Int_Tables_number   1
_chemical_formula_structural   Cr14Fe13Ni27
_chemical_formula_sum   'Cr14 Fe13 Ni27'
_cell_volume   583.28646632
_cell_formula_units_Z   1
loop_
 _symmetry_equiv_pos_site_id
 _symmetry_equiv_pos_as_xyz
  1  'x, y, z'
loop_
 _atom_site_type_symbol
 _atom_site_label
 _atom_site_symmetry_multiplicity
 _atom_site_fract_x
 _atom_site_fract_y
 _atom_site_fract_z
 _atom_site_occupancy
  Ni  Ni0  1  0.00216129  0.99991941  1.00109214  1
  Fe  Fe1  1  0.16812347  0.16557319  0.16740880  1
  Ni  Ni2  1  0.00365797  1.00125588  0.33652615  1
  Fe  Fe3  1  1.00105890  0.33582955  0.99914617  1
  Cr  Cr4  1  0.16656332  0.50112206  0.16749875  1
  Fe  Fe5  1  0.99896822  0.33207860  0.33570902  1
  Ni  Ni6  1  0.99903621  0.67032039  1.00064741  1
  Ni  Ni7  1  0.16743394  0.83824660  0.16896894  1
  Cr  Cr8  1  1.00034583  0.67145719  0.33416673  1
  Fe  Fe9  1  0.33356337  0.00313569  1.00037375  1
  Fe  Fe10  1  0.50090408  0.16869796  0.16671700  1
  Fe  Fe11  1  0.33302014  1.00029752  0.33644729  1
  Ni  Ni12  1  0.33608280  0.33206747  0.99960742  1
  Cr  Cr13  1  0.50473475  0.50133390  0.16929902  1
  Cr  Cr14  1  0.33524626  0.33248690  0.33484737  1
  Cr  Cr15  1  0.33329883  0.66732007  0.99948307  1
  Cr  Cr16  1  0.50145201  0.83510063  0.16814209  1
  Fe  Fe17  1  0.33587308  0.67210178  0.33579390  1
  Fe  Fe18  1  0.66931234  1.00119756  1.00009138  1
  Cr  Cr19  1  0.83595456  0.16921078  0.16764221  1
  Cr  Cr20  1  0.66964148  1.00133717  0.33684709  1
  Ni  Ni21  1  0.66664430  0.33521112  1.00045927  1
  Ni  Ni22  1  0.83324159  0.50134144  0.16777819  1
  Ni  Ni23  1  0.66791656  0.33526976  0.33542869  1
  Ni  Ni24  1  0.67159019  0.66751171  1.00093286  1
  Ni  Ni25  1  0.83618756  0.83420197  0.16683550  1
  Ni  Ni26  1  0.66860945  0.66792172  0.33454016  1
  Ni  Ni27  1  0.16671741  0.16501962  0.50165315  1
  Ni  Ni28  1  0.00322481  0.00213424  0.66706791  1
  Ni  Ni29  1  0.16813982  0.16794164  0.83525166  1
  Cr  Cr30  1  0.16794337  0.50111588  0.50321008  1
  Ni  Ni31  1  0.00233968  0.33320232  0.66917334  1
  Ni  Ni32  1  0.16807081  0.50003412  0.83449873  1
  Ni  Ni33  1  0.16931372  0.83915537  0.50125489  1
  Ni  Ni34  1  0.00205808  0.66934531  0.67009790  1
  Ni  Ni35  1  0.16701179  0.83670361  0.83445702  1
  Fe  Fe36  1  0.50093011  0.16657481  0.50208744  1
  Ni  Ni37  1  0.33304175  0.00357769  0.66742478  1
  Fe  Fe38  1  0.50070919  0.16957866  0.83587164  1
  Cr  Cr39  1  0.50258419  0.50235647  0.50030347  1
  Fe  Fe40  1  0.33328066  0.33203106  0.67027702  1
  Ni  Ni41  1  0.50220855  0.49946944  0.83576255  1
  Ni  Ni42  1  0.49973040  0.83590614  0.49971297  1
  Cr  Cr43  1  0.33286691  0.66904420  0.66925143  1
  Fe  Fe44  1  0.50158061  0.83562856  0.83569879  1
  Ni  Ni45  1  0.83684311  0.16778555  0.50161411  1
  Cr  Cr46  1  0.66920866  0.00259032  0.66793759  1
  Ni  Ni47  1  0.83576253  0.16878583  0.83502044  1
  Cr  Cr48  1  0.83416650  0.49936840  0.50120215  1
  Fe  Fe49  1  0.66957607  0.33334721  0.66990642  1
  Ni  Ni50  1  0.83441697  0.50060078  0.83610314  1
  Ni  Ni51  1  0.83568196  0.83771589  0.50112426  1
  Cr  Cr52  1  0.67028466  0.66879460  0.66950090  1
  Ni  Ni53  1  0.83636572  0.83532479  0.83678635  1
" 