1906,Ni50Fe43Cr5_14,-238.889678556292, 221.3887878669,Ni50Fe43Cr5,"# generated using pymatgen
 data_Cr4Fe23Ni27
_symmetry_space_group_name_H-M   'P 1'
_cell_length_a   7.41272214
_cell_length_b   7.41272214
_cell_length_c   10.48317219
_cell_angle_alpha   90.00000000
_cell_angle_beta   90.00000000
_cell_angle_gamma   90.00000000
_symmetry_Int_Tables_number   1
_chemical_formula_structural   Cr4Fe23Ni27
_chemical_formula_sum   'Cr4 Fe23 Ni27'
_cell_volume   576.03405817
_cell_formula_units_Z   1
loop_
 _symmetry_equiv_pos_site_id
 _symmetry_equiv_pos_as_xyz
  1  'x, y, z'
loop_
 _atom_site_type_symbol
 _atom_site_label
 _atom_site_symmetry_multiplicity
 _atom_site_fract_x
 _atom_site_fract_y
 _atom_site_fract_z
 _atom_site_occupancy
  Fe  Fe0  1  0.00396467  0.00478757  1.00313592  1
  Ni  Ni1  1  0.17254267  0.17188295  0.16964298  1
  Cr  Cr2  1  0.00375769  1.00351987  0.33620464  1
  Fe  Fe3  1  0.00422358  0.33636640  0.00424632  1
  Ni  Ni4  1  0.17068376  0.50236423  0.17147692  1
  Ni  Ni5  1  0.00418574  0.33812273  0.33697342  1
  Cr  Cr6  1  1.00279889  0.67079056  1.00306108  1
  Fe  Fe7  1  0.17175470  0.83671619  0.17096297  1
  Ni  Ni8  1  1.00277651  0.66916350  0.33798410  1
  Fe  Fe9  1  0.33714769  0.00395428  0.00424226  1
  Ni  Ni10  1  0.50210851  0.16973069  0.17146192  1
  Ni  Ni11  1  0.33735188  0.00538959  0.33653763  1
  Ni  Ni12  1  0.33704366  0.33647478  1.00355539  1
  Fe  Fe13  1  0.50360323  0.50377216  0.16932023  1
  Fe  Fe14  1  0.33643639  0.33628295  0.33646772  1
  Ni  Ni15  1  0.33900696  0.66935622  0.00393178  1
  Fe  Fe16  1  0.50385577  0.83682379  0.17080004  1
  Fe  Fe17  1  0.33555127  0.67026178  0.33634787  1
  Fe  Fe18  1  0.66987843  1.00320236  0.00396569  1
  Fe  Fe19  1  0.83673278  0.17159707  0.17004912  1
  Ni  Ni20  1  0.66977855  0.00398122  0.33683875  1
  Fe  Fe21  1  0.66949573  0.33807408  1.00265440  1
  Ni  Ni22  1  0.83681311  0.50484207  0.17170942  1
  Fe  Fe23  1  0.67113156  0.33653667  0.33732176  1
  Ni  Ni24  1  0.66900862  0.67045076  1.00334050  1
  Ni  Ni25  1  0.83465818  0.83536078  0.17138856  1
  Ni  Ni26  1  0.67191945  0.66994492  0.33567487  1
  Ni  Ni27  1  0.17196463  0.17212062  0.50334444  1
  Cr  Cr28  1  1.00321809  1.00362306  0.66946098  1
  Ni  Ni29  1  0.17200182  0.17133748  0.83799917  1
  Fe  Fe30  1  0.16956751  0.50390970  0.50315076  1
  Fe  Fe31  1  1.00345152  0.33867797  0.67003641  1
  Fe  Fe32  1  0.17152489  0.50202491  0.83674512  1
  Ni  Ni33  1  0.17045769  0.83559512  0.50296895  1
  Fe  Fe34  1  1.00329841  0.66854406  0.66995344  1
  Fe  Fe35  1  0.17184842  0.83706520  0.83645278  1
  Fe  Fe36  1  0.50366414  0.17074419  0.50354078  1
  Fe  Fe37  1  0.33805954  0.00484722  0.67047258  1
  Ni  Ni38  1  0.50241541  0.17078968  0.83548721  1
  Fe  Fe39  1  0.50381968  0.50251678  0.50507857  1
  Ni  Ni40  1  0.33789100  0.33705502  0.67013174  1
  Ni  Ni41  1  0.50378391  0.50414661  0.83758494  1
  Cr  Cr42  1  0.50437302  0.83710742  0.50398357  1
  Ni  Ni43  1  0.33684647  0.66866964  0.67175153  1
  Fe  Fe44  1  0.50454604  0.83652756  0.83687218  1
  Ni  Ni45  1  0.83607198  0.17181892  0.50307324  1
  Fe  Fe46  1  0.66941864  0.00469595  0.67081653  1
  Ni  Ni47  1  0.83657527  0.17101655  0.83878382  1
  Fe  Fe48  1  0.83760731  0.50400183  0.50332567  1
  Ni  Ni49  1  0.66928653  0.33737190  0.67042305  1
  Ni  Ni50  1  0.83546041  0.50417628  0.83556097  1
  Ni  Ni51  1  0.83665099  0.83496698  0.50355568  1
  Ni  Ni52  1  0.67094935  0.66897080  0.67197934  1
  Ni  Ni53  1  0.83491167  0.83580273  0.83604464  1
" 