6185,Ni50Fe27Cr21_10,-231.597773935704, 192.912710924945,Ni50Fe27Cr21,"# generated using pymatgen
 data_Cr13Fe14Ni27
_symmetry_space_group_name_H-M   'P 1'
_cell_length_a   7.44824624
_cell_length_b   7.44824624
_cell_length_c   10.53341084
_cell_angle_alpha   90.00000000
_cell_angle_beta   90.00000000
_cell_angle_gamma   90.00000000
_symmetry_Int_Tables_number   1
_chemical_formula_structural   Cr13Fe14Ni27
_chemical_formula_sum   'Cr13 Fe14 Ni27'
_cell_volume   584.35541810
_cell_formula_units_Z   1
loop_
 _symmetry_equiv_pos_site_id
 _symmetry_equiv_pos_as_xyz
  1  'x, y, z'
loop_
 _atom_site_type_symbol
 _atom_site_label
 _atom_site_symmetry_multiplicity
 _atom_site_fract_x
 _atom_site_fract_y
 _atom_site_fract_z
 _atom_site_occupancy
  Ni  Ni0  1  1.00092288  1.00082355  0.00236799  1
  Ni  Ni1  1  0.16764203  0.16752110  0.16918694  1
  Fe  Fe2  1  1.00102794  0.99870892  0.33347083  1
  Cr  Cr3  1  0.00196517  0.33337951  1.00101754  1
  Fe  Fe4  1  0.16952471  0.50245609  0.16780600  1
  Cr  Cr5  1  0.99905523  0.33629618  0.33357078  1
  Fe  Fe6  1  0.00198278  0.66835152  0.00263866  1
  Fe  Fe7  1  0.16702375  0.83365095  0.16929199  1
  Ni  Ni8  1  0.00301227  0.66911150  0.33480653  1
  Cr  Cr9  1  0.33224865  1.00024541  1.00063707  1
  Cr  Cr10  1  0.49977272  0.16830123  0.16917788  1
  Fe  Fe11  1  0.33457868  0.99778977  0.33401093  1
  Ni  Ni12  1  0.33235429  0.33656078  1.00040924  1
  Ni  Ni13  1  0.49997693  0.50285510  0.16864258  1
  Ni  Ni14  1  0.33440016  0.33825718  0.33363895  1
  Ni  Ni15  1  0.33363531  0.66729553  0.00268069  1
  Ni  Ni16  1  0.50232653  0.83312881  0.16787082  1
  Ni  Ni17  1  0.33326508  0.66910748  0.33494296  1
  Ni  Ni18  1  0.67043898  0.99993093  1.00121715  1
  Ni  Ni19  1  0.83614127  0.16509250  0.16917477  1
  Ni  Ni20  1  0.66967698  1.00048900  0.33489958  1
  Cr  Cr21  1  0.66926728  0.33491095  0.00243312  1
  Ni  Ni22  1  0.83481692  0.50418678  0.16736209  1
  Ni  Ni23  1  0.66906146  0.33449433  0.33407727  1
  Ni  Ni24  1  0.66778638  0.66878623  0.00377092  1
  Ni  Ni25  1  0.83524731  0.83429682  0.16796211  1
  Cr  Cr26  1  0.66748308  0.66786394  0.33479520  1
  Cr  Cr27  1  0.16772066  0.16880937  0.50016561  1
  Ni  Ni28  1  1.00003718  0.00161718  0.66756441  1
  Ni  Ni29  1  0.16736753  0.16946224  0.83347957  1
  Fe  Fe30  1  0.16893125  0.50346113  0.50210368  1
  Ni  Ni31  1  1.00065820  0.33433559  0.66860443  1
  Ni  Ni32  1  0.16630554  0.50063804  0.83310306  1
  Ni  Ni33  1  0.16701606  0.83330645  0.50077128  1
  Fe  Fe34  1  0.00326637  0.66631808  0.66624915  1
  Fe  Fe35  1  0.16627662  0.83192272  0.83403819  1
  Cr  Cr36  1  0.49991491  0.16841628  0.49889235  1
  Cr  Cr37  1  0.33308476  0.99890621  0.66992150  1
  Ni  Ni38  1  0.49916065  0.16813668  0.83496643  1
  Fe  Fe39  1  0.49878243  0.50243851  0.50057140  1
  Ni  Ni40  1  0.33250330  0.33713588  0.66922137  1
  Cr  Cr41  1  0.50031580  0.50197206  0.83509015  1
  Ni  Ni42  1  0.50124962  0.83361382  0.50152299  1
  Ni  Ni43  1  0.33371195  0.66765950  0.66611445  1
  Cr  Cr44  1  0.50355355  0.83398706  0.83537087  1
  Fe  Fe45  1  0.83484702  0.16604530  0.50059726  1
  Fe  Fe46  1  0.66864292  0.00140105  0.66691860  1
  Fe  Fe47  1  0.83576472  0.16714296  0.83456012  1
  Ni  Ni48  1  0.83621841  0.50303099  0.50208703  1
  Cr  Cr49  1  0.66995922  0.33489863  0.66807338  1
  Ni  Ni50  1  0.83798981  0.50381869  0.83457416  1
  Fe  Fe51  1  0.83594922  0.83566931  0.50120144  1
  Fe  Fe52  1  0.66853433  0.66788693  0.66600755  1
  Cr  Cr53  1  0.83575841  0.83223252  0.83452423  1
" 