8486,Ni50Fe27Cr21_19,-231.327811297097, 181.688027908483,Ni50Fe27Cr21,"# generated using pymatgen
 data_Cr13Fe14Ni27
_symmetry_space_group_name_H-M   'P 1'
_cell_length_a   7.45402049
_cell_length_b   7.45402049
_cell_length_c   10.54157687
_cell_angle_alpha   90.00000000
_cell_angle_beta   90.00000000
_cell_angle_gamma   90.00000000
_symmetry_Int_Tables_number   1
_chemical_formula_structural   Cr13Fe14Ni27
_chemical_formula_sum   'Cr13 Fe14 Ni27'
_cell_volume   585.71553630
_cell_formula_units_Z   1
loop_
 _symmetry_equiv_pos_site_id
 _symmetry_equiv_pos_as_xyz
  1  'x, y, z'
loop_
 _atom_site_type_symbol
 _atom_site_label
 _atom_site_symmetry_multiplicity
 _atom_site_fract_x
 _atom_site_fract_y
 _atom_site_fract_z
 _atom_site_occupancy
  Ni  Ni0  1  1.00077997  0.99922526  0.00211251  1
  Fe  Fe1  1  0.16718699  0.16892489  0.16842507  1
  Fe  Fe2  1  0.00184880  1.00005213  0.33145923  1
  Fe  Fe3  1  0.00133294  0.33371935  0.99997723  1
  Fe  Fe4  1  0.16612856  0.50005722  0.16721016  1
  Fe  Fe5  1  1.00023466  0.33576781  0.33226464  1
  Ni  Ni6  1  1.00070576  0.66748342  0.00117496  1
  Fe  Fe7  1  0.16499683  0.83375865  0.16799938  1
  Ni  Ni8  1  0.99863208  0.66810884  0.33278725  1
  Cr  Cr9  1  0.33216363  0.00261265  0.99946399  1
  Cr  Cr10  1  0.50299368  0.16941725  0.16774680  1
  Ni  Ni11  1  0.33365593  1.00033413  0.33422724  1
  Ni  Ni12  1  0.33467939  0.33507044  0.99929481  1
  Cr  Cr13  1  0.50005513  0.50131027  0.16722507  1
  Ni  Ni14  1  0.33584860  0.33427958  0.33414227  1
  Fe  Fe15  1  0.33046998  0.66507461  0.99949751  1
  Cr  Cr16  1  0.49995860  0.83157143  0.16539344  1
  Ni  Ni17  1  0.33190843  0.66784120  0.33320647  1
  Fe  Fe18  1  0.67071436  0.00373596  1.00050922  1
  Ni  Ni19  1  0.83776544  0.16877053  0.16632593  1
  Cr  Cr20  1  0.66790203  1.00006207  0.33468403  1
  Ni  Ni21  1  0.66820046  0.33474812  0.99896962  1
  Fe  Fe22  1  0.83429042  0.49965654  0.16734629  1
  Ni  Ni23  1  0.66826786  0.33541228  0.33544178  1
  Fe  Fe24  1  0.66995688  0.66498495  0.99920842  1
  Fe  Fe25  1  0.83575307  0.83360305  0.16633348  1
  Fe  Fe26  1  0.66658651  0.66658497  0.33625273  1
  Cr  Cr27  1  0.16759364  0.16632267  0.49955958  1
  Ni  Ni28  1  0.00091144  0.99866493  0.66911785  1
  Fe  Fe29  1  0.16654397  0.16670250  0.83455385  1
  Cr  Cr30  1  0.16722442  0.50261241  0.50023507  1
  Cr  Cr31  1  0.99859001  0.33727670  0.67173544  1
  Ni  Ni32  1  0.16722516  0.50397853  0.83649025  1
  Cr  Cr33  1  0.16783697  0.83379610  0.50273178  1
  Ni  Ni34  1  0.99932278  0.66781825  0.66861307  1
  Ni  Ni35  1  0.16653080  0.83264266  0.83376672  1
  Ni  Ni36  1  0.50172376  0.16712155  0.50026308  1
  Ni  Ni37  1  0.33576990  1.00042652  0.66803147  1
  Ni  Ni38  1  0.50417923  0.16859500  0.83435285  1
  Ni  Ni39  1  0.50242320  0.50229296  0.49961110  1
  Cr  Cr40  1  0.33822167  0.33452432  0.66885173  1
  Ni  Ni41  1  0.50143962  0.50027317  0.83507789  1
  Ni  Ni42  1  0.49988614  0.83306306  0.50135224  1
  Ni  Ni43  1  0.33483374  0.66787693  0.66964272  1
  Cr  Cr44  1  0.50038709  0.83292417  0.83433473  1
  Cr  Cr45  1  0.83451088  0.16872399  0.50291206  1
  Ni  Ni46  1  0.66605368  0.00204490  0.66776800  1
  Ni  Ni47  1  0.83354852  0.16788922  0.83553587  1
  Ni  Ni48  1  0.83252743  0.50199311  0.49944492  1
  Ni  Ni49  1  0.66657715  0.33546873  0.66815198  1
  Ni  Ni50  1  0.83378403  0.49990070  0.83543469  1
  Fe  Fe51  1  0.83308563  0.83201132  0.50262622  1
  Ni  Ni52  1  0.66815499  0.66491639  0.66545677  1
  Cr  Cr53  1  0.83528407  0.83515852  0.83285547  1
" 