5906,Ni50Fe44Cr5_10,-238.787677661281, 213.129543752725,Ni50Fe44Cr5,"# generated using pymatgen
 data_Cr4Fe23Ni27
_symmetry_space_group_name_H-M   'P 1'
_cell_length_a   7.41685530
_cell_length_b   7.41685530
_cell_length_c   10.48901735
_cell_angle_alpha   90.00000000
_cell_angle_beta   90.00000000
_cell_angle_gamma   90.00000000
_symmetry_Int_Tables_number   1
_chemical_formula_structural   Cr4Fe23Ni27
_chemical_formula_sum   'Cr4 Fe23 Ni27'
_cell_volume   576.99814345
_cell_formula_units_Z   1
loop_
 _symmetry_equiv_pos_site_id
 _symmetry_equiv_pos_as_xyz
  1  'x, y, z'
loop_
 _atom_site_type_symbol
 _atom_site_label
 _atom_site_symmetry_multiplicity
 _atom_site_fract_x
 _atom_site_fract_y
 _atom_site_fract_z
 _atom_site_occupancy
  Fe  Fe0  1  0.00346477  1.00294023  1.00263399  1
  Cr  Cr1  1  0.17122276  0.17190153  0.16921033  1
  Cr  Cr2  1  1.00157007  1.00292116  0.33622287  1
  Ni  Ni3  1  1.00215610  0.33803647  0.00347536  1
  Ni  Ni4  1  0.16987185  0.50517148  0.16870242  1
  Fe  Fe5  1  1.00328606  0.33893005  0.33795580  1
  Ni  Ni6  1  0.00398919  0.67113688  0.00342247  1
  Ni  Ni7  1  0.17130103  0.83431037  0.16975809  1
  Ni  Ni8  1  0.00541950  0.66798465  0.33596416  1
  Fe  Fe9  1  0.33691321  1.00243233  1.00273388  1
  Ni  Ni10  1  0.50537966  0.16924968  0.17011907  1
  Fe  Fe11  1  0.33785423  1.00167701  0.33710245  1
  Ni  Ni12  1  0.33748174  0.33698929  1.00142484  1
  Cr  Cr13  1  0.50214899  0.50308176  0.16816775  1
  Ni  Ni14  1  0.33745223  0.33744773  0.33768319  1
  Ni  Ni15  1  0.33511375  0.67113631  1.00192156  1
  Ni  Ni16  1  0.50294864  0.83657320  0.16985571  1
  Ni  Ni17  1  0.33502731  0.66920893  0.33791132  1
  Fe  Fe18  1  0.66982132  1.00292819  0.00479207  1
  Ni  Ni19  1  0.83492248  0.17097620  0.16854643  1
  Ni  Ni20  1  0.66853489  0.00547582  0.33584540  1
  Ni  Ni21  1  0.67044551  0.33327302  1.00261970  1
  Fe  Fe22  1  0.83832941  0.50312375  0.16813916  1
  Fe  Fe23  1  0.67111259  0.33642014  0.33698400  1
  Fe  Fe24  1  0.67040015  0.66807001  1.00096835  1
  Fe  Fe25  1  0.83544257  0.83555147  0.16971953  1
  Fe  Fe26  1  0.66906738  0.67042399  0.33797780  1
  Ni  Ni27  1  0.16985722  0.17037492  0.50447733  1
  Fe  Fe28  1  0.00615237  0.00375257  0.67052566  1
  Fe  Fe29  1  0.16971794  0.17258725  0.83624870  1
  Ni  Ni30  1  0.17242558  0.50358808  0.50469744  1
  Ni  Ni31  1  0.00408667  0.33632713  0.66929237  1
  Fe  Fe32  1  0.16920204  0.50426690  0.83674921  1
  Ni  Ni33  1  0.17143695  0.83586792  0.50401783  1
  Ni  Ni34  1  0.00469957  0.66888315  0.67079590  1
  Ni  Ni35  1  0.16924200  0.83778389  0.83604590  1
  Fe  Fe36  1  0.50183267  0.17074157  0.50256143  1
  Fe  Fe37  1  0.33523102  1.00237704  0.67039893  1
  Fe  Fe38  1  0.50289095  0.17071152  0.83764367  1
  Ni  Ni39  1  0.50380227  0.50328672  0.50464741  1
  Ni  Ni40  1  0.33698261  0.33667890  0.67114475  1
  Ni  Ni41  1  0.50407519  0.50309658  0.83704183  1
  Fe  Fe42  1  0.50157063  0.83661794  0.50270367  1
  Ni  Ni43  1  0.33716612  0.66941048  0.67014479  1
  Fe  Fe44  1  0.50317512  0.83460635  0.83713914  1
  Ni  Ni45  1  0.83544498  0.17157316  0.50541695  1
  Fe  Fe46  1  0.66861827  0.00493831  0.67020534  1
  Fe  Fe47  1  0.83749690  0.17102790  0.83673245  1
  Fe  Fe48  1  0.83898797  0.50252308  0.50526069  1
  Fe  Fe49  1  0.66956660  0.33992617  0.67099296  1
  Ni  Ni50  1  0.83545165  0.50259579  0.83589440  1
  Cr  Cr51  1  0.83760675  0.83612702  0.50577721  1
  Ni  Ni52  1  0.66837849  0.67130400  0.67054506  1
  Fe  Fe53  1  0.83694201  0.83437195  0.83575919  1
" 