4850,Ni50Fe25Cr24_12,-230.929503795566, 183.834524864537,Ni50Fe25Cr24,"# generated using pymatgen
 data_Cr14Fe13Ni27
_symmetry_space_group_name_H-M   'P 1'
_cell_length_a   7.45611419
_cell_length_b   7.45611419
_cell_length_c   10.54453781
_cell_angle_alpha   90.00000000
_cell_angle_beta   90.00000000
_cell_angle_gamma   90.00000000
_symmetry_Int_Tables_number   1
_chemical_formula_structural   Cr14Fe13Ni27
_chemical_formula_sum   'Cr14 Fe13 Ni27'
_cell_volume   586.20922645
_cell_formula_units_Z   1
loop_
 _symmetry_equiv_pos_site_id
 _symmetry_equiv_pos_as_xyz
  1  'x, y, z'
loop_
 _atom_site_type_symbol
 _atom_site_label
 _atom_site_symmetry_multiplicity
 _atom_site_fract_x
 _atom_site_fract_y
 _atom_site_fract_z
 _atom_site_occupancy
  Ni  Ni0  1  0.00076865  0.99971880  0.99799550  1
  Cr  Cr1  1  0.16709868  0.16544833  0.16625644  1
  Cr  Cr2  1  0.99987384  0.00201746  0.33342471  1
  Ni  Ni3  1  0.99745013  0.33462078  0.99966581  1
  Cr  Cr4  1  0.16615549  0.50289242  0.16635041  1
  Ni  Ni5  1  0.99998606  0.33756315  0.33533904  1
  Fe  Fe6  1  0.99926477  0.66864634  0.99992574  1
  Ni  Ni7  1  0.16763192  0.83367236  0.16524696  1
  Fe  Fe8  1  1.00043790  0.66660650  0.33323477  1
  Ni  Ni9  1  0.33383546  0.99711187  1.00008232  1
  Ni  Ni10  1  0.50188316  0.16590415  0.16718723  1
  Ni  Ni11  1  0.33575278  0.99730688  0.33295410  1
  Cr  Cr12  1  0.33608148  0.33417533  0.99848179  1
  Ni  Ni13  1  0.50210455  0.50237496  0.16422245  1
  Cr  Cr14  1  0.33194860  0.33434355  0.33495033  1
  Ni  Ni15  1  0.33565589  0.66968106  0.99978368  1
  Ni  Ni16  1  0.49903507  0.83406818  0.16779925  1
  Fe  Fe17  1  0.33394083  0.66851293  0.33243038  1
  Cr  Cr18  1  0.66694267  1.00010305  0.00182566  1
  Ni  Ni19  1  0.83430610  0.16763348  0.16571445  1
  Ni  Ni20  1  0.66532803  0.99809647  0.33236570  1
  Ni  Ni21  1  0.66950076  0.33666355  1.00036714  1
  Ni  Ni22  1  0.83481310  0.50112779  0.16566209  1
  Cr  Cr23  1  0.67081909  0.33461614  0.33094224  1
  Fe  Fe24  1  0.66743905  0.66726580  1.00037442  1
  Ni  Ni25  1  0.83543929  0.83344151  0.16640453  1
  Cr  Cr26  1  0.66798034  0.66815155  0.33224039  1
  Ni  Ni27  1  0.16688786  0.16897590  0.50151623  1
  Fe  Fe28  1  1.00054055  0.00248497  0.67047391  1
  Ni  Ni29  1  0.16554293  0.16747898  0.83418823  1
  Ni  Ni30  1  0.16539360  0.50080203  0.50239084  1
  Ni  Ni31  1  0.00171551  0.33692557  0.66766935  1
  Fe  Fe32  1  0.16694075  0.50128028  0.83354461  1
  Cr  Cr33  1  0.16824363  0.83319300  0.50003162  1
  Fe  Fe34  1  1.00024131  0.66638277  0.66892830  1
  Fe  Fe35  1  0.16788709  0.83290152  0.83628433  1
  Cr  Cr36  1  0.50099907  0.16513082  0.50043920  1
  Cr  Cr37  1  0.33405875  0.99952630  0.66924147  1
  Ni  Ni38  1  0.50000668  0.16750141  0.83417217  1
  Cr  Cr39  1  0.50116198  0.50276592  0.50356471  1
  Fe  Fe40  1  0.33196170  0.33420982  0.66950693  1
  Ni  Ni41  1  0.50228967  0.50170895  0.83394349  1
  Ni  Ni42  1  0.50027745  0.83335502  0.50086656  1
  Fe  Fe43  1  0.33385987  0.66632593  0.66978769  1
  Ni  Ni44  1  0.50209578  0.83267753  0.83398895  1
  Cr  Cr45  1  0.83401009  0.16785628  0.50280018  1
  Ni  Ni46  1  0.66684411  0.99776242  0.66888890  1
  Fe  Fe47  1  0.83275159  0.16833943  0.83394637  1
  Ni  Ni48  1  0.83681852  0.50147240  0.50182548  1
  Fe  Fe49  1  0.66880164  0.33397379  0.67079604  1
  Ni  Ni50  1  0.83407491  0.50192827  0.83438491  1
  Cr  Cr51  1  0.83179167  0.83297065  0.50257489  1
  Fe  Fe52  1  0.66815903  0.66718794  0.66949196  1
  Ni  Ni53  1  0.83476254  0.83270968  0.83311708  1
" 