1876,Ni50Fe44Cr5_3,-238.124789708662, 215.090276139666,Ni50Fe44Cr5,"# generated using pymatgen
 data_Cr4Fe23Ni27
_symmetry_space_group_name_H-M   'P 1'
_cell_length_a   7.40923246
_cell_length_b   7.40923246
_cell_length_c   10.47823703
_cell_angle_alpha   90.00000000
_cell_angle_beta   90.00000000
_cell_angle_gamma   90.00000000
_symmetry_Int_Tables_number   1
_chemical_formula_structural   Cr4Fe23Ni27
_chemical_formula_sum   'Cr4 Fe23 Ni27'
_cell_volume   575.22090381
_cell_formula_units_Z   1
loop_
 _symmetry_equiv_pos_site_id
 _symmetry_equiv_pos_as_xyz
  1  'x, y, z'
loop_
 _atom_site_type_symbol
 _atom_site_label
 _atom_site_symmetry_multiplicity
 _atom_site_fract_x
 _atom_site_fract_y
 _atom_site_fract_z
 _atom_site_occupancy
  Ni  Ni0  1  1.00380480  1.00366826  1.00261073  1
  Fe  Fe1  1  0.17088993  0.17047990  0.17066539  1
  Ni  Ni2  1  0.00428946  1.00303757  0.33838198  1
  Fe  Fe3  1  0.00399162  0.33829586  1.00294807  1
  Fe  Fe4  1  0.16994568  0.50431008  0.17130534  1
  Ni  Ni5  1  0.00429157  0.33796848  0.33841225  1
  Fe  Fe6  1  1.00275642  0.67162032  0.00401859  1
  Fe  Fe7  1  0.16958287  0.83691542  0.17054875  1
  Ni  Ni8  1  1.00290511  0.67069836  0.33602324  1
  Fe  Fe9  1  0.33667300  1.00238289  0.00417551  1
  Fe  Fe10  1  0.50318350  0.17050724  0.17094099  1
  Ni  Ni11  1  0.33727879  0.00435851  0.33597234  1
  Fe  Fe12  1  0.33611636  0.33690807  0.00526349  1
  Fe  Fe13  1  0.50440260  0.50455167  0.17011316  1
  Ni  Ni14  1  0.33756607  0.33692365  0.33685617  1
  Ni  Ni15  1  0.33764532  0.67078261  1.00363082  1
  Fe  Fe16  1  0.50473923  0.83663965  0.17063278  1
  Ni  Ni17  1  0.33763262  0.67042141  0.33805137  1
  Ni  Ni18  1  0.67139040  1.00174441  1.00302796  1
  Cr  Cr19  1  0.83751153  0.17023580  0.17069911  1
  Fe  Fe20  1  0.66984711  1.00302267  0.33803106  1
  Fe  Fe21  1  0.67159821  0.33838524  0.00432636  1
  Ni  Ni22  1  0.83723649  0.50605009  0.17056850  1
  Fe  Fe23  1  0.67018721  0.33790335  0.33870016  1
  Ni  Ni24  1  0.67093436  0.67152843  0.00474690  1
  Ni  Ni25  1  0.83777074  0.83499471  0.17106816  1
  Fe  Fe26  1  0.67129003  0.67077971  0.33738697  1
  Fe  Fe27  1  0.17010106  0.17011607  0.50435281  1
  Ni  Ni28  1  0.00427489  0.00593393  0.67072002  1
  Ni  Ni29  1  0.16975688  0.16955870  0.83716443  1
  Fe  Fe30  1  0.17102485  0.50276241  0.50251930  1
  Ni  Ni31  1  1.00351503  0.33513453  0.67131763  1
  Fe  Fe32  1  0.16956318  0.50314880  0.83788887  1
  Fe  Fe33  1  0.17097241  0.83882571  0.50305840  1
  Cr  Cr34  1  1.00235388  0.67092567  0.67138231  1
  Ni  Ni35  1  0.17063684  0.83893905  0.83812954  1
  Ni  Ni36  1  0.50300168  0.17058730  0.50327923  1
  Ni  Ni37  1  0.33646854  0.00397920  0.67074292  1
  Cr  Cr38  1  0.50304965  0.16960595  0.83707517  1
  Fe  Fe39  1  0.50499172  0.50376044  0.50440633  1
  Ni  Ni40  1  0.33641261  0.33626803  0.66903741  1
  Cr  Cr41  1  0.50473588  0.50485630  0.83571903  1
  Ni  Ni42  1  0.50308190  0.83764721  0.50494795  1
  Fe  Fe43  1  0.33793037  0.67128755  0.66997658  1
  Fe  Fe44  1  0.50398977  0.83680631  0.83715269  1
  Ni  Ni45  1  0.83729684  0.17111365  0.50484826  1
  Fe  Fe46  1  0.67149262  1.00371317  0.66954315  1
  Fe  Fe47  1  0.83979195  0.17010361  0.83693074  1
  Ni  Ni48  1  0.83695666  0.50299362  0.50250485  1
  Ni  Ni49  1  0.67178276  0.33809456  0.66934650  1
  Ni  Ni50  1  0.83765443  0.50404109  0.83864555  1
  Ni  Ni51  1  0.83673303  0.83760113  0.50225333  1
  Ni  Ni52  1  0.66982159  0.67069982  0.67025971  1
  Ni  Ni53  1  0.83783226  0.83706614  0.83837542  1
" 