3954,Ni50Fe26Cr23_18,-231.593321101783, 189.184858982479,Ni50Fe26Cr23,"# generated using pymatgen
 data_Cr13Fe14Ni27
_symmetry_space_group_name_H-M   'P 1'
_cell_length_a   7.44844969
_cell_length_b   7.44844969
_cell_length_c   10.53369857
_cell_angle_alpha   90.00000000
_cell_angle_beta   90.00000000
_cell_angle_gamma   90.00000000
_symmetry_Int_Tables_number   1
_chemical_formula_structural   Cr13Fe14Ni27
_chemical_formula_sum   'Cr13 Fe14 Ni27'
_cell_volume   584.40330634
_cell_formula_units_Z   1
loop_
 _symmetry_equiv_pos_site_id
 _symmetry_equiv_pos_as_xyz
  1  'x, y, z'
loop_
 _atom_site_type_symbol
 _atom_site_label
 _atom_site_symmetry_multiplicity
 _atom_site_fract_x
 _atom_site_fract_y
 _atom_site_fract_z
 _atom_site_occupancy
  Cr  Cr0  1  0.00263475  0.00183567  0.00173168  1
  Fe  Fe1  1  0.16886925  0.16939328  0.16934064  1
  Ni  Ni2  1  0.00396714  1.00054231  0.33362303  1
  Ni  Ni3  1  0.00130979  0.33431993  1.00061920  1
  Ni  Ni4  1  0.16979594  0.49935268  0.16823508  1
  Ni  Ni5  1  0.00175498  0.33575345  0.33446673  1
  Cr  Cr6  1  0.00596072  0.66665389  1.00008871  1
  Fe  Fe7  1  0.17160194  0.83324293  0.16977109  1
  Ni  Ni8  1  0.00427924  0.66773701  0.33664459  1
  Fe  Fe9  1  0.33541401  1.00072777  0.00139266  1
  Ni  Ni10  1  0.49941623  0.16815482  0.16913820  1
  Fe  Fe11  1  0.33549360  1.00010614  0.33487789  1
  Fe  Fe12  1  0.33438004  0.33540079  0.00300928  1
  Ni  Ni13  1  0.49881889  0.50059853  0.16838398  1
  Fe  Fe14  1  0.33410205  0.33689137  0.33410761  1
  Ni  Ni15  1  0.33331868  0.66842909  0.00286211  1
  Ni  Ni16  1  0.49911196  0.83498220  0.16826848  1
  Fe  Fe17  1  0.33415164  0.66654843  0.33460049  1
  Cr  Cr18  1  0.66657010  0.00376190  0.99971784  1
  Fe  Fe19  1  0.83353442  0.17003977  0.16943070  1
  Fe  Fe20  1  0.66677994  1.00058978  0.33468655  1
  Ni  Ni21  1  0.66690559  0.33241166  0.00193007  1
  Cr  Cr22  1  0.83427722  0.50103439  0.16866835  1
  Ni  Ni23  1  0.66511961  0.33500685  0.33394462  1
  Cr  Cr24  1  0.66514085  0.66666676  0.99923034  1
  Cr  Cr25  1  0.83381188  0.83448056  0.17176978  1
  Ni  Ni26  1  0.66488763  0.66627681  0.33714377  1
  Cr  Cr27  1  0.16957541  0.16831699  0.50229209  1
  Cr  Cr28  1  0.00169219  0.99770082  0.66884293  1
  Cr  Cr29  1  0.17057506  0.16964194  0.83357629  1
  Ni  Ni30  1  0.16822263  0.50218499  0.50177569  1
  Fe  Fe31  1  0.00202707  0.33788337  0.66840404  1
  Ni  Ni32  1  0.16794361  0.50226441  0.83386115  1
  Ni  Ni33  1  0.16892145  0.83372555  0.49972246  1
  Ni  Ni34  1  0.00370765  0.66668242  0.66754975  1
  Ni  Ni35  1  0.17039062  0.83329101  0.83470447  1
  Fe  Fe36  1  0.49999939  0.16792617  0.49986267  1
  Ni  Ni37  1  0.33597616  0.99845874  0.66818422  1
  Ni  Ni38  1  0.49971305  0.16765973  0.83466912  1
  Ni  Ni39  1  0.50021840  0.50258222  0.49948430  1
  Fe  Fe40  1  0.33445061  0.33661244  0.66702638  1
  Cr  Cr41  1  0.49875948  0.50104794  0.83573606  1
  Ni  Ni42  1  0.50050245  0.83360349  0.50104648  1
  Ni  Ni43  1  0.33215647  0.66872582  0.66658686  1
  Fe  Fe44  1  0.49776237  0.83437259  0.83369773  1
  Cr  Cr45  1  0.83592454  0.16784130  0.49785596  1
  Cr  Cr46  1  0.66624455  0.00185313  0.66834131  1
  Ni  Ni47  1  0.83412535  0.17015092  0.83686546  1
  Ni  Ni48  1  0.83510939  0.50380582  0.50048857  1
  Cr  Cr49  1  0.66799620  0.33562050  0.66746854  1
  Ni  Ni50  1  0.83621274  0.50088756  0.83373179  1
  Ni  Ni51  1  0.83454595  0.83190131  0.49945909  1
  Fe  Fe52  1  0.66835714  0.66878093  0.66616546  1
  Ni  Ni53  1  0.83489788  0.83295499  0.83233356  1
" 