1696,Ni50Fe27Cr21_3,-231.838591448172, 195.998667851156,Ni50Fe27Cr21,"# generated using pymatgen
 data_Cr13Fe14Ni27
_symmetry_space_group_name_H-M   'P 1'
_cell_length_a   7.44939911
_cell_length_b   7.44939911
_cell_length_c   10.53504125
_cell_angle_alpha   90.00000000
_cell_angle_beta   90.00000000
_cell_angle_gamma   90.00000000
_symmetry_Int_Tables_number   1
_chemical_formula_structural   Cr13Fe14Ni27
_chemical_formula_sum   'Cr13 Fe14 Ni27'
_cell_volume   584.62680819
_cell_formula_units_Z   1
loop_
 _symmetry_equiv_pos_site_id
 _symmetry_equiv_pos_as_xyz
  1  'x, y, z'
loop_
 _atom_site_type_symbol
 _atom_site_label
 _atom_site_symmetry_multiplicity
 _atom_site_fract_x
 _atom_site_fract_y
 _atom_site_fract_z
 _atom_site_occupancy
  Fe  Fe0  1  0.00539278  0.00136810  0.00291271  1
  Ni  Ni1  1  0.16900352  0.16959094  0.16583198  1
  Cr  Cr2  1  0.00301701  0.99769418  0.33536890  1
  Ni  Ni3  1  0.00122405  0.33615194  0.00237420  1
  Ni  Ni4  1  0.17005240  0.50061424  0.16800166  1
  Fe  Fe5  1  0.00210072  0.33616342  0.33427832  1
  Ni  Ni6  1  1.00106997  0.66957843  0.00494532  1
  Ni  Ni7  1  0.16858217  0.83300965  0.16768677  1
  Fe  Fe8  1  0.00364138  0.66546260  0.33345420  1
  Fe  Fe9  1  0.33299656  0.00175406  0.00187093  1
  Fe  Fe10  1  0.49881530  0.16798053  0.16759749  1
  Ni  Ni11  1  0.33372254  1.00060667  0.32994090  1
  Ni  Ni12  1  0.33588030  0.33335282  0.00120452  1
  Ni  Ni13  1  0.49885212  0.50077875  0.16697295  1
  Ni  Ni14  1  0.33506114  0.33329295  0.33118342  1
  Ni  Ni15  1  0.33396964  0.66982344  0.00220702  1
  Ni  Ni16  1  0.50100442  0.83376581  0.16628974  1
  Fe  Fe17  1  0.33318815  0.66709195  0.33165821  1
  Fe  Fe18  1  0.66502354  0.00132697  0.00222101  1
  Cr  Cr19  1  0.83466246  0.16788938  0.16727221  1
  Fe  Fe20  1  0.66688924  0.00156585  0.33269029  1
  Ni  Ni21  1  0.66638942  0.33553375  0.00161447  1
  Fe  Fe22  1  0.83617402  0.50212945  0.16580538  1
  Ni  Ni23  1  0.66818459  0.33503644  0.33331120  1
  Fe  Fe24  1  0.66627680  0.66424597  0.00249882  1
  Ni  Ni25  1  0.83388455  0.83468845  0.16569569  1
  Cr  Cr26  1  0.67146756  0.66595319  0.33167981  1
  Cr  Cr27  1  0.16759883  0.17200436  0.50205203  1
  Fe  Fe28  1  1.00114193  0.00133478  0.66713505  1
  Ni  Ni29  1  0.16851570  0.16780493  0.83618578  1
  Ni  Ni30  1  0.16747070  0.50152978  0.49985818  1
  Ni  Ni31  1  1.00079414  0.33412908  0.66653742  1
  Cr  Cr32  1  0.16886926  0.50051142  0.83511428  1
  Fe  Fe33  1  0.16779507  0.83241022  0.50013865  1
  Cr  Cr34  1  0.99992043  0.66728747  0.66501680  1
  Ni  Ni35  1  0.16824922  0.83541593  0.83625131  1
  Cr  Cr36  1  0.50281221  0.16761022  0.49705187  1
  Cr  Cr37  1  0.33297094  0.00141658  0.67171458  1
  Ni  Ni38  1  0.50018673  0.16907168  0.83719341  1
  Cr  Cr39  1  0.49651683  0.50175672  0.50235331  1
  Ni  Ni40  1  0.33332416  0.33448910  0.67063625  1
  Ni  Ni41  1  0.50033983  0.50217392  0.83450380  1
  Cr  Cr42  1  0.50200533  0.83357427  0.50115379  1
  Ni  Ni43  1  0.33456234  0.66918001  0.66821074  1
  Fe  Fe44  1  0.49934336  0.83292766  0.83616979  1
  Ni  Ni45  1  0.83531759  0.16669563  0.50144464  1
  Fe  Fe46  1  0.66818234  1.00072477  0.66826624  1
  Cr  Cr47  1  0.83727041  0.16823896  0.83469832  1
  Ni  Ni48  1  0.83672957  0.50073034  0.49944564  1
  Cr  Cr49  1  0.66864525  0.33710287  0.66849498  1
  Ni  Ni50  1  0.83268296  0.50137338  0.83799291  1
  Ni  Ni51  1  0.83366268  0.83565967  0.50189861  1
  Ni  Ni52  1  0.66825512  0.66863961  0.67056896  1
  Cr  Cr53  1  0.83427690  0.83372289  0.83731070  1
" 