2208,Ni50Fe33Cr15_5,-234.653536200351, 203.985921599594,Ni50Fe33Cr15,"# generated using pymatgen
 data_CrFe2Ni3
_symmetry_space_group_name_H-M   'P 1'
_cell_length_a   7.43027151
_cell_length_b   7.43027151
_cell_length_c   10.50799074
_cell_angle_alpha   90.00000000
_cell_angle_beta   90.00000000
_cell_angle_gamma   90.00000000
_symmetry_Int_Tables_number   1
_chemical_formula_structural   CrFe2Ni3
_chemical_formula_sum   'Cr9 Fe18 Ni27'
_cell_volume   580.13497404
_cell_formula_units_Z   9
loop_
 _symmetry_equiv_pos_site_id
 _symmetry_equiv_pos_as_xyz
  1  'x, y, z'
loop_
 _atom_site_type_symbol
 _atom_site_label
 _atom_site_symmetry_multiplicity
 _atom_site_fract_x
 _atom_site_fract_y
 _atom_site_fract_z
 _atom_site_occupancy
  Cr  Cr0  1  0.00376837  1.00165605  0.00288586  1
  Ni  Ni1  1  0.17003659  0.17243365  0.16960661  1
  Fe  Fe2  1  0.00421039  1.00228340  0.33436677  1
  Fe  Fe3  1  0.00288155  0.33662253  0.00251799  1
  Fe  Fe4  1  0.16949941  0.50167694  0.17074963  1
  Ni  Ni5  1  0.00423491  0.33663234  0.33714693  1
  Fe  Fe6  1  1.00047177  0.66501001  0.00379944  1
  Fe  Fe7  1  0.16979416  0.83714697  0.17145311  1
  Ni  Ni8  1  1.00234869  0.66789788  0.33346913  1
  Fe  Fe9  1  0.33870780  0.00425605  1.00212154  1
  Cr  Cr10  1  0.50063662  0.17063063  0.16758432  1
  Ni  Ni11  1  0.33500550  1.00231000  0.33416187  1
  Ni  Ni12  1  0.33524140  0.33712652  1.00144661  1
  Fe  Fe13  1  0.50255670  0.50269853  0.16949528  1
  Ni  Ni14  1  0.33339480  0.33629669  0.33659781  1
  Cr  Cr15  1  0.33527310  0.66918595  0.00305739  1
  Ni  Ni16  1  0.50384676  0.83524661  0.17017827  1
  Ni  Ni17  1  0.33671544  0.66904841  0.33659967  1
  Ni  Ni18  1  0.66966747  1.00234392  1.00108981  1
  Cr  Cr19  1  0.83524654  0.17027659  0.17130577  1
  Fe  Fe20  1  0.66635484  1.00053001  0.33637492  1
  Ni  Ni21  1  0.66907258  0.33687799  0.99949344  1
  Fe  Fe22  1  0.83521971  0.50312601  0.16910892  1
  Cr  Cr23  1  0.66814078  0.33857738  0.34053186  1
  Fe  Fe24  1  0.66811881  0.66819194  0.00261608  1
  Ni  Ni25  1  0.83447388  0.83338825  0.16942857  1
  Ni  Ni26  1  0.66869195  0.66985960  0.33471930  1
  Fe  Fe27  1  0.17164458  0.17014861  0.50147401  1
  Fe  Fe28  1  1.00182046  0.00738764  0.66961872  1
  Fe  Fe29  1  0.17025660  0.17244911  0.83603112  1
  Ni  Ni30  1  0.16939913  0.50062949  0.50201684  1
  Fe  Fe31  1  1.00156935  0.33568115  0.66842690  1
  Ni  Ni32  1  0.16882854  0.50003397  0.83458805  1
  Cr  Cr33  1  0.17097707  0.83386547  0.50353004  1
  Fe  Fe34  1  1.00204755  0.66349585  0.66860646  1
  Cr  Cr35  1  0.17086102  0.83364098  0.83250216  1
  Ni  Ni36  1  0.50080965  0.16844013  0.50297206  1
  Ni  Ni37  1  0.33662133  0.00443482  0.67146210  1
  Fe  Fe38  1  0.50346197  0.17095372  0.83504973  1
  Ni  Ni39  1  0.50118492  0.50211638  0.50245567  1
  Ni  Ni40  1  0.33537592  0.33564639  0.66844150  1
  Ni  Ni41  1  0.50225628  0.50099936  0.83529808  1
  Ni  Ni42  1  0.50236177  0.83680315  0.50282645  1
  Fe  Fe43  1  0.34087847  0.66651319  0.66865972  1
  Ni  Ni44  1  0.50294795  0.83717594  0.83480311  1
  Fe  Fe45  1  0.83545538  0.17073631  0.50432771  1
  Ni  Ni46  1  0.66728077  0.00389683  0.66867256  1
  Ni  Ni47  1  0.83466537  0.17144254  0.83475355  1
  Ni  Ni48  1  0.83723104  0.50243320  0.50266940  1
  Ni  Ni49  1  0.66902177  0.33712229  0.66900189  1
  Ni  Ni50  1  0.83643879  0.49968098  0.83695756  1
  Cr  Cr51  1  0.83449197  0.83519040  0.50275059  1
  Ni  Ni52  1  0.66862558  0.66684337  0.66995218  1
  Cr  Cr53  1  0.83351262  0.83454427  0.83388134  1
" 