45,Ni50Fe25Cr24_14,-231.296123158813, 191.068041776489,Ni50Fe25Cr24,"# generated using pymatgen
 data_Cr14Fe13Ni27
_symmetry_space_group_name_H-M   'P 1'
_cell_length_a   7.45739622
_cell_length_b   7.45739622
_cell_length_c   10.54635087
_cell_angle_alpha   90.00000000
_cell_angle_beta   90.00000000
_cell_angle_gamma   90.00000000
_symmetry_Int_Tables_number   1
_chemical_formula_structural   Cr14Fe13Ni27
_chemical_formula_sum   'Cr14 Fe13 Ni27'
_cell_volume   586.51166223
_cell_formula_units_Z   1
loop_
 _symmetry_equiv_pos_site_id
 _symmetry_equiv_pos_as_xyz
  1  'x, y, z'
loop_
 _atom_site_type_symbol
 _atom_site_label
 _atom_site_symmetry_multiplicity
 _atom_site_fract_x
 _atom_site_fract_y
 _atom_site_fract_z
 _atom_site_occupancy
  Cr  Cr0  1  0.00129255  1.00038830  0.00090710  1
  Cr  Cr1  1  0.16717820  0.16617462  0.16836170  1
  Fe  Fe2  1  0.00234976  0.99992323  0.33450931  1
  Fe  Fe3  1  0.99904327  0.33759906  0.99976727  1
  Cr  Cr4  1  0.16622619  0.50197247  0.16554417  1
  Ni  Ni5  1  0.99784722  0.33466602  0.33324326  1
  Ni  Ni6  1  0.00225057  0.66573270  0.99936387  1
  Ni  Ni7  1  0.16865118  0.83421483  0.16724889  1
  Ni  Ni8  1  0.99895169  0.66773716  0.33521581  1
  Fe  Fe9  1  0.33682360  0.99773134  1.00058676  1
  Ni  Ni10  1  0.50139299  0.16565638  0.16721975  1
  Ni  Ni11  1  0.33425595  0.99922037  0.33382638  1
  Fe  Fe12  1  0.33453832  0.33535677  1.00044320  1
  Ni  Ni13  1  0.50243497  0.50161936  0.16620766  1
  Cr  Cr14  1  0.33516378  0.33257706  0.33568816  1
  Ni  Ni15  1  0.33375275  0.66938870  0.00085370  1
  Fe  Fe16  1  0.49996245  0.83440183  0.16641250  1
  Cr  Cr17  1  0.33422224  0.67010530  0.33402046  1
  Fe  Fe18  1  0.66462245  1.00011873  0.99987646  1
  Ni  Ni19  1  0.83290380  0.16815645  0.16786518  1
  Fe  Fe20  1  0.66590870  0.99989327  0.33411924  1
  Cr  Cr21  1  0.66879385  0.33334324  0.00089405  1
  Ni  Ni22  1  0.83335236  0.50061296  0.16763930  1
  Cr  Cr23  1  0.66824740  0.33531209  0.33294617  1
  Ni  Ni24  1  0.66593790  0.66635510  0.00268335  1
  Cr  Cr25  1  0.83375559  0.83277924  0.16965572  1
  Fe  Fe26  1  0.66807455  0.66674376  0.33464827  1
  Fe  Fe27  1  0.16839686  0.16675850  0.50167884  1
  Ni  Ni28  1  0.00171991  1.00053452  0.66602486  1
  Cr  Cr29  1  0.16792194  0.16844138  0.83268581  1
  Fe  Fe30  1  0.16615432  0.50110173  0.50246003  1
  Ni  Ni31  1  0.00144814  0.33450406  0.66842328  1
  Ni  Ni32  1  0.16566067  0.50209062  0.83334499  1
  Ni  Ni33  1  0.16769152  0.83504494  0.50133724  1
  Fe  Fe34  1  0.00364738  0.66675285  0.66695122  1
  Ni  Ni35  1  0.16963988  0.83159551  0.83335263  1
  Fe  Fe36  1  0.49823109  0.16491784  0.50172279  1
  Ni  Ni37  1  0.33419927  0.99931661  0.66719028  1
  Ni  Ni38  1  0.50098474  0.16396270  0.83291013  1
  Ni  Ni39  1  0.49997924  0.50206519  0.50120067  1
  Ni  Ni40  1  0.33266398  0.33391726  0.66565352  1
  Cr  Cr41  1  0.49818950  0.50179743  0.83415552  1
  Ni  Ni42  1  0.49936976  0.83466128  0.50034219  1
  Ni  Ni43  1  0.33183522  0.66870581  0.66707781  1
  Ni  Ni44  1  0.49847690  0.83648470  0.83518959  1
  Cr  Cr45  1  0.83592238  0.16623272  0.50082691  1
  Ni  Ni46  1  0.66602064  0.00136490  0.66858965  1
  Ni  Ni47  1  0.83322932  0.16794397  0.83345584  1
  Ni  Ni48  1  0.83566995  0.50205610  0.49918613  1
  Cr  Cr49  1  0.66753826  0.33277803  0.66809959  1
  Ni  Ni50  1  0.83812168  0.49958140  0.83511730  1
  Fe  Fe51  1  0.83421551  0.83258445  0.50020895  1
  Cr  Cr52  1  0.66669046  0.66782851  0.66588532  1
  Cr  Cr53  1  0.83339073  0.83414014  0.83212472  1
" 