3650,Ni50Fe27Cr21_12,-231.798042089705, 187.844171733501,Ni50Fe27Cr21,"# generated using pymatgen
 data_Cr13Fe14Ni27
_symmetry_space_group_name_H-M   'P 1'
_cell_length_a   7.44861375
_cell_length_b   7.44861375
_cell_length_c   10.53393058
_cell_angle_alpha   90.00000000
_cell_angle_beta   90.00000000
_cell_angle_gamma   90.00000000
_symmetry_Int_Tables_number   1
_chemical_formula_structural   Cr13Fe14Ni27
_chemical_formula_sum   'Cr13 Fe14 Ni27'
_cell_volume   584.44192264
_cell_formula_units_Z   1
loop_
 _symmetry_equiv_pos_site_id
 _symmetry_equiv_pos_as_xyz
  1  'x, y, z'
loop_
 _atom_site_type_symbol
 _atom_site_label
 _atom_site_symmetry_multiplicity
 _atom_site_fract_x
 _atom_site_fract_y
 _atom_site_fract_z
 _atom_site_occupancy
  Fe  Fe0  1  0.00475903  0.99994175  0.00263245  1
  Ni  Ni1  1  0.16914997  0.16716436  0.16669657  1
  Cr  Cr2  1  1.00058777  0.99832606  0.33265864  1
  Ni  Ni3  1  1.00093802  0.33602141  0.00248643  1
  Fe  Fe4  1  0.17205786  0.50294383  0.16604892  1
  Cr  Cr5  1  0.00147726  0.33627439  0.33014094  1
  Ni  Ni6  1  1.00045581  0.66746636  0.00127306  1
  Ni  Ni7  1  0.16866899  0.83411410  0.16741285  1
  Ni  Ni8  1  1.00093000  0.66951416  0.33260584  1
  Ni  Ni9  1  0.33673480  1.00092576  1.00121355  1
  Ni  Ni10  1  0.50002046  0.16754429  0.16822011  1
  Ni  Ni11  1  0.33754746  0.99975598  0.33355347  1
  Ni  Ni12  1  0.33365222  0.33342040  0.00177025  1
  Ni  Ni13  1  0.50158679  0.50233963  0.16902191  1
  Ni  Ni14  1  0.33839303  0.33439054  0.33282944  1
  Ni  Ni15  1  0.33364109  0.66960875  0.00203165  1
  Ni  Ni16  1  0.50060140  0.83379047  0.16737429  1
  Ni  Ni17  1  0.33468687  0.66968727  0.33263018  1
  Fe  Fe18  1  0.66640168  0.99968100  0.00227360  1
  Fe  Fe19  1  0.83182261  0.16700284  0.16631992  1
  Ni  Ni20  1  0.66549358  1.00040378  0.33328425  1
  Fe  Fe21  1  0.66569382  0.33495153  0.00365922  1
  Fe  Fe22  1  0.83314755  0.50299477  0.16703569  1
  Ni  Ni23  1  0.66525330  0.33342878  0.33359845  1
  Fe  Fe24  1  0.66698014  0.66883026  0.00179087  1
  Fe  Fe25  1  0.83301894  0.83373676  0.16614583  1
  Fe  Fe26  1  0.66605366  0.66924616  0.33363968  1
  Cr  Cr27  1  0.17005830  0.16487814  0.50086433  1
  Fe  Fe28  1  0.00339767  0.99697651  0.66914738  1
  Ni  Ni29  1  0.16833874  0.16681586  0.83593253  1
  Cr  Cr30  1  0.16985775  0.50316338  0.49818409  1
  Cr  Cr31  1  0.00227846  0.33721550  0.67036393  1
  Ni  Ni32  1  0.16615526  0.50175847  0.83767676  1
  Fe  Fe33  1  0.16996202  0.83402725  0.49985832  1
  Ni  Ni34  1  1.00067470  0.67102862  0.66988675  1
  Fe  Fe35  1  0.16847020  0.83562724  0.83709631  1
  Ni  Ni36  1  0.50041533  0.16594013  0.49859750  1
  Ni  Ni37  1  0.33532042  0.99918945  0.66902188  1
  Ni  Ni38  1  0.49911704  0.16540534  0.83686816  1
  Ni  Ni39  1  0.50246206  0.50393675  0.49880379  1
  Cr  Cr40  1  0.33600682  0.33252482  0.66839056  1
  Cr  Cr41  1  0.50064689  0.50369477  0.83625720  1
  Ni  Ni42  1  0.50169158  0.83376403  0.49939256  1
  Cr  Cr43  1  0.33472783  0.67127689  0.66919955  1
  Ni  Ni44  1  0.50301709  0.83507204  0.83684058  1
  Cr  Cr45  1  0.83399947  0.16562341  0.50021288  1
  Cr  Cr46  1  0.66361131  0.99964752  0.66779909  1
  Cr  Cr47  1  0.83564253  0.16560219  0.83717230  1
  Cr  Cr48  1  0.83280897  0.50372440  0.50157095  1
  Cr  Cr49  1  0.66569122  0.33533938  0.66840866  1
  Fe  Fe50  1  0.83472060  0.50403949  0.83633072  1
  Fe  Fe51  1  0.83356029  0.83344815  0.50104002  1
  Ni  Ni52  1  0.66926805  0.67080624  0.66842320  1
  Ni  Ni53  1  0.83516501  0.83278834  0.83513161  1
" 