4506,Ni50Fe17Cr31_19,-227.536107338222, 175.6606238875,Ni50Fe17Cr31,"# generated using pymatgen
 data_Cr2FeNi3
_symmetry_space_group_name_H-M   'P 1'
_cell_length_a   7.47160815
_cell_length_b   7.47160815
_cell_length_c   10.56644958
_cell_angle_alpha   90.00000000
_cell_angle_beta   90.00000000
_cell_angle_gamma   90.00000000
_symmetry_Int_Tables_number   1
_chemical_formula_structural   Cr2FeNi3
_chemical_formula_sum   'Cr18 Fe9 Ni27'
_cell_volume   589.87129049
_cell_formula_units_Z   9
loop_
 _symmetry_equiv_pos_site_id
 _symmetry_equiv_pos_as_xyz
  1  'x, y, z'
loop_
 _atom_site_type_symbol
 _atom_site_label
 _atom_site_symmetry_multiplicity
 _atom_site_fract_x
 _atom_site_fract_y
 _atom_site_fract_z
 _atom_site_occupancy
  Ni  Ni0  1  0.99631808  0.99841760  -0.00023982  1
  Cr  Cr1  1  0.16792863  0.16840116  0.16621003  1
  Cr  Cr2  1  0.99671782  0.00035675  0.33057242  1
  Cr  Cr3  1  0.99518918  0.33268819  0.00064807  1
  Ni  Ni4  1  0.16491433  0.50075317  0.16882510  1
  Ni  Ni5  1  0.99899122  0.33577578  0.33264913  1
  Cr  Cr6  1  0.99825586  0.66684345  -0.00005223  1
  Fe  Fe7  1  0.16782204  0.82926157  0.16500489  1
  Fe  Fe8  1  0.99811643  0.66380190  0.33131591  1
  Cr  Cr9  1  0.33441272  0.99688489  0.99899454  1
  Ni  Ni10  1  0.50209549  0.16612457  0.16548319  1
  Cr  Cr11  1  0.33481049  0.99782682  0.33250262  1
  Fe  Fe12  1  0.33692057  0.33459375  0.00015433  1
  Cr  Cr13  1  0.50205943  0.49971148  0.16570150  1
  Ni  Ni14  1  0.33216912  0.33748770  0.33271431  1
  Ni  Ni15  1  0.33516699  0.66700319  -0.00016992  1
  Ni  Ni16  1  0.50243582  0.83281151  0.16537124  1
  Fe  Fe17  1  0.33422303  0.66389566  0.33256589  1
  Ni  Ni18  1  0.66753855  -0.00026387  -0.00009146  1
  Fe  Fe19  1  0.82888379  0.16928638  0.16609072  1
  Cr  Cr20  1  0.66740478  0.99841563  0.33270509  1
  Ni  Ni21  1  0.66681104  0.33295984  0.99857357  1
  Ni  Ni22  1  0.83300310  0.50086189  0.16794511  1
  Ni  Ni23  1  0.66799968  0.33544305  0.33261737  1
  Ni  Ni24  1  0.66490825  0.66648819  0.99846346  1
  Fe  Fe25  1  0.82983788  0.83092271  0.16453120  1
  Ni  Ni26  1  0.66588353  0.66616754  0.33288775  1
  Cr  Cr27  1  0.16320371  0.16967358  0.50067658  1
  Ni  Ni28  1  0.99453540  0.99941917  0.66761837  1
  Cr  Cr29  1  0.16514330  0.16435357  0.83198404  1
  Ni  Ni30  1  0.16480473  0.49966261  0.49696976  1
  Ni  Ni31  1  0.99572125  0.33261347  0.66553066  1
  Cr  Cr32  1  0.16525362  0.50075128  0.83359161  1
  Cr  Cr33  1  0.16345928  0.83010653  0.50030552  1
  Fe  Fe34  1  0.99740374  0.66696336  0.66790259  1
  Ni  Ni35  1  0.16355551  0.83370555  0.83368652  1
  Cr  Cr36  1  0.50348428  0.16747244  0.49925903  1
  Cr  Cr37  1  0.33606962  0.99649440  0.66747162  1
  Ni  Ni38  1  0.50455869  0.16662167  0.83456518  1
  Fe  Fe39  1  0.50039494  0.50063585  0.49731435  1
  Cr  Cr40  1  0.33543037  0.33628777  0.66707158  1
  Ni  Ni41  1  0.50392984  0.49859526  0.83637140  1
  Ni  Ni42  1  0.50366637  0.83081201  0.49843278  1
  Cr  Cr43  1  0.33493341  0.66629879  0.66656865  1
  Ni  Ni44  1  0.50309528  0.83389117  0.83511271  1
  Ni  Ni45  1  0.83251287  0.16668347  0.50136309  1
  Ni  Ni46  1  0.67017597  0.99966409  0.66650003  1
  Fe  Fe47  1  0.82970547  0.16471613  0.83177771  1
  Cr  Cr48  1  0.83395103  0.49946662  0.49924536  1
  Ni  Ni49  1  0.66988961  0.33176939  0.66824992  1
  Ni  Ni50  1  0.82963436  0.49987491  0.83240928  1
  Ni  Ni51  1  0.83105683  0.83312907  0.50010583  1
  Cr  Cr52  1  0.66494808  0.66675476  0.66811712  1
  Ni  Ni53  1  0.83218423  0.83418226  0.83334433  1
" 