2402,Ni50Fe43Cr5_3,-238.378183418024, 218.1193246941,Ni50Fe43Cr5,"# generated using pymatgen
 data_Cr4Fe23Ni27
_symmetry_space_group_name_H-M   'P 1'
_cell_length_a   7.41038869
_cell_length_b   7.41038869
_cell_length_c   10.47987219
_cell_angle_alpha   90.00000000
_cell_angle_beta   90.00000000
_cell_angle_gamma   90.00000000
_symmetry_Int_Tables_number   1
_chemical_formula_structural   Cr4Fe23Ni27
_chemical_formula_sum   'Cr4 Fe23 Ni27'
_cell_volume   575.49024001
_cell_formula_units_Z   1
loop_
 _symmetry_equiv_pos_site_id
 _symmetry_equiv_pos_as_xyz
  1  'x, y, z'
loop_
 _atom_site_type_symbol
 _atom_site_label
 _atom_site_symmetry_multiplicity
 _atom_site_fract_x
 _atom_site_fract_y
 _atom_site_fract_z
 _atom_site_occupancy
  Fe  Fe0  1  0.00473084  0.00393413  1.00315611  1
  Fe  Fe1  1  0.17020469  0.16989624  0.17144680  1
  Fe  Fe2  1  0.00420676  0.00405416  0.33770104  1
  Ni  Ni3  1  1.00288505  0.33780189  1.00282535  1
  Cr  Cr4  1  0.17080572  0.50448167  0.17124620  1
  Ni  Ni5  1  1.00243186  0.33655492  0.33688450  1
  Ni  Ni6  1  1.00366342  0.67041996  1.00211394  1
  Ni  Ni7  1  0.17072171  0.83855470  0.17125958  1
  Ni  Ni8  1  1.00171305  0.67180948  0.33774777  1
  Fe  Fe9  1  0.33500255  0.00392917  0.00423861  1
  Fe  Fe10  1  0.50325406  0.17216099  0.17103747  1
  Ni  Ni11  1  0.33718956  1.00381619  0.33763987  1
  Fe  Fe12  1  0.33749117  0.33600791  1.00370239  1
  Ni  Ni13  1  0.50571100  0.50320755  0.17130920  1
  Ni  Ni14  1  0.33854507  0.33478570  0.33669996  1
  Fe  Fe15  1  0.33667425  0.67153520  1.00346702  1
  Fe  Fe16  1  0.50331011  0.83588221  0.17202760  1
  Fe  Fe17  1  0.33873935  0.67161374  0.33746835  1
  Cr  Cr18  1  0.66989080  0.00406888  0.00428559  1
  Ni  Ni19  1  0.83720961  0.17187810  0.17169083  1
  Fe  Fe20  1  0.67059131  0.00405309  0.33760962  1
  Ni  Ni21  1  0.67158196  0.33735123  0.00449750  1
  Ni  Ni22  1  0.83454881  0.50249051  0.16958516  1
  Ni  Ni23  1  0.67049316  0.33791288  0.33719044  1
  Fe  Fe24  1  0.67219073  0.66858537  0.00526875  1
  Fe  Fe25  1  0.83818297  0.83515374  0.17129056  1
  Ni  Ni26  1  0.67120685  0.67045470  0.33637299  1
  Ni  Ni27  1  0.17087010  0.16912181  0.50360130  1
  Ni  Ni28  1  1.00283543  1.00381941  0.67080493  1
  Fe  Fe29  1  0.16989648  0.17038341  0.83628834  1
  Cr  Cr30  1  0.17053396  0.50377444  0.50307555  1
  Ni  Ni31  1  1.00374163  0.33631263  0.67175840  1
  Fe  Fe32  1  0.16853064  0.50359902  0.83695220  1
  Ni  Ni33  1  0.17086937  0.83891968  0.50359965  1
  Fe  Fe34  1  1.00335798  0.67185652  0.67115918  1
  Ni  Ni35  1  0.16966427  0.83703438  0.83660829  1
  Fe  Fe36  1  0.50335355  0.16993861  0.50408270  1
  Fe  Fe37  1  0.33654704  0.00405441  0.66988507  1
  Ni  Ni38  1  0.50386687  0.17093110  0.83641950  1
  Fe  Fe39  1  0.50495765  0.50458012  0.50340472  1
  Ni  Ni40  1  0.33650768  0.33638765  0.67080108  1
  Cr  Cr41  1  0.50388023  0.50243841  0.83705684  1
  Ni  Ni42  1  0.50372397  0.83730707  0.50457106  1
  Ni  Ni43  1  0.33722838  0.67197883  0.66994315  1
  Fe  Fe44  1  0.50359364  0.83878123  0.83559267  1
  Fe  Fe45  1  0.83800262  0.16994262  0.50415112  1
  Ni  Ni46  1  0.67057704  1.00309855  0.67033849  1
  Ni  Ni47  1  0.83722553  0.17078230  0.83579255  1
  Ni  Ni48  1  0.83542041  0.50358614  0.50398069  1
  Fe  Fe49  1  0.67129697  0.33581984  0.67020661  1
  Fe  Fe50  1  0.83909738  0.50342263  0.83776592  1
  Ni  Ni51  1  0.83687661  0.83710533  0.50327480  1
  Fe  Fe52  1  0.67153029  0.67159179  0.66880567  1
  Ni  Ni53  1  0.83927653  0.83747645  0.83675503  1
" 