6909,Ni50Fe25Cr24_2,-231.289708101318, 193.32277635245,Ni50Fe25Cr24,"# generated using pymatgen
 data_Cr14Fe13Ni27
_symmetry_space_group_name_H-M   'P 1'
_cell_length_a   7.45526521
_cell_length_b   7.45526521
_cell_length_c   10.54333717
_cell_angle_alpha   90.00000000
_cell_angle_beta   90.00000000
_cell_angle_gamma   90.00000000
_symmetry_Int_Tables_number   1
_chemical_formula_structural   Cr14Fe13Ni27
_chemical_formula_sum   'Cr14 Fe13 Ni27'
_cell_volume   586.00900460
_cell_formula_units_Z   1
loop_
 _symmetry_equiv_pos_site_id
 _symmetry_equiv_pos_as_xyz
  1  'x, y, z'
loop_
 _atom_site_type_symbol
 _atom_site_label
 _atom_site_symmetry_multiplicity
 _atom_site_fract_x
 _atom_site_fract_y
 _atom_site_fract_z
 _atom_site_occupancy
  Ni  Ni0  1  0.99972298  0.00097577  0.00186098  1
  Fe  Fe1  1  0.16661280  0.16596196  0.16655414  1
  Ni  Ni2  1  0.00235039  0.99850609  0.33491172  1
  Ni  Ni3  1  0.00369251  0.33460739  1.00049407  1
  Ni  Ni4  1  0.16760971  0.50214297  0.16432279  1
  Cr  Cr5  1  1.00056372  0.33378110  0.33424355  1
  Ni  Ni6  1  0.00145983  0.66678761  0.00136466  1
  Ni  Ni7  1  0.16678047  0.83379978  0.16879133  1
  Fe  Fe8  1  0.00168394  0.67010624  0.33520111  1
  Cr  Cr9  1  0.33500729  0.00105197  0.00209275  1
  Ni  Ni10  1  0.50110289  0.16567819  0.16708358  1
  Ni  Ni11  1  0.33146490  0.99881921  0.33293258  1
  Ni  Ni12  1  0.33094346  0.33482511  1.00059287  1
  Cr  Cr13  1  0.49971620  0.50077833  0.16851770  1
  Cr  Cr14  1  0.33353714  0.33379276  0.33377256  1
  Fe  Fe15  1  0.33268460  0.66704161  1.00026996  1
  Ni  Ni16  1  0.50077425  0.83564581  0.16654796  1
  Fe  Fe17  1  0.33210059  0.66948556  0.33433847  1
  Ni  Ni18  1  0.66803880  0.99883002  0.00260607  1
  Ni  Ni19  1  0.83372021  0.16485185  0.16620364  1
  Cr  Cr20  1  0.66860602  1.00011460  0.33093273  1
  Cr  Cr21  1  0.66791225  0.33256741  0.99934906  1
  Cr  Cr22  1  0.83576028  0.50187302  0.16687814  1
  Ni  Ni23  1  0.66799075  0.33530267  0.33611633  1
  Ni  Ni24  1  0.66781909  0.67045403  1.00054535  1
  Ni  Ni25  1  0.83481517  0.83570890  0.16619565  1
  Fe  Fe26  1  0.66858381  0.66746529  0.33449570  1
  Ni  Ni27  1  0.16711166  0.16433982  0.50061250  1
  Fe  Fe28  1  0.00411753  0.99934902  0.66645852  1
  Ni  Ni29  1  0.16829644  0.16648912  0.83509089  1
  Ni  Ni30  1  0.16626159  0.50355945  0.50192517  1
  Cr  Cr31  1  0.99947633  0.33514486  0.66708746  1
  Fe  Fe32  1  0.16649938  0.50244522  0.83579735  1
  Ni  Ni33  1  0.16558833  0.83447213  0.50194915  1
  Ni  Ni34  1  0.00332176  0.66787860  0.66557587  1
  Ni  Ni35  1  0.16852325  0.83430943  0.83163365  1
  Cr  Cr36  1  0.49983758  0.16917243  0.50101017  1
  Ni  Ni37  1  0.33133741  0.99868756  0.66807925  1
  Fe  Fe38  1  0.50040202  0.16734609  0.83427172  1
  Fe  Fe39  1  0.50134845  0.50155401  0.50030897  1
  Cr  Cr40  1  0.33392085  0.33463378  0.66754798  1
  Fe  Fe41  1  0.49998860  0.50152311  0.83479188  1
  Cr  Cr42  1  0.49797214  0.83330399  0.50045745  1
  Ni  Ni43  1  0.33114702  0.66923756  0.66806238  1
  Fe  Fe44  1  0.49834513  0.83350114  0.83497559  1
  Fe  Fe45  1  0.83640424  0.16769068  0.49999630  1
  Cr  Cr46  1  0.66769477  0.00233516  0.66874700  1
  Fe  Fe47  1  0.83573036  0.16822307  0.83578309  1
  Ni  Ni48  1  0.83319743  0.50159050  0.50043547  1
  Ni  Ni49  1  0.66859062  0.33492498  0.66711963  1
  Ni  Ni50  1  0.83366329  0.50001154  0.83473377  1
  Ni  Ni51  1  0.83845970  0.83185028  0.50003654  1
  Cr  Cr52  1  0.66820300  0.66514453  0.66675558  1
  Cr  Cr53  1  0.83617823  0.83299788  0.83621237  1
" 