7911,Ni50Fe44Cr5_17,-238.270169106264, 215.473173299973,Ni50Fe44Cr5,"# generated using pymatgen
 data_Cr4Fe23Ni27
_symmetry_space_group_name_H-M   'P 1'
_cell_length_a   7.41327769
_cell_length_b   7.41327769
_cell_length_c   10.48395786
_cell_angle_alpha   90.00000000
_cell_angle_beta   90.00000000
_cell_angle_gamma   90.00000000
_symmetry_Int_Tables_number   1
_chemical_formula_structural   Cr4Fe23Ni27
_chemical_formula_sum   'Cr4 Fe23 Ni27'
_cell_volume   576.16358150
_cell_formula_units_Z   1
loop_
 _symmetry_equiv_pos_site_id
 _symmetry_equiv_pos_as_xyz
  1  'x, y, z'
loop_
 _atom_site_type_symbol
 _atom_site_label
 _atom_site_symmetry_multiplicity
 _atom_site_fract_x
 _atom_site_fract_y
 _atom_site_fract_z
 _atom_site_occupancy
  Fe  Fe0  1  1.00346736  0.00496584  1.00231848  1
  Ni  Ni1  1  0.17046100  0.17098970  0.17021747  1
  Ni  Ni2  1  1.00227063  0.00598095  0.33615707  1
  Ni  Ni3  1  0.00371365  0.33604835  0.00414576  1
  Ni  Ni4  1  0.16953169  0.50302843  0.17092658  1
  Fe  Fe5  1  1.00287355  0.33790978  0.33627990  1
  Fe  Fe6  1  1.00145946  0.66912900  1.00341888  1
  Cr  Cr7  1  0.17007648  0.83746075  0.16954193  1
  Ni  Ni8  1  1.00354068  0.66982826  0.33689439  1
  Ni  Ni9  1  0.33636432  0.00517442  1.00297256  1
  Ni  Ni10  1  0.50328055  0.17126355  0.17017490  1
  Fe  Fe11  1  0.33817578  0.00514325  0.33671665  1
  Fe  Fe12  1  0.33709663  0.33554767  0.00434895  1
  Ni  Ni13  1  0.50475630  0.50294745  0.17114805  1
  Fe  Fe14  1  0.33629393  0.33704775  0.33686651  1
  Cr  Cr15  1  0.33874707  0.67001418  1.00234733  1
  Fe  Fe16  1  0.50453150  0.83678212  0.17162565  1
  Ni  Ni17  1  0.33822965  0.66831989  0.33760007  1
  Cr  Cr18  1  0.67002627  0.00387484  1.00332632  1
  Ni  Ni19  1  0.83704079  0.17209250  0.17032562  1
  Fe  Fe20  1  0.67080785  0.00405241  0.33688663  1
  Fe  Fe21  1  0.66991032  0.33759679  0.00389343  1
  Ni  Ni22  1  0.83649482  0.50381001  0.16925951  1
  Ni  Ni23  1  0.67035737  0.33638045  0.33633905  1
  Ni  Ni24  1  0.67050019  0.66915211  0.00456564  1
  Fe  Fe25  1  0.83650431  0.83638693  0.17076933  1
  Fe  Fe26  1  0.67167595  0.66967507  0.33714636  1
  Ni  Ni27  1  0.16987811  0.17138787  0.50300112  1
  Ni  Ni28  1  0.00388315  0.00576660  0.67173433  1
  Ni  Ni29  1  0.17060986  0.17094475  0.83770297  1
  Ni  Ni30  1  0.16878780  0.50303702  0.50325983  1
  Fe  Fe31  1  1.00285001  0.33671151  0.67052982  1
  Fe  Fe32  1  0.16913760  0.50204766  0.83643061  1
  Cr  Cr33  1  0.17124833  0.83706718  0.50498335  1
  Fe  Fe34  1  1.00117147  0.66883880  0.67024729  1
  Fe  Fe35  1  0.16967839  0.83980902  0.83600476  1
  Ni  Ni36  1  0.50473706  0.16931357  0.50436961  1
  Fe  Fe37  1  0.33900520  0.00526257  0.67140523  1
  Ni  Ni38  1  0.50322221  0.17063703  0.83684199  1
  Fe  Fe39  1  0.50410631  0.50172500  0.50312023  1
  Fe  Fe40  1  0.33664775  0.33628588  0.66978869  1
  Fe  Fe41  1  0.50614318  0.50227218  0.83659081  1
  Ni  Ni42  1  0.50476643  0.83701740  0.50317208  1
  Fe  Fe43  1  0.33832308  0.66898980  0.67039376  1
  Ni  Ni44  1  0.50427995  0.83631180  0.83604003  1
  Ni  Ni45  1  0.83635488  0.17203235  0.50438708  1
  Fe  Fe46  1  0.67100730  0.00368402  0.67106578  1
  Ni  Ni47  1  0.83714256  0.17114764  0.83660254  1
  Ni  Ni48  1  0.83692325  0.50304106  0.50371807  1
  Ni  Ni49  1  0.66997111  0.33705448  0.67144002  1
  Fe  Fe50  1  0.83541006  0.50276916  0.83726093  1
  Fe  Fe51  1  0.83696587  0.83818935  0.50434504  1
  Ni  Ni52  1  0.66878698  0.66923824  0.66899522  1
  Ni  Ni53  1  0.83661014  0.83465173  0.83619194  1
" 