1510,Ni50Fe47Cr2_5,-239.987768338258, 221.345779113334,Ni50Fe47Cr2,"# generated using pymatgen
 data_Cr2Fe25Ni27
_symmetry_space_group_name_H-M   'P 1'
_cell_length_a   7.40521045
_cell_length_b   7.40521045
_cell_length_c   10.47254906
_cell_angle_alpha   90.00000000
_cell_angle_beta   90.00000000
_cell_angle_gamma   90.00000000
_symmetry_Int_Tables_number   1
_chemical_formula_structural   Cr2Fe25Ni27
_chemical_formula_sum   'Cr2 Fe25 Ni27'
_cell_volume   574.28465844
_cell_formula_units_Z   1
loop_
 _symmetry_equiv_pos_site_id
 _symmetry_equiv_pos_as_xyz
  1  'x, y, z'
loop_
 _atom_site_type_symbol
 _atom_site_label
 _atom_site_symmetry_multiplicity
 _atom_site_fract_x
 _atom_site_fract_y
 _atom_site_fract_z
 _atom_site_occupancy
  Fe  Fe0  1  1.00279584  1.00231283  1.00283559  1
  Cr  Cr1  1  0.17026345  0.17162621  0.17192938  1
  Fe  Fe2  1  1.00293560  0.00429006  0.33917287  1
  Fe  Fe3  1  1.00285686  0.33977279  1.00416104  1
  Ni  Ni4  1  0.17148146  0.50561522  0.17122920  1
  Ni  Ni5  1  1.00325862  0.33836369  0.33828729  1
  Ni  Ni6  1  1.00412234  0.67090231  0.00466615  1
  Fe  Fe7  1  0.17047324  0.83492553  0.17077865  1
  Fe  Fe8  1  0.00455263  0.66988606  0.33730017  1
  Fe  Fe9  1  0.33852467  1.00243271  1.00227832  1
  Fe  Fe10  1  0.50619477  0.17223474  0.17086863  1
  Fe  Fe11  1  0.33853052  1.00409161  0.33869183  1
  Fe  Fe12  1  0.33820024  0.33938552  1.00392346  1
  Ni  Ni13  1  0.50405270  0.50441602  0.17021035  1
  Ni  Ni14  1  0.33805913  0.33889752  0.33827590  1
  Fe  Fe15  1  0.33713291  0.67071258  1.00417142  1
  Fe  Fe16  1  0.50461878  0.83673498  0.17054463  1
  Ni  Ni17  1  0.33640316  0.67045807  0.33670356  1
  Fe  Fe18  1  0.67120226  1.00337768  0.00443585  1
  Ni  Ni19  1  0.83577728  0.17071655  0.17043811  1
  Ni  Ni20  1  0.67122981  0.00533242  0.33726036  1
  Fe  Fe21  1  0.67146897  0.33837509  0.00440000  1
  Ni  Ni22  1  0.83699102  0.50368220  0.17209085  1
  Ni  Ni23  1  0.67120847  0.33629988  0.33607344  1
  Ni  Ni24  1  0.67175110  0.67061214  1.00415955  1
  Fe  Fe25  1  0.83743208  0.83669578  0.17052027  1
  Fe  Fe26  1  0.67033578  0.66970858  0.33740916  1
  Fe  Fe27  1  0.17028943  0.17071512  0.50401754  1
  Ni  Ni28  1  0.00513765  0.00545698  0.67138179  1
  Fe  Fe29  1  0.17090880  0.16989027  0.83740398  1
  Ni  Ni30  1  0.17314459  0.50370040  0.50267521  1
  Fe  Fe31  1  0.00421335  0.33638732  0.67047287  1
  Ni  Ni32  1  0.17131988  0.50382770  0.83862380  1
  Ni  Ni33  1  0.17137231  0.83806890  0.50304740  1
  Cr  Cr34  1  0.00430889  0.67174677  0.67082190  1
  Ni  Ni35  1  0.17174801  0.83792273  0.83856974  1
  Fe  Fe36  1  0.50431289  0.17100597  0.50438087  1
  Ni  Ni37  1  0.33658327  1.00384301  0.67063102  1
  Ni  Ni38  1  0.50427659  0.17005899  0.83777200  1
  Ni  Ni39  1  0.50310100  0.50399364  0.50496340  1
  Fe  Fe40  1  0.33778461  0.33802056  0.67054507  1
  Fe  Fe41  1  0.50470386  0.50539540  0.83702467  1
  Fe  Fe42  1  0.50391164  0.83681895  0.50469880  1
  Ni  Ni43  1  0.33892154  0.67171017  0.67218363  1
  Ni  Ni44  1  0.50421556  0.83834299  0.83635297  1
  Ni  Ni45  1  0.83732520  0.16973594  0.50450052  1
  Fe  Fe46  1  0.67078972  1.00349504  0.67060946  1
  Fe  Fe47  1  0.83766365  0.17047806  0.83711461  1
  Fe  Fe48  1  0.83672417  0.50339590  0.50355527  1
  Ni  Ni49  1  0.67079819  0.33769074  0.67118713  1
  Ni  Ni50  1  0.83728060  0.50376877  0.83766960  1
  Ni  Ni51  1  0.83702791  0.83992296  0.50335904  1
  Ni  Ni52  1  0.66918398  0.66994168  0.67082291  1
  Ni  Ni53  1  0.83656233  0.83826961  0.83826207  1
" 