6740,Ni50Fe17Cr31_2,-227.508269452323, 172.542922543666,Ni50Fe17Cr31,"# generated using pymatgen
 data_Cr2FeNi3
_symmetry_space_group_name_H-M   'P 1'
_cell_length_a   7.47224465
_cell_length_b   7.47224465
_cell_length_c   10.56734972
_cell_angle_alpha   90.00000000
_cell_angle_beta   90.00000000
_cell_angle_gamma   90.00000000
_symmetry_Int_Tables_number   1
_chemical_formula_structural   Cr2FeNi3
_chemical_formula_sum   'Cr18 Fe9 Ni27'
_cell_volume   590.02205498
_cell_formula_units_Z   9
loop_
 _symmetry_equiv_pos_site_id
 _symmetry_equiv_pos_as_xyz
  1  'x, y, z'
loop_
 _atom_site_type_symbol
 _atom_site_label
 _atom_site_symmetry_multiplicity
 _atom_site_fract_x
 _atom_site_fract_y
 _atom_site_fract_z
 _atom_site_occupancy
  Cr  Cr0  1  0.99683889  0.99871136  0.00064268  1
  Ni  Ni1  1  0.16240780  0.17014743  0.16608189  1
  Ni  Ni2  1  0.99691296  0.00039457  0.33327110  1
  Ni  Ni3  1  0.99760768  0.33384574  0.00358733  1
  Ni  Ni4  1  0.16526998  0.49723530  0.16716915  1
  Fe  Fe5  1  0.99890394  0.33231257  0.33198093  1
  Cr  Cr6  1  0.99776295  0.66624228  0.99915673  1
  Cr  Cr7  1  0.16682343  0.83155120  0.16748823  1
  Fe  Fe8  1  0.99882681  0.66592285  0.33231940  1
  Cr  Cr9  1  0.33187292  -0.00033423  0.99747725  1
  Cr  Cr10  1  0.50144231  0.16715912  0.16500318  1
  Cr  Cr11  1  0.32939724  0.00079013  0.33557977  1
  Fe  Fe12  1  0.33459105  0.33607519  0.00084666  1
  Ni  Ni13  1  0.50143434  0.50084372  0.16569934  1
  Cr  Cr14  1  0.33418108  0.33572320  0.33370090  1
  Ni  Ni15  1  0.33466539  0.66210654  0.00073441  1
  Cr  Cr16  1  0.50305945  0.82973410  0.16640103  1
  Ni  Ni17  1  0.33273756  0.66302199  0.33324021  1
  Ni  Ni18  1  0.66844121  0.00028161  0.00090862  1
  Fe  Fe19  1  0.83360478  0.16862409  0.16753737  1
  Fe  Fe20  1  0.66950609  0.00052613  0.33362284  1
  Ni  Ni21  1  0.66613304  0.33542742  0.99900534  1
  Ni  Ni22  1  0.83227694  0.49918733  0.16641330  1
  Ni  Ni23  1  0.66745057  0.33425564  0.33371588  1
  Ni  Ni24  1  0.66632935  0.66350140  0.99907730  1
  Ni  Ni25  1  0.83083152  0.83185906  0.16905946  1
  Ni  Ni26  1  0.66691591  0.66349355  0.33186553  1
  Ni  Ni27  1  0.16288081  0.16476557  0.50128311  1
  Ni  Ni28  1  0.00111652  0.99747693  0.66494062  1
  Cr  Cr29  1  0.16600243  0.16646516  0.83237472  1
  Fe  Fe30  1  0.16589656  0.49881388  0.49892526  1
  Ni  Ni31  1  -0.00003714  0.33210870  0.66377125  1
  Cr  Cr32  1  0.16280233  0.49912191  0.83387331  1
  Fe  Fe33  1  0.16297745  0.83347228  0.49979077  1
  Ni  Ni34  1  0.99834274  0.66958589  0.66619797  1
  Ni  Ni35  1  0.16492991  0.83295161  0.82995002  1
  Ni  Ni36  1  0.49989469  0.16634170  0.49947167  1
  Fe  Fe37  1  0.33076325  0.00000317  0.66534558  1
  Ni  Ni38  1  0.49970526  0.16739868  0.83414579  1
  Ni  Ni39  1  0.50116800  0.50106198  0.49733047  1
  Cr  Cr40  1  0.33583163  0.33204051  0.66425154  1
  Ni  Ni41  1  0.50285756  0.49977360  0.83601043  1
  Cr  Cr42  1  0.50085122  0.83118820  0.49727325  1
  Cr  Cr43  1  0.33315668  0.66519300  0.66536185  1
  Cr  Cr44  1  0.50067999  0.83242404  0.83535470  1
  Ni  Ni45  1  0.83621530  0.16581014  0.49665250  1
  Cr  Cr46  1  0.66843446  0.00043475  0.66528734  1
  Cr  Cr47  1  0.83363496  0.16936050  0.83415327  1
  Cr  Cr48  1  0.83396705  0.50032303  0.50112905  1
  Cr  Cr49  1  0.66486468  0.33504424  0.66640471  1
  Ni  Ni50  1  0.83166982  0.50171635  0.83224872  1
  Fe  Fe51  1  0.83456539  0.83431789  0.49892634  1
  Ni  Ni52  1  0.66874195  0.66549460  0.66817206  1
  Ni  Ni53  1  0.83308249  0.82989357  0.83100902  1
" 