2719,Ni50Fe25Cr24_18,-231.235523659407, 189.814101977689,Ni50Fe25Cr24,"# generated using pymatgen
 data_Cr14Fe13Ni27
_symmetry_space_group_name_H-M   'P 1'
_cell_length_a   7.45251405
_cell_length_b   7.45251405
_cell_length_c   10.53944645
_cell_angle_alpha   90.00000000
_cell_angle_beta   90.00000000
_cell_angle_gamma   90.00000000
_symmetry_Int_Tables_number   1
_chemical_formula_structural   Cr14Fe13Ni27
_chemical_formula_sum   'Cr14 Fe13 Ni27'
_cell_volume   585.36049466
_cell_formula_units_Z   1
loop_
 _symmetry_equiv_pos_site_id
 _symmetry_equiv_pos_as_xyz
  1  'x, y, z'
loop_
 _atom_site_type_symbol
 _atom_site_label
 _atom_site_symmetry_multiplicity
 _atom_site_fract_x
 _atom_site_fract_y
 _atom_site_fract_z
 _atom_site_occupancy
  Ni  Ni0  1  1.00053142  0.00245413  0.00124525  1
  Cr  Cr1  1  0.16782134  0.16844421  0.16903024  1
  Cr  Cr2  1  1.00006649  1.00005284  0.33454087  1
  Ni  Ni3  1  1.00037552  0.33236988  1.00056521  1
  Ni  Ni4  1  0.16921709  0.50091717  0.16911584  1
  Fe  Fe5  1  0.99738613  0.33569573  0.33395623  1
  Cr  Cr6  1  0.00377269  0.66686011  0.00195704  1
  Ni  Ni7  1  0.16850701  0.83395678  0.16665910  1
  Cr  Cr8  1  1.00096697  0.66878444  0.33282518  1
  Fe  Fe9  1  0.33292731  1.00079450  0.99856836  1
  Ni  Ni10  1  0.50273238  0.16888527  0.16880856  1
  Fe  Fe11  1  0.33609142  0.99987205  0.33534789  1
  Cr  Cr12  1  0.33646708  0.33652052  0.99880785  1
  Ni  Ni13  1  0.49905099  0.49944774  0.16840462  1
  Ni  Ni14  1  0.33773492  0.33456145  0.33289987  1
  Ni  Ni15  1  0.33438345  0.66703127  1.00015945  1
  Cr  Cr16  1  0.49966466  0.83505364  0.16648444  1
  Ni  Ni17  1  0.33353003  0.66677677  0.33248833  1
  Fe  Fe18  1  0.66699726  0.00381394  0.00098090  1
  Ni  Ni19  1  0.83321360  0.16807941  0.16560462  1
  Cr  Cr20  1  0.66883543  0.00312639  0.33663123  1
  Fe  Fe21  1  0.66812337  0.33351766  1.00023415  1
  Fe  Fe22  1  0.83474193  0.49721846  0.16713933  1
  Ni  Ni23  1  0.66674843  0.33302271  0.33233999  1
  Cr  Cr24  1  0.66515793  0.66442126  0.00244845  1
  Ni  Ni25  1  0.83490439  0.83710407  0.16688659  1
  Cr  Cr26  1  0.66818671  0.66564604  0.33347778  1
  Cr  Cr27  1  0.16917427  0.17009469  0.49966665  1
  Cr  Cr28  1  0.00209305  0.00184975  0.66810664  1
  Ni  Ni29  1  0.16715440  0.16824414  0.83377167  1
  Cr  Cr30  1  0.16762532  0.49989296  0.50262707  1
  Ni  Ni31  1  0.99933483  0.33440343  0.66891897  1
  Ni  Ni32  1  0.16701644  0.49947635  0.83142020  1
  Fe  Fe33  1  0.17008226  0.83255192  0.50174570  1
  Ni  Ni34  1  1.00055160  0.66692549  0.66767940  1
  Fe  Fe35  1  0.17055419  0.83366934  0.83476481  1
  Fe  Fe36  1  0.50208847  0.16995952  0.50232049  1
  Ni  Ni37  1  0.33541535  0.00133106  0.66776924  1
  Ni  Ni38  1  0.50090296  0.16595531  0.83246870  1
  Cr  Cr39  1  0.50077767  0.50152177  0.50245027  1
  Ni  Ni40  1  0.33583891  0.33289334  0.67022219  1
  Ni  Ni41  1  0.50126461  0.50227626  0.83218449  1
  Fe  Fe42  1  0.49954289  0.83455251  0.50318728  1
  Ni  Ni43  1  0.33483571  0.66881026  0.67040183  1
  Ni  Ni44  1  0.50040860  0.83470486  0.83318886  1
  Ni  Ni45  1  0.83283630  0.16990631  0.50284317  1
  Fe  Fe46  1  0.66486129  0.00203192  0.66661390  1
  Fe  Fe47  1  0.83334519  0.17061724  0.83517218  1
  Ni  Ni48  1  0.83355361  0.49904860  0.50212057  1
  Ni  Ni49  1  0.66753151  0.33412326  0.66922495  1
  Ni  Ni50  1  0.83482809  0.49977105  0.83217674  1
  Fe  Fe51  1  0.83357884  0.83243127  0.50329840  1
  Ni  Ni52  1  0.66765216  0.66679178  0.66709428  1
  Cr  Cr53  1  0.83166972  0.83439136  0.83360815  1
" 