5398,Ni50Fe47Cr2_0,-240.235804832945, 222.068977380762,Ni50Fe47Cr2,"# generated using pymatgen
 data_Cr2Fe25Ni27
_symmetry_space_group_name_H-M   'P 1'
_cell_length_a   7.40596736
_cell_length_b   7.40596736
_cell_length_c   10.47361949
_cell_angle_alpha   90.00000000
_cell_angle_beta   90.00000000
_cell_angle_gamma   90.00000000
_symmetry_Int_Tables_number   1
_chemical_formula_structural   Cr2Fe25Ni27
_chemical_formula_sum   'Cr2 Fe25 Ni27'
_cell_volume   574.46077483
_cell_formula_units_Z   1
loop_
 _symmetry_equiv_pos_site_id
 _symmetry_equiv_pos_as_xyz
  1  'x, y, z'
loop_
 _atom_site_type_symbol
 _atom_site_label
 _atom_site_symmetry_multiplicity
 _atom_site_fract_x
 _atom_site_fract_y
 _atom_site_fract_z
 _atom_site_occupancy
  Fe  Fe0  1  0.00444072  0.00421476  1.00408250  1
  Ni  Ni1  1  0.17143496  0.17107291  0.16998115  1
  Fe  Fe2  1  0.00454891  0.00444721  0.33782775  1
  Ni  Ni3  1  0.00493762  0.33753314  0.00486070  1
  Ni  Ni4  1  0.17092190  0.50316056  0.16945303  1
  Ni  Ni5  1  1.00388982  0.33746353  0.33709754  1
  Fe  Fe6  1  0.00463892  0.67093815  0.00492098  1
  Ni  Ni7  1  0.17063206  0.83813993  0.17051348  1
  Ni  Ni8  1  1.00307254  0.66992533  0.33794662  1
  Ni  Ni9  1  0.33805574  1.00216713  0.00448178  1
  Fe  Fe10  1  0.50313943  0.16962985  0.17130955  1
  Fe  Fe11  1  0.33597107  0.00637167  0.33668815  1
  Fe  Fe12  1  0.33564119  0.33718333  0.00485527  1
  Fe  Fe13  1  0.50378685  0.50419054  0.17135641  1
  Ni  Ni14  1  0.33665414  0.33645216  0.33649730  1
  Ni  Ni15  1  0.33699095  0.67181567  0.00470314  1
  Fe  Fe16  1  0.50477521  0.83854478  0.16920450  1
  Cr  Cr17  1  0.33618519  0.67055883  0.33733080  1
  Ni  Ni18  1  0.67057813  1.00288621  1.00412081  1
  Ni  Ni19  1  0.83777854  0.16963899  0.17163081  1
  Fe  Fe20  1  0.67184935  0.00440120  0.33742945  1
  Cr  Cr21  1  0.67356499  0.33641616  0.00425421  1
  Ni  Ni22  1  0.83780022  0.50508457  0.17249620  1
  Fe  Fe23  1  0.67118553  0.33814492  0.33720892  1
  Fe  Fe24  1  0.67083123  0.67243524  1.00397685  1
  Ni  Ni25  1  0.83665395  0.83764810  0.16959751  1
  Fe  Fe26  1  0.67310502  0.66982296  0.33793939  1
  Ni  Ni27  1  0.17089177  0.17128507  0.50449814  1
  Ni  Ni28  1  1.00300634  0.00576126  0.67086095  1
  Fe  Fe29  1  0.16953780  0.17132566  0.83742063  1
  Ni  Ni30  1  0.17190053  0.50301842  0.50511100  1
  Ni  Ni31  1  1.00383458  0.33658457  0.67041188  1
  Ni  Ni32  1  0.17152072  0.50483150  0.83780656  1
  Fe  Fe33  1  0.16955193  0.83808038  0.50515710  1
  Fe  Fe34  1  1.00392184  0.67122576  0.67058479  1
  Ni  Ni35  1  0.17197746  0.83689719  0.83695558  1
  Fe  Fe36  1  0.50403496  0.17112504  0.50396574  1
  Fe  Fe37  1  0.33705012  1.00362276  0.67126524  1
  Fe  Fe38  1  0.50359202  0.16973298  0.83709473  1
  Ni  Ni39  1  0.50383235  0.50378692  0.50543323  1
  Fe  Fe40  1  0.33730799  0.33791884  0.66969024  1
  Fe  Fe41  1  0.50315806  0.50561802  0.83592908  1
  Fe  Fe42  1  0.50517604  0.83805394  0.50562004  1
  Ni  Ni43  1  0.33824046  0.67063909  0.67032187  1
  Fe  Fe44  1  0.50412288  0.83701507  0.83754853  1
  Ni  Ni45  1  0.83739322  0.16946285  0.50406382  1
  Ni  Ni46  1  0.67155305  1.00388964  0.67114152  1
  Ni  Ni47  1  0.83706560  0.16995239  0.83667861  1
  Fe  Fe48  1  0.83817428  0.50377126  0.50403622  1
  Fe  Fe49  1  0.67147245  0.33744880  0.67110545  1
  Ni  Ni50  1  0.83781564  0.50413200  0.83579109  1
  Ni  Ni51  1  0.83662552  0.83832291  0.50468292  1
  Ni  Ni52  1  0.66918126  0.67146663  0.67085838  1
  Fe  Fe53  1  0.83767773  0.83742398  0.83688266  1
" 