4670,Ni50Fe25Cr24_1,-230.955600843223, 189.886541128784,Ni50Fe25Cr24,"# generated using pymatgen
 data_Cr14Fe13Ni27
_symmetry_space_group_name_H-M   'P 1'
_cell_length_a   7.45328494
_cell_length_b   7.45328494
_cell_length_c   10.54053664
_cell_angle_alpha   90.00000000
_cell_angle_beta   90.00000000
_cell_angle_gamma   90.00000000
_symmetry_Int_Tables_number   1
_chemical_formula_structural   Cr14Fe13Ni27
_chemical_formula_sum   'Cr14 Fe13 Ni27'
_cell_volume   585.54216128
_cell_formula_units_Z   1
loop_
 _symmetry_equiv_pos_site_id
 _symmetry_equiv_pos_as_xyz
  1  'x, y, z'
loop_
 _atom_site_type_symbol
 _atom_site_label
 _atom_site_symmetry_multiplicity
 _atom_site_fract_x
 _atom_site_fract_y
 _atom_site_fract_z
 _atom_site_occupancy
  Cr  Cr0  1  0.00183888  0.00169877  0.00171763  1
  Ni  Ni1  1  0.16974648  0.16574313  0.16895836  1
  Ni  Ni2  1  1.00024267  0.00390281  0.33453087  1
  Cr  Cr3  1  0.00196667  0.33492920  0.00274086  1
  Ni  Ni4  1  0.16771833  0.50074699  0.17019405  1
  Ni  Ni5  1  0.00278450  0.33237125  0.33431075  1
  Ni  Ni6  1  1.00024232  0.66651797  0.00175453  1
  Fe  Fe7  1  0.16877888  0.83391779  0.16954553  1
  Fe  Fe8  1  0.00104089  0.66621445  0.33322504  1
  Ni  Ni9  1  0.33617450  0.00180520  0.00153320  1
  Fe  Fe10  1  0.50144688  0.16876573  0.17060423  1
  Ni  Ni11  1  0.33519365  0.00197379  0.33342881  1
  Cr  Cr12  1  0.33588694  0.33341589  0.00138806  1
  Ni  Ni13  1  0.50277636  0.50069069  0.16832409  1
  Ni  Ni14  1  0.33291905  0.33433421  0.33399424  1
  Cr  Cr15  1  0.33632708  0.66682856  0.00214851  1
  Fe  Fe16  1  0.49982556  0.83412490  0.16911253  1
  Ni  Ni17  1  0.33581514  0.66632456  0.33340546  1
  Cr  Cr18  1  0.66510976  0.00112603  0.00169053  1
  Ni  Ni19  1  0.83374049  0.16937777  0.17060878  1
  Ni  Ni20  1  0.66775089  1.00063357  0.33669306  1
  Ni  Ni21  1  0.66576150  0.33541216  0.00273323  1
  Ni  Ni22  1  0.83222015  0.50030131  0.16748866  1
  Ni  Ni23  1  0.66742919  0.33328713  0.33260067  1
  Ni  Ni24  1  0.66634215  0.66699745  1.00004919  1
  Cr  Cr25  1  0.83448171  0.83288915  0.16730323  1
  Ni  Ni26  1  0.66560311  0.66891042  0.33338898  1
  Ni  Ni27  1  0.17051907  0.16867758  0.50086699  1
  Cr  Cr28  1  0.99804633  0.00259115  0.66606887  1
  Fe  Fe29  1  0.17050657  0.16775265  0.83299219  1
  Ni  Ni30  1  0.16938145  0.49825905  0.50065471  1
  Ni  Ni31  1  0.00421534  0.33262569  0.66630564  1
  Fe  Fe32  1  0.16851139  0.50074296  0.83272071  1
  Cr  Cr33  1  0.16958308  0.83433815  0.49706600  1
  Cr  Cr34  1  1.00049892  0.66705022  0.66683284  1
  Cr  Cr35  1  0.16908838  0.83519423  0.83609454  1
  Ni  Ni36  1  0.49966265  0.16690827  0.50070350  1
  Fe  Fe37  1  0.33608612  0.00155308  0.66701960  1
  Fe  Fe38  1  0.50004654  0.16662821  0.83245745  1
  Cr  Cr39  1  0.49948683  0.49931590  0.50049933  1
  Ni  Ni40  1  0.33351126  0.33400819  0.66873172  1
  Fe  Fe41  1  0.50173887  0.50168246  0.83330534  1
  Fe  Fe42  1  0.50083008  0.83469732  0.50060018  1
  Ni  Ni43  1  0.33772525  0.66570376  0.66782943  1
  Ni  Ni44  1  0.50066614  0.83501047  0.83254962  1
  Fe  Fe45  1  0.83422762  0.16855689  0.49870708  1
  Fe  Fe46  1  0.66458672  1.00004571  0.66605382  1
  Cr  Cr47  1  0.83254625  0.16912004  0.83329487  1
  Cr  Cr48  1  0.83354946  0.50067191  0.49829942  1
  Fe  Fe49  1  0.66607751  0.33452042  0.66685999  1
  Cr  Cr50  1  0.83230718  0.50123944  0.83586299  1
  Ni  Ni51  1  0.83144288  0.83538905  0.50076145  1
  Ni  Ni52  1  0.66481055  0.67127803  0.66867960  1
  Ni  Ni53  1  0.83103999  0.83305443  0.83456521  1
" 