5941,Ni50Fe27Cr21_13,-231.976644270124, 196.545915695783,Ni50Fe27Cr21,"# generated using pymatgen
 data_Cr13Fe14Ni27
_symmetry_space_group_name_H-M   'P 1'
_cell_length_a   7.44900662
_cell_length_b   7.44900662
_cell_length_c   10.53448619
_cell_angle_alpha   90.00000000
_cell_angle_beta   90.00000000
_cell_angle_gamma   90.00000000
_symmetry_Int_Tables_number   1
_chemical_formula_structural   Cr13Fe14Ni27
_chemical_formula_sum   'Cr13 Fe14 Ni27'
_cell_volume   584.53440526
_cell_formula_units_Z   1
loop_
 _symmetry_equiv_pos_site_id
 _symmetry_equiv_pos_as_xyz
  1  'x, y, z'
loop_
 _atom_site_type_symbol
 _atom_site_label
 _atom_site_symmetry_multiplicity
 _atom_site_fract_x
 _atom_site_fract_y
 _atom_site_fract_z
 _atom_site_occupancy
  Fe  Fe0  1  0.00271105  0.00321732  0.99917637  1
  Fe  Fe1  1  0.16862073  0.16868610  0.16736028  1
  Fe  Fe2  1  1.00112192  0.00169855  0.33637741  1
  Ni  Ni3  1  0.99942283  0.33457557  0.00127914  1
  Ni  Ni4  1  0.16971272  0.50070121  0.16933886  1
  Fe  Fe5  1  0.00131864  0.33546669  0.33417933  1
  Cr  Cr6  1  0.00297705  0.66616516  1.00043874  1
  Ni  Ni7  1  0.16957422  0.83462671  0.16612344  1
  Cr  Cr8  1  0.00162323  0.66727590  0.33559024  1
  Ni  Ni9  1  0.33447616  1.00022942  1.00114714  1
  Ni  Ni10  1  0.50148857  0.17010012  0.16752571  1
  Cr  Cr11  1  0.33539911  1.00118740  0.33412632  1
  Cr  Cr12  1  0.33551436  0.33341506  0.00178700  1
  Ni  Ni13  1  0.50009458  0.49991914  0.16907557  1
  Ni  Ni14  1  0.33600116  0.33525593  0.33312842  1
  Ni  Ni15  1  0.33277648  0.67023897  1.00118526  1
  Cr  Cr16  1  0.49926280  0.83289849  0.16780958  1
  Ni  Ni17  1  0.33309837  0.66730540  0.33423586  1
  Ni  Ni18  1  0.66626149  0.00398862  0.99912428  1
  Cr  Cr19  1  0.83503456  0.16935203  0.16759737  1
  Fe  Fe20  1  0.66765044  0.00220473  0.33656643  1
  Ni  Ni21  1  0.66949665  0.33287209  1.00101305  1
  Ni  Ni22  1  0.83382408  0.49765602  0.16788112  1
  Ni  Ni23  1  0.66805929  0.33403406  0.33373586  1
  Cr  Cr24  1  0.66771764  0.66562335  1.00100092  1
  Cr  Cr25  1  0.83473719  0.83621216  0.16837798  1
  Fe  Fe26  1  0.66650299  0.66615211  0.33535728  1
  Cr  Cr27  1  0.16562055  0.16905288  0.50047934  1
  Ni  Ni28  1  0.99893121  0.99935201  0.66820840  1
  Ni  Ni29  1  0.16494562  0.16773223  0.83621504  1
  Fe  Fe30  1  0.16860260  0.50292296  0.50059695  1
  Cr  Cr31  1  0.99977429  0.33512240  0.66768679  1
  Ni  Ni32  1  0.17081270  0.50041574  0.83351877  1
  Ni  Ni33  1  0.16803969  0.83393226  0.50191383  1
  Cr  Cr34  1  0.00138883  0.66926244  0.66759917  1
  Fe  Fe35  1  0.16955364  0.83517603  0.83519529  1
  Fe  Fe36  1  0.50482000  0.16795105  0.50053503  1
  Cr  Cr37  1  0.33550211  1.00085010  0.66822728  1
  Fe  Fe38  1  0.50231373  0.16862773  0.83532237  1
  Cr  Cr39  1  0.49995553  0.50248140  0.50147795  1
  Ni  Ni40  1  0.33718832  0.33567799  0.66879589  1
  Ni  Ni41  1  0.50008365  0.50286519  0.83327294  1
  Ni  Ni42  1  0.50245285  0.83295261  0.50097298  1
  Ni  Ni43  1  0.33455759  0.66796789  0.66821024  1
  Ni  Ni44  1  0.50102050  0.83279184  0.83484721  1
  Ni  Ni45  1  0.83390759  0.16655327  0.50056343  1
  Fe  Fe46  1  0.66932300  0.00138032  0.66800150  1
  Ni  Ni47  1  0.83543355  0.16679241  0.83528473  1
  Ni  Ni48  1  0.83292632  0.49980405  0.50060116  1
  Ni  Ni49  1  0.66723791  0.33341221  0.66888238  1
  Fe  Fe50  1  0.83301641  0.49857179  0.83487816  1
  Ni  Ni51  1  0.83313850  0.83727546  0.50158442  1
  Fe  Fe52  1  0.66650727  0.66827843  0.66835693  1
  Fe  Fe53  1  0.83385989  0.83713119  0.83362500  1
" 