1775,Ni50Fe25Cr24_6,-230.771064138777, 185.05836723175,Ni50Fe25Cr24,"# generated using pymatgen
 data_Cr14Fe13Ni27
_symmetry_space_group_name_H-M   'P 1'
_cell_length_a   7.45412168
_cell_length_b   7.45412168
_cell_length_c   10.54171997
_cell_angle_alpha   90.00000000
_cell_angle_beta   90.00000000
_cell_angle_gamma   90.00000000
_symmetry_Int_Tables_number   1
_chemical_formula_structural   Cr14Fe13Ni27
_chemical_formula_sum   'Cr14 Fe13 Ni27'
_cell_volume   585.73939000
_cell_formula_units_Z   1
loop_
 _symmetry_equiv_pos_site_id
 _symmetry_equiv_pos_as_xyz
  1  'x, y, z'
loop_
 _atom_site_type_symbol
 _atom_site_label
 _atom_site_symmetry_multiplicity
 _atom_site_fract_x
 _atom_site_fract_y
 _atom_site_fract_z
 _atom_site_occupancy
  Cr  Cr0  1  0.00138014  1.00043106  0.00088499  1
  Ni  Ni1  1  0.17032352  0.16686015  0.16901022  1
  Fe  Fe2  1  0.00182863  0.00112175  0.33312214  1
  Cr  Cr3  1  0.99948439  0.33394537  0.99889234  1
  Cr  Cr4  1  0.16638679  0.50050196  0.16948194  1
  Ni  Ni5  1  0.00111669  0.33334152  0.33464008  1
  Fe  Fe6  1  0.99913281  0.66813028  1.00080453  1
  Ni  Ni7  1  0.16799843  0.83292579  0.16663504  1
  Ni  Ni8  1  0.00127755  0.66786794  0.33176355  1
  Fe  Fe9  1  0.33602392  1.00057569  0.00102748  1
  Ni  Ni10  1  0.50101280  0.16812911  0.16601909  1
  Cr  Cr11  1  0.33476081  1.00079448  0.33071158  1
  Cr  Cr12  1  0.33568208  0.33414608  1.00065442  1
  Fe  Fe13  1  0.50112203  0.49931369  0.16660670  1
  Ni  Ni14  1  0.33584392  0.33412066  0.33472967  1
  Ni  Ni15  1  0.33590015  0.66993159  0.00098028  1
  Fe  Fe16  1  0.50040265  0.83461033  0.16459206  1
  Ni  Ni17  1  0.33388606  0.66615326  0.33381900  1
  Ni  Ni18  1  0.66734114  0.99936044  1.00056984  1
  Cr  Cr19  1  0.83256971  0.16989178  0.17009565  1
  Fe  Fe20  1  0.66629821  0.00297448  0.33397449  1
  Ni  Ni21  1  0.66699304  0.33458631  0.99991126  1
  Ni  Ni22  1  0.83256991  0.50239109  0.16609190  1
  Ni  Ni23  1  0.66555997  0.33369587  0.33402192  1
  Fe  Fe24  1  0.66713256  0.66735384  1.00001543  1
  Ni  Ni25  1  0.83444451  0.83228297  0.16776728  1
  Cr  Cr26  1  0.66437583  0.66721084  0.33077174  1
  Ni  Ni27  1  0.17067304  0.16965440  0.49903813  1
  Cr  Cr28  1  1.00042287  0.00166305  0.66826257  1
  Ni  Ni29  1  0.17140049  0.16695163  0.83374160  1
  Fe  Fe30  1  0.16974976  0.50016712  0.49972905  1
  Cr  Cr31  1  0.00152967  0.33429272  0.66946851  1
  Fe  Fe32  1  0.16954888  0.50338239  0.83397605  1
  Cr  Cr33  1  0.16818642  0.83268928  0.50196355  1
  Ni  Ni34  1  0.00289646  0.66694963  0.67134957  1
  Fe  Fe35  1  0.16902996  0.83211946  0.83449668  1
  Ni  Ni36  1  0.49998996  0.16969054  0.50312808  1
  Ni  Ni37  1  0.33526622  0.00217086  0.67139900  1
  Fe  Fe38  1  0.50383061  0.16747700  0.83381481  1
  Fe  Fe39  1  0.49800224  0.49824050  0.50138408  1
  Ni  Ni40  1  0.33511009  0.33416239  0.66736820  1
  Ni  Ni41  1  0.50071859  0.50108555  0.83348336  1
  Cr  Cr42  1  0.49950624  0.83621783  0.50248376  1
  Ni  Ni43  1  0.33335912  0.66590374  0.66813173  1
  Ni  Ni44  1  0.49969332  0.83451204  0.83481550  1
  Fe  Fe45  1  0.83212069  0.16765248  0.50007358  1
  Ni  Ni46  1  0.66622440  0.00290114  0.66845149  1
  Ni  Ni47  1  0.83160331  0.16777290  0.83282958  1
  Cr  Cr48  1  0.83539574  0.50005744  0.50074879  1
  Ni  Ni49  1  0.66559223  0.33236019  0.66897740  1
  Ni  Ni50  1  0.83240499  0.50146629  0.83580751  1
  Cr  Cr51  1  0.83470568  0.83467416  0.50006699  1
  Cr  Cr52  1  0.66668901  0.66669559  0.67000682  1
  Ni  Ni53  1  0.83232154  0.83326110  0.83422875  1
" 