7388,Ni50Fe44Cr5_11,-238.036883033566, 212.238257654467,Ni50Fe44Cr5,"# generated using pymatgen
 data_Cr4Fe23Ni27
_symmetry_space_group_name_H-M   'P 1'
_cell_length_a   7.41203877
_cell_length_b   7.41203877
_cell_length_c   10.48220575
_cell_angle_alpha   90.00000000
_cell_angle_beta   90.00000000
_cell_angle_gamma   90.00000000
_symmetry_Int_Tables_number   1
_chemical_formula_structural   Cr4Fe23Ni27
_chemical_formula_sum   'Cr4 Fe23 Ni27'
_cell_volume   575.87475988
_cell_formula_units_Z   1
loop_
 _symmetry_equiv_pos_site_id
 _symmetry_equiv_pos_as_xyz
  1  'x, y, z'
loop_
 _atom_site_type_symbol
 _atom_site_label
 _atom_site_symmetry_multiplicity
 _atom_site_fract_x
 _atom_site_fract_y
 _atom_site_fract_z
 _atom_site_occupancy
  Fe  Fe0  1  1.00314312  1.00293757  0.00388784  1
  Ni  Ni1  1  0.17081485  0.17162902  0.17112959  1
  Ni  Ni2  1  0.00429266  0.00395663  0.33733079  1
  Ni  Ni3  1  0.00431969  0.33654291  1.00313199  1
  Ni  Ni4  1  0.17144145  0.50242820  0.17060384  1
  Ni  Ni5  1  0.00571342  0.33589907  0.33852851  1
  Ni  Ni6  1  0.00454445  0.67009538  1.00228249  1
  Fe  Fe7  1  0.17103362  0.83658368  0.17076241  1
  Ni  Ni8  1  0.00483613  0.67127337  0.33801961  1
  Fe  Fe9  1  0.33726825  1.00269829  0.00396610  1
  Ni  Ni10  1  0.50247464  0.16928928  0.16888263  1
  Ni  Ni11  1  0.33610217  1.00266219  0.33599027  1
  Fe  Fe12  1  0.33708963  0.33830715  0.00447414  1
  Ni  Ni13  1  0.50104485  0.50396634  0.17037402  1
  Ni  Ni14  1  0.33494726  0.33746067  0.33647584  1
  Ni  Ni15  1  0.33738456  0.67054564  1.00294202  1
  Ni  Ni16  1  0.50491628  0.83787950  0.17128611  1
  Ni  Ni17  1  0.33712017  0.67100982  0.33801019  1
  Ni  Ni18  1  0.66977211  1.00369982  1.00329116  1
  Fe  Fe19  1  0.83764171  0.16837163  0.16915986  1
  Fe  Fe20  1  0.67094732  1.00114979  0.33578991  1
  Fe  Fe21  1  0.66974072  0.33706545  1.00300367  1
  Cr  Cr22  1  0.83905946  0.50536428  0.16923080  1
  Cr  Cr23  1  0.67057127  0.33746841  0.33602356  1
  Ni  Ni24  1  0.66920355  0.67158778  1.00315925  1
  Ni  Ni25  1  0.83631007  0.83851005  0.17024916  1
  Fe  Fe26  1  0.66953205  0.67306004  0.33774444  1
  Fe  Fe27  1  0.16829008  0.17019394  0.50185992  1
  Fe  Fe28  1  1.00178478  1.00304164  0.66994301  1
  Fe  Fe29  1  0.16988954  0.17126946  0.83815293  1
  Ni  Ni30  1  0.16978574  0.50353361  0.50323737  1
  Fe  Fe31  1  1.00352479  0.33733848  0.67064644  1
  Ni  Ni32  1  0.17055890  0.50403086  0.83729714  1
  Ni  Ni33  1  0.16897297  0.83529464  0.50228147  1
  Fe  Fe34  1  0.00408806  0.67074752  0.67006736  1
  Ni  Ni35  1  0.16975775  0.83545645  0.83806589  1
  Cr  Cr36  1  0.50366706  0.16961443  0.50345079  1
  Cr  Cr37  1  0.33610930  1.00223097  0.67142527  1
  Fe  Fe38  1  0.50416015  0.17087822  0.83794372  1
  Fe  Fe39  1  0.50259731  0.50716370  0.50445291  1
  Fe  Fe40  1  0.33670032  0.34014014  0.67083074  1
  Ni  Ni41  1  0.50313488  0.50384632  0.83665846  1
  Ni  Ni42  1  0.50524840  0.83571117  0.50253543  1
  Fe  Fe43  1  0.33731756  0.66912067  0.67066751  1
  Ni  Ni44  1  0.50453030  0.83623954  0.83731272  1
  Fe  Fe45  1  0.83994851  0.16892669  0.50474031  1
  Fe  Fe46  1  0.67253061  1.00242461  0.67147594  1
  Ni  Ni47  1  0.83665337  0.17024686  0.83706482  1
  Fe  Fe48  1  0.83809803  0.50566109  0.50422241  1
  Fe  Fe49  1  0.67090666  0.33784258  0.67129857  1
  Fe  Fe50  1  0.83704342  0.50436332  0.83743274  1
  Ni  Ni51  1  0.83691263  0.83736485  0.50408898  1
  Ni  Ni52  1  0.67025534  0.66998697  0.67012279  1
  Fe  Fe53  1  0.83665000  0.83627129  0.83737609  1
" 