4933,Ni50Fe17Cr31_0,-227.763482373035, 175.997426771811,Ni50Fe17Cr31,"# generated using pymatgen
 data_Cr2FeNi3
_symmetry_space_group_name_H-M   'P 1'
_cell_length_a   7.47217987
_cell_length_b   7.47217987
_cell_length_c   10.56725812
_cell_angle_alpha   90.00000000
_cell_angle_beta   90.00000000
_cell_angle_gamma   90.00000000
_symmetry_Int_Tables_number   1
_chemical_formula_structural   Cr2FeNi3
_chemical_formula_sum   'Cr18 Fe9 Ni27'
_cell_volume   590.00671048
_cell_formula_units_Z   9
loop_
 _symmetry_equiv_pos_site_id
 _symmetry_equiv_pos_as_xyz
  1  'x, y, z'
loop_
 _atom_site_type_symbol
 _atom_site_label
 _atom_site_symmetry_multiplicity
 _atom_site_fract_x
 _atom_site_fract_y
 _atom_site_fract_z
 _atom_site_occupancy
  Ni  Ni0  1  0.99801701  0.99739253  0.99579231  1
  Cr  Cr1  1  0.16769059  0.16651599  0.16724323  1
  Cr  Cr2  1  0.00067606  0.99898887  0.33464132  1
  Cr  Cr3  1  -0.00025523  0.33428740  0.99733848  1
  Fe  Fe4  1  0.16655106  0.49840385  0.16755986  1
  Ni  Ni5  1  -0.00030584  0.33723502  0.33354871  1
  Cr  Cr6  1  0.99867356  0.66632802  0.00058103  1
  Cr  Cr7  1  0.16572875  0.83076391  0.16702910  1
  Fe  Fe8  1  0.99834179  0.66487021  0.33320785  1
  Cr  Cr9  1  0.33388610  0.00045671  0.99824355  1
  Ni  Ni10  1  0.50075300  0.16741651  0.16727714  1
  Ni  Ni11  1  0.33519676  0.99910610  0.33550041  1
  Ni  Ni12  1  0.33259820  0.33370451  0.00007993  1
  Cr  Cr13  1  0.49890950  0.49745779  0.16529049  1
  Ni  Ni14  1  0.33359071  0.33283559  0.33285721  1
  Fe  Fe15  1  0.33262008  0.66647127  0.99768030  1
  Cr  Cr16  1  0.49916238  0.83406404  0.16679326  1
  Fe  Fe17  1  0.33463546  0.66660699  0.33470910  1
  Ni  Ni18  1  0.66730865  0.99901042  0.99961169  1
  Cr  Cr19  1  0.83060282  0.16647195  0.16526820  1
  Ni  Ni20  1  0.66283187  0.99770739  0.33131130  1
  Ni  Ni21  1  0.66650006  0.33291415  0.99952194  1
  Ni  Ni22  1  0.83298899  0.49961054  0.16969161  1
  Ni  Ni23  1  0.66588562  0.33525769  0.33336753  1
  Cr  Cr24  1  0.66885681  0.66783841  0.99799341  1
  Fe  Fe25  1  0.83188388  0.83362822  0.16649697  1
  Fe  Fe26  1  0.66585823  0.66518471  0.33365198  1
  Ni  Ni27  1  0.16693252  0.16397872  0.49841292  1
  Fe  Fe28  1  0.00066626  0.99923716  0.66798667  1
  Ni  Ni29  1  0.16463416  0.16425601  0.83284741  1
  Cr  Cr30  1  0.16600231  0.50109195  0.49743424  1
  Cr  Cr31  1  0.99938998  0.33517457  0.66780221  1
  Ni  Ni32  1  0.16648421  0.50226558  0.83513496  1
  Ni  Ni33  1  0.16854166  0.83333565  0.50113470  1
  Ni  Ni34  1  0.99894636  0.66749929  0.66730355  1
  Ni  Ni35  1  0.16588309  0.83230317  0.83082097  1
  Cr  Cr36  1  0.50085688  0.16640414  0.49781573  1
  Ni  Ni37  1  0.33271186  0.99591356  0.66504655  1
  Cr  Cr38  1  0.50261280  0.16642161  0.83495073  1
  Ni  Ni39  1  0.50207345  0.50212276  0.49909086  1
  Cr  Cr40  1  0.33238583  0.33055712  0.66572527  1
  Cr  Cr41  1  0.49945938  0.50083169  0.83252642  1
  Ni  Ni42  1  0.49831603  0.83103858  0.49965142  1
  Fe  Fe43  1  0.33292326  0.66773173  0.66612550  1
  Ni  Ni44  1  0.49929806  0.83284701  0.83136489  1
  Cr  Cr45  1  0.83321583  0.16808215  0.50077017  1
  Ni  Ni46  1  0.66394020  0.99655763  0.66848331  1
  Ni  Ni47  1  0.83274806  0.16474587  0.83336223  1
  Ni  Ni48  1  0.83059519  0.50067121  0.49912620  1
  Ni  Ni49  1  0.66780174  0.33485308  0.66627552  1
  Ni  Ni50  1  0.83280997  0.49974882  0.83081802  1
  Cr  Cr51  1  0.83278584  0.83180014  0.49987998  1
  Fe  Fe52  1  0.66660260  0.66670068  0.66646853  1
  Ni  Ni53  1  0.83365066  0.83475642  0.83280822  1
" 