7261,Ni50Fe25Cr24_0,-230.932149522446, 185.86586794325,Ni50Fe25Cr24,"# generated using pymatgen
 data_Cr14Fe13Ni27
_symmetry_space_group_name_H-M   'P 1'
_cell_length_a   7.45312996
_cell_length_b   7.45312996
_cell_length_c   10.54031747
_cell_angle_alpha   90.00000000
_cell_angle_beta   90.00000000
_cell_angle_gamma   90.00000000
_symmetry_Int_Tables_number   1
_chemical_formula_structural   Cr14Fe13Ni27
_chemical_formula_sum   'Cr14 Fe13 Ni27'
_cell_volume   585.50563587
_cell_formula_units_Z   1
loop_
 _symmetry_equiv_pos_site_id
 _symmetry_equiv_pos_as_xyz
  1  'x, y, z'
loop_
 _atom_site_type_symbol
 _atom_site_label
 _atom_site_symmetry_multiplicity
 _atom_site_fract_x
 _atom_site_fract_y
 _atom_site_fract_z
 _atom_site_occupancy
  Cr  Cr0  1  0.00262354  0.00647483  0.99944706  1
  Ni  Ni1  1  0.16820583  0.16852266  0.17039319  1
  Ni  Ni2  1  0.00396609  0.00408505  0.33697874  1
  Ni  Ni3  1  0.00317121  0.33441124  0.99973719  1
  Ni  Ni4  1  0.16877297  0.50005288  0.16742383  1
  Ni  Ni5  1  0.00190467  0.33256362  0.33346759  1
  Fe  Fe6  1  0.00185808  0.66476472  0.99932335  1
  Cr  Cr7  1  0.16719705  0.83351546  0.16890566  1
  Ni  Ni8  1  0.00331132  0.66622783  0.33485194  1
  Fe  Fe9  1  0.33530927  1.00092933  0.99901380  1
  Cr  Cr10  1  0.49969872  0.16830796  0.16829372  1
  Ni  Ni11  1  0.33184736  1.00018082  0.33448251  1
  Cr  Cr12  1  0.33069620  0.33416417  0.99935940  1
  Ni  Ni13  1  0.49868969  0.50081610  0.16988880  1
  Ni  Ni14  1  0.33286509  0.33527859  0.33419984  1
  Fe  Fe15  1  0.33545302  0.66728174  1.00065761  1
  Fe  Fe16  1  0.49844816  0.83220505  0.16685604  1
  Ni  Ni17  1  0.33460212  0.66746366  0.33493013  1
  Ni  Ni18  1  0.66509982  0.99875984  0.99925334  1
  Fe  Fe19  1  0.83716957  0.16916780  0.16825268  1
  Cr  Cr20  1  0.66735838  0.00094027  0.33369906  1
  Cr  Cr21  1  0.66883326  0.33437564  1.00005300  1
  Cr  Cr22  1  0.83566858  0.50141084  0.16818539  1
  Ni  Ni23  1  0.66841488  0.33535029  0.33570186  1
  Ni  Ni24  1  0.66344504  0.66829799  0.99999149  1
  Cr  Cr25  1  0.83551041  0.83440062  0.16692203  1
  Cr  Cr26  1  0.66480422  0.66600786  0.33655644  1
  Fe  Fe27  1  0.16687111  0.16732790  0.50140905  1
  Fe  Fe28  1  0.00304018  0.00298837  0.66756917  1
  Ni  Ni29  1  0.16876769  0.16645457  0.83182504  1
  Cr  Cr30  1  0.16881592  0.50054537  0.49906304  1
  Ni  Ni31  1  1.00013856  0.33165769  0.66950162  1
  Fe  Fe32  1  0.16643267  0.49941530  0.83414083  1
  Ni  Ni33  1  0.16987349  0.83640888  0.49974531  1
  Cr  Cr34  1  1.00069915  0.66503082  0.66830689  1
  Ni  Ni35  1  0.17008734  0.83403011  0.83446200  1
  Cr  Cr36  1  0.49894946  0.17022646  0.50155451  1
  Ni  Ni37  1  0.33336579  1.00029843  0.66893999  1
  Ni  Ni38  1  0.50074787  0.16774916  0.83294552  1
  Ni  Ni39  1  0.50104276  0.50017321  0.50108020  1
  Fe  Fe40  1  0.33401753  0.33528872  0.66916255  1
  Ni  Ni41  1  0.50125889  0.50109978  0.83221283  1
  Ni  Ni42  1  0.49696445  0.83440992  0.50234603  1
  Fe  Fe43  1  0.33501625  0.66847572  0.66705147  1
  Fe  Fe44  1  0.50025581  0.83463229  0.83294853  1
  Ni  Ni45  1  0.83551386  0.17034989  0.50090793  1
  Fe  Fe46  1  0.66738147  0.00181120  0.66815513  1
  Ni  Ni47  1  0.83357648  0.16886100  0.83388777  1
  Ni  Ni48  1  0.83383001  0.49767517  0.50096240  1
  Fe  Fe49  1  0.66903262  0.33550465  0.66803134  1
  Ni  Ni50  1  0.83305565  0.50028053  0.83458539  1
  Cr  Cr51  1  0.83736349  0.83444334  0.50147498  1
  Ni  Ni52  1  0.66438781  0.66586971  0.66695565  1
  Cr  Cr53  1  0.83500773  0.83345357  0.83436778  1
" 