6039,Ni50Fe17Cr31_8,-227.406937727367, 173.96869963635,Ni50Fe17Cr31,"# generated using pymatgen
 data_Cr2FeNi3
_symmetry_space_group_name_H-M   'P 1'
_cell_length_a   7.47118327
_cell_length_b   7.47118327
_cell_length_c   10.56584871
_cell_angle_alpha   90.00000000
_cell_angle_beta   90.00000000
_cell_angle_gamma   90.00000000
_symmetry_Int_Tables_number   1
_chemical_formula_structural   Cr2FeNi3
_chemical_formula_sum   'Cr18 Fe9 Ni27'
_cell_volume   589.77066524
_cell_formula_units_Z   9
loop_
 _symmetry_equiv_pos_site_id
 _symmetry_equiv_pos_as_xyz
  1  'x, y, z'
loop_
 _atom_site_type_symbol
 _atom_site_label
 _atom_site_symmetry_multiplicity
 _atom_site_fract_x
 _atom_site_fract_y
 _atom_site_fract_z
 _atom_site_occupancy
  Fe  Fe0  1  -0.00009123  0.99710729  0.99788715  1
  Cr  Cr1  1  0.16952120  0.16503112  0.16731660  1
  Cr  Cr2  1  0.00066706  -0.00005729  0.33496750  1
  Cr  Cr3  1  0.99964157  0.33418772  -0.00025214  1
  Ni  Ni4  1  0.16482638  0.50336572  0.16773045  1
  Ni  Ni5  1  0.00206831  0.33452111  0.33390752  1
  Ni  Ni6  1  -0.00013280  0.66676262  0.00108762  1
  Ni  Ni7  1  0.16887353  0.82986363  0.16577252  1
  Ni  Ni8  1  0.00174408  0.66451102  0.33120160  1
  Ni  Ni9  1  0.33493677  0.99758478  0.00186644  1
  Ni  Ni10  1  0.49941622  0.16352480  0.16648055  1
  Fe  Fe11  1  0.33446171  0.99747362  0.33281549  1
  Cr  Cr12  1  0.33249339  0.33337599  0.99834375  1
  Cr  Cr13  1  0.50012104  0.50037497  0.16674502  1
  Ni  Ni14  1  0.32981774  0.33237128  0.33264155  1
  Ni  Ni15  1  0.33329320  0.66870703  0.99860515  1
  Ni  Ni16  1  0.49789060  0.83448377  0.16612660  1
  Ni  Ni17  1  0.33221245  0.66870366  0.33311057  1
  Ni  Ni18  1  0.66496831  0.99783518  0.99820262  1
  Cr  Cr19  1  0.83027252  0.16713760  0.16508544  1
  Ni  Ni20  1  0.66305559  0.99775699  0.33417648  1
  Fe  Fe21  1  0.66584781  0.33369619  0.99932024  1
  Ni  Ni22  1  0.83474805  0.50186437  0.16697983  1
  Cr  Cr23  1  0.66783093  0.33229073  0.33158335  1
  Ni  Ni24  1  0.66606649  0.66907534  0.99902660  1
  Cr  Cr25  1  0.83322644  0.83003537  0.16517912  1
  Ni  Ni26  1  0.66524390  0.66960109  0.33237238  1
  Ni  Ni27  1  0.16410167  0.16535539  0.49913603  1
  Fe  Fe28  1  0.99781234  0.00224772  0.66628378  1
  Ni  Ni29  1  0.16371577  0.16552211  0.83269009  1
  Cr  Cr30  1  0.16588104  0.50042607  0.49899667  1
  Ni  Ni31  1  0.99875779  0.32992568  0.66626167  1
  Fe  Fe32  1  0.16626430  0.49984633  0.83311992  1
  Ni  Ni33  1  0.16798231  0.83347353  0.49908015  1
  Fe  Fe34  1  0.99953486  0.66649135  0.66703167  1
  Cr  Cr35  1  0.16489446  0.83285527  0.83482704  1
  Cr  Cr36  1  0.50046560  0.16545288  0.49732644  1
  Cr  Cr37  1  0.33217771  0.99784161  0.66420407  1
  Cr  Cr38  1  0.50142275  0.16746755  0.83513939  1
  Cr  Cr39  1  0.50016415  0.50190143  0.49998838  1
  Cr  Cr40  1  0.33067265  0.33383682  0.66832419  1
  Ni  Ni41  1  0.50025596  0.50205761  0.83248169  1
  Ni  Ni42  1  0.49872932  0.83240670  0.49920569  1
  Fe  Fe43  1  0.33463622  0.66630366  0.66670726  1
  Fe  Fe44  1  0.50252936  0.83135585  0.83446476  1
  Ni  Ni45  1  0.83480897  0.16634310  0.50228676  1
  Fe  Fe46  1  0.66907438  -0.00011190  0.66692024  1
  Ni  Ni47  1  0.83385388  0.16426845  0.83161416  1
  Cr  Cr48  1  0.83314595  0.49905399  0.49882350  1
  Ni  Ni49  1  0.66991041  0.33326017  0.66780446  1
  Cr  Cr50  1  0.83086276  0.50086382  0.83265056  1
  Cr  Cr51  1  0.83260518  0.83308638  0.50044047  1
  Ni  Ni52  1  0.66516888  0.66814226  0.66777363  1
  Ni  Ni53  1  0.83260425  0.83419464  0.83319154  1
" 