2360,Ni50Fe44Cr5_0,-238.394012694415, 215.171817286578,Ni50Fe44Cr5,"# generated using pymatgen
 data_Cr4Fe23Ni27
_symmetry_space_group_name_H-M   'P 1'
_cell_length_a   7.41145272
_cell_length_b   7.41145272
_cell_length_c   10.48137696
_cell_angle_alpha   90.00000000
_cell_angle_beta   90.00000000
_cell_angle_gamma   90.00000000
_symmetry_Int_Tables_number   1
_chemical_formula_structural   Cr4Fe23Ni27
_chemical_formula_sum   'Cr4 Fe23 Ni27'
_cell_volume   575.73817394
_cell_formula_units_Z   1
loop_
 _symmetry_equiv_pos_site_id
 _symmetry_equiv_pos_as_xyz
  1  'x, y, z'
loop_
 _atom_site_type_symbol
 _atom_site_label
 _atom_site_symmetry_multiplicity
 _atom_site_fract_x
 _atom_site_fract_y
 _atom_site_fract_z
 _atom_site_occupancy
  Ni  Ni0  1  0.00414975  1.00193502  1.00255405  1
  Cr  Cr1  1  0.16946282  0.17139434  0.16956938  1
  Ni  Ni2  1  0.00422925  1.00247454  0.33739878  1
  Fe  Fe3  1  1.00239557  0.33724887  1.00317784  1
  Ni  Ni4  1  0.17144010  0.50433978  0.17118758  1
  Fe  Fe5  1  1.00152220  0.33767899  0.33821745  1
  Fe  Fe6  1  1.00324650  0.67130116  1.00364341  1
  Fe  Fe7  1  0.16997470  0.83563413  0.17011999  1
  Ni  Ni8  1  0.00502518  0.67007235  0.33505352  1
  Ni  Ni9  1  0.33688242  1.00305657  1.00301796  1
  Fe  Fe10  1  0.50611880  0.17039785  0.16969747  1
  Fe  Fe11  1  0.33825579  1.00243470  0.33795720  1
  Fe  Fe12  1  0.33858028  0.33749591  1.00255603  1
  Ni  Ni13  1  0.50302689  0.50478920  0.17009566  1
  Fe  Fe14  1  0.33792648  0.33820033  0.33813271  1
  Fe  Fe15  1  0.33783763  0.67116106  0.00381391  1
  Ni  Ni16  1  0.50563808  0.83612860  0.17049977  1
  Fe  Fe17  1  0.33769238  0.67062024  0.33641658  1
  Ni  Ni18  1  0.67022288  0.00437162  0.00400836  1
  Ni  Ni19  1  0.83593077  0.16903722  0.17101910  1
  Ni  Ni20  1  0.67008038  0.00562198  0.33568578  1
  Ni  Ni21  1  0.66961240  0.33783684  0.00448315  1
  Fe  Fe22  1  0.83612973  0.50424307  0.17115320  1
  Ni  Ni23  1  0.66981323  0.33740958  0.33664007  1
  Ni  Ni24  1  0.67073341  0.66904588  1.00326420  1
  Ni  Ni25  1  0.83547268  0.83792371  0.17054818  1
  Ni  Ni26  1  0.67056927  0.66822120  0.33689085  1
  Ni  Ni27  1  0.17012965  0.17140331  0.50529296  1
  Ni  Ni28  1  0.00547969  0.00459694  0.67130608  1
  Fe  Fe29  1  0.17115033  0.16892930  0.83644341  1
  Fe  Fe30  1  0.17010931  0.50223335  0.50308118  1
  Fe  Fe31  1  0.00572055  0.33445169  0.66985538  1
  Ni  Ni32  1  0.17148463  0.50218077  0.83712599  1
  Fe  Fe33  1  0.17124130  0.83874104  0.50343401  1
  Cr  Cr34  1  0.00442349  0.67096367  0.67132363  1
  Ni  Ni35  1  0.17095461  0.83751195  0.83795878  1
  Fe  Fe36  1  0.50370450  0.16991786  0.50383118  1
  Ni  Ni37  1  0.33633024  0.00427359  0.67012619  1
  Ni  Ni38  1  0.50278726  0.16912763  0.83826510  1
  Fe  Fe39  1  0.50388607  0.50347533  0.50233480  1
  Ni  Ni40  1  0.33632828  0.33684278  0.67079185  1
  Fe  Fe41  1  0.50280982  0.50511566  0.83837829  1
  Fe  Fe42  1  0.50311140  0.83785850  0.50380039  1
  Fe  Fe43  1  0.33845864  0.67129192  0.67101917  1
  Ni  Ni44  1  0.50494235  0.83769438  0.83590919  1
  Ni  Ni45  1  0.83898755  0.17103290  0.50340526  1
  Ni  Ni46  1  0.66944340  1.00374474  0.67156212  1
  Fe  Fe47  1  0.83767158  0.16823793  0.83806581  1
  Ni  Ni48  1  0.83692441  0.50224177  0.50166239  1
  Cr  Cr49  1  0.66970192  0.33687801  0.67031123  1
  Fe  Fe50  1  0.83663779  0.50475847  0.83837056  1
  Cr  Cr51  1  0.83485842  0.83842600  0.50343207  1
  Fe  Fe52  1  0.66793012  0.67220788  0.67129284  1
  Ni  Ni53  1  0.83535591  0.83832065  0.83735076  1
" 