4038,Ni50Fe44Cr5_15,-238.076671804286, 216.423963146211,Ni50Fe44Cr5,"# generated using pymatgen
 data_Cr4Fe23Ni27
_symmetry_space_group_name_H-M   'P 1'
_cell_length_a   7.40928180
_cell_length_b   7.40928180
_cell_length_c   10.47830681
_cell_angle_alpha   90.00000000
_cell_angle_beta   90.00000000
_cell_angle_gamma   90.00000000
_symmetry_Int_Tables_number   1
_chemical_formula_structural   Cr4Fe23Ni27
_chemical_formula_sum   'Cr4 Fe23 Ni27'
_cell_volume   575.23239498
_cell_formula_units_Z   1
loop_
 _symmetry_equiv_pos_site_id
 _symmetry_equiv_pos_as_xyz
  1  'x, y, z'
loop_
 _atom_site_type_symbol
 _atom_site_label
 _atom_site_symmetry_multiplicity
 _atom_site_fract_x
 _atom_site_fract_y
 _atom_site_fract_z
 _atom_site_occupancy
  Cr  Cr0  1  1.00371204  0.00527061  0.00411902  1
  Ni  Ni1  1  0.17172384  0.16916444  0.17072725  1
  Fe  Fe2  1  0.00510816  1.00160419  0.33699713  1
  Ni  Ni3  1  0.00423551  0.33906579  1.00367621  1
  Fe  Fe4  1  0.16958480  0.50429719  0.16975445  1
  Cr  Cr5  1  0.00470789  0.33746951  0.33703868  1
  Ni  Ni6  1  1.00374852  0.66732558  0.00450860  1
  Ni  Ni7  1  0.17039653  0.83657106  0.17200583  1
  Ni  Ni8  1  0.00398775  0.67088847  0.33634843  1
  Fe  Fe9  1  0.33799217  1.00315625  0.00429898  1
  Ni  Ni10  1  0.50460926  0.16987305  0.16989413  1
  Ni  Ni11  1  0.33832213  0.00397721  0.33650081  1
  Fe  Fe12  1  0.33627049  0.33707494  1.00259495  1
  Cr  Cr13  1  0.50409455  0.50356981  0.17083312  1
  Fe  Fe14  1  0.33751178  0.33641174  0.33868388  1
  Ni  Ni15  1  0.33695798  0.67074415  1.00225778  1
  Fe  Fe16  1  0.50336386  0.83983030  0.17028317  1
  Ni  Ni17  1  0.33640818  0.67214731  0.33931534  1
  Ni  Ni18  1  0.66851836  1.00386577  0.00406323  1
  Ni  Ni19  1  0.83536359  0.17017156  0.17110195  1
  Fe  Fe20  1  0.67040936  1.00366097  0.33721110  1
  Fe  Fe21  1  0.67212667  0.33713314  1.00317167  1
  Fe  Fe22  1  0.83877588  0.50406757  0.16913864  1
  Fe  Fe23  1  0.66917835  0.33650285  0.33772235  1
  Ni  Ni24  1  0.67098936  0.67172121  1.00356706  1
  Fe  Fe25  1  0.83657699  0.83724155  0.17145242  1
  Fe  Fe26  1  0.67122877  0.67153323  0.33796105  1
  Ni  Ni27  1  0.17221694  0.16938765  0.50443968  1
  Fe  Fe28  1  0.00447348  1.00376837  0.67065075  1
  Ni  Ni29  1  0.17080095  0.17041166  0.83652699  1
  Ni  Ni30  1  0.17197252  0.50576975  0.50457075  1
  Fe  Fe31  1  0.00444874  0.33681796  0.67128569  1
  Ni  Ni32  1  0.17095479  0.50520288  0.83803738  1
  Ni  Ni33  1  0.16941677  0.83653354  0.50398567  1
  Ni  Ni34  1  0.00486338  0.66957596  0.67083882  1
  Ni  Ni35  1  0.17120839  0.83607742  0.83570559  1
  Ni  Ni36  1  0.50424506  0.17153654  0.50368368  1
  Ni  Ni37  1  0.33779389  0.00560784  0.67108040  1
  Fe  Fe38  1  0.50355832  0.17092815  0.83662369  1
  Fe  Fe39  1  0.50204816  0.50312720  0.50328526  1
  Ni  Ni40  1  0.33621791  0.33594077  0.66974636  1
  Ni  Ni41  1  0.50393773  0.50357776  0.83745059  1
  Fe  Fe42  1  0.50213422  0.83883535  0.50310383  1
  Fe  Fe43  1  0.33537948  0.67073034  0.67081996  1
  Fe  Fe44  1  0.50311159  0.83775467  0.83830971  1
  Fe  Fe45  1  0.83696101  0.16926421  0.50477186  1
  Ni  Ni46  1  0.66989194  0.00545973  0.67050244  1
  Ni  Ni47  1  0.83588328  0.17137709  0.83575123  1
  Fe  Fe48  1  0.83847174  0.50437869  0.50411001  1
  Fe  Fe49  1  0.67007136  0.33542723  0.67080137  1
  Ni  Ni50  1  0.83680116  0.50316912  0.83871042  1
  Ni  Ni51  1  0.83866629  0.83757521  0.50287751  1
  Cr  Cr52  1  0.67139792  0.67136624  0.67071735  1
  Fe  Fe53  1  0.83767332  0.83656232  0.83688888  1
" 