1154,Ni50Fe25Cr24_19,-231.046317514923, 189.79470957855,Ni50Fe25Cr24,"# generated using pymatgen
 data_Cr14Fe13Ni27
_symmetry_space_group_name_H-M   'P 1'
_cell_length_a   7.45311244
_cell_length_b   7.45311244
_cell_length_c   10.54029269
_cell_angle_alpha   90.00000000
_cell_angle_beta   90.00000000
_cell_angle_gamma   90.00000000
_symmetry_Int_Tables_number   1
_chemical_formula_structural   Cr14Fe13Ni27
_chemical_formula_sum   'Cr14 Fe13 Ni27'
_cell_volume   585.50150682
_cell_formula_units_Z   1
loop_
 _symmetry_equiv_pos_site_id
 _symmetry_equiv_pos_as_xyz
  1  'x, y, z'
loop_
 _atom_site_type_symbol
 _atom_site_label
 _atom_site_symmetry_multiplicity
 _atom_site_fract_x
 _atom_site_fract_y
 _atom_site_fract_z
 _atom_site_occupancy
  Ni  Ni0  1  0.00118837  1.00089304  1.00086307  1
  Ni  Ni1  1  0.17011955  0.16808028  0.16601616  1
  Fe  Fe2  1  0.00387430  0.99779024  0.33327431  1
  Ni  Ni3  1  0.00294160  0.33484259  0.99917033  1
  Fe  Fe4  1  0.16837666  0.50128987  0.16559308  1
  Cr  Cr5  1  0.00388837  0.33684131  0.33314144  1
  Ni  Ni6  1  0.00224367  0.66730970  0.99951163  1
  Cr  Cr7  1  0.16871327  0.83486516  0.16725471  1
  Ni  Ni8  1  0.00302214  0.66647449  0.33434937  1
  Fe  Fe9  1  0.33278534  0.00118383  1.00044188  1
  Ni  Ni10  1  0.49579929  0.16701216  0.16750225  1
  Ni  Ni11  1  0.33541054  0.99999555  0.33430549  1
  Ni  Ni12  1  0.33167919  0.33487837  0.00298613  1
  Fe  Fe13  1  0.49799996  0.50273501  0.16752794  1
  Fe  Fe14  1  0.33518177  0.33537787  0.33335271  1
  Ni  Ni15  1  0.33301161  0.66746307  1.00081317  1
  Ni  Ni16  1  0.49934094  0.83183851  0.16703776  1
  Ni  Ni17  1  0.33409178  0.66786523  0.33569213  1
  Cr  Cr18  1  0.66687219  0.99986101  1.00006793  1
  Cr  Cr19  1  0.83829268  0.16744130  0.16879754  1
  Cr  Cr20  1  0.66413448  0.99999630  0.33465977  1
  Cr  Cr21  1  0.66771271  0.33327645  0.00198631  1
  Ni  Ni22  1  0.83516496  0.50441181  0.16507653  1
  Cr  Cr23  1  0.66470871  0.33532092  0.33327082  1
  Fe  Fe24  1  0.66837782  0.66825250  0.00147768  1
  Fe  Fe25  1  0.83448274  0.83184695  0.16687739  1
  Ni  Ni26  1  0.66606183  0.66760427  0.33132359  1
  Cr  Cr27  1  0.16986386  0.16585278  0.49985653  1
  Cr  Cr28  1  0.00233521  0.99835010  0.66856927  1
  Fe  Fe29  1  0.16906324  0.16742421  0.83580383  1
  Fe  Fe30  1  0.16951959  0.50214571  0.50106458  1
  Fe  Fe31  1  0.00228964  0.33524766  0.67074798  1
  Ni  Ni32  1  0.16708989  0.50013094  0.83479628  1
  Ni  Ni33  1  0.16995620  0.83382997  0.49952786  1
  Fe  Fe34  1  0.00138800  0.66757901  0.66996569  1
  Ni  Ni35  1  0.16832571  0.83396886  0.83606666  1
  Ni  Ni36  1  0.49840207  0.16812865  0.50335402  1
  Ni  Ni37  1  0.33600809  1.00083817  0.66923595  1
  Fe  Fe38  1  0.49901076  0.16689302  0.83286228  1
  Ni  Ni39  1  0.50076098  0.50136503  0.49949444  1
  Ni  Ni40  1  0.33460670  0.33432268  0.66636777  1
  Cr  Cr41  1  0.49999816  0.50139734  0.83525909  1
  Ni  Ni42  1  0.49913222  0.83356054  0.50149170  1
  Cr  Cr43  1  0.33228181  0.66933819  0.66564588  1
  Ni  Ni44  1  0.50006338  0.83444544  0.83430240  1
  Cr  Cr45  1  0.83302600  0.16794146  0.50171237  1
  Ni  Ni46  1  0.66567809  1.00088984  0.66836978  1
  Ni  Ni47  1  0.83570018  0.16868477  0.83302829  1
  Cr  Cr48  1  0.83245824  0.50162868  0.50514048  1
  Ni  Ni49  1  0.66638105  0.33319307  0.66842321  1
  Fe  Fe50  1  0.83583539  0.50287568  0.83385543  1
  Cr  Cr51  1  0.83409708  0.83250302  0.49872922  1
  Ni  Ni52  1  0.66727879  0.66891871  0.66899027  1
  Ni  Ni53  1  0.83445541  0.83428086  0.83544984  1
" 