2298,Ni50Fe25Cr24_11,-230.964372187558, 188.056076318617,Ni50Fe25Cr24,"# generated using pymatgen
 data_Cr14Fe13Ni27
_symmetry_space_group_name_H-M   'P 1'
_cell_length_a   7.45103648
_cell_length_b   7.45103648
_cell_length_c   10.53735684
_cell_angle_alpha   90.00000000
_cell_angle_beta   90.00000000
_cell_angle_gamma   90.00000000
_symmetry_Int_Tables_number   1
_chemical_formula_structural   Cr14Fe13Ni27
_chemical_formula_sum   'Cr14 Fe13 Ni27'
_cell_volume   585.01239331
_cell_formula_units_Z   1
loop_
 _symmetry_equiv_pos_site_id
 _symmetry_equiv_pos_as_xyz
  1  'x, y, z'
loop_
 _atom_site_type_symbol
 _atom_site_label
 _atom_site_symmetry_multiplicity
 _atom_site_fract_x
 _atom_site_fract_y
 _atom_site_fract_z
 _atom_site_occupancy
  Fe  Fe0  1  0.00334405  1.00010190  0.00166687  1
  Ni  Ni1  1  0.17044134  0.16754717  0.16769788  1
  Ni  Ni2  1  0.00396003  1.00067795  0.33424597  1
  Cr  Cr3  1  0.00132564  0.33819663  0.00154704  1
  Fe  Fe4  1  0.17056021  0.49936312  0.16984429  1
  Fe  Fe5  1  0.00321560  0.33476997  0.33484954  1
  Cr  Cr6  1  0.00115495  0.66820494  1.00082774  1
  Fe  Fe7  1  0.17120275  0.83750379  0.17005418  1
  Ni  Ni8  1  0.00273539  0.66715774  0.33453892  1
  Ni  Ni9  1  0.33746948  0.00179373  1.00104710  1
  Ni  Ni10  1  0.49824499  0.16918897  0.16854849  1
  Ni  Ni11  1  0.33272264  0.00217931  0.33464599  1
  Ni  Ni12  1  0.33824849  0.33326804  0.00183438  1
  Ni  Ni13  1  0.50089623  0.50072596  0.16820684  1
  Ni  Ni14  1  0.33528383  0.33322515  0.33274674  1
  Cr  Cr15  1  0.33353892  0.66712313  0.00141489  1
  Ni  Ni16  1  0.50062841  0.83312270  0.16900174  1
  Ni  Ni17  1  0.33182706  0.66800258  0.33236042  1
  Ni  Ni18  1  0.66416777  0.00182944  1.00074667  1
  Cr  Cr19  1  0.83542819  0.16708486  0.16747667  1
  Fe  Fe20  1  0.66519079  0.00237935  0.33354397  1
  Ni  Ni21  1  0.66425070  0.33408962  1.00063204  1
  Fe  Fe22  1  0.83081307  0.50015345  0.16921125  1
  Ni  Ni23  1  0.66757462  0.33392929  0.33448088  1
  Fe  Fe24  1  0.66556600  0.66651330  0.00109428  1
  Cr  Cr25  1  0.83340935  0.83430036  0.16865713  1
  Ni  Ni26  1  0.66879276  0.66419192  0.33200266  1
  Ni  Ni27  1  0.16633832  0.16754275  0.49970821  1
  Cr  Cr28  1  0.00286593  0.99793847  0.66858679  1
  Cr  Cr29  1  0.17066295  0.16728992  0.83664816  1
  Fe  Fe30  1  0.16475586  0.50166082  0.49955560  1
  Fe  Fe31  1  0.99996920  0.33663671  0.66658977  1
  Ni  Ni32  1  0.16806888  0.50197502  0.83291900  1
  Ni  Ni33  1  0.16725641  0.83574236  0.49886253  1
  Ni  Ni34  1  1.00057301  0.66563628  0.66856807  1
  Ni  Ni35  1  0.16685059  0.83464087  0.83465989  1
  Fe  Fe36  1  0.50014361  0.16748913  0.49910831  1
  Ni  Ni37  1  0.33432751  1.00080832  0.66770708  1
  Ni  Ni38  1  0.50064692  0.16943221  0.83568304  1
  Cr  Cr39  1  0.50172696  0.50156995  0.49945918  1
  Cr  Cr40  1  0.33666846  0.33234744  0.66861117  1
  Ni  Ni41  1  0.50358422  0.50014817  0.83602535  1
  Cr  Cr42  1  0.49877185  0.83229248  0.49868849  1
  Cr  Cr43  1  0.33003911  0.67017580  0.66995481  1
  Fe  Fe44  1  0.50137580  0.83570479  0.83591710  1
  Ni  Ni45  1  0.83687397  0.17099346  0.49870768  1
  Cr  Cr46  1  0.66500579  0.00467454  0.66685929  1
  Cr  Cr47  1  0.83355388  0.16776503  0.83682621  1
  Fe  Fe48  1  0.83674993  0.49958383  0.50115018  1
  Ni  Ni49  1  0.66972726  0.33512564  0.66817694  1
  Ni  Ni50  1  0.83132296  0.50393586  0.83190046  1
  Cr  Cr51  1  0.83518338  0.83307037  0.49886563  1
  Fe  Fe52  1  0.66919879  0.66614083  0.66971265  1
  Ni  Ni53  1  0.83378404  0.83107343  0.83564271  1
" 