134,Ni50Fe33Cr15_12,-234.952371004959, 203.301950381155,Ni50Fe33Cr15,"# generated using pymatgen
 data_CrFe2Ni3
_symmetry_space_group_name_H-M   'P 1'
_cell_length_a   7.43128444
_cell_length_b   7.43128444
_cell_length_c   10.50942324
_cell_angle_alpha   90.00000000
_cell_angle_beta   90.00000000
_cell_angle_gamma   90.00000000
_symmetry_Int_Tables_number   1
_chemical_formula_structural   CrFe2Ni3
_chemical_formula_sum   'Cr9 Fe18 Ni27'
_cell_volume   580.37226762
_cell_formula_units_Z   9
loop_
 _symmetry_equiv_pos_site_id
 _symmetry_equiv_pos_as_xyz
  1  'x, y, z'
loop_
 _atom_site_type_symbol
 _atom_site_label
 _atom_site_symmetry_multiplicity
 _atom_site_fract_x
 _atom_site_fract_y
 _atom_site_fract_z
 _atom_site_occupancy
  Fe  Fe0  1  1.00134307  1.00140051  1.00148191  1
  Fe  Fe1  1  0.17005177  0.17037654  0.17009001  1
  Ni  Ni2  1  0.00345851  1.00159320  0.33701588  1
  Fe  Fe3  1  1.00160122  0.33593740  1.00216677  1
  Fe  Fe4  1  0.16851807  0.50229102  0.16976677  1
  Fe  Fe5  1  0.00294116  0.33693845  0.33696024  1
  Ni  Ni6  1  0.99985251  0.66973333  0.00366762  1
  Ni  Ni7  1  0.16813744  0.83591324  0.17046537  1
  Ni  Ni8  1  1.00187817  0.66872624  0.33470899  1
  Cr  Cr9  1  0.33674125  0.00467825  0.00246681  1
  Fe  Fe10  1  0.50107677  0.17128880  0.16808228  1
  Fe  Fe11  1  0.33431054  1.00191374  0.33530286  1
  Ni  Ni12  1  0.33682321  0.33407354  1.00202667  1
  Ni  Ni13  1  0.50331933  0.50201281  0.16947107  1
  Ni  Ni14  1  0.33530468  0.33578036  0.33628183  1
  Cr  Cr15  1  0.33504047  0.66812419  1.00203752  1
  Fe  Fe16  1  0.50362060  0.83404861  0.16983151  1
  Ni  Ni17  1  0.33535060  0.66740095  0.33585201  1
  Ni  Ni18  1  0.66970275  0.00257196  1.00068542  1
  Cr  Cr19  1  0.83630720  0.17018294  0.16804840  1
  Cr  Cr20  1  0.66872775  1.00163167  0.33743065  1
  Ni  Ni21  1  0.66809241  0.33561034  1.00140733  1
  Ni  Ni22  1  0.83441125  0.50337470  0.16859969  1
  Fe  Fe23  1  0.66869091  0.33921380  0.33661621  1
  Ni  Ni24  1  0.67227763  0.66903473  1.00133934  1
  Fe  Fe25  1  0.83650709  0.83252669  0.16842596  1
  Ni  Ni26  1  0.66998959  0.66830902  0.33671073  1
  Ni  Ni27  1  0.16701431  0.17027123  0.50127085  1
  Fe  Fe28  1  1.00123270  0.00512181  0.66946439  1
  Ni  Ni29  1  0.16698975  0.16830998  0.83644634  1
  Fe  Fe30  1  0.16952639  0.50066074  0.50133623  1
  Fe  Fe31  1  1.00111761  0.33273390  0.66809100  1
  Cr  Cr32  1  0.17099551  0.50145698  0.83609081  1
  Cr  Cr33  1  0.16950599  0.83674218  0.50138667  1
  Cr  Cr34  1  1.00123229  0.66920158  0.66870393  1
  Ni  Ni35  1  0.16762671  0.83768847  0.83569710  1
  Fe  Fe36  1  0.50248494  0.17126728  0.50217275  1
  Cr  Cr37  1  0.33592746  0.00330100  0.66985425  1
  Ni  Ni38  1  0.50357251  0.17180640  0.83724347  1
  Ni  Ni39  1  0.50318773  0.50315735  0.50264079  1
  Fe  Fe40  1  0.33692356  0.33615600  0.66867445  1
  Ni  Ni41  1  0.50416427  0.50192117  0.83510404  1
  Ni  Ni42  1  0.50268766  0.83197050  0.50121811  1
  Fe  Fe43  1  0.33959447  0.66782533  0.66904772  1
  Ni  Ni44  1  0.50364035  0.83348927  0.83608101  1
  Ni  Ni45  1  0.83832278  0.17077293  0.50267552  1
  Cr  Cr46  1  0.66977780  0.00316746  0.66904244  1
  Ni  Ni47  1  0.83665110  0.16883273  0.83632080  1
  Ni  Ni48  1  0.83332243  0.50078075  0.50135886  1
  Ni  Ni49  1  0.66889435  0.33632010  0.66879749  1
  Fe  Fe50  1  0.83308194  0.50181515  0.83684275  1
  Ni  Ni51  1  0.83513940  0.83566467  0.50052657  1
  Fe  Fe52  1  0.66729643  0.66771221  0.66869143  1
  Ni  Ni53  1  0.83595150  0.83710374  0.83821827  1
" 