4465,Ni50Fe26Cr23_5,-231.356993970362, 187.331741866301,Ni50Fe26Cr23,"# generated using pymatgen
 data_Cr13Fe14Ni27
_symmetry_space_group_name_H-M   'P 1'
_cell_length_a   7.45192779
_cell_length_b   7.45192779
_cell_length_c   10.53861734
_cell_angle_alpha   90.00000000
_cell_angle_beta   90.00000000
_cell_angle_gamma   90.00000000
_symmetry_Int_Tables_number   1
_chemical_formula_structural   Cr13Fe14Ni27
_chemical_formula_sum   'Cr13 Fe14 Ni27'
_cell_volume   585.22235971
_cell_formula_units_Z   1
loop_
 _symmetry_equiv_pos_site_id
 _symmetry_equiv_pos_as_xyz
  1  'x, y, z'
loop_
 _atom_site_type_symbol
 _atom_site_label
 _atom_site_symmetry_multiplicity
 _atom_site_fract_x
 _atom_site_fract_y
 _atom_site_fract_z
 _atom_site_occupancy
  Ni  Ni0  1  0.99772298  0.00204454  0.00124990  1
  Ni  Ni1  1  0.16747900  0.16602725  0.16601102  1
  Ni  Ni2  1  0.00181014  0.00111289  0.33402055  1
  Cr  Cr3  1  0.00156201  0.33362424  0.00164258  1
  Fe  Fe4  1  0.16689195  0.50043876  0.16875336  1
  Fe  Fe5  1  0.00130599  0.33160369  0.33372745  1
  Cr  Cr6  1  1.00008742  0.66819737  0.99870129  1
  Fe  Fe7  1  0.16548545  0.83450336  0.16748439  1
  Ni  Ni8  1  0.00187612  0.66804522  0.33210201  1
  Fe  Fe9  1  0.33394051  0.00275352  0.00249281  1
  Fe  Fe10  1  0.50189717  0.16908796  0.16341468  1
  Cr  Cr11  1  0.33389872  0.00328630  0.33494725  1
  Ni  Ni12  1  0.33554167  0.33416979  1.00056161  1
  Ni  Ni13  1  0.49986275  0.50250897  0.16675873  1
  Cr  Cr14  1  0.33296006  0.33356750  0.33563477  1
  Ni  Ni15  1  0.33438811  0.66366231  0.00432645  1
  Fe  Fe16  1  0.50182872  0.83389960  0.16704203  1
  Fe  Fe17  1  0.33476254  0.66866914  0.33407390  1
  Ni  Ni18  1  0.66953420  0.00330958  0.00254102  1
  Ni  Ni19  1  0.83717718  0.16693415  0.16739761  1
  Cr  Cr20  1  0.66863961  0.00101984  0.33411197  1
  Fe  Fe21  1  0.66758576  0.33310961  0.00191040  1
  Ni  Ni22  1  0.83259590  0.50104350  0.17003636  1
  Cr  Cr23  1  0.66591716  0.33240648  0.33263234  1
  Cr  Cr24  1  0.66969519  0.66851672  1.00029185  1
  Ni  Ni25  1  0.83520388  0.83499430  0.16797979  1
  Ni  Ni26  1  0.66718023  0.66784177  0.33284603  1
  Ni  Ni27  1  0.16601287  0.16769017  0.50391565  1
  Ni  Ni28  1  1.00022053  0.00505815  0.66787101  1
  Fe  Fe29  1  0.16734530  0.16838472  0.83349354  1
  Ni  Ni30  1  0.16837359  0.49939313  0.49909343  1
  Ni  Ni31  1  0.00317309  0.33196231  0.66731555  1
  Fe  Fe32  1  0.16961025  0.49693660  0.83375367  1
  Ni  Ni33  1  0.16983626  0.83588193  0.49956891  1
  Cr  Cr34  1  0.99994765  0.66721007  0.67146003  1
  Cr  Cr35  1  0.16901207  0.83870206  0.83523342  1
  Fe  Fe36  1  0.50117223  0.16723409  0.50509168  1
  Ni  Ni37  1  0.33510370  0.00524951  0.66617981  1
  Ni  Ni38  1  0.50063894  0.16969507  0.83552458  1
  Fe  Fe39  1  0.50087263  0.50170930  0.50059636  1
  Ni  Ni40  1  0.33408796  0.33239909  0.66798097  1
  Fe  Fe41  1  0.50194342  0.49825721  0.83521098  1
  Ni  Ni42  1  0.49960332  0.83305579  0.50127537  1
  Cr  Cr43  1  0.33490019  0.66546955  0.66504806  1
  Cr  Cr44  1  0.50052708  0.83700148  0.83501430  1
  Ni  Ni45  1  0.83721671  0.16860852  0.50204172  1
  Ni  Ni46  1  0.66743713  0.00221856  0.66725954  1
  Ni  Ni47  1  0.83282619  0.16791824  0.83371994  1
  Cr  Cr48  1  0.83467379  0.49851622  0.49981744  1
  Fe  Fe49  1  0.66770887  0.33216242  0.66875096  1
  Ni  Ni50  1  0.83202817  0.49709983  0.83243386  1
  Cr  Cr51  1  0.83434539  0.83534536  0.50276736  1
  Ni  Ni52  1  0.66651817  0.66748560  0.66877602  1
  Ni  Ni53  1  0.83281656  0.83775917  0.83289622  1
" 