1532,Ni50Fe47Cr2_3,-239.611021003126, 219.66317043457,Ni50Fe47Cr2,"# generated using pymatgen
 data_Cr2Fe25Ni27
_symmetry_space_group_name_H-M   'P 1'
_cell_length_a   7.40303861
_cell_length_b   7.40303861
_cell_length_c   10.46947760
_cell_angle_alpha   90.00000000
_cell_angle_beta   90.00000000
_cell_angle_gamma   90.00000000
_symmetry_Int_Tables_number   1
_chemical_formula_structural   Cr2Fe25Ni27
_chemical_formula_sum   'Cr2 Fe25 Ni27'
_cell_volume   573.77951664
_cell_formula_units_Z   1
loop_
 _symmetry_equiv_pos_site_id
 _symmetry_equiv_pos_as_xyz
  1  'x, y, z'
loop_
 _atom_site_type_symbol
 _atom_site_label
 _atom_site_symmetry_multiplicity
 _atom_site_fract_x
 _atom_site_fract_y
 _atom_site_fract_z
 _atom_site_occupancy
  Ni  Ni0  1  1.00387731  1.00423162  0.00610474  1
  Ni  Ni1  1  0.17180702  0.17211210  0.17194701  1
  Fe  Fe2  1  1.00275918  1.00312369  0.33734249  1
  Cr  Cr3  1  1.00267047  0.33643820  0.00488828  1
  Fe  Fe4  1  0.17293383  0.50600311  0.17177337  1
  Fe  Fe5  1  1.00406021  0.33813947  0.33701804  1
  Fe  Fe6  1  1.00308751  0.67080587  0.00573187  1
  Fe  Fe7  1  0.17202422  0.83968514  0.17166018  1
  Ni  Ni8  1  1.00380535  0.67133368  0.33632953  1
  Fe  Fe9  1  0.33868070  0.00604773  0.00555060  1
  Ni  Ni10  1  0.50337746  0.17169942  0.16971834  1
  Ni  Ni11  1  0.33796616  0.00491844  0.33791045  1
  Fe  Fe12  1  0.33806376  0.33716099  1.00343416  1
  Fe  Fe13  1  0.50520923  0.50375330  0.17172022  1
  Fe  Fe14  1  0.33888295  0.33764627  0.33835168  1
  Ni  Ni15  1  0.33911297  0.67095624  0.00692505  1
  Ni  Ni16  1  0.50556574  0.83757585  0.17182878  1
  Fe  Fe17  1  0.33930645  0.67157551  0.33795796  1
  Fe  Fe18  1  0.67079583  1.00397732  1.00338026  1
  Fe  Fe19  1  0.83458307  0.16824610  0.17161739  1
  Fe  Fe20  1  0.67008545  1.00240468  0.33867738  1
  Ni  Ni21  1  0.66956388  0.33790989  1.00408939  1
  Fe  Fe22  1  0.83502257  0.50378695  0.17295585  1
  Ni  Ni23  1  0.67052804  0.33707736  0.33753031  1
  Fe  Fe24  1  0.67090571  0.67104024  0.00519240  1
  Ni  Ni25  1  0.83719185  0.83603877  0.16959936  1
  Ni  Ni26  1  0.67209862  0.66999872  0.33865408  1
  Fe  Fe27  1  0.17194851  0.16996395  0.50472709  1
  Ni  Ni28  1  1.00304452  0.00448773  0.66913293  1
  Ni  Ni29  1  0.17053482  0.17150688  0.83643915  1
  Fe  Fe30  1  0.17031523  0.50523207  0.50466930  1
  Fe  Fe31  1  0.00518266  0.33642296  0.67121420  1
  Fe  Fe32  1  0.17322778  0.50454841  0.83653324  1
  Ni  Ni33  1  0.17065867  0.83728482  0.50335788  1
  Ni  Ni34  1  1.00383280  0.67054216  0.67187934  1
  Cr  Cr35  1  0.17261029  0.83912484  0.83893484  1
  Ni  Ni36  1  0.50453926  0.17196303  0.50522030  1
  Ni  Ni37  1  0.33887862  0.00467384  0.67084017  1
  Fe  Fe38  1  0.50449843  0.16958964  0.83713904  1
  Ni  Ni39  1  0.50514709  0.50363901  0.50376235  1
  Ni  Ni40  1  0.33867903  0.33783454  0.67143019  1
  Fe  Fe41  1  0.50322498  0.50415193  0.83723822  1
  Ni  Ni42  1  0.50335457  0.83737495  0.50412776  1
  Ni  Ni43  1  0.33760246  0.67028905  0.66784398  1
  Ni  Ni44  1  0.50480128  0.83538282  0.83726117  1
  Ni  Ni45  1  0.83796810  0.17252370  0.50272393  1
  Ni  Ni46  1  0.67119050  0.00545178  0.67014556  1
  Ni  Ni47  1  0.83774624  0.17189926  0.83748380  1
  Ni  Ni48  1  0.83800769  0.50379463  0.50492098  1
  Fe  Fe49  1  0.67109834  0.33700214  0.67012176  1
  Fe  Fe50  1  0.83620546  0.50530572  0.83612119  1
  Ni  Ni51  1  0.83877072  0.83645292  0.50575807  1
  Fe  Fe52  1  0.66944747  0.67280496  0.66934547  1
  Fe  Fe53  1  0.83696942  0.84051611  0.83718941  1
" 