4874,Ni50Fe27Cr21_7,-232.002768434222, 194.445516732845,Ni50Fe27Cr21,"# generated using pymatgen
 data_Cr13Fe14Ni27
_symmetry_space_group_name_H-M   'P 1'
_cell_length_a   7.45071039
_cell_length_b   7.45071039
_cell_length_c   10.53689569
_cell_angle_alpha   90.00000000
_cell_angle_beta   90.00000000
_cell_angle_gamma   90.00000000
_symmetry_Int_Tables_number   1
_chemical_formula_structural   Cr13Fe14Ni27
_chemical_formula_sum   'Cr13 Fe14 Ni27'
_cell_volume   584.93558963
_cell_formula_units_Z   1
loop_
 _symmetry_equiv_pos_site_id
 _symmetry_equiv_pos_as_xyz
  1  'x, y, z'
loop_
 _atom_site_type_symbol
 _atom_site_label
 _atom_site_symmetry_multiplicity
 _atom_site_fract_x
 _atom_site_fract_y
 _atom_site_fract_z
 _atom_site_occupancy
  Ni  Ni0  1  0.99991816  0.00205444  1.00069615  1
  Fe  Fe1  1  0.16641164  0.16924533  0.16790937  1
  Ni  Ni2  1  1.00078519  0.00234778  0.33584286  1
  Ni  Ni3  1  0.00380962  0.33496384  0.00223078  1
  Fe  Fe4  1  0.16719657  0.49830045  0.16698911  1
  Ni  Ni5  1  1.00044908  0.33418739  0.33284538  1
  Ni  Ni6  1  0.00185769  0.66624800  0.00131728  1
  Cr  Cr7  1  0.16831269  0.83615690  0.16861214  1
  Fe  Fe8  1  1.00058737  0.66717418  0.33564558  1
  Ni  Ni9  1  0.33582287  1.00091647  1.00009052  1
  Cr  Cr10  1  0.49965562  0.16892310  0.16880719  1
  Ni  Ni11  1  0.33350019  1.00104927  0.33585056  1
  Ni  Ni12  1  0.33225899  0.33646859  0.99985598  1
  Ni  Ni13  1  0.50120057  0.50135111  0.16764261  1
  Ni  Ni14  1  0.33430883  0.33594592  0.33462444  1
  Ni  Ni15  1  0.33537164  0.66592070  1.00071668  1
  Fe  Fe16  1  0.50136188  0.83344853  0.16673063  1
  Cr  Cr17  1  0.33516520  0.66702416  0.33655519  1
  Ni  Ni18  1  0.66759011  0.99888433  0.99999510  1
  Ni  Ni19  1  0.83726289  0.16937330  0.16769954  1
  Cr  Cr20  1  0.66850154  0.00146542  0.33612027  1
  Cr  Cr21  1  0.66729596  0.33351672  0.00288046  1
  Fe  Fe22  1  0.83476432  0.49978739  0.16864399  1
  Ni  Ni23  1  0.66851333  0.33615818  0.33515939  1
  Fe  Fe24  1  0.66590073  0.66892026  0.00157807  1
  Cr  Cr25  1  0.83537760  0.83422715  0.16616788  1
  Ni  Ni26  1  0.66723823  0.66599222  0.33455051  1
  Cr  Cr27  1  0.16803002  0.16614588  0.50093993  1
  Ni  Ni28  1  0.99842008  0.00128204  0.66677141  1
  Fe  Fe29  1  0.17019363  0.16945306  0.83449791  1
  Ni  Ni30  1  0.16918171  0.50090218  0.50062945  1
  Fe  Fe31  1  0.00303960  0.33193931  0.66726733  1
  Fe  Fe32  1  0.16988217  0.49780285  0.83592340  1
  Ni  Ni33  1  0.16711487  0.83595603  0.49965936  1
  Cr  Cr34  1  0.00156364  0.66870505  0.66545821  1
  Cr  Cr35  1  0.16744811  0.83671710  0.83560813  1
  Fe  Fe36  1  0.50128206  0.16812297  0.50215732  1
  Ni  Ni37  1  0.33678039  0.00283562  0.66737853  1
  Ni  Ni38  1  0.49873747  0.16791726  0.83314983  1
  Ni  Ni39  1  0.50125337  0.49993795  0.50118117  1
  Ni  Ni40  1  0.33592802  0.33480932  0.66883723  1
  Ni  Ni41  1  0.49978964  0.50027453  0.83453766  1
  Ni  Ni42  1  0.50096861  0.83451417  0.50140881  1
  Cr  Cr43  1  0.33527753  0.66586859  0.66615359  1
  Fe  Fe44  1  0.50308451  0.83584757  0.83483940  1
  Ni  Ni45  1  0.83418667  0.16668300  0.50159913  1
  Ni  Ni46  1  0.66810804  1.00107909  0.66686989  1
  Cr  Cr47  1  0.83507701  0.16598136  0.83368834  1
  Cr  Cr48  1  0.83255028  0.49985522  0.49948702  1
  Fe  Fe49  1  0.66483718  0.33256475  0.66696049  1
  Cr  Cr50  1  0.83353456  0.50221867  0.83471092  1
  Ni  Ni51  1  0.83514737  0.83615790  0.50203467  1
  Fe  Fe52  1  0.66551843  0.67004419  0.66671968  1
  Fe  Fe53  1  0.83184959  0.83553625  0.83497658  1
" 