3092,Ni50Fe26Cr23_0,-231.98458019021, 195.949423801161,Ni50Fe26Cr23,"# generated using pymatgen
 data_Cr13Fe14Ni27
_symmetry_space_group_name_H-M   'P 1'
_cell_length_a   7.45345185
_cell_length_b   7.45345185
_cell_length_c   10.54077269
_cell_angle_alpha   90.00000000
_cell_angle_beta   90.00000000
_cell_angle_gamma   90.00000000
_symmetry_Int_Tables_number   1
_chemical_formula_structural   Cr13Fe14Ni27
_chemical_formula_sum   'Cr13 Fe14 Ni27'
_cell_volume   585.58150034
_cell_formula_units_Z   1
loop_
 _symmetry_equiv_pos_site_id
 _symmetry_equiv_pos_as_xyz
  1  'x, y, z'
loop_
 _atom_site_type_symbol
 _atom_site_label
 _atom_site_symmetry_multiplicity
 _atom_site_fract_x
 _atom_site_fract_y
 _atom_site_fract_z
 _atom_site_occupancy
  Ni  Ni0  1  1.00031285  0.00176077  0.00175758  1
  Fe  Fe1  1  0.16594141  0.16845882  0.16717153  1
  Ni  Ni2  1  0.99968090  1.00030486  0.33361878  1
  Ni  Ni3  1  0.00151603  0.33305496  0.00199076  1
  Ni  Ni4  1  0.16731326  0.49877745  0.16746703  1
  Ni  Ni5  1  0.00273431  0.33479166  0.33326782  1
  Cr  Cr6  1  0.00186791  0.66808107  1.00013878  1
  Ni  Ni7  1  0.16523640  0.83412304  0.16688322  1
  Ni  Ni8  1  0.99960580  0.66763885  0.33522571  1
  Ni  Ni9  1  0.33407087  1.00068793  1.00051370  1
  Fe  Fe10  1  0.50010214  0.16793203  0.16635999  1
  Cr  Cr11  1  0.33248903  0.00222020  0.33509940  1
  Ni  Ni12  1  0.33354795  0.33480697  0.00196413  1
  Fe  Fe13  1  0.49822287  0.49978817  0.16717296  1
  Ni  Ni14  1  0.33189688  0.33484807  0.33394858  1
  Ni  Ni15  1  0.33381190  0.66724151  0.99973779  1
  Cr  Cr16  1  0.50152625  0.83566254  0.16567911  1
  Cr  Cr17  1  0.33325020  0.66609698  0.33520556  1
  Ni  Ni18  1  0.66835159  0.00149358  0.99962652  1
  Fe  Fe19  1  0.83669202  0.16569881  0.16727038  1
  Ni  Ni20  1  0.67054807  0.99956619  0.33401868  1
  Cr  Cr21  1  0.66846595  0.33338431  1.00025286  1
  Ni  Ni22  1  0.83737728  0.50005739  0.16888336  1
  Cr  Cr23  1  0.66749545  0.33518424  0.33327688  1
  Cr  Cr24  1  0.66701901  0.66839488  0.00125256  1
  Ni  Ni25  1  0.83607498  0.83622111  0.16888422  1
  Cr  Cr26  1  0.66951179  0.66839888  0.33428477  1
  Ni  Ni27  1  0.16789252  0.16860825  0.50019258  1
  Ni  Ni28  1  0.00121224  0.99885347  0.66736028  1
  Cr  Cr29  1  0.16849500  0.16705217  0.83578621  1
  Fe  Fe30  1  0.16847665  0.50061158  0.50017332  1
  Cr  Cr31  1  1.00064464  0.33380651  0.66790750  1
  Fe  Fe32  1  0.16912726  0.50193046  0.83499549  1
  Fe  Fe33  1  0.16660265  0.83489843  0.50255632  1
  Fe  Fe34  1  0.00324668  0.67012197  0.66758164  1
  Ni  Ni35  1  0.16785172  0.83278830  0.83345471  1
  Cr  Cr36  1  0.49899922  0.16794424  0.50248084  1
  Ni  Ni37  1  0.33380751  0.99945310  0.66725719  1
  Ni  Ni38  1  0.50213458  0.16784301  0.83322628  1
  Ni  Ni39  1  0.49834176  0.50117013  0.50170862  1
  Ni  Ni40  1  0.33583812  0.33530591  0.66682210  1
  Fe  Fe41  1  0.49837291  0.50006990  0.83303007  1
  Ni  Ni42  1  0.50148383  0.83314686  0.50278205  1
  Ni  Ni43  1  0.33460595  0.66798113  0.66761233  1
  Fe  Fe44  1  0.49925877  0.83684008  0.83422181  1
  Cr  Cr45  1  0.83585428  0.16535829  0.50080323  1
  Fe  Fe46  1  0.66707112  1.00081229  0.66906424  1
  Ni  Ni47  1  0.83194543  0.16592952  0.83483516  1
  Fe  Fe48  1  0.83520161  0.50251081  0.49991164  1
  Fe  Fe49  1  0.66506231  0.33369052  0.66917828  1
  Fe  Fe50  1  0.83523823  0.49976832  0.83430597  1
  Ni  Ni51  1  0.83543881  0.83401931  0.49979294  1
  Cr  Cr52  1  0.66714007  0.66749774  0.66719760  1
  Ni  Ni53  1  0.83524342  0.83656286  0.83405939  1
" 