2430,Ni50Fe25Cr24_16,-231.345858652064, 187.092854162927,Ni50Fe25Cr24,"# generated using pymatgen
 data_Cr14Fe13Ni27
_symmetry_space_group_name_H-M   'P 1'
_cell_length_a   7.45923106
_cell_length_b   7.45923106
_cell_length_c   10.54894572
_cell_angle_alpha   90.00000000
_cell_angle_beta   90.00000000
_cell_angle_gamma   90.00000000
_symmetry_Int_Tables_number   1
_chemical_formula_structural   Cr14Fe13Ni27
_chemical_formula_sum   'Cr14 Fe13 Ni27'
_cell_volume   586.94468960
_cell_formula_units_Z   1
loop_
 _symmetry_equiv_pos_site_id
 _symmetry_equiv_pos_as_xyz
  1  'x, y, z'
loop_
 _atom_site_type_symbol
 _atom_site_label
 _atom_site_symmetry_multiplicity
 _atom_site_fract_x
 _atom_site_fract_y
 _atom_site_fract_z
 _atom_site_occupancy
  Ni  Ni0  1  1.00037686  0.00271260  0.99973812  1
  Ni  Ni1  1  0.16691986  0.16655470  0.16654850  1
  Ni  Ni2  1  0.00246748  0.00363001  0.33387320  1
  Cr  Cr3  1  0.99874863  0.33104862  0.00240697  1
  Ni  Ni4  1  0.16827538  0.50102033  0.16921992  1
  Ni  Ni5  1  1.00048055  0.33054219  0.33166286  1
  Cr  Cr6  1  0.99878742  0.66708586  0.00163436  1
  Fe  Fe7  1  0.16664525  0.83666117  0.16752521  1
  Fe  Fe8  1  0.00239081  0.66792737  0.33092610  1
  Ni  Ni9  1  0.33253923  1.00040844  0.00091939  1
  Cr  Cr10  1  0.50148718  0.16529258  0.16712613  1
  Ni  Ni11  1  0.33051004  1.00035110  0.33475942  1
  Fe  Fe12  1  0.33549431  0.33351969  0.00213856  1
  Fe  Fe13  1  0.50021208  0.49745047  0.16659676  1
  Ni  Ni14  1  0.33221230  0.33195551  0.33431009  1
  Ni  Ni15  1  0.33627537  0.66742836  0.00424621  1
  Fe  Fe16  1  0.49918469  0.83428344  0.16554355  1
  Ni  Ni17  1  0.33245312  0.66921833  0.33104371  1
  Ni  Ni18  1  0.66856593  0.00079275  0.00127525  1
  Ni  Ni19  1  0.83410672  0.16650142  0.16843566  1
  Fe  Fe20  1  0.66730910  0.00370525  0.33351575  1
  Ni  Ni21  1  0.66848196  0.33460215  0.99954990  1
  Ni  Ni22  1  0.83384176  0.49959695  0.16779356  1
  Ni  Ni23  1  0.66945704  0.33254218  0.33401690  1
  Ni  Ni24  1  0.66542159  0.66579951  0.00085821  1
  Fe  Fe25  1  0.83488321  0.83698414  0.16651646  1
  Cr  Cr26  1  0.66537435  0.66718729  0.33014551  1
  Ni  Ni27  1  0.16796503  0.16488743  0.50034135  1
  Fe  Fe28  1  0.99897574  0.00166138  0.66689247  1
  Fe  Fe29  1  0.16875378  0.16672872  0.83462441  1
  Cr  Cr30  1  0.16594439  0.50088238  0.49809106  1
  Cr  Cr31  1  0.99952526  0.33048592  0.66751077  1
  Cr  Cr32  1  0.16958574  0.49978434  0.83431231  1
  Ni  Ni33  1  0.16623722  0.83619746  0.49897855  1
  Fe  Fe34  1  0.99840261  0.66885053  0.66864257  1
  Cr  Cr35  1  0.16628238  0.83611016  0.83383835  1
  Ni  Ni36  1  0.50099425  0.16625140  0.50092707  1
  Ni  Ni37  1  0.33210373  0.00322070  0.66548279  1
  Fe  Fe38  1  0.50150227  0.16856550  0.83408792  1
  Cr  Cr39  1  0.50121047  0.49675366  0.49987132  1
  Fe  Fe40  1  0.33766825  0.33051026  0.66710794  1
  Ni  Ni41  1  0.50284734  0.49867347  0.83636131  1
  Cr  Cr42  1  0.50004823  0.83770741  0.49917399  1
  Cr  Cr43  1  0.33577699  0.66915234  0.66496963  1
  Cr  Cr44  1  0.50123143  0.83600588  0.83574297  1
  Ni  Ni45  1  0.83280274  0.16620599  0.49796833  1
  Ni  Ni46  1  0.66681643  0.00336329  0.66705396  1
  Ni  Ni47  1  0.83154602  0.16538974  0.83496095  1
  Cr  Cr48  1  0.83463831  0.49888291  0.50017057  1
  Ni  Ni49  1  0.66853365  0.33204686  0.66825856  1
  Ni  Ni50  1  0.83063695  0.49921928  0.83314488  1
  Cr  Cr51  1  0.83527698  0.83546673  0.50242856  1
  Ni  Ni52  1  0.66820990  0.66608185  0.67103883  1
  Fe  Fe53  1  0.83187505  0.83440538  0.83398572  1
" 