3316,Ni50Fe17Cr31_10,-227.549579589777, 170.409715872416,Ni50Fe17Cr31,"# generated using pymatgen
 data_Cr2FeNi3
_symmetry_space_group_name_H-M   'P 1'
_cell_length_a   7.47249569
_cell_length_b   7.47249569
_cell_length_c   10.56770475
_cell_angle_alpha   90.00000000
_cell_angle_beta   90.00000000
_cell_angle_gamma   90.00000000
_symmetry_Int_Tables_number   1
_chemical_formula_structural   Cr2FeNi3
_chemical_formula_sum   'Cr18 Fe9 Ni27'
_cell_volume   590.08152477
_cell_formula_units_Z   9
loop_
 _symmetry_equiv_pos_site_id
 _symmetry_equiv_pos_as_xyz
  1  'x, y, z'
loop_
 _atom_site_type_symbol
 _atom_site_label
 _atom_site_symmetry_multiplicity
 _atom_site_fract_x
 _atom_site_fract_y
 _atom_site_fract_z
 _atom_site_occupancy
  Cr  Cr0  1  0.00341263  0.00012508  0.99516188  1
  Ni  Ni1  1  0.16774308  0.16720082  0.16682650  1
  Ni  Ni2  1  0.00075003  0.00136072  0.33569886  1
  Ni  Ni3  1  0.00000548  0.33464089  0.99837043  1
  Cr  Cr4  1  0.16351465  0.49829221  0.16749496  1
  Ni  Ni5  1  0.00035797  0.33291479  0.33335602  1
  Ni  Ni6  1  0.99718411  0.66448090  0.99900157  1
  Cr  Cr7  1  0.16599288  0.83466329  0.16493110  1
  Fe  Fe8  1  0.00022559  0.66774059  0.33438900  1
  Ni  Ni9  1  0.33110585  0.00221991  0.99796427  1
  Cr  Cr10  1  0.49871292  0.16650907  0.16877180  1
  Ni  Ni11  1  0.33042738  0.99664467  0.33327942  1
  Ni  Ni12  1  0.33309894  0.33109984  0.00022877  1
  Ni  Ni13  1  0.50000328  0.49844945  0.16417187  1
  Fe  Fe14  1  0.33282896  0.33439232  0.33184994  1
  Fe  Fe15  1  0.33216489  0.66431398  -0.00034272  1
  Cr  Cr16  1  0.49911606  0.83282665  0.16519216  1
  Ni  Ni17  1  0.33132092  0.66678252  0.33492545  1
  Cr  Cr18  1  0.66687901  -0.00009221  0.99771812  1
  Cr  Cr19  1  0.83560636  0.16808806  0.16796131  1
  Ni  Ni20  1  0.66785207  0.99885973  0.33627071  1
  Ni  Ni21  1  0.66585846  0.33747740  0.99731297  1
  Ni  Ni22  1  0.83201173  0.49821327  0.16510278  1
  Ni  Ni23  1  0.66968794  0.33317190  0.33196303  1
  Ni  Ni24  1  0.66817669  0.66132284  0.99842429  1
  Cr  Cr25  1  0.83417948  0.83055990  0.16603280  1
  Cr  Cr26  1  0.66508370  0.66496717  0.33242733  1
  Cr  Cr27  1  0.16493954  0.16888216  0.49928966  1
  Fe  Fe28  1  0.99952922  0.99944084  0.66733607  1
  Ni  Ni29  1  0.16860561  0.16582336  0.83303731  1
  Ni  Ni30  1  0.16542907  0.50294168  0.49860167  1
  Ni  Ni31  1  0.00024524  0.33424645  0.66746916  1
  Cr  Cr32  1  0.16331133  0.50104032  0.83282975  1
  Fe  Fe33  1  0.16521371  0.83315776  0.50022427  1
  Ni  Ni34  1  0.99938942  0.66779945  0.66467323  1
  Ni  Ni35  1  0.16507811  0.83342483  0.83104190  1
  Cr  Cr36  1  0.50078556  0.16417877  0.49543582  1
  Ni  Ni37  1  0.33039216  0.99736569  0.66706950  1
  Ni  Ni38  1  0.49701327  0.16651831  0.83506866  1
  Cr  Cr39  1  0.49782655  0.49988285  0.50149311  1
  Cr  Cr40  1  0.33121123  0.33154027  0.66762994  1
  Fe  Fe41  1  0.49962165  0.50002147  0.83508519  1
  Fe  Fe42  1  0.49853624  0.83267714  0.49980928  1
  Fe  Fe43  1  0.33089706  0.66810074  0.66484839  1
  Cr  Cr44  1  0.49797925  0.83162860  0.83366104  1
  Ni  Ni45  1  0.83451140  0.16407369  0.49954570  1
  Cr  Cr46  1  0.66621674  0.99877838  0.66598468  1
  Fe  Fe47  1  0.83588418  0.16791637  0.83259493  1
  Cr  Cr48  1  0.83638585  0.49832738  0.50007034  1
  Cr  Cr49  1  0.66799251  0.33386754  0.67006212  1
  Ni  Ni50  1  0.83302804  0.50180556  0.83351176  1
  Ni  Ni51  1  0.83393864  0.83397385  0.50001925  1
  Ni  Ni52  1  0.66845040  0.66792431  0.66758143  1
  Ni  Ni53  1  0.83460167  0.82775123  0.83185591  1
" 