8216,Ni50Fe25Cr24_4,-231.014422863804, 189.119090218796,Ni50Fe25Cr24,"# generated using pymatgen
 data_Cr14Fe13Ni27
_symmetry_space_group_name_H-M   'P 1'
_cell_length_a   7.45609243
_cell_length_b   7.45609243
_cell_length_c   10.54450704
_cell_angle_alpha   90.00000000
_cell_angle_beta   90.00000000
_cell_angle_gamma   90.00000000
_symmetry_Int_Tables_number   1
_chemical_formula_structural   Cr14Fe13Ni27
_chemical_formula_sum   'Cr14 Fe13 Ni27'
_cell_volume   586.20409498
_cell_formula_units_Z   1
loop_
 _symmetry_equiv_pos_site_id
 _symmetry_equiv_pos_as_xyz
  1  'x, y, z'
loop_
 _atom_site_type_symbol
 _atom_site_label
 _atom_site_symmetry_multiplicity
 _atom_site_fract_x
 _atom_site_fract_y
 _atom_site_fract_z
 _atom_site_occupancy
  Fe  Fe0  1  0.00234644  0.00209971  0.00269024  1
  Ni  Ni1  1  0.16743259  0.16877488  0.16749062  1
  Ni  Ni2  1  0.00248067  0.00179941  0.33351063  1
  Ni  Ni3  1  0.00147647  0.33627602  0.00203558  1
  Ni  Ni4  1  0.16966216  0.49914405  0.16527635  1
  Cr  Cr5  1  1.00005625  0.33421322  0.33528496  1
  Fe  Fe6  1  0.00373724  0.66595724  0.00131030  1
  Fe  Fe7  1  0.16804658  0.83285998  0.16771714  1
  Cr  Cr8  1  0.00422047  0.66519341  0.33335614  1
  Cr  Cr9  1  0.33470003  0.99899444  0.00173702  1
  Fe  Fe10  1  0.50124569  0.16916329  0.16982503  1
  Ni  Ni11  1  0.33336546  0.00100789  0.33552839  1
  Fe  Fe12  1  0.33257017  0.33628792  0.00221775  1
  Ni  Ni13  1  0.49848048  0.50176073  0.16770961  1
  Ni  Ni14  1  0.33537469  0.33466695  0.33226930  1
  Ni  Ni15  1  0.33178174  0.66648009  0.99833573  1
  Cr  Cr16  1  0.50087754  0.83279908  0.17035102  1
  Ni  Ni17  1  0.33322380  0.66652760  0.33614501  1
  Ni  Ni18  1  0.66720649  0.00101794  0.00081175  1
  Ni  Ni19  1  0.83571540  0.16676509  0.16739386  1
  Ni  Ni20  1  0.66663569  0.00500037  0.33462513  1
  Cr  Cr21  1  0.66742141  0.33320686  0.00233648  1
  Ni  Ni22  1  0.83325784  0.50013513  0.16727651  1
  Ni  Ni23  1  0.66643360  0.33330430  0.33499109  1
  Fe  Fe24  1  0.66411848  0.66631675  0.00103184  1
  Cr  Cr25  1  0.83261828  0.83434459  0.16666714  1
  Fe  Fe26  1  0.66499523  0.66421472  0.33533067  1
  Ni  Ni27  1  0.16926446  0.16818923  0.50152833  1
  Fe  Fe28  1  0.00317526  1.00028141  0.66509895  1
  Cr  Cr29  1  0.16682818  0.17072559  0.83287655  1
  Ni  Ni30  1  0.16991422  0.49911502  0.50249179  1
  Fe  Fe31  1  0.00133255  0.33634738  0.66476675  1
  Ni  Ni32  1  0.16901254  0.50168117  0.83446661  1
  Fe  Fe33  1  0.16938531  0.83436079  0.50131786  1
  Ni  Ni34  1  0.00526348  0.66674733  0.66761969  1
  Ni  Ni35  1  0.16874129  0.83233598  0.83284339  1
  Ni  Ni36  1  0.49856579  0.16831046  0.49883530  1
  Fe  Fe37  1  0.33333482  0.99929404  0.66557780  1
  Cr  Cr38  1  0.49885925  0.16836995  0.83408971  1
  Ni  Ni39  1  0.49867166  0.49984101  0.50011004  1
  Ni  Ni40  1  0.33425433  0.33561505  0.66730176  1
  Fe  Fe41  1  0.49748173  0.50148858  0.83377533  1
  Ni  Ni42  1  0.49851047  0.83395546  0.49917872  1
  Fe  Fe43  1  0.33390592  0.66649143  0.66718935  1
  Ni  Ni44  1  0.49892175  0.83206378  0.83472828  1
  Ni  Ni45  1  0.83458407  0.16822736  0.50114602  1
  Cr  Cr46  1  0.66453494  0.00274432  0.66678987  1
  Cr  Cr47  1  0.83638659  0.16767870  0.83269588  1
  Ni  Ni48  1  0.83356557  0.49916238  0.50143979  1
  Ni  Ni49  1  0.66559749  0.33394090  0.66456798  1
  Cr  Cr50  1  0.83636244  0.50037311  0.83333616  1
  Cr  Cr51  1  0.83319693  0.83408123  0.49820206  1
  Cr  Cr52  1  0.66608030  0.66569377  0.66698694  1
  Cr  Cr53  1  0.83445869  0.83424380  0.83745469  1
" 