4947,Ni50Fe17Cr31_15,-227.68961569533, 173.071184878132,Ni50Fe17Cr31,"# generated using pymatgen
 data_Cr2FeNi3
_symmetry_space_group_name_H-M   'P 1'
_cell_length_a   7.47157481
_cell_length_b   7.47157481
_cell_length_c   10.56640243
_cell_angle_alpha   90.00000000
_cell_angle_beta   90.00000000
_cell_angle_gamma   90.00000000
_symmetry_Int_Tables_number   1
_chemical_formula_structural   Cr2FeNi3
_chemical_formula_sum   'Cr18 Fe9 Ni27'
_cell_volume   589.86339435
_cell_formula_units_Z   9
loop_
 _symmetry_equiv_pos_site_id
 _symmetry_equiv_pos_as_xyz
  1  'x, y, z'
loop_
 _atom_site_type_symbol
 _atom_site_label
 _atom_site_symmetry_multiplicity
 _atom_site_fract_x
 _atom_site_fract_y
 _atom_site_fract_z
 _atom_site_occupancy
  Cr  Cr0  1  0.99904493  0.99730282  0.00021062  1
  Ni  Ni1  1  0.17118615  0.17028967  0.16988249  1
  Cr  Cr2  1  0.00083549  0.00019518  0.33393486  1
  Cr  Cr3  1  0.00241819  0.33764292  0.00171432  1
  Ni  Ni4  1  0.16962298  0.49955084  0.16562813  1
  Ni  Ni5  1  0.00081145  0.33560500  0.33123279  1
  Ni  Ni6  1  0.99635225  0.66307819  0.99786859  1
  Cr  Cr7  1  0.16643927  0.82964982  0.16622829  1
  Cr  Cr8  1  0.99762468  0.66342261  0.33463393  1
  Cr  Cr9  1  0.33601787  0.00116391  0.00124692  1
  Ni  Ni10  1  0.49913140  0.16948117  0.16839743  1
  Ni  Ni11  1  0.33749536  0.00074858  0.33490591  1
  Ni  Ni12  1  0.33406718  0.33591440  0.00234153  1
  Fe  Fe13  1  0.49974462  0.49876900  0.16673929  1
  Ni  Ni14  1  0.33336413  0.33196271  0.33119507  1
  Fe  Fe15  1  0.33421137  0.66315346  0.00027743  1
  Fe  Fe16  1  0.50039648  0.83240495  0.16880342  1
  Ni  Ni17  1  0.33564122  0.66652163  0.33126988  1
  Cr  Cr18  1  0.66386122  0.99567380  0.99935825  1
  Cr  Cr19  1  0.82962382  0.16645682  0.16736301  1
  Ni  Ni20  1  0.66231949  0.99761653  0.33248534  1
  Ni  Ni21  1  0.66384892  0.33826191  -0.00022241  1
  Fe  Fe22  1  0.83185563  0.50029987  0.16649947  1
  Ni  Ni23  1  0.66510352  0.33384327  0.33327769  1
  Ni  Ni24  1  0.66795717  0.66551751  0.00126448  1
  Ni  Ni25  1  0.82971083  0.82899978  0.16631776  1
  Fe  Fe26  1  0.66485864  0.66734889  0.33346227  1
  Fe  Fe27  1  0.16931833  0.16552200  0.49908800  1
  Ni  Ni28  1  0.00073824  0.99669614  0.66465266  1
  Cr  Cr29  1  0.16816204  0.16712096  0.83219742  1
  Cr  Cr30  1  0.16875533  0.50152461  0.49971960  1
  Cr  Cr31  1  -0.00027956  0.33643436  0.66641341  1
  Ni  Ni32  1  0.16702557  0.50237250  0.83408784  1
  Fe  Fe33  1  0.16918476  0.83379106  0.50080480  1
  Fe  Fe34  1  0.99834739  0.66767452  0.66636599  1
  Cr  Cr35  1  0.16672023  0.82920388  0.83124487  1
  Ni  Ni36  1  0.49740269  0.16541313  0.49876163  1
  Ni  Ni37  1  0.33333998  0.99825433  0.66287981  1
  Cr  Cr38  1  0.49958931  0.16844768  0.83121685  1
  Cr  Cr39  1  0.49964913  0.49939673  0.49967101  1
  Ni  Ni40  1  0.33187917  0.33289572  0.66576926  1
  Cr  Cr41  1  0.49865871  0.50063101  0.83212156  1
  Ni  Ni42  1  0.49879763  0.83357812  0.49787631  1
  Ni  Ni43  1  0.33549522  0.66791797  0.66745436  1
  Ni  Ni44  1  0.50040796  0.82912815  0.83324971  1
  Cr  Cr45  1  0.83026546  0.16700200  0.49816368  1
  Cr  Cr46  1  0.66423103  0.99455164  0.66709890  1
  Cr  Cr47  1  0.83108825  0.16673100  0.83336416  1
  Ni  Ni48  1  0.83178460  0.50172864  0.49898744  1
  Fe  Fe49  1  0.66481163  0.33549626  0.66468060  1
  Ni  Ni50  1  0.83231898  0.50436501  0.83281187  1
  Ni  Ni51  1  0.83192528  0.83177059  0.50075466  1
  Ni  Ni52  1  0.66784681  0.66732153  0.66545089  1
  Ni  Ni53  1  0.83263167  0.82779533  0.83243604  1
" 