5849,Ni50Fe44Cr5_9,-238.674324138439, 212.7448294677,Ni50Fe44Cr5,"# generated using pymatgen
 data_Cr4Fe23Ni27
_symmetry_space_group_name_H-M   'P 1'
_cell_length_a   7.41702311
_cell_length_b   7.41702311
_cell_length_c   10.48925468
_cell_angle_alpha   90.00000000
_cell_angle_beta   90.00000000
_cell_angle_gamma   90.00000000
_symmetry_Int_Tables_number   1
_chemical_formula_structural   Cr4Fe23Ni27
_chemical_formula_sum   'Cr4 Fe23 Ni27'
_cell_volume   577.03731071
_cell_formula_units_Z   1
loop_
 _symmetry_equiv_pos_site_id
 _symmetry_equiv_pos_as_xyz
  1  'x, y, z'
loop_
 _atom_site_type_symbol
 _atom_site_label
 _atom_site_symmetry_multiplicity
 _atom_site_fract_x
 _atom_site_fract_y
 _atom_site_fract_z
 _atom_site_occupancy
  Fe  Fe0  1  0.00337812  1.00298642  1.00230969  1
  Fe  Fe1  1  0.17132428  0.16864742  0.16934268  1
  Fe  Fe2  1  1.00253772  1.00166943  0.33689112  1
  Cr  Cr3  1  1.00323292  0.33603665  1.00233461  1
  Fe  Fe4  1  0.17053734  0.50446494  0.17111217  1
  Cr  Cr5  1  1.00144437  0.33771302  0.33744796  1
  Fe  Fe6  1  1.00257256  0.67126857  0.00382555  1
  Fe  Fe7  1  0.16877509  0.83700597  0.17076465  1
  Ni  Ni8  1  0.00506409  0.67133454  0.33534469  1
  Fe  Fe9  1  0.33691580  0.00593724  1.00278060  1
  Fe  Fe10  1  0.50475710  0.17053969  0.16962501  1
  Fe  Fe11  1  0.33747572  1.00257874  0.33689310  1
  Ni  Ni12  1  0.33853908  0.33612755  0.00371506  1
  Fe  Fe13  1  0.50503770  0.50206908  0.17011538  1
  Fe  Fe14  1  0.33812525  0.33734427  0.33681531  1
  Cr  Cr15  1  0.33587705  0.66947726  1.00138266  1
  Ni  Ni16  1  0.50343980  0.83783951  0.17078379  1
  Ni  Ni17  1  0.33549324  0.67074863  0.33682883  1
  Fe  Fe18  1  0.66982178  0.00436637  0.00337411  1
  Ni  Ni19  1  0.83518050  0.16976516  0.17039803  1
  Ni  Ni20  1  0.67007941  0.00428572  0.33630223  1
  Ni  Ni21  1  0.66838099  0.33468077  0.00468611  1
  Ni  Ni22  1  0.83551803  0.50415339  0.17031879  1
  Ni  Ni23  1  0.66949124  0.33507827  0.33571861  1
  Fe  Fe24  1  0.67043480  0.66969394  0.00430512  1
  Fe  Fe25  1  0.83643321  0.83672392  0.17037109  1
  Fe  Fe26  1  0.67035193  0.67020453  0.33671694  1
  Fe  Fe27  1  0.17060738  0.16905826  0.50505465  1
  Ni  Ni28  1  1.00231340  1.00253613  0.67024468  1
  Ni  Ni29  1  0.17206249  0.16906860  0.83613805  1
  Ni  Ni30  1  0.17014259  0.50364065  0.50414843  1
  Fe  Fe31  1  0.00492756  0.33565230  0.66932227  1
  Ni  Ni32  1  0.17232627  0.50320282  0.83529961  1
  Fe  Fe33  1  0.16949330  0.83522785  0.50406198  1
  Ni  Ni34  1  0.00567348  0.67125580  0.67010262  1
  Ni  Ni35  1  0.16930133  0.83784669  0.83550214  1
  Fe  Fe36  1  0.50434029  0.17013498  0.50412667  1
  Ni  Ni37  1  0.33685932  1.00234640  0.67086358  1
  Ni  Ni38  1  0.50243070  0.17040956  0.83763031  1
  Fe  Fe39  1  0.50356966  0.50391048  0.50398993  1
  Ni  Ni40  1  0.33714843  0.33796979  0.67095403  1
  Ni  Ni41  1  0.50184869  0.50154350  0.83593598  1
  Ni  Ni42  1  0.50356460  0.83756370  0.50385226  1
  Ni  Ni43  1  0.33514924  0.66980008  0.67064340  1
  Fe  Fe44  1  0.50356103  0.83794484  0.83547863  1
  Fe  Fe45  1  0.83516757  0.16909441  0.50410857  1
  Ni  Ni46  1  0.67094201  0.00453449  0.67107937  1
  Ni  Ni47  1  0.83562710  0.16738599  0.83536663  1
  Ni  Ni48  1  0.83696279  0.50435857  0.50386410  1
  Ni  Ni49  1  0.66948883  0.33461167  0.66971195  1
  Cr  Cr50  1  0.83614428  0.50398623  0.83521756  1
  Ni  Ni51  1  0.83592009  0.83624219  0.50206208  1
  Fe  Fe52  1  0.66902537  0.67160616  0.66909473  1
  Ni  Ni53  1  0.83728599  0.83842972  0.83774483  1
" 