6244,Ni50Fe44Cr5_18,-238.56104428414, 215.808589460595,Ni50Fe44Cr5,"# generated using pymatgen
 data_Cr4Fe23Ni27
_symmetry_space_group_name_H-M   'P 1'
_cell_length_a   7.42201038
_cell_length_b   7.42201038
_cell_length_c   10.49630774
_cell_angle_alpha   90.00000000
_cell_angle_beta   90.00000000
_cell_angle_gamma   90.00000000
_symmetry_Int_Tables_number   1
_chemical_formula_structural   Cr4Fe23Ni27
_chemical_formula_sum   'Cr4 Fe23 Ni27'
_cell_volume   578.20210723
_cell_formula_units_Z   1
loop_
 _symmetry_equiv_pos_site_id
 _symmetry_equiv_pos_as_xyz
  1  'x, y, z'
loop_
 _atom_site_type_symbol
 _atom_site_label
 _atom_site_symmetry_multiplicity
 _atom_site_fract_x
 _atom_site_fract_y
 _atom_site_fract_z
 _atom_site_occupancy
  Fe  Fe0  1  1.00154780  1.00259918  1.00161030  1
  Cr  Cr1  1  0.17143807  0.16926898  0.16909675  1
  Fe  Fe2  1  1.00271448  1.00130452  0.33856091  1
  Ni  Ni3  1  1.00245079  0.33864725  1.00102362  1
  Ni  Ni4  1  0.17011987  0.50434885  0.17026932  1
  Fe  Fe5  1  1.00261688  0.33730874  0.33730682  1
  Fe  Fe6  1  1.00171479  0.66828734  0.00412154  1
  Ni  Ni7  1  0.16863209  0.83524909  0.16964719  1
  Fe  Fe8  1  1.00234243  0.67052064  0.33612750  1
  Ni  Ni9  1  0.33642657  0.00339477  1.00233040  1
  Ni  Ni10  1  0.50284545  0.17155132  0.16980054  1
  Ni  Ni11  1  0.33614165  1.00262848  0.33823294  1
  Fe  Fe12  1  0.33724240  0.33735742  1.00210641  1
  Ni  Ni13  1  0.50347671  0.50130562  0.16928100  1
  Fe  Fe14  1  0.33832367  0.33636745  0.33740305  1
  Fe  Fe15  1  0.33661428  0.66756407  0.00331338  1
  Cr  Cr16  1  0.50334971  0.83663626  0.17039089  1
  Fe  Fe17  1  0.33628235  0.66914392  0.33685197  1
  Fe  Fe18  1  0.66988353  0.00323439  1.00182494  1
  Cr  Cr19  1  0.83446428  0.16984186  0.17006393  1
  Ni  Ni20  1  0.66909768  0.00337307  0.33745151  1
  Ni  Ni21  1  0.67003045  0.33858691  1.00267596  1
  Ni  Ni22  1  0.83553665  0.50439722  0.16976335  1
  Ni  Ni23  1  0.66934204  0.33761211  0.33653291  1
  Ni  Ni24  1  0.67134115  0.66817599  1.00293180  1
  Ni  Ni25  1  0.83758186  0.83462470  0.16927699  1
  Fe  Fe26  1  0.67046512  0.66903641  0.33677245  1
  Ni  Ni27  1  0.17023607  0.16850968  0.50335196  1
  Ni  Ni28  1  0.00316148  0.00309087  0.66889800  1
  Ni  Ni29  1  0.16960537  0.17141459  0.83645857  1
  Fe  Fe30  1  0.16944640  0.50332947  0.50333436  1
  Fe  Fe31  1  0.00411283  0.33539741  0.67069045  1
  Ni  Ni32  1  0.16978562  0.50031936  0.83562595  1
  Ni  Ni33  1  0.16989362  0.83838877  0.50290262  1
  Fe  Fe34  1  1.00278458  0.66952610  0.66884405  1
  Cr  Cr35  1  0.17049410  0.83724496  0.83675603  1
  Fe  Fe36  1  0.50282957  0.16955443  0.50212900  1
  Ni  Ni37  1  0.33593877  0.00391362  0.66853359  1
  Fe  Fe38  1  0.50285643  0.16937783  0.83687902  1
  Ni  Ni39  1  0.50395957  0.50272064  0.50308081  1
  Ni  Ni40  1  0.33597271  0.33607369  0.67010227  1
  Fe  Fe41  1  0.50358626  0.50315814  0.83639545  1
  Fe  Fe42  1  0.50275179  0.83647888  0.50324880  1
  Fe  Fe43  1  0.33665088  0.66935044  0.66892801  1
  Ni  Ni44  1  0.50460478  0.83649846  0.83551587  1
  Fe  Fe45  1  0.83662602  0.16957654  0.50300785  1
  Fe  Fe46  1  0.66975255  1.00293210  0.66975348  1
  Ni  Ni47  1  0.83674573  0.17022857  0.83576893  1
  Ni  Ni48  1  0.83470011  0.50305404  0.50291209  1
  Fe  Fe49  1  0.66956335  0.33594777  0.66951156  1
  Ni  Ni50  1  0.83592390  0.50219985  0.83643256  1
  Ni  Ni51  1  0.83648489  0.83629669  0.50315204  1
  Fe  Fe52  1  0.66965141  0.67021690  0.67016238  1
  Ni  Ni53  1  0.83369617  0.83667138  0.83669366  1
" 