6718,Ni50Fe47Cr2_1,-239.808073474924, 219.169140671779,Ni50Fe47Cr2,"# generated using pymatgen
 data_Cr2Fe25Ni27
_symmetry_space_group_name_H-M   'P 1'
_cell_length_a   7.40733417
_cell_length_b   7.40733417
_cell_length_c   10.47555244
_cell_angle_alpha   90.00000000
_cell_angle_beta   90.00000000
_cell_angle_gamma   90.00000000
_symmetry_Int_Tables_number   1
_chemical_formula_structural   Cr2Fe25Ni27
_chemical_formula_sum   'Cr2 Fe25 Ni27'
_cell_volume   574.77889089
_cell_formula_units_Z   1
loop_
 _symmetry_equiv_pos_site_id
 _symmetry_equiv_pos_as_xyz
  1  'x, y, z'
loop_
 _atom_site_type_symbol
 _atom_site_label
 _atom_site_symmetry_multiplicity
 _atom_site_fract_x
 _atom_site_fract_y
 _atom_site_fract_z
 _atom_site_occupancy
  Ni  Ni0  1  0.00630617  0.00410629  1.00383955  1
  Ni  Ni1  1  0.17253399  0.17147695  0.17077443  1
  Fe  Fe2  1  0.00505830  1.00294284  0.33845788  1
  Ni  Ni3  1  0.00438902  0.33745978  1.00356368  1
  Fe  Fe4  1  0.16975230  0.50375232  0.17108911  1
  Ni  Ni5  1  0.00482225  0.33881439  0.33822625  1
  Fe  Fe6  1  0.00519109  0.67091215  0.00405071  1
  Fe  Fe7  1  0.17049342  0.83818365  0.17052134  1
  Ni  Ni8  1  1.00368160  0.66985796  0.33659459  1
  Ni  Ni9  1  0.33712809  1.00384025  1.00400780  1
  Ni  Ni10  1  0.50196296  0.17067591  0.16998832  1
  Fe  Fe11  1  0.33626870  0.00448590  0.33637621  1
  Fe  Fe12  1  0.33693899  0.33627568  1.00391333  1
  Fe  Fe13  1  0.50427241  0.50281189  0.17136028  1
  Fe  Fe14  1  0.33631098  0.33751724  0.33769331  1
  Fe  Fe15  1  0.33570742  0.67081195  1.00277413  1
  Ni  Ni16  1  0.50430493  0.83821447  0.17179953  1
  Fe  Fe17  1  0.33662574  0.67008981  0.33838014  1
  Fe  Fe18  1  0.67007239  0.00501430  1.00310913  1
  Cr  Cr19  1  0.83823936  0.17037555  0.17003247  1
  Fe  Fe20  1  0.67076109  1.00262663  0.33824962  1
  Ni  Ni21  1  0.67012892  0.33729347  1.00365869  1
  Ni  Ni22  1  0.83812405  0.50527439  0.17169230  1
  Fe  Fe23  1  0.67036806  0.33902201  0.33738402  1
  Cr  Cr24  1  0.67023234  0.67047012  1.00387607  1
  Ni  Ni25  1  0.83733069  0.83597341  0.17127963  1
  Fe  Fe26  1  0.67191233  0.67044408  0.33671735  1
  Ni  Ni27  1  0.17006309  0.17121227  0.50397841  1
  Ni  Ni28  1  1.00376997  0.00426145  0.66986042  1
  Ni  Ni29  1  0.16993831  0.17130059  0.83733869  1
  Ni  Ni30  1  0.17144676  0.50306390  0.50427823  1
  Ni  Ni31  1  0.00426861  0.33755938  0.67030465  1
  Ni  Ni32  1  0.17133935  0.50306291  0.83738526  1
  Ni  Ni33  1  0.16919345  0.83781563  0.50437271  1
  Ni  Ni34  1  0.00513007  0.67027280  0.67117423  1
  Ni  Ni35  1  0.16989207  0.83772685  0.83755044  1
  Fe  Fe36  1  0.50358048  0.17044101  0.50354002  1
  Fe  Fe37  1  0.33583043  1.00352214  0.67131133  1
  Fe  Fe38  1  0.50360458  0.17000661  0.83817770  1
  Ni  Ni39  1  0.50383079  0.50371154  0.50362097  1
  Fe  Fe40  1  0.33616167  0.33782779  0.67048395  1
  Ni  Ni41  1  0.50302382  0.50332494  0.83711246  1
  Fe  Fe42  1  0.50301721  0.83699690  0.50432850  1
  Ni  Ni43  1  0.33768112  0.67088591  0.67065447  1
  Ni  Ni44  1  0.50446033  0.83745539  0.83572051  1
  Fe  Fe45  1  0.83849055  0.17080031  0.50440510  1
  Ni  Ni46  1  0.67011371  1.00367645  0.67163532  1
  Fe  Fe47  1  0.83806814  0.17040287  0.83744947  1
  Fe  Fe48  1  0.83917511  0.50423437  0.50318824  1
  Fe  Fe49  1  0.67096044  0.33786548  0.67112625  1
  Fe  Fe50  1  0.83901124  0.50345902  0.83733024  1
  Ni  Ni51  1  0.83759121  0.83777557  0.50366399  1
  Fe  Fe52  1  0.67135784  0.67141305  0.67110704  1
  Ni  Ni53  1  0.83773970  0.83885911  0.83714923  1
" 