976,Ni50Fe17Cr31_16,-227.230353915509, 172.081009852245,Ni50Fe17Cr31,"# generated using pymatgen
 data_Cr2FeNi3
_symmetry_space_group_name_H-M   'P 1'
_cell_length_a   7.46895450
_cell_length_b   7.46895450
_cell_length_c   10.56269676
_cell_angle_alpha   90.00000000
_cell_angle_beta   90.00000000
_cell_angle_gamma   90.00000000
_symmetry_Int_Tables_number   1
_chemical_formula_structural   Cr2FeNi3
_chemical_formula_sum   'Cr18 Fe9 Ni27'
_cell_volume   589.24301069
_cell_formula_units_Z   9
loop_
 _symmetry_equiv_pos_site_id
 _symmetry_equiv_pos_as_xyz
  1  'x, y, z'
loop_
 _atom_site_type_symbol
 _atom_site_label
 _atom_site_symmetry_multiplicity
 _atom_site_fract_x
 _atom_site_fract_y
 _atom_site_fract_z
 _atom_site_occupancy
  Ni  Ni0  1  -0.00008333  0.00257023  0.99842441  1
  Cr  Cr1  1  0.16668794  0.16572166  0.16472934  1
  Ni  Ni2  1  0.99813394  0.99905251  0.33746427  1
  Ni  Ni3  1  0.99836108  0.33304560  0.99826777  1
  Ni  Ni4  1  0.16714652  0.50307483  0.16622803  1
  Cr  Cr5  1  0.00053663  0.33344074  0.33301220  1
  Ni  Ni6  1  0.00119990  0.66374952  0.00211336  1
  Cr  Cr7  1  0.16573416  0.83179334  0.16631126  1
  Ni  Ni8  1  0.99842239  0.66593397  0.33504460  1
  Ni  Ni9  1  0.33620665  0.99955681  0.99772907  1
  Ni  Ni10  1  0.50258430  0.16717798  0.16741332  1
  Cr  Cr11  1  0.33262217  0.00164190  0.33409365  1
  Cr  Cr12  1  0.33358183  0.33253636  0.00225309  1
  Ni  Ni13  1  0.50020951  0.49907447  0.16965689  1
  Fe  Fe14  1  0.33591798  0.33518194  0.33293855  1
  Ni  Ni15  1  0.33359541  0.66820812  0.00185755  1
  Fe  Fe16  1  0.49995052  0.83337927  0.16728724  1
  Ni  Ni17  1  0.33475149  0.66372785  0.33227762  1
  Ni  Ni18  1  0.66343483  0.00276198  0.99813846  1
  Cr  Cr19  1  0.83021874  0.16583557  0.16414124  1
  Ni  Ni20  1  0.66736800  0.00018127  0.33486059  1
  Ni  Ni21  1  0.66761826  0.33086444  0.00101613  1
  Ni  Ni22  1  0.83237634  0.50032730  0.16571888  1
  Fe  Fe23  1  0.66523369  0.33511441  0.33337838  1
  Cr  Cr24  1  0.66416467  0.66638522  0.00210741  1
  Cr  Cr25  1  0.83398415  0.83426320  0.16869070  1
  Ni  Ni26  1  0.66658807  0.66444489  0.33322606  1
  Ni  Ni27  1  0.16648504  0.16357565  0.49995681  1
  Cr  Cr28  1  0.00028394  0.00214474  0.66335474  1
  Ni  Ni29  1  0.16613318  0.16407950  0.83444914  1
  Cr  Cr30  1  0.16829102  0.50257374  0.50070967  1
  Fe  Fe31  1  0.99763306  0.33090104  0.66603671  1
  Cr  Cr32  1  0.16535578  0.50077972  0.83287090  1
  Ni  Ni33  1  0.16547519  0.83403746  0.49971242  1
  Fe  Fe34  1  -0.00005299  0.66702526  0.66390721  1
  Cr  Cr35  1  0.16896578  0.83296222  0.83391463  1
  Fe  Fe36  1  0.50127221  0.16786348  0.50038168  1
  Ni  Ni37  1  0.33351687  0.00025980  0.66725137  1
  Ni  Ni38  1  0.50258106  0.16322908  0.83210916  1
  Ni  Ni39  1  0.50291503  0.49850952  0.49780659  1
  Cr  Cr40  1  0.33317890  0.33018808  0.66489175  1
  Cr  Cr41  1  0.49987373  0.49859201  0.83165638  1
  Cr  Cr42  1  0.49897002  0.83318843  0.50099347  1
  Ni  Ni43  1  0.33313458  0.66877982  0.66558714  1
  Fe  Fe44  1  0.49835176  0.83753973  0.83252972  1
  Fe  Fe45  1  0.83104292  0.16695157  0.49994326  1
  Ni  Ni46  1  0.66561574  0.00388778  0.66693237  1
  Ni  Ni47  1  0.83068242  0.16651266  0.83406874  1
  Ni  Ni48  1  0.83060152  0.49942074  0.50032230  1
  Ni  Ni49  1  0.66854157  0.33063522  0.66409786  1
  Cr  Cr50  1  0.83412966  0.49553823  0.83374924  1
  Fe  Fe51  1  0.83398980  0.83222724  0.49720685  1
  Cr  Cr52  1  0.66661557  0.66662034  0.66574299  1
  Cr  Cr53  1  0.83297745  0.83603820  0.83454350  1
" 