3863,Ni50Fe25Cr24_7,-230.826171447426, 186.972268226222,Ni50Fe25Cr24,"# generated using pymatgen
 data_Cr14Fe13Ni27
_symmetry_space_group_name_H-M   'P 1'
_cell_length_a   7.45364666
_cell_length_b   7.45364666
_cell_length_c   10.54104819
_cell_angle_alpha   90.00000000
_cell_angle_beta   90.00000000
_cell_angle_gamma   90.00000000
_symmetry_Int_Tables_number   1
_chemical_formula_structural   Cr14Fe13Ni27
_chemical_formula_sum   'Cr14 Fe13 Ni27'
_cell_volume   585.62741735
_cell_formula_units_Z   1
loop_
 _symmetry_equiv_pos_site_id
 _symmetry_equiv_pos_as_xyz
  1  'x, y, z'
loop_
 _atom_site_type_symbol
 _atom_site_label
 _atom_site_symmetry_multiplicity
 _atom_site_fract_x
 _atom_site_fract_y
 _atom_site_fract_z
 _atom_site_occupancy
  Fe  Fe0  1  0.00314217  0.99932673  0.00124745  1
  Fe  Fe1  1  0.16757204  0.16551473  0.16766187  1
  Ni  Ni2  1  1.00083327  0.00208465  0.33443334  1
  Cr  Cr3  1  0.99947508  0.33186628  0.00201875  1
  Ni  Ni4  1  0.16506923  0.50197207  0.16614809  1
  Ni  Ni5  1  0.00092961  0.33152471  0.33298663  1
  Ni  Ni6  1  0.00384755  0.66585842  0.99997252  1
  Ni  Ni7  1  0.16708580  0.83457956  0.16576591  1
  Ni  Ni8  1  0.00255021  0.66907651  0.33433158  1
  Ni  Ni9  1  0.33323892  0.99912509  1.00080013  1
  Ni  Ni10  1  0.50004387  0.16569826  0.16653712  1
  Fe  Fe11  1  0.33440554  1.00032177  0.33339684  1
  Fe  Fe12  1  0.33546113  0.33393737  1.00065912  1
  Cr  Cr13  1  0.50232617  0.50102501  0.16533327  1
  Cr  Cr14  1  0.33331130  0.33379289  0.33457765  1
  Ni  Ni15  1  0.33296350  0.66994064  1.00074488  1
  Ni  Ni16  1  0.50003329  0.83655649  0.16612850  1
  Cr  Cr17  1  0.33498672  0.67155437  0.33293051  1
  Cr  Cr18  1  0.66606420  0.00312268  0.00106015  1
  Ni  Ni19  1  0.83389297  0.16762965  0.16743755  1
  Ni  Ni20  1  0.66724756  1.00065060  0.33566335  1
  Ni  Ni21  1  0.66816603  0.33394243  0.99983789  1
  Ni  Ni22  1  0.83603286  0.50190436  0.16735826  1
  Cr  Cr23  1  0.66932014  0.33129373  0.33369262  1
  Ni  Ni24  1  0.66563969  0.66603124  0.99954541  1
  Cr  Cr25  1  0.83498220  0.83245858  0.16856674  1
  Ni  Ni26  1  0.66634690  0.67110041  0.33569446  1
  Ni  Ni27  1  0.16931703  0.16465368  0.49993514  1
  Cr  Cr28  1  1.00079068  0.00182075  0.66783728  1
  Ni  Ni29  1  0.17214731  0.16696756  0.83598486  1
  Cr  Cr30  1  0.16709511  0.49998697  0.50086808  1
  Cr  Cr31  1  0.00170581  0.33270929  0.66772047  1
  Fe  Fe32  1  0.16917215  0.50099087  0.83569508  1
  Ni  Ni33  1  0.16622487  0.83725515  0.50072711  1
  Fe  Fe34  1  1.00011236  0.66918478  0.66795912  1
  Ni  Ni35  1  0.16732748  0.83475705  0.83594073  1
  Ni  Ni36  1  0.49932202  0.16503650  0.50188985  1
  Fe  Fe37  1  0.33495922  0.00256189  0.66865696  1
  Ni  Ni38  1  0.49887829  0.16951872  0.83445464  1
  Ni  Ni39  1  0.50177806  0.50069380  0.50265021  1
  Fe  Fe40  1  0.33499374  0.33096290  0.66733921  1
  Fe  Fe41  1  0.49954432  0.50106760  0.83568265  1
  Ni  Ni42  1  0.50255618  0.83708951  0.50195519  1
  Cr  Cr43  1  0.33380841  0.67002560  0.66745871  1
  Fe  Fe44  1  0.49848922  0.83673904  0.83488455  1
  Ni  Ni45  1  0.83418650  0.16425953  0.50005418  1
  Ni  Ni46  1  0.66555661  1.00060193  0.66697868  1
  Fe  Fe47  1  0.83385481  0.16617487  0.83481189  1
  Cr  Cr48  1  0.83425146  0.50405415  0.49842860  1
  Cr  Cr49  1  0.66792786  0.33166876  0.66760442  1
  Fe  Fe50  1  0.83384284  0.50023663  0.83607111  1
  Ni  Ni51  1  0.83394015  0.83573340  0.50037086  1
  Fe  Fe52  1  0.66763511  0.66961511  0.66694887  1
  Cr  Cr53  1  0.83415791  0.83228819  0.83510442  1
" 