8915,Ni50Fe43Cr5_11,-238.144634382486, 213.285025400172,Ni50Fe43Cr5,"# generated using pymatgen
 data_Cr4Fe23Ni27
_symmetry_space_group_name_H-M   'P 1'
_cell_length_a   7.41186615
_cell_length_b   7.41186615
_cell_length_c   10.48196163
_cell_angle_alpha   90.00000000
_cell_angle_beta   90.00000000
_cell_angle_gamma   90.00000000
_symmetry_Int_Tables_number   1
_chemical_formula_structural   Cr4Fe23Ni27
_chemical_formula_sum   'Cr4 Fe23 Ni27'
_cell_volume   575.83452631
_cell_formula_units_Z   1
loop_
 _symmetry_equiv_pos_site_id
 _symmetry_equiv_pos_as_xyz
  1  'x, y, z'
loop_
 _atom_site_type_symbol
 _atom_site_label
 _atom_site_symmetry_multiplicity
 _atom_site_fract_x
 _atom_site_fract_y
 _atom_site_fract_z
 _atom_site_occupancy
  Ni  Ni0  1  0.00471564  0.00399512  1.00346495  1
  Fe  Fe1  1  0.16999658  0.17024431  0.17017266  1
  Ni  Ni2  1  0.00384900  0.00676373  0.33660881  1
  Fe  Fe3  1  0.00597183  0.33495651  0.00561178  1
  Ni  Ni4  1  0.17032897  0.50463139  0.16887787  1
  Ni  Ni5  1  1.00293916  0.33657251  0.33524607  1
  Ni  Ni6  1  0.00405506  0.67105156  0.00500904  1
  Fe  Fe7  1  0.17041703  0.83787919  0.16981463  1
  Fe  Fe8  1  0.00436458  0.67169749  0.33598133  1
  Ni  Ni9  1  0.33727283  0.00426665  0.00475150  1
  Ni  Ni10  1  0.50370751  0.17006160  0.17089935  1
  Ni  Ni11  1  0.33451614  1.00321452  0.33418029  1
  Fe  Fe12  1  0.33652087  0.33607917  0.00418189  1
  Ni  Ni13  1  0.50077163  0.50238159  0.17060618  1
  Fe  Fe14  1  0.33500971  0.33762447  0.33544931  1
  Fe  Fe15  1  0.33623638  0.67094398  1.00366550  1
  Fe  Fe16  1  0.50400227  0.83722651  0.17075425  1
  Ni  Ni17  1  0.33762010  0.66937081  0.33521794  1
  Fe  Fe18  1  0.67111229  1.00317006  0.00384716  1
  Ni  Ni19  1  0.83656627  0.16793398  0.16921894  1
  Ni  Ni20  1  0.67243167  1.00279242  0.33443930  1
  Fe  Fe21  1  0.66817154  0.33514445  0.00390420  1
  Fe  Fe22  1  0.83616129  0.50276048  0.16955546  1
  Fe  Fe23  1  0.67154164  0.33567680  0.33579641  1
  Fe  Fe24  1  0.66932723  0.67305471  0.00457261  1
  Ni  Ni25  1  0.83881716  0.83807615  0.17073405  1
  Ni  Ni26  1  0.67030634  0.66808104  0.33518112  1
  Fe  Fe27  1  0.16785427  0.16961782  0.50351445  1
  Ni  Ni28  1  0.00448049  0.00594511  0.67106948  1
  Fe  Fe29  1  0.17081036  0.16908659  0.83746693  1
  Ni  Ni30  1  0.17013360  0.50406997  0.50510976  1
  Ni  Ni31  1  0.00384758  0.33511889  0.67147727  1
  Fe  Fe32  1  0.17231459  0.50460424  0.83733068  1
  Fe  Fe33  1  0.16988867  0.83792586  0.50349158  1
  Fe  Fe34  1  0.00570067  0.67283910  0.67028374  1
  Fe  Fe35  1  0.17109118  0.83742865  0.83811004  1
  Cr  Cr36  1  0.50414231  0.17029987  0.50369134  1
  Ni  Ni37  1  0.33462707  1.00219102  0.67228656  1
  Ni  Ni38  1  0.50234832  0.16988802  0.83622307  1
  Fe  Fe39  1  0.50296720  0.50379780  0.50246461  1
  Fe  Fe40  1  0.33620583  0.33662514  0.67151307  1
  Ni  Ni41  1  0.50058874  0.50161895  0.83695020  1
  Cr  Cr42  1  0.50440254  0.83983469  0.50229597  1
  Ni  Ni43  1  0.33603558  0.67013722  0.67266396  1
  Ni  Ni44  1  0.50329982  0.83921275  0.83904780  1
  Ni  Ni45  1  0.83778435  0.16866185  0.50496015  1
  Ni  Ni46  1  0.67184919  0.00532523  0.67392890  1
  Fe  Fe47  1  0.83551938  0.16921814  0.83691817  1
  Fe  Fe48  1  0.83853483  0.50191132  0.50284229  1
  Ni  Ni49  1  0.67173039  0.33667182  0.67006360  1
  Cr  Cr50  1  0.84039255  0.50440897  0.83870433  1
  Ni  Ni51  1  0.84006311  0.83909033  0.50338402  1
  Cr  Cr52  1  0.66812398  0.67010655  0.67048862  1
  Ni  Ni53  1  0.83954813  0.83972832  0.83699223  1
" 