2848,Ni50Fe27Cr21_0,-231.879694457244, 197.854376753073,Ni50Fe27Cr21,"# generated using pymatgen
 data_Cr13Fe14Ni27
_symmetry_space_group_name_H-M   'P 1'
_cell_length_a   7.44548913
_cell_length_b   7.44548913
_cell_length_c   10.52951170
_cell_angle_alpha   90.00000000
_cell_angle_beta   90.00000000
_cell_angle_gamma   90.00000000
_symmetry_Int_Tables_number   1
_chemical_formula_structural   Cr13Fe14Ni27
_chemical_formula_sum   'Cr13 Fe14 Ni27'
_cell_volume   583.70672784
_cell_formula_units_Z   1
loop_
 _symmetry_equiv_pos_site_id
 _symmetry_equiv_pos_as_xyz
  1  'x, y, z'
loop_
 _atom_site_type_symbol
 _atom_site_label
 _atom_site_symmetry_multiplicity
 _atom_site_fract_x
 _atom_site_fract_y
 _atom_site_fract_z
 _atom_site_occupancy
  Fe  Fe0  1  0.00158419  1.00007547  1.00066848  1
  Cr  Cr1  1  0.16835263  0.16682700  0.17080950  1
  Ni  Ni2  1  0.99728991  0.99982914  0.33409369  1
  Cr  Cr3  1  0.99921119  0.33695704  0.00200481  1
  Fe  Fe4  1  0.16885361  0.50138061  0.16996937  1
  Fe  Fe5  1  1.00025073  0.33527391  0.33425964  1
  Ni  Ni6  1  0.99920813  0.66660975  0.00158051  1
  Cr  Cr7  1  0.16909927  0.83681147  0.16658516  1
  Cr  Cr8  1  0.99938101  0.66583827  0.33614907  1
  Ni  Ni9  1  0.33754366  0.00243177  1.00034650  1
  Ni  Ni10  1  0.50231731  0.16973746  0.17014792  1
  Ni  Ni11  1  0.33919256  0.00208091  0.33348547  1
  Cr  Cr12  1  0.33710435  0.33330592  1.00033010  1
  Ni  Ni13  1  0.50479558  0.50203659  0.17024394  1
  Ni  Ni14  1  0.33789706  0.33689756  0.33549404  1
  Cr  Cr15  1  0.33565106  0.66853066  1.00138250  1
  Ni  Ni16  1  0.50285201  0.83309902  0.16909139  1
  Ni  Ni17  1  0.33513315  0.66517374  0.33412563  1
  Cr  Cr18  1  0.66508332  0.00306275  0.00304668  1
  Ni  Ni19  1  0.83432163  0.16945217  0.16932794  1
  Ni  Ni20  1  0.66762681  0.00342471  0.33328732  1
  Fe  Fe21  1  0.66670629  0.33751794  0.00168400  1
  Ni  Ni22  1  0.83088207  0.50146813  0.16735705  1
  Fe  Fe23  1  0.66677037  0.33525457  0.33514386  1
  Ni  Ni24  1  0.66955137  0.66732063  0.00324095  1
  Ni  Ni25  1  0.83363674  0.83378636  0.16876869  1
  Fe  Fe26  1  0.66655166  0.66803515  0.33377916  1
  Cr  Cr27  1  0.16839829  0.16694150  0.49942288  1
  Ni  Ni28  1  1.00039471  0.00258305  0.66906095  1
  Ni  Ni29  1  0.16548603  0.16724522  0.83375466  1
  Fe  Fe30  1  0.17154858  0.49965401  0.50131984  1
  Ni  Ni31  1  1.00078579  0.33591538  0.66884753  1
  Fe  Fe32  1  0.16929108  0.50277647  0.83342079  1
  Fe  Fe33  1  0.16895528  0.83452747  0.50035825  1
  Cr  Cr34  1  0.00350253  0.66721080  0.66574949  1
  Ni  Ni35  1  0.16847931  0.83776451  0.83553347  1
  Ni  Ni36  1  0.50158890  0.17147595  0.50142552  1
  Cr  Cr37  1  0.33710692  1.00045582  0.66972079  1
  Fe  Fe38  1  0.50170883  0.16746230  0.83367920  1
  Ni  Ni39  1  0.50285352  0.50127174  0.50222004  1
  Fe  Fe40  1  0.33597208  0.33635644  0.66848894  1
  Ni  Ni41  1  0.50496945  0.50261435  0.83221703  1
  Cr  Cr42  1  0.50196400  0.83220244  0.50075292  1
  Ni  Ni43  1  0.33519666  0.66560808  0.66896733  1
  Ni  Ni44  1  0.50099528  0.83048289  0.83441150  1
  Cr  Cr45  1  0.83474408  0.16899774  0.50230251  1
  Ni  Ni46  1  0.66789033  0.00312279  0.66794892  1
  Fe  Fe47  1  0.83411637  0.16892841  0.83282130  1
  Ni  Ni48  1  0.83138953  0.50109411  0.50275072  1
  Ni  Ni49  1  0.66804493  0.33485438  0.66981538  1
  Fe  Fe50  1  0.83277332  0.50123156  0.83429871  1
  Fe  Fe51  1  0.83265698  0.83576146  0.50167339  1
  Ni  Ni52  1  0.66704842  0.66644278  0.66705441  1
  Cr  Cr53  1  0.83346987  0.83297841  0.83375890  1
" 