4844,Ni50Fe27Cr21_16,-231.435276905024, 188.128877996066,Ni50Fe27Cr21,"# generated using pymatgen
 data_Cr13Fe14Ni27
_symmetry_space_group_name_H-M   'P 1'
_cell_length_a   7.44931020
_cell_length_b   7.44931020
_cell_length_c   10.53491551
_cell_angle_alpha   90.00000000
_cell_angle_beta   90.00000000
_cell_angle_gamma   90.00000000
_symmetry_Int_Tables_number   1
_chemical_formula_structural   Cr13Fe14Ni27
_chemical_formula_sum   'Cr13 Fe14 Ni27'
_cell_volume   584.60587425
_cell_formula_units_Z   1
loop_
 _symmetry_equiv_pos_site_id
 _symmetry_equiv_pos_as_xyz
  1  'x, y, z'
loop_
 _atom_site_type_symbol
 _atom_site_label
 _atom_site_symmetry_multiplicity
 _atom_site_fract_x
 _atom_site_fract_y
 _atom_site_fract_z
 _atom_site_occupancy
  Ni  Ni0  1  0.00348306  0.00265812  1.00025661  1
  Ni  Ni1  1  0.16644558  0.16694874  0.16912003  1
  Ni  Ni2  1  0.00221326  0.00178865  0.33599022  1
  Ni  Ni3  1  1.00049418  0.33426599  0.99998598  1
  Ni  Ni4  1  0.16476485  0.50158568  0.16933480  1
  Ni  Ni5  1  1.00040923  0.33365714  0.33508415  1
  Ni  Ni6  1  0.99988729  0.66708731  0.00287303  1
  Fe  Fe7  1  0.16669085  0.83558353  0.16896307  1
  Ni  Ni8  1  0.00260384  0.66803715  0.33435247  1
  Ni  Ni9  1  0.33241087  1.00010425  1.00010488  1
  Cr  Cr10  1  0.50145670  0.16550699  0.16985902  1
  Ni  Ni11  1  0.33146234  0.99922346  0.33461247  1
  Cr  Cr12  1  0.33202193  0.33481356  0.00359461  1
  Ni  Ni13  1  0.50196330  0.50267439  0.16894033  1
  Fe  Fe14  1  0.33222018  0.33513094  0.33167171  1
  Cr  Cr15  1  0.33537137  0.66871232  0.00266506  1
  Ni  Ni16  1  0.50174398  0.83571471  0.16720920  1
  Ni  Ni17  1  0.33252095  0.66943632  0.33202988  1
  Ni  Ni18  1  0.66790224  0.99883269  1.00109403  1
  Cr  Cr19  1  0.83603300  0.16631558  0.16552171  1
  Ni  Ni20  1  0.66981792  0.00143968  0.33501066  1
  Fe  Fe21  1  0.66960727  0.33760448  1.00092480  1
  Ni  Ni22  1  0.83687770  0.50229923  0.16718714  1
  Ni  Ni23  1  0.67142353  0.33477383  0.33431563  1
  Ni  Ni24  1  0.66808357  0.66691784  1.00110490  1
  Fe  Fe25  1  0.83568418  0.83396462  0.16731663  1
  Cr  Cr26  1  0.66922125  0.66809424  0.33404086  1
  Fe  Fe27  1  0.16621332  0.16571257  0.50085747  1
  Fe  Fe28  1  0.00237271  1.00110171  0.66692401  1
  Ni  Ni29  1  0.16624578  0.16567929  0.83290874  1
  Cr  Cr30  1  0.16762617  0.50240815  0.50051767  1
  Fe  Fe31  1  0.99891972  0.33348842  0.66797936  1
  Cr  Cr32  1  0.16521172  0.50209804  0.83413460  1
  Ni  Ni33  1  0.16543294  0.83411748  0.50199210  1
  Fe  Fe34  1  0.99842087  0.66888376  0.66679297  1
  Fe  Fe35  1  0.16804582  0.83539907  0.83381694  1
  Cr  Cr36  1  0.50102667  0.16928469  0.49737209  1
  Fe  Fe37  1  0.33235968  1.00031033  0.66825477  1
  Cr  Cr38  1  0.50173498  0.16732124  0.83653249  1
  Cr  Cr39  1  0.49967885  0.49999927  0.50116057  1
  Fe  Fe40  1  0.33569197  0.33446957  0.66932027  1
  Ni  Ni41  1  0.50357554  0.50212714  0.83329694  1
  Cr  Cr42  1  0.50002468  0.83405748  0.50143873  1
  Ni  Ni43  1  0.33417408  0.66926025  0.66991372  1
  Fe  Fe44  1  0.50075937  0.83252743  0.83495252  1
  Ni  Ni45  1  0.83585508  0.16766465  0.50135523  1
  Cr  Cr46  1  0.67046336  1.00118181  0.66677632  1
  Fe  Fe47  1  0.83644785  0.17059013  0.83524597  1
  Fe  Fe48  1  0.83520634  0.50102268  0.50161698  1
  Ni  Ni49  1  0.67099486  0.33616205  0.66893776  1
  Ni  Ni50  1  0.83369396  0.50205433  0.83422725  1
  Ni  Ni51  1  0.83796724  0.83520620  0.49966012  1
  Ni  Ni52  1  0.66763835  0.66566684  0.66821796  1
  Cr  Cr53  1  0.83569288  0.83332319  0.83692175  1
" 