136,Ni50Fe25Cr24_5,-230.985192662308, 188.765721868038,Ni50Fe25Cr24,"# generated using pymatgen
 data_Cr14Fe13Ni27
_symmetry_space_group_name_H-M   'P 1'
_cell_length_a   7.45356839
_cell_length_b   7.45356839
_cell_length_c   10.54093750
_cell_angle_alpha   90.00000000
_cell_angle_beta   90.00000000
_cell_angle_gamma   90.00000000
_symmetry_Int_Tables_number   1
_chemical_formula_structural   Cr14Fe13Ni27
_chemical_formula_sum   'Cr14 Fe13 Ni27'
_cell_volume   585.60896882
_cell_formula_units_Z   1
loop_
 _symmetry_equiv_pos_site_id
 _symmetry_equiv_pos_as_xyz
  1  'x, y, z'
loop_
 _atom_site_type_symbol
 _atom_site_label
 _atom_site_symmetry_multiplicity
 _atom_site_fract_x
 _atom_site_fract_y
 _atom_site_fract_z
 _atom_site_occupancy
  Cr  Cr0  1  0.00145831  0.00172882  0.99922837  1
  Ni  Ni1  1  0.16799095  0.16601751  0.16782752  1
  Ni  Ni2  1  0.00203643  1.00021489  0.33327753  1
  Cr  Cr3  1  1.00034183  0.33482476  0.00163498  1
  Fe  Fe4  1  0.16808928  0.50094149  0.16903841  1
  Ni  Ni5  1  1.00008973  0.33716448  0.33192325  1
  Cr  Cr6  1  0.99736929  0.66598737  0.00203003  1
  Fe  Fe7  1  0.16886408  0.83408351  0.16941811  1
  Ni  Ni8  1  0.99993718  0.66512853  0.33439850  1
  Ni  Ni9  1  0.33625266  0.00098670  0.00288866  1
  Fe  Fe10  1  0.50247639  0.16654677  0.16837582  1
  Ni  Ni11  1  0.33628286  0.99973091  0.33217754  1
  Ni  Ni12  1  0.33414261  0.33176322  0.00226254  1
  Ni  Ni13  1  0.50092370  0.50312214  0.16774851  1
  Cr  Cr14  1  0.33602734  0.33327488  0.33492055  1
  Fe  Fe15  1  0.33521646  0.66724795  0.00316718  1
  Ni  Ni16  1  0.49951878  0.83294717  0.16704823  1
  Fe  Fe17  1  0.33626439  0.66729329  0.33372972  1
  Fe  Fe18  1  0.66754194  1.00018405  0.00127664  1
  Ni  Ni19  1  0.83520311  0.16765454  0.17065730  1
  Ni  Ni20  1  0.66436841  1.00005114  0.33385012  1
  Cr  Cr21  1  0.66962830  0.33542803  0.00349179  1
  Ni  Ni22  1  0.83153260  0.50067960  0.17053573  1
  Ni  Ni23  1  0.66763002  0.33618492  0.33347456  1
  Fe  Fe24  1  0.66617427  0.66913011  0.00150682  1
  Cr  Cr25  1  0.83249500  0.83526065  0.17077993  1
  Ni  Ni26  1  0.66770324  0.66637531  0.33483861  1
  Cr  Cr27  1  0.16520947  0.16856312  0.50230194  1
  Fe  Fe28  1  0.99656252  1.00051057  0.66847325  1
  Ni  Ni29  1  0.16730197  0.16740361  0.83265849  1
  Ni  Ni30  1  0.16683083  0.50262306  0.50137505  1
  Ni  Ni31  1  0.99938490  0.33738274  0.66958324  1
  Cr  Cr32  1  0.16980214  0.49974872  0.83261844  1
  Cr  Cr33  1  0.16508587  0.83301833  0.49824765  1
  Ni  Ni34  1  0.99828230  0.66561961  0.66690841  1
  Cr  Cr35  1  0.16851106  0.83368390  0.83413295  1
  Ni  Ni36  1  0.50324001  0.16794595  0.49950089  1
  Cr  Cr37  1  0.33660893  0.00104253  0.66641073  1
  Cr  Cr38  1  0.50110509  0.16928495  0.83516879  1
  Ni  Ni39  1  0.50302919  0.50188313  0.50183342  1
  Fe  Fe40  1  0.33606328  0.33593370  0.66526875  1
  Cr  Cr41  1  0.50184380  0.50263417  0.83371396  1
  Fe  Fe42  1  0.50363660  0.83354931  0.49913061  1
  Fe  Fe43  1  0.33612498  0.66675933  0.66493225  1
  Fe  Fe44  1  0.50365402  0.83457344  0.83589601  1
  Cr  Cr45  1  0.83279617  0.16726112  0.49920604  1
  Ni  Ni46  1  0.66601434  0.99907981  0.66810317  1
  Ni  Ni47  1  0.83395241  0.16675413  0.83201593  1
  Ni  Ni48  1  0.83352465  0.50189139  0.50039424  1
  Ni  Ni49  1  0.66921759  0.33503406  0.66619724  1
  Ni  Ni50  1  0.83239399  0.50202310  0.83265529  1
  Fe  Fe51  1  0.83179946  0.83241267  0.50048072  1
  Ni  Ni52  1  0.66943675  0.66823545  0.66778671  1
  Ni  Ni53  1  0.83185598  0.83402292  0.83232638  1
" 