6515,Ni50Fe17Cr31_5,-227.655587974587, 175.215145275978,Ni50Fe17Cr31,"# generated using pymatgen
 data_Cr2FeNi3
_symmetry_space_group_name_H-M   'P 1'
_cell_length_a   7.46763705
_cell_length_b   7.46763705
_cell_length_c   10.56083360
_cell_angle_alpha   90.00000000
_cell_angle_beta   90.00000000
_cell_angle_gamma   90.00000000
_symmetry_Int_Tables_number   1
_chemical_formula_structural   Cr2FeNi3
_chemical_formula_sum   'Cr18 Fe9 Ni27'
_cell_volume   588.93125548
_cell_formula_units_Z   9
loop_
 _symmetry_equiv_pos_site_id
 _symmetry_equiv_pos_as_xyz
  1  'x, y, z'
loop_
 _atom_site_type_symbol
 _atom_site_label
 _atom_site_symmetry_multiplicity
 _atom_site_fract_x
 _atom_site_fract_y
 _atom_site_fract_z
 _atom_site_occupancy
  Fe  Fe0  1  0.00131835  0.99735714  0.00050397  1
  Cr  Cr1  1  0.16523449  0.16638704  0.16676376  1
  Ni  Ni2  1  0.99949366  0.99762604  0.33471439  1
  Ni  Ni3  1  0.99611817  0.33631436  0.99678299  1
  Cr  Cr4  1  0.16455084  0.50033044  0.16720202  1
  Ni  Ni5  1  0.99913671  0.33431049  0.33697259  1
  Ni  Ni6  1  0.99934486  0.66600268  0.00054398  1
  Fe  Fe7  1  0.16485187  0.83180139  0.16575181  1
  Ni  Ni8  1  0.99956599  0.66792894  0.33396604  1
  Ni  Ni9  1  0.33284332  0.99569087  0.00015269  1
  Fe  Fe10  1  0.50159513  0.16623942  0.16773570  1
  Cr  Cr11  1  0.33279873  0.00061601  0.33349091  1
  Cr  Cr12  1  0.33364709  0.33269978  0.00032613  1
  Cr  Cr13  1  0.50116520  0.50079316  0.16643585  1
  Ni  Ni14  1  0.33458863  0.33223279  0.33640808  1
  Ni  Ni15  1  0.33180344  0.67218956  0.99911521  1
  Ni  Ni16  1  0.50009516  0.83299195  0.16410908  1
  Fe  Fe17  1  0.33043848  0.66471223  0.33463025  1
  Cr  Cr18  1  0.66466973  0.99895515  0.00094724  1
  Cr  Cr19  1  0.83483934  0.16770317  0.16637910  1
  Fe  Fe20  1  0.66954345  0.00168501  0.33365146  1
  Ni  Ni21  1  0.67084522  0.33504955  0.00022459  1
  Ni  Ni22  1  0.83367893  0.50095200  0.16540399  1
  Ni  Ni23  1  0.66615638  0.33226081  0.33441619  1
  Ni  Ni24  1  0.66853487  0.66592630  0.00012881  1
  Ni  Ni25  1  0.83372351  0.83194084  0.16686880  1
  Cr  Cr26  1  0.67039130  0.66586284  0.33297158  1
  Ni  Ni27  1  0.16398104  0.16911480  0.49828594  1
  Cr  Cr28  1  0.00068648  0.99891219  0.66495761  1
  Cr  Cr29  1  0.16296499  0.16656861  0.83476632  1
  Ni  Ni30  1  0.16677187  0.49995405  0.49997475  1
  Fe  Fe31  1  0.99927431  0.33675823  0.66551659  1
  Fe  Fe32  1  0.16381544  0.50497168  0.83321358  1
  Ni  Ni33  1  0.16334787  0.83079363  0.49867942  1
  Ni  Ni34  1  0.00060658  0.66509877  0.66543551  1
  Ni  Ni35  1  0.16815011  0.83120317  0.83595396  1
  Ni  Ni36  1  0.50105789  0.17002078  0.49609193  1
  Cr  Cr37  1  0.33221363  0.99841729  0.66647633  1
  Cr  Cr38  1  0.50054878  0.16502061  0.83549279  1
  Ni  Ni39  1  0.49811393  0.49889705  0.49936915  1
  Cr  Cr40  1  0.33157222  0.33455347  0.66349883  1
  Cr  Cr41  1  0.50156066  0.50530183  0.83409163  1
  Cr  Cr42  1  0.50128115  0.82999259  0.50266623  1
  Ni  Ni43  1  0.33072273  0.66682689  0.66656295  1
  Ni  Ni44  1  0.49742848  0.83000908  0.83378089  1
  Ni  Ni45  1  0.83507322  0.16668848  0.49833561  1
  Cr  Cr46  1  0.66694395  0.99958383  0.66469330  1
  Fe  Fe47  1  0.83412399  0.16905854  0.83467976  1
  Fe  Fe48  1  0.83520387  0.50013769  0.49969113  1
  Cr  Cr49  1  0.66880827  0.33467995  0.66547612  1
  Ni  Ni50  1  0.83527549  0.49951038  0.83467914  1
  Ni  Ni51  1  0.83599889  0.83365281  0.49901018  1
  Ni  Ni52  1  0.66840611  0.66531685  0.66662157  1
  Cr  Cr53  1  0.83296402  0.83026558  0.83327039  1
" 