5203,Ni50Fe44Cr5_19,-238.192800793877, 215.996232625984,Ni50Fe44Cr5,"# generated using pymatgen
 data_Cr4Fe23Ni27
_symmetry_space_group_name_H-M   'P 1'
_cell_length_a   7.41151545
_cell_length_b   7.41151545
_cell_length_c   10.48146566
_cell_angle_alpha   90.00000000
_cell_angle_beta   90.00000000
_cell_angle_gamma   90.00000000
_symmetry_Int_Tables_number   1
_chemical_formula_structural   Cr4Fe23Ni27
_chemical_formula_sum   'Cr4 Fe23 Ni27'
_cell_volume   575.75279089
_cell_formula_units_Z   1
loop_
 _symmetry_equiv_pos_site_id
 _symmetry_equiv_pos_as_xyz
  1  'x, y, z'
loop_
 _atom_site_type_symbol
 _atom_site_label
 _atom_site_symmetry_multiplicity
 _atom_site_fract_x
 _atom_site_fract_y
 _atom_site_fract_z
 _atom_site_occupancy
  Ni  Ni0  1  0.00439291  1.00355026  1.00333016  1
  Ni  Ni1  1  0.16921000  0.17098674  0.16940670  1
  Ni  Ni2  1  1.00363625  1.00218708  0.33743733  1
  Ni  Ni3  1  1.00282006  0.33612808  0.00503655  1
  Fe  Fe4  1  0.16995430  0.50328276  0.17024036  1
  Fe  Fe5  1  1.00322691  0.33594202  0.33729887  1
  Ni  Ni6  1  1.00334388  0.67157025  0.00433462  1
  Fe  Fe7  1  0.16788390  0.83770012  0.17041202  1
  Ni  Ni8  1  0.00433630  0.67189512  0.33733593  1
  Fe  Fe9  1  0.33614830  0.00491472  1.00228662  1
  Fe  Fe10  1  0.50428035  0.17198647  0.17027302  1
  Fe  Fe11  1  0.33520096  0.00595702  0.33744151  1
  Fe  Fe12  1  0.33763286  0.33584230  0.00485897  1
  Fe  Fe13  1  0.50387607  0.50112129  0.17095426  1
  Ni  Ni14  1  0.33889802  0.33689682  0.33805326  1
  Fe  Fe15  1  0.33719725  0.67047233  1.00350481  1
  Cr  Cr16  1  0.50472437  0.83667568  0.17083015  1
  Fe  Fe17  1  0.33600185  0.66877056  0.33751210  1
  Ni  Ni18  1  0.67085906  0.00537570  1.00238118  1
  Ni  Ni19  1  0.83845875  0.17074405  0.17010973  1
  Ni  Ni20  1  0.67203075  0.00647807  0.33773155  1
  Ni  Ni21  1  0.66982078  0.33688919  0.00391924  1
  Fe  Fe22  1  0.83740826  0.50322655  0.16981541  1
  Ni  Ni23  1  0.66850052  0.33620085  0.33690944  1
  Ni  Ni24  1  0.67113673  0.66896828  1.00270273  1
  Fe  Fe25  1  0.83913829  0.83810654  0.17071788  1
  Fe  Fe26  1  0.67225309  0.66877183  0.33774841  1
  Ni  Ni27  1  0.16962335  0.17113284  0.50434917  1
  Fe  Fe28  1  0.00402858  1.00365052  0.67009573  1
  Ni  Ni29  1  0.17030509  0.16941994  0.83748319  1
  Fe  Fe30  1  0.16960532  0.50381840  0.50407953  1
  Ni  Ni31  1  0.00406652  0.33662890  0.66893700  1
  Cr  Cr32  1  0.16906151  0.50263501  0.83643231  1
  Fe  Fe33  1  0.16802120  0.83672235  0.50394202  1
  Ni  Ni34  1  1.00348865  0.67111779  0.66956628  1
  Fe  Fe35  1  0.17001963  0.83904066  0.83688361  1
  Fe  Fe36  1  0.50388522  0.17147862  0.50292700  1
  Ni  Ni37  1  0.33591035  0.00412992  0.67089099  1
  Ni  Ni38  1  0.50283113  0.16817962  0.83825395  1
  Ni  Ni39  1  0.50295734  0.50500450  0.50322701  1
  Fe  Fe40  1  0.33595346  0.33681609  0.66919760  1
  Fe  Fe41  1  0.50516594  0.50365128  0.83742751  1
  Cr  Cr42  1  0.50473905  0.83586737  0.50373597  1
  Ni  Ni43  1  0.33669275  0.67150061  0.67011814  1
  Fe  Fe44  1  0.50409428  0.83763376  0.83685854  1
  Ni  Ni45  1  0.83944409  0.16986447  0.50305243  1
  Fe  Fe46  1  0.67136660  1.00244656  0.67111831  1
  Ni  Ni47  1  0.83810064  0.16995674  0.83807372  1
  Ni  Ni48  1  0.83767189  0.50477842  0.50284223  1
  Cr  Cr49  1  0.67087739  0.33721522  0.67041090  1
  Ni  Ni50  1  0.83667572  0.50481197  0.83823252  1
  Ni  Ni51  1  0.83716957  0.83658861  0.50346364  1
  Ni  Ni52  1  0.67105133  0.67027884  0.67096935  1
  Fe  Fe53  1  0.83712516  0.83729289  0.83715109  1
" 