1427,Ni50Fe25Cr24_10,-230.762893451649, 191.076854441701,Ni50Fe25Cr24,"# generated using pymatgen
 data_Cr14Fe13Ni27
_symmetry_space_group_name_H-M   'P 1'
_cell_length_a   7.44918995
_cell_length_b   7.44918995
_cell_length_c   10.53474546
_cell_angle_alpha   90.00000000
_cell_angle_beta   90.00000000
_cell_angle_gamma   90.00000000
_symmetry_Int_Tables_number   1
_chemical_formula_structural   Cr14Fe13Ni27
_chemical_formula_sum   'Cr14 Fe13 Ni27'
_cell_volume   584.57756566
_cell_formula_units_Z   1
loop_
 _symmetry_equiv_pos_site_id
 _symmetry_equiv_pos_as_xyz
  1  'x, y, z'
loop_
 _atom_site_type_symbol
 _atom_site_label
 _atom_site_symmetry_multiplicity
 _atom_site_fract_x
 _atom_site_fract_y
 _atom_site_fract_z
 _atom_site_occupancy
  Fe  Fe0  1  0.00409032  0.99926141  0.00212940  1
  Ni  Ni1  1  0.16936234  0.16861914  0.16769903  1
  Ni  Ni2  1  1.00093461  0.99911945  0.33368400  1
  Cr  Cr3  1  0.00178820  0.33813132  1.00113703  1
  Ni  Ni4  1  0.16986240  0.50146096  0.16923947  1
  Ni  Ni5  1  0.00308962  0.33653615  0.33505297  1
  Fe  Fe6  1  0.00138927  0.66950769  0.00187557  1
  Ni  Ni7  1  0.16796682  0.83365056  0.16676272  1
  Ni  Ni8  1  0.00345910  0.66826572  0.33254160  1
  Ni  Ni9  1  0.33478119  0.99975569  1.00012796  1
  Ni  Ni10  1  0.49843044  0.16904125  0.16582933  1
  Cr  Cr11  1  0.33679173  0.00127237  0.33232187  1
  Ni  Ni12  1  0.33442703  0.33414797  0.00223287  1
  Fe  Fe13  1  0.49862293  0.50265751  0.16692182  1
  Ni  Ni14  1  0.33309306  0.33601858  0.33223459  1
  Ni  Ni15  1  0.33227654  0.66949030  0.00134283  1
  Ni  Ni16  1  0.50053455  0.83162684  0.16846069  1
  Ni  Ni17  1  0.33153760  0.66759461  0.33444568  1
  Cr  Cr18  1  0.66596882  0.99999319  0.00280144  1
  Cr  Cr19  1  0.83793765  0.16643672  0.17005489  1
  Ni  Ni20  1  0.66788734  1.00075917  0.33447558  1
  Ni  Ni21  1  0.66668001  0.33559795  0.00128711  1
  Fe  Fe22  1  0.83542523  0.50305544  0.16780248  1
  Cr  Cr23  1  0.66579643  0.33137580  0.33341031  1
  Fe  Fe24  1  0.66705578  0.66779578  0.00241187  1
  Ni  Ni25  1  0.83518394  0.83200334  0.16883143  1
  Ni  Ni26  1  0.66823139  0.66993047  0.33085430  1
  Cr  Cr27  1  0.16479538  0.16737395  0.49843725  1
  Fe  Fe28  1  0.00144892  0.00235127  0.66783608  1
  Ni  Ni29  1  0.16895997  0.16693371  0.83583675  1
  Fe  Fe30  1  0.16758868  0.50220274  0.49880070  1
  Ni  Ni31  1  1.00112311  0.33640440  0.66829795  1
  Fe  Fe32  1  0.16755019  0.50165351  0.83660691  1
  Ni  Ni33  1  0.16820358  0.83368258  0.50159025  1
  Cr  Cr34  1  0.00384316  0.66711812  0.66928020  1
  Fe  Fe35  1  0.16811391  0.83536780  0.83579182  1
  Ni  Ni36  1  0.50224060  0.16821553  0.50279104  1
  Fe  Fe37  1  0.33382012  1.00112854  0.66955561  1
  Fe  Fe38  1  0.50108367  0.16616380  0.83518733  1
  Cr  Cr39  1  0.50011419  0.50267892  0.49980147  1
  Cr  Cr40  1  0.33293878  0.33455630  0.66830931  1
  Cr  Cr41  1  0.50176452  0.50198328  0.83621129  1
  Cr  Cr42  1  0.50048753  0.83306965  0.50148039  1
  Fe  Fe43  1  0.33429091  0.66935122  0.66884447  1
  Ni  Ni44  1  0.50039339  0.83321537  0.83289026  1
  Ni  Ni45  1  0.83519048  0.16782554  0.50232416  1
  Ni  Ni46  1  0.66627882  0.00133792  0.66777964  1
  Cr  Cr47  1  0.83721245  0.16806181  0.83283900  1
  Cr  Cr48  1  0.83421061  0.49993301  0.50049276  1
  Ni  Ni49  1  0.66902543  0.33109787  0.66872491  1
  Ni  Ni50  1  0.83323631  0.50247910  0.83530633  1
  Cr  Cr51  1  0.83540715  0.83659229  0.49922805  1
  Fe  Fe52  1  0.66914111  0.66760215  0.66940169  1
  Ni  Ni53  1  0.83365878  0.83324031  0.83511162  1
" 