5859,Ni50Fe44Cr5_7,-238.158172287085, 216.159472859734,Ni50Fe44Cr5,"# generated using pymatgen
 data_Cr4Fe23Ni27
_symmetry_space_group_name_H-M   'P 1'
_cell_length_a   7.41213878
_cell_length_b   7.41213878
_cell_length_c   10.48234718
_cell_angle_alpha   90.00000000
_cell_angle_beta   90.00000000
_cell_angle_gamma   90.00000000
_symmetry_Int_Tables_number   1
_chemical_formula_structural   Cr4Fe23Ni27
_chemical_formula_sum   'Cr4 Fe23 Ni27'
_cell_volume   575.89807052
_cell_formula_units_Z   1
loop_
 _symmetry_equiv_pos_site_id
 _symmetry_equiv_pos_as_xyz
  1  'x, y, z'
loop_
 _atom_site_type_symbol
 _atom_site_label
 _atom_site_symmetry_multiplicity
 _atom_site_fract_x
 _atom_site_fract_y
 _atom_site_fract_z
 _atom_site_occupancy
  Ni  Ni0  1  0.00483594  0.00407944  0.00498876  1
  Fe  Fe1  1  0.17103727  0.17135834  0.17124115  1
  Ni  Ni2  1  0.00445266  0.00547849  0.33626891  1
  Ni  Ni3  1  0.00456279  0.33662340  1.00281949  1
  Ni  Ni4  1  0.16968946  0.50279874  0.17124060  1
  Ni  Ni5  1  1.00355348  0.33498201  0.33713332  1
  Ni  Ni6  1  0.00462511  0.67005796  1.00320917  1
  Ni  Ni7  1  0.17245214  0.83617577  0.16883625  1
  Cr  Cr8  1  1.00258875  0.67128511  0.33800629  1
  Fe  Fe9  1  0.33574037  0.00658192  0.00543070  1
  Ni  Ni10  1  0.50384565  0.16945939  0.16956471  1
  Ni  Ni11  1  0.33626478  0.00443079  0.33638365  1
  Ni  Ni12  1  0.33739504  0.33700369  1.00309110  1
  Fe  Fe13  1  0.50248996  0.50335537  0.17078340  1
  Ni  Ni14  1  0.33793068  0.33606523  0.33765671  1
  Fe  Fe15  1  0.33510839  0.66847506  0.00534781  1
  Ni  Ni16  1  0.50303764  0.83863915  0.17067289  1
  Ni  Ni17  1  0.33953744  0.67054628  0.33822506  1
  Ni  Ni18  1  0.67042514  0.00585878  0.00429682  1
  Fe  Fe19  1  0.83775734  0.17056897  0.16903256  1
  Fe  Fe20  1  0.66968793  0.00402669  0.33648661  1
  Ni  Ni21  1  0.66916489  0.33683731  1.00336812  1
  Ni  Ni22  1  0.83843054  0.50169562  0.16823504  1
  Fe  Fe23  1  0.67064644  0.33685095  0.33733726  1
  Fe  Fe24  1  0.67113787  0.66865550  0.00666689  1
  Fe  Fe25  1  0.83671432  0.83742627  0.16951373  1
  Ni  Ni26  1  0.66917506  0.66941502  0.33604804  1
  Ni  Ni27  1  0.17118929  0.17129071  0.50287027  1
  Ni  Ni28  1  0.00572264  0.00409760  0.66924113  1
  Fe  Fe29  1  0.16902445  0.17008994  0.83671459  1
  Fe  Fe30  1  0.17062219  0.50099574  0.50354259  1
  Fe  Fe31  1  1.00317588  0.33545255  0.66996361  1
  Ni  Ni32  1  0.17037311  0.50303227  0.83634908  1
  Fe  Fe33  1  0.17029223  0.84045999  0.50333548  1
  Fe  Fe34  1  0.00642827  0.67006366  0.66974248  1
  Fe  Fe35  1  0.16930097  0.83764135  0.83769467  1
  Ni  Ni36  1  0.50290717  0.16937454  0.50513889  1
  Ni  Ni37  1  0.33448369  0.00457030  0.67062101  1
  Fe  Fe38  1  0.50387206  0.17312146  0.83713643  1
  Fe  Fe39  1  0.50460902  0.50064915  0.50242539  1
  Fe  Fe40  1  0.33698404  0.33575606  0.67032744  1
  Fe  Fe41  1  0.50303979  0.50099165  0.83768140  1
  Fe  Fe42  1  0.50366446  0.83925557  0.50230283  1
  Fe  Fe43  1  0.33432926  0.66998347  0.66922200  1
  Cr  Cr44  1  0.50185510  0.83954277  0.83877128  1
  Ni  Ni45  1  0.83692257  0.17045496  0.50326723  1
  Fe  Fe46  1  0.67088107  0.00754101  0.66946112  1
  Ni  Ni47  1  0.83688388  0.17188791  0.83640116  1
  Ni  Ni48  1  0.83824785  0.50214880  0.50483418  1
  Ni  Ni49  1  0.66984668  0.33669684  0.67089278  1
  Fe  Fe50  1  0.83834408  0.50094372  0.83833205  1
  Ni  Ni51  1  0.83595771  0.83855400  0.50329058  1
  Cr  Cr52  1  0.67112483  0.66736302  0.66970470  1
  Cr  Cr53  1  0.83764556  0.83932465  0.83886554  1
" 