722,Ni50Fe47Cr2_13,-239.884363342054, 220.158733833461,Ni50Fe47Cr2,"# generated using pymatgen
 data_Cr2Fe25Ni27
_symmetry_space_group_name_H-M   'P 1'
_cell_length_a   7.41345720
_cell_length_b   7.41345720
_cell_length_c   10.48421171
_cell_angle_alpha   90.00000000
_cell_angle_beta   90.00000000
_cell_angle_gamma   90.00000000
_symmetry_Int_Tables_number   1
_chemical_formula_structural   Cr2Fe25Ni27
_chemical_formula_sum   'Cr2 Fe25 Ni27'
_cell_volume   576.20543572
_cell_formula_units_Z   1
loop_
 _symmetry_equiv_pos_site_id
 _symmetry_equiv_pos_as_xyz
  1  'x, y, z'
loop_
 _atom_site_type_symbol
 _atom_site_label
 _atom_site_symmetry_multiplicity
 _atom_site_fract_x
 _atom_site_fract_y
 _atom_site_fract_z
 _atom_site_occupancy
  Cr  Cr0  1  1.00346952  1.00356367  0.00404893  1
  Ni  Ni1  1  0.17112586  0.17216864  0.17124926  1
  Ni  Ni2  1  1.00254465  1.00311473  0.33689556  1
  Ni  Ni3  1  1.00215388  0.33842257  0.00368643  1
  Fe  Fe4  1  0.16917879  0.50338619  0.17102265  1
  Ni  Ni5  1  0.00473060  0.33654489  0.33765416  1
  Ni  Ni6  1  0.00406220  0.66871602  1.00342823  1
  Fe  Fe7  1  0.17019097  0.83666308  0.17096257  1
  Ni  Ni8  1  0.00471109  0.67118509  0.33700666  1
  Ni  Ni9  1  0.33878061  1.00260968  0.00373825  1
  Fe  Fe10  1  0.50361771  0.16882837  0.16935890  1
  Fe  Fe11  1  0.33625907  0.00437145  0.33685902  1
  Fe  Fe12  1  0.33717266  0.33678075  0.00370711  1
  Fe  Fe13  1  0.50303698  0.50418846  0.16931548  1
  Ni  Ni14  1  0.33577791  0.33815684  0.33720671  1
  Ni  Ni15  1  0.33712820  0.67085410  1.00315525  1
  Fe  Fe16  1  0.50401076  0.83782510  0.16926001  1
  Ni  Ni17  1  0.33606425  0.66984653  0.33747456  1
  Ni  Ni18  1  0.66860947  0.00451682  1.00297801  1
  Ni  Ni19  1  0.83753420  0.16962492  0.17034130  1
  Ni  Ni20  1  0.67167961  1.00282763  0.33728211  1
  Ni  Ni21  1  0.67073470  0.33676339  0.00370284  1
  Fe  Fe22  1  0.83862703  0.50377244  0.16928156  1
  Cr  Cr23  1  0.67075010  0.33603823  0.33696569  1
  Ni  Ni24  1  0.66965445  0.66955798  0.00401329  1
  Ni  Ni25  1  0.83562523  0.83600392  0.17056540  1
  Fe  Fe26  1  0.67145985  0.67208376  0.33677362  1
  Fe  Fe27  1  0.16973987  0.17074587  0.50319984  1
  Ni  Ni28  1  0.00362044  1.00319310  0.67004001  1
  Fe  Fe29  1  0.17208624  0.17022081  0.83637886  1
  Ni  Ni30  1  0.16975946  0.50313260  0.50317575  1
  Fe  Fe31  1  0.00458228  0.33697915  0.66997102  1
  Fe  Fe32  1  0.17140297  0.50395693  0.83673151  1
  Fe  Fe33  1  0.16977104  0.83637674  0.50380389  1
  Fe  Fe34  1  0.00424360  0.67007060  0.66959155  1
  Fe  Fe35  1  0.17249611  0.83666187  0.83607526  1
  Ni  Ni36  1  0.50193570  0.16926758  0.50414179  1
  Ni  Ni37  1  0.33605545  1.00294398  0.66973476  1
  Ni  Ni38  1  0.50306266  0.16929615  0.83838938  1
  Fe  Fe39  1  0.50267585  0.50415615  0.50458073  1
  Ni  Ni40  1  0.33866948  0.33761585  0.67023025  1
  Fe  Fe41  1  0.50368137  0.50367783  0.83695157  1
  Fe  Fe42  1  0.50363792  0.83633747  0.50404505  1
  Ni  Ni43  1  0.33701321  0.67027961  0.67021143  1
  Ni  Ni44  1  0.50364036  0.83800205  0.83732208  1
  Fe  Fe45  1  0.83786290  0.16977101  0.50375741  1
  Fe  Fe46  1  0.66886918  0.00409229  0.67021560  1
  Fe  Fe47  1  0.83507679  0.17091670  0.83687533  1
  Ni  Ni48  1  0.83919344  0.50562694  0.50385429  1
  Ni  Ni49  1  0.66985647  0.33701582  0.67004204  1
  Fe  Fe50  1  0.83576147  0.50326851  0.83723573  1
  Ni  Ni51  1  0.83671021  0.83600816  0.50360801  1
  Fe  Fe52  1  0.66972142  0.67049262  0.67049654  1
  Fe  Fe53  1  0.83536142  0.83665600  0.83658444  1
" 