5748,Ni50Fe47Cr2_12,-239.981441094874, 222.691770235629,Ni50Fe47Cr2,"# generated using pymatgen
 data_Cr2Fe25Ni27
_symmetry_space_group_name_H-M   'P 1'
_cell_length_a   7.40503212
_cell_length_b   7.40503212
_cell_length_c   10.47229685
_cell_angle_alpha   90.00000000
_cell_angle_beta   90.00000000
_cell_angle_gamma   90.00000000
_symmetry_Int_Tables_number   1
_chemical_formula_structural   Cr2Fe25Ni27
_chemical_formula_sum   'Cr2 Fe25 Ni27'
_cell_volume   574.24316917
_cell_formula_units_Z   1
loop_
 _symmetry_equiv_pos_site_id
 _symmetry_equiv_pos_as_xyz
  1  'x, y, z'
loop_
 _atom_site_type_symbol
 _atom_site_label
 _atom_site_symmetry_multiplicity
 _atom_site_fract_x
 _atom_site_fract_y
 _atom_site_fract_z
 _atom_site_occupancy
  Fe  Fe0  1  1.00388360  1.00313840  1.00364086  1
  Ni  Ni1  1  0.17088954  0.17067717  0.17228308  1
  Fe  Fe2  1  0.00437893  0.00441633  0.33828892  1
  Fe  Fe3  1  1.00262097  0.33828825  0.00421828  1
  Fe  Fe4  1  0.17050338  0.50538528  0.17130572  1
  Fe  Fe5  1  0.00599945  0.33789854  0.33741895  1
  Ni  Ni6  1  1.00400065  0.67145211  1.00405763  1
  Fe  Fe7  1  0.17113468  0.83682925  0.17122572  1
  Ni  Ni8  1  1.00407978  0.67210084  0.33758176  1
  Fe  Fe9  1  0.33794982  1.00173663  0.00428478  1
  Ni  Ni10  1  0.50232956  0.16944079  0.17043145  1
  Fe  Fe11  1  0.33739682  0.00436497  0.33775188  1
  Cr  Cr12  1  0.33867192  0.33791230  0.00449581  1
  Ni  Ni13  1  0.50460489  0.50592097  0.17096551  1
  Ni  Ni14  1  0.33699186  0.33662528  0.33815938  1
  Ni  Ni15  1  0.33687218  0.67173349  0.00502210  1
  Ni  Ni16  1  0.50497617  0.83719744  0.17020677  1
  Fe  Fe17  1  0.33772303  0.67055282  0.33756520  1
  Ni  Ni18  1  0.67135508  0.00470238  0.00451710  1
  Fe  Fe19  1  0.83703685  0.16983434  0.17025217  1
  Fe  Fe20  1  0.67078518  1.00216635  0.33690513  1
  Fe  Fe21  1  0.67206127  0.33891145  0.00434837  1
  Ni  Ni22  1  0.83788473  0.50587610  0.16867655  1
  Cr  Cr23  1  0.66944564  0.33700389  0.33554416  1
  Ni  Ni24  1  0.67168857  0.67133208  0.00529862  1
  Ni  Ni25  1  0.83664996  0.83638086  0.17205329  1
  Fe  Fe26  1  0.67104057  0.67217358  0.33723851  1
  Fe  Fe27  1  0.17016352  0.16961022  0.50423785  1
  Ni  Ni28  1  0.00490412  1.00344220  0.67049738  1
  Ni  Ni29  1  0.17027506  0.17069762  0.83572122  1
  Fe  Fe30  1  0.16987035  0.50565449  0.50442228  1
  Fe  Fe31  1  0.00422582  0.33778638  0.67092333  1
  Ni  Ni32  1  0.17108493  0.50380461  0.83652294  1
  Ni  Ni33  1  0.17115995  0.83795000  0.50496252  1
  Ni  Ni34  1  1.00410403  0.67206999  0.67092138  1
  Fe  Fe35  1  0.17091796  0.83660691  0.83649408  1
  Fe  Fe36  1  0.50420191  0.16933339  0.50461921  1
  Ni  Ni37  1  0.33640534  0.00471250  0.67127106  1
  Fe  Fe38  1  0.50479459  0.17038708  0.83695576  1
  Fe  Fe39  1  0.50434892  0.50577935  0.50552117  1
  Fe  Fe40  1  0.33729816  0.33814453  0.67140899  1
  Ni  Ni41  1  0.50433440  0.50528156  0.83648697  1
  Ni  Ni42  1  0.50423462  0.83727418  0.50453692  1
  Ni  Ni43  1  0.33688330  0.67112515  0.67073949  1
  Fe  Fe44  1  0.50350708  0.83671553  0.83762091  1
  Ni  Ni45  1  0.83902219  0.17034542  0.50511197  1
  Fe  Fe46  1  0.67129258  1.00289239  0.67078973  1
  Fe  Fe47  1  0.83773815  0.17124833  0.83678443  1
  Ni  Ni48  1  0.83834934  0.50495155  0.50631681  1
  Ni  Ni49  1  0.67030547  0.33752560  0.67163957  1
  Fe  Fe50  1  0.83784724  0.50457023  0.83733322  1
  Ni  Ni51  1  0.83716781  0.83726294  0.50407509  1
  Ni  Ni52  1  0.67157464  0.66951240  0.67003515  1
  Ni  Ni53  1  0.83715240  0.83738253  0.83643185  1
" 