6440,Ni50Fe33Cr15_9,-234.993372961805, 206.874488135067,Ni50Fe33Cr15,"# generated using pymatgen
 data_CrFe2Ni3
_symmetry_space_group_name_H-M   'P 1'
_cell_length_a   7.43255520
_cell_length_b   7.43255520
_cell_length_c   10.51122037
_cell_angle_alpha   90.00000000
_cell_angle_beta   90.00000000
_cell_angle_gamma   90.00000000
_symmetry_Int_Tables_number   1
_chemical_formula_structural   CrFe2Ni3
_chemical_formula_sum   'Cr9 Fe18 Ni27'
_cell_volume   580.67005202
_cell_formula_units_Z   9
loop_
 _symmetry_equiv_pos_site_id
 _symmetry_equiv_pos_as_xyz
  1  'x, y, z'
loop_
 _atom_site_type_symbol
 _atom_site_label
 _atom_site_symmetry_multiplicity
 _atom_site_fract_x
 _atom_site_fract_y
 _atom_site_fract_z
 _atom_site_occupancy
  Cr  Cr0  1  1.00179226  1.00007412  1.00229991  1
  Fe  Fe1  1  0.17015975  0.16944399  0.17014920  1
  Ni  Ni2  1  1.00056158  1.00165181  0.33601701  1
  Fe  Fe3  1  1.00042772  0.33926832  0.00238928  1
  Fe  Fe4  1  0.16934983  0.50377092  0.17013233  1
  Ni  Ni5  1  0.00326862  0.33509086  0.33488655  1
  Ni  Ni6  1  1.00216360  0.66821560  1.00181969  1
  Ni  Ni7  1  0.16972499  0.83506376  0.16815804  1
  Fe  Fe8  1  0.00314265  0.66990229  0.33552416  1
  Fe  Fe9  1  0.33819815  0.99852215  0.00274522  1
  Fe  Fe10  1  0.50231033  0.16854605  0.16973448  1
  Cr  Cr11  1  0.33551274  1.00171573  0.33399967  1
  Cr  Cr12  1  0.33636340  0.33622155  0.00445415  1
  Ni  Ni13  1  0.50311020  0.50358546  0.17032347  1
  Ni  Ni14  1  0.33623789  0.33831258  0.33589456  1
  Ni  Ni15  1  0.33496143  0.67030718  0.00257253  1
  Ni  Ni16  1  0.50199515  0.83393294  0.16788007  1
  Ni  Ni17  1  0.33591014  0.66651604  0.33607495  1
  Ni  Ni18  1  0.66759589  1.00153731  1.00038735  1
  Cr  Cr19  1  0.83577070  0.16981052  0.17050543  1
  Ni  Ni20  1  0.67115930  1.00197870  0.33766765  1
  Fe  Fe21  1  0.67048013  0.33674947  1.00219678  1
  Fe  Fe22  1  0.83501601  0.50452148  0.16867931  1
  Ni  Ni23  1  0.66745654  0.33575963  0.33511565  1
  Ni  Ni24  1  0.66983510  0.67001819  0.00283927  1
  Fe  Fe25  1  0.83411934  0.83346268  0.16961181  1
  Ni  Ni26  1  0.66793266  0.66922293  0.33471188  1
  Cr  Cr27  1  0.16920347  0.16991993  0.50068486  1
  Cr  Cr28  1  1.00104466  1.00014582  0.66808036  1
  Cr  Cr29  1  0.16963598  0.16899508  0.83532727  1
  Ni  Ni30  1  0.17095595  0.50333554  0.50273164  1
  Fe  Fe31  1  1.00172300  0.33891572  0.66950463  1
  Fe  Fe32  1  0.16642275  0.50584251  0.83464803  1
  Ni  Ni33  1  0.16823579  0.83372799  0.50300892  1
  Ni  Ni34  1  0.00358465  0.66870015  0.67011133  1
  Fe  Fe35  1  0.17024557  0.83193091  0.83543202  1
  Ni  Ni36  1  0.50382790  0.17041433  0.50316128  1
  Ni  Ni37  1  0.33761267  1.00103469  0.67032989  1
  Fe  Fe38  1  0.50533675  0.16631834  0.83430613  1
  Ni  Ni39  1  0.50104668  0.50151439  0.50188138  1
  Fe  Fe40  1  0.33681564  0.33707629  0.66741488  1
  Cr  Cr41  1  0.50408927  0.50463893  0.83439404  1
  Fe  Fe42  1  0.50246974  0.83416784  0.50309638  1
  Ni  Ni43  1  0.33454445  0.66948107  0.66831125  1
  Ni  Ni44  1  0.50278239  0.83691148  0.83578590  1
  Fe  Fe45  1  0.83356604  0.16855593  0.50067734  1
  Fe  Fe46  1  0.66721247  1.00112921  0.66914203  1
  Fe  Fe47  1  0.83211221  0.17013987  0.83596036  1
  Cr  Cr48  1  0.83474306  0.50303818  0.50167494  1
  Ni  Ni49  1  0.66854959  0.33443079  0.66951997  1
  Ni  Ni50  1  0.83683274  0.50257328  0.83680367  1
  Ni  Ni51  1  0.83547219  0.83651005  0.50043814  1
  Ni  Ni52  1  0.66883100  0.66901899  0.66940793  1
  Ni  Ni53  1  0.83384673  0.83362987  0.83669448  1
" 