7925,Ni50Fe26Cr23_16,-231.588468074629, 189.9900693717,Ni50Fe26Cr23,"# generated using pymatgen
 data_Cr13Fe14Ni27
_symmetry_space_group_name_H-M   'P 1'
_cell_length_a   7.44786323
_cell_length_b   7.44786323
_cell_length_c   10.53286919
_cell_angle_alpha   90.00000000
_cell_angle_beta   90.00000000
_cell_angle_gamma   90.00000000
_symmetry_Int_Tables_number   1
_chemical_formula_structural   Cr13Fe14Ni27
_chemical_formula_sum   'Cr13 Fe14 Ni27'
_cell_volume   584.26527547
_cell_formula_units_Z   1
loop_
 _symmetry_equiv_pos_site_id
 _symmetry_equiv_pos_as_xyz
  1  'x, y, z'
loop_
 _atom_site_type_symbol
 _atom_site_label
 _atom_site_symmetry_multiplicity
 _atom_site_fract_x
 _atom_site_fract_y
 _atom_site_fract_z
 _atom_site_occupancy
  Fe  Fe0  1  0.00309421  1.00080447  0.00184419  1
  Fe  Fe1  1  0.16880304  0.16719234  0.16690863  1
  Fe  Fe2  1  1.00098887  0.99865736  0.33493032  1
  Ni  Ni3  1  0.00338081  0.33431619  1.00122296  1
  Ni  Ni4  1  0.17092491  0.50293276  0.16849254  1
  Cr  Cr5  1  0.00341269  0.33363409  0.33434226  1
  Fe  Fe6  1  0.00415401  0.66784682  1.00072412  1
  Fe  Fe7  1  0.16923381  0.83472057  0.16869877  1
  Ni  Ni8  1  0.00318430  0.66995660  0.33519482  1
  Ni  Ni9  1  0.33295315  0.00151297  0.99989934  1
  Ni  Ni10  1  0.49912988  0.16736830  0.16849119  1
  Ni  Ni11  1  0.33533056  1.00034446  0.33486632  1
  Ni  Ni12  1  0.33298128  0.33394574  0.00268498  1
  Ni  Ni13  1  0.49718867  0.50089073  0.16655873  1
  Fe  Fe14  1  0.33394470  0.33602237  0.33240827  1
  Ni  Ni15  1  0.33261611  0.66841238  1.00092663  1
  Fe  Fe16  1  0.49927862  0.83398683  0.16884572  1
  Ni  Ni17  1  0.33312332  0.67022745  0.33430371  1
  Cr  Cr18  1  0.66681031  1.00085686  0.00335463  1
  Ni  Ni19  1  0.83499443  0.16484114  0.16676512  1
  Fe  Fe20  1  0.66841054  0.99922450  0.33392972  1
  Ni  Ni21  1  0.66753663  0.33378486  1.00041918  1
  Cr  Cr22  1  0.83554309  0.50291780  0.16596128  1
  Cr  Cr23  1  0.66821416  0.33202665  0.33374552  1
  Cr  Cr24  1  0.66742468  0.66869639  1.00019050  1
  Ni  Ni25  1  0.83720673  0.83653978  0.16973676  1
  Ni  Ni26  1  0.66743875  0.67104564  0.33363821  1
  Cr  Cr27  1  0.16818082  0.16598049  0.50170530  1
  Ni  Ni28  1  0.00209159  0.99947118  0.66756442  1
  Fe  Fe29  1  0.16822946  0.16688906  0.83550299  1
  Ni  Ni30  1  0.16796838  0.50390556  0.49989842  1
  Fe  Fe31  1  0.00208534  0.33534232  0.66884995  1
  Ni  Ni32  1  0.16684430  0.50149659  0.83579265  1
  Ni  Ni33  1  0.16793934  0.83456639  0.50172640  1
  Ni  Ni34  1  0.00195514  0.66886116  0.66826320  1
  Fe  Fe35  1  0.16661156  0.83575541  0.83455070  1
  Fe  Fe36  1  0.50079920  0.16497960  0.50014835  1
  Ni  Ni37  1  0.33342731  1.00111539  0.66916269  1
  Ni  Ni38  1  0.49863709  0.16746644  0.83471628  1
  Cr  Cr39  1  0.49927412  0.50277428  0.49938182  1
  Cr  Cr40  1  0.33396212  0.33388092  0.66809219  1
  Fe  Fe41  1  0.50103883  0.49987016  0.83708615  1
  Ni  Ni42  1  0.49962376  0.83676938  0.49870231  1
  Cr  Cr43  1  0.33235979  0.67066906  0.66859069  1
  Ni  Ni44  1  0.49844552  0.83704273  0.83599451  1
  Ni  Ni45  1  0.83460570  0.16495255  0.50212962  1
  Cr  Cr46  1  0.66634704  0.99984533  0.66593503  1
  Cr  Cr47  1  0.83530895  0.16798708  0.83492445  1
  Cr  Cr48  1  0.83671916  0.50278962  0.50329207  1
  Fe  Fe49  1  0.66864226  0.33383212  0.66909446  1
  Ni  Ni50  1  0.83847687  0.50122715  0.83477453  1
  Ni  Ni51  1  0.83632650  0.83633840  0.49977366  1
  Cr  Cr52  1  0.66882591  0.66934667  0.67019803  1
  Ni  Ni53  1  0.83751891  0.83368613  0.83461195  1
" 