6923,Ni50Fe33Cr15_18,-235.273107681506, 203.932407650995,Ni50Fe33Cr15,"# generated using pymatgen
 data_CrFe2Ni3
_symmetry_space_group_name_H-M   'P 1'
_cell_length_a   7.43750616
_cell_length_b   7.43750616
_cell_length_c   10.51822208
_cell_angle_alpha   90.00000000
_cell_angle_beta   90.00000000
_cell_angle_gamma   90.00000000
_symmetry_Int_Tables_number   1
_chemical_formula_structural   CrFe2Ni3
_chemical_formula_sum   'Cr9 Fe18 Ni27'
_cell_volume   581.83120984
_cell_formula_units_Z   9
loop_
 _symmetry_equiv_pos_site_id
 _symmetry_equiv_pos_as_xyz
  1  'x, y, z'
loop_
 _atom_site_type_symbol
 _atom_site_label
 _atom_site_symmetry_multiplicity
 _atom_site_fract_x
 _atom_site_fract_y
 _atom_site_fract_z
 _atom_site_occupancy
  Cr  Cr0  1  1.00173426  1.00138448  0.00334922  1
  Ni  Ni1  1  0.17007255  0.16714947  0.16837523  1
  Fe  Fe2  1  0.99951555  1.00150397  0.33348340  1
  Cr  Cr3  1  0.00311612  0.33741277  1.00099915  1
  Fe  Fe4  1  0.17052705  0.50244489  0.16770263  1
  Cr  Cr5  1  0.00254947  0.33489323  0.33459831  1
  Ni  Ni6  1  0.00224705  0.66868460  0.00281371  1
  Ni  Ni7  1  0.16940773  0.83280495  0.16806987  1
  Fe  Fe8  1  0.99861883  0.67018675  0.33305644  1
  Fe  Fe9  1  0.33658208  1.00191277  0.00283984  1
  Ni  Ni10  1  0.50379676  0.16810091  0.16647476  1
  Cr  Cr11  1  0.33743582  0.00263177  0.33326930  1
  Ni  Ni12  1  0.33638495  0.33517097  0.00205858  1
  Fe  Fe13  1  0.50269976  0.50234255  0.16782815  1
  Fe  Fe14  1  0.33863591  0.33576072  0.33309885  1
  Ni  Ni15  1  0.33576852  0.66826621  0.00217507  1
  Ni  Ni16  1  0.50177071  0.83408269  0.16700936  1
  Fe  Fe17  1  0.33907806  0.66846606  0.33316531  1
  Ni  Ni18  1  0.66555239  1.00074919  0.00363746  1
  Ni  Ni19  1  0.83233337  0.16968616  0.16911907  1
  Ni  Ni20  1  0.66862624  0.99967257  0.33483404  1
  Ni  Ni21  1  0.66584949  0.33613039  0.00346504  1
  Ni  Ni22  1  0.83343292  0.50405316  0.16713014  1
  Fe  Fe23  1  0.66851663  0.33609871  0.33437729  1
  Ni  Ni24  1  0.66804324  0.66925091  1.00043995  1
  Fe  Fe25  1  0.83278043  0.83528809  0.16863440  1
  Ni  Ni26  1  0.66792018  0.66978793  0.33704418  1
  Ni  Ni27  1  0.16645364  0.16795971  0.50418161  1
  Fe  Fe28  1  1.00007677  0.00407019  0.66923171  1
  Ni  Ni29  1  0.17150211  0.16788898  0.83333739  1
  Cr  Cr30  1  0.17112946  0.50178086  0.50079498  1
  Ni  Ni31  1  0.00285403  0.33516846  0.66912087  1
  Ni  Ni32  1  0.16991848  0.50313664  0.83672836  1
  Cr  Cr33  1  0.16950276  0.83634295  0.50132137  1
  Cr  Cr34  1  1.00073665  0.66652528  0.67054719  1
  Fe  Fe35  1  0.17057587  0.83419671  0.83663418  1
  Cr  Cr36  1  0.50325599  0.16956750  0.50222374  1
  Fe  Fe37  1  0.33608360  0.00291920  0.66969729  1
  Ni  Ni38  1  0.50135461  0.16802601  0.83697225  1
  Ni  Ni39  1  0.50432755  0.50446684  0.50131812  1
  Fe  Fe40  1  0.33674374  0.33574495  0.67109713  1
  Ni  Ni41  1  0.50309621  0.50192881  0.83607900  1
  Ni  Ni42  1  0.50263117  0.83306237  0.50364960  1
  Fe  Fe43  1  0.33908911  0.66742443  0.67068995  1
  Fe  Fe44  1  0.50222796  0.83533086  0.83580657  1
  Ni  Ni45  1  0.83573886  0.16833488  0.50230658  1
  Ni  Ni46  1  0.66650258  1.00034440  0.66784970  1
  Cr  Cr47  1  0.83179686  0.17070414  0.83545807  1
  Ni  Ni48  1  0.83318467  0.50119605  0.50275671  1
  Ni  Ni49  1  0.66893481  0.33557747  0.66766949  1
  Ni  Ni50  1  0.83364036  0.50378006  0.83591094  1
  Fe  Fe51  1  0.83259046  0.83616841  0.50173868  1
  Fe  Fe52  1  0.66753379  0.66684920  0.66880544  1
  Fe  Fe53  1  0.83276465  0.83483063  0.83626715  1
" 