1340,Ni50Fe47Cr2_9,-239.878723661315, 220.301324549778,Ni50Fe47Cr2,"# generated using pymatgen
 data_Cr2Fe25Ni27
_symmetry_space_group_name_H-M   'P 1'
_cell_length_a   7.40660100
_cell_length_b   7.40660100
_cell_length_c   10.47451559
_cell_angle_alpha   90.00000000
_cell_angle_beta   90.00000000
_cell_angle_gamma   90.00000000
_symmetry_Int_Tables_number   1
_chemical_formula_structural   Cr2Fe25Ni27
_chemical_formula_sum   'Cr2 Fe25 Ni27'
_cell_volume   574.60823618
_cell_formula_units_Z   1
loop_
 _symmetry_equiv_pos_site_id
 _symmetry_equiv_pos_as_xyz
  1  'x, y, z'
loop_
 _atom_site_type_symbol
 _atom_site_label
 _atom_site_symmetry_multiplicity
 _atom_site_fract_x
 _atom_site_fract_y
 _atom_site_fract_z
 _atom_site_occupancy
  Fe  Fe0  1  0.00473117  1.00402146  1.00358661  1
  Fe  Fe1  1  0.17181702  0.17036571  0.17045773  1
  Fe  Fe2  1  0.00443168  0.00455139  0.33703970  1
  Fe  Fe3  1  0.00582817  0.33689230  1.00364894  1
  Fe  Fe4  1  0.17128152  0.50458669  0.17039086  1
  Fe  Fe5  1  1.00274528  0.33711395  0.33798408  1
  Fe  Fe6  1  0.00479531  0.67133143  0.00420838  1
  Ni  Ni7  1  0.17164550  0.83779873  0.17078163  1
  Ni  Ni8  1  0.00444236  0.66992563  0.33705475  1
  Ni  Ni9  1  0.33709581  0.00425043  1.00358342  1
  Fe  Fe10  1  0.50335929  0.16929784  0.17155311  1
  Ni  Ni11  1  0.33742018  0.00424786  0.33783628  1
  Ni  Ni12  1  0.33547649  0.33688532  0.00457105  1
  Ni  Ni13  1  0.50421671  0.50555394  0.17136500  1
  Fe  Fe14  1  0.33833535  0.33738470  0.33738679  1
  Ni  Ni15  1  0.33711047  0.67110444  0.00449972  1
  Ni  Ni16  1  0.50389205  0.83616608  0.17050269  1
  Fe  Fe17  1  0.33847698  0.67190476  0.33711539  1
  Ni  Ni18  1  0.67056296  1.00235009  0.00451229  1
  Ni  Ni19  1  0.83840605  0.17091211  0.17200182  1
  Ni  Ni20  1  0.66933319  0.00529465  0.33625906  1
  Cr  Cr21  1  0.66983865  0.33722810  1.00386517  1
  Fe  Fe22  1  0.83749278  0.50571498  0.17247450  1
  Ni  Ni23  1  0.67118580  0.33726709  0.33804596  1
  Ni  Ni24  1  0.67084854  0.67270641  0.00477265  1
  Fe  Fe25  1  0.83642660  0.83718406  0.17103938  1
  Ni  Ni26  1  0.67110142  0.66967938  0.33600658  1
  Ni  Ni27  1  0.17042939  0.17074269  0.50391152  1
  Ni  Ni28  1  0.00509813  0.00507470  0.67092898  1
  Ni  Ni29  1  0.17014167  0.17094716  0.83835778  1
  Fe  Fe30  1  0.17033107  0.50476648  0.50474357  1
  Ni  Ni31  1  0.00447500  0.33680861  0.67036345  1
  Fe  Fe32  1  0.17158268  0.50429377  0.83710847  1
  Ni  Ni33  1  0.17295399  0.83837500  0.50477292  1
  Ni  Ni34  1  0.00476406  0.67035993  0.67170986  1
  Ni  Ni35  1  0.17156203  0.83818985  0.83668516  1
  Fe  Fe36  1  0.50379878  0.17022853  0.50355781  1
  Fe  Fe37  1  0.33605670  1.00322576  0.67059366  1
  Fe  Fe38  1  0.50209867  0.16923303  0.83713093  1
  Fe  Fe39  1  0.50399637  0.50466927  0.50391068  1
  Ni  Ni40  1  0.33676001  0.33722150  0.67083481  1
  Fe  Fe41  1  0.50200126  0.50549516  0.83717025  1
  Ni  Ni42  1  0.50228137  0.83672696  0.50399063  1
  Ni  Ni43  1  0.33728185  0.67075023  0.66995125  1
  Ni  Ni44  1  0.50403328  0.83652624  0.83774642  1
  Fe  Fe45  1  0.83775022  0.17176051  0.50358632  1
  Fe  Fe46  1  0.67006253  0.00412114  0.67164858  1
  Fe  Fe47  1  0.83875522  0.16878289  0.83700190  1
  Ni  Ni48  1  0.83670207  0.50194208  0.50386087  1
  Fe  Fe49  1  0.67159712  0.33856956  0.67021044  1
  Fe  Fe50  1  0.83865451  0.50574610  0.83568472  1
  Cr  Cr51  1  0.83713428  0.83623601  0.50382751  1
  Ni  Ni52  1  0.67019536  0.67012741  0.67146197  1
  Fe  Fe53  1  0.83755691  0.83771179  0.83705785  1
" 