7475,Ni50Fe47Cr2_14,-239.450608869898, 220.474896371765,Ni50Fe47Cr2,"# generated using pymatgen
 data_Cr2Fe25Ni27
_symmetry_space_group_name_H-M   'P 1'
_cell_length_a   7.40413028
_cell_length_b   7.40413028
_cell_length_c   10.47102146
_cell_angle_alpha   90.00000000
_cell_angle_beta   90.00000000
_cell_angle_gamma   90.00000000
_symmetry_Int_Tables_number   1
_chemical_formula_structural   Cr2Fe25Ni27
_chemical_formula_sum   'Cr2 Fe25 Ni27'
_cell_volume   574.03338720
_cell_formula_units_Z   1
loop_
 _symmetry_equiv_pos_site_id
 _symmetry_equiv_pos_as_xyz
  1  'x, y, z'
loop_
 _atom_site_type_symbol
 _atom_site_label
 _atom_site_symmetry_multiplicity
 _atom_site_fract_x
 _atom_site_fract_y
 _atom_site_fract_z
 _atom_site_occupancy
  Fe  Fe0  1  0.00444044  0.00468909  1.00398458  1
  Fe  Fe1  1  0.17005061  0.17025753  0.17041685  1
  Fe  Fe2  1  1.00219738  0.00617480  0.33659989  1
  Ni  Ni3  1  0.00453093  0.33723329  1.00274295  1
  Cr  Cr4  1  0.17370843  0.50501837  0.17083249  1
  Ni  Ni5  1  0.00455015  0.33625394  0.33946780  1
  Fe  Fe6  1  1.00423351  0.67167909  1.00281175  1
  Ni  Ni7  1  0.17022506  0.83930485  0.16938366  1
  Fe  Fe8  1  1.00160945  0.67091526  0.33724656  1
  Ni  Ni9  1  0.33767508  0.00449954  1.00392115  1
  Fe  Fe10  1  0.50375128  0.17048838  0.17170049  1
  Fe  Fe11  1  0.33885269  0.00568545  0.33569925  1
  Ni  Ni12  1  0.33613495  0.33545179  1.00289612  1
  Ni  Ni13  1  0.50554300  0.50284513  0.17031223  1
  Ni  Ni14  1  0.33591683  0.33659835  0.33874955  1
  Fe  Fe15  1  0.33901951  0.67070973  1.00255853  1
  Fe  Fe16  1  0.50525451  0.83669085  0.17040538  1
  Fe  Fe17  1  0.34076570  0.67041509  0.33816461  1
  Fe  Fe18  1  0.67104906  0.00496192  1.00420696  1
  Ni  Ni19  1  0.83660063  0.17017970  0.17036281  1
  Ni  Ni20  1  0.67146642  1.00208729  0.33770788  1
  Fe  Fe21  1  0.66978024  0.33808291  1.00370832  1
  Fe  Fe22  1  0.83661107  0.50454365  0.17093924  1
  Fe  Fe23  1  0.67084101  0.33717108  0.33840610  1
  Ni  Ni24  1  0.67196406  0.67306628  1.00389613  1
  Ni  Ni25  1  0.83872471  0.83924827  0.17100843  1
  Ni  Ni26  1  0.67128579  0.67332567  0.33889095  1
  Ni  Ni27  1  0.17182749  0.17039070  0.50338492  1
  Fe  Fe28  1  1.00377134  0.00637855  0.67191700  1
  Ni  Ni29  1  0.17190991  0.17019627  0.83811791  1
  Fe  Fe30  1  0.17000647  0.50173893  0.50507516  1
  Fe  Fe31  1  1.00362793  0.33764054  0.67113330  1
  Ni  Ni32  1  0.17225182  0.50297231  0.83665960  1
  Cr  Cr33  1  0.17011841  0.83865449  0.50455906  1
  Fe  Fe34  1  1.00174639  0.66888667  0.67222612  1
  Fe  Fe35  1  0.17102832  0.83610567  0.83780563  1
  Ni  Ni36  1  0.50418234  0.17235751  0.50429818  1
  Fe  Fe37  1  0.33968420  0.00671078  0.67239760  1
  Fe  Fe38  1  0.50461700  0.17198333  0.83629389  1
  Ni  Ni39  1  0.50390628  0.50319622  0.50458381  1
  Ni  Ni40  1  0.33613412  0.33839768  0.67067279  1
  Ni  Ni41  1  0.50387917  0.50296830  0.83820067  1
  Fe  Fe42  1  0.50690059  0.83875668  0.50519418  1
  Ni  Ni43  1  0.33788466  0.66943667  0.67160003  1
  Fe  Fe44  1  0.50444279  0.83669378  0.83765746  1
  Ni  Ni45  1  0.83695942  0.16976425  0.50526835  1
  Ni  Ni46  1  0.67240424  1.00288317  0.67132425  1
  Fe  Fe47  1  0.83782809  0.17289520  0.83728440  1
  Ni  Ni48  1  0.83510452  0.50459798  0.50344481  1
  Ni  Ni49  1  0.67106625  0.33677412  0.67069160  1
  Ni  Ni50  1  0.83607833  0.50548522  0.83921581  1
  Ni  Ni51  1  0.83760627  0.83813604  0.50465031  1
  Fe  Fe52  1  0.67004151  0.66893649  0.67133132  1
  Ni  Ni53  1  0.83764484  0.83892030  0.83742639  1
" 