8691,Ni50Fe33Cr15_7,-235.293632145683, 206.881652189432,Ni50Fe33Cr15,"# generated using pymatgen
 data_CrFe2Ni3
_symmetry_space_group_name_H-M   'P 1'
_cell_length_a   7.43584978
_cell_length_b   7.43584978
_cell_length_c   10.51587961
_cell_angle_alpha   90.00000000
_cell_angle_beta   90.00000000
_cell_angle_gamma   90.00000000
_symmetry_Int_Tables_number   1
_chemical_formula_structural   CrFe2Ni3
_chemical_formula_sum   'Cr9 Fe18 Ni27'
_cell_volume   581.44256422
_cell_formula_units_Z   9
loop_
 _symmetry_equiv_pos_site_id
 _symmetry_equiv_pos_as_xyz
  1  'x, y, z'
loop_
 _atom_site_type_symbol
 _atom_site_label
 _atom_site_symmetry_multiplicity
 _atom_site_fract_x
 _atom_site_fract_y
 _atom_site_fract_z
 _atom_site_occupancy
  Ni  Ni0  1  0.00292606  1.00051955  1.00081343  1
  Cr  Cr1  1  0.16949165  0.16790769  0.16929016  1
  Ni  Ni2  1  0.00270841  0.00241217  0.33693743  1
  Fe  Fe3  1  1.00125253  0.33687616  1.00153775  1
  Fe  Fe4  1  0.16608255  0.50329291  0.16795828  1
  Ni  Ni5  1  1.00096748  0.33660563  0.33499983  1
  Ni  Ni6  1  0.00363835  0.66791935  1.00203321  1
  Ni  Ni7  1  0.16801561  0.83531863  0.16852835  1
  Ni  Ni8  1  0.00368581  0.66727715  0.33540211  1
  Fe  Fe9  1  0.33634667  1.00181123  1.00168879  1
  Ni  Ni10  1  0.50268032  0.16812313  0.16954828  1
  Ni  Ni11  1  0.33655908  0.00274010  0.33518948  1
  Fe  Fe12  1  0.33550060  0.33441358  1.00016982  1
  Cr  Cr13  1  0.50308044  0.49974616  0.16750623  1
  Fe  Fe14  1  0.33589471  0.33311637  0.33712981  1
  Fe  Fe15  1  0.33448789  0.67006583  1.00103045  1
  Fe  Fe16  1  0.50070004  0.83873726  0.16727077  1
  Cr  Cr17  1  0.33313523  0.67011646  0.33619836  1
  Ni  Ni18  1  0.66672039  0.00325071  0.00269680  1
  Fe  Fe19  1  0.83371484  0.17005740  0.16889828  1
  Ni  Ni20  1  0.66702542  0.00545772  0.33533616  1
  Ni  Ni21  1  0.66799992  0.33485112  1.00199319  1
  Ni  Ni22  1  0.83714303  0.50130488  0.16897856  1
  Ni  Ni23  1  0.66964148  0.33268630  0.33603541  1
  Fe  Fe24  1  0.67024553  0.66915002  1.00006624  1
  Cr  Cr25  1  0.83702580  0.83533452  0.16830025  1
  Cr  Cr26  1  0.67007745  0.66862091  0.33581093  1
  Fe  Fe27  1  0.16718412  0.16858859  0.50097104  1
  Ni  Ni28  1  1.00093099  0.00314285  0.66853858  1
  Ni  Ni29  1  0.16918583  0.16938595  0.83587964  1
  Fe  Fe30  1  0.16832527  0.50147284  0.50193265  1
  Ni  Ni31  1  1.00176096  0.33495856  0.66923066  1
  Ni  Ni32  1  0.16864855  0.50152190  0.83707602  1
  Fe  Fe33  1  0.16841729  0.83623376  0.50054157  1
  Cr  Cr34  1  1.00191933  0.66856448  0.66886069  1
  Fe  Fe35  1  0.16823582  0.83555653  0.83726206  1
  Ni  Ni36  1  0.50279932  0.16977629  0.49984616  1
  Cr  Cr37  1  0.33582498  1.00104676  0.66980935  1
  Ni  Ni38  1  0.50103902  0.16834709  0.83689887  1
  Ni  Ni39  1  0.50230231  0.50066166  0.50390208  1
  Cr  Cr40  1  0.33533431  0.33662712  0.66923544  1
  Fe  Fe41  1  0.50294409  0.50289592  0.83546544  1
  Fe  Fe42  1  0.50335924  0.83609875  0.50348375  1
  Ni  Ni43  1  0.33756150  0.66814784  0.66933923  1
  Ni  Ni44  1  0.50341532  0.83478356  0.83562069  1
  Fe  Fe45  1  0.83484077  0.16848956  0.50198426  1
  Ni  Ni46  1  0.66919644  1.00095867  0.66825766  1
  Cr  Cr47  1  0.83609078  0.16773118  0.83473123  1
  Fe  Fe48  1  0.83470902  0.50056256  0.50171032  1
  Fe  Fe49  1  0.66928355  0.33615926  0.66803780  1
  Ni  Ni50  1  0.83546553  0.50389607  0.83549353  1
  Ni  Ni51  1  0.83628307  0.83673706  0.50236143  1
  Ni  Ni52  1  0.66704942  0.66897961  0.66982268  1
  Ni  Ni53  1  0.83442701  0.83424375  0.83563990  1
" 