4129,Ni50Fe43Cr5_18,-238.720505261175, 217.577214516462,Ni50Fe43Cr5,"# generated using pymatgen
 data_Cr4Fe23Ni27
_symmetry_space_group_name_H-M   'P 1'
_cell_length_a   7.41386702
_cell_length_b   7.41386702
_cell_length_c   10.48479130
_cell_angle_alpha   90.00000000
_cell_angle_beta   90.00000000
_cell_angle_gamma   90.00000000
_symmetry_Int_Tables_number   1
_chemical_formula_structural   Cr4Fe23Ni27
_chemical_formula_sum   'Cr4 Fe23 Ni27'
_cell_volume   576.30100171
_cell_formula_units_Z   1
loop_
 _symmetry_equiv_pos_site_id
 _symmetry_equiv_pos_as_xyz
  1  'x, y, z'
loop_
 _atom_site_type_symbol
 _atom_site_label
 _atom_site_symmetry_multiplicity
 _atom_site_fract_x
 _atom_site_fract_y
 _atom_site_fract_z
 _atom_site_occupancy
  Ni  Ni0  1  0.00380839  0.00462691  1.00281216  1
  Fe  Fe1  1  0.16998465  0.17056136  0.16997795  1
  Ni  Ni2  1  0.00517185  0.00487657  0.33527972  1
  Ni  Ni3  1  1.00174109  0.33673922  0.00371435  1
  Fe  Fe4  1  0.16995506  0.50544253  0.16958061  1
  Ni  Ni5  1  1.00320378  0.33690868  0.33727227  1
  Fe  Fe6  1  0.00483016  0.67042002  1.00345607  1
  Ni  Ni7  1  0.17049874  0.83910354  0.16955973  1
  Ni  Ni8  1  0.00433366  0.66948622  0.33497479  1
  Ni  Ni9  1  0.33620640  1.00301428  1.00312335  1
  Fe  Fe10  1  0.50267963  0.16859440  0.16955913  1
  Ni  Ni11  1  0.33631662  1.00290800  0.33746364  1
  Fe  Fe12  1  0.33546939  0.33704820  1.00261807  1
  Ni  Ni13  1  0.50256293  0.50325200  0.16852619  1
  Fe  Fe14  1  0.33541950  0.33863160  0.33753061  1
  Ni  Ni15  1  0.33825530  0.67008918  0.00406800  1
  Ni  Ni16  1  0.50279515  0.83726490  0.17200217  1
  Ni  Ni17  1  0.33768275  0.67079592  0.33735731  1
  Fe  Fe18  1  0.67037572  1.00351386  0.00393546  1
  Fe  Fe19  1  0.83791394  0.16938713  0.16940791  1
  Fe  Fe20  1  0.67028419  1.00218632  0.33623473  1
  Fe  Fe21  1  0.66985930  0.33738011  0.00401297  1
  Ni  Ni22  1  0.83768378  0.50360452  0.16966215  1
  Cr  Cr23  1  0.67050570  0.33867950  0.33660438  1
  Fe  Fe24  1  0.67088999  0.66969695  0.00452586  1
  Ni  Ni25  1  0.83778320  0.83728509  0.16999110  1
  Ni  Ni26  1  0.66870421  0.66861482  0.33567186  1
  Fe  Fe27  1  0.17113590  0.17171177  0.50273872  1
  Cr  Cr28  1  0.00476007  0.00413661  0.67253552  1
  Fe  Fe29  1  0.17196178  0.17245263  0.83830236  1
  Fe  Fe30  1  0.16948020  0.50544426  0.50413303  1
  Fe  Fe31  1  0.00437842  0.33844436  0.67053563  1
  Ni  Ni32  1  0.17024504  0.50223226  0.83667347  1
  Ni  Ni33  1  0.17157589  0.83821216  0.50407488  1
  Ni  Ni34  1  0.00405545  0.66879705  0.67203606  1
  Fe  Fe35  1  0.17043438  0.83363499  0.83786167  1
  Fe  Fe36  1  0.50260604  0.16935746  0.50456241  1
  Ni  Ni37  1  0.33715192  0.00495942  0.67031613  1
  Fe  Fe38  1  0.50311799  0.17251509  0.83654422  1
  Ni  Ni39  1  0.50317025  0.50301547  0.50518496  1
  Ni  Ni40  1  0.33747937  0.33730306  0.67071738  1
  Ni  Ni41  1  0.50369113  0.50243730  0.83718220  1
  Fe  Fe42  1  0.50292347  0.83516646  0.50403062  1
  Ni  Ni43  1  0.33660495  0.66892817  0.66944678  1
  Cr  Cr44  1  0.50269044  0.83673436  0.83486080  1
  Fe  Fe45  1  0.83770903  0.17088797  0.50364400  1
  Ni  Ni46  1  0.66990596  0.00543119  0.66992516  1
  Fe  Fe47  1  0.83545896  0.17207688  0.83817030  1
  Ni  Ni48  1  0.83725180  0.50279928  0.50501781  1
  Fe  Fe49  1  0.66948049  0.33751235  0.67005223  1
  Ni  Ni50  1  0.83691042  0.50228176  0.83642522  1
  Cr  Cr51  1  0.83780662  0.83470275  0.50183612  1
  Ni  Ni52  1  0.67004492  0.66833097  0.67038537  1
  Fe  Fe53  1  0.83672838  0.83405646  0.83755874  1
" 