5223,Ni50Fe27Cr21_2,-231.998112417709, 188.11843444845,Ni50Fe27Cr21,"# generated using pymatgen
 data_Cr13Fe14Ni27
_symmetry_space_group_name_H-M   'P 1'
_cell_length_a   7.45230964
_cell_length_b   7.45230964
_cell_length_c   10.53915737
_cell_angle_alpha   90.00000000
_cell_angle_beta   90.00000000
_cell_angle_gamma   90.00000000
_symmetry_Int_Tables_number   1
_chemical_formula_structural   Cr13Fe14Ni27
_chemical_formula_sum   'Cr13 Fe14 Ni27'
_cell_volume   585.31232924
_cell_formula_units_Z   1
loop_
 _symmetry_equiv_pos_site_id
 _symmetry_equiv_pos_as_xyz
  1  'x, y, z'
loop_
 _atom_site_type_symbol
 _atom_site_label
 _atom_site_symmetry_multiplicity
 _atom_site_fract_x
 _atom_site_fract_y
 _atom_site_fract_z
 _atom_site_occupancy
  Ni  Ni0  1  1.00052532  0.00239862  0.00196083  1
  Ni  Ni1  1  0.16572668  0.16638631  0.16674931  1
  Cr  Cr2  1  0.99988901  0.99923400  0.33563236  1
  Ni  Ni3  1  1.00009440  0.33325207  1.00026173  1
  Ni  Ni4  1  0.16516147  0.50109225  0.16437224  1
  Ni  Ni5  1  1.00038673  0.33610992  0.33356816  1
  Fe  Fe6  1  0.99932518  0.66654188  0.00193535  1
  Ni  Ni7  1  0.17030509  0.83444588  0.16831428  1
  Ni  Ni8  1  0.00214908  0.66353536  0.33292569  1
  Fe  Fe9  1  0.33406561  0.00231434  0.00360496  1
  Fe  Fe10  1  0.50080379  0.16713583  0.16507738  1
  Ni  Ni11  1  0.33574983  1.00090748  0.33285405  1
  Fe  Fe12  1  0.33391067  0.33514873  0.00245314  1
  Cr  Cr13  1  0.50479771  0.50350440  0.16704326  1
  Cr  Cr14  1  0.33422048  0.33462324  0.33154252  1
  Ni  Ni15  1  0.33324635  0.66742322  0.00108191  1
  Ni  Ni16  1  0.49924676  0.83562111  0.16419358  1
  Cr  Cr17  1  0.33376799  0.66895247  0.33852525  1
  Fe  Fe18  1  0.67122921  0.00243627  0.00174255  1
  Ni  Ni19  1  0.83667236  0.17056872  0.16699478  1
  Cr  Cr20  1  0.66653135  1.00057383  0.33222211  1
  Ni  Ni21  1  0.66995838  0.33402711  0.00145407  1
  Ni  Ni22  1  0.83771301  0.49827480  0.16721162  1
  Fe  Fe23  1  0.67144796  0.33276243  0.33389463  1
  Ni  Ni24  1  0.66839207  0.66720790  0.00163923  1
  Fe  Fe25  1  0.83731993  0.83260785  0.16499026  1
  Cr  Cr26  1  0.67122287  0.66677549  0.33435700  1
  Cr  Cr27  1  0.16550109  0.17027992  0.49890775  1
  Cr  Cr28  1  0.99355444  0.99984712  0.66607540  1
  Cr  Cr29  1  0.16691247  0.17012946  0.83464861  1
  Ni  Ni30  1  0.16473203  0.50229112  0.50429268  1
  Fe  Fe31  1  0.99649062  0.33645195  0.66780523  1
  Fe  Fe32  1  0.16519396  0.50100612  0.83457532  1
  Fe  Fe33  1  0.16453654  0.83199942  0.50130334  1
  Ni  Ni34  1  0.99779548  0.66353790  0.66877086  1
  Cr  Cr35  1  0.16607709  0.83345825  0.83405724  1
  Ni  Ni36  1  0.50321815  0.16654485  0.49962241  1
  Cr  Cr37  1  0.33658818  0.00412952  0.66497705  1
  Ni  Ni38  1  0.50302763  0.16983334  0.83743000  1
  Fe  Fe39  1  0.50396271  0.49886952  0.50363084  1
  Fe  Fe40  1  0.33648812  0.33687275  0.66620367  1
  Cr  Cr41  1  0.50176888  0.50185732  0.83331191  1
  Ni  Ni42  1  0.50215810  0.83472766  0.50320115  1
  Fe  Fe43  1  0.33402872  0.66808893  0.66553661  1
  Cr  Cr44  1  0.50338150  0.83549088  0.83610998  1
  Ni  Ni45  1  0.83004497  0.16976996  0.50176027  1
  Ni  Ni46  1  0.66642355  0.00157846  0.66977996  1
  Ni  Ni47  1  0.83268284  0.16856320  0.83458632  1
  Ni  Ni48  1  0.83623049  0.50016898  0.50007424  1
  Fe  Fe49  1  0.66966151  0.33249850  0.66835313  1
  Ni  Ni50  1  0.83447796  0.50069981  0.83557615  1
  Ni  Ni51  1  0.83123025  0.83118545  0.50268133  1
  Ni  Ni52  1  0.66994681  0.66683822  0.66702167  1
  Ni  Ni53  1  0.83342285  0.83281610  0.83650081  1
" 