8279,Ni50Fe26Cr23_6,-231.835277354431, 188.4522813957,Ni50Fe26Cr23,"# generated using pymatgen
 data_Cr13Fe14Ni27
_symmetry_space_group_name_H-M   'P 1'
_cell_length_a   7.45551873
_cell_length_b   7.45551873
_cell_length_c   10.54369571
_cell_angle_alpha   90.00000000
_cell_angle_beta   90.00000000
_cell_angle_gamma   90.00000000
_symmetry_Int_Tables_number   1
_chemical_formula_structural   Cr13Fe14Ni27
_chemical_formula_sum   'Cr13 Fe14 Ni27'
_cell_volume   586.06879080
_cell_formula_units_Z   1
loop_
 _symmetry_equiv_pos_site_id
 _symmetry_equiv_pos_as_xyz
  1  'x, y, z'
loop_
 _atom_site_type_symbol
 _atom_site_label
 _atom_site_symmetry_multiplicity
 _atom_site_fract_x
 _atom_site_fract_y
 _atom_site_fract_z
 _atom_site_occupancy
  Cr  Cr0  1  1.00047308  0.00255011  0.00225889  1
  Ni  Ni1  1  0.16887604  0.16809910  0.16717251  1
  Ni  Ni2  1  0.00157161  1.00050429  0.33462900  1
  Fe  Fe3  1  0.00121231  0.33607860  0.00155169  1
  Ni  Ni4  1  0.16810113  0.50026902  0.16574143  1
  Cr  Cr5  1  0.00087323  0.33297189  0.33346426  1
  Fe  Fe6  1  0.00276397  0.66443070  0.00186801  1
  Ni  Ni7  1  0.16777576  0.83395022  0.16911251  1
  Fe  Fe8  1  0.00253680  0.66764284  0.33507895  1
  Fe  Fe9  1  0.33674559  0.00081979  0.00110716  1
  Fe  Fe10  1  0.49995392  0.16902559  0.16812545  1
  Fe  Fe11  1  0.33333120  0.00201520  0.33489458  1
  Fe  Fe12  1  0.33419656  0.33498006  0.00203597  1
  Ni  Ni13  1  0.49870379  0.49815937  0.16937977  1
  Ni  Ni14  1  0.33523412  0.33516195  0.33292210  1
  Ni  Ni15  1  0.33251273  0.66592855  1.00033860  1
  Cr  Cr16  1  0.49932521  0.83533689  0.16617113  1
  Ni  Ni17  1  0.33223439  0.66618405  0.33452609  1
  Ni  Ni18  1  0.66615052  0.00316285  0.99923207  1
  Fe  Fe19  1  0.83379440  0.16831920  0.16797780  1
  Ni  Ni20  1  0.66886460  0.00350695  0.33487460  1
  Cr  Cr21  1  0.66752326  0.33302355  0.00168571  1
  Ni  Ni22  1  0.83551586  0.49925236  0.16693211  1
  Ni  Ni23  1  0.66560576  0.33272160  0.33330949  1
  Cr  Cr24  1  0.66515790  0.66677815  1.00000641  1
  Cr  Cr25  1  0.83514032  0.83413398  0.16836580  1
  Cr  Cr26  1  0.66633884  0.66524594  0.33454445  1
  Ni  Ni27  1  0.16753012  0.16842484  0.49954216  1
  Cr  Cr28  1  0.99885674  0.00219378  0.66465233  1
  Cr  Cr29  1  0.16734202  0.17079226  0.83498382  1
  Ni  Ni30  1  0.16683595  0.50074908  0.50155535  1
  Ni  Ni31  1  0.99818499  0.33611166  0.66813421  1
  Fe  Fe32  1  0.16772332  0.50167874  0.83417704  1
  Fe  Fe33  1  0.16689705  0.83177361  0.49920570  1
  Ni  Ni34  1  0.00078819  0.66432761  0.66623641  1
  Cr  Cr35  1  0.16973423  0.83089916  0.83417989  1
  Fe  Fe36  1  0.50281429  0.16759334  0.49962782  1
  Cr  Cr37  1  0.33611230  0.99864249  0.66668619  1
  Ni  Ni38  1  0.50359928  0.16671475  0.83506756  1
  Fe  Fe39  1  0.50066209  0.50133035  0.50065783  1
  Cr  Cr40  1  0.33446063  0.33666238  0.66708089  1
  Ni  Ni41  1  0.50023699  0.50169108  0.83249189  1
  Ni  Ni42  1  0.50213369  0.83452982  0.50206966  1
  Ni  Ni43  1  0.33516558  0.66653546  0.66745507  1
  Ni  Ni44  1  0.50174398  0.83391358  0.83412532  1
  Fe  Fe45  1  0.83287534  0.16733426  0.50126867  1
  Ni  Ni46  1  0.66754124  0.00110462  0.66821234  1
  Ni  Ni47  1  0.83144668  0.16958457  0.83272572  1
  Ni  Ni48  1  0.83470869  0.50141859  0.50328817  1
  Ni  Ni49  1  0.66974786  0.33453666  0.66773728  1
  Fe  Fe50  1  0.83423747  0.49883097  0.83175597  1
  Ni  Ni51  1  0.83276918  0.83383558  0.50095160  1
  Ni  Ni52  1  0.66636685  0.66667979  0.66760376  1
  Cr  Cr53  1  0.83072389  0.83360973  0.83297241  1
" 