2958,Ni50Fe25Cr24_13,-230.62742871256, 187.588379706277,Ni50Fe25Cr24,"# generated using pymatgen
 data_Cr14Fe13Ni27
_symmetry_space_group_name_H-M   'P 1'
_cell_length_a   7.45374163
_cell_length_b   7.45374163
_cell_length_c   10.54118250
_cell_angle_alpha   90.00000000
_cell_angle_beta   90.00000000
_cell_angle_gamma   90.00000000
_symmetry_Int_Tables_number   1
_chemical_formula_structural   Cr14Fe13Ni27
_chemical_formula_sum   'Cr14 Fe13 Ni27'
_cell_volume   585.64980245
_cell_formula_units_Z   1
loop_
 _symmetry_equiv_pos_site_id
 _symmetry_equiv_pos_as_xyz
  1  'x, y, z'
loop_
 _atom_site_type_symbol
 _atom_site_label
 _atom_site_symmetry_multiplicity
 _atom_site_fract_x
 _atom_site_fract_y
 _atom_site_fract_z
 _atom_site_occupancy
  Fe  Fe0  1  1.00087207  0.00323130  0.00091809  1
  Fe  Fe1  1  0.16655443  0.16796596  0.16596917  1
  Cr  Cr2  1  1.00080891  0.00245309  0.33468702  1
  Ni  Ni3  1  0.99862689  0.33198062  0.00207276  1
  Fe  Fe4  1  0.16713516  0.50120044  0.16887125  1
  Ni  Ni5  1  1.00067832  0.33507625  0.33347415  1
  Cr  Cr6  1  0.99959988  0.66638217  0.00171879  1
  Fe  Fe7  1  0.16919947  0.83350924  0.16697297  1
  Ni  Ni8  1  0.00418495  0.66538029  0.33345097  1
  Ni  Ni9  1  0.33464569  1.00030700  0.00173961  1
  Ni  Ni10  1  0.50229477  0.16781787  0.16683833  1
  Cr  Cr11  1  0.33551697  1.00050273  0.33495630  1
  Cr  Cr12  1  0.33417906  0.33366462  0.00164776  1
  Ni  Ni13  1  0.49958671  0.50083139  0.16583459  1
  Cr  Cr14  1  0.33373777  0.33492488  0.33525839  1
  Ni  Ni15  1  0.33726454  0.66912311  0.00226729  1
  Cr  Cr16  1  0.49980231  0.83428425  0.16613514  1
  Ni  Ni17  1  0.33196668  0.66727767  0.33455596  1
  Ni  Ni18  1  0.66732847  0.00102902  0.00114096  1
  Ni  Ni19  1  0.83455741  0.16863957  0.16646654  1
  Fe  Fe20  1  0.66745995  0.00332871  0.33477837  1
  Fe  Fe21  1  0.66870093  0.33533607  0.00164987  1
  Fe  Fe22  1  0.83432244  0.49825186  0.16670349  1
  Cr  Cr23  1  0.66841105  0.33192168  0.33292217  1
  Ni  Ni24  1  0.66606208  0.66704978  0.99797210  1
  Cr  Cr25  1  0.83477720  0.83511084  0.16751387  1
  Cr  Cr26  1  0.66645590  0.66697156  0.33497601  1
  Ni  Ni27  1  0.16750185  0.16886148  0.50278921  1
  Fe  Fe28  1  0.00091186  0.00250862  0.66737982  1
  Ni  Ni29  1  0.16551240  0.16677617  0.83414932  1
  Ni  Ni30  1  0.16877195  0.50150117  0.50050837  1
  Ni  Ni31  1  1.00000212  0.33338806  0.66712690  1
  Cr  Cr32  1  0.16788294  0.49901427  0.83218361  1
  Fe  Fe33  1  0.16936148  0.83246937  0.50223903  1
  Ni  Ni34  1  0.00130415  0.66653252  0.66694471  1
  Cr  Cr35  1  0.16806097  0.83641161  0.83434530  1
  Ni  Ni36  1  0.50095267  0.16668722  0.50176256  1
  Ni  Ni37  1  0.33503554  1.00042440  0.66623504  1
  Cr  Cr38  1  0.50021348  0.16699951  0.83429233  1
  Ni  Ni39  1  0.49725784  0.50125042  0.50287997  1
  Fe  Fe40  1  0.33427564  0.33417268  0.66578249  1
  Ni  Ni41  1  0.50345888  0.50359100  0.83396424  1
  Fe  Fe42  1  0.49884579  0.83468495  0.50278026  1
  Ni  Ni43  1  0.33517996  0.66836917  0.66585450  1
  Ni  Ni44  1  0.50310002  0.83269800  0.83480217  1
  Ni  Ni45  1  0.83422394  0.16658401  0.50178815  1
  Ni  Ni46  1  0.66669155  0.00172443  0.66625825  1
  Fe  Fe47  1  0.83510307  0.16790533  0.83402572  1
  Cr  Cr48  1  0.83659871  0.50020308  0.50100625  1
  Ni  Ni49  1  0.66852665  0.33353332  0.66797721  1
  Ni  Ni50  1  0.83229685  0.50144039  0.83428197  1
  Cr  Cr51  1  0.83428770  0.83552236  0.50145842  1
  Fe  Fe52  1  0.66619914  0.66728742  0.66995426  1
  Ni  Ni53  1  0.83191168  0.83410591  0.83393684  1
" 