2388,Ni50Fe27Cr21_15,-231.758188135383, 193.830242658066,Ni50Fe27Cr21,"# generated using pymatgen
 data_Cr13Fe14Ni27
_symmetry_space_group_name_H-M   'P 1'
_cell_length_a   7.44986033
_cell_length_b   7.44986033
_cell_length_c   10.53569352
_cell_angle_alpha   90.00000000
_cell_angle_beta   90.00000000
_cell_angle_gamma   90.00000000
_symmetry_Int_Tables_number   1
_chemical_formula_structural   Cr13Fe14Ni27
_chemical_formula_sum   'Cr13 Fe14 Ni27'
_cell_volume   584.73540442
_cell_formula_units_Z   1
loop_
 _symmetry_equiv_pos_site_id
 _symmetry_equiv_pos_as_xyz
  1  'x, y, z'
loop_
 _atom_site_type_symbol
 _atom_site_label
 _atom_site_symmetry_multiplicity
 _atom_site_fract_x
 _atom_site_fract_y
 _atom_site_fract_z
 _atom_site_occupancy
  Ni  Ni0  1  0.00302504  0.00274213  0.99817549  1
  Ni  Ni1  1  0.16739491  0.17003813  0.16696788  1
  Cr  Cr2  1  0.00244684  0.00338070  0.33423209  1
  Fe  Fe3  1  0.00181621  0.33484981  1.00114144  1
  Ni  Ni4  1  0.16809786  0.49932703  0.16845385  1
  Fe  Fe5  1  0.00318423  0.33662543  0.33321485  1
  Ni  Ni6  1  0.00156893  0.66499727  0.99986865  1
  Cr  Cr7  1  0.16861875  0.83475897  0.16640772  1
  Fe  Fe8  1  0.00258830  0.66599970  0.33420355  1
  Ni  Ni9  1  0.33424634  1.00092109  1.00004985  1
  Cr  Cr10  1  0.49872866  0.16559092  0.16795748  1
  Ni  Ni11  1  0.33549341  0.99912299  0.33536369  1
  Fe  Fe12  1  0.33316052  0.33489723  1.00009270  1
  Ni  Ni13  1  0.49862949  0.50269276  0.16603681  1
  Fe  Fe14  1  0.33452810  0.33505225  0.33336441  1
  Fe  Fe15  1  0.33572062  0.66885734  0.99981098  1
  Ni  Ni16  1  0.50126225  0.83419142  0.16809127  1
  Ni  Ni17  1  0.33300388  0.66809511  0.33435100  1
  Ni  Ni18  1  0.66626365  1.00099263  1.00020349  1
  Ni  Ni19  1  0.83642494  0.16727800  0.16716660  1
  Ni  Ni20  1  0.66517488  0.00273230  0.33558840  1
  Cr  Cr21  1  0.66857306  0.33653461  0.00138115  1
  Ni  Ni22  1  0.83711935  0.50135811  0.16790114  1
  Cr  Cr23  1  0.67069113  0.33434399  0.33307018  1
  Ni  Ni24  1  0.66690837  0.66638917  1.00045368  1
  Cr  Cr25  1  0.83286283  0.83544278  0.16415349  1
  Cr  Cr26  1  0.66562525  0.66665656  0.33246549  1
  Cr  Cr27  1  0.17100004  0.16927317  0.50037969  1
  Ni  Ni28  1  1.00058670  0.00214449  0.67026349  1
  Ni  Ni29  1  0.16875190  0.16794092  0.83635011  1
  Ni  Ni30  1  0.16852698  0.50240867  0.49907905  1
  Cr  Cr31  1  0.99962865  0.33376087  0.66971777  1
  Ni  Ni32  1  0.16903891  0.50083143  0.83564332  1
  Ni  Ni33  1  0.16716241  0.83266326  0.50076815  1
  Cr  Cr34  1  0.00503229  0.66855663  0.66796340  1
  Ni  Ni35  1  0.16636967  0.83458804  0.83524196  1
  Ni  Ni36  1  0.50312611  0.16753818  0.50143344  1
  Cr  Cr37  1  0.33282638  0.99778452  0.66830158  1
  Ni  Ni38  1  0.50018692  0.16824091  0.83362794  1
  Cr  Cr39  1  0.49924703  0.49906685  0.50435017  1
  Fe  Fe40  1  0.33299833  0.33468376  0.67018847  1
  Ni  Ni41  1  0.50062366  0.50102690  0.83340154  1
  Fe  Fe42  1  0.49788157  0.83474017  0.50027822  1
  Ni  Ni43  1  0.33529912  0.66771379  0.66929605  1
  Ni  Ni44  1  0.50306843  0.83431821  0.83513654  1
  Fe  Fe45  1  0.83377396  0.16809632  0.50189647  1
  Fe  Fe46  1  0.66813987  0.00150869  0.66921197  1
  Fe  Fe47  1  0.83388178  0.16632250  0.83587515  1
  Fe  Fe48  1  0.83611922  0.49980434  0.50114725  1
  Fe  Fe49  1  0.66648892  0.33317464  0.66973826  1
  Ni  Ni50  1  0.83374194  0.50390001  0.83419945  1
  Cr  Cr51  1  0.83381975  0.83457176  0.50164176  1
  Fe  Fe52  1  0.66741010  0.66904384  0.67087105  1
  Ni  Ni53  1  0.83440217  0.83471936  0.83612105  1
" 