347,Ni50Fe47Cr2_15,-239.75787574206, 217.715380390845,Ni50Fe47Cr2,"# generated using pymatgen
 data_Cr2Fe25Ni27
_symmetry_space_group_name_H-M   'P 1'
_cell_length_a   7.40642820
_cell_length_b   7.40642820
_cell_length_c   10.47427121
_cell_angle_alpha   90.00000000
_cell_angle_beta   90.00000000
_cell_angle_gamma   90.00000000
_symmetry_Int_Tables_number   1
_chemical_formula_structural   Cr2Fe25Ni27
_chemical_formula_sum   'Cr2 Fe25 Ni27'
_cell_volume   574.56801958
_cell_formula_units_Z   1
loop_
 _symmetry_equiv_pos_site_id
 _symmetry_equiv_pos_as_xyz
  1  'x, y, z'
loop_
 _atom_site_type_symbol
 _atom_site_label
 _atom_site_symmetry_multiplicity
 _atom_site_fract_x
 _atom_site_fract_y
 _atom_site_fract_z
 _atom_site_occupancy
  Ni  Ni0  1  1.00361645  0.00427257  0.00505115  1
  Fe  Fe1  1  0.17129576  0.17062592  0.17071329  1
  Fe  Fe2  1  0.00412305  1.00372589  0.33763566  1
  Fe  Fe3  1  0.00438178  0.33765189  0.00482731  1
  Fe  Fe4  1  0.17081408  0.50323029  0.17190109  1
  Fe  Fe5  1  0.00434799  0.33728731  0.33737448  1
  Fe  Fe6  1  1.00222495  0.67113599  1.00323714  1
  Fe  Fe7  1  0.17055739  0.83841911  0.17200669  1
  Fe  Fe8  1  0.00487579  0.67126390  0.33842900  1
  Fe  Fe9  1  0.33789940  0.00538220  1.00387148  1
  Fe  Fe10  1  0.50443846  0.17042474  0.17110609  1
  Ni  Ni11  1  0.33748443  0.00430692  0.33620166  1
  Fe  Fe12  1  0.33763523  0.33545769  0.00416570  1
  Ni  Ni13  1  0.50391554  0.50434739  0.17160641  1
  Ni  Ni14  1  0.33674673  0.33816629  0.33691146  1
  Cr  Cr15  1  0.33811996  0.66963632  1.00379182  1
  Ni  Ni16  1  0.50424001  0.83762837  0.17243188  1
  Ni  Ni17  1  0.33747390  0.66980465  0.33765883  1
  Ni  Ni18  1  0.67131219  0.00425141  0.00464084  1
  Ni  Ni19  1  0.83772955  0.17029443  0.17123189  1
  Ni  Ni20  1  0.67124610  0.00413147  0.33744278  1
  Fe  Fe21  1  0.67025870  0.33765707  0.00420277  1
  Fe  Fe22  1  0.83639274  0.50432066  0.17034401  1
  Fe  Fe23  1  0.66949582  0.33702277  0.33773076  1
  Fe  Fe24  1  0.67215174  0.67139713  1.00405694  1
  Fe  Fe25  1  0.83619187  0.83779438  0.17101507  1
  Ni  Ni26  1  0.67038285  0.67085117  0.33678473  1
  Fe  Fe27  1  0.17064393  0.16992740  0.50392396  1
  Ni  Ni28  1  0.00475474  1.00354080  0.66991016  1
  Fe  Fe29  1  0.17294692  0.17106008  0.83763848  1
  Ni  Ni30  1  0.17121134  0.50554959  0.50369612  1
  Fe  Fe31  1  0.00437215  0.33868960  0.67007267  1
  Ni  Ni32  1  0.16993967  0.50433018  0.83695030  1
  Ni  Ni33  1  0.17048902  0.83594043  0.50382454  1
  Ni  Ni34  1  0.00451977  0.67050234  0.67182074  1
  Fe  Fe35  1  0.17046468  0.83771865  0.83578581  1
  Ni  Ni36  1  0.50552924  0.17047774  0.50354620  1
  Ni  Ni37  1  0.33694595  0.00411505  0.67193643  1
  Ni  Ni38  1  0.50318440  0.16986887  0.83872061  1
  Fe  Fe39  1  0.50412184  0.50440292  0.50383190  1
  Fe  Fe40  1  0.33802450  0.33762322  0.67070246  1
  Ni  Ni41  1  0.50393630  0.50401329  0.83626686  1
  Fe  Fe42  1  0.50408902  0.83788778  0.50389767  1
  Ni  Ni43  1  0.33690455  0.67019779  0.67028932  1
  Ni  Ni44  1  0.50423589  0.83839295  0.83596412  1
  Ni  Ni45  1  0.83636659  0.16975595  0.50405316  1
  Ni  Ni46  1  0.67057757  0.00429969  0.67019331  1
  Cr  Cr47  1  0.83650179  0.17016447  0.83594923  1
  Fe  Fe48  1  0.83755533  0.50447115  0.50495130  1
  Ni  Ni49  1  0.67027882  0.33819529  0.66999538  1
  Ni  Ni50  1  0.83840179  0.50538097  0.83762553  1
  Ni  Ni51  1  0.83812830  0.83883847  0.50421967  1
  Ni  Ni52  1  0.67085350  0.66978068  0.67203757  1
  Fe  Fe53  1  0.83665691  0.83537365  0.83681249  1
" 