3209,Ni50Fe17Cr31_18,-227.54412625324, 174.646124441739,Ni50Fe17Cr31,"# generated using pymatgen
 data_Cr2FeNi3
_symmetry_space_group_name_H-M   'P 1'
_cell_length_a   7.47045451
_cell_length_b   7.47045451
_cell_length_c   10.56481808
_cell_angle_alpha   90.00000000
_cell_angle_beta   90.00000000
_cell_angle_gamma   90.00000000
_symmetry_Int_Tables_number   1
_chemical_formula_structural   Cr2FeNi3
_chemical_formula_sum   'Cr18 Fe9 Ni27'
_cell_volume   589.59809799
_cell_formula_units_Z   9
loop_
 _symmetry_equiv_pos_site_id
 _symmetry_equiv_pos_as_xyz
  1  'x, y, z'
loop_
 _atom_site_type_symbol
 _atom_site_label
 _atom_site_symmetry_multiplicity
 _atom_site_fract_x
 _atom_site_fract_y
 _atom_site_fract_z
 _atom_site_occupancy
  Cr  Cr0  1  0.00290891  0.00470775  0.00031104  1
  Ni  Ni1  1  0.17282079  0.16923693  0.16503092  1
  Cr  Cr2  1  0.00357817  0.00051930  0.33330631  1
  Ni  Ni3  1  0.00131859  0.33503236  0.99896089  1
  Ni  Ni4  1  0.16663638  0.49904196  0.16504706  1
  Cr  Cr5  1  0.00005294  0.33285565  0.33096960  1
  Fe  Fe6  1  0.00141888  0.66447926  -0.00020510  1
  Cr  Cr7  1  0.16978409  0.83137839  0.16821038  1
  Ni  Ni8  1  0.00310534  0.66397724  0.33371509  1
  Ni  Ni9  1  0.33433469  0.99808599  0.99937695  1
  Ni  Ni10  1  0.49511521  0.16487811  0.16708544  1
  Ni  Ni11  1  0.33510577  0.99852187  0.33267689  1
  Fe  Fe12  1  0.33302005  0.33189380  0.00027938  1
  Cr  Cr13  1  0.49830757  0.50016743  0.16861322  1
  Ni  Ni14  1  0.33420729  0.33398717  0.33343736  1
  Ni  Ni15  1  0.33398278  0.66748705  0.99804546  1
  Ni  Ni16  1  0.49856398  0.83346575  0.16443370  1
  Ni  Ni17  1  0.33404585  0.66678309  0.33506644  1
  Ni  Ni18  1  0.66172571  0.99964078  0.99729179  1
  Cr  Cr19  1  0.83063644  0.16795186  0.16602993  1
  Cr  Cr20  1  0.66286975  0.00077525  0.33349211  1
  Cr  Cr21  1  0.66835638  0.33351014  -0.00019178  1
  Ni  Ni22  1  0.83435216  0.50220069  0.16670512  1
  Ni  Ni23  1  0.66400323  0.33445864  0.33464643  1
  Ni  Ni24  1  0.66268323  0.66565506  0.99913309  1
  Cr  Cr25  1  0.82967213  0.82838305  0.16493489  1
  Ni  Ni26  1  0.66298889  0.66491193  0.33263922  1
  Cr  Cr27  1  0.17133670  0.16818892  0.49876424  1
  Cr  Cr28  1  0.00213828  0.00126853  0.66594838  1
  Ni  Ni29  1  0.17067126  0.16649559  0.83451079  1
  Ni  Ni30  1  0.16935543  0.50136302  0.49965948  1
  Cr  Cr31  1  0.99956561  0.33313769  0.66794685  1
  Fe  Fe32  1  0.16654568  0.49876863  0.83504675  1
  Fe  Fe33  1  0.16994609  0.83215483  0.49899310  1
  Fe  Fe34  1  0.00182485  0.66563053  0.66685661  1
  Ni  Ni35  1  0.16813555  0.83243284  0.83264752  1
  Ni  Ni36  1  0.49807292  0.16625471  0.49988911  1
  Ni  Ni37  1  0.33396802  0.99829716  0.66724944  1
  Ni  Ni38  1  0.49644754  0.16570403  0.83232882  1
  Ni  Ni39  1  0.49669090  0.49879004  0.49772422  1
  Fe  Fe40  1  0.33416154  0.33207630  0.66618723  1
  Fe  Fe41  1  0.49825921  0.49837002  0.83460744  1
  Ni  Ni42  1  0.49833903  0.83409640  0.49919383  1
  Cr  Cr43  1  0.33375372  0.66710512  0.66600015  1
  Fe  Fe44  1  0.49772795  0.83568168  0.83476378  1
  Ni  Ni45  1  0.82977982  0.16588407  0.50068070  1
  Fe  Fe46  1  0.66262031  0.00064544  0.66686943  1
  Ni  Ni47  1  0.83169452  0.16699954  0.83312362  1
  Cr  Cr48  1  0.83332457  0.50104405  0.49692706  1
  Cr  Cr49  1  0.66555886  0.33324856  0.66575077  1
  Ni  Ni50  1  0.83444881  0.50118620  0.83531112  1
  Cr  Cr51  1  0.83320926  0.83221201  0.49980914  1
  Cr  Cr52  1  0.66181223  0.66475598  0.66745522  1
  Cr  Cr53  1  0.83270279  0.83190828  0.83440005  1
" 