1572,Ni50Fe33Cr15_19,-235.124535443777, 200.311000758411,Ni50Fe33Cr15,"# generated using pymatgen
 data_CrFe2Ni3
_symmetry_space_group_name_H-M   'P 1'
_cell_length_a   7.43537828
_cell_length_b   7.43537828
_cell_length_c   10.51521280
_cell_angle_alpha   90.00000000
_cell_angle_beta   90.00000000
_cell_angle_gamma   90.00000000
_symmetry_Int_Tables_number   1
_chemical_formula_structural   CrFe2Ni3
_chemical_formula_sum   'Cr9 Fe18 Ni27'
_cell_volume   581.33196334
_cell_formula_units_Z   9
loop_
 _symmetry_equiv_pos_site_id
 _symmetry_equiv_pos_as_xyz
  1  'x, y, z'
loop_
 _atom_site_type_symbol
 _atom_site_label
 _atom_site_symmetry_multiplicity
 _atom_site_fract_x
 _atom_site_fract_y
 _atom_site_fract_z
 _atom_site_occupancy
  Ni  Ni0  1  1.00180886  0.00318623  0.00369737  1
  Ni  Ni1  1  0.16928410  0.16672631  0.16898618  1
  Ni  Ni2  1  1.00176262  0.00298096  0.33470423  1
  Cr  Cr3  1  1.00212222  0.33376036  1.00196187  1
  Ni  Ni4  1  0.17182238  0.50145257  0.16839762  1
  Cr  Cr5  1  0.00279602  0.33442296  0.33391706  1
  Cr  Cr6  1  1.00093594  0.66898213  0.00455378  1
  Ni  Ni7  1  0.16708959  0.83821066  0.16917288  1
  Cr  Cr8  1  0.00272346  0.66985178  0.33413604  1
  Fe  Fe9  1  0.33525067  0.00367873  0.00236335  1
  Fe  Fe10  1  0.50251423  0.17071306  0.16847573  1
  Fe  Fe11  1  0.33384987  0.00375857  0.33593105  1
  Fe  Fe12  1  0.33724540  0.33616859  1.00166449  1
  Ni  Ni13  1  0.50202764  0.49876495  0.16723411  1
  Fe  Fe14  1  0.33671122  0.33424411  0.33578324  1
  Fe  Fe15  1  0.33690574  0.66653742  0.00257723  1
  Cr  Cr16  1  0.50253690  0.83585692  0.16707938  1
  Cr  Cr17  1  0.33453285  0.66772765  0.33583219  1
  Fe  Fe18  1  0.67104874  0.00310301  1.00106204  1
  Ni  Ni19  1  0.83452733  0.16666934  0.16936464  1
  Ni  Ni20  1  0.66947943  0.00438807  0.33498625  1
  Ni  Ni21  1  0.66654380  0.33582737  0.00269142  1
  Ni  Ni22  1  0.83254131  0.50095743  0.16879271  1
  Fe  Fe23  1  0.66777870  0.33384552  0.33433797  1
  Ni  Ni24  1  0.66692977  0.66810803  1.00123596  1
  Ni  Ni25  1  0.83721671  0.83876534  0.16817582  1
  Cr  Cr26  1  0.66913562  0.66910418  0.33613935  1
  Fe  Fe27  1  0.16936413  0.16839950  0.50254380  1
  Fe  Fe28  1  1.00060995  1.00209524  0.66805564  1
  Fe  Fe29  1  0.16887352  0.17070617  0.83499223  1
  Ni  Ni30  1  0.17026257  0.50143723  0.50378585  1
  Ni  Ni31  1  0.00377828  0.33592145  0.66970185  1
  Ni  Ni32  1  0.17042645  0.50026115  0.83420446  1
  Ni  Ni33  1  0.16691051  0.83745902  0.50169572  1
  Ni  Ni34  1  0.99995637  0.66677089  0.66749979  1
  Cr  Cr35  1  0.16723428  0.83601294  0.83550039  1
  Fe  Fe36  1  0.50177649  0.16844800  0.50279996  1
  Fe  Fe37  1  0.33624933  0.00425677  0.66809169  1
  Ni  Ni38  1  0.50299482  0.16998032  0.83554775  1
  Ni  Ni39  1  0.50205496  0.49904273  0.50257245  1
  Ni  Ni40  1  0.33371430  0.33436607  0.66916957  1
  Ni  Ni41  1  0.50274561  0.50001001  0.83658969  1
  Fe  Fe42  1  0.50307759  0.83685586  0.50284624  1
  Cr  Cr43  1  0.33668952  0.66737026  0.66842147  1
  Fe  Fe44  1  0.50591438  0.83552080  0.83610272  1
  Fe  Fe45  1  0.83524759  0.16753593  0.50261590  1
  Ni  Ni46  1  0.66859558  1.00112280  0.66970265  1
  Ni  Ni47  1  0.83352158  0.16744551  0.83438818  1
  Fe  Fe48  1  0.83556001  0.50274655  0.50495602  1
  Fe  Fe49  1  0.66875864  0.33626546  0.67000534  1
  Ni  Ni50  1  0.83321855  0.50199379  0.83268498  1
  Ni  Ni51  1  0.83641309  0.83781229  0.50342344  1
  Ni  Ni52  1  0.67015738  0.67042029  0.66905704  1
  Ni  Ni53  1  0.83377388  0.83695121  0.83479171  1
" 