3895,Ni50Fe47Cr2_4,-239.474342037104, 221.429894364967,Ni50Fe47Cr2,"# generated using pymatgen
 data_Cr2Fe25Ni27
_symmetry_space_group_name_H-M   'P 1'
_cell_length_a   7.40300835
_cell_length_b   7.40300835
_cell_length_c   10.46943481
_cell_angle_alpha   90.00000000
_cell_angle_beta   90.00000000
_cell_angle_gamma   90.00000000
_symmetry_Int_Tables_number   1
_chemical_formula_structural   Cr2Fe25Ni27
_chemical_formula_sum   'Cr2 Fe25 Ni27'
_cell_volume   573.77248126
_cell_formula_units_Z   1
loop_
 _symmetry_equiv_pos_site_id
 _symmetry_equiv_pos_as_xyz
  1  'x, y, z'
loop_
 _atom_site_type_symbol
 _atom_site_label
 _atom_site_symmetry_multiplicity
 _atom_site_fract_x
 _atom_site_fract_y
 _atom_site_fract_z
 _atom_site_occupancy
  Ni  Ni0  1  0.00565446  0.00465280  0.00438955  1
  Ni  Ni1  1  0.17165458  0.17096582  0.17106979  1
  Ni  Ni2  1  1.00409992  1.00425140  0.33759194  1
  Fe  Fe3  1  0.00439343  0.33834303  1.00374687  1
  Fe  Fe4  1  0.17077534  0.50440384  0.17082493  1
  Fe  Fe5  1  1.00344223  0.33665709  0.33711359  1
  Ni  Ni6  1  0.00508488  0.67101257  1.00392917  1
  Fe  Fe7  1  0.17033896  0.83760047  0.17098817  1
  Ni  Ni8  1  0.00492486  0.67224479  0.33695796  1
  Fe  Fe9  1  0.33578150  1.00382673  1.00392195  1
  Ni  Ni10  1  0.50255022  0.17187950  0.17208853  1
  Fe  Fe11  1  0.33771931  0.00444436  0.33824183  1
  Fe  Fe12  1  0.33719481  0.33799918  0.00450622  1
  Ni  Ni13  1  0.50458232  0.50448681  0.17099605  1
  Fe  Fe14  1  0.33825954  0.33655909  0.33653518  1
  Ni  Ni15  1  0.33748118  0.67004229  1.00393548  1
  Fe  Fe16  1  0.50419632  0.83699993  0.17203340  1
  Ni  Ni17  1  0.33780897  0.67127339  0.33695843  1
  Cr  Cr18  1  0.67236877  0.00502257  1.00400242  1
  Ni  Ni19  1  0.83876952  0.17090916  0.17152127  1
  Ni  Ni20  1  0.67150236  0.00588359  0.33828065  1
  Fe  Fe21  1  0.67138906  0.34006018  0.00498623  1
  Ni  Ni22  1  0.83701100  0.50573824  0.17116424  1
  Ni  Ni23  1  0.67053206  0.33691475  0.33732863  1
  Ni  Ni24  1  0.67040404  0.66892259  0.00549914  1
  Ni  Ni25  1  0.83792096  0.83633552  0.17179846  1
  Fe  Fe26  1  0.67156876  0.67163060  0.33766312  1
  Ni  Ni27  1  0.17149371  0.17048891  0.50439936  1
  Ni  Ni28  1  0.00560004  0.00512021  0.67099168  1
  Ni  Ni29  1  0.17182761  0.17171114  0.83750470  1
  Cr  Cr30  1  0.17069398  0.50254182  0.50449586  1
  Ni  Ni31  1  1.00316507  0.33612978  0.67160076  1
  Ni  Ni32  1  0.17086205  0.50314020  0.83799509  1
  Fe  Fe33  1  0.17099386  0.83954091  0.50402651  1
  Fe  Fe34  1  1.00272200  0.67151422  0.67204932  1
  Fe  Fe35  1  0.17017572  0.83744068  0.83795607  1
  Fe  Fe36  1  0.50461128  0.17041199  0.50399465  1
  Ni  Ni37  1  0.33648394  1.00415780  0.67090960  1
  Fe  Fe38  1  0.50366315  0.17215429  0.83693208  1
  Fe  Fe39  1  0.50603074  0.50474088  0.50392532  1
  Fe  Fe40  1  0.33770889  0.33623302  0.67193855  1
  Fe  Fe41  1  0.50468442  0.50468188  0.83805586  1
  Ni  Ni42  1  0.50605243  0.83783877  0.50410840  1
  Fe  Fe43  1  0.33850280  0.67159362  0.67157235  1
  Fe  Fe44  1  0.50339988  0.83613459  0.83643258  1
  Fe  Fe45  1  0.83773440  0.17047013  0.50393118  1
  Fe  Fe46  1  0.67138707  1.00406234  0.67052844  1
  Fe  Fe47  1  0.83948276  0.17221555  0.83687217  1
  Fe  Fe48  1  0.83600819  0.50438102  0.50468510  1
  Ni  Ni49  1  0.67128436  0.33857501  0.67145186  1
  Ni  Ni50  1  0.83785209  0.50593912  0.83741855  1
  Ni  Ni51  1  0.83600381  0.83755389  0.50447030  1
  Ni  Ni52  1  0.67031927  0.66968087  0.67053431  1
  Ni  Ni53  1  0.83740893  0.83604886  0.83670795  1
" 