4932,Ni50Fe27Cr21_1,-231.896399943677, 191.105571007677,Ni50Fe27Cr21,"# generated using pymatgen
 data_Cr13Fe14Ni27
_symmetry_space_group_name_H-M   'P 1'
_cell_length_a   7.45193382
_cell_length_b   7.45193382
_cell_length_c   10.53862587
_cell_angle_alpha   90.00000000
_cell_angle_beta   90.00000000
_cell_angle_gamma   90.00000000
_symmetry_Int_Tables_number   1
_chemical_formula_structural   Cr13Fe14Ni27
_chemical_formula_sum   'Cr13 Fe14 Ni27'
_cell_volume   585.22378062
_cell_formula_units_Z   1
loop_
 _symmetry_equiv_pos_site_id
 _symmetry_equiv_pos_as_xyz
  1  'x, y, z'
loop_
 _atom_site_type_symbol
 _atom_site_label
 _atom_site_symmetry_multiplicity
 _atom_site_fract_x
 _atom_site_fract_y
 _atom_site_fract_z
 _atom_site_occupancy
  Ni  Ni0  1  0.00266523  0.00201062  0.00316787  1
  Ni  Ni1  1  0.16613790  0.16804797  0.16871988  1
  Fe  Fe2  1  0.00438354  0.00118937  0.33370910  1
  Fe  Fe3  1  0.99858456  0.33326890  0.00142234  1
  Ni  Ni4  1  0.16674890  0.49963874  0.16994661  1
  Fe  Fe5  1  0.00338083  0.33375793  0.33358160  1
  Cr  Cr6  1  0.00175739  0.66773657  1.00026317  1
  Fe  Fe7  1  0.16900568  0.83581196  0.16819788  1
  Fe  Fe8  1  0.00346748  0.66806090  0.33304072  1
  Ni  Ni9  1  0.33140698  0.99972416  0.00237926  1
  Cr  Cr10  1  0.49819302  0.16742376  0.16753255  1
  Ni  Ni11  1  0.33110611  1.00010374  0.33392671  1
  Cr  Cr12  1  0.33490709  0.33542368  0.99897956  1
  Fe  Fe13  1  0.50130422  0.50366532  0.16821228  1
  Ni  Ni14  1  0.33178957  0.33596954  0.33546161  1
  Fe  Fe15  1  0.33537037  0.66875675  0.00146882  1
  Ni  Ni16  1  0.50122681  0.83162487  0.16798992  1
  Ni  Ni17  1  0.33474993  0.66707366  0.33390248  1
  Cr  Cr18  1  0.66834774  0.00186003  1.00034875  1
  Fe  Fe19  1  0.83756790  0.16839881  0.16660892  1
  Cr  Cr20  1  0.66836598  0.99933991  0.33451819  1
  Ni  Ni21  1  0.66964804  0.33682584  1.00024270  1
  Fe  Fe22  1  0.83320273  0.50102033  0.16787666  1
  Fe  Fe23  1  0.66666965  0.33670802  0.33339898  1
  Ni  Ni24  1  0.66735364  0.66397126  0.00310751  1
  Ni  Ni25  1  0.83381543  0.83219736  0.16880956  1
  Ni  Ni26  1  0.66631238  0.66645558  0.33225247  1
  Ni  Ni27  1  0.16861859  0.16710767  0.49967452  1
  Ni  Ni28  1  0.00220192  0.99967492  0.66654405  1
  Cr  Cr29  1  0.16885417  0.16622730  0.83493549  1
  Fe  Fe30  1  0.17094508  0.50241094  0.50055840  1
  Cr  Cr31  1  0.00269375  0.33442634  0.66932913  1
  Ni  Ni32  1  0.16787929  0.50269069  0.83216547  1
  Ni  Ni33  1  0.16934033  0.83529343  0.50069377  1
  Ni  Ni34  1  0.00327180  0.66939666  0.66838224  1
  Ni  Ni35  1  0.16804987  0.83358839  0.83409491  1
  Cr  Cr36  1  0.49734762  0.16724660  0.50198402  1
  Ni  Ni37  1  0.33271657  1.00003166  0.66675798  1
  Ni  Ni38  1  0.50148245  0.16923012  0.83337786  1
  Fe  Fe39  1  0.49781067  0.50429174  0.50076187  1
  Ni  Ni40  1  0.33466137  0.33565446  0.66733914  1
  Ni  Ni41  1  0.50183423  0.50029175  0.83443166  1
  Ni  Ni42  1  0.49899972  0.83267294  0.50159602  1
  Ni  Ni43  1  0.33333343  0.66743877  0.66733391  1
  Cr  Cr44  1  0.49918014  0.83434843  0.83344236  1
  Fe  Fe45  1  0.83721574  0.16577065  0.50114905  1
  Fe  Fe46  1  0.66702531  1.00058777  0.66777996  1
  Ni  Ni47  1  0.83337521  0.16937604  0.83520554  1
  Cr  Cr48  1  0.83457936  0.50293858  0.49956759  1
  Cr  Cr49  1  0.66586248  0.33425687  0.66995501  1
  Ni  Ni50  1  0.83334625  0.50039330  0.83625449  1
  Cr  Cr51  1  0.83444798  0.83280559  0.50376498  1
  Ni  Ni52  1  0.66643955  0.66745456  0.66772447  1
  Cr  Cr53  1  0.83577860  0.83308888  0.83089063  1
" 