856,Ni50Fe44Cr5_2,-238.883367922055, 219.905635333972,Ni50Fe44Cr5,"# generated using pymatgen
 data_Cr4Fe23Ni27
_symmetry_space_group_name_H-M   'P 1'
_cell_length_a   7.41749803
_cell_length_b   7.41749803
_cell_length_c   10.48992631
_cell_angle_alpha   90.00000000
_cell_angle_beta   90.00000000
_cell_angle_gamma   90.00000000
_symmetry_Int_Tables_number   1
_chemical_formula_structural   Cr4Fe23Ni27
_chemical_formula_sum   'Cr4 Fe23 Ni27'
_cell_volume   577.14816073
_cell_formula_units_Z   1
loop_
 _symmetry_equiv_pos_site_id
 _symmetry_equiv_pos_as_xyz
  1  'x, y, z'
loop_
 _atom_site_type_symbol
 _atom_site_label
 _atom_site_symmetry_multiplicity
 _atom_site_fract_x
 _atom_site_fract_y
 _atom_site_fract_z
 _atom_site_occupancy
  Ni  Ni0  1  1.00196940  1.00172105  0.00418801  1
  Ni  Ni1  1  0.17025290  0.16893174  0.17172777  1
  Ni  Ni2  1  0.00558086  0.00360615  0.33586392  1
  Cr  Cr3  1  0.00393913  0.33699249  0.00348507  1
  Ni  Ni4  1  0.17076858  0.50307143  0.17063679  1
  Ni  Ni5  1  0.00558377  0.33728426  0.33596914  1
  Fe  Fe6  1  1.00246008  0.67142238  1.00319831  1
  Fe  Fe7  1  0.16972470  0.83606798  0.17012139  1
  Ni  Ni8  1  1.00323055  0.66912961  0.33660484  1
  Fe  Fe9  1  0.33785639  0.00356346  0.00427180  1
  Fe  Fe10  1  0.50202843  0.17224871  0.16849217  1
  Ni  Ni11  1  0.33507221  0.00439481  0.33713764  1
  Ni  Ni12  1  0.33866139  0.33795686  0.00388994  1
  Ni  Ni13  1  0.50427463  0.50356535  0.17075306  1
  Ni  Ni14  1  0.33538375  0.33680847  0.33669929  1
  Fe  Fe15  1  0.33731786  0.66942831  1.00319780  1
  Fe  Fe16  1  0.50248924  0.83487349  0.17018402  1
  Ni  Ni17  1  0.33694796  0.66881550  0.33652546  1
  Ni  Ni18  1  0.67049655  1.00305434  1.00242645  1
  Fe  Fe19  1  0.83737204  0.17106708  0.16989431  1
  Cr  Cr20  1  0.66950890  1.00189476  0.33561988  1
  Ni  Ni21  1  0.66761212  0.33645227  1.00324332  1
  Ni  Ni22  1  0.83497644  0.50440015  0.17148793  1
  Fe  Fe23  1  0.66945596  0.33961302  0.33518295  1
  Ni  Ni24  1  0.66921447  0.67051557  1.00287175  1
  Fe  Fe25  1  0.83780509  0.83516309  0.16877856  1
  Ni  Ni26  1  0.66984209  0.66881877  0.33731175  1
  Ni  Ni27  1  0.17066163  0.16952275  0.50279331  1
  Ni  Ni28  1  1.00250173  1.00234974  0.66996773  1
  Cr  Cr29  1  0.17061008  0.16828389  0.83560396  1
  Fe  Fe30  1  0.17026041  0.50345415  0.50264026  1
  Fe  Fe31  1  1.00306866  0.33833500  0.66932317  1
  Fe  Fe32  1  0.17144006  0.50607680  0.83603170  1
  Fe  Fe33  1  0.17009838  0.83715169  0.50367347  1
  Ni  Ni34  1  0.00369861  0.67014949  0.67066885  1
  Ni  Ni35  1  0.16842005  0.83591815  0.83662343  1
  Fe  Fe36  1  0.50069446  0.17001571  0.50438757  1
  Fe  Fe37  1  0.33738502  1.00140393  0.66872846  1
  Ni  Ni38  1  0.50483055  0.17117587  0.83634116  1
  Fe  Fe39  1  0.50290571  0.50377283  0.50322363  1
  Fe  Fe40  1  0.33754293  0.33754820  0.66964346  1
  Ni  Ni41  1  0.50431734  0.50295366  0.83683972  1
  Ni  Ni42  1  0.50284690  0.83485581  0.50465614  1
  Ni  Ni43  1  0.33671787  0.66906030  0.67053658  1
  Fe  Fe44  1  0.50378517  0.83663206  0.83592502  1
  Cr  Cr45  1  0.83906127  0.17021445  0.50393067  1
  Ni  Ni46  1  0.66985019  1.00260922  0.67176696  1
  Fe  Fe47  1  0.83393948  0.16816827  0.83596056  1
  Fe  Fe48  1  0.83685498  0.50522627  0.50268279  1
  Fe  Fe49  1  0.66941480  0.33774850  0.67161695  1
  Fe  Fe50  1  0.83532640  0.50466353  0.83627073  1
  Fe  Fe51  1  0.83746216  0.83493811  0.50477469  1
  Ni  Ni52  1  0.66960529  0.67083929  0.66984026  1
  Ni  Ni53  1  0.83723692  0.83643376  0.83614800  1
" 