5232,Ni50Fe43Cr5_9,-238.141078129475, 214.992770391477,Ni50Fe43Cr5,"# generated using pymatgen
 data_Cr4Fe23Ni27
_symmetry_space_group_name_H-M   'P 1'
_cell_length_a   7.41242134
_cell_length_b   7.41242134
_cell_length_c   10.48274678
_cell_angle_alpha   90.00000000
_cell_angle_beta   90.00000000
_cell_angle_gamma   90.00000000
_symmetry_Int_Tables_number   1
_chemical_formula_structural   Cr4Fe23Ni27
_chemical_formula_sum   'Cr4 Fe23 Ni27'
_cell_volume   575.96393524
_cell_formula_units_Z   1
loop_
 _symmetry_equiv_pos_site_id
 _symmetry_equiv_pos_as_xyz
  1  'x, y, z'
loop_
 _atom_site_type_symbol
 _atom_site_label
 _atom_site_symmetry_multiplicity
 _atom_site_fract_x
 _atom_site_fract_y
 _atom_site_fract_z
 _atom_site_occupancy
  Fe  Fe0  1  0.00388442  0.00428519  1.00357969  1
  Ni  Ni1  1  0.16895416  0.16998696  0.17000713  1
  Fe  Fe2  1  0.00461608  0.00396901  0.33712852  1
  Ni  Ni3  1  0.00586336  0.33674333  1.00351814  1
  Fe  Fe4  1  0.17082611  0.50233917  0.17012335  1
  Fe  Fe5  1  0.00445491  0.33710781  0.33716507  1
  Fe  Fe6  1  1.00364407  0.66951021  1.00252343  1
  Fe  Fe7  1  0.17064919  0.83792928  0.17024144  1
  Fe  Fe8  1  0.00458782  0.66997511  0.33797740  1
  Fe  Fe9  1  0.33634310  1.00320638  1.00276645  1
  Cr  Cr10  1  0.50252584  0.17019161  0.17096274  1
  Ni  Ni11  1  0.33612982  1.00336952  0.33780423  1
  Ni  Ni12  1  0.33255868  0.33750501  0.00392824  1
  Fe  Fe13  1  0.50251686  0.50557798  0.17109957  1
  Ni  Ni14  1  0.33493828  0.33659585  0.33675631  1
  Ni  Ni15  1  0.33638842  0.67096488  0.00506568  1
  Fe  Fe16  1  0.50389250  0.83589370  0.17033250  1
  Ni  Ni17  1  0.33689655  0.67109382  0.33635915  1
  Ni  Ni18  1  0.67151578  1.00064340  1.00311359  1
  Ni  Ni19  1  0.83917972  0.16916337  0.17090296  1
  Fe  Fe20  1  0.66990686  1.00304439  0.33778775  1
  Cr  Cr21  1  0.67236821  0.33666142  1.00364505  1
  Fe  Fe22  1  0.83771271  0.50365553  0.17089359  1
  Fe  Fe23  1  0.67095257  0.33714683  0.33770354  1
  Ni  Ni24  1  0.67075254  0.67365156  0.00455090  1
  Fe  Fe25  1  0.83651775  0.83799184  0.17012365  1
  Ni  Ni26  1  0.67114030  0.67116522  0.33581469  1
  Ni  Ni27  1  0.17070498  0.16958712  0.50329665  1
  Ni  Ni28  1  1.00358657  1.00341448  0.67015325  1
  Ni  Ni29  1  0.17052858  0.16946407  0.83774648  1
  Ni  Ni30  1  0.16905142  0.50417557  0.50431821  1
  Ni  Ni31  1  1.00363979  0.33809014  0.67017896  1
  Ni  Ni32  1  0.16888271  0.50393688  0.83727294  1
  Fe  Fe33  1  0.17023500  0.83742536  0.50422217  1
  Ni  Ni34  1  1.00356802  0.66955089  0.67024707  1
  Ni  Ni35  1  0.17030312  0.83765450  0.83732449  1
  Ni  Ni36  1  0.50367424  0.16848487  0.50395457  1
  Ni  Ni37  1  0.33745724  0.00415816  0.67034707  1
  Fe  Fe38  1  0.50207530  0.16851718  0.83550927  1
  Cr  Cr39  1  0.50360769  0.50324915  0.50413412  1
  Ni  Ni40  1  0.33515045  0.33509744  0.67036960  1
  Cr  Cr41  1  0.50360022  0.50402392  0.83587156  1
  Fe  Fe42  1  0.50360236  0.83911617  0.50321723  1
  Fe  Fe43  1  0.33440185  0.67183699  0.67068241  1
  Fe  Fe44  1  0.50311031  0.83821304  0.83750548  1
  Ni  Ni45  1  0.83667344  0.16989544  0.50350756  1
  Ni  Ni46  1  0.67001158  0.00408632  0.66987139  1
  Fe  Fe47  1  0.83881837  0.17007313  0.83606279  1
  Ni  Ni48  1  0.83800287  0.50419038  0.50379324  1
  Ni  Ni49  1  0.67226636  0.33511297  0.66999640  1
  Ni  Ni50  1  0.83841824  0.50505710  0.83623002  1
  Fe  Fe51  1  0.83721998  0.83721520  0.50397636  1
  Fe  Fe52  1  0.67281168  0.67141357  0.67036585  1
  Fe  Fe53  1  0.83785910  0.83656967  0.83694819  1
" 