6118,Ni50Fe26Cr23_9,-231.988794800106, 192.371797848556,Ni50Fe26Cr23,"# generated using pymatgen
 data_Cr13Fe14Ni27
_symmetry_space_group_name_H-M   'P 1'
_cell_length_a   7.45197551
_cell_length_b   7.45197551
_cell_length_c   10.53868484
_cell_angle_alpha   90.00000000
_cell_angle_beta   90.00000000
_cell_angle_gamma   90.00000000
_symmetry_Int_Tables_number   1
_chemical_formula_structural   Cr13Fe14Ni27
_chemical_formula_sum   'Cr13 Fe14 Ni27'
_cell_volume   585.23360397
_cell_formula_units_Z   1
loop_
 _symmetry_equiv_pos_site_id
 _symmetry_equiv_pos_as_xyz
  1  'x, y, z'
loop_
 _atom_site_type_symbol
 _atom_site_label
 _atom_site_symmetry_multiplicity
 _atom_site_fract_x
 _atom_site_fract_y
 _atom_site_fract_z
 _atom_site_occupancy
  Ni  Ni0  1  0.99852232  0.99728160  0.00300222  1
  Cr  Cr1  1  0.16566563  0.16623106  0.17004195  1
  Ni  Ni2  1  0.99945022  0.99812688  0.33327735  1
  Cr  Cr3  1  0.99852543  0.33454038  1.00087469  1
  Cr  Cr4  1  0.16854380  0.50321712  0.16944241  1
  Ni  Ni5  1  0.99913848  0.33524990  0.33623378  1
  Cr  Cr6  1  1.00098387  0.67132449  0.99989063  1
  Ni  Ni7  1  0.16577153  0.83314931  0.16807125  1
  Ni  Ni8  1  0.99977852  0.66970050  0.33556285  1
  Cr  Cr9  1  0.33476379  0.99940615  1.00089419  1
  Ni  Ni10  1  0.50454148  0.16793093  0.16962358  1
  Fe  Fe11  1  0.33376465  1.00038166  0.33613397  1
  Cr  Cr12  1  0.33879467  0.33606590  0.99982161  1
  Fe  Fe13  1  0.50152021  0.50059740  0.17044655  1
  Ni  Ni14  1  0.33858734  0.33464720  0.33563461  1
  Ni  Ni15  1  0.33437519  0.66820867  0.99900691  1
  Cr  Cr16  1  0.50112132  0.83334479  0.16839833  1
  Fe  Fe17  1  0.33192552  0.66739451  0.33628470  1
  Ni  Ni18  1  0.66911686  0.00110344  0.99987876  1
  Ni  Ni19  1  0.83297235  0.16547235  0.16802004  1
  Fe  Fe20  1  0.66967130  0.00309306  0.33455583  1
  Cr  Cr21  1  0.66573726  0.33392296  0.00353337  1
  Fe  Fe22  1  0.83352477  0.50148803  0.17174507  1
  Fe  Fe23  1  0.66920676  0.33359583  0.33563604  1
  Cr  Cr24  1  0.66758536  0.66723386  1.00055230  1
  Ni  Ni25  1  0.83536047  0.83668863  0.16863576  1
  Fe  Fe26  1  0.66975483  0.66645957  0.33637362  1
  Cr  Cr27  1  0.16694250  0.16949041  0.49927645  1
  Cr  Cr28  1  0.00161080  0.99660071  0.66582714  1
  Cr  Cr29  1  0.16792164  0.16868093  0.83357327  1
  Ni  Ni30  1  0.16675951  0.50325452  0.50205789  1
  Fe  Fe31  1  0.99852552  0.33877213  0.66587570  1
  Fe  Fe32  1  0.16881935  0.50436375  0.83155792  1
  Ni  Ni33  1  0.16935663  0.83126016  0.49946185  1
  Ni  Ni34  1  0.99982358  0.66643332  0.66742378  1
  Fe  Fe35  1  0.16895162  0.83199354  0.83312582  1
  Ni  Ni36  1  0.50313325  0.16683348  0.50174223  1
  Ni  Ni37  1  0.33751518  1.00048605  0.66675969  1
  Ni  Ni38  1  0.50134698  0.16647963  0.83184503  1
  Ni  Ni39  1  0.50123930  0.50236604  0.50007264  1
  Fe  Fe40  1  0.33740398  0.33656709  0.66661496  1
  Ni  Ni41  1  0.50039782  0.50349134  0.83319012  1
  Ni  Ni42  1  0.50077413  0.83382098  0.50162087  1
  Fe  Fe43  1  0.33543488  0.66838632  0.66736500  1
  Ni  Ni44  1  0.50156403  0.83316217  0.83314256  1
  Ni  Ni45  1  0.83233492  0.16932677  0.50036743  1
  Fe  Fe46  1  0.66503196  0.99935194  0.66737670  1
  Cr  Cr47  1  0.83248524  0.16663574  0.83415397  1
  Ni  Ni48  1  0.83508348  0.50070249  0.50104987  1
  Ni  Ni49  1  0.66501856  0.33662108  0.66635914  1
  Ni  Ni50  1  0.83414500  0.50326976  0.83153555  1
  Fe  Fe51  1  0.83350319  0.83238613  0.50017551  1
  Ni  Ni52  1  0.66846226  0.66542200  0.66741019  1
  Ni  Ni53  1  0.83231997  0.83259456  0.83407556  1
" 