1515,Ni50Fe26Cr23_4,-231.571760622411, 192.120073600418,Ni50Fe26Cr23,"# generated using pymatgen
 data_Cr13Fe14Ni27
_symmetry_space_group_name_H-M   'P 1'
_cell_length_a   7.44451684
_cell_length_b   7.44451684
_cell_length_c   10.52813668
_cell_angle_alpha   90.00000000
_cell_angle_beta   90.00000000
_cell_angle_gamma   90.00000000
_symmetry_Int_Tables_number   1
_chemical_formula_structural   Cr13Fe14Ni27
_chemical_formula_sum   'Cr13 Fe14 Ni27'
_cell_volume   583.47808270
_cell_formula_units_Z   1
loop_
 _symmetry_equiv_pos_site_id
 _symmetry_equiv_pos_as_xyz
  1  'x, y, z'
loop_
 _atom_site_type_symbol
 _atom_site_label
 _atom_site_symmetry_multiplicity
 _atom_site_fract_x
 _atom_site_fract_y
 _atom_site_fract_z
 _atom_site_occupancy
  Cr  Cr0  1  1.00135435  0.00157501  0.00228374  1
  Fe  Fe1  1  0.17262977  0.16877541  0.16768836  1
  Fe  Fe2  1  1.00038999  1.00122078  0.33476679  1
  Fe  Fe3  1  0.00371856  0.33812388  0.99936503  1
  Ni  Ni4  1  0.16988715  0.50313626  0.16594041  1
  Cr  Cr5  1  0.00375151  0.33664153  0.33388894  1
  Ni  Ni6  1  0.00285997  0.66970273  1.00148773  1
  Ni  Ni7  1  0.17029718  0.83462860  0.16972982  1
  Cr  Cr8  1  0.00403919  0.67018756  0.33563960  1
  Fe  Fe9  1  0.33612197  1.00144619  0.00234472  1
  Ni  Ni10  1  0.49988420  0.16540369  0.16919282  1
  Fe  Fe11  1  0.33761754  1.00052823  0.33418533  1
  Ni  Ni12  1  0.33297202  0.33382622  1.00091355  1
  Cr  Cr13  1  0.50091668  0.50088158  0.16980597  1
  Ni  Ni14  1  0.33637788  0.33324232  0.33431365  1
  Ni  Ni15  1  0.33379931  0.66632780  0.00382170  1
  Ni  Ni16  1  0.49855679  0.83651930  0.16604931  1
  Fe  Fe17  1  0.33573557  0.66791399  0.33538169  1
  Fe  Fe18  1  0.66581163  1.00009034  1.00107507  1
  Cr  Cr19  1  0.83307235  0.16891781  0.17106932  1
  Ni  Ni20  1  0.66638935  1.00149695  0.33432262  1
  Cr  Cr21  1  0.66421532  0.33289060  0.99752406  1
  Cr  Cr22  1  0.83488720  0.50160819  0.16557619  1
  Ni  Ni23  1  0.66511612  0.33026620  0.34008319  1
  Ni  Ni24  1  0.66870735  0.67106695  1.00041527  1
  Fe  Fe25  1  0.83306938  0.83484198  0.16707634  1
  Cr  Cr26  1  0.66769801  0.67051682  0.33673759  1
  Cr  Cr27  1  0.16885054  0.16586599  0.50166444  1
  Fe  Fe28  1  1.00044155  1.00089551  0.66894597  1
  Ni  Ni29  1  0.16924753  0.16941910  0.83652639  1
  Fe  Fe30  1  0.17032330  0.50205548  0.50218753  1
  Cr  Cr31  1  0.00172235  0.33567755  0.67112888  1
  Fe  Fe32  1  0.17050697  0.50163908  0.83612400  1
  Fe  Fe33  1  0.16920444  0.83375462  0.50301215  1
  Ni  Ni34  1  1.00119715  0.66986168  0.66711723  1
  Cr  Cr35  1  0.16881937  0.83424937  0.83071205  1
  Ni  Ni36  1  0.50169618  0.16906904  0.50076906  1
  Fe  Fe37  1  0.33587950  0.00242775  0.66764328  1
  Ni  Ni38  1  0.49916445  0.17059300  0.83401145  1
  Ni  Ni39  1  0.50093246  0.50107811  0.50206576  1
  Ni  Ni40  1  0.33659281  0.33504156  0.66959128  1
  Ni  Ni41  1  0.50072724  0.50093955  0.83322721  1
  Ni  Ni42  1  0.50016292  0.83382453  0.50194063  1
  Ni  Ni43  1  0.33443134  0.66557421  0.66462784  1
  Cr  Cr44  1  0.50090006  0.83097590  0.83595540  1
  Ni  Ni45  1  0.83406061  0.16770676  0.50042206  1
  Cr  Cr46  1  0.66854708  0.00263500  0.66917161  1
  Ni  Ni47  1  0.83573959  0.16888060  0.83410939  1
  Ni  Ni48  1  0.83267578  0.50150813  0.50387642  1
  Ni  Ni49  1  0.66566558  0.33495098  0.66646922  1
  Fe  Fe50  1  0.83308299  0.50396752  0.83408331  1
  Ni  Ni51  1  0.83619164  0.83579191  0.50210999  1
  Ni  Ni52  1  0.66897388  0.66811811  0.66748052  1
  Ni  Ni53  1  0.83610166  0.83343730  0.83606339  1
" 