1006,Ni50Fe17Cr31_12,-227.538526474353, 174.566169231395,Ni50Fe17Cr31,"# generated using pymatgen
 data_Cr2FeNi3
_symmetry_space_group_name_H-M   'P 1'
_cell_length_a   7.46934953
_cell_length_b   7.46934953
_cell_length_c   10.56325540
_cell_angle_alpha   90.00000000
_cell_angle_beta   90.00000000
_cell_angle_gamma   90.00000000
_symmetry_Int_Tables_number   1
_chemical_formula_structural   Cr2FeNi3
_chemical_formula_sum   'Cr18 Fe9 Ni27'
_cell_volume   589.33650848
_cell_formula_units_Z   9
loop_
 _symmetry_equiv_pos_site_id
 _symmetry_equiv_pos_as_xyz
  1  'x, y, z'
loop_
 _atom_site_type_symbol
 _atom_site_label
 _atom_site_symmetry_multiplicity
 _atom_site_fract_x
 _atom_site_fract_y
 _atom_site_fract_z
 _atom_site_occupancy
  Cr  Cr0  1  0.00143004  0.99865602  0.00146614  1
  Ni  Ni1  1  0.16685854  0.16641703  0.16640042  1
  Fe  Fe2  1  0.99966541  0.00229102  0.33208088  1
  Cr  Cr3  1  0.00044255  0.33383108  0.00034133  1
  Fe  Fe4  1  0.16775156  0.49794395  0.16753337  1
  Ni  Ni5  1  0.00002744  0.33465541  0.33374822  1
  Cr  Cr6  1  0.99967438  0.66698360  0.99978972  1
  Fe  Fe7  1  0.16668204  0.83340801  0.16680875  1
  Cr  Cr8  1  0.00111506  0.66511033  0.33229615  1
  Ni  Ni9  1  0.33215302  0.99975969  0.99900059  1
  Fe  Fe10  1  0.49972908  0.16905356  0.16613272  1
  Cr  Cr11  1  0.33346844  0.00041593  0.33377315  1
  Ni  Ni12  1  0.33330155  0.33186022  0.00290801  1
  Ni  Ni13  1  0.49980177  0.49967207  0.16577735  1
  Ni  Ni14  1  0.33292447  0.33298150  0.33120507  1
  Ni  Ni15  1  0.33283633  0.66767925  0.00152934  1
  Cr  Cr16  1  0.49902909  0.82810085  0.16648118  1
  Fe  Fe17  1  0.33405536  0.66292853  0.33327196  1
  Cr  Cr18  1  0.66504928  0.00047806  0.00035739  1
  Ni  Ni19  1  0.83641412  0.16844089  0.16927296  1
  Cr  Cr20  1  0.66537850  0.00251959  0.33333089  1
  Ni  Ni21  1  0.66483422  0.33445716  0.00486415  1
  Ni  Ni22  1  0.82862129  0.49938508  0.16778338  1
  Ni  Ni23  1  0.66668445  0.33388613  0.33212455  1
  Ni  Ni24  1  0.66600269  0.66711899  0.00003493  1
  Ni  Ni25  1  0.83248311  0.83261218  0.16669034  1
  Ni  Ni26  1  0.66777735  0.66505109  0.33264271  1
  Cr  Cr27  1  0.16385124  0.16603683  0.50198163  1
  Ni  Ni28  1  0.00037970  0.99880513  0.66663214  1
  Ni  Ni29  1  0.16750543  0.16324595  0.83133271  1
  Ni  Ni30  1  0.16805137  0.49921804  0.49907832  1
  Ni  Ni31  1  0.00217456  0.33220519  0.66409264  1
  Cr  Cr32  1  0.17091816  0.49697737  0.83222047  1
  Ni  Ni33  1  0.16916814  0.83339008  0.49919483  1
  Cr  Cr34  1  0.00182499  0.66519852  0.66696692  1
  Ni  Ni35  1  0.17106625  0.83602953  0.83337704  1
  Fe  Fe36  1  0.49928334  0.16770051  0.50012072  1
  Fe  Fe37  1  0.33294442  0.99802012  0.66691415  1
  Cr  Cr38  1  0.49666922  0.16684585  0.83454485  1
  Cr  Cr39  1  0.49965551  0.50204787  0.49898504  1
  Ni  Ni40  1  0.33111021  0.33276308  0.66602432  1
  Cr  Cr41  1  0.49929385  0.50301958  0.83604182  1
  Fe  Fe42  1  0.49943703  0.83304440  0.50128304  1
  Ni  Ni43  1  0.33278736  0.66863745  0.66431374  1
  Ni  Ni44  1  0.49775506  0.83176265  0.83148603  1
  Ni  Ni45  1  0.83416941  0.16745648  0.49897600  1
  Ni  Ni46  1  0.66487192  0.99814097  0.66531561  1
  Cr  Cr47  1  0.83659232  0.16632250  0.83134650  1
  Ni  Ni48  1  0.83287867  0.49782197  0.49895787  1
  Cr  Cr49  1  0.66598280  0.33226490  0.66363616  1
  Cr  Cr50  1  0.82934278  0.49977047  0.83249928  1
  Cr  Cr51  1  0.83343093  0.83453611  0.50001486  1
  Ni  Ni52  1  0.66458082  0.67045937  0.66674788  1
  Fe  Fe53  1  0.83176245  0.83426098  0.83194887  1
" 