8866,Ni50Fe33Cr15_8,-234.628868865711, 199.465587445099,Ni50Fe33Cr15,"# generated using pymatgen
 data_CrFe2Ni3
_symmetry_space_group_name_H-M   'P 1'
_cell_length_a   7.43414183
_cell_length_b   7.43414183
_cell_length_c   10.51346420
_cell_angle_alpha   90.00000000
_cell_angle_beta   90.00000000
_cell_angle_gamma   90.00000000
_symmetry_Int_Tables_number   1
_chemical_formula_structural   CrFe2Ni3
_chemical_formula_sum   'Cr9 Fe18 Ni27'
_cell_volume   581.04199814
_cell_formula_units_Z   9
loop_
 _symmetry_equiv_pos_site_id
 _symmetry_equiv_pos_as_xyz
  1  'x, y, z'
loop_
 _atom_site_type_symbol
 _atom_site_label
 _atom_site_symmetry_multiplicity
 _atom_site_fract_x
 _atom_site_fract_y
 _atom_site_fract_z
 _atom_site_occupancy
  Ni  Ni0  1  1.00217050  0.00308434  0.00287088  1
  Fe  Fe1  1  0.16767842  0.16822569  0.16835393  1
  Ni  Ni2  1  1.00035462  1.00204928  0.33353523  1
  Fe  Fe3  1  0.00248149  0.33497381  1.00165260  1
  Cr  Cr4  1  0.16672342  0.50333382  0.17000840  1
  Ni  Ni5  1  0.99924076  0.33529297  0.33553249  1
  Fe  Fe6  1  0.00463291  0.66926377  1.00092791  1
  Fe  Fe7  1  0.16691036  0.83729234  0.16913194  1
  Ni  Ni8  1  0.99795291  0.66936156  0.33479849  1
  Fe  Fe9  1  0.33466403  1.00014235  1.00114140  1
  Cr  Cr10  1  0.50584888  0.16647189  0.16737318  1
  Ni  Ni11  1  0.33494379  0.00268214  0.33202852  1
  Ni  Ni12  1  0.33401309  0.33420127  0.99927308  1
  Cr  Cr13  1  0.50451238  0.50407610  0.16894593  1
  Cr  Cr14  1  0.33703773  0.33408217  0.34048216  1
  Ni  Ni15  1  0.33464836  0.66949387  1.00205698  1
  Ni  Ni16  1  0.49990208  0.83650375  0.17014165  1
  Fe  Fe17  1  0.33551987  0.67065639  0.33561239  1
  Fe  Fe18  1  0.66969376  1.00207356  1.00150615  1
  Ni  Ni19  1  0.83848312  0.16865802  0.16952445  1
  Ni  Ni20  1  0.67044082  1.00210441  0.33610187  1
  Fe  Fe21  1  0.67220203  0.33303229  1.00106222  1
  Ni  Ni22  1  0.83796054  0.49974124  0.16805853  1
  Ni  Ni23  1  0.67161476  0.33620276  0.33605508  1
  Cr  Cr24  1  0.67141324  0.66935553  1.00209008  1
  Fe  Fe25  1  0.83463726  0.83613388  0.16990684  1
  Ni  Ni26  1  0.67149341  0.66835773  0.33547724  1
  Cr  Cr27  1  0.16496964  0.16614685  0.50242619  1
  Ni  Ni28  1  1.00089615  1.00213776  0.66993030  1
  Fe  Fe29  1  0.16741261  0.16951181  0.83543957  1
  Fe  Fe30  1  0.16709806  0.50244457  0.50370497  1
  Fe  Fe31  1  1.00015037  0.33685307  0.66911278  1
  Ni  Ni32  1  0.16719944  0.50319607  0.83395692  1
  Cr  Cr33  1  0.16770732  0.83425553  0.50160242  1
  Ni  Ni34  1  1.00007445  0.66928509  0.67105238  1
  Fe  Fe35  1  0.16721419  0.83481011  0.83465702  1
  Ni  Ni36  1  0.50482283  0.16859759  0.50452156  1
  Ni  Ni37  1  0.33440832  0.00417144  0.67318124  1
  Fe  Fe38  1  0.50377985  0.16976947  0.83493686  1
  Ni  Ni39  1  0.50519376  0.50303092  0.50255048  1
  Fe  Fe40  1  0.33538848  0.33686754  0.66823017  1
  Cr  Cr41  1  0.50196131  0.50468161  0.83584543  1
  Cr  Cr42  1  0.50199693  0.83632594  0.50177043  1
  Ni  Ni43  1  0.33515799  0.66896620  0.66914882  1
  Ni  Ni44  1  0.49993306  0.83819295  0.83469090  1
  Ni  Ni45  1  0.83380032  0.17015432  0.50146549  1
  Fe  Fe46  1  0.66990714  1.00153083  0.66958819  1
  Ni  Ni47  1  0.83693709  0.16795116  0.83522173  1
  Ni  Ni48  1  0.83569553  0.50089445  0.50194645  1
  Ni  Ni49  1  0.66922383  0.33569248  0.66849035  1
  Ni  Ni50  1  0.83926827  0.49934652  0.83619133  1
  Fe  Fe51  1  0.83524155  0.83558887  0.50260161  1
  Ni  Ni52  1  0.67086249  0.66687721  0.66925102  1
  Fe  Fe53  1  0.83603473  0.83538297  0.83434602  1
" 