8804,Ni50Fe17Cr31_1,-227.80726652826, 177.494334664777,Ni50Fe17Cr31,"# generated using pymatgen
 data_Cr2FeNi3
_symmetry_space_group_name_H-M   'P 1'
_cell_length_a   7.47184842
_cell_length_b   7.47184842
_cell_length_c   10.56678938
_cell_angle_alpha   90.00000000
_cell_angle_beta   90.00000000
_cell_angle_gamma   90.00000000
_symmetry_Int_Tables_number   1
_chemical_formula_structural   Cr2FeNi3
_chemical_formula_sum   'Cr18 Fe9 Ni27'
_cell_volume   589.92820003
_cell_formula_units_Z   9
loop_
 _symmetry_equiv_pos_site_id
 _symmetry_equiv_pos_as_xyz
  1  'x, y, z'
loop_
 _atom_site_type_symbol
 _atom_site_label
 _atom_site_symmetry_multiplicity
 _atom_site_fract_x
 _atom_site_fract_y
 _atom_site_fract_z
 _atom_site_occupancy
  Ni  Ni0  1  0.99902462  0.00025865  0.99936418  1
  Fe  Fe1  1  0.16573893  0.16595460  0.16310527  1
  Ni  Ni2  1  0.99949869  0.99893875  0.33349911  1
  Ni  Ni3  1  -0.00028046  0.33061606  0.99936748  1
  Fe  Fe4  1  0.16648892  0.49916127  0.16444928  1
  Cr  Cr5  1  0.99848587  0.33356255  0.33305049  1
  Cr  Cr6  1  0.99625930  0.66518675  0.99929247  1
  Cr  Cr7  1  0.16440801  0.83250471  0.16530808  1
  Ni  Ni8  1  0.99789844  0.66661989  0.33105119  1
  Fe  Fe9  1  0.33481932  0.99843869  -0.00000738  1
  Ni  Ni10  1  0.50020185  0.16847942  0.16424430  1
  Cr  Cr11  1  0.33583189  0.00167237  0.33412554  1
  Ni  Ni12  1  0.33389130  0.33421785  0.00345756  1
  Ni  Ni13  1  0.49789737  0.49868818  0.16541766  1
  Cr  Cr14  1  0.33284193  0.33226506  0.33095887  1
  Ni  Ni15  1  0.33582711  0.66541547  0.99961626  1
  Fe  Fe16  1  0.50366858  0.83275677  0.16480200  1
  Fe  Fe17  1  0.33528056  0.66746438  0.32962961  1
  Ni  Ni18  1  0.66586117  0.99790259  0.00084784  1
  Cr  Cr19  1  0.82934439  0.16279319  0.16517466  1
  Ni  Ni20  1  0.66541880  0.99832314  0.33276924  1
  Ni  Ni21  1  0.66521776  0.33437903  0.99837720  1
  Cr  Cr22  1  0.82783985  0.50020812  0.16619697  1
  Ni  Ni23  1  0.66452171  0.33316357  0.33447915  1
  Ni  Ni24  1  0.66242231  0.66721079  0.99956091  1
  Ni  Ni25  1  0.83320393  0.83414641  0.16819406  1
  Ni  Ni26  1  0.66655078  0.66737448  0.33111012  1
  Fe  Fe27  1  0.16241416  0.16650765  0.50078947  1
  Ni  Ni28  1  -0.00003308  0.00057308  0.66606662  1
  Cr  Cr29  1  0.16349216  0.16403914  0.83547909  1
  Cr  Cr30  1  0.16561929  0.50421149  0.49927817  1
  Ni  Ni31  1  0.99586780  0.33371031  0.66549187  1
  Cr  Cr32  1  0.16889568  0.50039718  0.83328216  1
  Cr  Cr33  1  0.16658972  0.83179170  0.50222173  1
  Ni  Ni34  1  0.99689611  0.66524932  0.66819652  1
  Ni  Ni35  1  0.16710020  0.83164458  0.83226373  1
  Ni  Ni36  1  0.50457459  0.16750511  0.49801034  1
  Cr  Cr37  1  0.33510199  0.99871464  0.66639845  1
  Cr  Cr38  1  0.50446430  0.16979367  0.83747465  1
  Cr  Cr39  1  0.50282372  0.50044253  0.49977560  1
  Cr  Cr40  1  0.33448511  0.33078998  0.66426910  1
  Ni  Ni41  1  0.50185392  0.50125224  0.83420411  1
  Fe  Fe42  1  0.50292491  0.83156194  0.49943688  1
  Fe  Fe43  1  0.33522406  0.66646883  0.66970999  1
  Ni  Ni44  1  0.49823157  0.82918856  0.83526165  1
  Ni  Ni45  1  0.83044961  0.16699558  0.49932229  1
  Cr  Cr46  1  0.66601380  0.99937179  0.66543330  1
  Ni  Ni47  1  0.83335536  0.16866461  0.83394916  1
  Ni  Ni48  1  0.83199643  0.49891181  0.50084877  1
  Ni  Ni49  1  0.66946958  0.33553668  0.66649605  1
  Fe  Fe50  1  0.83060429  0.49824275  0.83252533  1
  Cr  Cr51  1  0.83510993  0.83217676  0.49584721  1
  Ni  Ni52  1  0.66709355  0.66444831  0.66881306  1
  Cr  Cr53  1  0.83387024  0.83675895  0.83436450  1
" 