955,Ni50Fe26Cr23_19,-231.589123028306, 191.003549318328,Ni50Fe26Cr23,"# generated using pymatgen
 data_Cr13Fe14Ni27
_symmetry_space_group_name_H-M   'P 1'
_cell_length_a   7.44556656
_cell_length_b   7.44556656
_cell_length_c   10.52962121
_cell_angle_alpha   90.00000000
_cell_angle_beta   90.00000000
_cell_angle_gamma   90.00000000
_symmetry_Int_Tables_number   1
_chemical_formula_structural   Cr13Fe14Ni27
_chemical_formula_sum   'Cr13 Fe14 Ni27'
_cell_volume   583.72494062
_cell_formula_units_Z   1
loop_
 _symmetry_equiv_pos_site_id
 _symmetry_equiv_pos_as_xyz
  1  'x, y, z'
loop_
 _atom_site_type_symbol
 _atom_site_label
 _atom_site_symmetry_multiplicity
 _atom_site_fract_x
 _atom_site_fract_y
 _atom_site_fract_z
 _atom_site_occupancy
  Ni  Ni0  1  1.00021456  0.99986197  1.00046750  1
  Cr  Cr1  1  0.16713424  0.16884950  0.16723434  1
  Cr  Cr2  1  0.99821383  0.00298933  0.33742684  1
  Cr  Cr3  1  1.00102633  0.33475646  0.99942903  1
  Fe  Fe4  1  0.16950139  0.50145866  0.16642309  1
  Ni  Ni5  1  0.99891703  0.33323252  0.33608102  1
  Ni  Ni6  1  1.00073784  0.67000772  0.99900163  1
  Cr  Cr7  1  0.16860406  0.83287219  0.16597575  1
  Cr  Cr8  1  0.99835040  0.66886315  0.33439659  1
  Fe  Fe9  1  0.33513307  1.00057055  0.99981619  1
  Ni  Ni10  1  0.50482076  0.16804298  0.16546075  1
  Cr  Cr11  1  0.33813964  0.00190617  0.33648310  1
  Fe  Fe12  1  0.33744029  0.33682167  1.00019518  1
  Ni  Ni13  1  0.50282330  0.50200817  0.16716627  1
  Cr  Cr14  1  0.33793046  0.33406943  0.33360519  1
  Ni  Ni15  1  0.33638366  0.66629358  1.00130788  1
  Ni  Ni16  1  0.50407249  0.83419853  0.16643749  1
  Cr  Cr17  1  0.34011030  0.66821762  0.33522596  1
  Fe  Fe18  1  0.66939276  1.00029296  0.00272084  1
  Ni  Ni19  1  0.83185039  0.16758390  0.16901844  1
  Ni  Ni20  1  0.66762693  1.00119951  0.33419899  1
  Fe  Fe21  1  0.66562678  0.33598500  0.00157026  1
  Cr  Cr22  1  0.83441465  0.50095915  0.16901201  1
  Ni  Ni23  1  0.66807845  0.33409595  0.33483119  1
  Ni  Ni24  1  0.66755280  0.66818849  0.00206766  1
  Ni  Ni25  1  0.83154775  0.83540295  0.16627532  1
  Ni  Ni26  1  0.66723808  0.66865865  0.33536286  1
  Ni  Ni27  1  0.16848538  0.17049043  0.50436004  1
  Cr  Cr28  1  0.00151592  1.00096722  0.66707525  1
  Fe  Fe29  1  0.17010295  0.16525490  0.83391759  1
  Cr  Cr30  1  0.16584196  0.50074587  0.50175366  1
  Ni  Ni31  1  1.00115199  0.33575697  0.66834065  1
  Fe  Fe32  1  0.16903206  0.50265011  0.83331629  1
  Fe  Fe33  1  0.16935118  0.83533012  0.50461367  1
  Ni  Ni34  1  0.99866754  0.66803845  0.67048665  1
  Ni  Ni35  1  0.16833988  0.83200963  0.83446997  1
  Ni  Ni36  1  0.50365536  0.16623807  0.50350777  1
  Ni  Ni37  1  0.33553182  0.00294054  0.66790437  1
  Ni  Ni38  1  0.50022958  0.16997654  0.83517463  1
  Fe  Fe39  1  0.50495206  0.49913479  0.50259401  1
  Ni  Ni40  1  0.33699515  0.33260181  0.67020409  1
  Fe  Fe41  1  0.50271904  0.50179923  0.83534032  1
  Ni  Ni42  1  0.50270775  0.83466094  0.50363533  1
  Fe  Fe43  1  0.33468366  0.66702659  0.66837842  1
  Cr  Cr44  1  0.50243943  0.83622660  0.83439933  1
  Ni  Ni45  1  0.83249284  0.17275179  0.50059611  1
  Fe  Fe46  1  0.66749567  0.00247651  0.66660921  1
  Cr  Cr47  1  0.83099046  0.16864237  0.83381012  1
  Ni  Ni48  1  0.83388973  0.50039593  0.50297588  1
  Ni  Ni49  1  0.66630818  0.33685406  0.66835852  1
  Fe  Fe50  1  0.83283738  0.50429426  0.83303082  1
  Fe  Fe51  1  0.83041359  0.83429037  0.50264865  1
  Ni  Ni52  1  0.66858534  0.66679080  0.66732372  1
  Ni  Ni53  1  0.83559897  0.83216545  0.83588068  1
" 