3775,Ni50Fe44Cr5_4,-238.247049314642, 216.253138209339,Ni50Fe44Cr5,"# generated using pymatgen
 data_Cr4Fe23Ni27
_symmetry_space_group_name_H-M   'P 1'
_cell_length_a   7.41075660
_cell_length_b   7.41075660
_cell_length_c   10.48039249
_cell_angle_alpha   90.00000000
_cell_angle_beta   90.00000000
_cell_angle_gamma   90.00000000
_symmetry_Int_Tables_number   1
_chemical_formula_structural   Cr4Fe23Ni27
_chemical_formula_sum   'Cr4 Fe23 Ni27'
_cell_volume   575.57595905
_cell_formula_units_Z   1
loop_
 _symmetry_equiv_pos_site_id
 _symmetry_equiv_pos_as_xyz
  1  'x, y, z'
loop_
 _atom_site_type_symbol
 _atom_site_label
 _atom_site_symmetry_multiplicity
 _atom_site_fract_x
 _atom_site_fract_y
 _atom_site_fract_z
 _atom_site_occupancy
  Fe  Fe0  1  0.00594743  0.00519907  1.00329645  1
  Fe  Fe1  1  0.16938293  0.17038913  0.16937124  1
  Ni  Ni2  1  1.00343736  0.00447572  0.33570090  1
  Fe  Fe3  1  1.00355259  0.33692304  0.00448137  1
  Fe  Fe4  1  0.16909058  0.50321337  0.16948760  1
  Ni  Ni5  1  1.00264770  0.33789557  0.33816618  1
  Fe  Fe6  1  1.00370455  0.66997625  1.00367717  1
  Fe  Fe7  1  0.16986365  0.83785933  0.17003716  1
  Ni  Ni8  1  1.00361811  0.66944749  0.33695301  1
  Ni  Ni9  1  0.33680055  0.00390010  1.00375998  1
  Ni  Ni10  1  0.50359854  0.16917870  0.16984514  1
  Ni  Ni11  1  0.33806517  1.00355115  0.33743417  1
  Ni  Ni12  1  0.33812760  0.33724750  1.00357416  1
  Fe  Fe13  1  0.50568547  0.50332601  0.16923652  1
  Cr  Cr14  1  0.33788211  0.33753925  0.33613198  1
  Ni  Ni15  1  0.33614474  0.66909623  0.00407910  1
  Fe  Fe16  1  0.50421273  0.83727509  0.17007422  1
  Fe  Fe17  1  0.33588437  0.67300983  0.33705096  1
  Cr  Cr18  1  0.67200355  0.00457898  1.00072321  1
  Ni  Ni19  1  0.83685790  0.17229011  0.17225850  1
  Ni  Ni20  1  0.66991468  0.00421250  0.33769100  1
  Ni  Ni21  1  0.67046851  0.33794263  0.00427851  1
  Ni  Ni22  1  0.83740548  0.50427469  0.17195743  1
  Fe  Fe23  1  0.67229843  0.33575984  0.33666814  1
  Fe  Fe24  1  0.66849388  0.66835884  1.00241763  1
  Fe  Fe25  1  0.83673217  0.83757764  0.17226402  1
  Fe  Fe26  1  0.66991316  0.66965758  0.33727597  1
  Fe  Fe27  1  0.17025799  0.17118316  0.50400598  1
  Cr  Cr28  1  1.00361099  0.00475118  0.67209258  1
  Ni  Ni29  1  0.17219547  0.16963179  0.83908731  1
  Fe  Fe30  1  0.16956105  0.50357950  0.50481523  1
  Fe  Fe31  1  0.00474284  0.33925481  0.67013579  1
  Fe  Fe32  1  0.17147877  0.50278113  0.83720594  1
  Fe  Fe33  1  0.17248139  0.83654177  0.50358074  1
  Ni  Ni34  1  1.00377893  0.66828681  0.67187308  1
  Ni  Ni35  1  0.17258829  0.83572828  0.83788286  1
  Ni  Ni36  1  0.50339535  0.17035473  0.50502310  1
  Ni  Ni37  1  0.33780951  0.00472604  0.67031235  1
  Ni  Ni38  1  0.50234649  0.17004628  0.83617890  1
  Ni  Ni39  1  0.50423026  0.50408466  0.50390301  1
  Ni  Ni40  1  0.33794728  0.33704370  0.67147389  1
  Fe  Fe41  1  0.50317259  0.50287899  0.83680416  1
  Fe  Fe42  1  0.50421633  0.83708203  0.50503055  1
  Ni  Ni43  1  0.33734234  0.66900208  0.66909318  1
  Ni  Ni44  1  0.49981897  0.83608678  0.83514636  1
  Ni  Ni45  1  0.83592620  0.17313919  0.50240589  1
  Fe  Fe46  1  0.66762665  0.00408777  0.67128051  1
  Ni  Ni47  1  0.83733987  0.17501377  0.83644982  1
  Ni  Ni48  1  0.83714757  0.50265104  0.50329903  1
  Fe  Fe49  1  0.67005636  0.33794536  0.67059902  1
  Ni  Ni50  1  0.83783681  0.50397871  0.83713042  1
  Cr  Cr51  1  0.83875791  0.83582621  0.50367751  1
  Ni  Ni52  1  0.67055070  0.66863767  0.67247444  1
  Fe  Fe53  1  0.83713717  0.83660891  0.83623462  1
" 