3250,Ni50Fe43Cr5_1,-238.715324039697, 218.1514531425,Ni50Fe43Cr5,"# generated using pymatgen
 data_Cr4Fe23Ni27
_symmetry_space_group_name_H-M   'P 1'
_cell_length_a   7.41224422
_cell_length_b   7.41224422
_cell_length_c   10.48249631
_cell_angle_alpha   90.00000000
_cell_angle_beta   90.00000000
_cell_angle_gamma   90.00000000
_symmetry_Int_Tables_number   1
_chemical_formula_structural   Cr4Fe23Ni27
_chemical_formula_sum   'Cr4 Fe23 Ni27'
_cell_volume   575.92264995
_cell_formula_units_Z   1
loop_
 _symmetry_equiv_pos_site_id
 _symmetry_equiv_pos_as_xyz
  1  'x, y, z'
loop_
 _atom_site_type_symbol
 _atom_site_label
 _atom_site_symmetry_multiplicity
 _atom_site_fract_x
 _atom_site_fract_y
 _atom_site_fract_z
 _atom_site_occupancy
  Ni  Ni0  1  1.00353238  0.00411698  1.00239422  1
  Fe  Fe1  1  0.16959164  0.17074803  0.16989186  1
  Cr  Cr2  1  0.00443772  0.00501388  0.33773553  1
  Fe  Fe3  1  0.00413877  0.33731625  1.00285670  1
  Fe  Fe4  1  0.17060816  0.50439891  0.16956106  1
  Fe  Fe5  1  1.00338381  0.33817615  0.33776238  1
  Ni  Ni6  1  0.00563109  0.67071879  1.00276659  1
  Ni  Ni7  1  0.17156963  0.83556766  0.17028593  1
  Ni  Ni8  1  0.00678170  0.66723689  0.33677824  1
  Fe  Fe9  1  0.33518281  1.00198292  1.00299861  1
  Cr  Cr10  1  0.50369604  0.17090017  0.17099703  1
  Ni  Ni11  1  0.33862231  1.00161453  0.33727741  1
  Ni  Ni12  1  0.33741245  0.33877910  1.00246646  1
  Ni  Ni13  1  0.50306662  0.50442400  0.16996774  1
  Fe  Fe14  1  0.33702576  0.33748678  0.33771309  1
  Ni  Ni15  1  0.33647041  0.66975134  0.00428793  1
  Fe  Fe16  1  0.50182304  0.83553549  0.17045277  1
  Ni  Ni17  1  0.33636322  0.67092711  0.33624668  1
  Fe  Fe18  1  0.67042481  1.00368540  1.00166248  1
  Ni  Ni19  1  0.83740214  0.17205102  0.17100544  1
  Ni  Ni20  1  0.66770874  0.00677453  0.33745259  1
  Fe  Fe21  1  0.67140976  0.33811281  1.00291954  1
  Fe  Fe22  1  0.83710738  0.50222908  0.17076946  1
  Ni  Ni23  1  0.67140313  0.33652027  0.33785591  1
  Fe  Fe24  1  0.66926999  0.66929566  1.00285065  1
  Cr  Cr25  1  0.83793541  0.83644061  0.16894307  1
  Fe  Fe26  1  0.66828274  0.66873796  0.33715615  1
  Ni  Ni27  1  0.17263707  0.17072958  0.50423790  1
  Fe  Fe28  1  0.00431798  0.00476240  0.67164160  1
  Fe  Fe29  1  0.17017125  0.17065929  0.83687418  1
  Fe  Fe30  1  0.17033074  0.50364576  0.50443448  1
  Ni  Ni31  1  1.00216561  0.33743458  0.67029168  1
  Ni  Ni32  1  0.16945975  0.50519360  0.83676658  1
  Fe  Fe33  1  0.17335560  0.83548784  0.50403288  1
  Ni  Ni34  1  0.00618502  0.66914520  0.67154378  1
  Ni  Ni35  1  0.17022727  0.83583948  0.83658188  1
  Ni  Ni36  1  0.50257905  0.17098044  0.50315905  1
  Fe  Fe37  1  0.33720512  0.00390897  0.66993934  1
  Ni  Ni38  1  0.50434766  0.16988978  0.83682549  1
  Ni  Ni39  1  0.50411073  0.50241752  0.50426886  1
  Fe  Fe40  1  0.33719305  0.33713036  0.67055500  1
  Fe  Fe41  1  0.50311618  0.50366745  0.83731358  1
  Fe  Fe42  1  0.50195118  0.83743041  0.50386856  1
  Ni  Ni43  1  0.33581474  0.67058210  0.67055789  1
  Ni  Ni44  1  0.50289369  0.83801987  0.83761839  1
  Fe  Fe45  1  0.83502212  0.17379902  0.50458248  1
  Ni  Ni46  1  0.66960612  0.00657908  0.67103932  1
  Ni  Ni47  1  0.83595070  0.17065981  0.83638038  1
  Ni  Ni48  1  0.83686662  0.50336353  0.50235012  1
  Ni  Ni49  1  0.67104087  0.33512839  0.67072100  1
  Ni  Ni50  1  0.83813593  0.50374433  0.83748127  1
  Cr  Cr51  1  0.83713654  0.83506589  0.50533235  1
  Fe  Fe52  1  0.67011450  0.66866234  0.67108585  1
  Fe  Fe53  1  0.83741123  0.83715867  0.83708854  1
" 