5455,Ni50Fe27Cr21_8,-232.129501430044, 191.275518965317,Ni50Fe27Cr21,"# generated using pymatgen
 data_Cr13Fe14Ni27
_symmetry_space_group_name_H-M   'P 1'
_cell_length_a   7.45270747
_cell_length_b   7.45270747
_cell_length_c   10.53971999
_cell_angle_alpha   90.00000000
_cell_angle_beta   90.00000000
_cell_angle_gamma   90.00000000
_symmetry_Int_Tables_number   1
_chemical_formula_structural   Cr13Fe14Ni27
_chemical_formula_sum   'Cr13 Fe14 Ni27'
_cell_volume   585.40607245
_cell_formula_units_Z   1
loop_
 _symmetry_equiv_pos_site_id
 _symmetry_equiv_pos_as_xyz
  1  'x, y, z'
loop_
 _atom_site_type_symbol
 _atom_site_label
 _atom_site_symmetry_multiplicity
 _atom_site_fract_x
 _atom_site_fract_y
 _atom_site_fract_z
 _atom_site_occupancy
  Ni  Ni0  1  1.00077439  0.00184591  1.00041269  1
  Ni  Ni1  1  0.16707200  0.16873911  0.16823075  1
  Ni  Ni2  1  0.99761261  0.00492381  0.33450177  1
  Fe  Fe3  1  0.00112941  0.33369825  0.99901153  1
  Ni  Ni4  1  0.16796635  0.49948851  0.16729495  1
  Fe  Fe5  1  0.00285683  0.33452784  0.33523100  1
  Ni  Ni6  1  0.99870437  0.66743904  0.99921777  1
  Cr  Cr7  1  0.16479478  0.83318063  0.16454944  1
  Cr  Cr8  1  1.00014573  0.66792005  0.33670164  1
  Ni  Ni9  1  0.33327886  0.00326787  1.00013068  1
  Ni  Ni10  1  0.50181356  0.16862342  0.16894702  1
  Cr  Cr11  1  0.33234939  0.00306932  0.33309758  1
  Cr  Cr12  1  0.33416534  0.33617647  0.00278594  1
  Ni  Ni13  1  0.50214678  0.50023353  0.16834670  1
  Fe  Fe14  1  0.33277595  0.33679433  0.33301371  1
  Fe  Fe15  1  0.33501209  0.66830676  1.00009091  1
  Fe  Fe16  1  0.50040692  0.83143057  0.16717265  1
  Ni  Ni17  1  0.33710236  0.66202205  0.33208273  1
  Cr  Cr18  1  0.66890350  0.99896026  0.00330645  1
  Fe  Fe19  1  0.83636496  0.16837996  0.16900846  1
  Fe  Fe20  1  0.66973766  0.99922387  0.33309522  1
  Fe  Fe21  1  0.66816997  0.33538998  1.00046063  1
  Cr  Cr22  1  0.83561631  0.50257903  0.16553659  1
  Fe  Fe23  1  0.66756143  0.33487740  0.33368298  1
  Ni  Ni24  1  0.66785485  0.66663302  1.00073205  1
  Ni  Ni25  1  0.83326396  0.83467696  0.16898942  1
  Ni  Ni26  1  0.66680106  0.66610862  0.33407719  1
  Ni  Ni27  1  0.16549931  0.17059321  0.50009770  1
  Cr  Cr28  1  1.00087887  0.00162130  0.66823218  1
  Ni  Ni29  1  0.16615995  0.16731574  0.83440355  1
  Ni  Ni30  1  0.16728777  0.49987716  0.50016412  1
  Ni  Ni31  1  1.00082024  0.33588428  0.66737345  1
  Ni  Ni32  1  0.16521797  0.50173364  0.83507893  1
  Cr  Cr33  1  0.16782366  0.83282119  0.50459765  1
  Ni  Ni34  1  0.99907042  0.66413523  0.66767209  1
  Fe  Fe35  1  0.16802013  0.83197192  0.83516462  1
  Cr  Cr36  1  0.50148725  0.16938114  0.50225031  1
  Ni  Ni37  1  0.33306247  1.00073129  0.67032189  1
  Cr  Cr38  1  0.50066036  0.16793362  0.83214977  1
  Fe  Fe39  1  0.50161781  0.50207156  0.50024951  1
  Cr  Cr40  1  0.33107805  0.33635188  0.66608007  1
  Ni  Ni41  1  0.50360809  0.50397893  0.83377000  1
  Cr  Cr42  1  0.50127238  0.83247892  0.50117581  1
  Ni  Ni43  1  0.33513923  0.66480953  0.67035292  1
  Ni  Ni44  1  0.50079652  0.83209967  0.83496494  1
  Ni  Ni45  1  0.83516292  0.16968324  0.49924011  1
  Cr  Cr46  1  0.67036537  0.99794734  0.66807119  1
  Fe  Fe47  1  0.83606971  0.17041418  0.83467596  1
  Fe  Fe48  1  0.83390131  0.50008140  0.50264336  1
  Fe  Fe49  1  0.67071055  0.33745527  0.66778960  1
  Ni  Ni50  1  0.83475647  0.50247567  0.83355517  1
  Ni  Ni51  1  0.83328130  0.83327301  0.49964949  1
  Ni  Ni52  1  0.66886009  0.66577838  0.66757079  1
  Ni  Ni53  1  0.83496245  0.83053684  0.83494846  1
" 