5205,Ni50Fe47Cr2_17,-240.018037432531, 220.065026649751,Ni50Fe47Cr2,"# generated using pymatgen
 data_Cr2Fe25Ni27
_symmetry_space_group_name_H-M   'P 1'
_cell_length_a   7.41075980
_cell_length_b   7.41075980
_cell_length_c   10.48039702
_cell_angle_alpha   90.00000000
_cell_angle_beta   90.00000000
_cell_angle_gamma   90.00000000
_symmetry_Int_Tables_number   1
_chemical_formula_structural   Cr2Fe25Ni27
_chemical_formula_sum   'Cr2 Fe25 Ni27'
_cell_volume   575.57670501
_cell_formula_units_Z   1
loop_
 _symmetry_equiv_pos_site_id
 _symmetry_equiv_pos_as_xyz
  1  'x, y, z'
loop_
 _atom_site_type_symbol
 _atom_site_label
 _atom_site_symmetry_multiplicity
 _atom_site_fract_x
 _atom_site_fract_y
 _atom_site_fract_z
 _atom_site_occupancy
  Ni  Ni0  1  1.00363512  0.00442466  0.00458608  1
  Ni  Ni1  1  0.17164714  0.16908019  0.16857849  1
  Fe  Fe2  1  0.00523217  1.00373650  0.33540017  1
  Ni  Ni3  1  1.00285358  0.33746160  0.00388117  1
  Fe  Fe4  1  0.17086876  0.50496475  0.16978692  1
  Cr  Cr5  1  0.00382280  0.33791946  0.33835061  1
  Fe  Fe6  1  1.00370491  0.67140501  0.00392454  1
  Ni  Ni7  1  0.16883627  0.83860712  0.17029339  1
  Fe  Fe8  1  0.00459955  0.67146760  0.33696519  1
  Ni  Ni9  1  0.33714009  1.00228130  0.00393380  1
  Fe  Fe10  1  0.50371513  0.16928318  0.17122841  1
  Ni  Ni11  1  0.33780785  1.00295176  0.33773733  1
  Fe  Fe12  1  0.33711393  0.33626800  1.00375556  1
  Fe  Fe13  1  0.50333438  0.50386394  0.17027969  1
  Ni  Ni14  1  0.33812471  0.33712676  0.33670677  1
  Ni  Ni15  1  0.33652692  0.67115959  1.00379658  1
  Fe  Fe16  1  0.50313582  0.83824072  0.17059795  1
  Fe  Fe17  1  0.33770886  0.67044710  0.33754231  1
  Ni  Ni18  1  0.67061638  0.00417164  0.00424026  1
  Fe  Fe19  1  0.83681729  0.16876021  0.16900672  1
  Ni  Ni20  1  0.66897288  0.00440495  0.33624637  1
  Ni  Ni21  1  0.67225967  0.33684594  0.00418944  1
  Fe  Fe22  1  0.83719115  0.50439202  0.16995756  1
  Ni  Ni23  1  0.66982185  0.33684452  0.33834080  1
  Fe  Fe24  1  0.67048141  0.67079666  1.00333006  1
  Ni  Ni25  1  0.83779295  0.83719258  0.16950370  1
  Fe  Fe26  1  0.66908109  0.66935504  0.33710992  1
  Ni  Ni27  1  0.17240288  0.16964250  0.50503351  1
  Fe  Fe28  1  0.00547854  1.00363737  0.67145813  1
  Fe  Fe29  1  0.17101711  0.17084039  0.83749144  1
  Ni  Ni30  1  0.17158555  0.50379086  0.50493831  1
  Fe  Fe31  1  0.00441729  0.33776633  0.67019060  1
  Fe  Fe32  1  0.17106254  0.50401321  0.83652487  1
  Ni  Ni33  1  0.17150081  0.83796113  0.50374435  1
  Ni  Ni34  1  0.00463439  0.66845746  0.67096298  1
  Fe  Fe35  1  0.17133837  0.83653559  0.83723833  1
  Ni  Ni36  1  0.50284344  0.17142558  0.50398086  1
  Ni  Ni37  1  0.33791122  1.00338366  0.66972289  1
  Fe  Fe38  1  0.50399307  0.17046643  0.83674265  1
  Ni  Ni39  1  0.50426508  0.50261460  0.50388822  1
  Ni  Ni40  1  0.33625030  0.33751457  0.66997102  1
  Ni  Ni41  1  0.50423265  0.50344422  0.83715146  1
  Ni  Ni42  1  0.50257532  0.83735159  0.50414684  1
  Ni  Ni43  1  0.33650611  0.67049452  0.66881419  1
  Fe  Fe44  1  0.50366602  0.83690818  0.83649018  1
  Fe  Fe45  1  0.83563008  0.17150959  0.50437650  1
  Ni  Ni46  1  0.66916655  0.00408240  0.67090188  1
  Fe  Fe47  1  0.83638395  0.17074668  0.83802807  1
  Ni  Ni48  1  0.83553794  0.50351336  0.50525217  1
  Fe  Fe49  1  0.66924254  0.33815734  0.67017932  1
  Fe  Fe50  1  0.83676345  0.50368669  0.83670919  1
  Cr  Cr51  1  0.83718555  0.83660232  0.50377289  1
  Ni  Ni52  1  0.67025546  0.67011790  0.67090780  1
  Fe  Fe53  1  0.83638736  0.83695896  0.83718781  1
" 