1421,Ni50Fe43Cr5_13,-238.350715598025, 214.374273089794,Ni50Fe43Cr5,"# generated using pymatgen
 data_Cr4Fe23Ni27
_symmetry_space_group_name_H-M   'P 1'
_cell_length_a   7.41334272
_cell_length_b   7.41334272
_cell_length_c   10.48404981
_cell_angle_alpha   90.00000000
_cell_angle_beta   90.00000000
_cell_angle_gamma   90.00000000
_symmetry_Int_Tables_number   1
_chemical_formula_structural   Cr4Fe23Ni27
_chemical_formula_sum   'Cr4 Fe23 Ni27'
_cell_volume   576.17874299
_cell_formula_units_Z   1
loop_
 _symmetry_equiv_pos_site_id
 _symmetry_equiv_pos_as_xyz
  1  'x, y, z'
loop_
 _atom_site_type_symbol
 _atom_site_label
 _atom_site_symmetry_multiplicity
 _atom_site_fract_x
 _atom_site_fract_y
 _atom_site_fract_z
 _atom_site_occupancy
  Ni  Ni0  1  0.00438937  0.00379179  0.00423683  1
  Ni  Ni1  1  0.16914646  0.16958297  0.17041788  1
  Ni  Ni2  1  0.00399437  0.00468178  0.33639741  1
  Cr  Cr3  1  1.00291135  0.33538705  0.00516001  1
  Ni  Ni4  1  0.17059586  0.50467279  0.17150117  1
  Ni  Ni5  1  0.00363619  0.33640642  0.33709610  1
  Fe  Fe6  1  0.00515368  0.67260248  0.00437982  1
  Ni  Ni7  1  0.16977994  0.83661152  0.16843946  1
  Ni  Ni8  1  1.00345029  0.66977805  0.33681291  1
  Ni  Ni9  1  0.33524634  1.00077087  0.00391931  1
  Cr  Cr10  1  0.50425268  0.17001876  0.16956062  1
  Fe  Fe11  1  0.33464269  1.00221392  0.33729387  1
  Fe  Fe12  1  0.33718679  0.33817307  0.00386153  1
  Ni  Ni13  1  0.50260478  0.50384946  0.16953696  1
  Fe  Fe14  1  0.33483939  0.33813874  0.33737967  1
  Ni  Ni15  1  0.33748075  0.67110876  0.00391396  1
  Ni  Ni16  1  0.50258941  0.83660211  0.17029469  1
  Fe  Fe17  1  0.33588605  0.67051454  0.33636885  1
  Ni  Ni18  1  0.67123403  1.00318336  0.00367171  1
  Ni  Ni19  1  0.83767277  0.16959894  0.16962817  1
  Fe  Fe20  1  0.67253487  1.00269145  0.33714603  1
  Ni  Ni21  1  0.67062333  0.33759448  0.00362625  1
  Ni  Ni22  1  0.83766460  0.50321189  0.17131917  1
  Fe  Fe23  1  0.67284493  0.33816660  0.33733285  1
  Cr  Cr24  1  0.66817694  0.67006731  0.00506105  1
  Ni  Ni25  1  0.83849674  0.83805702  0.17141412  1
  Fe  Fe26  1  0.67131685  0.67000636  0.33724571  1
  Fe  Fe27  1  0.16961903  0.17024229  0.50335831  1
  Ni  Ni28  1  0.00416739  0.00536965  0.67022773  1
  Fe  Fe29  1  0.16919344  0.16869663  0.83642815  1
  Fe  Fe30  1  0.16975872  0.50378289  0.50359753  1
  Ni  Ni31  1  0.00385851  0.33565800  0.66946014  1
  Ni  Ni32  1  0.17048416  0.50444630  0.83579097  1
  Ni  Ni33  1  0.17081338  0.83718405  0.50468377  1
  Fe  Fe34  1  1.00315153  0.67013521  0.67000608  1
  Fe  Fe35  1  0.17044506  0.83711701  0.83730795  1
  Fe  Fe36  1  0.50399798  0.17035096  0.50374823  1
  Fe  Fe37  1  0.33604932  1.00228558  0.66964240  1
  Cr  Cr38  1  0.50450873  0.16951235  0.83781052  1
  Ni  Ni39  1  0.50404999  0.50349298  0.50471779  1
  Fe  Fe40  1  0.33567869  0.33813623  0.66962414  1
  Fe  Fe41  1  0.50304558  0.50536507  0.83634077  1
  Ni  Ni42  1  0.50250473  0.83715012  0.50421619  1
  Fe  Fe43  1  0.33681545  0.67044664  0.67057339  1
  Ni  Ni44  1  0.50345529  0.83734178  0.83635905  1
  Ni  Ni45  1  0.83710702  0.17129780  0.50439718  1
  Fe  Fe46  1  0.67186952  1.00242837  0.67007049  1
  Fe  Fe47  1  0.83788343  0.16889305  0.83633897  1
  Ni  Ni48  1  0.83707558  0.50209767  0.50440161  1
  Fe  Fe49  1  0.67217792  0.33793059  0.66926732  1
  Fe  Fe50  1  0.83653229  0.50411008  0.83497850  1
  Fe  Fe51  1  0.83687655  0.83649880  0.50381633  1
  Ni  Ni52  1  0.66838815  0.67009356  0.66986270  1
  Ni  Ni53  1  0.83773870  0.83805138  0.83555530  1
" 