645,Ni50Fe33Cr15_4,-235.09892773834, 204.187191150427,Ni50Fe33Cr15,"# generated using pymatgen
 data_CrFe2Ni3
_symmetry_space_group_name_H-M   'P 1'
_cell_length_a   7.43942732
_cell_length_b   7.43942732
_cell_length_c   10.52093901
_cell_angle_alpha   90.00000000
_cell_angle_beta   90.00000000
_cell_angle_gamma   90.00000000
_symmetry_Int_Tables_number   1
_chemical_formula_structural   CrFe2Ni3
_chemical_formula_sum   'Cr9 Fe18 Ni27'
_cell_volume   582.28219915
_cell_formula_units_Z   9
loop_
 _symmetry_equiv_pos_site_id
 _symmetry_equiv_pos_as_xyz
  1  'x, y, z'
loop_
 _atom_site_type_symbol
 _atom_site_label
 _atom_site_symmetry_multiplicity
 _atom_site_fract_x
 _atom_site_fract_y
 _atom_site_fract_z
 _atom_site_occupancy
  Fe  Fe0  1  0.00415868  1.00125009  0.99998012  1
  Ni  Ni1  1  0.17039828  0.16866210  0.16832575  1
  Fe  Fe2  1  0.00669829  1.00097219  0.33477957  1
  Fe  Fe3  1  1.00168634  0.33597914  0.00393302  1
  Ni  Ni4  1  0.16886768  0.50224538  0.16817878  1
  Ni  Ni5  1  0.00495410  0.33813680  0.33531158  1
  Ni  Ni6  1  0.00478283  0.66908964  0.00270954  1
  Ni  Ni7  1  0.17037042  0.83442162  0.16853528  1
  Ni  Ni8  1  0.00574982  0.66639938  0.33553418  1
  Fe  Fe9  1  0.33627146  1.00007308  0.00222372  1
  Ni  Ni10  1  0.50052551  0.16795722  0.16928137  1
  Fe  Fe11  1  0.33350045  0.00206351  0.33391488  1
  Fe  Fe12  1  0.33632575  0.33435736  0.00414755  1
  Ni  Ni13  1  0.50054768  0.50245409  0.16674016  1
  Ni  Ni14  1  0.33336223  0.33588352  0.33424963  1
  Ni  Ni15  1  0.33446241  0.66966664  0.00379087  1
  Ni  Ni16  1  0.50065848  0.83532302  0.16971754  1
  Ni  Ni17  1  0.33271824  0.66818670  0.33348582  1
  Ni  Ni18  1  0.66666042  0.00340987  0.99916634  1
  Cr  Cr19  1  0.83518837  0.16875839  0.16984305  1
  Ni  Ni20  1  0.66484272  0.00252469  0.33507502  1
  Ni  Ni21  1  0.66716954  0.33369187  0.00319178  1
  Ni  Ni22  1  0.83587803  0.50259534  0.16991376  1
  Fe  Fe23  1  0.66625682  0.33811906  0.33373178  1
  Ni  Ni24  1  0.66634647  0.66880254  1.00113063  1
  Cr  Cr25  1  0.83528584  0.83408286  0.16687031  1
  Fe  Fe26  1  0.66760461  0.66661024  0.33305451  1
  Fe  Fe27  1  0.16922386  0.17022438  0.50139274  1
  Ni  Ni28  1  0.00412257  0.00212857  0.66999317  1
  Ni  Ni29  1  0.16923317  0.16685246  0.83479477  1
  Ni  Ni30  1  0.16786756  0.50277851  0.50299448  1
  Fe  Fe31  1  0.00378421  0.33369711  0.66703024  1
  Cr  Cr32  1  0.17053955  0.50149149  0.83578195  1
  Fe  Fe33  1  0.17046228  0.83432176  0.50219893  1
  Fe  Fe34  1  0.00301710  0.67024791  0.66786760  1
  Ni  Ni35  1  0.17035718  0.83603217  0.83477016  1
  Ni  Ni36  1  0.49831514  0.16618554  0.49935245  1
  Fe  Fe37  1  0.33423482  1.00163040  0.66917889  1
  Ni  Ni38  1  0.49998938  0.16740057  0.83721913  1
  Cr  Cr39  1  0.49976356  0.50209187  0.50223674  1
  Fe  Fe40  1  0.33359749  0.33166019  0.66759224  1
  Fe  Fe41  1  0.49989534  0.50147100  0.83721427  1
  Fe  Fe42  1  0.49935522  0.83492021  0.50074358  1
  Ni  Ni43  1  0.33349433  0.66896368  0.66891444  1
  Ni  Ni44  1  0.50028627  0.83428825  0.83492287  1
  Cr  Cr45  1  0.83532011  0.16954394  0.49732003  1
  Cr  Cr46  1  0.66862474  0.00279382  0.67173124  1
  Ni  Ni47  1  0.83689820  0.16878319  0.83743605  1
  Ni  Ni48  1  0.83798634  0.50339593  0.50059930  1
  Cr  Cr49  1  0.66761094  0.33372586  0.66873199  1
  Cr  Cr50  1  0.83527715  0.50298026  0.83529794  1
  Cr  Cr51  1  0.83514992  0.83359222  0.50045064  1
  Fe  Fe52  1  0.66723902  0.66965921  0.66991220  1
  Fe  Fe53  1  0.83732574  0.83766579  0.83774805  1
" 