5145,Ni50Fe43Cr5_0,-238.260741736295, 218.145919312489,Ni50Fe43Cr5,"# generated using pymatgen
 data_Cr4Fe23Ni27
_symmetry_space_group_name_H-M   'P 1'
_cell_length_a   7.41153215
_cell_length_b   7.41153215
_cell_length_c   10.48148929
_cell_angle_alpha   90.00000000
_cell_angle_beta   90.00000000
_cell_angle_gamma   90.00000000
_symmetry_Int_Tables_number   1
_chemical_formula_structural   Cr4Fe23Ni27
_chemical_formula_sum   'Cr4 Fe23 Ni27'
_cell_volume   575.75668407
_cell_formula_units_Z   1
loop_
 _symmetry_equiv_pos_site_id
 _symmetry_equiv_pos_as_xyz
  1  'x, y, z'
loop_
 _atom_site_type_symbol
 _atom_site_label
 _atom_site_symmetry_multiplicity
 _atom_site_fract_x
 _atom_site_fract_y
 _atom_site_fract_z
 _atom_site_occupancy
  Ni  Ni0  1  0.00476223  0.00430136  1.00286178  1
  Ni  Ni1  1  0.17146926  0.17059391  0.17090457  1
  Ni  Ni2  1  0.00457979  1.00366435  0.33775879  1
  Fe  Fe3  1  1.00226608  0.33607634  0.00475940  1
  Ni  Ni4  1  0.16835284  0.50260873  0.17020698  1
  Fe  Fe5  1  0.00507558  0.33748680  0.33687045  1
  Fe  Fe6  1  1.00265120  0.67152627  0.00446307  1
  Fe  Fe7  1  0.16956430  0.83824290  0.16960178  1
  Ni  Ni8  1  1.00214812  0.67039997  0.33711106  1
  Ni  Ni9  1  0.33577187  1.00361579  1.00351935  1
  Ni  Ni10  1  0.50270830  0.16798101  0.16967789  1
  Ni  Ni11  1  0.33600498  0.00556214  0.33697808  1
  Fe  Fe12  1  0.33866467  0.33600328  0.00468118  1
  Fe  Fe13  1  0.50362532  0.50311813  0.16797631  1
  Fe  Fe14  1  0.33516544  0.33516814  0.33710319  1
  Ni  Ni15  1  0.33809850  0.67102605  1.00296334  1
  Fe  Fe16  1  0.50432563  0.83797534  0.16957389  1
  Cr  Cr17  1  0.33674651  0.67038041  0.33845363  1
  Ni  Ni18  1  0.67070608  0.00458519  1.00334556  1
  Fe  Fe19  1  0.83808845  0.16991649  0.16899042  1
  Ni  Ni20  1  0.67065969  1.00286897  0.33739791  1
  Ni  Ni21  1  0.67073055  0.33826325  1.00219924  1
  Ni  Ni22  1  0.83859556  0.50488482  0.16953530  1
  Cr  Cr23  1  0.67020855  0.33819272  0.33752324  1
  Ni  Ni24  1  0.67005313  0.66838561  0.00408853  1
  Fe  Fe25  1  0.83734499  0.83730045  0.17084690  1
  Ni  Ni26  1  0.67259699  0.67070333  0.33692041  1
  Fe  Fe27  1  0.17096350  0.17011776  0.50334628  1
  Fe  Fe28  1  0.00468938  1.00357208  0.67077466  1
  Fe  Fe29  1  0.17077723  0.16854222  0.83738937  1
  Ni  Ni30  1  0.16832636  0.50357618  0.50416798  1
  Fe  Fe31  1  1.00317934  0.33690041  0.66960838  1
  Cr  Cr32  1  0.16996584  0.50508740  0.83721927  1
  Ni  Ni33  1  0.17097502  0.83725443  0.50430099  1
  Ni  Ni34  1  0.00398333  0.67079486  0.66983956  1
  Ni  Ni35  1  0.17188209  0.83849876  0.83707026  1
  Fe  Fe36  1  0.50212377  0.16937316  0.50403003  1
  Ni  Ni37  1  0.33598877  0.00489593  0.67073820  1
  Fe  Fe38  1  0.50384760  0.17051138  0.83750743  1
  Fe  Fe39  1  0.50256098  0.50373817  0.50505658  1
  Ni  Ni40  1  0.33787988  0.33551257  0.66943492  1
  Ni  Ni41  1  0.50509673  0.50368685  0.83796828  1
  Ni  Ni42  1  0.50329751  0.83990699  0.50294086  1
  Fe  Fe43  1  0.33589732  0.67155904  0.67000276  1
  Ni  Ni44  1  0.50217605  0.83856334  0.83824783  1
  Fe  Fe45  1  0.83814735  0.16918425  0.50464830  1
  Fe  Fe46  1  0.66973744  0.00519739  0.67047094  1
  Ni  Ni47  1  0.83610200  0.17090102  0.83749715  1
  Ni  Ni48  1  0.83959482  0.50335081  0.50366149  1
  Fe  Fe49  1  0.67054243  0.33598593  0.67115574  1
  Ni  Ni50  1  0.83616750  0.50163706  0.83803613  1
  Fe  Fe51  1  0.83841779  0.83667578  0.50217147  1
  Cr  Cr52  1  0.67134462  0.66914078  0.67042601  1
  Fe  Fe53  1  0.83761198  0.83724491  0.83821811  1
" 