7366,Ni50Fe26Cr23_3,-231.623659370481, 190.548747692849,Ni50Fe26Cr23,"# generated using pymatgen
 data_Cr13Fe14Ni27
_symmetry_space_group_name_H-M   'P 1'
_cell_length_a   7.44682439
_cell_length_b   7.44682439
_cell_length_c   10.53140005
_cell_angle_alpha   90.00000000
_cell_angle_beta   90.00000000
_cell_angle_gamma   90.00000000
_symmetry_Int_Tables_number   1
_chemical_formula_structural   Cr13Fe14Ni27
_chemical_formula_sum   'Cr13 Fe14 Ni27'
_cell_volume   584.02082766
_cell_formula_units_Z   1
loop_
 _symmetry_equiv_pos_site_id
 _symmetry_equiv_pos_as_xyz
  1  'x, y, z'
loop_
 _atom_site_type_symbol
 _atom_site_label
 _atom_site_symmetry_multiplicity
 _atom_site_fract_x
 _atom_site_fract_y
 _atom_site_fract_z
 _atom_site_occupancy
  Ni  Ni0  1  0.00143999  1.00076857  0.00198327  1
  Fe  Fe1  1  0.16865176  0.16731450  0.17018582  1
  Fe  Fe2  1  0.00376662  0.99958685  0.33531272  1
  Fe  Fe3  1  0.00440708  0.33389823  0.00229194  1
  Fe  Fe4  1  0.16888620  0.50326608  0.16910338  1
  Ni  Ni5  1  0.00444222  0.33384807  0.33521347  1
  Ni  Ni6  1  0.00200110  0.66943418  0.00194348  1
  Ni  Ni7  1  0.16719780  0.83345022  0.17001695  1
  Ni  Ni8  1  1.00134202  0.66832493  0.33524535  1
  Cr  Cr9  1  0.33499428  0.00182862  0.00416777  1
  Ni  Ni10  1  0.50058997  0.16798909  0.16857151  1
  Ni  Ni11  1  0.33601520  0.00283868  0.33415329  1
  Ni  Ni12  1  0.33195721  0.33393022  0.00182053  1
  Cr  Cr13  1  0.49956498  0.50126367  0.16820480  1
  Ni  Ni14  1  0.33306023  0.33242948  0.33588330  1
  Ni  Ni15  1  0.33421127  0.66791993  0.00154367  1
  Ni  Ni16  1  0.50063959  0.83507599  0.16845500  1
  Ni  Ni17  1  0.33524945  0.66885063  0.33650059  1
  Ni  Ni18  1  0.66826973  0.99864974  0.00181330  1
  Cr  Cr19  1  0.83374483  0.16660907  0.16934793  1
  Fe  Fe20  1  0.66606146  0.99967656  0.33428599  1
  Ni  Ni21  1  0.66632341  0.33351056  0.00204978  1
  Cr  Cr22  1  0.83566184  0.50309016  0.16761557  1
  Fe  Fe23  1  0.66469133  0.33428599  0.33529504  1
  Ni  Ni24  1  0.66807898  0.67188261  1.00123281  1
  Ni  Ni25  1  0.83651518  0.83505204  0.16679533  1
  Ni  Ni26  1  0.66767173  0.67125396  0.33464769  1
  Ni  Ni27  1  0.16941656  0.16627685  0.50080707  1
  Ni  Ni28  1  0.00244116  0.00214838  0.66539226  1
  Fe  Fe29  1  0.16870286  0.16737067  0.83422163  1
  Ni  Ni30  1  0.17085370  0.50127585  0.49914894  1
  Cr  Cr31  1  0.00340119  0.33444204  0.66813317  1
  Ni  Ni32  1  0.16973886  0.50107873  0.83685108  1
  Fe  Fe33  1  0.16995603  0.83596151  0.49981932  1
  Cr  Cr34  1  1.00042277  0.66842901  0.66673572  1
  Cr  Cr35  1  0.16807176  0.83508712  0.83346477  1
  Ni  Ni36  1  0.50040362  0.16765789  0.50090770  1
  Ni  Ni37  1  0.33563566  0.00301049  0.66649278  1
  Cr  Cr38  1  0.50075686  0.16698749  0.83462972  1
  Ni  Ni39  1  0.49848062  0.49958606  0.50103043  1
  Fe  Fe40  1  0.33371611  0.33464754  0.66604100  1
  Cr  Cr41  1  0.49862142  0.50136283  0.83500326  1
  Fe  Fe42  1  0.49979680  0.83539248  0.50022216  1
  Fe  Fe43  1  0.33349162  0.66863611  0.66645518  1
  Ni  Ni44  1  0.50115151  0.83554101  0.83468247  1
  Fe  Fe45  1  0.83499336  0.16709582  0.50001211  1
  Fe  Fe46  1  0.66885676  1.00020509  0.66663106  1
  Cr  Cr47  1  0.83488354  0.16504555  0.83466210  1
  Cr  Cr48  1  0.83388210  0.50147646  0.49779192  1
  Fe  Fe49  1  0.66671929  0.33244663  0.66608107  1
  Cr  Cr50  1  0.83516543  0.50153830  0.83905861  1
  Ni  Ni51  1  0.83616630  0.83814474  0.49953563  1
  Cr  Cr52  1  0.66686966  0.66919923  0.66872532  1
  Ni  Ni53  1  0.83529242  0.83725097  0.83710666  1
" 