43,Ni50Fe44Cr5_12,-238.384140682221, 216.096638247544,Ni50Fe44Cr5,"# generated using pymatgen
 data_Cr4Fe23Ni27
_symmetry_space_group_name_H-M   'P 1'
_cell_length_a   7.41521471
_cell_length_b   7.41521471
_cell_length_c   10.48669720
_cell_angle_alpha   90.00000000
_cell_angle_beta   90.00000000
_cell_angle_gamma   90.00000000
_symmetry_Int_Tables_number   1
_chemical_formula_structural   Cr4Fe23Ni27
_chemical_formula_sum   'Cr4 Fe23 Ni27'
_cell_volume   576.61533608
_cell_formula_units_Z   1
loop_
 _symmetry_equiv_pos_site_id
 _symmetry_equiv_pos_as_xyz
  1  'x, y, z'
loop_
 _atom_site_type_symbol
 _atom_site_label
 _atom_site_symmetry_multiplicity
 _atom_site_fract_x
 _atom_site_fract_y
 _atom_site_fract_z
 _atom_site_occupancy
  Ni  Ni0  1  1.00349328  0.00456066  0.00539958  1
  Ni  Ni1  1  0.16952275  0.16731873  0.16918446  1
  Ni  Ni2  1  1.00287845  0.00382003  0.33498760  1
  Ni  Ni3  1  1.00154253  0.33598727  1.00263424  1
  Cr  Cr4  1  0.16941403  0.50301113  0.16948936  1
  Fe  Fe5  1  1.00333659  0.33639566  0.33684874  1
  Fe  Fe6  1  1.00240172  0.67297372  0.00392108  1
  Ni  Ni7  1  0.16974002  0.83873186  0.16970993  1
  Ni  Ni8  1  0.00580926  0.67070126  0.33840924  1
  Ni  Ni9  1  0.33643712  0.99951554  0.00461252  1
  Ni  Ni10  1  0.50358219  0.16928418  0.16986596  1
  Fe  Fe11  1  0.33510531  1.00159576  0.33482163  1
  Fe  Fe12  1  0.33750866  0.33323227  0.00397816  1
  Ni  Ni13  1  0.50641339  0.50321901  0.17009049  1
  Fe  Fe14  1  0.33469173  0.33344842  0.33588162  1
  Ni  Ni15  1  0.33782211  0.67025150  1.00345057  1
  Ni  Ni16  1  0.50422193  0.83728662  0.17036414  1
  Ni  Ni17  1  0.33604512  0.66968263  0.33651429  1
  Ni  Ni18  1  0.67027794  0.00454136  1.00302075  1
  Fe  Fe19  1  0.83600926  0.17003050  0.16925525  1
  Ni  Ni20  1  0.67073426  0.00612822  0.33801018  1
  Ni  Ni21  1  0.67116335  0.33708269  0.00415277  1
  Ni  Ni22  1  0.83530355  0.50409884  0.16955136  1
  Fe  Fe23  1  0.67278822  0.33699894  0.33435217  1
  Fe  Fe24  1  0.67011191  0.67202766  1.00301879  1
  Fe  Fe25  1  0.83647019  0.83807645  0.17020269  1
  Fe  Fe26  1  0.67327944  0.67376666  0.33544775  1
  Ni  Ni27  1  0.16955236  0.16837728  0.50375734  1
  Ni  Ni28  1  0.00366330  0.00535695  0.67026564  1
  Fe  Fe29  1  0.17017755  0.16850999  0.83821973  1
  Ni  Ni30  1  0.16835365  0.50250790  0.50485116  1
  Fe  Fe31  1  0.00535066  0.33708391  0.67118113  1
  Fe  Fe32  1  0.17083155  0.50641719  0.83761359  1
  Ni  Ni33  1  0.16955457  0.83822338  0.50395652  1
  Fe  Fe34  1  1.00304829  0.67264359  0.66935396  1
  Ni  Ni35  1  0.16903888  0.83808045  0.83708463  1
  Fe  Fe36  1  0.50175323  0.16832969  0.50179795  1
  Fe  Fe37  1  0.33717037  1.00226655  0.67120892  1
  Fe  Fe38  1  0.50330228  0.16668412  0.83912440  1
  Cr  Cr39  1  0.50378970  0.50336054  0.49885159  1
  Fe  Fe40  1  0.33574671  0.33530450  0.67086828  1
  Ni  Ni41  1  0.50272438  0.50180583  0.84012157  1
  Fe  Fe42  1  0.50080941  0.83902156  0.50250351  1
  Ni  Ni43  1  0.33372050  0.66907040  0.67020681  1
  Ni  Ni44  1  0.50323938  0.83646021  0.83637433  1
  Fe  Fe45  1  0.83985494  0.16971423  0.50268458  1
  Ni  Ni46  1  0.67146814  0.00481934  0.66924170  1
  Fe  Fe47  1  0.83724256  0.16756457  0.83850387  1
  Ni  Ni48  1  0.83901450  0.50309331  0.50268643  1
  Cr  Cr49  1  0.67119778  0.33418169  0.67143017  1
  Fe  Fe50  1  0.83784437  0.50620494  0.83919013  1
  Fe  Fe51  1  0.83933670  0.83839867  0.50309263  1
  Cr  Cr52  1  0.66718526  0.67192274  0.67020669  1
  Ni  Ni53  1  0.83765666  0.83956085  0.83717944  1
" 