6004,Ni50Fe33Cr15_1,-235.197117045284, 205.121129517256,Ni50Fe33Cr15,"# generated using pymatgen
 data_CrFe2Ni3
_symmetry_space_group_name_H-M   'P 1'
_cell_length_a   7.43639010
_cell_length_b   7.43639010
_cell_length_c   10.51664374
_cell_angle_alpha   90.00000000
_cell_angle_beta   90.00000000
_cell_angle_gamma   90.00000000
_symmetry_Int_Tables_number   1
_chemical_formula_structural   CrFe2Ni3
_chemical_formula_sum   'Cr9 Fe18 Ni27'
_cell_volume   581.56932302
_cell_formula_units_Z   9
loop_
 _symmetry_equiv_pos_site_id
 _symmetry_equiv_pos_as_xyz
  1  'x, y, z'
loop_
 _atom_site_type_symbol
 _atom_site_label
 _atom_site_symmetry_multiplicity
 _atom_site_fract_x
 _atom_site_fract_y
 _atom_site_fract_z
 _atom_site_occupancy
  Ni  Ni0  1  1.00078120  0.00244395  1.00178508  1
  Ni  Ni1  1  0.16720373  0.16872120  0.16969961  1
  Fe  Fe2  1  1.00153812  0.00229514  0.33571523  1
  Ni  Ni3  1  0.00227897  0.33610198  0.00312792  1
  Fe  Fe4  1  0.16631906  0.50104142  0.16882536  1
  Fe  Fe5  1  0.00375985  0.33459889  0.33437433  1
  Ni  Ni6  1  1.00170984  0.66762934  0.00209804  1
  Fe  Fe7  1  0.16672877  0.83443411  0.16948292  1
  Ni  Ni8  1  0.00464593  0.66967237  0.33523786  1
  Cr  Cr9  1  0.33600767  0.00371975  1.00178704  1
  Fe  Fe10  1  0.50275951  0.16800068  0.16839478  1
  Fe  Fe11  1  0.33387615  1.00202703  0.33389584  1
  Ni  Ni12  1  0.33382186  0.33484093  1.00179409  1
  Cr  Cr13  1  0.50123020  0.50262965  0.16714191  1
  Ni  Ni14  1  0.33216611  0.33458060  0.33649037  1
  Ni  Ni15  1  0.33387893  0.66839114  0.00234431  1
  Fe  Fe16  1  0.50313451  0.83737468  0.16839420  1
  Fe  Fe17  1  0.33253312  0.66833003  0.33583146  1
  Ni  Ni18  1  0.66932453  0.00239121  0.00224581  1
  Ni  Ni19  1  0.83688103  0.16773290  0.16748349  1
  Ni  Ni20  1  0.66954700  0.00210651  0.33434755  1
  Ni  Ni21  1  0.67008133  0.33390823  0.00216149  1
  Ni  Ni22  1  0.83755192  0.50208903  0.16587181  1
  Cr  Cr23  1  0.66897915  0.33340459  0.33559279  1
  Ni  Ni24  1  0.67058889  0.66989030  0.00271373  1
  Fe  Fe25  1  0.83632750  0.83635812  0.16812600  1
  Cr  Cr26  1  0.67109568  0.67077463  0.33550235  1
  Fe  Fe27  1  0.16599381  0.16982954  0.50153758  1
  Ni  Ni28  1  1.00066658  0.00237066  0.66723736  1
  Ni  Ni29  1  0.16651388  0.16931289  0.83514414  1
  Ni  Ni30  1  0.17121948  0.50339489  0.50155289  1
  Ni  Ni31  1  0.00337993  0.33506439  0.66824399  1
  Fe  Fe32  1  0.16694541  0.50049766  0.83537503  1
  Ni  Ni33  1  0.16591753  0.83357304  0.50110766  1
  Ni  Ni34  1  1.00201994  0.66874471  0.66884233  1
  Fe  Fe35  1  0.16684622  0.83503889  0.83515916  1
  Cr  Cr36  1  0.50355655  0.17079854  0.50205938  1
  Cr  Cr37  1  0.33423814  0.00320850  0.67047119  1
  Ni  Ni38  1  0.50371587  0.16897036  0.83689311  1
  Ni  Ni39  1  0.49799092  0.50255009  0.50399940  1
  Fe  Fe40  1  0.33354874  0.33686924  0.66858389  1
  Cr  Cr41  1  0.50209531  0.50227285  0.83484793  1
  Cr  Cr42  1  0.50241282  0.83288166  0.50222929  1
  Fe  Fe43  1  0.33330774  0.66760711  0.66829712  1
  Fe  Fe44  1  0.50425226  0.83668544  0.83554475  1
  Ni  Ni45  1  0.83765203  0.16543763  0.50303793  1
  Ni  Ni46  1  0.67109013  1.00158805  0.66959133  1
  Ni  Ni47  1  0.83595712  0.16753605  0.83565845  1
  Cr  Cr48  1  0.83606946  0.50196929  0.50397662  1
  Fe  Fe49  1  0.67074440  0.33405830  0.66965419  1
  Fe  Fe50  1  0.83705057  0.50086501  0.83604692  1
  Ni  Ni51  1  0.83848906  0.83837434  0.50280325  1
  Ni  Ni52  1  0.66980047  0.66959349  0.66819434  1
  Fe  Fe53  1  0.83508618  0.83673010  0.83475649  1
" 