2979,Ni50Fe26Cr23_12,-231.930457700752, 193.638592493694,Ni50Fe26Cr23,"# generated using pymatgen
 data_Cr13Fe14Ni27
_symmetry_space_group_name_H-M   'P 1'
_cell_length_a   7.45006489
_cell_length_b   7.45006489
_cell_length_c   10.53598281
_cell_angle_alpha   90.00000000
_cell_angle_beta   90.00000000
_cell_angle_gamma   90.00000000
_symmetry_Int_Tables_number   1
_chemical_formula_structural   Cr13Fe14Ni27
_chemical_formula_sum   'Cr13 Fe14 Ni27'
_cell_volume   584.78357222
_cell_formula_units_Z   1
loop_
 _symmetry_equiv_pos_site_id
 _symmetry_equiv_pos_as_xyz
  1  'x, y, z'
loop_
 _atom_site_type_symbol
 _atom_site_label
 _atom_site_symmetry_multiplicity
 _atom_site_fract_x
 _atom_site_fract_y
 _atom_site_fract_z
 _atom_site_occupancy
  Ni  Ni0  1  0.99996337  0.00332896  1.00100038  1
  Ni  Ni1  1  0.16576379  0.16841583  0.16899869  1
  Fe  Fe2  1  0.00200201  0.99986513  0.33285959  1
  Ni  Ni3  1  1.00000497  0.33165236  1.00071016  1
  Ni  Ni4  1  0.16932098  0.50120779  0.16689987  1
  Ni  Ni5  1  0.00335149  0.33355948  0.33472898  1
  Fe  Fe6  1  0.00167156  0.67035307  1.00091324  1
  Ni  Ni7  1  0.16433003  0.83304334  0.16542840  1
  Fe  Fe8  1  0.00295976  0.66645213  0.33521565  1
  Cr  Cr9  1  0.33100974  1.00022803  0.99796596  1
  Cr  Cr10  1  0.50216745  0.16918980  0.16655211  1
  Cr  Cr11  1  0.33184791  0.99866587  0.33475137  1
  Fe  Fe12  1  0.33134636  0.33469182  0.00171070  1
  Ni  Ni13  1  0.49895720  0.50138885  0.16411403  1
  Ni  Ni14  1  0.33069658  0.33538422  0.33360337  1
  Ni  Ni15  1  0.33685414  0.66898894  0.00344068  1
  Fe  Fe16  1  0.50235854  0.83371220  0.16463764  1
  Cr  Cr17  1  0.33557885  0.66611524  0.33228585  1
  Fe  Fe18  1  0.67010783  0.99932077  0.99884859  1
  Ni  Ni19  1  0.83640542  0.16421649  0.16725102  1
  Fe  Fe20  1  0.66859168  0.00133398  0.33365840  1
  Fe  Fe21  1  0.66900411  0.33370540  0.99917652  1
  Cr  Cr22  1  0.83727030  0.50222345  0.16439354  1
  Cr  Cr23  1  0.66927694  0.33927907  0.33417951  1
  Ni  Ni24  1  0.66757450  0.66856026  1.00035720  1
  Ni  Ni25  1  0.83557639  0.83656195  0.16827317  1
  Cr  Cr26  1  0.66758380  0.66982089  0.33628227  1
  Ni  Ni27  1  0.16828752  0.16764433  0.50089657  1
  Cr  Cr28  1  0.00422453  0.00361135  0.67092733  1
  Ni  Ni29  1  0.16802807  0.16876312  0.83315824  1
  Ni  Ni30  1  0.16759849  0.50145269  0.50081861  1
  Ni  Ni31  1  1.00074950  0.33643267  0.66746227  1
  Cr  Cr32  1  0.16576928  0.50219364  0.83536021  1
  Ni  Ni33  1  0.16679188  0.83279792  0.50341594  1
  Fe  Fe34  1  1.00077309  0.66718588  0.66757168  1
  Fe  Fe35  1  0.16742494  0.83455953  0.83515935  1
  Cr  Cr36  1  0.49904533  0.16904074  0.50282873  1
  Ni  Ni37  1  0.33314435  0.99876089  0.66981989  1
  Ni  Ni38  1  0.50058718  0.16677997  0.83301815  1
  Ni  Ni39  1  0.50004812  0.50167567  0.50471879  1
  Ni  Ni40  1  0.33212570  0.33322652  0.66665346  1
  Cr  Cr41  1  0.50044961  0.49985829  0.83478448  1
  Fe  Fe42  1  0.49872493  0.83230338  0.50458730  1
  Fe  Fe43  1  0.33358221  0.66743777  0.66733183  1
  Ni  Ni44  1  0.50157874  0.83424595  0.83410439  1
  Cr  Cr45  1  0.83614160  0.16833944  0.49865976  1
  Cr  Cr46  1  0.66797378  1.00003684  0.67019910  1
  Ni  Ni47  1  0.83452088  0.16851279  0.83686905  1
  Ni  Ni48  1  0.83613299  0.50347813  0.50455048  1
  Ni  Ni49  1  0.67003074  0.33770057  0.66984484  1
  Ni  Ni50  1  0.83491610  0.50197973  0.83429502  1
  Fe  Fe51  1  0.83734312  0.83265397  0.50127581  1
  Fe  Fe52  1  0.66877760  0.66652057  0.66882816  1
  Ni  Ni53  1  0.83520161  0.83308989  0.83617125  1
" 