4912,Ni50Fe47Cr2_19,-239.718196157112, 218.695025188165,Ni50Fe47Cr2,"# generated using pymatgen
 data_Cr2Fe25Ni27
_symmetry_space_group_name_H-M   'P 1'
_cell_length_a   7.40427278
_cell_length_b   7.40427278
_cell_length_c   10.47122298
_cell_angle_alpha   90.00000000
_cell_angle_beta   90.00000000
_cell_angle_gamma   90.00000000
_symmetry_Int_Tables_number   1
_chemical_formula_structural   Cr2Fe25Ni27
_chemical_formula_sum   'Cr2 Fe25 Ni27'
_cell_volume   574.06653151
_cell_formula_units_Z   1
loop_
 _symmetry_equiv_pos_site_id
 _symmetry_equiv_pos_as_xyz
  1  'x, y, z'
loop_
 _atom_site_type_symbol
 _atom_site_label
 _atom_site_symmetry_multiplicity
 _atom_site_fract_x
 _atom_site_fract_y
 _atom_site_fract_z
 _atom_site_occupancy
  Fe  Fe0  1  1.00421352  1.00376784  1.00408878  1
  Fe  Fe1  1  0.17003092  0.17100494  0.17108810  1
  Ni  Ni2  1  1.00410189  1.00319431  0.33655027  1
  Fe  Fe3  1  1.00421091  0.33858913  1.00350424  1
  Ni  Ni4  1  0.17136060  0.50413086  0.17203952  1
  Fe  Fe5  1  0.00437234  0.33858055  0.33708183  1
  Ni  Ni6  1  0.00526065  0.67139475  0.00442293  1
  Ni  Ni7  1  0.17100901  0.83712561  0.17146900  1
  Fe  Fe8  1  1.00363243  0.67156830  0.33688812  1
  Fe  Fe9  1  0.33785585  0.00437171  1.00347527  1
  Fe  Fe10  1  0.50352685  0.17036711  0.16899522  1
  Fe  Fe11  1  0.33828513  1.00285365  0.33729045  1
  Ni  Ni12  1  0.33847277  0.33808986  0.00437653  1
  Fe  Fe13  1  0.50334765  0.50601008  0.16999859  1
  Fe  Fe14  1  0.33668174  0.33853778  0.33598907  1
  Ni  Ni15  1  0.33624734  0.67025806  0.00441944  1
  Fe  Fe16  1  0.50448133  0.83634085  0.17092437  1
  Fe  Fe17  1  0.33712656  0.67132041  0.33738976  1
  Ni  Ni18  1  0.67151883  0.00576399  0.00504233  1
  Fe  Fe19  1  0.83916440  0.16986915  0.17017977  1
  Fe  Fe20  1  0.67191114  1.00212236  0.33726653  1
  Ni  Ni21  1  0.67038270  0.33648637  1.00408552  1
  Ni  Ni22  1  0.83790316  0.50559382  0.17048747  1
  Cr  Cr23  1  0.67157270  0.33810711  0.33763846  1
  Fe  Fe24  1  0.67129983  0.67040570  0.00455102  1
  Ni  Ni25  1  0.83704177  0.83687753  0.17159334  1
  Ni  Ni26  1  0.67078687  0.67184286  0.33635986  1
  Cr  Cr27  1  0.17079315  0.17041293  0.50500895  1
  Ni  Ni28  1  1.00414325  1.00401141  0.67239312  1
  Ni  Ni29  1  0.17249104  0.17108663  0.83789352  1
  Fe  Fe30  1  0.16995683  0.50627783  0.50471002  1
  Ni  Ni31  1  1.00274181  0.33751839  0.67161303  1
  Ni  Ni32  1  0.17134645  0.50440729  0.83689554  1
  Ni  Ni33  1  0.17084234  0.83575890  0.50415608  1
  Ni  Ni34  1  0.00455324  0.67119175  0.66969366  1
  Ni  Ni35  1  0.17101544  0.83722825  0.83708407  1
  Fe  Fe36  1  0.50519768  0.16898916  0.50547300  1
  Ni  Ni37  1  0.33744510  1.00322057  0.67210529  1
  Ni  Ni38  1  0.50386366  0.17141466  0.83653709  1
  Fe  Fe39  1  0.50397138  0.50605146  0.50499442  1
  Fe  Fe40  1  0.33737926  0.33866081  0.67260393  1
  Fe  Fe41  1  0.50402305  0.50395858  0.83772250  1
  Fe  Fe42  1  0.50454415  0.83767243  0.50449829  1
  Ni  Ni43  1  0.33736791  0.67164198  0.67044126  1
  Fe  Fe44  1  0.50403002  0.83785618  0.83729698  1
  Ni  Ni45  1  0.83590352  0.16966695  0.50501187  1
  Fe  Fe46  1  0.67188490  1.00367079  0.67146802  1
  Ni  Ni47  1  0.83636569  0.17107992  0.83739909  1
  Fe  Fe48  1  0.83878330  0.50562860  0.50534881  1
  Fe  Fe49  1  0.67168631  0.33754525  0.67136331  1
  Ni  Ni50  1  0.83726523  0.50465213  0.83733503  1
  Ni  Ni51  1  0.83712699  0.83750971  0.50376057  1
  Ni  Ni52  1  0.67079537  0.67023939  0.67154736  1
  Ni  Ni53  1  0.83759516  0.83698452  0.83736054  1
" 