949,Ni50Fe43Cr5_7,-238.634129026141, 215.8208855398,Ni50Fe43Cr5,"# generated using pymatgen
 data_Cr4Fe23Ni27
_symmetry_space_group_name_H-M   'P 1'
_cell_length_a   7.41775078
_cell_length_b   7.41775078
_cell_length_c   10.49028375
_cell_angle_alpha   90.00000000
_cell_angle_beta   90.00000000
_cell_angle_gamma   90.00000000
_symmetry_Int_Tables_number   1
_chemical_formula_structural   Cr4Fe23Ni27
_chemical_formula_sum   'Cr4 Fe23 Ni27'
_cell_volume   577.20716207
_cell_formula_units_Z   1
loop_
 _symmetry_equiv_pos_site_id
 _symmetry_equiv_pos_as_xyz
  1  'x, y, z'
loop_
 _atom_site_type_symbol
 _atom_site_label
 _atom_site_symmetry_multiplicity
 _atom_site_fract_x
 _atom_site_fract_y
 _atom_site_fract_z
 _atom_site_occupancy
  Fe  Fe0  1  1.00289487  0.00481947  0.00381567  1
  Ni  Ni1  1  0.17024035  0.17197531  0.17019648  1
  Cr  Cr2  1  1.00297764  1.00318451  0.33606768  1
  Ni  Ni3  1  1.00157259  0.33665652  1.00275962  1
  Fe  Fe4  1  0.16960584  0.50300327  0.16934943  1
  Ni  Ni5  1  1.00179321  0.33883451  0.33734419  1
  Fe  Fe6  1  0.00417833  0.66852918  0.00407205  1
  Fe  Fe7  1  0.17033381  0.83529532  0.17066077  1
  Ni  Ni8  1  0.00343390  0.66802602  0.33671656  1
  Cr  Cr9  1  0.33706053  1.00204624  1.00285341  1
  Ni  Ni10  1  0.50282628  0.17001391  0.17149393  1
  Ni  Ni11  1  0.33846514  0.00360666  0.33636125  1
  Fe  Fe12  1  0.33587001  0.33832796  0.00341685  1
  Ni  Ni13  1  0.50307362  0.50435681  0.16978135  1
  Fe  Fe14  1  0.33655436  0.33545399  0.33628212  1
  Ni  Ni15  1  0.33725568  0.66942583  1.00294791  1
  Ni  Ni16  1  0.50436580  0.83559798  0.17119772  1
  Fe  Fe17  1  0.33609657  0.66967229  0.33568259  1
  Fe  Fe18  1  0.67067803  0.00386877  0.00484186  1
  Ni  Ni19  1  0.83689832  0.17068231  0.16896757  1
  Ni  Ni20  1  0.66809118  0.00524947  0.33545528  1
  Fe  Fe21  1  0.67025184  0.33704779  0.00406718  1
  Ni  Ni22  1  0.83667460  0.50371395  0.16996292  1
  Ni  Ni23  1  0.67022598  0.33617822  0.33641047  1
  Fe  Fe24  1  0.66896653  0.66905052  0.00442507  1
  Ni  Ni25  1  0.83471514  0.83557151  0.16980991  1
  Fe  Fe26  1  0.67178331  0.66937244  0.33542941  1
  Ni  Ni27  1  0.17040491  0.17082587  0.50420406  1
  Ni  Ni28  1  0.00392533  0.00370989  0.66955250  1
  Ni  Ni29  1  0.16925115  0.17205458  0.83556599  1
  Fe  Fe30  1  0.16843606  0.50413016  0.50387173  1
  Fe  Fe31  1  0.00358855  0.33680985  0.67045560  1
  Ni  Ni32  1  0.17038793  0.50206003  0.83666042  1
  Ni  Ni33  1  0.16987815  0.83657881  0.50484479  1
  Ni  Ni34  1  0.00474021  0.66996015  0.66954735  1
  Fe  Fe35  1  0.17039223  0.83536642  0.83489188  1
  Fe  Fe36  1  0.50405798  0.17081612  0.50219162  1
  Fe  Fe37  1  0.33458076  1.00313831  0.67045524  1
  Fe  Fe38  1  0.50436516  0.17097013  0.83622947  1
  Fe  Fe39  1  0.50369919  0.50174359  0.50305340  1
  Fe  Fe40  1  0.33518798  0.33685274  0.67027125  1
  Fe  Fe41  1  0.50292602  0.50350314  0.83698521  1
  Cr  Cr42  1  0.50360671  0.83654871  0.50219854  1
  Ni  Ni43  1  0.33561155  0.66983115  0.67154018  1
  Ni  Ni44  1  0.50237487  0.83526250  0.83594208  1
  Ni  Ni45  1  0.83730377  0.17138285  0.50404976  1
  Fe  Fe46  1  0.67079980  0.00376003  0.66972247  1
  Ni  Ni47  1  0.83800963  0.17183864  0.83695110  1
  Ni  Ni48  1  0.83707480  0.50334732  0.50339278  1
  Fe  Fe49  1  0.67119615  0.33723527  0.66953766  1
  Ni  Ni50  1  0.83741953  0.50172767  0.83661528  1
  Ni  Ni51  1  0.83705265  0.83523982  0.50406927  1
  Fe  Fe52  1  0.67075400  0.66897191  0.67011101  1
  Cr  Cr53  1  0.83552786  0.83620997  0.83615650  1
" 