6153,Ni50Fe44Cr5_13,-238.250576262242, 214.138597575352,Ni50Fe44Cr5,"# generated using pymatgen
 data_Cr4Fe23Ni27
_symmetry_space_group_name_H-M   'P 1'
_cell_length_a   7.41264898
_cell_length_b   7.41264898
_cell_length_c   10.48306872
_cell_angle_alpha   90.00000000
_cell_angle_beta   90.00000000
_cell_angle_gamma   90.00000000
_symmetry_Int_Tables_number   1
_chemical_formula_structural   Cr4Fe23Ni27
_chemical_formula_sum   'Cr4 Fe23 Ni27'
_cell_volume   576.01700239
_cell_formula_units_Z   1
loop_
 _symmetry_equiv_pos_site_id
 _symmetry_equiv_pos_as_xyz
  1  'x, y, z'
loop_
 _atom_site_type_symbol
 _atom_site_label
 _atom_site_symmetry_multiplicity
 _atom_site_fract_x
 _atom_site_fract_y
 _atom_site_fract_z
 _atom_site_occupancy
  Fe  Fe0  1  0.00462793  1.00359366  0.00414470  1
  Ni  Ni1  1  0.16948351  0.16868341  0.17148383  1
  Ni  Ni2  1  1.00314211  1.00284364  0.33751434  1
  Ni  Ni3  1  1.00191646  0.33847077  0.00384489  1
  Fe  Fe4  1  0.17015837  0.50372322  0.17097675  1
  Ni  Ni5  1  0.00598772  0.33743175  0.33729207  1
  Ni  Ni6  1  0.00393756  0.66992419  0.00367152  1
  Ni  Ni7  1  0.16924318  0.83766481  0.16991500  1
  Fe  Fe8  1  0.00381944  0.67081589  0.33724414  1
  Ni  Ni9  1  0.33819823  1.00159238  0.00433590  1
  Ni  Ni10  1  0.50418226  0.17023456  0.17045578  1
  Fe  Fe11  1  0.33620164  0.00473294  0.33643735  1
  Cr  Cr12  1  0.33661979  0.33627966  0.00393024  1
  Ni  Ni13  1  0.50458597  0.50410347  0.16982302  1
  Ni  Ni14  1  0.33519517  0.33740896  0.33703778  1
  Ni  Ni15  1  0.33615301  0.67250382  1.00223339  1
  Fe  Fe16  1  0.50286674  0.83791358  0.16992144  1
  Fe  Fe17  1  0.33660027  0.66983127  0.33684764  1
  Ni  Ni18  1  0.66935754  1.00361734  1.00344218  1
  Fe  Fe19  1  0.83765255  0.16969871  0.17016524  1
  Ni  Ni20  1  0.67054426  1.00127135  0.33792381  1
  Ni  Ni21  1  0.67194394  0.33642531  1.00300046  1
  Fe  Fe22  1  0.83821673  0.50350196  0.16900378  1
  Cr  Cr23  1  0.66981719  0.33638026  0.33758168  1
  Fe  Fe24  1  0.66988529  0.66959488  1.00348480  1
  Fe  Fe25  1  0.83676996  0.83779590  0.17091453  1
  Fe  Fe26  1  0.67058792  0.67145342  0.33760362  1
  Fe  Fe27  1  0.16977156  0.17089526  0.50366258  1
  Fe  Fe28  1  0.00449892  0.00542298  0.66950664  1
  Ni  Ni29  1  0.16934501  0.16897171  0.83586643  1
  Ni  Ni30  1  0.17220897  0.50367404  0.50251871  1
  Ni  Ni31  1  0.00462935  0.33631364  0.66987721  1
  Ni  Ni32  1  0.17094403  0.50454883  0.83752295  1
  Ni  Ni33  1  0.16956090  0.83709857  0.50325815  1
  Cr  Cr34  1  0.00482410  0.66950656  0.66969383  1
  Ni  Ni35  1  0.17014520  0.83748873  0.83782678  1
  Fe  Fe36  1  0.50265835  0.16941678  0.50446123  1
  Ni  Ni37  1  0.33758643  0.00460165  0.66995334  1
  Ni  Ni38  1  0.50524469  0.17083585  0.83611728  1
  Ni  Ni39  1  0.50184200  0.50315959  0.50407184  1
  Ni  Ni40  1  0.33651612  0.33588578  0.67019393  1
  Ni  Ni41  1  0.50389997  0.50294321  0.83711237  1
  Fe  Fe42  1  0.50320023  0.83763293  0.50301120  1
  Fe  Fe43  1  0.33620274  0.66940249  0.67067995  1
  Fe  Fe44  1  0.50127365  0.83824555  0.83806720  1
  Ni  Ni45  1  0.83726266  0.16841713  0.50473283  1
  Fe  Fe46  1  0.67043621  0.00602437  0.66998052  1
  Fe  Fe47  1  0.83738934  0.17132976  0.83689624  1
  Fe  Fe48  1  0.83863704  0.50308467  0.50300454  1
  Fe  Fe49  1  0.66952351  0.33537953  0.67066779  1
  Fe  Fe50  1  0.83799054  0.50136186  0.83899282  1
  Ni  Ni51  1  0.83776797  0.83992288  0.50154497  1
  Cr  Cr52  1  0.66984760  0.67076612  0.67033213  1
  Fe  Fe53  1  0.83724093  0.83832120  0.83835949  1
" 