51,Ni50Fe27Cr21_4,-232.101820531652, 193.548469675056,Ni50Fe27Cr21,"# generated using pymatgen
 data_Cr13Fe14Ni27
_symmetry_space_group_name_H-M   'P 1'
_cell_length_a   7.44911511
_cell_length_b   7.44911511
_cell_length_c   10.53463961
_cell_angle_alpha   90.00000000
_cell_angle_beta   90.00000000
_cell_angle_gamma   90.00000000
_symmetry_Int_Tables_number   1
_chemical_formula_structural   Cr13Fe14Ni27
_chemical_formula_sum   'Cr13 Fe14 Ni27'
_cell_volume   584.55994557
_cell_formula_units_Z   1
loop_
 _symmetry_equiv_pos_site_id
 _symmetry_equiv_pos_as_xyz
  1  'x, y, z'
loop_
 _atom_site_type_symbol
 _atom_site_label
 _atom_site_symmetry_multiplicity
 _atom_site_fract_x
 _atom_site_fract_y
 _atom_site_fract_z
 _atom_site_occupancy
  Fe  Fe0  1  0.00138479  0.00174622  0.99952137  1
  Cr  Cr1  1  0.17044413  0.16927253  0.16753956  1
  Cr  Cr2  1  0.99827947  0.00246411  0.33434884  1
  Fe  Fe3  1  0.00121503  0.33361219  0.99892517  1
  Cr  Cr4  1  0.16831614  0.50151677  0.16955068  1
  Ni  Ni5  1  0.00143327  0.33295023  0.33606933  1
  Fe  Fe6  1  0.00198642  0.66859308  0.99877907  1
  Cr  Cr7  1  0.16945114  0.83271606  0.16556437  1
  Fe  Fe8  1  0.00131462  0.66717374  0.33578807  1
  Ni  Ni9  1  0.33354868  0.00152681  0.99812079  1
  Ni  Ni10  1  0.50128359  0.16770221  0.16762705  1
  Ni  Ni11  1  0.33412569  0.00143015  0.33503418  1
  Fe  Fe12  1  0.33704266  0.33476137  0.99936545  1
  Fe  Fe13  1  0.50012509  0.50011961  0.16630062  1
  Ni  Ni14  1  0.33375027  0.33588076  0.33458670  1
  Ni  Ni15  1  0.33576344  0.66684579  0.99873674  1
  Cr  Cr16  1  0.49980155  0.83489238  0.16867784  1
  Ni  Ni17  1  0.33774575  0.66605271  0.33599394  1
  Cr  Cr18  1  0.66805062  0.00168000  0.00221020  1
  Ni  Ni19  1  0.83359283  0.16929937  0.16712534  1
  Fe  Fe20  1  0.66687875  1.00092758  0.33515148  1
  Fe  Fe21  1  0.66517856  0.33438455  0.99958420  1
  Cr  Cr22  1  0.83564946  0.50173700  0.16509401  1
  Cr  Cr23  1  0.66762650  0.33533474  0.33383117  1
  Ni  Ni24  1  0.66642120  0.66573995  1.00071872  1
  Fe  Fe25  1  0.83424977  0.83473574  0.16742528  1
  Ni  Ni26  1  0.66691554  0.66965681  0.33460777  1
  Ni  Ni27  1  0.16663348  0.16932325  0.50073088  1
  Ni  Ni28  1  0.00156938  0.00449011  0.66893594  1
  Ni  Ni29  1  0.16712572  0.16856936  0.83492081  1
  Ni  Ni30  1  0.16680867  0.50098388  0.49923518  1
  Ni  Ni31  1  0.00149163  0.33251105  0.66836917  1
  Ni  Ni32  1  0.16651155  0.50214864  0.83469146  1
  Cr  Cr33  1  0.17149222  0.83403063  0.50343496  1
  Fe  Fe34  1  0.00328017  0.66686380  0.66916629  1
  Fe  Fe35  1  0.16997235  0.83537593  0.83418926  1
  Cr  Cr36  1  0.50099533  0.16402503  0.50264958  1
  Ni  Ni37  1  0.33348370  0.99980527  0.67055617  1
  Ni  Ni38  1  0.50187026  0.16648943  0.83411730  1
  Fe  Fe39  1  0.50013400  0.50251243  0.50220028  1
  Cr  Cr40  1  0.33272285  0.33642248  0.66766914  1
  Ni  Ni41  1  0.50153539  0.50297059  0.83524024  1
  Ni  Ni42  1  0.50255669  0.83340988  0.50189908  1
  Ni  Ni43  1  0.33597421  0.66791186  0.66916538  1
  Ni  Ni44  1  0.50061676  0.83417190  0.83322275  1
  Ni  Ni45  1  0.83506610  0.16814176  0.50322386  1
  Ni  Ni46  1  0.66901626  1.00087057  0.66699820  1
  Ni  Ni47  1  0.83476521  0.16931650  0.83354902  1
  Cr  Cr48  1  0.83564672  0.50053802  0.50491034  1
  Ni  Ni49  1  0.66988157  0.33478738  0.67158489  1
  Fe  Fe50  1  0.83330397  0.49938761  0.83421571  1
  Fe  Fe51  1  0.83325443  0.83584347  0.50305824  1
  Ni  Ni52  1  0.66491473  0.66771335  0.66832504  1
  Cr  Cr53  1  0.83279969  0.83363133  0.83246090  1
" 