1846,Ni50Fe44Cr5_5,-238.349356999399, 216.023666338467,Ni50Fe44Cr5,"# generated using pymatgen
 data_Cr4Fe23Ni27
_symmetry_space_group_name_H-M   'P 1'
_cell_length_a   7.40999942
_cell_length_b   7.40999942
_cell_length_c   10.47932168
_cell_angle_alpha   90.00000000
_cell_angle_beta   90.00000000
_cell_angle_gamma   90.00000000
_symmetry_Int_Tables_number   1
_chemical_formula_structural   Cr4Fe23Ni27
_chemical_formula_sum   'Cr4 Fe23 Ni27'
_cell_volume   575.39955244
_cell_formula_units_Z   1
loop_
 _symmetry_equiv_pos_site_id
 _symmetry_equiv_pos_as_xyz
  1  'x, y, z'
loop_
 _atom_site_type_symbol
 _atom_site_label
 _atom_site_symmetry_multiplicity
 _atom_site_fract_x
 _atom_site_fract_y
 _atom_site_fract_z
 _atom_site_occupancy
  Fe  Fe0  1  1.00309320  1.00357176  0.00392803  1
  Ni  Ni1  1  0.17085325  0.16946436  0.17092439  1
  Ni  Ni2  1  0.00465704  1.00348556  0.33726791  1
  Ni  Ni3  1  1.00298489  0.33907598  0.00415675  1
  Fe  Fe4  1  0.16842839  0.50352295  0.17044708  1
  Ni  Ni5  1  1.00375428  0.33798365  0.33686986  1
  Ni  Ni6  1  1.00350521  0.66883752  0.00412341  1
  Ni  Ni7  1  0.17010753  0.83821861  0.16978546  1
  Ni  Ni8  1  0.00395623  0.67007481  0.33671638  1
  Ni  Ni9  1  0.33868079  1.00366852  0.00417107  1
  Ni  Ni10  1  0.50278791  0.16849277  0.17000693  1
  Ni  Ni11  1  0.33820426  1.00270772  0.33805329  1
  Fe  Fe12  1  0.33687923  0.33622505  1.00269070  1
  Cr  Cr13  1  0.50404530  0.50404200  0.16989957  1
  Fe  Fe14  1  0.33418327  0.33409694  0.33638674  1
  Fe  Fe15  1  0.33657457  0.67119629  1.00348024  1
  Fe  Fe16  1  0.50338451  0.83957618  0.17100985  1
  Ni  Ni17  1  0.33572598  0.67404036  0.33657239  1
  Ni  Ni18  1  0.66826657  0.00419487  0.00431827  1
  Fe  Fe19  1  0.83814021  0.17004007  0.17026248  1
  Ni  Ni20  1  0.66867917  1.00290826  0.33732724  1
  Ni  Ni21  1  0.67182712  0.33657243  1.00238195  1
  Ni  Ni22  1  0.83883481  0.50465310  0.16942323  1
  Cr  Cr23  1  0.67290433  0.33536026  0.33745830  1
  Ni  Ni24  1  0.67186396  0.67079144  0.00385147  1
  Fe  Fe25  1  0.83733673  0.83742359  0.16982365  1
  Fe  Fe26  1  0.67257953  0.67403764  0.33709479  1
  Fe  Fe27  1  0.17005071  0.16865504  0.50378271  1
  Ni  Ni28  1  0.00475836  1.00330948  0.67041572  1
  Fe  Fe29  1  0.17018033  0.17063250  0.83705929  1
  Cr  Cr30  1  0.16877926  0.50419309  0.50191718  1
  Ni  Ni31  1  1.00281337  0.33781097  0.67052373  1
  Ni  Ni32  1  0.17108318  0.50363696  0.83801278  1
  Ni  Ni33  1  0.17103996  0.83922953  0.50494095  1
  Ni  Ni34  1  1.00259129  0.67042666  0.67070550  1
  Fe  Fe35  1  0.16986645  0.83688336  0.83688454  1
  Fe  Fe36  1  0.50304184  0.16762493  0.50425736  1
  Ni  Ni37  1  0.33769027  0.00404944  0.66932675  1
  Fe  Fe38  1  0.50357233  0.17034065  0.83791422  1
  Cr  Cr39  1  0.50421348  0.50489024  0.50445304  1
  Ni  Ni40  1  0.33758260  0.33501586  0.67152040  1
  Fe  Fe41  1  0.50400272  0.50409540  0.83730521  1
  Ni  Ni42  1  0.50324693  0.83900465  0.50323993  1
  Fe  Fe43  1  0.33567841  0.67211154  0.67130142  1
  Fe  Fe44  1  0.50395262  0.83710809  0.83715805  1
  Ni  Ni45  1  0.83808189  0.16977372  0.50467775  1
  Fe  Fe46  1  0.67116022  0.00417706  0.67031676  1
  Fe  Fe47  1  0.83779603  0.17067610  0.83682154  1
  Ni  Ni48  1  0.83784285  0.50343204  0.50549393  1
  Fe  Fe49  1  0.67202319  0.33598791  0.67096650  1
  Fe  Fe50  1  0.83802206  0.50441689  0.83771152  1
  Fe  Fe51  1  0.83761741  0.83702412  0.50425644  1
  Fe  Fe52  1  0.67177645  0.67138274  0.67153099  1
  Ni  Ni53  1  0.83716548  0.83771624  0.83694230  1
" 