2032,Ni50Fe25Cr24_17,-231.127580395709, 192.248855736967,Ni50Fe25Cr24,"# generated using pymatgen
 data_Cr14Fe13Ni27
_symmetry_space_group_name_H-M   'P 1'
_cell_length_a   7.45094824
_cell_length_b   7.45094824
_cell_length_c   10.53723205
_cell_angle_alpha   90.00000000
_cell_angle_beta   90.00000000
_cell_angle_gamma   90.00000000
_symmetry_Int_Tables_number   1
_chemical_formula_structural   Cr14Fe13Ni27
_chemical_formula_sum   'Cr14 Fe13 Ni27'
_cell_volume   584.99160991
_cell_formula_units_Z   1
loop_
 _symmetry_equiv_pos_site_id
 _symmetry_equiv_pos_as_xyz
  1  'x, y, z'
loop_
 _atom_site_type_symbol
 _atom_site_label
 _atom_site_symmetry_multiplicity
 _atom_site_fract_x
 _atom_site_fract_y
 _atom_site_fract_z
 _atom_site_occupancy
  Cr  Cr0  1  1.00029136  0.99838648  0.00330941  1
  Fe  Fe1  1  0.16685375  0.16993980  0.16787723  1
  Ni  Ni2  1  1.00040748  1.00035485  0.33337216  1
  Ni  Ni3  1  1.00063187  0.33710983  0.00352102  1
  Ni  Ni4  1  0.16770121  0.50161186  0.16759752  1
  Fe  Fe5  1  0.00411609  0.33278959  0.33398221  1
  Ni  Ni6  1  0.00285175  0.66712477  1.00082040  1
  Ni  Ni7  1  0.16730153  0.83164031  0.16753813  1
  Ni  Ni8  1  0.00521768  0.66867689  0.33309069  1
  Cr  Cr9  1  0.33628221  1.00009699  0.00119016  1
  Fe  Fe10  1  0.50199084  0.16681222  0.16652186  1
  Cr  Cr11  1  0.33418091  0.99950308  0.33507349  1
  Ni  Ni12  1  0.33627412  0.33516635  0.00255042  1
  Cr  Cr13  1  0.49707232  0.50177502  0.16843758  1
  Fe  Fe14  1  0.33162628  0.33531445  0.33582101  1
  Fe  Fe15  1  0.33305429  0.66704077  0.00228704  1
  Ni  Ni16  1  0.50140485  0.83604588  0.16855464  1
  Ni  Ni17  1  0.33221597  0.66737973  0.33455308  1
  Ni  Ni18  1  0.66627773  0.00279181  0.00302568  1
  Ni  Ni19  1  0.83439917  0.16537016  0.16768928  1
  Ni  Ni20  1  0.66830684  0.00170800  0.33244666  1
  Ni  Ni21  1  0.66636498  0.33253192  0.99971010  1
  Cr  Cr22  1  0.83758315  0.50030217  0.16667239  1
  Cr  Cr23  1  0.66678578  0.33230784  0.33542860  1
  Cr  Cr24  1  0.66877975  0.66825652  0.99899905  1
  Fe  Fe25  1  0.83482966  0.83539220  0.16906769  1
  Fe  Fe26  1  0.66578333  0.67170755  0.33451826  1
  Fe  Fe27  1  0.16798672  0.16779303  0.50299376  1
  Ni  Ni28  1  0.00196389  0.99921880  0.66633945  1
  Cr  Cr29  1  0.16942492  0.16864070  0.83195835  1
  Ni  Ni30  1  0.16873121  0.50005549  0.49943104  1
  Ni  Ni31  1  0.00188609  0.33519979  0.66519720  1
  Cr  Cr32  1  0.16771236  0.50046540  0.83644670  1
  Ni  Ni33  1  0.16731922  0.83419034  0.50221937  1
  Ni  Ni34  1  1.00105695  0.66867610  0.66933084  1
  Fe  Fe35  1  0.16666806  0.83425218  0.83318062  1
  Ni  Ni36  1  0.50010546  0.16666848  0.50226120  1
  Ni  Ni37  1  0.33555783  0.00147576  0.66688908  1
  Ni  Ni38  1  0.50142772  0.16804687  0.83567355  1
  Ni  Ni39  1  0.49768629  0.50123864  0.49988658  1
  Ni  Ni40  1  0.33559790  0.33317902  0.66503407  1
  Ni  Ni41  1  0.50069681  0.49972006  0.83530154  1
  Ni  Ni42  1  0.50119907  0.83550383  0.50138573  1
  Cr  Cr43  1  0.33442857  0.66873338  0.66711856  1
  Fe  Fe44  1  0.50269764  0.83643750  0.83350283  1
  Fe  Fe45  1  0.83534496  0.16562989  0.50084037  1
  Ni  Ni46  1  0.66580466  1.00075896  0.66773586  1
  Cr  Cr47  1  0.83348543  0.16617539  0.83389146  1
  Cr  Cr48  1  0.83647809  0.50244376  0.50219163  1
  Cr  Cr49  1  0.66588416  0.33497683  0.66879468  1
  Fe  Fe50  1  0.83462790  0.50180050  0.83465694  1
  Cr  Cr51  1  0.83417115  0.83656438  0.49951758  1
  Fe  Fe52  1  0.66767017  0.66961479  0.66938463  1
  Ni  Ni53  1  0.83414118  0.83374237  0.83351991  1
" 