7626,Ni50Fe33Cr15_14,-234.857141843584, 201.172945106805,Ni50Fe33Cr15,"# generated using pymatgen
 data_CrFe2Ni3
_symmetry_space_group_name_H-M   'P 1'
_cell_length_a   7.43542523
_cell_length_b   7.43542523
_cell_length_c   10.51527920
_cell_angle_alpha   90.00000000
_cell_angle_beta   90.00000000
_cell_angle_gamma   90.00000000
_symmetry_Int_Tables_number   1
_chemical_formula_structural   CrFe2Ni3
_chemical_formula_sum   'Cr9 Fe18 Ni27'
_cell_volume   581.34297585
_cell_formula_units_Z   9
loop_
 _symmetry_equiv_pos_site_id
 _symmetry_equiv_pos_as_xyz
  1  'x, y, z'
loop_
 _atom_site_type_symbol
 _atom_site_label
 _atom_site_symmetry_multiplicity
 _atom_site_fract_x
 _atom_site_fract_y
 _atom_site_fract_z
 _atom_site_occupancy
  Ni  Ni0  1  1.00122654  0.00299395  0.00271033  1
  Ni  Ni1  1  0.16865887  0.16814277  0.16888464  1
  Fe  Fe2  1  0.00234157  1.00191391  0.33609467  1
  Ni  Ni3  1  1.00127059  0.33514147  1.00193339  1
  Fe  Fe4  1  0.16935922  0.50227629  0.16797331  1
  Cr  Cr5  1  0.00361839  0.33379560  0.33542450  1
  Ni  Ni6  1  0.99883213  0.66824767  0.00305275  1
  Fe  Fe7  1  0.16979218  0.83769118  0.16806567  1
  Cr  Cr8  1  1.00068425  0.66972148  0.33528081  1
  Ni  Ni9  1  0.33594848  0.00374962  0.00292239  1
  Ni  Ni10  1  0.50274968  0.16806845  0.16932260  1
  Ni  Ni11  1  0.33621456  0.00271454  0.33495209  1
  Cr  Cr12  1  0.33505691  0.33263721  0.00246607  1
  Fe  Fe13  1  0.50325697  0.50288413  0.16968534  1
  Ni  Ni14  1  0.33521112  0.33511360  0.33523961  1
  Fe  Fe15  1  0.33604131  0.67043212  0.00454153  1
  Ni  Ni16  1  0.50238164  0.83457857  0.16958873  1
  Ni  Ni17  1  0.33793124  0.66855220  0.33595344  1
  Ni  Ni18  1  0.66920465  1.00131053  1.00194626  1
  Ni  Ni19  1  0.83497169  0.16805911  0.16870792  1
  Ni  Ni20  1  0.66852881  1.00027892  0.33511593  1
  Fe  Fe21  1  0.67097353  0.33429802  1.00168069  1
  Fe  Fe22  1  0.83376203  0.50218404  0.16685552  1
  Fe  Fe23  1  0.66704708  0.33561715  0.33463152  1
  Ni  Ni24  1  0.67092252  0.66924874  0.00244344  1
  Ni  Ni25  1  0.83428318  0.83564290  0.16761837  1
  Ni  Ni26  1  0.66735126  0.67043943  0.33612272  1
  Ni  Ni27  1  0.16697074  0.16865884  0.50268739  1
  Ni  Ni28  1  1.00149545  0.00336880  0.66752050  1
  Ni  Ni29  1  0.16663054  0.16913605  0.83480805  1
  Fe  Fe30  1  0.17009481  0.50171705  0.50338890  1
  Fe  Fe31  1  1.00144866  0.33340691  0.66834645  1
  Cr  Cr32  1  0.16865557  0.50209642  0.83451310  1
  Ni  Ni33  1  0.16798319  0.83452721  0.50170712  1
  Fe  Fe34  1  1.00078940  0.66972910  0.66711264  1
  Cr  Cr35  1  0.16678604  0.83609207  0.83741196  1
  Cr  Cr36  1  0.50249183  0.17065931  0.49990769  1
  Cr  Cr37  1  0.33340397  0.00518161  0.66903739  1
  Ni  Ni38  1  0.50378301  0.17184016  0.83674510  1
  Fe  Fe39  1  0.50186014  0.50380898  0.50254745  1
  Ni  Ni40  1  0.33421882  0.33669793  0.66883531  1
  Ni  Ni41  1  0.50443519  0.50142271  0.83420532  1
  Fe  Fe42  1  0.50241737  0.83331143  0.49966858  1
  Fe  Fe43  1  0.33635339  0.66678033  0.66625577  1
  Cr  Cr44  1  0.50299936  0.83393455  0.83692830  1
  Ni  Ni45  1  0.83728573  0.16829092  0.50149536  1
  Cr  Cr46  1  0.67144636  1.00050154  0.66977316  1
  Ni  Ni47  1  0.83596714  0.16985067  0.83617646  1
  Fe  Fe48  1  0.83442375  0.50254656  0.50356542  1
  Fe  Fe49  1  0.66919359  0.33697060  0.67006092  1
  Fe  Fe50  1  0.83353611  0.50158545  0.83595908  1
  Ni  Ni51  1  0.83635252  0.83497343  0.50263149  1
  Ni  Ni52  1  0.67038788  0.66658744  0.66781268  1
  Fe  Fe53  1  0.83579827  0.83541958  0.83651343  1
" 