3948,Ni50Fe33Cr15_16,-234.974403239518, 200.113137884972,Ni50Fe33Cr15,"# generated using pymatgen
 data_CrFe2Ni3
_symmetry_space_group_name_H-M   'P 1'
_cell_length_a   7.43617193
_cell_length_b   7.43617193
_cell_length_c   10.51633520
_cell_angle_alpha   90.00000000
_cell_angle_beta   90.00000000
_cell_angle_gamma   90.00000000
_symmetry_Int_Tables_number   1
_chemical_formula_structural   CrFe2Ni3
_chemical_formula_sum   'Cr9 Fe18 Ni27'
_cell_volume   581.51813847
_cell_formula_units_Z   9
loop_
 _symmetry_equiv_pos_site_id
 _symmetry_equiv_pos_as_xyz
  1  'x, y, z'
loop_
 _atom_site_type_symbol
 _atom_site_label
 _atom_site_symmetry_multiplicity
 _atom_site_fract_x
 _atom_site_fract_y
 _atom_site_fract_z
 _atom_site_occupancy
  Ni  Ni0  1  1.00096867  1.00058561  1.00154169  1
  Cr  Cr1  1  0.16736672  0.16748687  0.16927758  1
  Ni  Ni2  1  1.00027959  0.99839869  0.33539860  1
  Ni  Ni3  1  1.00169903  0.33567565  1.00173884  1
  Cr  Cr4  1  0.16731226  0.50318404  0.16900538  1
  Fe  Fe5  1  1.00154403  0.33502847  0.33652861  1
  Ni  Ni6  1  1.00161051  0.67156363  1.00196727  1
  Ni  Ni7  1  0.16727312  0.83450790  0.16774935  1
  Fe  Fe8  1  0.00299164  0.66912982  0.33656307  1
  Fe  Fe9  1  0.33389241  0.00328419  1.00055260  1
  Ni  Ni10  1  0.50457564  0.16776385  0.16949565  1
  Ni  Ni11  1  0.33391367  0.99919958  0.33554339  1
  Ni  Ni12  1  0.33579816  0.33447279  1.00078436  1
  Cr  Cr13  1  0.50211177  0.50362587  0.16844032  1
  Ni  Ni14  1  0.33845764  0.33595548  0.33462543  1
  Fe  Fe15  1  0.33204808  0.66905493  0.99922985  1
  Cr  Cr16  1  0.50199122  0.83620347  0.16785918  1
  Ni  Ni17  1  0.33374384  0.67075736  0.33659249  1
  Fe  Fe18  1  0.67045410  0.00242238  0.99984041  1
  Ni  Ni19  1  0.83535721  0.16799991  0.16903072  1
  Fe  Fe20  1  0.66884697  0.00290023  0.33610995  1
  Cr  Cr21  1  0.66784942  0.33365115  1.00028955  1
  Fe  Fe22  1  0.83580307  0.50236321  0.16848024  1
  Ni  Ni23  1  0.67131317  0.33517190  0.33445800  1
  Fe  Fe24  1  0.67167179  0.66937941  0.99893646  1
  Fe  Fe25  1  0.83720399  0.83632609  0.16793962  1
  Fe  Fe26  1  0.66973225  0.66993522  0.33727148  1
  Cr  Cr27  1  0.16600272  0.16899521  0.50330728  1
  Ni  Ni28  1  0.00243505  1.00107154  0.66942915  1
  Ni  Ni29  1  0.16663939  0.17023902  0.83520148  1
  Ni  Ni30  1  0.16713869  0.50434985  0.50260126  1
  Ni  Ni31  1  1.00131986  0.33608789  0.66927532  1
  Fe  Fe32  1  0.16808668  0.50106038  0.83512750  1
  Ni  Ni33  1  0.16902565  0.83303039  0.50315681  1
  Ni  Ni34  1  0.00308905  0.66997841  0.66815772  1
  Fe  Fe35  1  0.16803971  0.83763561  0.83533972  1
  Cr  Cr36  1  0.50290625  0.16761678  0.50179824  1
  Fe  Fe37  1  0.33423496  1.00022568  0.67017463  1
  Ni  Ni38  1  0.50069236  0.16683958  0.83477881  1
  Cr  Cr39  1  0.50129319  0.50416813  0.50401220  1
  Ni  Ni40  1  0.33493134  0.33681765  0.67115042  1
  Fe  Fe41  1  0.50102464  0.50069269  0.83369808  1
  Ni  Ni42  1  0.50139668  0.83270738  0.50202539  1
  Ni  Ni43  1  0.33432524  0.66940737  0.66987185  1
  Ni  Ni44  1  0.50201274  0.83242421  0.83583554  1
  Ni  Ni45  1  0.83705845  0.16978225  0.50227837  1
  Cr  Cr46  1  0.67052758  0.00241025  0.66836591  1
  Ni  Ni47  1  0.83822229  0.16982256  0.83466559  1
  Fe  Fe48  1  0.83640950  0.50199918  0.50386303  1
  Ni  Ni49  1  0.66964422  0.33608540  0.67072027  1
  Fe  Fe50  1  0.83696765  0.50267896  0.83417338  1
  Fe  Fe51  1  0.83710783  0.83487803  0.50257005  1
  Ni  Ni52  1  0.66918893  0.66861885  0.66982122  1
  Fe  Fe53  1  0.83657587  0.83645554  0.83545719  1
" 