2787,Ni50Fe33Cr15_15,-234.76673032161, 204.98592645385,Ni50Fe33Cr15,"# generated using pymatgen
 data_CrFe2Ni3
_symmetry_space_group_name_H-M   'P 1'
_cell_length_a   7.43047721
_cell_length_b   7.43047721
_cell_length_c   10.50828164
_cell_angle_alpha   90.00000000
_cell_angle_beta   90.00000000
_cell_angle_gamma   90.00000000
_symmetry_Int_Tables_number   1
_chemical_formula_structural   CrFe2Ni3
_chemical_formula_sum   'Cr9 Fe18 Ni27'
_cell_volume   580.18315659
_cell_formula_units_Z   9
loop_
 _symmetry_equiv_pos_site_id
 _symmetry_equiv_pos_as_xyz
  1  'x, y, z'
loop_
 _atom_site_type_symbol
 _atom_site_label
 _atom_site_symmetry_multiplicity
 _atom_site_fract_x
 _atom_site_fract_y
 _atom_site_fract_z
 _atom_site_occupancy
  Cr  Cr0  1  0.00254880  0.00477959  0.00400092  1
  Fe  Fe1  1  0.16831356  0.17080751  0.17123755  1
  Ni  Ni2  1  0.00308923  0.00308562  0.33692294  1
  Ni  Ni3  1  0.99905185  0.33720899  1.00088542  1
  Fe  Fe4  1  0.16811737  0.50144464  0.16998797  1
  Fe  Fe5  1  0.00314217  0.33551047  0.33566357  1
  Ni  Ni6  1  0.00270295  0.66639875  0.00406957  1
  Fe  Fe7  1  0.16987528  0.83521856  0.17051695  1
  Ni  Ni8  1  1.00216830  0.66880758  0.33477766  1
  Ni  Ni9  1  0.33860122  1.00206081  0.00400084  1
  Ni  Ni10  1  0.50125217  0.16972210  0.17138399  1
  Ni  Ni11  1  0.33461931  0.00422033  0.33496586  1
  Cr  Cr12  1  0.33617586  0.33382693  1.00203285  1
  Ni  Ni13  1  0.50116500  0.50245260  0.17269092  1
  Ni  Ni14  1  0.33712554  0.33497778  0.33810768  1
  Ni  Ni15  1  0.33488936  0.67095303  0.00428198  1
  Fe  Fe16  1  0.50404564  0.83622007  0.17244908  1
  Ni  Ni17  1  0.33441047  0.66761362  0.33557705  1
  Fe  Fe18  1  0.66764988  0.00524586  0.00512863  1
  Ni  Ni19  1  0.83523217  0.16984771  0.17047052  1
  Ni  Ni20  1  0.67034300  0.00490782  0.33437242  1
  Ni  Ni21  1  0.67066444  0.33368193  0.00430966  1
  Ni  Ni22  1  0.83574251  0.50231588  0.16988882  1
  Fe  Fe23  1  0.66952967  0.33558977  0.33527714  1
  Cr  Cr24  1  0.66944791  0.66787430  0.00362215  1
  Ni  Ni25  1  0.83756189  0.83528308  0.17231260  1
  Ni  Ni26  1  0.67025794  0.66672836  0.33637636  1
  Ni  Ni27  1  0.17046424  0.16945932  0.50179468  1
  Fe  Fe28  1  0.00428939  0.00701659  0.66758957  1
  Ni  Ni29  1  0.17014720  0.16940121  0.83494650  1
  Fe  Fe30  1  0.16863399  0.50163691  0.50034458  1
  Fe  Fe31  1  0.00322938  0.33374249  0.66911858  1
  Fe  Fe32  1  0.16712214  0.50019682  0.83659979  1
  Fe  Fe33  1  0.16862817  0.83715079  0.50110587  1
  Cr  Cr34  1  1.00209636  0.66625127  0.66806382  1
  Cr  Cr35  1  0.17156165  0.83603167  0.83592359  1
  Fe  Fe36  1  0.50456252  0.16964626  0.50160602  1
  Ni  Ni37  1  0.33605204  0.00417047  0.66832090  1
  Ni  Ni38  1  0.50240032  0.16821058  0.83449713  1
  Fe  Fe39  1  0.50282751  0.49961436  0.50176924  1
  Fe  Fe40  1  0.33540970  0.33476177  0.66711036  1
  Cr  Cr41  1  0.50179648  0.50241267  0.83396825  1
  Cr  Cr42  1  0.50021806  0.83438645  0.50132685  1
  Ni  Ni43  1  0.33481125  0.66940816  0.66766095  1
  Fe  Fe44  1  0.50146600  0.83921192  0.83420848  1
  Ni  Ni45  1  0.83881576  0.17173662  0.50179129  1
  Fe  Fe46  1  0.66764338  0.00573401  0.66789540  1
  Ni  Ni47  1  0.83461514  0.17176711  0.83498751  1
  Ni  Ni48  1  0.83533478  0.50046005  0.50059757  1
  Ni  Ni49  1  0.67098444  0.33421480  0.66725813  1
  Ni  Ni50  1  0.83538230  0.49981437  0.83625491  1
  Cr  Cr51  1  0.83593513  0.83698644  0.50158640  1
  Fe  Fe52  1  0.66677108  0.66605286  0.66726203  1
  Cr  Cr53  1  0.83396337  0.83662563  0.83398575  1
" 