8385,Ni50Fe17Cr31_17,-227.58340013564, 173.780501455183,Ni50Fe17Cr31,"# generated using pymatgen
 data_Cr2FeNi3
_symmetry_space_group_name_H-M   'P 1'
_cell_length_a   7.47198174
_cell_length_b   7.47198174
_cell_length_c   10.56697791
_cell_angle_alpha   90.00000000
_cell_angle_beta   90.00000000
_cell_angle_gamma   90.00000000
_symmetry_Int_Tables_number   1
_chemical_formula_structural   Cr2FeNi3
_chemical_formula_sum   'Cr18 Fe9 Ni27'
_cell_volume   589.95977745
_cell_formula_units_Z   9
loop_
 _symmetry_equiv_pos_site_id
 _symmetry_equiv_pos_as_xyz
  1  'x, y, z'
loop_
 _atom_site_type_symbol
 _atom_site_label
 _atom_site_symmetry_multiplicity
 _atom_site_fract_x
 _atom_site_fract_y
 _atom_site_fract_z
 _atom_site_occupancy
  Fe  Fe0  1  0.00121423  0.00044124  0.00226514  1
  Ni  Ni1  1  0.16942408  0.16770016  0.16548206  1
  Cr  Cr2  1  0.99960284  0.00185082  0.33353461  1
  Fe  Fe3  1  0.00172574  0.33130548  0.00361340  1
  Ni  Ni4  1  0.16426307  0.49491282  0.16657619  1
  Ni  Ni5  1  0.00173108  0.33262461  0.33285157  1
  Cr  Cr6  1  0.00020037  0.66805336  0.00220875  1
  Ni  Ni7  1  0.16776185  0.83641739  0.16591506  1
  Cr  Cr8  1  0.00181900  0.66434329  0.33432902  1
  Ni  Ni9  1  0.33355568  0.00201556  0.00013777  1
  Ni  Ni10  1  0.49536778  0.16357915  0.16767234  1
  Ni  Ni11  1  0.33329196  0.00051037  0.33276177  1
  Ni  Ni12  1  0.33367297  0.33059807  0.00018707  1
  Fe  Fe13  1  0.49698910  0.49785063  0.16661808  1
  Ni  Ni14  1  0.33015824  0.33214464  0.33291746  1
  Cr  Cr15  1  0.33336701  0.66586633  0.00254204  1
  Ni  Ni16  1  0.49945747  0.83820693  0.16740663  1
  Cr  Cr17  1  0.33090259  0.66549261  0.33107109  1
  Cr  Cr18  1  0.66602815  0.00059877  0.00035328  1
  Fe  Fe19  1  0.83516146  0.16533192  0.16755959  1
  Ni  Ni20  1  0.66553758  -0.00031970  0.33156582  1
  Cr  Cr21  1  0.66386705  0.33122993  0.00113210  1
  Ni  Ni22  1  0.83611881  0.49897838  0.16651148  1
  Cr  Cr23  1  0.66788419  0.33068818  0.33182516  1
  Cr  Cr24  1  0.66514900  0.66695758  0.99864986  1
  Ni  Ni25  1  0.83196846  0.83272055  0.16658960  1
  Cr  Cr26  1  0.66610995  0.66718006  0.33318186  1
  Ni  Ni27  1  0.16472394  0.16774650  0.50049667  1
  Ni  Ni28  1  0.99944716  0.99927833  0.66485037  1
  Cr  Cr29  1  0.16797933  0.16668283  0.83310056  1
  Ni  Ni30  1  0.16401032  0.49590539  0.50003437  1
  Ni  Ni31  1  0.99860692  0.33219937  0.66282874  1
  Cr  Cr32  1  0.16524149  0.49648332  0.83312924  1
  Fe  Fe33  1  0.16713379  0.83466933  0.50080198  1
  Ni  Ni34  1  0.99961857  0.66751257  0.66346286  1
  Cr  Cr35  1  0.16511908  0.83586533  0.83323838  1
  Cr  Cr36  1  0.49766345  0.16494470  0.49834238  1
  Fe  Fe37  1  0.33142908  0.00071585  0.66524518  1
  Ni  Ni38  1  0.49683474  0.16667280  0.83166283  1
  Ni  Ni39  1  0.50016855  0.50056841  0.50087108  1
  Fe  Fe40  1  0.33276971  0.33242047  0.66484304  1
  Ni  Ni41  1  0.50027395  0.49784963  0.83125791  1
  Ni  Ni42  1  0.50005505  0.83343843  0.49867691  1
  Cr  Cr43  1  0.33338242  0.66564803  0.66556983  1
  Ni  Ni44  1  0.50072008  0.83445729  0.83260886  1
  Ni  Ni45  1  0.83588767  0.16827221  0.49931130  1
  Cr  Cr46  1  0.66673908  0.00170134  0.66696337  1
  Cr  Cr47  1  0.83555645  0.16680509  0.83375681  1
  Ni  Ni48  1  0.83483434  0.49858156  0.50280597  1
  Ni  Ni49  1  0.66544786  0.33385607  0.66614400  1
  Cr  Cr50  1  0.83362052  0.50105662  0.82989114  1
  Fe  Fe51  1  0.83254734  0.83339886  0.50109767  1
  Fe  Fe52  1  0.66772257  0.66584500  0.66505711  1
  Ni  Ni53  1  0.83230738  0.83231611  0.83066316  1
" 