876,Ni50Fe33Cr15_2,-235.200199110824, 207.441553582001,Ni50Fe33Cr15,"# generated using pymatgen
 data_CrFe2Ni3
_symmetry_space_group_name_H-M   'P 1'
_cell_length_a   7.43345777
_cell_length_b   7.43345777
_cell_length_c   10.51249680
_cell_angle_alpha   90.00000000
_cell_angle_beta   90.00000000
_cell_angle_gamma   90.00000000
_symmetry_Int_Tables_number   1
_chemical_formula_structural   CrFe2Ni3
_chemical_formula_sum   'Cr9 Fe18 Ni27'
_cell_volume   580.88161828
_cell_formula_units_Z   9
loop_
 _symmetry_equiv_pos_site_id
 _symmetry_equiv_pos_as_xyz
  1  'x, y, z'
loop_
 _atom_site_type_symbol
 _atom_site_label
 _atom_site_symmetry_multiplicity
 _atom_site_fract_x
 _atom_site_fract_y
 _atom_site_fract_z
 _atom_site_occupancy
  Ni  Ni0  1  1.00221264  0.00330667  1.00132181  1
  Ni  Ni1  1  0.17098775  0.16605741  0.17000863  1
  Ni  Ni2  1  0.00303709  0.00279799  0.33683942  1
  Cr  Cr3  1  0.00263347  0.33387101  0.99973925  1
  Fe  Fe4  1  0.17020740  0.50242986  0.17092227  1
  Ni  Ni5  1  0.00351306  0.33561585  0.33672440  1
  Cr  Cr6  1  1.00200416  0.66932344  0.00338015  1
  Ni  Ni7  1  0.17100842  0.83711362  0.17029325  1
  Fe  Fe8  1  0.00284940  0.66878681  0.33678309  1
  Fe  Fe9  1  0.33552931  1.00131323  0.00372044  1
  Ni  Ni10  1  0.50031727  0.16951522  0.17050259  1
  Ni  Ni11  1  0.33472928  0.00361797  0.33420793  1
  Cr  Cr12  1  0.33640265  0.33598155  0.00272786  1
  Ni  Ni13  1  0.50301770  0.50267453  0.17017574  1
  Ni  Ni14  1  0.33532043  0.33586129  0.33544179  1
  Ni  Ni15  1  0.33909170  0.66906236  0.00282874  1
  Fe  Fe16  1  0.50051215  0.83520944  0.16953452  1
  Ni  Ni17  1  0.33588436  0.66729813  0.33410256  1
  Fe  Fe18  1  0.66782869  1.00197773  1.00008302  1
  Cr  Cr19  1  0.83540533  0.16962279  0.16979934  1
  Ni  Ni20  1  0.66901193  1.00223563  0.33664364  1
  Fe  Fe21  1  0.66793513  0.33705021  1.00141971  1
  Ni  Ni22  1  0.83293686  0.50266278  0.17021501  1
  Fe  Fe23  1  0.66752958  0.33659507  0.33612312  1
  Ni  Ni24  1  0.66629176  0.66883279  1.00022138  1
  Cr  Cr25  1  0.83653846  0.83470573  0.17036813  1
  Ni  Ni26  1  0.66876702  0.66777457  0.33595597  1
  Fe  Fe27  1  0.16949455  0.17024091  0.50082399  1
  Cr  Cr28  1  0.99995859  1.00197766  0.66840925  1
  Ni  Ni29  1  0.16934307  0.16982184  0.83497210  1
  Fe  Fe30  1  0.16882289  0.50265730  0.50281972  1
  Fe  Fe31  1  0.00371610  0.33703630  0.66918295  1
  Ni  Ni32  1  0.17065930  0.50133336  0.83266345  1
  Fe  Fe33  1  0.16775762  0.83387846  0.50078786  1
  Ni  Ni34  1  1.00148964  0.66752809  0.66816886  1
  Cr  Cr35  1  0.16927497  0.83557893  0.83561839  1
  Fe  Fe36  1  0.50233539  0.16971681  0.50150596  1
  Fe  Fe37  1  0.33714600  0.00443930  0.66895538  1
  Ni  Ni38  1  0.50244591  0.16856026  0.83499125  1
  Ni  Ni39  1  0.50163329  0.50139056  0.50125318  1
  Ni  Ni40  1  0.33471819  0.33633308  0.66932789  1
  Ni  Ni41  1  0.50168348  0.50314679  0.83534614  1
  Cr  Cr42  1  0.50268645  0.83525747  0.50272463  1
  Fe  Fe43  1  0.33569637  0.66674712  0.66925359  1
  Fe  Fe44  1  0.50394799  0.83587026  0.83566764  1
  Fe  Fe45  1  0.83494329  0.16865604  0.50074109  1
  Ni  Ni46  1  0.66899254  1.00134070  0.67044977  1
  Ni  Ni47  1  0.83498732  0.16711231  0.83662806  1
  Ni  Ni48  1  0.83615020  0.50361013  0.50166219  1
  Cr  Cr49  1  0.66742447  0.33509234  0.66914248  1
  Fe  Fe50  1  0.83520458  0.50259980  0.83499009  1
  Ni  Ni51  1  0.83663861  0.83483002  0.50144736  1
  Fe  Fe52  1  0.67017655  0.66957085  0.66928514  1
  Ni  Ni53  1  0.83317553  0.83638554  0.83510373  1
" 