4258,Ni50Fe43Cr5_16,-238.617113745153, 218.687421439696,Ni50Fe43Cr5,"# generated using pymatgen
 data_Cr4Fe23Ni27
_symmetry_space_group_name_H-M   'P 1'
_cell_length_a   7.41283601
_cell_length_b   7.41283601
_cell_length_c   10.48333322
_cell_angle_alpha   90.00000000
_cell_angle_beta   90.00000000
_cell_angle_gamma   90.00000000
_symmetry_Int_Tables_number   1
_chemical_formula_structural   Cr4Fe23Ni27
_chemical_formula_sum   'Cr4 Fe23 Ni27'
_cell_volume   576.06060370
_cell_formula_units_Z   1
loop_
 _symmetry_equiv_pos_site_id
 _symmetry_equiv_pos_as_xyz
  1  'x, y, z'
loop_
 _atom_site_type_symbol
 _atom_site_label
 _atom_site_symmetry_multiplicity
 _atom_site_fract_x
 _atom_site_fract_y
 _atom_site_fract_z
 _atom_site_occupancy
  Ni  Ni0  1  1.00294529  0.00383870  0.00394769  1
  Ni  Ni1  1  0.16916918  0.17093906  0.17103284  1
  Ni  Ni2  1  0.00369664  0.00479635  0.33819774  1
  Ni  Ni3  1  1.00297745  0.33673444  0.00452193  1
  Ni  Ni4  1  0.16892722  0.50230052  0.17015962  1
  Ni  Ni5  1  0.00442275  0.33617888  0.33672645  1
  Fe  Fe6  1  0.00376159  0.66893694  1.00336390  1
  Fe  Fe7  1  0.17010818  0.83731663  0.17073428  1
  Fe  Fe8  1  0.00369950  0.67064685  0.33731881  1
  Fe  Fe9  1  0.33801732  1.00308527  0.00489563  1
  Fe  Fe10  1  0.50335919  0.16957219  0.17100423  1
  Ni  Ni11  1  0.33683808  1.00345626  0.33715262  1
  Ni  Ni12  1  0.33640685  0.33826181  1.00211442  1
  Cr  Cr13  1  0.50355281  0.50457834  0.17023972  1
  Ni  Ni14  1  0.33480105  0.33621443  0.33905165  1
  Ni  Ni15  1  0.33722657  0.67096755  1.00302347  1
  Ni  Ni16  1  0.50415443  0.83771663  0.17078082  1
  Fe  Fe17  1  0.33605035  0.67173768  0.33730291  1
  Fe  Fe18  1  0.67027826  1.00364093  0.00391582  1
  Ni  Ni19  1  0.83850200  0.17033634  0.17023540  1
  Ni  Ni20  1  0.67043607  1.00221468  0.33692760  1
  Ni  Ni21  1  0.67158848  0.33695854  1.00275247  1
  Ni  Ni22  1  0.83848784  0.50315390  0.16991127  1
  Fe  Fe23  1  0.67147811  0.33499254  0.33796381  1
  Ni  Ni24  1  0.66949237  0.67099359  1.00144436  1
  Fe  Fe25  1  0.83699403  0.83695365  0.17053320  1
  Ni  Ni26  1  0.67039942  0.67202669  0.33887970  1
  Ni  Ni27  1  0.17132098  0.16954642  0.50271886  1
  Fe  Fe28  1  1.00241759  1.00143795  0.66905258  1
  Cr  Cr29  1  0.17082595  0.17117931  0.83729351  1
  Fe  Fe30  1  0.16991387  0.50285113  0.50199753  1
  Cr  Cr31  1  1.00241495  0.33660577  0.66964364  1
  Ni  Ni32  1  0.17144429  0.50396426  0.83896554  1
  Ni  Ni33  1  0.16874860  0.83835710  0.50356670  1
  Fe  Fe34  1  1.00188131  0.67172864  0.67028934  1
  Fe  Fe35  1  0.17001661  0.83544025  0.83741546  1
  Ni  Ni36  1  0.50306680  0.17127992  0.50389133  1
  Fe  Fe37  1  0.33802211  0.00497975  0.66870192  1
  Fe  Fe38  1  0.50526795  0.17104864  0.83643311  1
  Fe  Fe39  1  0.50464039  0.50224582  0.50325471  1
  Fe  Fe40  1  0.33960534  0.33634800  0.66960597  1
  Ni  Ni41  1  0.50397604  0.50363024  0.83774020  1
  Fe  Fe42  1  0.50451607  0.83916848  0.50223660  1
  Cr  Cr43  1  0.33735392  0.67104383  0.67010145  1
  Ni  Ni44  1  0.50599459  0.83618567  0.83727579  1
  Ni  Ni45  1  0.83658341  0.16896318  0.50319968  1
  Fe  Fe46  1  0.67053210  0.00394456  0.66976465  1
  Fe  Fe47  1  0.83441852  0.16997309  0.83805713  1
  Fe  Fe48  1  0.83641398  0.50381401  0.50241387  1
  Ni  Ni49  1  0.66972407  0.33657511  0.67016317  1
  Fe  Fe50  1  0.83546411  0.50470912  0.83836981  1
  Ni  Ni51  1  0.83726947  0.83704751  0.50347289  1
  Fe  Fe52  1  0.67199097  0.67014130  0.67079213  1
  Ni  Ni53  1  0.83586155  0.83669811  0.83690663  1
" 