2045,Ni50Fe33Cr15_13,-235.01996040045, 201.574929066573,Ni50Fe33Cr15,"# generated using pymatgen
 data_CrFe2Ni3
_symmetry_space_group_name_H-M   'P 1'
_cell_length_a   7.43276806
_cell_length_b   7.43276806
_cell_length_c   10.51152139
_cell_angle_alpha   90.00000000
_cell_angle_beta   90.00000000
_cell_angle_gamma   90.00000000
_symmetry_Int_Tables_number   1
_chemical_formula_structural   CrFe2Ni3
_chemical_formula_sum   'Cr9 Fe18 Ni27'
_cell_volume   580.71994185
_cell_formula_units_Z   9
loop_
 _symmetry_equiv_pos_site_id
 _symmetry_equiv_pos_as_xyz
  1  'x, y, z'
loop_
 _atom_site_type_symbol
 _atom_site_label
 _atom_site_symmetry_multiplicity
 _atom_site_fract_x
 _atom_site_fract_y
 _atom_site_fract_z
 _atom_site_occupancy
  Ni  Ni0  1  0.00374733  0.00342690  1.00122626  1
  Ni  Ni1  1  0.16922116  0.17024394  0.16768626  1
  Cr  Cr2  1  0.00375179  0.00348810  0.33582134  1
  Fe  Fe3  1  1.00121474  0.33423166  0.00427039  1
  Ni  Ni4  1  0.16807661  0.50163435  0.16985819  1
  Ni  Ni5  1  0.00323837  0.33752013  0.33437521  1
  Fe  Fe6  1  1.00207851  0.66997972  1.00225265  1
  Ni  Ni7  1  0.17212213  0.83503931  0.16732176  1
  Fe  Fe8  1  0.00312573  0.66613537  0.33675055  1
  Ni  Ni9  1  0.33412604  0.00295999  0.00420908  1
  Fe  Fe10  1  0.50072052  0.16833163  0.16715219  1
  Fe  Fe11  1  0.33644866  1.00083240  0.33490841  1
  Fe  Fe12  1  0.33645643  0.33398161  0.00249721  1
  Fe  Fe13  1  0.50165584  0.50385085  0.16887377  1
  Fe  Fe14  1  0.33473876  0.33708209  0.33562343  1
  Fe  Fe15  1  0.33587268  0.67050699  0.00461558  1
  Ni  Ni16  1  0.50050257  0.83545537  0.16831722  1
  Ni  Ni17  1  0.33596309  0.66872917  0.33567036  1
  Ni  Ni18  1  0.66904649  0.00297325  0.00274544  1
  Ni  Ni19  1  0.83666089  0.17150526  0.16629836  1
  Cr  Cr20  1  0.66748221  1.00131324  0.33655956  1
  Fe  Fe21  1  0.66924946  0.33462048  1.00207771  1
  Ni  Ni22  1  0.83707507  0.50110029  0.16795971  1
  Cr  Cr23  1  0.66996006  0.33732755  0.33611086  1
  Ni  Ni24  1  0.66865243  0.66717184  0.00324093  1
  Cr  Cr25  1  0.83401932  0.83442335  0.16815356  1
  Ni  Ni26  1  0.66691583  0.66771021  0.33603679  1
  Cr  Cr27  1  0.16994993  0.16969509  0.50280016  1
  Ni  Ni28  1  0.00249763  1.00006008  0.67014468  1
  Fe  Fe29  1  0.17048765  0.16640911  0.83642812  1
  Ni  Ni30  1  0.16873445  0.50480051  0.50142083  1
  Cr  Cr31  1  1.00139664  0.33543580  0.66790048  1
  Cr  Cr32  1  0.16906894  0.50303991  0.83502787  1
  Ni  Ni33  1  0.17017077  0.83293212  0.50413471  1
  Ni  Ni34  1  0.00322856  0.67126012  0.66755759  1
  Fe  Fe35  1  0.16778715  0.83790532  0.83534216  1
  Ni  Ni36  1  0.50340378  0.16807861  0.50449627  1
  Ni  Ni37  1  0.33517116  0.00290479  0.66844139  1
  Ni  Ni38  1  0.50312508  0.16921655  0.83493700  1
  Ni  Ni39  1  0.50151746  0.50284373  0.50361459  1
  Ni  Ni40  1  0.33867312  0.33529024  0.66852757  1
  Fe  Fe41  1  0.50312459  0.49974408  0.83569947  1
  Ni  Ni42  1  0.50119248  0.83599451  0.50220079  1
  Fe  Fe43  1  0.33404882  0.66922983  0.66648623  1
  Cr  Cr44  1  0.50214613  0.83761743  0.83588722  1
  Ni  Ni45  1  0.83360189  0.16951336  0.50451819  1
  Ni  Ni46  1  0.66925071  0.00459973  0.66781265  1
  Fe  Fe47  1  0.83439098  0.16765436  0.83605893  1
  Ni  Ni48  1  0.83666395  0.50259103  0.50172992  1
  Ni  Ni49  1  0.66671364  0.33455691  0.66911968  1
  Fe  Fe50  1  0.83359491  0.50243963  0.83675018  1
  Fe  Fe51  1  0.83597188  0.83477380  0.50340491  1
  Cr  Cr52  1  0.66923277  0.66753970  0.66703216  1
  Fe  Fe53  1  0.83725488  0.83682126  0.83643611  1
" 