1015,Ni50Fe26Cr23_13,-231.978803101642, 192.315749565306,Ni50Fe26Cr23,"# generated using pymatgen
 data_Cr13Fe14Ni27
_symmetry_space_group_name_H-M   'P 1'
_cell_length_a   7.45091329
_cell_length_b   7.45091329
_cell_length_c   10.53718263
_cell_angle_alpha   90.00000000
_cell_angle_beta   90.00000000
_cell_angle_gamma   90.00000000
_symmetry_Int_Tables_number   1
_chemical_formula_structural   Cr13Fe14Ni27
_chemical_formula_sum   'Cr13 Fe14 Ni27'
_cell_volume   584.98337781
_cell_formula_units_Z   1
loop_
 _symmetry_equiv_pos_site_id
 _symmetry_equiv_pos_as_xyz
  1  'x, y, z'
loop_
 _atom_site_type_symbol
 _atom_site_label
 _atom_site_symmetry_multiplicity
 _atom_site_fract_x
 _atom_site_fract_y
 _atom_site_fract_z
 _atom_site_occupancy
  Ni  Ni0  1  1.00039970  0.00124827  0.99946087  1
  Ni  Ni1  1  0.16762927  0.16779950  0.16805316  1
  Fe  Fe2  1  1.00046023  0.00108346  0.33305872  1
  Ni  Ni3  1  1.00022973  0.33390633  0.99952485  1
  Ni  Ni4  1  0.16737272  0.50194342  0.16911086  1
  Cr  Cr5  1  0.00131614  0.33617156  0.33590556  1
  Cr  Cr6  1  0.00201085  0.66627827  0.00354702  1
  Fe  Fe7  1  0.16736135  0.83758000  0.16961902  1
  Fe  Fe8  1  0.00219689  0.66828441  0.33422964  1
  Cr  Cr9  1  0.33599676  1.00047593  1.00038861  1
  Ni  Ni10  1  0.50129907  0.16670004  0.16970861  1
  Ni  Ni11  1  0.33528055  0.00241980  0.33307298  1
  Cr  Cr12  1  0.33143000  0.33421727  1.00017385  1
  Cr  Cr13  1  0.50244868  0.49765601  0.16967955  1
  Ni  Ni14  1  0.33309741  0.33382030  0.33649416  1
  Cr  Cr15  1  0.33602591  0.66926986  1.00077304  1
  Fe  Fe16  1  0.50218551  0.83602640  0.16948243  1
  Ni  Ni17  1  0.33203513  0.66805204  0.33289693  1
  Ni  Ni18  1  0.66789052  0.99933777  1.00057866  1
  Cr  Cr19  1  0.83166564  0.16738056  0.16450208  1
  Ni  Ni20  1  0.66754546  0.00132489  0.33473401  1
  Ni  Ni21  1  0.66847010  0.33409702  0.99915882  1
  Fe  Fe22  1  0.83381194  0.49868408  0.16674915  1
  Ni  Ni23  1  0.66749452  0.33175640  0.33804047  1
  Ni  Ni24  1  0.66908330  0.66987682  0.99851699  1
  Fe  Fe25  1  0.83372392  0.83524473  0.16701895  1
  Cr  Cr26  1  0.67029376  0.66888763  0.33711954  1
  Fe  Fe27  1  0.16812446  0.16768734  0.50035491  1
  Fe  Fe28  1  0.00172196  1.00098014  0.66937442  1
  Fe  Fe29  1  0.16583940  0.16715770  0.83438246  1
  Ni  Ni30  1  0.16986922  0.50291698  0.50155368  1
  Cr  Cr31  1  1.00011443  0.33430441  0.66827426  1
  Fe  Fe32  1  0.16634373  0.50161709  0.83236593  1
  Cr  Cr33  1  0.16680142  0.83406553  0.50065838  1
  Ni  Ni34  1  1.00082778  0.66792798  0.66702016  1
  Ni  Ni35  1  0.16679507  0.83448892  0.83235768  1
  Ni  Ni36  1  0.49970301  0.16917908  0.49725914  1
  Fe  Fe37  1  0.33309880  0.00452769  0.66950056  1
  Ni  Ni38  1  0.50180531  0.16995882  0.83558427  1
  Fe  Fe39  1  0.49907947  0.50092470  0.50107020  1
  Ni  Ni40  1  0.33353616  0.33457653  0.66601454  1
  Ni  Ni41  1  0.50142023  0.50024045  0.83196724  1
  Cr  Cr42  1  0.49891938  0.83480040  0.50366281  1
  Ni  Ni43  1  0.33236702  0.66670732  0.67048238  1
  Fe  Fe44  1  0.50414382  0.83360739  0.83264067  1
  Ni  Ni45  1  0.83343331  0.16502008  0.49879279  1
  Cr  Cr46  1  0.66947291  1.00072234  0.66835994  1
  Ni  Ni47  1  0.83364924  0.16647666  0.83838599  1
  Ni  Ni48  1  0.83646353  0.50226528  0.50040877  1
  Cr  Cr49  1  0.66784089  0.33246152  0.66437692  1
  Ni  Ni50  1  0.83254650  0.50153934  0.83711967  1
  Ni  Ni51  1  0.83718924  0.83530791  0.50163752  1
  Fe  Fe52  1  0.67040776  0.66535074  0.66892694  1
  Ni  Ni53  1  0.83819708  0.83413109  0.83433545  1
" 