3570,Ni50Fe17Cr31_13,-227.793889241134, 173.752438404339,Ni50Fe17Cr31,"# generated using pymatgen
 data_Cr2FeNi3
_symmetry_space_group_name_H-M   'P 1'
_cell_length_a   7.47260034
_cell_length_b   7.47260034
_cell_length_c   10.56785275
_cell_angle_alpha   90.00000000
_cell_angle_beta   90.00000000
_cell_angle_gamma   90.00000000
_symmetry_Int_Tables_number   1
_chemical_formula_structural   Cr2FeNi3
_chemical_formula_sum   'Cr18 Fe9 Ni27'
_cell_volume   590.10631707
_cell_formula_units_Z   9
loop_
 _symmetry_equiv_pos_site_id
 _symmetry_equiv_pos_as_xyz
  1  'x, y, z'
loop_
 _atom_site_type_symbol
 _atom_site_label
 _atom_site_symmetry_multiplicity
 _atom_site_fract_x
 _atom_site_fract_y
 _atom_site_fract_z
 _atom_site_occupancy
  Cr  Cr0  1  0.00087926  0.99809995  0.00039847  1
  Ni  Ni1  1  0.17004253  0.16866465  0.16613332  1
  Cr  Cr2  1  0.99954389  0.99810866  0.33232213  1
  Cr  Cr3  1  0.00123811  0.33460194  0.99654837  1
  Ni  Ni4  1  0.16906008  0.50156731  0.16584719  1
  Cr  Cr5  1  -0.00012946  0.33252008  0.33346232  1
  Ni  Ni6  1  0.00375121  0.66551459  0.99858897  1
  Ni  Ni7  1  0.16852125  0.82881644  0.16659545  1
  Ni  Ni8  1  0.00189400  0.66571523  0.33163797  1
  Cr  Cr9  1  0.33405470  0.99721502  0.99934442  1
  Ni  Ni10  1  0.49850785  0.16855424  0.16452485  1
  Cr  Cr11  1  0.33489427  0.99781705  0.33231343  1
  Fe  Fe12  1  0.33451260  0.33490481  0.99850874  1
  Ni  Ni13  1  0.49695913  0.49886791  0.16747258  1
  Fe  Fe14  1  0.33501517  0.33367365  0.33197165  1
  Ni  Ni15  1  0.33232348  0.66468797  -0.00000511  1
  Ni  Ni16  1  0.49790020  0.83184252  0.16562783  1
  Ni  Ni17  1  0.33552213  0.66452387  0.33158473  1
  Ni  Ni18  1  0.66362828  0.00131497  0.99821417  1
  Cr  Cr19  1  0.82966141  0.16732642  0.16493175  1
  Cr  Cr20  1  0.66463497  -0.00029232  0.33338589  1
  Ni  Ni21  1  0.66283372  0.33237447  0.99868558  1
  Cr  Cr22  1  0.83208593  0.50044443  0.16575521  1
  Fe  Fe23  1  0.66205875  0.33435054  0.33334497  1
  Cr  Cr24  1  0.66201991  0.66596789  0.99732895  1
  Cr  Cr25  1  0.83223994  0.83115044  0.16512262  1
  Fe  Fe26  1  0.66387087  0.66698234  0.33336988  1
  Cr  Cr27  1  0.16798707  0.16736433  0.50211024  1
  Cr  Cr28  1  0.99662222  0.00022132  0.66615465  1
  Ni  Ni29  1  0.16650362  0.16689429  0.83140749  1
  Cr  Cr30  1  0.16728133  0.50116917  0.50038433  1
  Ni  Ni31  1  0.99838604  0.33436207  0.66853071  1
  Ni  Ni32  1  0.16662564  0.50232122  0.83259082  1
  Cr  Cr33  1  0.16801200  0.83021967  0.50093231  1
  Ni  Ni34  1  0.00017411  0.66570211  0.66893164  1
  Ni  Ni35  1  0.16771570  0.82976097  0.83216771  1
  Ni  Ni36  1  0.50187151  0.16528377  0.50004064  1
  Fe  Fe37  1  0.33534619  0.99867345  0.66858251  1
  Ni  Ni38  1  0.50175667  0.16556182  0.83411469  1
  Fe  Fe39  1  0.49952531  0.50153351  0.49886034  1
  Cr  Cr40  1  0.33433756  0.33501534  0.66831807  1
  Ni  Ni41  1  0.49818070  0.50073606  0.83334621  1
  Ni  Ni42  1  0.50142919  0.83194861  0.50209150  1
  Ni  Ni43  1  0.33494086  0.66717820  0.66776529  1
  Ni  Ni44  1  0.49928997  0.83292243  0.83105553  1
  Ni  Ni45  1  0.82968317  0.16618465  0.50020580  1
  Ni  Ni46  1  0.66463850  0.99895998  0.66647910  1
  Ni  Ni47  1  0.83086012  0.16643278  0.83284925  1
  Cr  Cr48  1  0.83320612  0.50152265  0.49982700  1
  Cr  Cr49  1  0.66649035  0.33217490  0.66655999  1
  Fe  Fe50  1  0.83298512  0.49998955  0.83267636  1
  Ni  Ni51  1  0.83021680  0.83138836  0.50062467  1
  Fe  Fe52  1  0.66607878  0.66771668  0.66775341  1
  Fe  Fe53  1  0.83226805  0.83338390  0.83256028  1
" 