8446,Ni50Fe25Cr24_3,-231.062963384844, 183.626391918417,Ni50Fe25Cr24,"# generated using pymatgen
 data_Cr14Fe13Ni27
_symmetry_space_group_name_H-M   'P 1'
_cell_length_a   7.46006062
_cell_length_b   7.46006062
_cell_length_c   10.55011890
_cell_angle_alpha   90.00000000
_cell_angle_beta   90.00000000
_cell_angle_gamma   90.00000000
_symmetry_Int_Tables_number   1
_chemical_formula_structural   Cr14Fe13Ni27
_chemical_formula_sum   'Cr14 Fe13 Ni27'
_cell_volume   587.14053847
_cell_formula_units_Z   1
loop_
 _symmetry_equiv_pos_site_id
 _symmetry_equiv_pos_as_xyz
  1  'x, y, z'
loop_
 _atom_site_type_symbol
 _atom_site_label
 _atom_site_symmetry_multiplicity
 _atom_site_fract_x
 _atom_site_fract_y
 _atom_site_fract_z
 _atom_site_occupancy
  Ni  Ni0  1  0.99757457  0.00285919  0.00151044  1
  Fe  Fe1  1  0.16690133  0.16826716  0.16799408  1
  Ni  Ni2  1  0.00203226  0.99997398  0.33273700  1
  Ni  Ni3  1  0.00147549  0.33306495  0.99931407  1
  Ni  Ni4  1  0.16732435  0.50116091  0.16687733  1
  Ni  Ni5  1  0.00302270  0.33334331  0.33299679  1
  Fe  Fe6  1  0.00179771  0.66650059  0.00271784  1
  Ni  Ni7  1  0.16374317  0.83204004  0.16816847  1
  Ni  Ni8  1  0.00299401  0.66813963  0.33350112  1
  Cr  Cr9  1  0.33206564  0.00389054  0.00155414  1
  Ni  Ni10  1  0.50280281  0.17051573  0.16759099  1
  Ni  Ni11  1  0.33027363  0.00208610  0.33358944  1
  Ni  Ni12  1  0.33135162  0.33548422  1.00037316  1
  Ni  Ni13  1  0.49794908  0.49592923  0.16760563  1
  Ni  Ni14  1  0.33175612  0.33364558  0.33270379  1
  Ni  Ni15  1  0.33157226  0.66234421  0.00271872  1
  Cr  Cr16  1  0.49751845  0.83487624  0.16857155  1
  Ni  Ni17  1  0.32955811  0.66559211  0.33274530  1
  Ni  Ni18  1  0.67178989  0.00259568  0.99885057  1
  Fe  Fe19  1  0.83425057  0.16662800  0.16698573  1
  Ni  Ni20  1  0.66934420  0.00204231  0.33277701  1
  Fe  Fe21  1  0.66749851  0.33083069  0.00122762  1
  Fe  Fe22  1  0.83630815  0.49911166  0.16746776  1
  Ni  Ni23  1  0.66696734  0.33265908  0.32896107  1
  Cr  Cr24  1  0.66847388  0.66655472  0.00204895  1
  Ni  Ni25  1  0.83831971  0.83664815  0.16714825  1
  Cr  Cr26  1  0.66806314  0.66683592  0.33254147  1
  Ni  Ni27  1  0.16690476  0.16610152  0.49886432  1
  Cr  Cr28  1  0.00090784  0.00174345  0.66658243  1
  Ni  Ni29  1  0.16490708  0.16926679  0.83399066  1
  Fe  Fe30  1  0.16755640  0.50029102  0.49869619  1
  Fe  Fe31  1  0.00185068  0.33417606  0.66926059  1
  Fe  Fe32  1  0.16501538  0.49803304  0.83523236  1
  Ni  Ni33  1  0.16713873  0.83329854  0.49871756  1
  Fe  Fe34  1  0.00206710  0.66632877  0.66641150  1
  Cr  Cr35  1  0.16722662  0.83256645  0.83653447  1
  Cr  Cr36  1  0.50037373  0.16698633  0.50133724  1
  Ni  Ni37  1  0.33270156  0.00196903  0.66725505  1
  Fe  Fe38  1  0.50165936  0.16789554  0.83331989  1
  Cr  Cr39  1  0.49885703  0.49859239  0.49879971  1
  Fe  Fe40  1  0.33193197  0.33139820  0.66791210  1
  Cr  Cr41  1  0.49940629  0.49869079  0.83437892  1
  Cr  Cr42  1  0.49684072  0.83573815  0.49958020  1
  Ni  Ni43  1  0.33004250  0.66569839  0.66598348  1
  Cr  Cr44  1  0.49881854  0.83584043  0.83328182  1
  Cr  Cr45  1  0.83427423  0.16835346  0.49786586  1
  Ni  Ni46  1  0.66764493  0.00239773  0.66973494  1
  Ni  Ni47  1  0.83377421  0.16959851  0.83500958  1
  Cr  Cr48  1  0.83639672  0.49775667  0.49923108  1
  Ni  Ni49  1  0.66851471  0.33234724  0.67107531  1
  Ni  Ni50  1  0.83665938  0.49653948  0.83433644  1
  Fe  Fe51  1  0.83667058  0.83603273  0.49818415  1
  Cr  Cr52  1  0.66958997  0.66810545  0.66665616  1
  Fe  Fe53  1  0.83482814  0.83592176  0.83577752  1
" 