6490,Ni50Fe43Cr5_17,-238.485948815623, 215.621400377594,Ni50Fe43Cr5,"# generated using pymatgen
 data_Cr4Fe23Ni27
_symmetry_space_group_name_H-M   'P 1'
_cell_length_a   7.41224360
_cell_length_b   7.41224360
_cell_length_c   10.48249543
_cell_angle_alpha   90.00000000
_cell_angle_beta   90.00000000
_cell_angle_gamma   90.00000000
_symmetry_Int_Tables_number   1
_chemical_formula_structural   Cr4Fe23Ni27
_chemical_formula_sum   'Cr4 Fe23 Ni27'
_cell_volume   575.92250460
_cell_formula_units_Z   1
loop_
 _symmetry_equiv_pos_site_id
 _symmetry_equiv_pos_as_xyz
  1  'x, y, z'
loop_
 _atom_site_type_symbol
 _atom_site_label
 _atom_site_symmetry_multiplicity
 _atom_site_fract_x
 _atom_site_fract_y
 _atom_site_fract_z
 _atom_site_occupancy
  Fe  Fe0  1  0.00448786  0.00415429  0.00476258  1
  Fe  Fe1  1  0.16784105  0.17099404  0.17057221  1
  Ni  Ni2  1  1.00269372  0.00370075  0.33578167  1
  Ni  Ni3  1  1.00258888  0.33670627  0.00370208  1
  Ni  Ni4  1  0.16967855  0.50372875  0.17093975  1
  Fe  Fe5  1  0.00405403  0.33787763  0.33647031  1
  Ni  Ni6  1  0.00521717  0.66970386  0.00441205  1
  Fe  Fe7  1  0.16946079  0.83576696  0.17051027  1
  Ni  Ni8  1  0.00562837  0.67133895  0.33724555  1
  Fe  Fe9  1  0.33590537  1.00262974  1.00195241  1
  Cr  Cr10  1  0.50339855  0.17040604  0.17111006  1
  Fe  Fe11  1  0.33582171  1.00233006  0.33824009  1
  Fe  Fe12  1  0.33538966  0.33884605  1.00322350  1
  Fe  Fe13  1  0.50292939  0.50472475  0.17013584  1
  Ni  Ni14  1  0.33605190  0.33867248  0.33707950  1
  Ni  Ni15  1  0.33664748  0.67074923  0.00405621  1
  Fe  Fe16  1  0.50326886  0.83535410  0.16919835  1
  Ni  Ni17  1  0.33520339  0.66900826  0.33680078  1
  Fe  Fe18  1  0.67070009  1.00329839  0.00388720  1
  Fe  Fe19  1  0.83875912  0.17065695  0.17023914  1
  Ni  Ni20  1  0.67286474  0.00454581  0.33817369  1
  Ni  Ni21  1  0.67212435  0.33745614  1.00327858  1
  Ni  Ni22  1  0.83894161  0.50388864  0.16967507  1
  Fe  Fe23  1  0.67119405  0.33683839  0.33783388  1
  Fe  Fe24  1  0.67052436  0.66877650  0.00425389  1
  Ni  Ni25  1  0.83789513  0.83746102  0.16946224  1
  Cr  Cr26  1  0.67011529  0.67028988  0.33625874  1
  Fe  Fe27  1  0.17103415  0.17153344  0.50288121  1
  Cr  Cr28  1  0.00427309  1.00364959  0.67033848  1
  Fe  Fe29  1  0.17108082  0.17099780  0.83763835  1
  Ni  Ni30  1  0.17057002  0.50391952  0.50381349  1
  Fe  Fe31  1  1.00361864  0.33918161  0.67101261  1
  Ni  Ni32  1  0.16986893  0.50318695  0.83634072  1
  Ni  Ni33  1  0.17063260  0.83628727  0.50269492  1
  Fe  Fe34  1  0.00449200  0.66798238  0.66940784  1
  Ni  Ni35  1  0.17333200  0.83627307  0.83810326  1
  Fe  Fe36  1  0.50377418  0.17087993  0.50386615  1
  Ni  Ni37  1  0.33804846  1.00318265  0.67018305  1
  Fe  Fe38  1  0.50371273  0.17027609  0.83662591  1
  Ni  Ni39  1  0.50265935  0.50126692  0.50415204  1
  Ni  Ni40  1  0.33747024  0.33787463  0.67154776  1
  Fe  Fe41  1  0.50343969  0.50471391  0.83620720  1
  Fe  Fe42  1  0.50306049  0.83649923  0.50535619  1
  Ni  Ni43  1  0.33738588  0.67003626  0.67023228  1
  Ni  Ni44  1  0.50201078  0.83923131  0.83665016  1
  Fe  Fe45  1  0.83628308  0.17096937  0.50294541  1
  Ni  Ni46  1  0.66884331  0.00434978  0.66963854  1
  Fe  Fe47  1  0.83629899  0.17292184  0.83790280  1
  Ni  Ni48  1  0.83786319  0.50337826  0.50478294  1
  Ni  Ni49  1  0.67022812  0.33751428  0.67002768  1
  Ni  Ni50  1  0.83786532  0.50181792  0.83663159  1
  Ni  Ni51  1  0.83723311  0.83739383  0.50394785  1
  Ni  Ni52  1  0.66913781  0.66922992  0.67029505  1
  Cr  Cr53  1  0.83602783  0.83517859  0.83715119  1
" 