7805,Ni50Fe47Cr2_7,-239.847983292171, 221.921715017344,Ni50Fe47Cr2,"# generated using pymatgen
 data_Cr2Fe25Ni27
_symmetry_space_group_name_H-M   'P 1'
_cell_length_a   7.40648928
_cell_length_b   7.40648928
_cell_length_c   10.47435759
_cell_angle_alpha   90.00000000
_cell_angle_beta   90.00000000
_cell_angle_gamma   90.00000000
_symmetry_Int_Tables_number   1
_chemical_formula_structural   Cr2Fe25Ni27
_chemical_formula_sum   'Cr2 Fe25 Ni27'
_cell_volume   574.58223443
_cell_formula_units_Z   1
loop_
 _symmetry_equiv_pos_site_id
 _symmetry_equiv_pos_as_xyz
  1  'x, y, z'
loop_
 _atom_site_type_symbol
 _atom_site_label
 _atom_site_symmetry_multiplicity
 _atom_site_fract_x
 _atom_site_fract_y
 _atom_site_fract_z
 _atom_site_occupancy
  Fe  Fe0  1  1.00375350  0.00508316  0.00444671  1
  Ni  Ni1  1  0.17126223  0.17176688  0.17093789  1
  Fe  Fe2  1  0.00410735  1.00400668  0.33720281  1
  Ni  Ni3  1  0.00431240  0.33750924  1.00330916  1
  Ni  Ni4  1  0.17067589  0.50346481  0.17051113  1
  Ni  Ni5  1  0.00411789  0.33664265  0.33763756  1
  Fe  Fe6  1  0.00435673  0.67003198  0.00423101  1
  Ni  Ni7  1  0.16962981  0.83703603  0.16937649  1
  Fe  Fe8  1  1.00218607  0.67052656  0.33727997  1
  Fe  Fe9  1  0.33796297  0.00538446  1.00375442  1
  Ni  Ni10  1  0.50425934  0.17167174  0.17094616  1
  Fe  Fe11  1  0.33691610  0.00557055  0.33810377  1
  Ni  Ni12  1  0.33539256  0.33770774  0.00573976  1
  Fe  Fe13  1  0.50439507  0.50291878  0.16944473  1
  Fe  Fe14  1  0.33708849  0.33590887  0.33698821  1
  Ni  Ni15  1  0.33604768  0.67149735  0.00425347  1
  Fe  Fe16  1  0.50464072  0.83883278  0.16990213  1
  Cr  Cr17  1  0.33744116  0.67120111  0.33814415  1
  Ni  Ni18  1  0.67106209  0.00410710  1.00394905  1
  Ni  Ni19  1  0.83674531  0.17061942  0.17072036  1
  Fe  Fe20  1  0.67124245  1.00408154  0.33713895  1
  Ni  Ni21  1  0.67256596  0.33514118  0.00486127  1
  Fe  Fe22  1  0.83831153  0.50326648  0.17157923  1
  Fe  Fe23  1  0.67150198  0.33783378  0.33708915  1
  Fe  Fe24  1  0.67132310  0.67127619  0.00518936  1
  Ni  Ni25  1  0.83718175  0.83698382  0.17230645  1
  Ni  Ni26  1  0.67210499  0.67194529  0.33720290  1
  Ni  Ni27  1  0.17057535  0.17069514  0.50333995  1
  Fe  Fe28  1  0.00462936  0.00494147  0.67061671  1
  Ni  Ni29  1  0.17061630  0.17203898  0.83798622  1
  Fe  Fe30  1  0.16945461  0.50283825  0.50499616  1
  Fe  Fe31  1  0.00451425  0.33612838  0.67057396  1
  Ni  Ni32  1  0.16996704  0.50341082  0.83680834  1
  Ni  Ni33  1  0.17131551  0.83822458  0.50532267  1
  Fe  Fe34  1  0.00458893  0.67119659  0.67075416  1
  Fe  Fe35  1  0.17132038  0.83796534  0.83728146  1
  Fe  Fe36  1  0.50377350  0.17012123  0.50481145  1
  Ni  Ni37  1  0.33848738  1.00396726  0.67115403  1
  Ni  Ni38  1  0.50426377  0.16910815  0.83679079  1
  Fe  Fe39  1  0.50500477  0.50337652  0.50496274  1
  Ni  Ni40  1  0.33546438  0.33656990  0.66926520  1
  Cr  Cr41  1  0.50302635  0.50389282  0.83762785  1
  Ni  Ni42  1  0.50437255  0.83715766  0.50492452  1
  Fe  Fe43  1  0.33708460  0.67254707  0.67014912  1
  Ni  Ni44  1  0.50507094  0.83862815  0.83810361  1
  Ni  Ni45  1  0.83773759  0.17196837  0.50395189  1
  Ni  Ni46  1  0.67044026  1.00341599  0.67039189  1
  Ni  Ni47  1  0.83738798  0.17006529  0.83758745  1
  Ni  Ni48  1  0.83667208  0.50376451  0.50405934  1
  Fe  Fe49  1  0.67109574  0.33532171  0.67021029  1
  Fe  Fe50  1  0.83907037  0.50331604  0.83717017  1
  Fe  Fe51  1  0.83739300  0.83766636  0.50405726  1
  Fe  Fe52  1  0.67058761  0.67243754  0.66915935  1
  Ni  Ni53  1  0.83626276  0.83798219  0.83645965  1
" 