6411,Ni50Fe33Cr15_0,-235.029638407016, 204.33046019621,Ni50Fe33Cr15,"# generated using pymatgen
 data_CrFe2Ni3
_symmetry_space_group_name_H-M   'P 1'
_cell_length_a   7.43434648
_cell_length_b   7.43434648
_cell_length_c   10.51375362
_cell_angle_alpha   90.00000000
_cell_angle_beta   90.00000000
_cell_angle_gamma   90.00000000
_symmetry_Int_Tables_number   1
_chemical_formula_structural   CrFe2Ni3
_chemical_formula_sum   'Cr9 Fe18 Ni27'
_cell_volume   581.08998534
_cell_formula_units_Z   9
loop_
 _symmetry_equiv_pos_site_id
 _symmetry_equiv_pos_as_xyz
  1  'x, y, z'
loop_
 _atom_site_type_symbol
 _atom_site_label
 _atom_site_symmetry_multiplicity
 _atom_site_fract_x
 _atom_site_fract_y
 _atom_site_fract_z
 _atom_site_occupancy
  Ni  Ni0  1  0.00277706  0.00274210  1.00200032  1
  Fe  Fe1  1  0.16853039  0.16874486  0.16875292  1
  Ni  Ni2  1  0.00386897  0.00324028  0.33495485  1
  Ni  Ni3  1  0.00317979  0.33432413  0.00224930  1
  Ni  Ni4  1  0.16670025  0.50160401  0.17068901  1
  Ni  Ni5  1  0.00339338  0.33514773  0.33702746  1
  Fe  Fe6  1  1.00013045  0.67006547  0.00308670  1
  Fe  Fe7  1  0.16814737  0.83642867  0.16983246  1
  Fe  Fe8  1  0.00329544  0.66817862  0.33487709  1
  Ni  Ni9  1  0.33420245  0.00281267  1.00095778  1
  Cr  Cr10  1  0.50175957  0.16729577  0.16852474  1
  Fe  Fe11  1  0.33523933  1.00195339  0.33653249  1
  Ni  Ni12  1  0.33351621  0.33397438  1.00190546  1
  Cr  Cr13  1  0.50096298  0.50127592  0.16772331  1
  Fe  Fe14  1  0.33437203  0.33484350  0.33720404  1
  Cr  Cr15  1  0.33784636  0.66997541  0.00268898  1
  Ni  Ni16  1  0.50308427  0.83706688  0.16897906  1
  Fe  Fe17  1  0.33376389  0.66980152  0.33635258  1
  Ni  Ni18  1  0.66961662  0.99924236  1.00108379  1
  Cr  Cr19  1  0.83575430  0.16744582  0.16964526  1
  Ni  Ni20  1  0.66874086  0.00223300  0.33658263  1
  Fe  Fe21  1  0.66934854  0.33502512  0.99982098  1
  Fe  Fe22  1  0.83737670  0.50318419  0.16874947  1
  Ni  Ni23  1  0.67004148  0.33533085  0.33793439  1
  Ni  Ni24  1  0.66996957  0.67021336  1.00129168  1
  Ni  Ni25  1  0.83646576  0.83532813  0.16746324  1
  Cr  Cr26  1  0.66700977  0.66911038  0.33552261  1
  Ni  Ni27  1  0.17031415  0.17018637  0.50163015  1
  Cr  Cr28  1  0.00236047  0.00367588  0.66974490  1
  Fe  Fe29  1  0.16971779  0.16763310  0.83655958  1
  Fe  Fe30  1  0.16899446  0.50134218  0.50127620  1
  Fe  Fe31  1  1.00059795  0.33624733  0.66802728  1
  Cr  Cr32  1  0.16773657  0.50061581  0.83447693  1
  Ni  Ni33  1  0.16985600  0.83545390  0.50079700  1
  Fe  Fe34  1  0.99984792  0.66734307  0.66863613  1
  Fe  Fe35  1  0.16810699  0.83877445  0.83606162  1
  Ni  Ni36  1  0.50165651  0.16944448  0.50216281  1
  Fe  Fe37  1  0.33853171  0.00385321  0.66875717  1
  Ni  Ni38  1  0.50249892  0.16828241  0.83587154  1
  Ni  Ni39  1  0.50220214  0.49977083  0.50281275  1
  Ni  Ni40  1  0.33632300  0.33484284  0.66778230  1
  Fe  Fe41  1  0.50579632  0.50067070  0.83499943  1
  Ni  Ni42  1  0.50091674  0.83738616  0.50204653  1
  Cr  Cr43  1  0.33787383  0.66922206  0.66747433  1
  Ni  Ni44  1  0.50485225  0.83810503  0.83557095  1
  Fe  Fe45  1  0.83406626  0.17083903  0.50118567  1
  Ni  Ni46  1  0.66787700  0.00226438  0.66893301  1
  Ni  Ni47  1  0.83404157  0.16856299  0.83579112  1
  Ni  Ni48  1  0.83656443  0.50022458  0.50314498  1
  Ni  Ni49  1  0.66842335  0.33640339  0.66861340  1
  Fe  Fe50  1  0.83296973  0.50228454  0.83499034  1
  Cr  Cr51  1  0.83510513  0.83547217  0.50251174  1
  Ni  Ni52  1  0.66827050  0.66793055  0.66970556  1
  Ni  Ni53  1  0.83416820  0.83534370  0.83676770  1
" 