8462,Ni50Fe26Cr23_8,-232.163611412017, 194.714124428722,Ni50Fe26Cr23,"# generated using pymatgen
 data_Cr13Fe14Ni27
_symmetry_space_group_name_H-M   'P 1'
_cell_length_a   7.45013597
_cell_length_b   7.45013597
_cell_length_c   10.53608333
_cell_angle_alpha   90.00000000
_cell_angle_beta   90.00000000
_cell_angle_gamma   90.00000000
_symmetry_Int_Tables_number   1
_chemical_formula_structural   Cr13Fe14Ni27
_chemical_formula_sum   'Cr13 Fe14 Ni27'
_cell_volume   584.80031103
_cell_formula_units_Z   1
loop_
 _symmetry_equiv_pos_site_id
 _symmetry_equiv_pos_as_xyz
  1  'x, y, z'
loop_
 _atom_site_type_symbol
 _atom_site_label
 _atom_site_symmetry_multiplicity
 _atom_site_fract_x
 _atom_site_fract_y
 _atom_site_fract_z
 _atom_site_occupancy
  Fe  Fe0  1  0.00400497  1.00086156  0.00117018  1
  Ni  Ni1  1  0.16721842  0.16720644  0.16621121  1
  Ni  Ni2  1  0.00199807  1.00084937  0.33388995  1
  Fe  Fe3  1  0.00269757  0.33730897  0.00377280  1
  Ni  Ni4  1  0.16774109  0.50045618  0.16666442  1
  Ni  Ni5  1  0.99792322  0.33241931  0.33250885  1
  Ni  Ni6  1  1.00019222  0.66874773  0.99925653  1
  Fe  Fe7  1  0.16869905  0.83506600  0.16683745  1
  Cr  Cr8  1  0.00347016  0.66941999  0.33443986  1
  Ni  Ni9  1  0.33121476  0.00263359  0.00305304  1
  Ni  Ni10  1  0.49974749  0.16687902  0.16623831  1
  Fe  Fe11  1  0.33285500  1.00095432  0.33212504  1
  Ni  Ni12  1  0.33287928  0.33257446  0.00140694  1
  Ni  Ni13  1  0.50105804  0.50245103  0.16868594  1
  Cr  Cr14  1  0.33659342  0.33504806  0.33052703  1
  Cr  Cr15  1  0.33201394  0.66575010  1.00078168  1
  Fe  Fe16  1  0.49976617  0.83413375  0.16679730  1
  Ni  Ni17  1  0.33557212  0.67070570  0.33374356  1
  Fe  Fe18  1  0.66630076  1.00014371  0.00246703  1
  Ni  Ni19  1  0.83654486  0.16781480  0.16856623  1
  Cr  Cr20  1  0.66854960  0.00432507  0.33563522  1
  Cr  Cr21  1  0.66651210  0.33604058  0.00348804  1
  Ni  Ni22  1  0.83500575  0.50062435  0.16924731  1
  Ni  Ni23  1  0.66803492  0.33436030  0.33554826  1
  Ni  Ni24  1  0.67007591  0.66607490  1.00109423  1
  Cr  Cr25  1  0.83404277  0.83350842  0.16352953  1
  Fe  Fe26  1  0.66748722  0.66593160  0.33486883  1
  Cr  Cr27  1  0.16679403  0.16686728  0.50185281  1
  Ni  Ni28  1  0.00114017  0.99797001  0.66815340  1
  Fe  Fe29  1  0.16700560  0.16764491  0.83473381  1
  Cr  Cr30  1  0.16780053  0.50131039  0.50287979  1
  Fe  Fe31  1  0.99874315  0.33527859  0.66750049  1
  Fe  Fe32  1  0.16613908  0.50098558  0.83373071  1
  Fe  Fe33  1  0.16804369  0.83504302  0.50250264  1
  Ni  Ni34  1  0.00282150  0.67061914  0.66951467  1
  Ni  Ni35  1  0.16602550  0.83529580  0.83347843  1
  Ni  Ni36  1  0.49979185  0.16635757  0.50285062  1
  Fe  Fe37  1  0.33387089  0.99984351  0.66840098  1
  Cr  Cr38  1  0.49859069  0.16770825  0.83457565  1
  Ni  Ni39  1  0.49993310  0.50196173  0.49975513  1
  Ni  Ni40  1  0.33383490  0.33506725  0.67087158  1
  Ni  Ni41  1  0.49937112  0.50114676  0.83436233  1
  Fe  Fe42  1  0.50156590  0.83463105  0.50119642  1
  Fe  Fe43  1  0.33456899  0.66861572  0.66812049  1
  Cr  Cr44  1  0.50343861  0.83452842  0.83595328  1
  Ni  Ni45  1  0.83488283  0.16580715  0.50034727  1
  Ni  Ni46  1  0.67033770  1.00055213  0.66687116  1
  Cr  Cr47  1  0.83623968  0.16569167  0.83542607  1
  Ni  Ni48  1  0.83403851  0.50217839  0.49837688  1
  Cr  Cr49  1  0.66598877  0.33379441  0.66411739  1
  Ni  Ni50  1  0.83715644  0.50359381  0.83574775  1
  Ni  Ni51  1  0.83562969  0.83560172  0.50332922  1
  Cr  Cr52  1  0.67139571  0.66737888  0.66766769  1
  Ni  Ni53  1  0.83794186  0.83352692  0.83641797  1
" 