8177,Ni50Fe17Cr31_6,-227.617151178927, 175.837996260557,Ni50Fe17Cr31,"# generated using pymatgen
 data_Cr2FeNi3
_symmetry_space_group_name_H-M   'P 1'
_cell_length_a   7.46887505
_cell_length_b   7.46887505
_cell_length_c   10.56258439
_cell_angle_alpha   90.00000000
_cell_angle_beta   90.00000000
_cell_angle_gamma   90.00000000
_symmetry_Int_Tables_number   1
_chemical_formula_structural   Cr2FeNi3
_chemical_formula_sum   'Cr18 Fe9 Ni27'
_cell_volume   589.22420587
_cell_formula_units_Z   9
loop_
 _symmetry_equiv_pos_site_id
 _symmetry_equiv_pos_as_xyz
  1  'x, y, z'
loop_
 _atom_site_type_symbol
 _atom_site_label
 _atom_site_symmetry_multiplicity
 _atom_site_fract_x
 _atom_site_fract_y
 _atom_site_fract_z
 _atom_site_occupancy
  Ni  Ni0  1  0.99779239  0.99732813  0.99792739  1
  Cr  Cr1  1  0.16574264  0.16715318  0.16587004  1
  Ni  Ni2  1  0.00201930  0.99646707  0.33287571  1
  Ni  Ni3  1  0.00104210  0.33500850  0.00006044  1
  Ni  Ni4  1  0.16678880  0.50237770  0.16443848  1
  Fe  Fe5  1  0.00210246  0.33447842  0.33198671  1
  Ni  Ni6  1  0.99859920  0.66760523  0.00250370  1
  Ni  Ni7  1  0.16392431  0.83098649  0.16712167  1
  Ni  Ni8  1  0.99737486  0.66818226  0.32929534  1
  Cr  Cr9  1  0.33411034  0.00087609  0.99946087  1
  Ni  Ni10  1  0.50064955  0.16591667  0.16754151  1
  Ni  Ni11  1  0.33250156  0.00068899  0.33267081  1
  Ni  Ni12  1  0.33444507  0.33411885  0.00033641  1
  Ni  Ni13  1  0.49731781  0.50014222  0.16632627  1
  Cr  Cr14  1  0.33407323  0.33140487  0.33456544  1
  Fe  Fe15  1  0.33303858  0.66475868  0.00107848  1
  Fe  Fe16  1  0.50002018  0.83521848  0.16641005  1
  Cr  Cr17  1  0.33163719  0.66705338  0.32953773  1
  Ni  Ni18  1  0.66745872  0.99862554  0.99980244  1
  Cr  Cr19  1  0.83245610  0.16360401  0.16510005  1
  Fe  Fe20  1  0.66517998  0.99777467  0.33027791  1
  Cr  Cr21  1  0.66514705  0.33326388  0.99701951  1
  Fe  Fe22  1  0.83607844  0.50154031  0.16610772  1
  Cr  Cr23  1  0.66560586  0.33616483  0.33201608  1
  Cr  Cr24  1  0.66867861  0.66708761  0.99970514  1
  Ni  Ni25  1  0.83410412  0.83364475  0.16882304  1
  Fe  Fe26  1  0.66749709  0.66835743  0.33009806  1
  Fe  Fe27  1  0.16522470  0.16578908  0.50070802  1
  Ni  Ni28  1  -0.00012070  0.00134765  0.66871277  1
  Ni  Ni29  1  0.16431366  0.16956397  0.83200742  1
  Cr  Cr30  1  0.16689059  0.49961889  0.50309791  1
  Ni  Ni31  1  0.99927126  0.33168338  0.66760598  1
  Cr  Cr32  1  0.16764948  0.49830583  0.83428330  1
  Cr  Cr33  1  0.16541847  0.83251779  0.50150468  1
  Ni  Ni34  1  0.99683378  0.66657665  0.66852836  1
  Cr  Cr35  1  0.16542641  0.83103931  0.83263506  1
  Fe  Fe36  1  0.49934849  0.16777543  0.50063069  1
  Cr  Cr37  1  0.33119903  0.00244868  0.66706881  1
  Ni  Ni38  1  0.50045391  0.16876437  0.83323190  1
  Fe  Fe39  1  0.50067138  0.49973100  0.50302354  1
  Ni  Ni40  1  0.33567274  0.33293652  0.66572381  1
  Ni  Ni41  1  0.49939220  0.49955131  0.82920775  1
  Cr  Cr42  1  0.50096490  0.83176209  0.49879749  1
  Ni  Ni43  1  0.33653766  0.66396509  0.66824923  1
  Ni  Ni44  1  0.50242124  0.83098385  0.83397841  1
  Cr  Cr45  1  0.83389698  0.16619111  0.49964785  1
  Cr  Cr46  1  0.66775788  0.00072194  0.67159353  1
  Ni  Ni47  1  0.83480201  0.16676079  0.83370725  1
  Cr  Cr48  1  0.83306240  0.50053511  0.50042524  1
  Ni  Ni49  1  0.66493989  0.33600923  0.66865177  1
  Ni  Ni50  1  0.83362958  0.49920540  0.83099379  1
  Cr  Cr51  1  0.83309962  0.83312690  0.50023371  1
  Ni  Ni52  1  0.66656141  0.66304876  0.66812536  1
  Ni  Ni53  1  0.83268925  0.83360542  0.83206315  1
" 