6444,Ni50Fe47Cr2_8,-240.036910554626, 224.0498143345,Ni50Fe47Cr2,"# generated using pymatgen
 data_Cr2Fe25Ni27
_symmetry_space_group_name_H-M   'P 1'
_cell_length_a   7.40644470
_cell_length_b   7.40644470
_cell_length_c   10.47429455
_cell_angle_alpha   90.00000000
_cell_angle_beta   90.00000000
_cell_angle_gamma   90.00000000
_symmetry_Int_Tables_number   1
_chemical_formula_structural   Cr2Fe25Ni27
_chemical_formula_sum   'Cr2 Fe25 Ni27'
_cell_volume   574.57185968
_cell_formula_units_Z   1
loop_
 _symmetry_equiv_pos_site_id
 _symmetry_equiv_pos_as_xyz
  1  'x, y, z'
loop_
 _atom_site_type_symbol
 _atom_site_label
 _atom_site_symmetry_multiplicity
 _atom_site_fract_x
 _atom_site_fract_y
 _atom_site_fract_z
 _atom_site_occupancy
  Ni  Ni0  1  0.00460693  1.00391594  0.00460788  1
  Ni  Ni1  1  0.17018821  0.16965197  0.16928503  1
  Fe  Fe2  1  0.00444908  1.00407194  0.33766550  1
  Fe  Fe3  1  0.00453714  0.33710020  0.00482463  1
  Ni  Ni4  1  0.17049033  0.50508514  0.16994062  1
  Ni  Ni5  1  1.00363013  0.33731685  0.33680109  1
  Ni  Ni6  1  0.00432598  0.67078467  1.00381390  1
  Ni  Ni7  1  0.17098629  0.83753673  0.17128361  1
  Fe  Fe8  1  0.00441438  0.67071044  0.33712572  1
  Fe  Fe9  1  0.33514650  0.00442047  0.00529074  1
  Ni  Ni10  1  0.50381530  0.17075605  0.17094788  1
  Ni  Ni11  1  0.33818016  1.00287458  0.33696590  1
  Ni  Ni12  1  0.33712720  0.33819785  0.00417957  1
  Ni  Ni13  1  0.50462429  0.50508991  0.17013878  1
  Cr  Cr14  1  0.33555802  0.33820701  0.33771046  1
  Fe  Fe15  1  0.33677667  0.67061843  0.00465671  1
  Ni  Ni16  1  0.50302167  0.83642850  0.17112461  1
  Ni  Ni17  1  0.33793883  0.67146943  0.33670995  1
  Cr  Cr18  1  0.67134577  1.00363359  1.00388882  1
  Fe  Fe19  1  0.83838149  0.17140218  0.17168202  1
  Ni  Ni20  1  0.67104410  1.00315152  0.33777013  1
  Fe  Fe21  1  0.67053103  0.33873274  1.00371785  1
  Fe  Fe22  1  0.83760045  0.50426839  0.17139929  1
  Fe  Fe23  1  0.67185612  0.33739818  0.33733501  1
  Fe  Fe24  1  0.67095792  0.66911853  1.00401922  1
  Fe  Fe25  1  0.83811727  0.83660161  0.17125511  1
  Ni  Ni26  1  0.67042796  0.67204443  0.33688577  1
  Ni  Ni27  1  0.16986498  0.17039973  0.50512666  1
  Ni  Ni28  1  1.00241649  0.00512259  0.67080713  1
  Fe  Fe29  1  0.17055352  0.17052713  0.83765479  1
  Ni  Ni30  1  0.17019520  0.50468674  0.50481840  1
  Fe  Fe31  1  1.00354190  0.33725823  0.66935708  1
  Fe  Fe32  1  0.17105504  0.50385278  0.83762622  1
  Fe  Fe33  1  0.16996813  0.83742331  0.50382280  1
  Fe  Fe34  1  1.00331011  0.67167562  0.67092357  1
  Fe  Fe35  1  0.17032466  0.83789403  0.83795341  1
  Fe  Fe36  1  0.50549298  0.16976935  0.50471093  1
  Fe  Fe37  1  0.33789345  1.00367196  0.67031746  1
  Ni  Ni38  1  0.50370274  0.17220107  0.83639293  1
  Fe  Fe39  1  0.50529016  0.50534935  0.50510727  1
  Fe  Fe40  1  0.33792727  0.33745635  0.67126858  1
  Ni  Ni41  1  0.50375060  0.50384376  0.83758020  1
  Fe  Fe42  1  0.50467524  0.83715307  0.50336277  1
  Ni  Ni43  1  0.33809678  0.66904161  0.67079815  1
  Fe  Fe44  1  0.50444839  0.83683991  0.83623840  1
  Ni  Ni45  1  0.83765058  0.17014352  0.50394678  1
  Ni  Ni46  1  0.67226817  1.00375787  0.67078571  1
  Ni  Ni47  1  0.83789745  0.17005509  0.83630389  1
  Ni  Ni48  1  0.83763772  0.50462461  0.50451400  1
  Fe  Fe49  1  0.67080338  0.33719498  0.67121865  1
  Fe  Fe50  1  0.83641972  0.50405707  0.83714241  1
  Ni  Ni51  1  0.83686799  0.83750808  0.50400558  1
  Ni  Ni52  1  0.67014541  0.67152658  0.67166613  1
  Ni  Ni53  1  0.83864903  0.83730465  0.83645061  1
" 