979,Ni50Fe47Cr2_6,-239.747610878983, 220.091024306512,Ni50Fe47Cr2,"# generated using pymatgen
 data_Cr2Fe25Ni27
_symmetry_space_group_name_H-M   'P 1'
_cell_length_a   7.40441724
_cell_length_b   7.40441724
_cell_length_c   10.47142728
_cell_angle_alpha   90.00000000
_cell_angle_beta   90.00000000
_cell_angle_gamma   90.00000000
_symmetry_Int_Tables_number   1
_chemical_formula_structural   Cr2Fe25Ni27
_chemical_formula_sum   'Cr2 Fe25 Ni27'
_cell_volume   574.10013237
_cell_formula_units_Z   1
loop_
 _symmetry_equiv_pos_site_id
 _symmetry_equiv_pos_as_xyz
  1  'x, y, z'
loop_
 _atom_site_type_symbol
 _atom_site_label
 _atom_site_symmetry_multiplicity
 _atom_site_fract_x
 _atom_site_fract_y
 _atom_site_fract_z
 _atom_site_occupancy
  Ni  Ni0  1  0.00471639  1.00196416  1.00335570  1
  Ni  Ni1  1  0.17054578  0.16953262  0.17040777  1
  Ni  Ni2  1  0.00454791  1.00127595  0.33944303  1
  Fe  Fe3  1  1.00183816  0.33509553  1.00416205  1
  Fe  Fe4  1  0.16881791  0.50313451  0.17062979  1
  Fe  Fe5  1  1.00421200  0.33516906  0.33825936  1
  Fe  Fe6  1  1.00385136  0.67040059  1.00411962  1
  Ni  Ni7  1  0.17152227  0.83769258  0.17122720  1
  Fe  Fe8  1  0.00443764  0.66875452  0.33732733  1
  Fe  Fe9  1  0.33945343  0.00479150  0.00508410  1
  Fe  Fe10  1  0.50501254  0.17186470  0.17123993  1
  Ni  Ni11  1  0.33560765  0.00463753  0.33634886  1
  Ni  Ni12  1  0.33722730  0.33807434  1.00414200  1
  Fe  Fe13  1  0.50400400  0.50389435  0.16916680  1
  Ni  Ni14  1  0.33792914  0.33765616  0.33735108  1
  Fe  Fe15  1  0.33948735  0.67206415  1.00377371  1
  Fe  Fe16  1  0.50585843  0.83829149  0.17081172  1
  Fe  Fe17  1  0.33810379  0.67146129  0.33664044  1
  Ni  Ni18  1  0.67334737  0.00450906  0.00673385  1
  Ni  Ni19  1  0.83878838  0.17147524  0.17290587  1
  Fe  Fe20  1  0.66907118  0.00587449  0.33740892  1
  Ni  Ni21  1  0.66888607  0.33765502  1.00326168  1
  Ni  Ni22  1  0.83559191  0.50338570  0.16990378  1
  Ni  Ni23  1  0.66939263  0.33935907  0.33791313  1
  Ni  Ni24  1  0.67198387  0.67176507  1.00326803  1
  Ni  Ni25  1  0.83895077  0.83613462  0.17174292  1
  Fe  Fe26  1  0.66989434  0.67115124  0.33643012  1
  Ni  Ni27  1  0.17161671  0.16980673  0.50377579  1
  Fe  Fe28  1  1.00385855  0.00741097  0.67148410  1
  Ni  Ni29  1  0.17153014  0.16924472  0.83856016  1
  Fe  Fe30  1  0.17370773  0.50384802  0.50289987  1
  Cr  Cr31  1  0.00568433  0.33848999  0.67128128  1
  Fe  Fe32  1  0.17518454  0.50343589  0.83930016  1
  Fe  Fe33  1  0.17234798  0.83831061  0.50318911  1
  Cr  Cr34  1  0.00484991  0.67557218  0.67257909  1
  Ni  Ni35  1  0.17290244  0.83907363  0.83779702  1
  Ni  Ni36  1  0.50192535  0.16989202  0.50418820  1
  Fe  Fe37  1  0.33833179  0.00503349  0.67046263  1
  Ni  Ni38  1  0.50428989  0.17094220  0.83781748  1
  Fe  Fe39  1  0.50406481  0.50231303  0.50462400  1
  Ni  Ni40  1  0.33970869  0.33712543  0.67071379  1
  Ni  Ni41  1  0.50614469  0.50458295  0.83579418  1
  Ni  Ni42  1  0.50330972  0.83679139  0.50361271  1
  Fe  Fe43  1  0.34064267  0.67090443  0.67131183  1
  Ni  Ni44  1  0.50398773  0.83733235  0.83804834  1
  Fe  Fe45  1  0.83459737  0.17063859  0.50374593  1
  Ni  Ni46  1  0.66987643  1.00323962  0.67057627  1
  Ni  Ni47  1  0.83676744  0.17174978  0.83764976  1
  Ni  Ni48  1  0.83609294  0.50522818  0.50304777  1
  Ni  Ni49  1  0.66828868  0.33582294  0.67098481  1
  Fe  Fe50  1  0.83562722  0.50409457  0.83879207  1
  Fe  Fe51  1  0.83522932  0.83918129  0.50281347  1
  Fe  Fe52  1  0.66934891  0.67005147  0.67078700  1
  Fe  Fe53  1  0.83538437  0.84119887  0.83948430  1
" 