2611,Ni50Fe17Cr31_14,-227.443727037874, 168.122751474656,Ni50Fe17Cr31,"# generated using pymatgen
 data_Cr2FeNi3
_symmetry_space_group_name_H-M   'P 1'
_cell_length_a   7.47481449
_cell_length_b   7.47481449
_cell_length_c   10.57098403
_cell_angle_alpha   90.00000000
_cell_angle_beta   90.00000000
_cell_angle_gamma   90.00000000
_symmetry_Int_Tables_number   1
_chemical_formula_structural   Cr2FeNi3
_chemical_formula_sum   'Cr18 Fe9 Ni27'
_cell_volume   590.63102318
_cell_formula_units_Z   9
loop_
 _symmetry_equiv_pos_site_id
 _symmetry_equiv_pos_as_xyz
  1  'x, y, z'
loop_
 _atom_site_type_symbol
 _atom_site_label
 _atom_site_symmetry_multiplicity
 _atom_site_fract_x
 _atom_site_fract_y
 _atom_site_fract_z
 _atom_site_occupancy
  Ni  Ni0  1  0.00141231  0.99846451  0.00192498  1
  Ni  Ni1  1  0.16731950  0.16286096  0.16503354  1
  Ni  Ni2  1  0.00037878  0.99808755  0.33160002  1
  Ni  Ni3  1  0.00002609  0.33365399  0.00033891  1
  Cr  Cr4  1  0.16591783  0.49978567  0.16348335  1
  Cr  Cr5  1  0.99918006  0.33057387  0.33188573  1
  Fe  Fe6  1  -0.00033729  0.66776035  0.99878200  1
  Ni  Ni7  1  0.16419570  0.83595577  0.16540607  1
  Fe  Fe8  1  0.99684732  0.67035446  0.33274799  1
  Ni  Ni9  1  0.33111007  0.99706769  0.00053336  1
  Ni  Ni10  1  0.49695464  0.16450020  0.16683651  1
  Fe  Fe11  1  0.33273276  0.00117192  0.33320291  1
  Ni  Ni12  1  0.33038255  0.33264877  0.00010008  1
  Cr  Cr13  1  0.49913110  0.49868633  0.16489027  1
  Fe  Fe14  1  0.33396397  0.32777298  0.33338641  1
  Ni  Ni15  1  0.33151351  0.66875820  0.99837118  1
  Fe  Fe16  1  0.49883769  0.83591465  0.16578988  1
  Cr  Cr17  1  0.33270051  0.66899784  0.33422698  1
  Cr  Cr18  1  0.66632317  0.99778119  0.00031301  1
  Ni  Ni19  1  0.83418384  0.16352560  0.16561913  1
  Ni  Ni20  1  0.66657232  0.99864863  0.33238939  1
  Cr  Cr21  1  0.66874223  0.33266214  0.00087581  1
  Ni  Ni22  1  0.83364250  0.50171776  0.16404639  1
  Cr  Cr23  1  0.66612434  0.33172514  0.33305455  1
  Fe  Fe24  1  0.66816337  0.66743079  0.99913745  1
  Ni  Ni25  1  0.83536153  0.83345940  0.16643988  1
  Cr  Cr26  1  0.66650855  0.66798680  0.33309289  1
  Ni  Ni27  1  0.17061421  0.16251617  0.49759825  1
  Cr  Cr28  1  0.00077537  0.99689213  0.66521247  1
  Cr  Cr29  1  0.16927270  0.16432934  0.83541087  1
  Cr  Cr30  1  0.16576220  0.50044778  0.49915796  1
  Cr  Cr31  1  0.99898767  0.33492681  0.66675081  1
  Fe  Fe32  1  0.16378522  0.50149893  0.83589924  1
  Ni  Ni33  1  0.16515479  0.83545366  0.49864638  1
  Fe  Fe34  1  0.99637299  0.66834927  0.66677987  1
  Ni  Ni35  1  0.16558799  0.83162564  0.83441664  1
  Ni  Ni36  1  0.49651879  0.16394238  0.49945715  1
  Ni  Ni37  1  0.33502245  0.99726415  0.66473246  1
  Ni  Ni38  1  0.49682436  0.16384631  0.83205758  1
  Ni  Ni39  1  0.50113932  0.49924201  0.49943957  1
  Cr  Cr40  1  0.33284415  0.33108087  0.66438853  1
  Cr  Cr41  1  0.49950805  0.49971639  0.83455493  1
  Ni  Ni42  1  0.50052418  0.83513598  0.50125222  1
  Cr  Cr43  1  0.33309878  0.66998041  0.66605932  1
  Fe  Fe44  1  0.49981266  0.83492362  0.83192713  1
  Cr  Cr45  1  0.83152803  0.16240535  0.49974762  1
  Ni  Ni46  1  0.66310403  0.99510758  0.66577809  1
  Cr  Cr47  1  0.83163971  0.16434500  0.83322282  1
  Ni  Ni48  1  0.83115159  0.50465963  0.50095935  1
  Cr  Cr49  1  0.66653418  0.33356383  0.66457164  1
  Ni  Ni50  1  0.83413517  0.50478762  0.83346018  1
  Ni  Ni51  1  0.83267786  0.83065129  0.49991124  1
  Ni  Ni52  1  0.66780902  0.66859098  0.66503334  1
  Ni  Ni53  1  0.83387057  0.82870873  0.83201065  1
" 