8173,Ni50Fe17Cr31_4,-227.241459643755, 172.385483108266,Ni50Fe17Cr31,"# generated using pymatgen
 data_Cr2FeNi3
_symmetry_space_group_name_H-M   'P 1'
_cell_length_a   7.47205181
_cell_length_b   7.47205181
_cell_length_c   10.56707701
_cell_angle_alpha   90.00000000
_cell_angle_beta   90.00000000
_cell_angle_gamma   90.00000000
_symmetry_Int_Tables_number   1
_chemical_formula_structural   Cr2FeNi3
_chemical_formula_sum   'Cr18 Fe9 Ni27'
_cell_volume   589.97637593
_cell_formula_units_Z   9
loop_
 _symmetry_equiv_pos_site_id
 _symmetry_equiv_pos_as_xyz
  1  'x, y, z'
loop_
 _atom_site_type_symbol
 _atom_site_label
 _atom_site_symmetry_multiplicity
 _atom_site_fract_x
 _atom_site_fract_y
 _atom_site_fract_z
 _atom_site_occupancy
  Cr  Cr0  1  0.00219435  0.00213743  0.00114419  1
  Fe  Fe1  1  0.16577236  0.16566599  0.16562729  1
  Ni  Ni2  1  0.99876689  0.99962529  0.33050469  1
  Ni  Ni3  1  0.99957320  0.33279802  0.00034325  1
  Fe  Fe4  1  0.16490011  0.49944744  0.16562883  1
  Cr  Cr5  1  0.99902328  0.33328882  0.33233938  1
  Cr  Cr6  1  0.99920199  0.66491051  0.00206084  1
  Fe  Fe7  1  0.16656375  0.83390814  0.16690498  1
  Ni  Ni8  1  0.00118528  0.66682240  0.33096816  1
  Ni  Ni9  1  0.33135219  0.99821691  0.99875002  1
  Cr  Cr10  1  0.49866392  0.16611556  0.16767808  1
  Ni  Ni11  1  0.33335076  0.99898150  0.33194073  1
  Ni  Ni12  1  0.33134331  0.33310429  0.00036817  1
  Cr  Cr13  1  0.50010097  0.49842297  0.16420808  1
  Fe  Fe14  1  0.33218840  0.33178030  0.33290468  1
  Ni  Ni15  1  0.33514898  0.66766914  0.99932749  1
  Ni  Ni16  1  0.49897947  0.83429288  0.16524173  1
  Cr  Cr17  1  0.33126253  0.66699679  0.33347913  1
  Cr  Cr18  1  0.66545644  0.99821577  0.00158388  1
  Ni  Ni19  1  0.83369870  0.16689773  0.16784931  1
  Ni  Ni20  1  0.66687557  0.00110639  0.33282334  1
  Ni  Ni21  1  0.66803979  0.33656361  0.99961716  1
  Ni  Ni22  1  0.83414652  0.49952780  0.16477225  1
  Ni  Ni23  1  0.66791778  0.32972265  0.33239005  1
  Ni  Ni24  1  0.66399675  0.66392222  0.99932765  1
  Ni  Ni25  1  0.83371701  0.83255621  0.16855341  1
  Cr  Cr26  1  0.66671250  0.66790216  0.33177261  1
  Cr  Cr27  1  0.16706467  0.16680541  0.50104427  1
  Ni  Ni28  1  -0.00002092  0.00038130  0.66703686  1
  Ni  Ni29  1  0.16850970  0.16522514  0.83306701  1
  Ni  Ni30  1  0.16626217  0.49972334  0.50058224  1
  Fe  Fe31  1  0.99951336  0.33382774  0.66701838  1
  Cr  Cr32  1  0.16634124  0.49932128  0.83203507  1
  Cr  Cr33  1  0.16545626  0.83167674  0.50042455  1
  Ni  Ni34  1  0.00117011  0.66621669  0.66616073  1
  Ni  Ni35  1  0.16919856  0.83449394  0.83153155  1
  Cr  Cr36  1  0.50077489  0.16525688  0.49785991  1
  Fe  Fe37  1  0.33332757  0.99771966  0.66785813  1
  Cr  Cr38  1  0.49700970  0.16757317  0.83344054  1
  Cr  Cr39  1  0.49831290  0.49850784  0.50065920  1
  Ni  Ni40  1  0.33225028  0.33460214  0.66599655  1
  Fe  Fe41  1  0.50068417  0.50067249  0.83302842  1
  Ni  Ni42  1  0.50001864  0.83526817  0.50141828  1
  Ni  Ni43  1  0.33332961  0.66631788  0.66666874  1
  Fe  Fe44  1  0.49733134  0.83070500  0.83245999  1
  Fe  Fe45  1  0.83180600  0.16510527  0.49986860  1
  Ni  Ni46  1  0.66667741  0.99928133  0.66412066  1
  Cr  Cr47  1  0.83389237  0.16914555  0.83128083  1
  Cr  Cr48  1  0.83466879  0.50017554  0.50146156  1
  Ni  Ni49  1  0.66673851  0.33339051  0.66696898  1
  Ni  Ni50  1  0.83058929  0.49971175  0.83297797  1
  Cr  Cr51  1  0.83310377  0.83416528  0.49970716  1
  Ni  Ni52  1  0.66447513  0.66631712  0.66819746  1
  Cr  Cr53  1  0.83329918  0.82973139  0.83093446  1
" 