3460,Ni50Fe43Cr5_6,-238.348004115137, 217.300647933728,Ni50Fe43Cr5,"# generated using pymatgen
 data_Cr4Fe23Ni27
_symmetry_space_group_name_H-M   'P 1'
_cell_length_a   7.41440525
_cell_length_b   7.41440525
_cell_length_c   10.48555247
_cell_angle_alpha   90.00000000
_cell_angle_beta   90.00000000
_cell_angle_gamma   90.00000000
_symmetry_Int_Tables_number   1
_chemical_formula_structural   Cr4Fe23Ni27
_chemical_formula_sum   'Cr4 Fe23 Ni27'
_cell_volume   576.42652498
_cell_formula_units_Z   1
loop_
 _symmetry_equiv_pos_site_id
 _symmetry_equiv_pos_as_xyz
  1  'x, y, z'
loop_
 _atom_site_type_symbol
 _atom_site_label
 _atom_site_symmetry_multiplicity
 _atom_site_fract_x
 _atom_site_fract_y
 _atom_site_fract_z
 _atom_site_occupancy
  Cr  Cr0  1  1.00307771  1.00295113  0.00376355  1
  Fe  Fe1  1  0.17015503  0.17083366  0.17145416  1
  Ni  Ni2  1  0.00474878  1.00305867  0.33518904  1
  Ni  Ni3  1  0.00503587  0.33884852  1.00163869  1
  Fe  Fe4  1  0.16888717  0.50414427  0.16907561  1
  Ni  Ni5  1  0.00474864  0.33737271  0.33644885  1
  Ni  Ni6  1  1.00232420  0.66865983  0.00432714  1
  Fe  Fe7  1  0.17011258  0.83587049  0.17116719  1
  Fe  Fe8  1  0.00445450  0.67161995  0.33640108  1
  Ni  Ni9  1  0.33912025  0.00430219  1.00314210  1
  Fe  Fe10  1  0.50540392  0.16887547  0.17013667  1
  Ni  Ni11  1  0.33619499  1.00291370  0.33695221  1
  Ni  Ni12  1  0.33708237  0.33688632  0.00472078  1
  Fe  Fe13  1  0.50431419  0.50315875  0.16974101  1
  Fe  Fe14  1  0.33703943  0.33583449  0.33698566  1
  Fe  Fe15  1  0.33579441  0.67123073  0.00380469  1
  Ni  Ni16  1  0.50106792  0.83762368  0.16983286  1
  Ni  Ni17  1  0.33626282  0.67025823  0.33706758  1
  Ni  Ni18  1  0.66820083  1.00189850  1.00354723  1
  Ni  Ni19  1  0.83600550  0.17213574  0.17198300  1
  Ni  Ni20  1  0.66941682  1.00342311  0.33622387  1
  Fe  Fe21  1  0.67168089  0.33517157  0.00377687  1
  Ni  Ni22  1  0.83861541  0.50056156  0.16926659  1
  Ni  Ni23  1  0.66952566  0.33720611  0.33599301  1
  Fe  Fe24  1  0.67018387  0.67118958  0.00395211  1
  Ni  Ni25  1  0.83496570  0.83761405  0.17007361  1
  Cr  Cr26  1  0.67110755  0.67103573  0.33677875  1
  Ni  Ni27  1  0.16994896  0.16927713  0.50338570  1
  Ni  Ni28  1  0.00563758  1.00192639  0.67212339  1
  Fe  Fe29  1  0.17028836  0.16953192  0.83689139  1
  Fe  Fe30  1  0.16720630  0.50467074  0.50322578  1
  Ni  Ni31  1  1.00335443  0.33743304  0.67246874  1
  Ni  Ni32  1  0.16988081  0.50521631  0.83743186  1
  Ni  Ni33  1  0.17108366  0.83651977  0.50299556  1
  Ni  Ni34  1  1.00228592  0.67154453  0.66909313  1
  Ni  Ni35  1  0.17345485  0.83346599  0.83640638  1
  Fe  Fe36  1  0.50297201  0.16783723  0.50200744  1
  Fe  Fe37  1  0.33577118  1.00099800  0.67007501  1
  Fe  Fe38  1  0.50358543  0.16896912  0.83847882  1
  Fe  Fe39  1  0.50392678  0.50393308  0.50354822  1
  Cr  Cr40  1  0.33606501  0.33546195  0.66917504  1
  Fe  Fe41  1  0.50378270  0.50488882  0.83749133  1
  Fe  Fe42  1  0.50252132  0.83905065  0.50401469  1
  Fe  Fe43  1  0.33576564  0.67100778  0.66970506  1
  Ni  Ni44  1  0.50212257  0.83615721  0.83589795  1
  Cr  Cr45  1  0.83739492  0.17054213  0.50258884  1
  Fe  Fe46  1  0.67169885  1.00307437  0.67188339  1
  Ni  Ni47  1  0.83526563  0.17296614  0.83596387  1
  Fe  Fe48  1  0.83929685  0.50412928  0.50444264  1
  Ni  Ni49  1  0.66973364  0.33966059  0.67146468  1
  Fe  Fe50  1  0.83804949  0.50526674  0.83684390  1
  Ni  Ni51  1  0.83796527  0.83738004  0.50452986  1
  Ni  Ni52  1  0.67009983  0.67039716  0.67022438  1
  Fe  Fe53  1  0.83701525  0.83571547  0.83589930  1
" 