1295,Ni50Fe17Cr31_7,-227.909247377318, 176.117047698745,Ni50Fe17Cr31,"# generated using pymatgen
 data_Cr2FeNi3
_symmetry_space_group_name_H-M   'P 1'
_cell_length_a   7.47077654
_cell_length_b   7.47077654
_cell_length_c   10.56527351
_cell_angle_alpha   90.00000000
_cell_angle_beta   90.00000000
_cell_angle_gamma   90.00000000
_symmetry_Int_Tables_number   1
_chemical_formula_structural   Cr2FeNi3
_chemical_formula_sum   'Cr18 Fe9 Ni27'
_cell_volume   589.67435011
_cell_formula_units_Z   9
loop_
 _symmetry_equiv_pos_site_id
 _symmetry_equiv_pos_as_xyz
  1  'x, y, z'
loop_
 _atom_site_type_symbol
 _atom_site_label
 _atom_site_symmetry_multiplicity
 _atom_site_fract_x
 _atom_site_fract_y
 _atom_site_fract_z
 _atom_site_occupancy
  Ni  Ni0  1  0.99879667  0.00070070  0.00058760  1
  Ni  Ni1  1  0.16750908  0.16343355  0.16676132  1
  Ni  Ni2  1  0.99844211  0.00036532  0.33090113  1
  Cr  Cr3  1  0.00145468  0.32898825  -0.00011397  1
  Fe  Fe4  1  0.16832618  0.50055700  0.16398403  1
  Cr  Cr5  1  0.99763313  0.33166286  0.33037822  1
  Fe  Fe6  1  0.00071555  0.66696812  0.99900234  1
  Cr  Cr7  1  0.16765981  0.83400870  0.16514403  1
  Cr  Cr8  1  0.99748404  0.66674075  0.33464047  1
  Cr  Cr9  1  0.33764319  0.00394546  0.99766585  1
  Ni  Ni10  1  0.50020557  0.16522756  0.16835197  1
  Ni  Ni11  1  0.33657665  0.99959972  0.33242091  1
  Ni  Ni12  1  0.33309575  0.33479266  0.00056775  1
  Ni  Ni13  1  0.49874556  0.50152998  0.16569771  1
  Cr  Cr14  1  0.33482683  0.33261101  0.32754944  1
  Ni  Ni15  1  0.33704870  0.66501468  -0.00011839  1
  Ni  Ni16  1  0.50158500  0.83232924  0.16697247  1
  Ni  Ni17  1  0.33839004  0.66860094  0.33029421  1
  Ni  Ni18  1  0.66773350  0.99795343  0.00224140  1
  Ni  Ni19  1  0.83181314  0.16216335  0.16619582  1
  Fe  Fe20  1  0.66556140  0.99877345  0.33126528  1
  Cr  Cr21  1  0.66081961  0.32826740  0.00043813  1
  Cr  Cr22  1  0.82751287  0.50213239  0.16390182  1
  Fe  Fe23  1  0.66565853  0.33326303  0.33136926  1
  Ni  Ni24  1  0.66227377  0.66878766  0.00057926  1
  Ni  Ni25  1  0.83117720  0.83503185  0.16645345  1
  Ni  Ni26  1  0.66475638  0.66829581  0.33367038  1
  Cr  Cr27  1  0.16971150  0.16512305  0.50114774  1
  Cr  Cr28  1  0.00003017  0.99959213  0.66888867  1
  Ni  Ni29  1  0.16850044  0.16660823  0.83131721  1
  Cr  Cr30  1  0.16811162  0.49793016  0.49962116  1
  Ni  Ni31  1  0.99896618  0.33259403  0.66826241  1
  Ni  Ni32  1  0.16986656  0.49856883  0.83451498  1
  Cr  Cr33  1  0.17112985  0.83634231  0.49745946  1
  Cr  Cr34  1  0.99834847  0.66490250  0.66525249  1
  Fe  Fe35  1  0.16834881  0.83378518  0.83599155  1
  Fe  Fe36  1  0.49941078  0.16564225  0.50086598  1
  Ni  Ni37  1  0.33810297  0.00133185  0.66807660  1
  Ni  Ni38  1  0.50016178  0.16711951  0.83005552  1
  Cr  Cr39  1  0.50105726  0.49851060  0.50004019  1
  Ni  Ni40  1  0.33473116  0.33168883  0.67051890  1
  Ni  Ni41  1  0.49782673  0.50004152  0.83358939  1
  Fe  Fe42  1  0.50293315  0.83533981  0.49817221  1
  Cr  Cr43  1  0.33560639  0.66920764  0.66866109  1
  Fe  Fe44  1  0.50093234  0.83413705  0.83466479  1
  Cr  Cr45  1  0.82991281  0.16706435  0.50074131  1
  Ni  Ni46  1  0.66297536  0.99936107  0.66665676  1
  Ni  Ni47  1  0.83105674  0.16358264  0.83290830  1
  Ni  Ni48  1  0.82772550  0.50002125  0.50208582  1
  Ni  Ni49  1  0.66472387  0.33211199  0.66700257  1
  Cr  Cr50  1  0.82806653  0.49834649  0.83183432  1
  Fe  Fe51  1  0.82995283  0.83362523  0.49892238  1
  Ni  Ni52  1  0.66447755  0.66813588  0.66549690  1
  Cr  Cr53  1  0.83041103  0.83406406  0.83697273  1
" 