4632,Ni50Fe17Cr31_9,-227.375914835181, 173.745948949894,Ni50Fe17Cr31,"# generated using pymatgen
 data_Cr2FeNi3
_symmetry_space_group_name_H-M   'P 1'
_cell_length_a   7.47260369
_cell_length_b   7.47260369
_cell_length_c   10.56785749
_cell_angle_alpha   90.00000000
_cell_angle_beta   90.00000000
_cell_angle_gamma   90.00000000
_symmetry_Int_Tables_number   1
_chemical_formula_structural   Cr2FeNi3
_chemical_formula_sum   'Cr18 Fe9 Ni27'
_cell_volume   590.10711127
_cell_formula_units_Z   9
loop_
 _symmetry_equiv_pos_site_id
 _symmetry_equiv_pos_as_xyz
  1  'x, y, z'
loop_
 _atom_site_type_symbol
 _atom_site_label
 _atom_site_symmetry_multiplicity
 _atom_site_fract_x
 _atom_site_fract_y
 _atom_site_fract_z
 _atom_site_occupancy
  Ni  Ni0  1  0.99823960  0.99853510  0.99944487  1
  Ni  Ni1  1  0.16592838  0.16438874  0.16693469  1
  Fe  Fe2  1  0.00266535  0.99844599  0.33057379  1
  Cr  Cr3  1  0.00089283  0.33176377  -0.00036764  1
  Cr  Cr4  1  0.16980918  0.49801694  0.16653532  1
  Fe  Fe5  1  0.00298649  0.33347392  0.33193192  1
  Cr  Cr6  1  0.00196282  0.66880516  0.99930485  1
  Ni  Ni7  1  0.16722583  0.83629958  0.16823597  1
  Ni  Ni8  1  0.00229206  0.66717988  0.33253481  1
  Cr  Cr9  1  0.33316831  0.99901463  0.99913959  1
  Fe  Fe10  1  0.49601139  0.16426870  0.16713876  1
  Ni  Ni11  1  0.33300450  0.00048131  0.33252431  1
  Ni  Ni12  1  0.33384376  0.33301994  0.99921179  1
  Ni  Ni13  1  0.49804183  0.50145592  0.16529758  1
  Ni  Ni14  1  0.33322388  0.33210196  0.33380403  1
  Ni  Ni15  1  0.33309662  0.66736521  0.00054800  1
  Ni  Ni16  1  0.49945440  0.83316862  0.16634787  1
  Ni  Ni17  1  0.32982649  0.66634141  0.33279497  1
  Ni  Ni18  1  0.66707193  0.99868673  0.99960012  1
  Fe  Fe19  1  0.83428593  0.16240297  0.16610826  1
  Ni  Ni20  1  0.66469948  0.00119079  0.32979950  1
  Cr  Cr21  1  0.66420239  0.33041022  0.00354603  1
  Ni  Ni22  1  0.83210900  0.50038143  0.16765381  1
  Cr  Cr23  1  0.66317787  0.33170032  0.33086890  1
  Fe  Fe24  1  0.66427801  0.66912324  0.00257879  1
  Ni  Ni25  1  0.83205451  0.83580309  0.16549506  1
  Cr  Cr26  1  0.66571454  0.66620178  0.32997255  1
  Ni  Ni27  1  0.16829103  0.16714136  0.49757032  1
  Cr  Cr28  1  0.00221001  0.99807376  0.66912594  1
  Ni  Ni29  1  0.16558067  0.16682132  0.83420448  1
  Ni  Ni30  1  0.17107220  0.49832073  0.49827676  1
  Cr  Cr31  1  0.00260545  0.33287645  0.66721503  1
  Ni  Ni32  1  0.17061103  0.49864545  0.83291743  1
  Ni  Ni33  1  0.16835230  0.83363639  0.49626692  1
  Cr  Cr34  1  0.00487076  0.66790285  0.66681261  1
  Ni  Ni35  1  0.16998566  0.83347223  0.83420252  1
  Fe  Fe36  1  0.49614860  0.16804406  0.49830466  1
  Cr  Cr37  1  0.33189382  0.00007586  0.66662452  1
  Fe  Fe38  1  0.49809742  0.16742698  0.83368692  1
  Ni  Ni39  1  0.49541879  0.49853782  0.50146970  1
  Ni  Ni40  1  0.33469298  0.33403544  0.66571481  1
  Cr  Cr41  1  0.49711782  0.50218221  0.83328086  1
  Cr  Cr42  1  0.49752395  0.83108976  0.49806911  1
  Ni  Ni43  1  0.33094888  0.66537405  0.66575334  1
  Ni  Ni44  1  0.50040738  0.83154993  0.83420984  1
  Cr  Cr45  1  0.83503797  0.16530178  0.49705929  1
  Cr  Cr46  1  0.66419203  0.00215420  0.66837687  1
  Ni  Ni47  1  0.83263596  0.16385909  0.83465578  1
  Cr  Cr48  1  0.83203430  0.49895494  0.50041919  1
  Ni  Ni49  1  0.66241967  0.33151416  0.66557645  1
  Cr  Cr50  1  0.83001752  0.49859196  0.83171173  1
  Cr  Cr51  1  0.83334407  0.83442952  0.49890449  1
  Fe  Fe52  1  0.66248812  0.66553936  0.66631052  1
  Fe  Fe53  1  0.83265905  0.83434576  0.83564621  1
" 