3005,Ni50Fe26Cr23_7,-231.536651009496, 187.321843217862,Ni50Fe26Cr23,"# generated using pymatgen
 data_Cr13Fe14Ni27
_symmetry_space_group_name_H-M   'P 1'
_cell_length_a   7.45179341
_cell_length_b   7.45179341
_cell_length_c   10.53842730
_cell_angle_alpha   90.00000000
_cell_angle_beta   90.00000000
_cell_angle_gamma   90.00000000
_symmetry_Int_Tables_number   1
_chemical_formula_structural   Cr13Fe14Ni27
_chemical_formula_sum   'Cr13 Fe14 Ni27'
_cell_volume   585.19070050
_cell_formula_units_Z   1
loop_
 _symmetry_equiv_pos_site_id
 _symmetry_equiv_pos_as_xyz
  1  'x, y, z'
loop_
 _atom_site_type_symbol
 _atom_site_label
 _atom_site_symmetry_multiplicity
 _atom_site_fract_x
 _atom_site_fract_y
 _atom_site_fract_z
 _atom_site_occupancy
  Fe  Fe0  1  1.00077815  0.99884139  1.00085964  1
  Cr  Cr1  1  0.16949961  0.16672144  0.16698554  1
  Cr  Cr2  1  0.99915287  1.00017155  0.33308131  1
  Cr  Cr3  1  0.99892134  0.33446950  1.00089762  1
  Cr  Cr4  1  0.16980476  0.50346952  0.16836689  1
  Cr  Cr5  1  0.99975537  0.33477035  0.33629701  1
  Ni  Ni6  1  0.00262436  0.67026154  1.00012601  1
  Fe  Fe7  1  0.16859128  0.83367989  0.16705909  1
  Ni  Ni8  1  0.99852116  0.66876657  0.33447441  1
  Fe  Fe9  1  0.33469293  0.99990617  1.00011119  1
  Ni  Ni10  1  0.50185012  0.16912280  0.16773331  1
  Fe  Fe11  1  0.33829044  0.00133365  0.33492634  1
  Ni  Ni12  1  0.33574100  0.33367681  0.99978047  1
  Ni  Ni13  1  0.50038570  0.50002588  0.16794824  1
  Ni  Ni14  1  0.33770440  0.33373548  0.33663568  1
  Ni  Ni15  1  0.33226348  0.66946116  0.00153204  1
  Ni  Ni16  1  0.50007464  0.83386966  0.16999711  1
  Fe  Fe17  1  0.33687976  0.66656530  0.33414689  1
  Cr  Cr18  1  0.66793638  0.00175815  0.00153564  1
  Ni  Ni19  1  0.83132567  0.16658958  0.16764166  1
  Fe  Fe20  1  0.66671778  0.00128151  0.33468461  1
  Ni  Ni21  1  0.66680274  0.33261589  0.00232348  1
  Fe  Fe22  1  0.83075402  0.50186453  0.16873790  1
  Ni  Ni23  1  0.66520623  0.33479837  0.33341374  1
  Cr  Cr24  1  0.66848541  0.66778257  0.00121385  1
  Ni  Ni25  1  0.83537562  0.83421216  0.16876176  1
  Ni  Ni26  1  0.66749875  0.66847624  0.33454902  1
  Fe  Fe27  1  0.16855521  0.16798840  0.50165045  1
  Fe  Fe28  1  0.99947531  0.00258716  0.66793387  1
  Fe  Fe29  1  0.16700492  0.16677991  0.83421547  1
  Fe  Fe30  1  0.16660688  0.50036126  0.50035605  1
  Ni  Ni31  1  0.00145222  0.33370100  0.66686635  1
  Ni  Ni32  1  0.16564511  0.50142898  0.83429176  1
  Cr  Cr33  1  0.16737562  0.83395253  0.50048407  1
  Fe  Fe34  1  0.99980438  0.66658335  0.66856071  1
  Fe  Fe35  1  0.16642973  0.83402003  0.83508768  1
  Ni  Ni36  1  0.50120886  0.16666020  0.49980163  1
  Ni  Ni37  1  0.33548795  0.00131858  0.66869084  1
  Fe  Fe38  1  0.50171826  0.16568606  0.83483238  1
  Ni  Ni39  1  0.50071346  0.50035329  0.49726053  1
  Cr  Cr40  1  0.33142223  0.33259235  0.66636094  1
  Cr  Cr41  1  0.49984386  0.50043644  0.83777832  1
  Ni  Ni42  1  0.50195590  0.83609681  0.49974021  1
  Cr  Cr43  1  0.33479438  0.66898303  0.66720844  1
  Ni  Ni44  1  0.49913649  0.83760383  0.83338173  1
  Ni  Ni45  1  0.83341167  0.16735636  0.50198802  1
  Ni  Ni46  1  0.66757454  0.99991182  0.66646104  1
  Ni  Ni47  1  0.83599139  0.16645717  0.83352708  1
  Ni  Ni48  1  0.83534771  0.50124274  0.50023195  1
  Cr  Cr49  1  0.67033149  0.33284287  0.66789829  1
  Ni  Ni50  1  0.83892341  0.50034919  0.83515656  1
  Ni  Ni51  1  0.83352306  0.83459327  0.50170184  1
  Cr  Cr52  1  0.66905739  0.67091444  0.66754042  1
  Ni  Ni53  1  0.83684498  0.83624163  0.83244330  1
" 