2199,Ni50Fe26Cr23_15,-232.105892485165, 198.371044746539,Ni50Fe26Cr23,"# generated using pymatgen
 data_Cr13Fe14Ni27
_symmetry_space_group_name_H-M   'P 1'
_cell_length_a   7.44752511
_cell_length_b   7.44752511
_cell_length_c   10.53239102
_cell_angle_alpha   90.00000000
_cell_angle_beta   90.00000000
_cell_angle_gamma   90.00000000
_symmetry_Int_Tables_number   1
_chemical_formula_structural   Cr13Fe14Ni27
_chemical_formula_sum   'Cr13 Fe14 Ni27'
_cell_volume   584.18570658
_cell_formula_units_Z   1
loop_
 _symmetry_equiv_pos_site_id
 _symmetry_equiv_pos_as_xyz
  1  'x, y, z'
loop_
 _atom_site_type_symbol
 _atom_site_label
 _atom_site_symmetry_multiplicity
 _atom_site_fract_x
 _atom_site_fract_y
 _atom_site_fract_z
 _atom_site_occupancy
  Ni  Ni0  1  0.99927307  1.00092342  1.00100012  1
  Ni  Ni1  1  0.16630765  0.16714784  0.16847960  1
  Ni  Ni2  1  0.99985788  1.00110683  0.33497123  1
  Ni  Ni3  1  1.00092905  0.33460071  0.00195273  1
  Ni  Ni4  1  0.16768375  0.50020472  0.16570646  1
  Fe  Fe5  1  0.99829468  0.33484040  0.33422922  1
  Fe  Fe6  1  0.99959762  0.66824723  0.00167182  1
  Ni  Ni7  1  0.16597643  0.83646764  0.16820034  1
  Cr  Cr8  1  1.00019191  0.66859121  0.33463977  1
  Cr  Cr9  1  0.33648126  0.00205907  0.00382870  1
  Fe  Fe10  1  0.50243019  0.16758594  0.16730458  1
  Fe  Fe11  1  0.33578741  0.99970178  0.33234225  1
  Ni  Ni12  1  0.33473240  0.33460579  0.00260399  1
  Ni  Ni13  1  0.50449815  0.50140783  0.16735320  1
  Cr  Cr14  1  0.33488322  0.33544656  0.33185561  1
  Cr  Cr15  1  0.33459295  0.66771613  0.00219349  1
  Ni  Ni16  1  0.50418970  0.83310787  0.16927769  1
  Cr  Cr17  1  0.33615356  0.66778657  0.33520898  1
  Ni  Ni18  1  0.66974498  1.00111287  1.00020914  1
  Cr  Cr19  1  0.83503537  0.16768767  0.16819537  1
  Ni  Ni20  1  0.66980569  1.00063553  0.33457552  1
  Ni  Ni21  1  0.66822985  0.33391798  1.00107388  1
  Fe  Fe22  1  0.83378565  0.50286797  0.16711773  1
  Ni  Ni23  1  0.66827111  0.33508670  0.33516750  1
  Ni  Ni24  1  0.66955019  0.66919605  0.00315002  1
  Ni  Ni25  1  0.83375923  0.83463257  0.16707037  1
  Ni  Ni26  1  0.66792378  0.66830769  0.33463166  1
  Cr  Cr27  1  0.16638315  0.16408801  0.50014028  1
  Ni  Ni28  1  0.99819123  1.00016714  0.66772203  1
  Cr  Cr29  1  0.16761781  0.16611848  0.83491927  1
  Fe  Fe30  1  0.16794316  0.49994586  0.50081188  1
  Cr  Cr31  1  0.99954500  0.33401026  0.66641009  1
  Fe  Fe32  1  0.16624959  0.49971254  0.83657431  1
  Ni  Ni33  1  0.16791141  0.83669503  0.50108923  1
  Cr  Cr34  1  0.99902078  0.66893763  0.66859638  1
  Ni  Ni35  1  0.16593780  0.83521714  0.83523212  1
  Cr  Cr36  1  0.50280240  0.16865648  0.50204051  1
  Fe  Fe37  1  0.33474288  0.99983857  0.66930872  1
  Ni  Ni38  1  0.50358741  0.16865303  0.83451072  1
  Ni  Ni39  1  0.50549101  0.50227230  0.50233088  1
  Ni  Ni40  1  0.33636447  0.33450426  0.66862359  1
  Cr  Cr41  1  0.50390577  0.50051841  0.83470780  1
  Fe  Fe42  1  0.50423205  0.83500836  0.50033901  1
  Cr  Cr43  1  0.33527341  0.66710100  0.66669412  1
  Fe  Fe44  1  0.50438106  0.83626427  0.83494029  1
  Ni  Ni45  1  0.83406917  0.16773216  0.50106697  1
  Fe  Fe46  1  0.66936456  0.00151425  0.66900340  1
  Ni  Ni47  1  0.83308705  0.16819469  0.83429264  1
  Ni  Ni48  1  0.82965380  0.50115625  0.49948392  1
  Fe  Fe49  1  0.66969650  0.33550753  0.66806950  1
  Ni  Ni50  1  0.83264899  0.50194186  0.83721316  1
  Fe  Fe51  1  0.83293935  0.83649979  0.50042720  1
  Ni  Ni52  1  0.66847758  0.66997837  0.66623965  1
  Fe  Fe53  1  0.83329205  0.83554997  0.83597757  1
" 