6408,Ni50Fe43Cr5_2,-238.443010064122, 216.095224339855,Ni50Fe43Cr5,"# generated using pymatgen
 data_Cr4Fe23Ni27
_symmetry_space_group_name_H-M   'P 1'
_cell_length_a   7.41196872
_cell_length_b   7.41196872
_cell_length_c   10.48210669
_cell_angle_alpha   90.00000000
_cell_angle_beta   90.00000000
_cell_angle_gamma   90.00000000
_symmetry_Int_Tables_number   1
_chemical_formula_structural   Cr4Fe23Ni27
_chemical_formula_sum   'Cr4 Fe23 Ni27'
_cell_volume   575.85843297
_cell_formula_units_Z   1
loop_
 _symmetry_equiv_pos_site_id
 _symmetry_equiv_pos_as_xyz
  1  'x, y, z'
loop_
 _atom_site_type_symbol
 _atom_site_label
 _atom_site_symmetry_multiplicity
 _atom_site_fract_x
 _atom_site_fract_y
 _atom_site_fract_z
 _atom_site_occupancy
  Ni  Ni0  1  1.00252193  1.00306487  0.00374814  1
  Ni  Ni1  1  0.17044193  0.17129795  0.16962179  1
  Ni  Ni2  1  0.00399882  0.00376474  0.33697062  1
  Fe  Fe3  1  0.00448020  0.33726137  0.00431336  1
  Ni  Ni4  1  0.16965940  0.50291104  0.17088472  1
  Ni  Ni5  1  1.00300874  0.33595579  0.33742298  1
  Ni  Ni6  1  0.00417753  0.67141239  0.00416784  1
  Fe  Fe7  1  0.16945126  0.83616258  0.17078678  1
  Ni  Ni8  1  0.00593810  0.67142528  0.33712655  1
  Fe  Fe9  1  0.33699449  1.00354648  1.00368785  1
  Fe  Fe10  1  0.50409585  0.17076309  0.16960080  1
  Fe  Fe11  1  0.33626105  1.00340968  0.33764573  1
  Ni  Ni12  1  0.33738465  0.33691365  0.00444374  1
  Fe  Fe13  1  0.50256101  0.50334995  0.16940690  1
  Fe  Fe14  1  0.33537611  0.33738735  0.33694534  1
  Ni  Ni15  1  0.33598103  0.67011566  0.00435179  1
  Ni  Ni16  1  0.50409219  0.83810274  0.16855157  1
  Ni  Ni17  1  0.33535023  0.67060275  0.33743763  1
  Ni  Ni18  1  0.67122835  0.00446117  1.00323918  1
  Fe  Fe19  1  0.83754083  0.17004204  0.17017577  1
  Fe  Fe20  1  0.67084935  0.00438458  0.33638422  1
  Fe  Fe21  1  0.67134208  0.33610168  0.00407429  1
  Ni  Ni22  1  0.83845868  0.50359188  0.16838353  1
  Ni  Ni23  1  0.67032840  0.33530601  0.33633789  1
  Fe  Fe24  1  0.67131895  0.67198702  0.00538323  1
  Ni  Ni25  1  0.83630837  0.83732135  0.17000823  1
  Cr  Cr26  1  0.67021343  0.66910428  0.33665282  1
  Ni  Ni27  1  0.17033669  0.17227353  0.50318216  1
  Cr  Cr28  1  1.00283327  1.00294681  0.67025922  1
  Fe  Fe29  1  0.17077238  0.17260752  0.83878947  1
  Ni  Ni30  1  0.16953186  0.50359994  0.50418601  1
  Fe  Fe31  1  0.00449075  0.33947656  0.66976386  1
  Ni  Ni32  1  0.16900266  0.50389842  0.83607623  1
  Ni  Ni33  1  0.17139111  0.83527875  0.50117867  1
  Ni  Ni34  1  0.00399877  0.66943150  0.66985044  1
  Fe  Fe35  1  0.17016555  0.83516506  0.83816135  1
  Fe  Fe36  1  0.50394922  0.17182953  0.50384457  1
  Cr  Cr37  1  0.33750866  0.00403875  0.67189150  1
  Ni  Ni38  1  0.50525384  0.16877212  0.83753739  1
  Fe  Fe39  1  0.50193493  0.50313558  0.50497786  1
  Ni  Ni40  1  0.33822363  0.33833669  0.66891300  1
  Cr  Cr41  1  0.50231110  0.50404753  0.83669627  1
  Ni  Ni42  1  0.50371729  0.83753746  0.50504717  1
  Ni  Ni43  1  0.33605314  0.66891094  0.66935474  1
  Fe  Fe44  1  0.50430084  0.83805867  0.83797257  1
  Fe  Fe45  1  0.83702854  0.17142127  0.50306434  1
  Fe  Fe46  1  0.66952583  0.00381368  0.67128491  1
  Ni  Ni47  1  0.83573767  0.17018475  0.83784187  1
  Ni  Ni48  1  0.83850795  0.50275175  0.50570325  1
  Ni  Ni49  1  0.67006817  0.33631745  0.66974669  1
  Fe  Fe50  1  0.83859290  0.50300092  0.83662814  1
  Fe  Fe51  1  0.83868919  0.83656234  0.50319995  1
  Fe  Fe52  1  0.67067298  0.67067638  0.66898843  1
  Fe  Fe53  1  0.83667710  0.83681776  0.83874567  1
" 