6524,Ni50Fe44Cr5_16,-238.173278327577, 216.711631874061,Ni50Fe44Cr5,"# generated using pymatgen
 data_Cr4Fe23Ni27
_symmetry_space_group_name_H-M   'P 1'
_cell_length_a   7.41028259
_cell_length_b   7.41028259
_cell_length_c   10.47972215
_cell_angle_alpha   90.00000000
_cell_angle_beta   90.00000000
_cell_angle_gamma   90.00000000
_symmetry_Int_Tables_number   1
_chemical_formula_structural   Cr4Fe23Ni27
_chemical_formula_sum   'Cr4 Fe23 Ni27'
_cell_volume   575.46552184
_cell_formula_units_Z   1
loop_
 _symmetry_equiv_pos_site_id
 _symmetry_equiv_pos_as_xyz
  1  'x, y, z'
loop_
 _atom_site_type_symbol
 _atom_site_label
 _atom_site_symmetry_multiplicity
 _atom_site_fract_x
 _atom_site_fract_y
 _atom_site_fract_z
 _atom_site_occupancy
  Ni  Ni0  1  1.00347105  1.00181235  1.00360734  1
  Ni  Ni1  1  0.17024795  0.17053216  0.17127967  1
  Ni  Ni2  1  0.00435076  1.00210572  0.33731762  1
  Ni  Ni3  1  0.00680915  0.33880875  0.00498964  1
  Ni  Ni4  1  0.17147351  0.50336426  0.17044903  1
  Ni  Ni5  1  0.00610932  0.33744279  0.33682121  1
  Ni  Ni6  1  1.00369583  0.67068769  0.00414344  1
  Fe  Fe7  1  0.16950816  0.83748491  0.16991485  1
  Fe  Fe8  1  1.00382047  0.67021721  0.33702977  1
  Fe  Fe9  1  0.33465765  0.00423719  1.00377977  1
  Ni  Ni10  1  0.50209264  0.17003118  0.16916538  1
  Ni  Ni11  1  0.33698639  1.00341921  0.33653142  1
  Ni  Ni12  1  0.33734009  0.33786723  1.00370526  1
  Ni  Ni13  1  0.50199478  0.50487347  0.17081317  1
  Ni  Ni14  1  0.33598534  0.33668981  0.33691615  1
  Fe  Fe15  1  0.33581341  0.67039252  1.00311623  1
  Fe  Fe16  1  0.50380735  0.83688317  0.17064988  1
  Fe  Fe17  1  0.33623789  0.66951578  0.33699572  1
  Ni  Ni18  1  0.66907214  1.00132342  0.00599719  1
  Ni  Ni19  1  0.83917167  0.16887793  0.17089758  1
  Fe  Fe20  1  0.67102839  1.00329227  0.33643226  1
  Fe  Fe21  1  0.67164449  0.33826825  0.00521440  1
  Ni  Ni22  1  0.83830100  0.50509738  0.17122706  1
  Cr  Cr23  1  0.67076022  0.33863665  0.33588946  1
  Fe  Fe24  1  0.67146750  0.66937103  0.00473421  1
  Ni  Ni25  1  0.83716107  0.83748008  0.17045014  1
  Ni  Ni26  1  0.67100462  0.67311959  0.33748074  1
  Fe  Fe27  1  0.16879145  0.16979334  0.50239546  1
  Fe  Fe28  1  0.00578977  0.00425011  0.66956723  1
  Ni  Ni29  1  0.17026380  0.16893954  0.83693192  1
  Ni  Ni30  1  0.17098401  0.50392070  0.50348526  1
  Ni  Ni31  1  0.00444287  0.33995299  0.66986321  1
  Fe  Fe32  1  0.16902166  0.50501856  0.83822749  1
  Fe  Fe33  1  0.16965657  0.83636956  0.50432168  1
  Ni  Ni34  1  0.00420439  0.67128864  0.67099272  1
  Ni  Ni35  1  0.17137165  0.83818125  0.83564199  1
  Fe  Fe36  1  0.50247618  0.16990488  0.50191209  1
  Fe  Fe37  1  0.33472182  1.00259338  0.67003165  1
  Fe  Fe38  1  0.50321052  0.17014662  0.83996800  1
  Fe  Fe39  1  0.50389886  0.50637192  0.50329678  1
  Cr  Cr40  1  0.33700499  0.33673637  0.67118886  1
  Ni  Ni41  1  0.50543942  0.50584154  0.83721194  1
  Fe  Fe42  1  0.50202044  0.83531072  0.50277030  1
  Fe  Fe43  1  0.33657225  0.67093385  0.67071782  1
  Ni  Ni44  1  0.50244886  0.83526415  0.83737409  1
  Fe  Fe45  1  0.84032173  0.17165971  0.50365606  1
  Cr  Cr46  1  0.66903545  1.00257726  0.66994913  1
  Cr  Cr47  1  0.83982772  0.17230402  0.83865887  1
  Fe  Fe48  1  0.83909590  0.50546602  0.50455328  1
  Ni  Ni49  1  0.66983086  0.33767192  0.67011081  1
  Ni  Ni50  1  0.83616996  0.50457968  0.83599060  1
  Ni  Ni51  1  0.83727129  0.83707100  0.50428007  1
  Fe  Fe52  1  0.67118408  0.66797399  0.66971846  1
  Fe  Fe53  1  0.83775887  0.83487445  0.83846385  1
" 