3013,Ni50Fe26Cr23_17,-231.781591608096, 193.071474546572,Ni50Fe26Cr23,"# generated using pymatgen
 data_Cr13Fe14Ni27
_symmetry_space_group_name_H-M   'P 1'
_cell_length_a   7.44642979
_cell_length_b   7.44642979
_cell_length_c   10.53084200
_cell_angle_alpha   90.00000000
_cell_angle_beta   90.00000000
_cell_angle_gamma   90.00000000
_symmetry_Int_Tables_number   1
_chemical_formula_structural   Cr13Fe14Ni27
_chemical_formula_sum   'Cr13 Fe14 Ni27'
_cell_volume   583.92799293
_cell_formula_units_Z   1
loop_
 _symmetry_equiv_pos_site_id
 _symmetry_equiv_pos_as_xyz
  1  'x, y, z'
loop_
 _atom_site_type_symbol
 _atom_site_label
 _atom_site_symmetry_multiplicity
 _atom_site_fract_x
 _atom_site_fract_y
 _atom_site_fract_z
 _atom_site_occupancy
  Ni  Ni0  1  0.99976392  0.00141189  1.00023160  1
  Fe  Fe1  1  0.16749654  0.16890970  0.16918155  1
  Ni  Ni2  1  0.00171227  0.00443954  0.33638161  1
  Fe  Fe3  1  1.00130406  0.33490793  0.00147538  1
  Fe  Fe4  1  0.16793647  0.49986981  0.16824834  1
  Ni  Ni5  1  0.00146677  0.33245166  0.33430594  1
  Ni  Ni6  1  1.00025756  0.66901016  0.99885707  1
  Cr  Cr7  1  0.16685336  0.83664069  0.16813154  1
  Cr  Cr8  1  0.00386838  0.66618841  0.33642313  1
  Fe  Fe9  1  0.33465269  1.00077489  0.00219854  1
  Fe  Fe10  1  0.50118820  0.16711911  0.16989944  1
  Ni  Ni11  1  0.33576237  0.00206348  0.33445271  1
  Ni  Ni12  1  0.33258117  0.33402116  0.00287736  1
  Cr  Cr13  1  0.50010999  0.50157114  0.16977530  1
  Ni  Ni14  1  0.33449352  0.33323444  0.33565036  1
  Cr  Cr15  1  0.33478249  0.66792068  0.99860921  1
  Ni  Ni16  1  0.50234101  0.83456640  0.17058613  1
  Ni  Ni17  1  0.33557990  0.66880064  0.33830778  1
  Cr  Cr18  1  0.66801103  1.00078939  0.00281156  1
  Ni  Ni19  1  0.83779230  0.16671988  0.17083081  1
  Fe  Fe20  1  0.66706362  0.00355739  0.33354245  1
  Cr  Cr21  1  0.66825509  0.33370128  0.99862080  1
  Cr  Cr22  1  0.83427281  0.50220837  0.16767762  1
  Ni  Ni23  1  0.66834244  0.33156842  0.33744164  1
  Ni  Ni24  1  0.66974261  0.66971276  0.99980519  1
  Ni  Ni25  1  0.83419702  0.83714803  0.16830521  1
  Fe  Fe26  1  0.66629191  0.66767344  0.33532446  1
  Ni  Ni27  1  0.16754115  0.16842488  0.50009341  1
  Fe  Fe28  1  1.00045284  1.00126971  0.66762652  1
  Cr  Cr29  1  0.16621870  0.16802906  0.83604012  1
  Ni  Ni30  1  0.17049131  0.49838487  0.49993671  1
  Ni  Ni31  1  1.00057132  0.33448949  0.66715205  1
  Ni  Ni32  1  0.16983098  0.50028330  0.83512090  1
  Ni  Ni33  1  0.16982471  0.83740853  0.50116767  1
  Cr  Cr34  1  0.00564918  0.66579134  0.66834201  1
  Ni  Ni35  1  0.16644168  0.83439584  0.83449211  1
  Fe  Fe36  1  0.50046027  0.16884592  0.50077058  1
  Cr  Cr37  1  0.33532845  0.99826405  0.66820357  1
  Cr  Cr38  1  0.50076219  0.17002481  0.83386534  1
  Ni  Ni39  1  0.50067023  0.50001405  0.50097056  1
  Fe  Fe40  1  0.33328266  0.33780164  0.66677955  1
  Ni  Ni41  1  0.49990184  0.50184042  0.83346242  1
  Fe  Fe42  1  0.49955722  0.83316880  0.50049416  1
  Ni  Ni43  1  0.33407103  0.66666867  0.66758948  1
  Ni  Ni44  1  0.50199710  0.83308499  0.83482022  1
  Fe  Fe45  1  0.83659550  0.17083081  0.50174695  1
  Ni  Ni46  1  0.66894202  0.00403546  0.66766957  1
  Ni  Ni47  1  0.83615990  0.16693306  0.83096075  1
  Ni  Ni48  1  0.83264385  0.49829287  0.50036875  1
  Fe  Fe49  1  0.66848738  0.33498479  0.66652793  1
  Fe  Fe50  1  0.83652172  0.50124753  0.83489163  1
  Cr  Cr51  1  0.83444185  0.83733175  0.49886947  1
  Cr  Cr52  1  0.66628927  0.66902839  0.67003717  1
  Ni  Ni53  1  0.83550425  0.83690241  0.83680582  1
" 