809,Ni50Fe27Cr21_14,-230.992660773422, 186.050707749928,Ni50Fe27Cr21,"# generated using pymatgen
 data_Cr13Fe14Ni27
_symmetry_space_group_name_H-M   'P 1'
_cell_length_a   7.44952696
_cell_length_b   7.44952696
_cell_length_c   10.53522207
_cell_angle_alpha   90.00000000
_cell_angle_beta   90.00000000
_cell_angle_gamma   90.00000000
_symmetry_Int_Tables_number   1
_chemical_formula_structural   Cr13Fe14Ni27
_chemical_formula_sum   'Cr13 Fe14 Ni27'
_cell_volume   584.65691031
_cell_formula_units_Z   1
loop_
 _symmetry_equiv_pos_site_id
 _symmetry_equiv_pos_as_xyz
  1  'x, y, z'
loop_
 _atom_site_type_symbol
 _atom_site_label
 _atom_site_symmetry_multiplicity
 _atom_site_fract_x
 _atom_site_fract_y
 _atom_site_fract_z
 _atom_site_occupancy
  Fe  Fe0  1  0.00251202  1.00110237  1.00102460  1
  Ni  Ni1  1  0.16714864  0.16858726  0.16904918  1
  Ni  Ni2  1  1.00087902  0.00140171  0.33272876  1
  Cr  Cr3  1  1.00046176  0.33454620  1.00077612  1
  Fe  Fe4  1  0.16903056  0.50029014  0.16648436  1
  Ni  Ni5  1  0.00230276  0.33442077  0.33480459  1
  Ni  Ni6  1  0.00122407  0.66878748  0.00172514  1
  Ni  Ni7  1  0.16743586  0.83518931  0.16550336  1
  Cr  Cr8  1  0.00179753  0.66767234  0.33502545  1
  Cr  Cr9  1  0.33473198  0.00229848  0.99971114  1
  Ni  Ni10  1  0.49908118  0.16833668  0.16869803  1
  Cr  Cr11  1  0.33418260  1.00076155  0.33419780  1
  Ni  Ni12  1  0.33484803  0.33550516  0.00197144  1
  Ni  Ni13  1  0.50001525  0.50229280  0.16582993  1
  Ni  Ni14  1  0.33252060  0.33484962  0.33255814  1
  Ni  Ni15  1  0.33296146  0.66761333  0.00132304  1
  Ni  Ni16  1  0.50091938  0.83278163  0.16759726  1
  Cr  Cr17  1  0.33362785  0.66704937  0.33586055  1
  Cr  Cr18  1  0.66879447  0.00298775  0.00332388  1
  Ni  Ni19  1  0.83767788  0.16754696  0.16985517  1
  Fe  Fe20  1  0.66913376  1.00033125  0.33327493  1
  Cr  Cr21  1  0.66691274  0.33341099  1.00116521  1
  Ni  Ni22  1  0.83539125  0.50200352  0.16692117  1
  Cr  Cr23  1  0.66802935  0.33399563  0.33160051  1
  Fe  Fe24  1  0.66715293  0.66732623  0.00121140  1
  Fe  Fe25  1  0.83554882  0.83546241  0.16709878  1
  Cr  Cr26  1  0.66816089  0.66802092  0.33500924  1
  Ni  Ni27  1  0.16764774  0.16941828  0.50181957  1
  Ni  Ni28  1  0.00123698  0.99992891  0.66982159  1
  Ni  Ni29  1  0.16910364  0.16895343  0.83248151  1
  Fe  Fe30  1  0.16785710  0.49679416  0.50169586  1
  Fe  Fe31  1  0.00283058  0.33307759  0.66903893  1
  Ni  Ni32  1  0.16802074  0.49870791  0.83596612  1
  Fe  Fe33  1  0.16550537  0.83975192  0.50128765  1
  Cr  Cr34  1  1.00090521  0.66838232  0.66636422  1
  Fe  Fe35  1  0.16613208  0.83354245  0.83578709  1
  Cr  Cr36  1  0.49850371  0.16645105  0.50185164  1
  Ni  Ni37  1  0.33385309  0.00129216  0.66881254  1
  Fe  Fe38  1  0.50057792  0.16857780  0.83239212  1
  Fe  Fe39  1  0.50236765  0.49912028  0.50207310  1
  Ni  Ni40  1  0.33564634  0.33414417  0.66884041  1
  Fe  Fe41  1  0.49981387  0.50182033  0.83515672  1
  Ni  Ni42  1  0.50301622  0.83413814  0.50282969  1
  Cr  Cr43  1  0.33307618  0.66885631  0.66620028  1
  Ni  Ni44  1  0.50268358  0.83374545  0.83344643  1
  Cr  Cr45  1  0.83795220  0.16748389  0.50203146  1
  Ni  Ni46  1  0.66820584  0.00130388  0.66813739  1
  Fe  Fe47  1  0.83560630  0.16673603  0.83233366  1
  Ni  Ni48  1  0.83515345  0.50131846  0.50358230  1
  Ni  Ni49  1  0.66825047  0.33527496  0.66999597  1
  Ni  Ni50  1  0.83454462  0.50328707  0.83299036  1
  Ni  Ni51  1  0.83251314  0.83459168  0.50111213  1
  Fe  Fe52  1  0.66747415  0.66906919  0.66760006  1
  Ni  Ni53  1  0.83254088  0.83316200  0.83552368  1
" 