2018,Ni50Fe33Cr15_17,-234.658922038579, 206.565472963945,Ni50Fe33Cr15,"# generated using pymatgen
 data_CrFe2Ni3
_symmetry_space_group_name_H-M   'P 1'
_cell_length_a   7.43092554
_cell_length_b   7.43092554
_cell_length_c   10.50891567
_cell_angle_alpha   90.00000000
_cell_angle_beta   90.00000000
_cell_angle_gamma   90.00000000
_symmetry_Int_Tables_number   1
_chemical_formula_structural   CrFe2Ni3
_chemical_formula_sum   'Cr9 Fe18 Ni27'
_cell_volume   580.28818182
_cell_formula_units_Z   9
loop_
 _symmetry_equiv_pos_site_id
 _symmetry_equiv_pos_as_xyz
  1  'x, y, z'
loop_
 _atom_site_type_symbol
 _atom_site_label
 _atom_site_symmetry_multiplicity
 _atom_site_fract_x
 _atom_site_fract_y
 _atom_site_fract_z
 _atom_site_occupancy
  Fe  Fe0  1  1.00214465  1.00097353  0.00406274  1
  Fe  Fe1  1  0.16997658  0.16887669  0.16964446  1
  Ni  Ni2  1  0.00267753  1.00006396  0.33483417  1
  Fe  Fe3  1  0.00391765  0.33842298  0.00304232  1
  Fe  Fe4  1  0.16923791  0.50267481  0.16911649  1
  Fe  Fe5  1  0.00317857  0.33390909  0.33460821  1
  Ni  Ni6  1  1.00201935  0.67069698  1.00202449  1
  Fe  Fe7  1  0.16841857  0.83589379  0.16911969  1
  Fe  Fe8  1  0.00320884  0.67069129  0.33504685  1
  Ni  Ni9  1  0.33426747  1.00121672  1.00220666  1
  Ni  Ni10  1  0.50020347  0.16867224  0.16999629  1
  Ni  Ni11  1  0.33414090  0.00406492  0.33813045  1
  Ni  Ni12  1  0.33640041  0.33768352  0.00411973  1
  Ni  Ni13  1  0.50137878  0.50238206  0.17020266  1
  Ni  Ni14  1  0.33702829  0.33604598  0.33542670  1
  Ni  Ni15  1  0.33399331  0.66804264  1.00168892  1
  Cr  Cr16  1  0.50171086  0.83608652  0.16867499  1
  Fe  Fe17  1  0.33669177  0.66946110  0.33683933  1
  Fe  Fe18  1  0.67017249  1.00027837  0.00357052  1
  Ni  Ni19  1  0.83721536  0.16903228  0.16886773  1
  Ni  Ni20  1  0.67029694  0.00267547  0.33532737  1
  Cr  Cr21  1  0.66896496  0.33651828  0.00390022  1
  Ni  Ni22  1  0.83760779  0.50344437  0.17005404  1
  Ni  Ni23  1  0.66632860  0.33567070  0.33476183  1
  Fe  Fe24  1  0.66920816  0.66885641  0.00284218  1
  Ni  Ni25  1  0.83727565  0.83457204  0.16963702  1
  Ni  Ni26  1  0.66981700  0.66882744  0.33525347  1
  Ni  Ni27  1  0.17067838  0.16999175  0.50065898  1
  Cr  Cr28  1  1.00232192  0.99896854  0.66846291  1
  Cr  Cr29  1  0.16855771  0.17001292  0.83695995  1
  Ni  Ni30  1  0.16747122  0.50199585  0.50121036  1
  Ni  Ni31  1  1.00202891  0.33732647  0.67082384  1
  Fe  Fe32  1  0.16812051  0.50499685  0.83665122  1
  Ni  Ni33  1  0.16932584  0.83506190  0.50089988  1
  Ni  Ni34  1  1.00180448  0.66979603  0.66899320  1
  Fe  Fe35  1  0.16913397  0.83339778  0.83735675  1
  Ni  Ni36  1  0.50089061  0.16695969  0.50172462  1
  Fe  Fe37  1  0.33543102  1.00079623  0.66720639  1
  Cr  Cr38  1  0.50047041  0.16653373  0.83565305  1
  Fe  Fe39  1  0.50202714  0.50332240  0.49961107  1
  Cr  Cr40  1  0.33678918  0.33722394  0.66704521  1
  Ni  Ni41  1  0.50407992  0.50507950  0.83676647  1
  Ni  Ni42  1  0.50311718  0.83752077  0.50195756  1
  Cr  Cr43  1  0.33513933  0.67013950  0.66862839  1
  Ni  Ni44  1  0.50335982  0.83468046  0.83694633  1
  Cr  Cr45  1  0.83549659  0.16987517  0.50230685  1
  Fe  Fe46  1  0.66802172  0.99916051  0.66829898  1
  Fe  Fe47  1  0.83417908  0.16896048  0.83596176  1
  Cr  Cr48  1  0.83744207  0.50429186  0.50174817  1
  Fe  Fe49  1  0.67017990  0.33767161  0.67013658  1
  Ni  Ni50  1  0.83789058  0.50455769  0.83503322  1
  Ni  Ni51  1  0.83492092  0.83385437  0.50061765  1
  Fe  Fe52  1  0.67031447  0.67041332  0.66957211  1
  Ni  Ni53  1  0.83457350  0.83292474  0.83701722  1
" 