6672,Ni50Fe27Cr21_18,-231.695847765104, 192.39206497795,Ni50Fe27Cr21,"# generated using pymatgen
 data_Cr13Fe14Ni27
_symmetry_space_group_name_H-M   'P 1'
_cell_length_a   7.45126912
_cell_length_b   7.45126912
_cell_length_c   10.53768585
_cell_angle_alpha   90.00000000
_cell_angle_beta   90.00000000
_cell_angle_gamma   90.00000000
_symmetry_Int_Tables_number   1
_chemical_formula_structural   Cr13Fe14Ni27
_chemical_formula_sum   'Cr13 Fe14 Ni27'
_cell_volume   585.06719258
_cell_formula_units_Z   1
loop_
 _symmetry_equiv_pos_site_id
 _symmetry_equiv_pos_as_xyz
  1  'x, y, z'
loop_
 _atom_site_type_symbol
 _atom_site_label
 _atom_site_symmetry_multiplicity
 _atom_site_fract_x
 _atom_site_fract_y
 _atom_site_fract_z
 _atom_site_occupancy
  Fe  Fe0  1  0.00272530  0.00357173  0.00119467  1
  Fe  Fe1  1  0.16919126  0.16787046  0.16836950  1
  Ni  Ni2  1  1.00065801  0.00536075  0.33472145  1
  Fe  Fe3  1  0.00190090  0.32979212  0.00109259  1
  Fe  Fe4  1  0.16984834  0.49794535  0.16595593  1
  Ni  Ni5  1  0.00184355  0.33146717  0.33470977  1
  Ni  Ni6  1  0.00452338  0.66755929  0.00199966  1
  Fe  Fe7  1  0.16988331  0.83728600  0.16605315  1
  Cr  Cr8  1  1.00063226  0.66541224  0.33556102  1
  Ni  Ni9  1  0.33527312  0.00299994  1.00077843  1
  Ni  Ni10  1  0.50027867  0.16800963  0.16794619  1
  Ni  Ni11  1  0.33594525  0.00469203  0.33302286  1
  Ni  Ni12  1  0.33428368  0.33228498  0.00117501  1
  Ni  Ni13  1  0.49760294  0.49792660  0.16744430  1
  Ni  Ni14  1  0.33382090  0.33165626  0.33500289  1
  Fe  Fe15  1  0.33470841  0.66904594  0.00200798  1
  Ni  Ni16  1  0.49761245  0.83719690  0.16756759  1
  Cr  Cr17  1  0.33552470  0.66659194  0.33315138  1
  Ni  Ni18  1  0.66561590  0.00423545  0.00143865  1
  Ni  Ni19  1  0.83389032  0.16752041  0.16834169  1
  Ni  Ni20  1  0.66682923  0.00419800  0.33465834  1
  Fe  Fe21  1  0.66466843  0.33016868  0.00206988  1
  Cr  Cr22  1  0.83397124  0.49649356  0.16625519  1
  Ni  Ni23  1  0.66745379  0.33101683  0.33432166  1
  Cr  Cr24  1  0.66635049  0.66865309  0.00142005  1
  Cr  Cr25  1  0.83526853  0.83901339  0.16854020  1
  Cr  Cr26  1  0.66721801  0.66841962  0.33647677  1
  Ni  Ni27  1  0.16829788  0.16973977  0.49987193  1
  Fe  Fe28  1  0.99973743  0.00519769  0.66699912  1
  Ni  Ni29  1  0.16753827  0.16614667  0.83432154  1
  Fe  Fe30  1  0.16667864  0.49462398  0.50118530  1
  Ni  Ni31  1  0.00143244  0.33105220  0.66661563  1
  Cr  Cr32  1  0.17017355  0.49980219  0.83530406  1
  Cr  Cr33  1  0.16736865  0.83866355  0.50001623  1
  Cr  Cr34  1  0.99895852  0.66617449  0.66539673  1
  Ni  Ni35  1  0.16896860  0.83734795  0.83805042  1
  Ni  Ni36  1  0.50085568  0.16945763  0.49975691  1
  Cr  Cr37  1  0.33607930  0.00518426  0.66945126  1
  Fe  Fe38  1  0.50133196  0.16897625  0.83546388  1
  Fe  Fe39  1  0.50255075  0.49676877  0.50186494  1
  Ni  Ni40  1  0.33351369  0.33258119  0.66679771  1
  Ni  Ni41  1  0.50057118  0.49879605  0.83402190  1
  Fe  Fe42  1  0.50488928  0.83879780  0.50062994  1
  Cr  Cr43  1  0.33716027  0.66658810  0.66859501  1
  Fe  Fe44  1  0.50087085  0.83610137  0.83575159  1
  Ni  Ni45  1  0.83405040  0.16795613  0.50051414  1
  Ni  Ni46  1  0.66848035  0.00150064  0.66704043  1
  Ni  Ni47  1  0.83424124  0.16693624  0.83417638  1
  Ni  Ni48  1  0.83244595  0.49875810  0.50204094  1
  Fe  Fe49  1  0.66675746  0.33316517  0.66613014  1
  Cr  Cr50  1  0.83131924  0.49773225  0.83491330  1
  Ni  Ni51  1  0.83258459  0.83642949  0.50169586  1
  Ni  Ni52  1  0.66698217  0.66894690  0.66583908  1
  Cr  Cr53  1  0.83581336  0.83736086  0.83345284  1
" 