3777,Ni50Fe33Cr15_6,-235.296783083152, 205.922769839612,Ni50Fe33Cr15,"# generated using pymatgen
 data_CrFe2Ni3
_symmetry_space_group_name_H-M   'P 1'
_cell_length_a   7.43427534
_cell_length_b   7.43427534
_cell_length_c   10.51365301
_cell_angle_alpha   90.00000000
_cell_angle_beta   90.00000000
_cell_angle_gamma   90.00000000
_symmetry_Int_Tables_number   1
_chemical_formula_structural   CrFe2Ni3
_chemical_formula_sum   'Cr9 Fe18 Ni27'
_cell_volume   581.07330412
_cell_formula_units_Z   9
loop_
 _symmetry_equiv_pos_site_id
 _symmetry_equiv_pos_as_xyz
  1  'x, y, z'
loop_
 _atom_site_type_symbol
 _atom_site_label
 _atom_site_symmetry_multiplicity
 _atom_site_fract_x
 _atom_site_fract_y
 _atom_site_fract_z
 _atom_site_occupancy
  Ni  Ni0  1  1.00181076  0.00338833  1.00215390  1
  Fe  Fe1  1  0.17098971  0.16869997  0.16641454  1
  Cr  Cr2  1  0.00435091  0.00248134  0.33734580  1
  Fe  Fe3  1  0.00463112  0.33489781  1.00150441  1
  Ni  Ni4  1  0.16978325  0.50249994  0.16785423  1
  Cr  Cr5  1  1.00166549  0.33553573  0.33474952  1
  Fe  Fe6  1  0.00388093  0.66747577  0.00231364  1
  Fe  Fe7  1  0.17094794  0.83344312  0.16838036  1
  Ni  Ni8  1  0.00365796  0.66759839  0.33676213  1
  Ni  Ni9  1  0.33367518  1.00107137  0.00434635  1
  Fe  Fe10  1  0.50173435  0.16791387  0.16698433  1
  Fe  Fe11  1  0.33587383  1.00150989  0.33561297  1
  Ni  Ni12  1  0.33612607  0.33602731  0.00230195  1
  Cr  Cr13  1  0.50079730  0.50281204  0.16960300  1
  Fe  Fe14  1  0.33413059  0.33632258  0.33673435  1
  Ni  Ni15  1  0.33643766  0.66880938  1.00048928  1
  Ni  Ni16  1  0.50053329  0.83456378  0.16702906  1
  Ni  Ni17  1  0.33470474  0.66944919  0.33566716  1
  Fe  Fe18  1  0.66723389  0.00318483  1.00167984  1
  Ni  Ni19  1  0.83632959  0.16937104  0.16425808  1
  Cr  Cr20  1  0.66856502  0.00291300  0.33658953  1
  Ni  Ni21  1  0.67157070  0.33695618  1.00160002  1
  Fe  Fe22  1  0.83658683  0.50267247  0.16752918  1
  Cr  Cr23  1  0.66961161  0.33589914  0.33778166  1
  Fe  Fe24  1  0.66749997  0.66975867  0.99952360  1
  Cr  Cr25  1  0.83561017  0.83506607  0.16853670  1
  Ni  Ni26  1  0.66879958  0.66799764  0.33594347  1
  Ni  Ni27  1  0.16930099  0.16932884  0.50375937  1
  Ni  Ni28  1  1.00138372  0.00385896  0.66746803  1
  Ni  Ni29  1  0.16717903  0.16977375  0.83610933  1
  Fe  Fe30  1  0.16928438  0.50252696  0.50270474  1
  Ni  Ni31  1  1.00212994  0.33313863  0.67068767  1
  Fe  Fe32  1  0.16916088  0.49987077  0.83597746  1
  Ni  Ni33  1  0.16730998  0.83439413  0.50163530  1
  Fe  Fe34  1  0.00336921  0.66832660  0.66784886  1
  Cr  Cr35  1  0.16774777  0.83631672  0.83461658  1
  Ni  Ni36  1  0.49973153  0.17262683  0.50311725  1
  Ni  Ni37  1  0.33256210  0.00297662  0.66725768  1
  Cr  Cr38  1  0.50003557  0.17192822  0.83427236  1
  Ni  Ni39  1  0.50082510  0.50144995  0.50245148  1
  Ni  Ni40  1  0.33336291  0.33698616  0.66790770  1
  Ni  Ni41  1  0.50144808  0.50364191  0.83538938  1
  Cr  Cr42  1  0.50201647  0.83313793  0.50410950  1
  Ni  Ni43  1  0.33739316  0.66725371  0.67031061  1
  Fe  Fe44  1  0.50275776  0.83650919  0.83509216  1
  Ni  Ni45  1  0.83610485  0.16867616  0.50688933  1
  Fe  Fe46  1  0.66927163  0.00236562  0.66858694  1
  Ni  Ni47  1  0.83721833  0.16738956  0.83568494  1
  Fe  Fe48  1  0.83554742  0.50333704  0.50432782  1
  Fe  Fe49  1  0.66795091  0.33644232  0.66878158  1
  Fe  Fe50  1  0.83563098  0.50114194  0.83508894  1
  Ni  Ni51  1  0.83817321  0.83387828  0.50367645  1
  Ni  Ni52  1  0.66894390  0.66766753  0.67073780  1
  Ni  Ni53  1  0.83564494  0.83576006  0.83484492  1
" 