5695,Ni50Fe26Cr23_2,-231.986543100982, 192.849083659175,Ni50Fe26Cr23,"# generated using pymatgen
 data_Cr13Fe14Ni27
_symmetry_space_group_name_H-M   'P 1'
_cell_length_a   7.44860552
_cell_length_b   7.44860552
_cell_length_c   10.53391895
_cell_angle_alpha   90.00000000
_cell_angle_beta   90.00000000
_cell_angle_gamma   90.00000000
_symmetry_Int_Tables_number   1
_chemical_formula_structural   Cr13Fe14Ni27
_chemical_formula_sum   'Cr13 Fe14 Ni27'
_cell_volume   584.43998643
_cell_formula_units_Z   1
loop_
 _symmetry_equiv_pos_site_id
 _symmetry_equiv_pos_as_xyz
  1  'x, y, z'
loop_
 _atom_site_type_symbol
 _atom_site_label
 _atom_site_symmetry_multiplicity
 _atom_site_fract_x
 _atom_site_fract_y
 _atom_site_fract_z
 _atom_site_occupancy
  Ni  Ni0  1  0.00137290  0.00184082  1.00092872  1
  Cr  Cr1  1  0.16755037  0.16715444  0.16906677  1
  Ni  Ni2  1  0.99739403  0.00156462  0.33383788  1
  Fe  Fe3  1  1.00053347  0.33305931  0.00168833  1
  Fe  Fe4  1  0.16751740  0.50043682  0.16834311  1
  Ni  Ni5  1  0.99905344  0.33393024  0.33411006  1
  Cr  Cr6  1  0.99999990  0.66884678  1.00120240  1
  Ni  Ni7  1  0.16554767  0.83521354  0.16677877  1
  Fe  Fe8  1  0.99856870  0.66818499  0.33276574  1
  Ni  Ni9  1  0.33237922  0.00203328  1.00038321  1
  Cr  Cr10  1  0.50167265  0.17014915  0.16900703  1
  Cr  Cr11  1  0.33528975  0.00174331  0.33686791  1
  Ni  Ni12  1  0.33416702  0.33633367  0.99976443  1
  Ni  Ni13  1  0.50329936  0.50008448  0.16601067  1
  Ni  Ni14  1  0.33545847  0.33637145  0.33657781  1
  Fe  Fe15  1  0.33455548  0.66860819  0.00219660  1
  Fe  Fe16  1  0.50267235  0.83367292  0.16736558  1
  Cr  Cr17  1  0.33669387  0.66665362  0.33201459  1
  Cr  Cr18  1  0.67194908  1.00032017  0.00134873  1
  Fe  Fe19  1  0.83476027  0.16820072  0.16995589  1
  Ni  Ni20  1  0.67163911  1.00039912  0.33620828  1
  Fe  Fe21  1  0.66794631  0.33490475  0.00136399  1
  Ni  Ni22  1  0.83268881  0.50117493  0.16940354  1
  Ni  Ni23  1  0.66908880  0.33540184  0.33520951  1
  Ni  Ni24  1  0.66770971  0.66632351  0.00345860  1
  Ni  Ni25  1  0.83601754  0.83353888  0.16909480  1
  Fe  Fe26  1  0.66972254  0.66760232  0.33435848  1
  Ni  Ni27  1  0.16552679  0.16805248  0.50108390  1
  Ni  Ni28  1  1.00012687  0.00263824  0.66897503  1
  Fe  Fe29  1  0.16781770  0.16662621  0.83479121  1
  Cr  Cr30  1  0.16440443  0.49936243  0.50003835  1
  Ni  Ni31  1  0.99953203  0.33135314  0.66815285  1
  Fe  Fe32  1  0.16873328  0.50073353  0.83481890  1
  Cr  Cr33  1  0.16434299  0.83677456  0.50223455  1
  Fe  Fe34  1  1.00109924  0.66856295  0.66893406  1
  Ni  Ni35  1  0.16568392  0.83748096  0.83459936  1
  Ni  Ni36  1  0.50336880  0.16885944  0.50128216  1
  Ni  Ni37  1  0.33345815  0.00259316  0.66746864  1
  Ni  Ni38  1  0.50029595  0.17013299  0.83388069  1
  Ni  Ni39  1  0.50441155  0.49880523  0.49954122  1
  Cr  Cr40  1  0.33584140  0.33285394  0.66612741  1
  Ni  Ni41  1  0.50206956  0.49774056  0.83771290  1
  Ni  Ni42  1  0.50431796  0.83638244  0.50054225  1
  Cr  Cr43  1  0.33570773  0.66779575  0.66984634  1
  Cr  Cr44  1  0.50120786  0.83614894  0.83621707  1
  Ni  Ni45  1  0.83484137  0.16783650  0.50088526  1
  Fe  Fe46  1  0.66824253  0.00432662  0.66668818  1
  Fe  Fe47  1  0.83432572  0.16627020  0.83282670  1
  Fe  Fe48  1  0.83358409  0.49873621  0.50028651  1
  Ni  Ni49  1  0.66907430  0.33355590  0.66766464  1
  Cr  Cr50  1  0.83313355  0.50069015  0.83325485  1
  Ni  Ni51  1  0.83481581  0.83538552  0.50113058  1
  Cr  Cr52  1  0.66790267  0.66787508  0.66535011  1
  Ni  Ni53  1  0.83773512  0.83552863  0.83320449  1
" 