3480,Ni50Fe43Cr5_12,-238.677638969215, 215.769269974711,Ni50Fe43Cr5,"# generated using pymatgen
 data_Cr4Fe23Ni27
_symmetry_space_group_name_H-M   'P 1'
_cell_length_a   7.41446878
_cell_length_b   7.41446878
_cell_length_c   10.48564230
_cell_angle_alpha   90.00000000
_cell_angle_beta   90.00000000
_cell_angle_gamma   90.00000000
_symmetry_Int_Tables_number   1
_chemical_formula_structural   Cr4Fe23Ni27
_chemical_formula_sum   'Cr4 Fe23 Ni27'
_cell_volume   576.44134061
_cell_formula_units_Z   1
loop_
 _symmetry_equiv_pos_site_id
 _symmetry_equiv_pos_as_xyz
  1  'x, y, z'
loop_
 _atom_site_type_symbol
 _atom_site_label
 _atom_site_symmetry_multiplicity
 _atom_site_fract_x
 _atom_site_fract_y
 _atom_site_fract_z
 _atom_site_occupancy
  Fe  Fe0  1  0.00560360  0.00361946  1.00281835  1
  Ni  Ni1  1  0.16889106  0.17163593  0.17012807  1
  Fe  Fe2  1  1.00311337  0.00410702  0.33771032  1
  Fe  Fe3  1  0.00453698  0.33610491  1.00348082  1
  Ni  Ni4  1  0.16940733  0.50365644  0.16980759  1
  Ni  Ni5  1  0.00394882  0.33734161  0.33577579  1
  Ni  Ni6  1  1.00351649  0.67000791  1.00352887  1
  Fe  Fe7  1  0.17041127  0.83777809  0.17057566  1
  Ni  Ni8  1  0.00598357  0.67074943  0.33719201  1
  Ni  Ni9  1  0.33577603  1.00317396  0.00390997  1
  Cr  Cr10  1  0.50202985  0.16816028  0.17182346  1
  Fe  Fe11  1  0.33543412  1.00197446  0.33779481  1
  Ni  Ni12  1  0.33605074  0.33693780  1.00310195  1
  Fe  Fe13  1  0.50247201  0.50299702  0.17069826  1
  Fe  Fe14  1  0.33477979  0.33903399  0.33746839  1
  Fe  Fe15  1  0.33603549  0.67048650  0.00515782  1
  Ni  Ni16  1  0.50397648  0.83469744  0.17033648  1
  Ni  Ni17  1  0.33520090  0.67095627  0.33668888  1
  Cr  Cr18  1  0.67066243  0.00386718  1.00041405  1
  Ni  Ni19  1  0.83857457  0.17088315  0.16992743  1
  Ni  Ni20  1  0.67050207  1.00321440  0.33927086  1
  Fe  Fe21  1  0.67030687  0.33827539  1.00277555  1
  Fe  Fe22  1  0.83753841  0.50337954  0.17030675  1
  Ni  Ni23  1  0.67101909  0.33467294  0.33656882  1
  Fe  Fe24  1  0.66914420  0.66937198  1.00232828  1
  Fe  Fe25  1  0.83808296  0.83726788  0.17102131  1
  Fe  Fe26  1  0.66954004  0.67097324  0.33695896  1
  Ni  Ni27  1  0.17002061  0.17128344  0.50252325  1
  Fe  Fe28  1  0.00407627  0.00509735  0.66978566  1
  Ni  Ni29  1  0.17191075  0.17074165  0.83778668  1
  Ni  Ni30  1  0.17100213  0.50302828  0.50454767  1
  Ni  Ni31  1  0.00559472  0.33671948  0.67195379  1
  Fe  Fe32  1  0.16932934  0.50244665  0.83722297  1
  Ni  Ni33  1  0.17090796  0.83652367  0.50361322  1
  Fe  Fe34  1  0.00514688  0.67057174  0.67067798  1
  Fe  Fe35  1  0.16896145  0.83844764  0.83662374  1
  Fe  Fe36  1  0.50221487  0.16866029  0.50313078  1
  Ni  Ni37  1  0.33648606  1.00341365  0.67015890  1
  Ni  Ni38  1  0.50042906  0.17004204  0.83628096  1
  Fe  Fe39  1  0.50238173  0.50451071  0.50282233  1
  Ni  Ni40  1  0.33449564  0.33530526  0.66900820  1
  Fe  Fe41  1  0.50323918  0.50274144  0.83693224  1
  Ni  Ni42  1  0.50340249  0.83677483  0.50430822  1
  Fe  Fe43  1  0.33737470  0.66907460  0.66863297  1
  Fe  Fe44  1  0.50230872  0.83724794  0.83544780  1
  Ni  Ni45  1  0.83840109  0.16927983  0.50371930  1
  Fe  Fe46  1  0.67026079  1.00343648  0.67039469  1
  Ni  Ni47  1  0.83900956  0.17057524  0.83693464  1
  Cr  Cr48  1  0.83942868  0.50402751  0.50252050  1
  Cr  Cr49  1  0.67066652  0.33603002  0.67098440  1
  Ni  Ni50  1  0.83799425  0.50511873  0.83850886  1
  Ni  Ni51  1  0.83616271  0.83750768  0.50372095  1
  Ni  Ni52  1  0.67066306  0.67252940  0.67058493  1
  Ni  Ni53  1  0.83705956  0.83500756  0.83507214  1
" 