8727,Ni50Fe25Cr24_8,-231.224123485676, 191.482256709394,Ni50Fe25Cr24,"# generated using pymatgen
 data_Cr14Fe13Ni27
_symmetry_space_group_name_H-M   'P 1'
_cell_length_a   7.45673985
_cell_length_b   7.45673985
_cell_length_c   10.54542263
_cell_angle_alpha   90.00000000
_cell_angle_beta   90.00000000
_cell_angle_gamma   90.00000000
_symmetry_Int_Tables_number   1
_chemical_formula_structural   Cr14Fe13Ni27
_chemical_formula_sum   'Cr14 Fe13 Ni27'
_cell_volume   586.35680997
_cell_formula_units_Z   1
loop_
 _symmetry_equiv_pos_site_id
 _symmetry_equiv_pos_as_xyz
  1  'x, y, z'
loop_
 _atom_site_type_symbol
 _atom_site_label
 _atom_site_symmetry_multiplicity
 _atom_site_fract_x
 _atom_site_fract_y
 _atom_site_fract_z
 _atom_site_occupancy
  Ni  Ni0  1  0.99975707  0.99959294  0.00212064  1
  Fe  Fe1  1  0.16613012  0.16967486  0.16714099  1
  Fe  Fe2  1  0.00113864  0.00308030  0.33352825  1
  Ni  Ni3  1  0.99939370  0.33526658  0.00336868  1
  Fe  Fe4  1  0.16827792  0.49911577  0.16663403  1
  Ni  Ni5  1  0.00234143  0.33365295  0.33314085  1
  Ni  Ni6  1  0.99989054  0.66721531  0.99981873  1
  Fe  Fe7  1  0.16821233  0.83328117  0.16651230  1
  Cr  Cr8  1  0.00168622  0.66595162  0.33368057  1
  Cr  Cr9  1  0.33569797  1.00059539  1.00060024  1
  Ni  Ni10  1  0.50013372  0.16916755  0.16458783  1
  Cr  Cr11  1  0.33444608  1.00059691  0.33313521  1
  Ni  Ni12  1  0.33593752  0.33493165  0.00264236  1
  Ni  Ni13  1  0.49935589  0.50139099  0.16740210  1
  Ni  Ni14  1  0.33291557  0.33523709  0.33342126  1
  Ni  Ni15  1  0.33472973  0.66684115  0.00175000  1
  Ni  Ni16  1  0.50049669  0.83151258  0.16755053  1
  Fe  Fe17  1  0.33545499  0.66522063  0.33416039  1
  Ni  Ni18  1  0.66711744  0.00080170  1.00061961  1
  Ni  Ni19  1  0.83635962  0.16850381  0.16715354  1
  Cr  Cr20  1  0.66636697  0.00073320  0.33383467  1
  Ni  Ni21  1  0.66674260  0.33479375  0.00133514  1
  Ni  Ni22  1  0.83415861  0.49908544  0.16488179  1
  Cr  Cr23  1  0.66695065  0.33451383  0.33355450  1
  Ni  Ni24  1  0.66745236  0.66647864  1.00022846  1
  Cr  Cr25  1  0.83272904  0.83431385  0.16576251  1
  Ni  Ni26  1  0.66471939  0.66685150  0.33324278  1
  Cr  Cr27  1  0.16596332  0.16825004  0.50073951  1
  Ni  Ni28  1  0.00117255  0.00071348  0.66614339  1
  Cr  Cr29  1  0.16692542  0.16711349  0.83410180  1
  Ni  Ni30  1  0.16967918  0.50068127  0.49940107  1
  Ni  Ni31  1  0.99832117  0.33298174  0.66556085  1
  Cr  Cr32  1  0.16835300  0.50072862  0.83539245  1
  Ni  Ni33  1  0.16932745  0.83352403  0.50242533  1
  Cr  Cr34  1  0.00123338  0.66760399  0.66936591  1
  Fe  Fe35  1  0.16765875  0.83383172  0.83344879  1
  Ni  Ni36  1  0.50095183  0.16738337  0.50308943  1
  Ni  Ni37  1  0.33547149  0.99804013  0.66724782  1
  Fe  Fe38  1  0.50213268  0.16705705  0.83442255  1
  Fe  Fe39  1  0.49847435  0.50242729  0.50071838  1
  Cr  Cr40  1  0.33576124  0.33383992  0.66671140  1
  Ni  Ni41  1  0.50189601  0.50295666  0.83442905  1
  Fe  Fe42  1  0.49850093  0.83233245  0.50240940  1
  Ni  Ni43  1  0.33646637  0.67048858  0.66512324  1
  Ni  Ni44  1  0.50259981  0.83194534  0.83253876  1
  Fe  Fe45  1  0.83540781  0.16761735  0.50189663  1
  Fe  Fe46  1  0.66587176  1.00001684  0.66782104  1
  Cr  Cr47  1  0.83420523  0.16628547  0.83327497  1
  Cr  Cr48  1  0.83373843  0.49935146  0.50205648  1
  Fe  Fe49  1  0.66706201  0.33414387  0.66756556  1
  Fe  Fe50  1  0.83132987  0.50214146  0.83532372  1
  Cr  Cr51  1  0.83305348  0.83592893  0.50057521  1
  Ni  Ni52  1  0.66487152  0.66764254  0.66860291  1
  Ni  Ni53  1  0.83230136  0.83389496  0.83512960  1
" 