8072,Ni50Fe26Cr23_10,-231.998304225259, 193.917686866145,Ni50Fe26Cr23,"# generated using pymatgen
 data_Cr13Fe14Ni27
_symmetry_space_group_name_H-M   'P 1'
_cell_length_a   7.44826871
_cell_length_b   7.44826871
_cell_length_c   10.53344262
_cell_angle_alpha   90.00000000
_cell_angle_beta   90.00000000
_cell_angle_gamma   90.00000000
_symmetry_Int_Tables_number   1
_chemical_formula_structural   Cr13Fe14Ni27
_chemical_formula_sum   'Cr13 Fe14 Ni27'
_cell_volume   584.36070700
_cell_formula_units_Z   1
loop_
 _symmetry_equiv_pos_site_id
 _symmetry_equiv_pos_as_xyz
  1  'x, y, z'
loop_
 _atom_site_type_symbol
 _atom_site_label
 _atom_site_symmetry_multiplicity
 _atom_site_fract_x
 _atom_site_fract_y
 _atom_site_fract_z
 _atom_site_occupancy
  Cr  Cr0  1  1.00082486  0.00175342  0.99794657  1
  Cr  Cr1  1  0.16895346  0.17087823  0.17028628  1
  Fe  Fe2  1  1.00016341  0.99981093  0.33737102  1
  Cr  Cr3  1  0.99861820  0.33717772  1.00032220  1
  Fe  Fe4  1  0.16753553  0.50175140  0.16823010  1
  Ni  Ni5  1  0.99996054  0.33780510  0.33460290  1
  Ni  Ni6  1  0.00129215  0.66514341  0.99931480  1
  Cr  Cr7  1  0.16681910  0.83115538  0.16816494  1
  Ni  Ni8  1  0.99856721  0.66543579  0.33571111  1
  Cr  Cr9  1  0.33638361  1.00055173  1.00075802  1
  Ni  Ni10  1  0.50311840  0.16902502  0.16754439  1
  Cr  Cr11  1  0.33729871  1.00075849  0.33655431  1
  Fe  Fe12  1  0.33618118  0.33608345  0.99984228  1
  Cr  Cr13  1  0.50150002  0.50107079  0.16792610  1
  Ni  Ni14  1  0.33582475  0.33331899  0.33629607  1
  Ni  Ni15  1  0.33498044  0.66804633  1.00001121  1
  Ni  Ni16  1  0.50410307  0.83420610  0.16676033  1
  Cr  Cr17  1  0.33717266  0.66895077  0.33594746  1
  Ni  Ni18  1  0.66530660  0.00189858  0.99863401  1
  Cr  Cr19  1  0.83110790  0.16781909  0.16979523  1
  Ni  Ni20  1  0.66506839  1.00037907  0.33539355  1
  Ni  Ni21  1  0.66810558  0.33488771  1.00009700  1
  Fe  Fe22  1  0.83351007  0.50247945  0.16849788  1
  Ni  Ni23  1  0.66787912  0.33590640  0.33545982  1
  Ni  Ni24  1  0.66763081  0.66697098  0.99936813  1
  Cr  Cr25  1  0.83215596  0.83344137  0.16746408  1
  Ni  Ni26  1  0.66966082  0.66757753  0.33695747  1
  Fe  Fe27  1  0.16718141  0.16894114  0.50190141  1
  Ni  Ni28  1  0.00155660  0.00152590  0.66850326  1
  Ni  Ni29  1  0.16771170  0.16969171  0.83215928  1
  Cr  Cr30  1  0.16820282  0.50026408  0.50246651  1
  Ni  Ni31  1  0.99859578  0.33489514  0.66980013  1
  Ni  Ni32  1  0.16959334  0.50268485  0.83525694  1
  Fe  Fe33  1  0.16542752  0.83354261  0.50279923  1
  Fe  Fe34  1  1.00025892  0.66714624  0.66896278  1
  Ni  Ni35  1  0.16798712  0.83181374  0.83345620  1
  Ni  Ni36  1  0.50216753  0.17000964  0.50087660  1
  Cr  Cr37  1  0.33516200  0.99956125  0.66660033  1
  Fe  Fe38  1  0.50226467  0.17088279  0.83387522  1
  Ni  Ni39  1  0.50238439  0.50060980  0.50302714  1
  Fe  Fe40  1  0.33483037  0.33513547  0.66821748  1
  Fe  Fe41  1  0.50103589  0.50103526  0.83394797  1
  Ni  Ni42  1  0.50461977  0.83334608  0.50160227  1
  Ni  Ni43  1  0.33629812  0.66873779  0.66860781  1
  Fe  Fe44  1  0.50226077  0.83187490  0.83431656  1
  Cr  Cr45  1  0.83428561  0.16813133  0.50048226  1
  Fe  Fe46  1  0.66889853  0.00129279  0.66771539  1
  Ni  Ni47  1  0.83238105  0.16769075  0.83329503  1
  Ni  Ni48  1  0.83341331  0.50240072  0.50043723  1
  Ni  Ni49  1  0.66944228  0.33643217  0.66783993  1
  Ni  Ni50  1  0.83354429  0.50146886  0.83418726  1
  Ni  Ni51  1  0.83443046  0.83401745  0.50192217  1
  Fe  Fe52  1  0.66904088  0.66725126  0.66691346  1
  Fe  Fe53  1  0.83537593  0.83340666  0.83364653  1
" 