6002,Ni50Fe26Cr23_1,-231.983429015116, 192.629218385561,Ni50Fe26Cr23,"# generated using pymatgen
 data_Cr13Fe14Ni27
_symmetry_space_group_name_H-M   'P 1'
_cell_length_a   7.44611903
_cell_length_b   7.44611903
_cell_length_c   10.53040252
_cell_angle_alpha   90.00000000
_cell_angle_beta   90.00000000
_cell_angle_gamma   90.00000000
_symmetry_Int_Tables_number   1
_chemical_formula_structural   Cr13Fe14Ni27
_chemical_formula_sum   'Cr13 Fe14 Ni27'
_cell_volume   583.85488816
_cell_formula_units_Z   1
loop_
 _symmetry_equiv_pos_site_id
 _symmetry_equiv_pos_as_xyz
  1  'x, y, z'
loop_
 _atom_site_type_symbol
 _atom_site_label
 _atom_site_symmetry_multiplicity
 _atom_site_fract_x
 _atom_site_fract_y
 _atom_site_fract_z
 _atom_site_occupancy
  Ni  Ni0  1  0.00355462  0.00155453  1.00137358  1
  Cr  Cr1  1  0.16602168  0.16844128  0.16604491  1
  Fe  Fe2  1  1.00007426  1.00075819  0.33487517  1
  Ni  Ni3  1  0.00240340  0.33564491  0.99973835  1
  Ni  Ni4  1  0.16965979  0.50393198  0.16934389  1
  Ni  Ni5  1  0.00253488  0.33465740  0.33662725  1
  Fe  Fe6  1  0.00383096  0.66815235  1.00114465  1
  Ni  Ni7  1  0.16832094  0.83264226  0.16648768  1
  Ni  Ni8  1  0.00534298  0.66793701  0.33348910  1
  Ni  Ni9  1  0.33313476  0.99925617  1.00109366  1
  Ni  Ni10  1  0.50337902  0.16914576  0.16806332  1
  Cr  Cr11  1  0.33521853  0.00169182  0.33471094  1
  Fe  Fe12  1  0.33482250  0.33652639  1.00127159  1
  Ni  Ni13  1  0.49853262  0.50092212  0.16751207  1
  Fe  Fe14  1  0.33418969  0.33570221  0.33464250  1
  Ni  Ni15  1  0.33343483  0.66867682  1.00124721  1
  Ni  Ni16  1  0.49823924  0.83448592  0.16836632  1
  Ni  Ni17  1  0.33132080  0.66890236  0.33470298  1
  Cr  Cr18  1  0.66630808  1.00126227  0.00467312  1
  Ni  Ni19  1  0.83469164  0.16742702  0.16918193  1
  Ni  Ni20  1  0.66857259  0.00407242  0.33481824  1
  Ni  Ni21  1  0.66896411  0.33570169  0.00253074  1
  Cr  Cr22  1  0.83722882  0.49831448  0.16767008  1
  Ni  Ni23  1  0.66907729  0.33091502  0.33334914  1
  Cr  Cr24  1  0.66637394  0.66658936  1.00053626  1
  Fe  Fe25  1  0.83718161  0.83654262  0.16904416  1
  Cr  Cr26  1  0.66741950  0.67002048  0.33336385  1
  Ni  Ni27  1  0.16438848  0.16815963  0.50303409  1
  Fe  Fe28  1  1.00104661  0.00201584  0.66727488  1
  Fe  Fe29  1  0.16935029  0.16959530  0.83575352  1
  Ni  Ni30  1  0.16909442  0.50226492  0.50000751  1
  Fe  Fe31  1  0.00411464  0.33331591  0.66760624  1
  Ni  Ni32  1  0.16951088  0.50234232  0.83488277  1
  Ni  Ni33  1  0.16764020  0.83407630  0.50122863  1
  Cr  Cr34  1  0.00386608  0.66675912  0.66926751  1
  Fe  Fe35  1  0.16974687  0.83425597  0.83656977  1
  Fe  Fe36  1  0.50203250  0.16918574  0.50150081  1
  Cr  Cr37  1  0.33380445  1.00123985  0.66812978  1
  Cr  Cr38  1  0.50188556  0.16869085  0.83548399  1
  Cr  Cr39  1  0.49878983  0.50181478  0.50164045  1
  Ni  Ni40  1  0.33219892  0.33566581  0.66780490  1
  Ni  Ni41  1  0.49859376  0.50228842  0.83445617  1
  Fe  Fe42  1  0.50039919  0.83602996  0.50141921  1
  Ni  Ni43  1  0.33277182  0.66753451  0.66796329  1
  Ni  Ni44  1  0.49933545  0.83321209  0.83357197  1
  Ni  Ni45  1  0.83441452  0.16566793  0.50135514  1
  Ni  Ni46  1  0.66871669  0.00187753  0.66545072  1
  Cr  Cr47  1  0.83646859  0.16755760  0.83409589  1
  Cr  Cr48  1  0.83564363  0.49816682  0.50154972  1
  Ni  Ni49  1  0.66814845  0.33319923  0.66839311  1
  Fe  Fe50  1  0.83422740  0.49976670  0.83570418  1
  Fe  Fe51  1  0.83749372  0.83684793  0.50041225  1
  Cr  Cr52  1  0.66716442  0.66897960  0.67015936  1
  Fe  Fe53  1  0.83520765  0.83550260  0.83526948  1
" 