2912,Ni50Fe47Cr2_2,-239.535427521423, 220.984630477206,Ni50Fe47Cr2,"# generated using pymatgen
 data_Cr2Fe25Ni27
_symmetry_space_group_name_H-M   'P 1'
_cell_length_a   7.40520702
_cell_length_b   7.40520702
_cell_length_c   10.47254419
_cell_angle_alpha   90.00000000
_cell_angle_beta   90.00000000
_cell_angle_gamma   90.00000000
_symmetry_Int_Tables_number   1
_chemical_formula_structural   Cr2Fe25Ni27
_chemical_formula_sum   'Cr2 Fe25 Ni27'
_cell_volume   574.28385833
_cell_formula_units_Z   1
loop_
 _symmetry_equiv_pos_site_id
 _symmetry_equiv_pos_as_xyz
  1  'x, y, z'
loop_
 _atom_site_type_symbol
 _atom_site_label
 _atom_site_symmetry_multiplicity
 _atom_site_fract_x
 _atom_site_fract_y
 _atom_site_fract_z
 _atom_site_occupancy
  Fe  Fe0  1  1.00288448  0.00451180  1.00382040  1
  Ni  Ni1  1  0.17099319  0.17234352  0.16940226  1
  Cr  Cr2  1  1.00341089  1.00295202  0.33712473  1
  Fe  Fe3  1  1.00329805  0.33696157  0.00469360  1
  Ni  Ni4  1  0.17075764  0.50411914  0.17080989  1
  Fe  Fe5  1  0.00505242  0.33877477  0.33715811  1
  Ni  Ni6  1  1.00408951  0.67031123  0.00458420  1
  Fe  Fe7  1  0.17220106  0.83735130  0.17011748  1
  Ni  Ni8  1  0.00468598  0.66882791  0.33771399  1
  Ni  Ni9  1  0.33806029  0.00502434  0.00475610  1
  Ni  Ni10  1  0.50427894  0.16927997  0.17079397  1
  Ni  Ni11  1  0.34008675  0.00485349  0.33809223  1
  Fe  Fe12  1  0.33825635  0.33769044  0.00505415  1
  Fe  Fe13  1  0.50369087  0.50305445  0.17070325  1
  Ni  Ni14  1  0.33840974  0.33787077  0.33751814  1
  Fe  Fe15  1  0.33877095  0.67098482  0.00418407  1
  Ni  Ni16  1  0.50396640  0.83771612  0.17059497  1
  Ni  Ni17  1  0.33635974  0.66980256  0.33677857  1
  Ni  Ni18  1  0.67019439  0.00567262  0.00442509  1
  Ni  Ni19  1  0.83725370  0.17123671  0.16985475  1
  Ni  Ni20  1  0.66910410  0.00549761  0.33722829  1
  Ni  Ni21  1  0.67072029  0.33684810  0.00467316  1
  Fe  Fe22  1  0.83776886  0.50378585  0.17070513  1
  Fe  Fe23  1  0.67043886  0.33711733  0.33795071  1
  Ni  Ni24  1  0.67213348  0.67000113  1.00375070  1
  Fe  Fe25  1  0.83667279  0.83724248  0.17015381  1
  Fe  Fe26  1  0.66977172  0.67183350  0.33784263  1
  Fe  Fe27  1  0.17170811  0.17112199  0.50467471  1
  Ni  Ni28  1  0.00568643  1.00335778  0.67116357  1
  Fe  Fe29  1  0.17123382  0.17050562  0.83759301  1
  Fe  Fe30  1  0.17043345  0.50539646  0.50334265  1
  Fe  Fe31  1  1.00391759  0.33680278  0.67067339  1
  Fe  Fe32  1  0.17052367  0.50448446  0.83782769  1
  Fe  Fe33  1  0.17125281  0.83600412  0.50554573  1
  Ni  Ni34  1  0.00506480  0.67074504  0.67022986  1
  Fe  Fe35  1  0.17077606  0.83753523  0.83685972  1
  Fe  Fe36  1  0.50458079  0.17147342  0.50268903  1
  Ni  Ni37  1  0.33568864  1.00398924  0.66967710  1
  Fe  Fe38  1  0.50394806  0.17198717  0.83903774  1
  Ni  Ni39  1  0.50374589  0.50572701  0.50403511  1
  Fe  Fe40  1  0.33749939  0.33787652  0.67052058  1
  Ni  Ni41  1  0.50371728  0.50533199  0.83774348  1
  Ni  Ni42  1  0.50289349  0.83592705  0.50393567  1
  Ni  Ni43  1  0.33594116  0.67048305  0.67100866  1
  Fe  Fe44  1  0.50342664  0.83703851  0.83864658  1
  Ni  Ni45  1  0.83870894  0.17203602  0.50427870  1
  Cr  Cr46  1  0.67088807  0.00599156  0.67066612  1
  Ni  Ni47  1  0.83913900  0.17105461  0.83839356  1
  Ni  Ni48  1  0.83761524  0.50398615  0.50492119  1
  Ni  Ni49  1  0.67088298  0.33867661  0.67061540  1
  Fe  Fe50  1  0.83684698  0.50396300  0.83736680  1
  Ni  Ni51  1  0.83730228  0.83650388  0.50467903  1
  Fe  Fe52  1  0.67041942  0.66948008  0.67067644  1
  Fe  Fe53  1  0.83832348  0.83633102  0.83819004  1
" 