8325,Ni50Fe47Cr2_10,-239.479577810993, 213.447595075833,Ni50Fe47Cr2,"# generated using pymatgen
 data_Cr2Fe25Ni27
_symmetry_space_group_name_H-M   'P 1'
_cell_length_a   7.40697378
_cell_length_b   7.40697378
_cell_length_c   10.47504278
_cell_angle_alpha   90.00000000
_cell_angle_beta   90.00000000
_cell_angle_gamma   90.00000000
_symmetry_Int_Tables_number   1
_chemical_formula_structural   Cr2Fe25Ni27
_chemical_formula_sum   'Cr2 Fe25 Ni27'
_cell_volume   574.69500213
_cell_formula_units_Z   1
loop_
 _symmetry_equiv_pos_site_id
 _symmetry_equiv_pos_as_xyz
  1  'x, y, z'
loop_
 _atom_site_type_symbol
 _atom_site_label
 _atom_site_symmetry_multiplicity
 _atom_site_fract_x
 _atom_site_fract_y
 _atom_site_fract_z
 _atom_site_occupancy
  Fe  Fe0  1  1.00359471  1.00365871  1.00358491  1
  Fe  Fe1  1  0.17018649  0.16981351  0.17038621  1
  Fe  Fe2  1  0.00412224  0.00443519  0.33782841  1
  Fe  Fe3  1  0.00420959  0.33686536  0.00483331  1
  Ni  Ni4  1  0.17003513  0.50534609  0.16979363  1
  Ni  Ni5  1  1.00104084  0.33797544  0.33709497  1
  Fe  Fe6  1  1.00404701  0.67164245  0.00467645  1
  Ni  Ni7  1  0.17114791  0.83658886  0.17115965  1
  Ni  Ni8  1  1.00365778  0.67102717  0.33648207  1
  Ni  Ni9  1  0.33807131  1.00378822  1.00383157  1
  Ni  Ni10  1  0.50538498  0.16937585  0.16995657  1
  Ni  Ni11  1  0.33801191  1.00185702  0.33776091  1
  Fe  Fe12  1  0.33794741  0.33715872  1.00356955  1
  Ni  Ni13  1  0.50383668  0.50462742  0.17093420  1
  Cr  Cr14  1  0.33875787  0.33663872  0.33600415  1
  Fe  Fe15  1  0.33781458  0.67105271  0.00470607  1
  Ni  Ni16  1  0.50357506  0.83816437  0.17014699  1
  Ni  Ni17  1  0.33703666  0.67336874  0.33619066  1
  Ni  Ni18  1  0.67032243  1.00384975  1.00337934  1
  Ni  Ni19  1  0.83671897  0.17049148  0.17104092  1
  Ni  Ni20  1  0.67043443  0.00448168  0.33749780  1
  Fe  Fe21  1  0.67000916  0.33671023  0.00454209  1
  Ni  Ni22  1  0.83829480  0.50353947  0.17046925  1
  Ni  Ni23  1  0.67278232  0.33699833  0.33717523  1
  Fe  Fe24  1  0.67030221  0.67166664  0.00406833  1
  Ni  Ni25  1  0.83744141  0.83813763  0.17143775  1
  Fe  Fe26  1  0.67054083  0.67052174  0.33714645  1
  Ni  Ni27  1  0.16998184  0.16903616  0.50483096  1
  Ni  Ni28  1  0.00412401  1.00312867  0.67066720  1
  Fe  Fe29  1  0.17091492  0.17094280  0.83661296  1
  Cr  Cr30  1  0.16947313  0.50382986  0.50442917  1
  Fe  Fe31  1  1.00347497  0.33619411  0.67068225  1
  Ni  Ni32  1  0.17151585  0.50372353  0.83718675  1
  Fe  Fe33  1  0.17077008  0.83971190  0.50334111  1
  Fe  Fe34  1  1.00306514  0.67086251  0.67148242  1
  Fe  Fe35  1  0.17062767  0.83686707  0.83772299  1
  Ni  Ni36  1  0.50499297  0.16861393  0.50537314  1
  Fe  Fe37  1  0.33746322  0.00515131  0.67002803  1
  Fe  Fe38  1  0.50400091  0.17123517  0.83745329  1
  Fe  Fe39  1  0.50668796  0.50354355  0.50521823  1
  Ni  Ni40  1  0.33898095  0.33721140  0.67177874  1
  Ni  Ni41  1  0.50254968  0.50372064  0.83647903  1
  Ni  Ni42  1  0.50389483  0.83855389  0.50428431  1
  Fe  Fe43  1  0.33837421  0.67071919  0.67138202  1
  Fe  Fe44  1  0.50402666  0.83683675  0.83777860  1
  Ni  Ni45  1  0.83719311  0.17111579  0.50430530  1
  Fe  Fe46  1  0.67082413  0.00474640  0.67046629  1
  Fe  Fe47  1  0.83725198  0.17092370  0.83719143  1
  Ni  Ni48  1  0.83691743  0.50320590  0.50459172  1
  Ni  Ni49  1  0.66989499  0.33798744  0.67068827  1
  Fe  Fe50  1  0.83721738  0.50438120  0.83704401  1
  Fe  Fe51  1  0.83743336  0.83825172  0.50429658  1
  Fe  Fe52  1  0.67072412  0.67031213  0.67095231  1
  Ni  Ni53  1  0.83728171  0.83839370  0.83701732  1
" 