2352,Ni50Fe26Cr23_14,-231.771863138962, 193.081275648062,Ni50Fe26Cr23,"# generated using pymatgen
 data_Cr13Fe14Ni27
_symmetry_space_group_name_H-M   'P 1'
_cell_length_a   7.44989276
_cell_length_b   7.44989276
_cell_length_c   10.53573938
_cell_angle_alpha   90.00000000
_cell_angle_beta   90.00000000
_cell_angle_gamma   90.00000000
_symmetry_Int_Tables_number   1
_chemical_formula_structural   Cr13Fe14Ni27
_chemical_formula_sum   'Cr13 Fe14 Ni27'
_cell_volume   584.74304004
_cell_formula_units_Z   1
loop_
 _symmetry_equiv_pos_site_id
 _symmetry_equiv_pos_as_xyz
  1  'x, y, z'
loop_
 _atom_site_type_symbol
 _atom_site_label
 _atom_site_symmetry_multiplicity
 _atom_site_fract_x
 _atom_site_fract_y
 _atom_site_fract_z
 _atom_site_occupancy
  Cr  Cr0  1  1.00013200  1.00107352  0.00204793  1
  Ni  Ni1  1  0.16824559  0.16534874  0.16756118  1
  Fe  Fe2  1  0.00445567  1.00078958  0.33373340  1
  Ni  Ni3  1  0.00311133  0.33425350  1.00093944  1
  Cr  Cr4  1  0.16821834  0.50139213  0.16699558  1
  Cr  Cr5  1  1.00114894  0.33409106  0.33676163  1
  Fe  Fe6  1  0.00223335  0.66833117  1.00052088  1
  Ni  Ni7  1  0.16895523  0.83655891  0.16903405  1
  Ni  Ni8  1  0.00335957  0.66975840  0.33430786  1
  Fe  Fe9  1  0.33486934  1.00066900  0.00202715  1
  Fe  Fe10  1  0.50024557  0.16700172  0.16751556  1
  Fe  Fe11  1  0.33270849  1.00092882  0.33484245  1
  Ni  Ni12  1  0.33320487  0.33549576  0.99988567  1
  Cr  Cr13  1  0.50162805  0.50130484  0.16843490  1
  Ni  Ni14  1  0.33616181  0.33434670  0.33646477  1
  Ni  Ni15  1  0.33518759  0.66806621  0.99886370  1
  Ni  Ni16  1  0.50004726  0.83554070  0.16668925  1
  Ni  Ni17  1  0.33350587  0.66919626  0.33680384  1
  Ni  Ni18  1  0.66702422  0.99926548  0.00199110  1
  Ni  Ni19  1  0.83451948  0.16731168  0.16689501  1
  Cr  Cr20  1  0.66690671  0.00246136  0.33388470  1
  Fe  Fe21  1  0.66704554  0.33375851  0.00223881  1
  Cr  Cr22  1  0.83360581  0.50125850  0.16705246  1
  Ni  Ni23  1  0.66629786  0.33354699  0.33562931  1
  Fe  Fe24  1  0.66615520  0.66997489  0.99981545  1
  Fe  Fe25  1  0.83502760  0.83531078  0.16739867  1
  Fe  Fe26  1  0.66632311  0.66582665  0.33561560  1
  Ni  Ni27  1  0.16907924  0.16749352  0.50042754  1
  Ni  Ni28  1  0.99991460  0.99865272  0.66738999  1
  Ni  Ni29  1  0.16841042  0.16890630  0.83546839  1
  Ni  Ni30  1  0.16906738  0.50169450  0.50157505  1
  Cr  Cr31  1  0.00423721  0.33472536  0.66600207  1
  Fe  Fe32  1  0.17059795  0.50158458  0.83525723  1
  Ni  Ni33  1  0.16790342  0.83426808  0.50019742  1
  Ni  Ni34  1  0.00262998  0.66984375  0.66855634  1
  Fe  Fe35  1  0.16767110  0.83301452  0.83420090  1
  Ni  Ni36  1  0.49969591  0.16959021  0.50000410  1
  Cr  Cr37  1  0.33501423  1.00026494  0.66750223  1
  Cr  Cr38  1  0.49883367  0.16774029  0.83676062  1
  Ni  Ni39  1  0.50090767  0.50079310  0.50042925  1
  Ni  Ni40  1  0.33394115  0.33722537  0.66710903  1
  Ni  Ni41  1  0.49869880  0.50395077  0.83504547  1
  Ni  Ni42  1  0.49997700  0.83306658  0.50168748  1
  Fe  Fe43  1  0.33460397  0.66672401  0.66739053  1
  Ni  Ni44  1  0.50258252  0.83174007  0.83507594  1
  Fe  Fe45  1  0.83399729  0.16802137  0.50108801  1
  Ni  Ni46  1  0.66889004  0.99838508  0.66784731  1
  Cr  Cr47  1  0.83616211  0.16530888  0.83348947  1
  Ni  Ni48  1  0.83347765  0.50196790  0.49986155  1
  Cr  Cr49  1  0.66534762  0.33402050  0.66469254  1
  Cr  Cr50  1  0.83441934  0.50394043  0.83669224  1
  Cr  Cr51  1  0.83565702  0.83329449  0.50246616  1
  Fe  Fe52  1  0.66663564  0.66965389  0.66803032  1
  Ni  Ni53  1  0.83349546  0.83343972  0.83397527  1
" 