5733,Ni50Fe43Cr5_5,-238.591130715474, 211.632200535753,Ni50Fe43Cr5,"# generated using pymatgen
 data_Cr4Fe23Ni27
_symmetry_space_group_name_H-M   'P 1'
_cell_length_a   7.41713763
_cell_length_b   7.41713763
_cell_length_c   10.48941663
_cell_angle_alpha   90.00000000
_cell_angle_beta   90.00000000
_cell_angle_gamma   90.00000000
_symmetry_Int_Tables_number   1
_chemical_formula_structural   Cr4Fe23Ni27
_chemical_formula_sum   'Cr4 Fe23 Ni27'
_cell_volume   577.06403887
_cell_formula_units_Z   1
loop_
 _symmetry_equiv_pos_site_id
 _symmetry_equiv_pos_as_xyz
  1  'x, y, z'
loop_
 _atom_site_type_symbol
 _atom_site_label
 _atom_site_symmetry_multiplicity
 _atom_site_fract_x
 _atom_site_fract_y
 _atom_site_fract_z
 _atom_site_occupancy
  Ni  Ni0  1  0.00466445  1.00246372  0.00460563  1
  Fe  Fe1  1  0.16962396  0.16860451  0.16966314  1
  Ni  Ni2  1  1.00326557  0.00399604  0.33639671  1
  Ni  Ni3  1  1.00267729  0.33752648  0.00446613  1
  Fe  Fe4  1  0.17059019  0.50275461  0.16930877  1
  Fe  Fe5  1  1.00328936  0.33447131  0.33585706  1
  Fe  Fe6  1  1.00322523  0.67006004  1.00327468  1
  Fe  Fe7  1  0.17090775  0.83873312  0.16992108  1
  Cr  Cr8  1  0.00420227  0.67131418  0.33653635  1
  Ni  Ni9  1  0.33648609  1.00275667  1.00281245  1
  Ni  Ni10  1  0.50388841  0.17012527  0.16937413  1
  Ni  Ni11  1  0.33707510  1.00229711  0.33723289  1
  Fe  Fe12  1  0.33665572  0.33579624  1.00259824  1
  Fe  Fe13  1  0.50444686  0.50324370  0.17025736  1
  Fe  Fe14  1  0.33741197  0.33603132  0.33738318  1
  Fe  Fe15  1  0.33674309  0.67010293  0.00355149  1
  Ni  Ni16  1  0.50334010  0.83668371  0.17079107  1
  Ni  Ni17  1  0.33764206  0.67058413  0.33656627  1
  Fe  Fe18  1  0.66943072  0.00346173  0.00479386  1
  Ni  Ni19  1  0.83733147  0.16988279  0.17067732  1
  Ni  Ni20  1  0.66975398  0.00472748  0.33590018  1
  Ni  Ni21  1  0.66965368  0.33778394  0.00375515  1
  Fe  Fe22  1  0.83505765  0.50196379  0.16897640  1
  Ni  Ni23  1  0.66973912  0.33606553  0.33666661  1
  Fe  Fe24  1  0.67012466  0.67052611  1.00279531  1
  Ni  Ni25  1  0.83662156  0.83818416  0.16877379  1
  Fe  Fe26  1  0.66808598  0.67153549  0.33729430  1
  Fe  Fe27  1  0.17095952  0.16854776  0.50371953  1
  Ni  Ni28  1  0.00584876  1.00158376  0.66908990  1
  Fe  Fe29  1  0.17260551  0.16955336  0.83671397  1
  Fe  Fe30  1  0.17098399  0.50309571  0.50345059  1
  Fe  Fe31  1  0.00414989  0.33750546  0.66986122  1
  Fe  Fe32  1  0.17015999  0.50232907  0.83733543  1
  Ni  Ni33  1  0.16911690  0.83793335  0.50349585  1
  Ni  Ni34  1  1.00183104  0.67049124  0.67090264  1
  Fe  Fe35  1  0.17021516  0.83821016  0.83678930  1
  Ni  Ni36  1  0.50251858  0.17154740  0.50348851  1
  Ni  Ni37  1  0.33493032  0.00502114  0.67004955  1
  Ni  Ni38  1  0.50114853  0.17133036  0.83723166  1
  Ni  Ni39  1  0.50377859  0.50235204  0.50260366  1
  Ni  Ni40  1  0.33797601  0.33529973  0.67067459  1
  Ni  Ni41  1  0.50347633  0.50259163  0.83732210  1
  Ni  Ni42  1  0.50301509  0.83619564  0.50174241  1
  Cr  Cr43  1  0.33708838  0.67069956  0.66947588  1
  Ni  Ni44  1  0.50269002  0.83617188  0.83755889  1
  Fe  Fe45  1  0.83649030  0.16980873  0.50211292  1
  Cr  Cr46  1  0.66830100  1.00327420  0.66954596  1
  Cr  Cr47  1  0.83721945  0.17049782  0.83692438  1
  Fe  Fe48  1  0.83480386  0.50350045  0.50460590  1
  Ni  Ni49  1  0.66859665  0.33931646  0.66967186  1
  Fe  Fe50  1  0.83519570  0.50452307  0.83651356  1
  Ni  Ni51  1  0.83796213  0.83667627  0.50410978  1
  Ni  Ni52  1  0.67202951  0.66744874  0.66956970  1
  Fe  Fe53  1  0.83665770  0.83450214  0.83689390  1
" 