2748,Ni50Fe43Cr5_10,-238.771802990901, 218.770616388193,Ni50Fe43Cr5,"# generated using pymatgen
 data_Cr4Fe23Ni27
_symmetry_space_group_name_H-M   'P 1'
_cell_length_a   7.41192683
_cell_length_b   7.41192683
_cell_length_c   10.48204744
_cell_angle_alpha   90.00000000
_cell_angle_beta   90.00000000
_cell_angle_gamma   90.00000000
_symmetry_Int_Tables_number   1
_chemical_formula_structural   Cr4Fe23Ni27
_chemical_formula_sum   'Cr4 Fe23 Ni27'
_cell_volume   575.84866925
_cell_formula_units_Z   1
loop_
 _symmetry_equiv_pos_site_id
 _symmetry_equiv_pos_as_xyz
  1  'x, y, z'
loop_
 _atom_site_type_symbol
 _atom_site_label
 _atom_site_symmetry_multiplicity
 _atom_site_fract_x
 _atom_site_fract_y
 _atom_site_fract_z
 _atom_site_occupancy
  Fe  Fe0  1  1.00259224  0.00528583  1.00302336  1
  Fe  Fe1  1  0.16955772  0.17226252  0.17107449  1
  Ni  Ni2  1  0.00473995  0.00418157  0.33803449  1
  Ni  Ni3  1  1.00311359  0.33887789  0.00434924  1
  Ni  Ni4  1  0.17103843  0.50282391  0.16928956  1
  Ni  Ni5  1  1.00238713  0.33786998  0.33646105  1
  Ni  Ni6  1  0.00400158  0.66802289  1.00294152  1
  Fe  Fe7  1  0.16995027  0.83655663  0.17132617  1
  Ni  Ni8  1  1.00293705  0.66910466  0.33821620  1
  Cr  Cr9  1  0.33896599  0.00405562  0.00420368  1
  Fe  Fe10  1  0.50439527  0.17204473  0.17137660  1
  Ni  Ni11  1  0.33793640  0.00471007  0.33681158  1
  Ni  Ni12  1  0.33680911  0.33812907  1.00329137  1
  Ni  Ni13  1  0.50251176  0.50250352  0.16995881  1
  Ni  Ni14  1  0.33776494  0.33482401  0.33769111  1
  Fe  Fe15  1  0.33674841  0.66809064  0.00400435  1
  Fe  Fe16  1  0.50379203  0.83698429  0.17071321  1
  Cr  Cr17  1  0.33610715  0.67127194  0.33678026  1
  Ni  Ni18  1  0.66989529  0.00455064  1.00279741  1
  Ni  Ni19  1  0.83696634  0.17078751  0.16978021  1
  Fe  Fe20  1  0.66963812  0.00544198  0.33795009  1
  Fe  Fe21  1  0.67077095  0.33673503  0.00404507  1
  Fe  Fe22  1  0.83763206  0.50173610  0.17069124  1
  Ni  Ni23  1  0.67100414  0.33661941  0.33646287  1
  Fe  Fe24  1  0.66994132  0.66920131  1.00284605  1
  Cr  Cr25  1  0.83769336  0.83799934  0.17143775  1
  Fe  Fe26  1  0.67127782  0.66891976  0.33788833  1
  Fe  Fe27  1  0.17000466  0.17129226  0.50269471  1
  Fe  Fe28  1  1.00233932  1.00320570  0.67051639  1
  Ni  Ni29  1  0.16950508  0.17207062  0.83704048  1
  Ni  Ni30  1  0.16896451  0.50372978  0.50484394  1
  Ni  Ni31  1  1.00275078  0.33873275  0.67034292  1
  Fe  Fe32  1  0.16912203  0.50277278  0.83711239  1
  Ni  Ni33  1  0.16916428  0.83615825  0.50313158  1
  Ni  Ni34  1  0.00405994  0.66872030  0.66999798  1
  Fe  Fe35  1  0.16776148  0.83579326  0.83641242  1
  Ni  Ni36  1  0.50414332  0.17018555  0.50196289  1
  Cr  Cr37  1  0.33890918  1.00302544  0.67027205  1
  Ni  Ni38  1  0.50476865  0.17169511  0.83784108  1
  Fe  Fe39  1  0.50377250  0.50326802  0.50376269  1
  Fe  Fe40  1  0.33668769  0.33853961  0.67057232  1
  Fe  Fe41  1  0.50405839  0.50283770  0.83769362  1
  Ni  Ni42  1  0.50470661  0.83832523  0.50308411  1
  Ni  Ni43  1  0.33649249  0.66977532  0.67132573  1
  Fe  Fe44  1  0.50647119  0.83677291  0.83641149  1
  Fe  Fe45  1  0.83716326  0.17053141  0.50337745  1
  Ni  Ni46  1  0.67052986  0.00402738  0.67038249  1
  Ni  Ni47  1  0.83687910  0.16925318  0.83713983  1
  Ni  Ni48  1  0.83836894  0.50429628  0.50197373  1
  Fe  Fe49  1  0.67085084  0.33719089  0.67008328  1
  Ni  Ni50  1  0.83755452  0.50461723  0.83867160  1
  Fe  Fe51  1  0.83741555  0.83655802  0.50398653  1
  Fe  Fe52  1  0.67099913  0.67054329  0.67041995  1
  Ni  Ni53  1  0.83718102  0.83728363  0.83629300  1
" 