7667,Ni50Fe44Cr5_8,-238.560386337079, 214.103949903167,Ni50Fe44Cr5,"# generated using pymatgen
 data_Cr4Fe23Ni27
_symmetry_space_group_name_H-M   'P 1'
_cell_length_a   7.42089532
_cell_length_b   7.42089532
_cell_length_c   10.49473081
_cell_angle_alpha   90.00000000
_cell_angle_beta   90.00000000
_cell_angle_gamma   90.00000000
_symmetry_Int_Tables_number   1
_chemical_formula_structural   Cr4Fe23Ni27
_chemical_formula_sum   'Cr4 Fe23 Ni27'
_cell_volume   577.94154505
_cell_formula_units_Z   1
loop_
 _symmetry_equiv_pos_site_id
 _symmetry_equiv_pos_as_xyz
  1  'x, y, z'
loop_
 _atom_site_type_symbol
 _atom_site_label
 _atom_site_symmetry_multiplicity
 _atom_site_fract_x
 _atom_site_fract_y
 _atom_site_fract_z
 _atom_site_occupancy
  Ni  Ni0  1  0.00396857  1.00298309  1.00282276  1
  Ni  Ni1  1  0.17107587  0.16779268  0.17056510  1
  Ni  Ni2  1  1.00281127  0.00337566  0.33629267  1
  Fe  Fe3  1  1.00291937  0.33499875  1.00217121  1
  Cr  Cr4  1  0.16825067  0.50345967  0.16997873  1
  Fe  Fe5  1  1.00224151  0.33474197  0.33643324  1
  Fe  Fe6  1  1.00257203  0.67152112  1.00186373  1
  Ni  Ni7  1  0.16980126  0.83827475  0.16992747  1
  Fe  Fe8  1  1.00239964  0.67208830  0.33655312  1
  Ni  Ni9  1  0.33464716  0.00412274  0.00430729  1
  Ni  Ni10  1  0.50300978  0.16887865  0.17013850  1
  Fe  Fe11  1  0.33684627  1.00251742  0.33611013  1
  Fe  Fe12  1  0.33677149  0.33439552  1.00220456  1
  Fe  Fe13  1  0.50476576  0.50334630  0.16960287  1
  Fe  Fe14  1  0.33736643  0.33517815  0.33676940  1
  Fe  Fe15  1  0.33555914  0.67057064  1.00230442  1
  Fe  Fe16  1  0.50319573  0.83678996  0.17042137  1
  Fe  Fe17  1  0.33717981  0.67162881  0.33819196  1
  Fe  Fe18  1  0.67058102  0.00402272  0.00397716  1
  Fe  Fe19  1  0.83735110  0.16895665  0.17024540  1
  Ni  Ni20  1  0.67076608  1.00293442  0.33571647  1
  Fe  Fe21  1  0.66963469  0.33562320  1.00216986  1
  Ni  Ni22  1  0.83494094  0.50374141  0.17009958  1
  Fe  Fe23  1  0.66972147  0.33508997  0.33596362  1
  Fe  Fe24  1  0.67118299  0.66968459  0.00426210  1
  Ni  Ni25  1  0.83605126  0.83571583  0.17097371  1
  Ni  Ni26  1  0.66870604  0.66987710  0.33588611  1
  Fe  Fe27  1  0.16931792  0.16893781  0.50307677  1
  Ni  Ni28  1  0.00477540  1.00240621  0.67021029  1
  Ni  Ni29  1  0.17007089  0.16959563  0.83574793  1
  Ni  Ni30  1  0.17078066  0.50391740  0.50309056  1
  Fe  Fe31  1  0.00400994  0.33567073  0.67072564  1
  Ni  Ni32  1  0.16928182  0.50315445  0.83591234  1
  Ni  Ni33  1  0.17143877  0.83608348  0.50316077  1
  Ni  Ni34  1  0.00503847  0.67057447  0.67097549  1
  Ni  Ni35  1  0.16849639  0.83657063  0.83624599  1
  Fe  Fe36  1  0.50241306  0.17004856  0.50252674  1
  Ni  Ni37  1  0.33359121  0.00341129  0.66898744  1
  Ni  Ni38  1  0.50244512  0.17179391  0.83633907  1
  Fe  Fe39  1  0.50145125  0.50383134  0.50366755  1
  Fe  Fe40  1  0.33602678  0.33661267  0.67035280  1
  Ni  Ni41  1  0.50352864  0.50125602  0.83568251  1
  Ni  Ni42  1  0.50150422  0.83655743  0.50176983  1
  Ni  Ni43  1  0.33469781  0.66819765  0.66919581  1
  Cr  Cr44  1  0.50187832  0.83708081  0.83719922  1
  Ni  Ni45  1  0.83630366  0.16960575  0.50156873  1
  Cr  Cr46  1  0.67129480  0.00476150  0.66985493  1
  Ni  Ni47  1  0.83681016  0.17100525  0.83763460  1
  Cr  Cr48  1  0.83719085  0.50255718  0.50370093  1
  Ni  Ni49  1  0.66858915  0.33746126  0.67078128  1
  Ni  Ni50  1  0.83651821  0.50282915  0.83604800  1
  Fe  Fe51  1  0.83772198  0.83739979  0.50198473  1
  Fe  Fe52  1  0.66970816  0.66879660  0.66975874  1
  Ni  Ni53  1  0.83871832  0.83549228  0.83576813  1
" 