8847,Ni50Fe17Cr31_3,-227.483939743408, 176.917482590445,Ni50Fe17Cr31,"# generated using pymatgen
 data_Cr2FeNi3
_symmetry_space_group_name_H-M   'P 1'
_cell_length_a   7.47097070
_cell_length_b   7.47097070
_cell_length_c   10.56554809
_cell_angle_alpha   90.00000000
_cell_angle_beta   90.00000000
_cell_angle_gamma   90.00000000
_symmetry_Int_Tables_number   1
_chemical_formula_structural   Cr2FeNi3
_chemical_formula_sum   'Cr18 Fe9 Ni27'
_cell_volume   589.72032739
_cell_formula_units_Z   9
loop_
 _symmetry_equiv_pos_site_id
 _symmetry_equiv_pos_as_xyz
  1  'x, y, z'
loop_
 _atom_site_type_symbol
 _atom_site_label
 _atom_site_symmetry_multiplicity
 _atom_site_fract_x
 _atom_site_fract_y
 _atom_site_fract_z
 _atom_site_occupancy
  Ni  Ni0  1  0.00040606  0.00264957  0.99965725  1
  Ni  Ni1  1  0.16705719  0.16693198  0.16246009  1
  Cr  Cr2  1  -0.00005543  0.99790142  0.33361453  1
  Ni  Ni3  1  0.00232125  0.32970552  0.00053861  1
  Ni  Ni4  1  0.16614073  0.49828003  0.16631214  1
  Cr  Cr5  1  0.99781551  0.33479996  0.33140926  1
  Cr  Cr6  1  0.00338354  0.66670711  0.00136070  1
  Ni  Ni7  1  0.16637534  0.83407844  0.16777992  1
  Ni  Ni8  1  0.00044079  0.66716611  0.33424294  1
  Fe  Fe9  1  0.33081781  0.00232757  0.00030900  1
  Ni  Ni10  1  0.49788818  0.16525597  0.16631083  1
  Ni  Ni11  1  0.33329626  0.99877544  0.33125912  1
  Ni  Ni12  1  0.33171893  0.33370678  0.00107039  1
  Ni  Ni13  1  0.49856191  0.50020217  0.16580496  1
  Cr  Cr14  1  0.33646266  0.33344442  0.33096398  1
  Cr  Cr15  1  0.33333654  0.66414443  0.99809557  1
  Cr  Cr16  1  0.50066702  0.83403755  0.16683065  1
  Fe  Fe17  1  0.33099351  0.66523357  0.33244289  1
  Ni  Ni18  1  0.66744984  0.00144077  0.00078232  1
  Ni  Ni19  1  0.83432570  0.16516688  0.16310967  1
  Fe  Fe20  1  0.66651142  0.00145931  0.33352590  1
  Cr  Cr21  1  0.66405030  0.33243213  0.00315528  1
  Fe  Fe22  1  0.83394795  0.49918218  0.16713949  1
  Cr  Cr23  1  0.66503896  0.33192883  0.33312237  1
  Fe  Fe24  1  0.66436570  0.66556810  0.99941707  1
  Cr  Cr25  1  0.83182948  0.83222979  0.16653510  1
  Ni  Ni26  1  0.66785872  0.66397742  0.33349217  1
  Cr  Cr27  1  0.16987046  0.16878049  0.50203547  1
  Cr  Cr28  1  0.00084852  0.99918868  0.66674964  1
  Ni  Ni29  1  0.16594264  0.16879724  0.83469778  1
  Ni  Ni30  1  0.16552503  0.50010794  0.49978643  1
  Fe  Fe31  1  0.00004052  0.33340353  0.66655576  1
  Ni  Ni32  1  0.16766158  0.49300275  0.83274424  1
  Fe  Fe33  1  0.16700979  0.83169248  0.49704539  1
  Cr  Cr34  1  0.00096239  0.66742731  0.66368543  1
  Fe  Fe35  1  0.16979861  0.83552129  0.83460601  1
  Ni  Ni36  1  0.49937603  0.16640218  0.50024113  1
  Ni  Ni37  1  0.33201184  0.00089344  0.66844519  1
  Cr  Cr38  1  0.49550693  0.16597372  0.83220069  1
  Ni  Ni39  1  0.50080436  0.49962511  0.50198991  1
  Ni  Ni40  1  0.33542100  0.33393008  0.66659221  1
  Ni  Ni41  1  0.49839135  0.50113912  0.83150392  1
  Cr  Cr42  1  0.50096250  0.83356494  0.49741071  1
  Cr  Cr43  1  0.33310120  0.66551449  0.66742845  1
  Ni  Ni44  1  0.50078493  0.83281036  0.83454253  1
  Ni  Ni45  1  0.83139888  0.16713815  0.50218640  1
  Cr  Cr46  1  0.66665413  0.00194271  0.66383738  1
  Fe  Fe47  1  0.83455458  0.16817563  0.83458546  1
  Ni  Ni48  1  0.83284795  0.50222553  0.50036498  1
  Ni  Ni49  1  0.66462666  0.33512436  0.66335662  1
  Cr  Cr50  1  0.83305554  0.49854786  0.83244039  1
  Ni  Ni51  1  0.83145984  0.83001085  0.49754056  1
  Ni  Ni52  1  0.66535256  0.66267894  0.66697852  1
  Cr  Cr53  1  0.82884627  0.83346939  0.83552858  1
" 