6484,Ni50Fe43Cr5_4,-238.788351690351, 213.868361081889,Ni50Fe43Cr5,"# generated using pymatgen
 data_Cr4Fe23Ni27
_symmetry_space_group_name_H-M   'P 1'
_cell_length_a   7.41729782
_cell_length_b   7.41729782
_cell_length_c   10.48964317
_cell_angle_alpha   90.00000000
_cell_angle_beta   90.00000000
_cell_angle_gamma   90.00000000
_symmetry_Int_Tables_number   1
_chemical_formula_structural   Cr4Fe23Ni27
_chemical_formula_sum   'Cr4 Fe23 Ni27'
_cell_volume   577.10142758
_cell_formula_units_Z   1
loop_
 _symmetry_equiv_pos_site_id
 _symmetry_equiv_pos_as_xyz
  1  'x, y, z'
loop_
 _atom_site_type_symbol
 _atom_site_label
 _atom_site_symmetry_multiplicity
 _atom_site_fract_x
 _atom_site_fract_y
 _atom_site_fract_z
 _atom_site_occupancy
  Cr  Cr0  1  1.00235093  1.00135029  0.00464209  1
  Ni  Ni1  1  0.17033348  0.16803901  0.17037583  1
  Fe  Fe2  1  0.00403264  1.00191180  0.33544391  1
  Cr  Cr3  1  0.00460807  0.33716637  0.00351259  1
  Ni  Ni4  1  0.17014451  0.50549988  0.16945258  1
  Fe  Fe5  1  1.00162743  0.33947916  0.33525129  1
  Fe  Fe6  1  1.00205850  0.66936206  0.00383375  1
  Ni  Ni7  1  0.17119898  0.83620134  0.16997136  1
  Ni  Ni8  1  1.00257354  0.67140639  0.33538468  1
  Fe  Fe9  1  0.33927317  0.00373574  1.00326797  1
  Fe  Fe10  1  0.50400539  0.16892424  0.16864666  1
  Fe  Fe11  1  0.33714997  0.99966081  0.33704261  1
  Ni  Ni12  1  0.33791619  0.33684832  0.00387460  1
  Ni  Ni13  1  0.50499039  0.50458767  0.16912511  1
  Cr  Cr14  1  0.33675427  0.33653914  0.33515291  1
  Fe  Fe15  1  0.33790940  0.66940893  0.00337049  1
  Ni  Ni16  1  0.50279010  0.83573497  0.16913242  1
  Ni  Ni17  1  0.33654147  0.67130974  0.33610983  1
  Ni  Ni18  1  0.66989422  1.00230826  0.00379014  1
  Ni  Ni19  1  0.83534198  0.17045737  0.17172830  1
  Fe  Fe20  1  0.66852407  1.00144006  0.33589656  1
  Ni  Ni21  1  0.66803603  0.33673334  0.00478446  1
  Ni  Ni22  1  0.83487653  0.50382842  0.16957660  1
  Fe  Fe23  1  0.67209114  0.33864121  0.33654322  1
  Ni  Ni24  1  0.66989783  0.67091868  0.00344452  1
  Ni  Ni25  1  0.83635389  0.83596451  0.17043857  1
  Ni  Ni26  1  0.67078389  0.67260312  0.33646823  1
  Fe  Fe27  1  0.17025680  0.16940754  0.50381071  1
  Fe  Fe28  1  0.00388818  1.00239154  0.67073265  1
  Fe  Fe29  1  0.17353716  0.16992670  0.83614030  1
  Fe  Fe30  1  0.16921397  0.50604844  0.50363568  1
  Fe  Fe31  1  1.00271215  0.33934036  0.67005963  1
  Fe  Fe32  1  0.17338147  0.50451027  0.83585963  1
  Ni  Ni33  1  0.16903508  0.83735111  0.50292496  1
  Ni  Ni34  1  1.00315891  0.67219460  0.67022280  1
  Ni  Ni35  1  0.16954846  0.83634371  0.83704151  1
  Ni  Ni36  1  0.50433028  0.16816290  0.50380214  1
  Fe  Fe37  1  0.33748175  1.00207288  0.67025338  1
  Ni  Ni38  1  0.50439241  0.17136063  0.83748228  1
  Cr  Cr39  1  0.50634242  0.50477627  0.50467424  1
  Ni  Ni40  1  0.33624296  0.33487229  0.67038277  1
  Ni  Ni41  1  0.50484593  0.50204393  0.83585388  1
  Ni  Ni42  1  0.50140147  0.83825676  0.50521637  1
  Ni  Ni43  1  0.33572927  0.67000804  0.66997173  1
  Fe  Fe44  1  0.50287059  0.83575089  0.83657360  1
  Fe  Fe45  1  0.83559816  0.16924745  0.50294014  1
  Fe  Fe46  1  0.66842060  1.00280458  0.67086784  1
  Fe  Fe47  1  0.83379942  0.16986866  0.83678557  1
  Ni  Ni48  1  0.83856268  0.50263939  0.50389647  1
  Ni  Ni49  1  0.66941713  0.33494316  0.67037944  1
  Fe  Fe50  1  0.83422076  0.50447732  0.83566107  1
  Fe  Fe51  1  0.83550082  0.83516039  0.50284859  1
  Ni  Ni52  1  0.67091692  0.67156187  0.66998951  1
  Fe  Fe53  1  0.83423246  0.83551370  0.83682805  1
" 