2263,Ni50Fe27Cr21_9,-231.456858424228, 190.878899353189,Ni50Fe27Cr21,"# generated using pymatgen
 data_Cr13Fe14Ni27
_symmetry_space_group_name_H-M   'P 1'
_cell_length_a   7.44834779
_cell_length_b   7.44834779
_cell_length_c   10.53355446
_cell_angle_alpha   90.00000000
_cell_angle_beta   90.00000000
_cell_angle_gamma   90.00000000
_symmetry_Int_Tables_number   1
_chemical_formula_structural   Cr13Fe14Ni27
_chemical_formula_sum   'Cr13 Fe14 Ni27'
_cell_volume   584.37932064
_cell_formula_units_Z   1
loop_
 _symmetry_equiv_pos_site_id
 _symmetry_equiv_pos_as_xyz
  1  'x, y, z'
loop_
 _atom_site_type_symbol
 _atom_site_label
 _atom_site_symmetry_multiplicity
 _atom_site_fract_x
 _atom_site_fract_y
 _atom_site_fract_z
 _atom_site_occupancy
  Fe  Fe0  1  1.00050605  1.00091387  0.00170372  1
  Ni  Ni1  1  0.16753106  0.16646058  0.16877167  1
  Fe  Fe2  1  0.00152457  0.00259168  0.33501722  1
  Ni  Ni3  1  1.00059485  0.33339649  1.00120259  1
  Cr  Cr4  1  0.16599481  0.50077803  0.16764717  1
  Ni  Ni5  1  1.00087879  0.33263524  0.33511528  1
  Fe  Fe6  1  1.00060414  0.66869257  1.00106231  1
  Ni  Ni7  1  0.16712374  0.83614313  0.16790822  1
  Fe  Fe8  1  0.00146071  0.66885971  0.33533937  1
  Cr  Cr9  1  0.33283113  1.00089125  0.00231763  1
  Ni  Ni10  1  0.50249985  0.16697764  0.16897310  1
  Ni  Ni11  1  0.33423528  0.00241242  0.33488883  1
  Fe  Fe12  1  0.33443843  0.33564620  1.00042764  1
  Cr  Cr13  1  0.50285458  0.49953265  0.16635121  1
  Ni  Ni14  1  0.33344416  0.33088686  0.33546756  1
  Ni  Ni15  1  0.33454836  0.66845947  0.99983020  1
  Fe  Fe16  1  0.50154027  0.83726275  0.16754356  1
  Cr  Cr17  1  0.33297955  0.66982371  0.33612936  1
  Fe  Fe18  1  0.67003591  1.00074359  0.00351613  1
  Ni  Ni19  1  0.83373533  0.16850064  0.16763051  1
  Ni  Ni20  1  0.66791499  0.00296356  0.33412514  1
  Ni  Ni21  1  0.66959371  0.33544998  0.00322305  1
  Ni  Ni22  1  0.83464929  0.50013685  0.16709598  1
  Ni  Ni23  1  0.66944315  0.33107316  0.33409944  1
  Ni  Ni24  1  0.66838284  0.66789798  1.00100536  1
  Fe  Fe25  1  0.83517726  0.83570648  0.16714073  1
  Cr  Cr26  1  0.66930646  0.66878426  0.33490606  1
  Ni  Ni27  1  0.16836325  0.16942331  0.49952936  1
  Cr  Cr28  1  0.00161174  1.00039118  0.66779879  1
  Ni  Ni29  1  0.16743195  0.17010760  0.83546563  1
  Ni  Ni30  1  0.16888086  0.50059804  0.50252654  1
  Fe  Fe31  1  0.00411975  0.33526002  0.66687209  1
  Fe  Fe32  1  0.16964999  0.50133969  0.83393984  1
  Ni  Ni33  1  0.16854470  0.83374419  0.50114512  1
  Ni  Ni34  1  0.00305089  0.66842532  0.66824656  1
  Fe  Fe35  1  0.16613939  0.83223126  0.83504108  1
  Fe  Fe36  1  0.50107375  0.16874061  0.49923748  1
  Cr  Cr37  1  0.33270668  1.00088459  0.66609232  1
  Cr  Cr38  1  0.50023747  0.17121949  0.83518619  1
  Fe  Fe39  1  0.49924634  0.49983898  0.50325442  1
  Ni  Ni40  1  0.33441621  0.33770957  0.66824932  1
  Ni  Ni41  1  0.49959752  0.50201695  0.83399063  1
  Ni  Ni42  1  0.50088129  0.83477063  0.50118197  1
  Ni  Ni43  1  0.33317059  0.66531165  0.66762039  1
  Cr  Cr44  1  0.50219314  0.83092671  0.83523703  1
  Ni  Ni45  1  0.83427813  0.16812088  0.50022749  1
  Cr  Cr46  1  0.66944735  1.00118394  0.66623498  1
  Cr  Cr47  1  0.83609456  0.16786673  0.83532470  1
  Cr  Cr48  1  0.83551115  0.50014000  0.50182921  1
  Ni  Ni49  1  0.66647321  0.33617451  0.66643885  1
  Cr  Cr50  1  0.83384509  0.50263745  0.83408695  1
  Ni  Ni51  1  0.83433907  0.83528953  0.50098305  1
  Fe  Fe52  1  0.66685850  0.66721979  0.66775489  1
  Ni  Ni53  1  0.83579435  0.83259281  0.83585229  1
" 