5436,Ni50Fe44Cr5_6,-238.333832111514, 214.85488994526,Ni50Fe44Cr5,"# generated using pymatgen
 data_Cr4Fe23Ni27
_symmetry_space_group_name_H-M   'P 1'
_cell_length_a   7.41162442
_cell_length_b   7.41162442
_cell_length_c   10.48161977
_cell_angle_alpha   90.00000000
_cell_angle_beta   90.00000000
_cell_angle_gamma   90.00000000
_symmetry_Int_Tables_number   1
_chemical_formula_structural   Cr4Fe23Ni27
_chemical_formula_sum   'Cr4 Fe23 Ni27'
_cell_volume   575.77818778
_cell_formula_units_Z   1
loop_
 _symmetry_equiv_pos_site_id
 _symmetry_equiv_pos_as_xyz
  1  'x, y, z'
loop_
 _atom_site_type_symbol
 _atom_site_label
 _atom_site_symmetry_multiplicity
 _atom_site_fract_x
 _atom_site_fract_y
 _atom_site_fract_z
 _atom_site_occupancy
  Ni  Ni0  1  0.00493715  1.00316058  1.00357530  1
  Ni  Ni1  1  0.16862217  0.17079342  0.16946441  1
  Fe  Fe2  1  1.00185698  0.00514829  0.33699919  1
  Ni  Ni3  1  0.00389321  0.33705048  1.00244823  1
  Fe  Fe4  1  0.17076184  0.50315779  0.17067714  1
  Ni  Ni5  1  0.00450097  0.33840034  0.33795640  1
  Fe  Fe6  1  1.00323731  0.67005857  1.00293590  1
  Fe  Fe7  1  0.16991762  0.83602564  0.16920882  1
  Fe  Fe8  1  1.00292213  0.66915040  0.33789172  1
  Fe  Fe9  1  0.33598373  0.00455758  0.00413906  1
  Fe  Fe10  1  0.50491797  0.17206095  0.17009914  1
  Cr  Cr11  1  0.33763063  0.00466854  0.33776574  1
  Fe  Fe12  1  0.33631615  0.33678883  1.00348612  1
  Ni  Ni13  1  0.50491574  0.50485789  0.17128297  1
  Ni  Ni14  1  0.33534381  0.33760085  0.33547979  1
  Fe  Fe15  1  0.33689535  0.66987079  1.00342552  1
  Ni  Ni16  1  0.50494663  0.83500210  0.16930409  1
  Fe  Fe17  1  0.33756496  0.66915543  0.33648779  1
  Fe  Fe18  1  0.67158211  0.00428471  1.00345396  1
  Fe  Fe19  1  0.83652279  0.17121139  0.17029359  1
  Ni  Ni20  1  0.67107569  1.00232361  0.33714531  1
  Ni  Ni21  1  0.67054759  0.33791367  1.00345348  1
  Ni  Ni22  1  0.83530719  0.50308662  0.17008724  1
  Ni  Ni23  1  0.67136900  0.33727291  0.33679899  1
  Fe  Fe24  1  0.67108788  0.66973077  0.00440162  1
  Fe  Fe25  1  0.83635013  0.83681202  0.17004727  1
  Ni  Ni26  1  0.67187902  0.67161779  0.33649165  1
  Ni  Ni27  1  0.16778759  0.17065395  0.50526863  1
  Fe  Fe28  1  1.00334279  0.00619737  0.67127571  1
  Ni  Ni29  1  0.16876558  0.17010411  0.83648174  1
  Ni  Ni30  1  0.17011634  0.50264477  0.50208454  1
  Fe  Fe31  1  1.00329177  0.33504201  0.67003683  1
  Ni  Ni32  1  0.17274256  0.50266579  0.83792968  1
  Ni  Ni33  1  0.17146794  0.83791848  0.50356973  1
  Cr  Cr34  1  0.00502780  0.67003582  0.67070278  1
  Ni  Ni35  1  0.17088275  0.83844415  0.83811781  1
  Fe  Fe36  1  0.50451253  0.16997052  0.50466821  1
  Fe  Fe37  1  0.33740201  0.00391091  0.66990164  1
  Fe  Fe38  1  0.50380389  0.17092109  0.83644958  1
  Cr  Cr39  1  0.50377238  0.50414987  0.50166314  1
  Ni  Ni40  1  0.33590305  0.33548303  0.67148314  1
  Ni  Ni41  1  0.50299177  0.50359799  0.83796906  1
  Ni  Ni42  1  0.50358076  0.83762031  0.50435342  1
  Fe  Fe43  1  0.33685438  0.67082590  0.67129865  1
  Fe  Fe44  1  0.50270192  0.83805167  0.83758670  1
  Ni  Ni45  1  0.83790707  0.17055862  0.50323898  1
  Ni  Ni46  1  0.66957561  0.00507340  0.67038500  1
  Ni  Ni47  1  0.83780130  0.16963481  0.83727880  1
  Ni  Ni48  1  0.83761427  0.50070685  0.50261551  1
  Ni  Ni49  1  0.67017531  0.33427328  0.67096310  1
  Fe  Fe50  1  0.83776740  0.50163197  0.83896738  1
  Fe  Fe51  1  0.83722427  0.83869388  0.50246016  1
  Cr  Cr52  1  0.67112877  0.67122204  0.67152565  1
  Ni  Ni53  1  0.83687508  0.84010805  0.83882654  1
" 