1586,Ni50Fe43Cr5_8,-238.688047458257, 215.712961343201,Ni50Fe43Cr5,"# generated using pymatgen
 data_Cr4Fe23Ni27
_symmetry_space_group_name_H-M   'P 1'
_cell_length_a   7.41635290
_cell_length_b   7.41635290
_cell_length_c   10.48830685
_cell_angle_alpha   90.00000000
_cell_angle_beta   90.00000000
_cell_angle_gamma   90.00000000
_symmetry_Int_Tables_number   1
_chemical_formula_structural   Cr4Fe23Ni27
_chemical_formula_sum   'Cr4 Fe23 Ni27'
_cell_volume   576.88089786
_cell_formula_units_Z   1
loop_
 _symmetry_equiv_pos_site_id
 _symmetry_equiv_pos_as_xyz
  1  'x, y, z'
loop_
 _atom_site_type_symbol
 _atom_site_label
 _atom_site_symmetry_multiplicity
 _atom_site_fract_x
 _atom_site_fract_y
 _atom_site_fract_z
 _atom_site_occupancy
  Fe  Fe0  1  0.00435068  0.00486225  1.00324962  1
  Fe  Fe1  1  0.16960060  0.17021023  0.16999070  1
  Fe  Fe2  1  1.00205095  0.00526181  0.33729791  1
  Ni  Ni3  1  1.00230392  0.33933148  0.00401014  1
  Fe  Fe4  1  0.16824023  0.50491304  0.17095202  1
  Ni  Ni5  1  0.00363252  0.33884986  0.33620274  1
  Ni  Ni6  1  1.00230196  0.66827836  0.00477044  1
  Ni  Ni7  1  0.17039053  0.83795310  0.17222717  1
  Fe  Fe8  1  0.00480477  0.67116421  0.33662335  1
  Ni  Ni9  1  0.33821929  1.00265957  0.00408504  1
  Fe  Fe10  1  0.50398340  0.16891306  0.16968063  1
  Ni  Ni11  1  0.33713570  1.00252685  0.33746231  1
  Fe  Fe12  1  0.33608329  0.33635829  0.00342991  1
  Ni  Ni13  1  0.50228725  0.50003429  0.16890871  1
  Ni  Ni14  1  0.33585086  0.33484482  0.33467448  1
  Fe  Fe15  1  0.33555684  0.66859528  0.00447640  1
  Fe  Fe16  1  0.50344339  0.83547416  0.16908574  1
  Fe  Fe17  1  0.33792872  0.66759294  0.33676254  1
  Fe  Fe18  1  0.67119594  0.00467451  0.00363760  1
  Fe  Fe19  1  0.83690300  0.17161895  0.17077208  1
  Ni  Ni20  1  0.66865351  1.00298787  0.33463877  1
  Ni  Ni21  1  0.67141311  0.33734251  0.00442468  1
  Ni  Ni22  1  0.83529851  0.50311727  0.17174475  1
  Ni  Ni23  1  0.66984539  0.33564821  0.33749144  1
  Fe  Fe24  1  0.67097340  0.66849195  0.00438975  1
  Ni  Ni25  1  0.84023893  0.83846133  0.16758192  1
  Cr  Cr26  1  0.67170603  0.67057342  0.33700221  1
  Fe  Fe27  1  0.17026901  0.17128547  0.50203400  1
  Ni  Ni28  1  0.00429987  0.00382802  0.67039174  1
  Fe  Fe29  1  0.17035129  0.17046232  0.83844761  1
  Ni  Ni30  1  0.17376056  0.50467164  0.50245035  1
  Cr  Cr31  1  1.00253325  0.33601246  0.67020672  1
  Fe  Fe32  1  0.16919092  0.50221522  0.83650414  1
  Fe  Fe33  1  0.17055610  0.83683614  0.50389190  1
  Ni  Ni34  1  1.00239391  0.66950838  0.66803234  1
  Cr  Cr35  1  0.16900694  0.83554963  0.83390094  1
  Fe  Fe36  1  0.50244731  0.17117818  0.50217241  1
  Ni  Ni37  1  0.33638435  0.00451672  0.66860829  1
  Ni  Ni38  1  0.50332511  0.17230542  0.83695176  1
  Ni  Ni39  1  0.50147233  0.50046607  0.50554206  1
  Ni  Ni40  1  0.33680034  0.33601610  0.67192839  1
  Fe  Fe41  1  0.50452580  0.50243732  0.83632083  1
  Fe  Fe42  1  0.50365304  0.83563440  0.50363437  1
  Ni  Ni43  1  0.33813135  0.66995061  0.66956358  1
  Fe  Fe44  1  0.50409420  0.83712314  0.83770535  1
  Ni  Ni45  1  0.83540119  0.16871244  0.50062021  1
  Cr  Cr46  1  0.66939528  0.00444534  0.67069875  1
  Ni  Ni47  1  0.83502563  0.17158769  0.83885838  1
  Fe  Fe48  1  0.83689996  0.50332489  0.50307650  1
  Ni  Ni49  1  0.66922673  0.33813381  0.66832984  1
  Ni  Ni50  1  0.83495552  0.50307766  0.83567973  1
  Ni  Ni51  1  0.83961763  0.83920673  0.50510783  1
  Ni  Ni52  1  0.67030857  0.66948664  0.67100194  1
  Fe  Fe53  1  0.83614044  0.83584727  0.83732634  1
" 