5233,Ni50Fe47Cr2_18,-239.944793577005, 219.8479740246,Ni50Fe47Cr2,"# generated using pymatgen
 data_Cr2Fe25Ni27
_symmetry_space_group_name_H-M   'P 1'
_cell_length_a   7.40948556
_cell_length_b   7.40948556
_cell_length_c   10.47859496
_cell_angle_alpha   90.00000000
_cell_angle_beta   90.00000000
_cell_angle_gamma   90.00000000
_symmetry_Int_Tables_number   1
_chemical_formula_structural   Cr2Fe25Ni27
_chemical_formula_sum   'Cr2 Fe25 Ni27'
_cell_volume   575.27985345
_cell_formula_units_Z   1
loop_
 _symmetry_equiv_pos_site_id
 _symmetry_equiv_pos_as_xyz
  1  'x, y, z'
loop_
 _atom_site_type_symbol
 _atom_site_label
 _atom_site_symmetry_multiplicity
 _atom_site_fract_x
 _atom_site_fract_y
 _atom_site_fract_z
 _atom_site_occupancy
  Fe  Fe0  1  0.00432230  1.00376456  0.00423050  1
  Fe  Fe1  1  0.17099738  0.17046539  0.17091117  1
  Ni  Ni2  1  1.00375572  0.00415345  0.33638267  1
  Ni  Ni3  1  1.00374186  0.33641223  0.00449576  1
  Fe  Fe4  1  0.17141488  0.50333420  0.17021186  1
  Fe  Fe5  1  1.00290181  0.33721646  0.33721171  1
  Fe  Fe6  1  0.00490194  0.67010106  1.00362683  1
  Ni  Ni7  1  0.16910358  0.83661642  0.17100800  1
  Fe  Fe8  1  1.00374381  0.67003329  0.33732810  1
  Fe  Fe9  1  0.33623092  0.00425985  1.00268198  1
  Ni  Ni10  1  0.50532308  0.17226893  0.17076542  1
  Fe  Fe11  1  0.33612137  0.00423152  0.33699428  1
  Fe  Fe12  1  0.33745126  0.33790222  0.00389195  1
  Ni  Ni13  1  0.50365503  0.50194388  0.17107517  1
  Ni  Ni14  1  0.33722237  0.33837604  0.33498630  1
  Ni  Ni15  1  0.33716551  0.66961349  1.00324028  1
  Cr  Cr16  1  0.50218945  0.83736861  0.17151926  1
  Fe  Fe17  1  0.33677619  0.66904629  0.33780036  1
  Fe  Fe18  1  0.67109562  0.00543834  1.00255526  1
  Ni  Ni19  1  0.83671830  0.17091972  0.17152641  1
  Fe  Fe20  1  0.67229678  0.00506978  0.33725738  1
  Fe  Fe21  1  0.67048561  0.33732581  0.00433543  1
  Fe  Fe22  1  0.83635317  0.50358178  0.17068723  1
  Ni  Ni23  1  0.67038054  0.33910385  0.33586110  1
  Fe  Fe24  1  0.67097331  0.66888739  1.00285057  1
  Fe  Fe25  1  0.83823433  0.83769612  0.17115259  1
  Ni  Ni26  1  0.67081230  0.66898418  0.33751435  1
  Fe  Fe27  1  0.16878812  0.17171283  0.50396238  1
  Ni  Ni28  1  1.00338082  0.00480592  0.67139341  1
  Fe  Fe29  1  0.17094749  0.17106278  0.83678285  1
  Ni  Ni30  1  0.17026063  0.50547537  0.50356749  1
  Fe  Fe31  1  1.00381885  0.33719468  0.67103149  1
  Ni  Ni32  1  0.17020933  0.50578988  0.83720716  1
  Fe  Fe33  1  0.17013045  0.83709926  0.50407693  1
  Fe  Fe34  1  0.00466238  0.67085400  0.67069573  1
  Ni  Ni35  1  0.17150597  0.83631210  0.83695600  1
  Cr  Cr36  1  0.50561462  0.17026789  0.50376879  1
  Ni  Ni37  1  0.33581467  1.00336118  0.67172450  1
  Ni  Ni38  1  0.50516562  0.16960216  0.83759003  1
  Ni  Ni39  1  0.50346687  0.50570387  0.50388839  1
  Ni  Ni40  1  0.33610905  0.33872656  0.67250171  1
  Ni  Ni41  1  0.50348132  0.50415107  0.83668508  1
  Fe  Fe42  1  0.50472241  0.83453687  0.50482135  1
  Ni  Ni43  1  0.33856978  0.66956778  0.67011364  1
  Ni  Ni44  1  0.50213164  0.83789835  0.83654492  1
  Ni  Ni45  1  0.83826798  0.17050770  0.50374215  1
  Ni  Ni46  1  0.67245634  1.00234042  0.67110795  1
  Ni  Ni47  1  0.83637846  0.17090051  0.83638480  1
  Ni  Ni48  1  0.83792314  0.50323104  0.50354589  1
  Fe  Fe49  1  0.67071600  0.33754228  0.67106656  1
  Ni  Ni50  1  0.83796560  0.50275352  0.83690094  1
  Fe  Fe51  1  0.83680189  0.83666337  0.50386918  1
  Ni  Ni52  1  0.66967979  0.67060091  0.67109184  1
  Fe  Fe53  1  0.83641720  0.83697769  0.83663174  1
" 