2833,Ni50Fe27Cr21_6,-231.32851656156, 189.463389227689,Ni50Fe27Cr21,"# generated using pymatgen
 data_Cr13Fe14Ni27
_symmetry_space_group_name_H-M   'P 1'
_cell_length_a   7.44658990
_cell_length_b   7.44658990
_cell_length_c   10.53106843
_cell_angle_alpha   90.00000000
_cell_angle_beta   90.00000000
_cell_angle_gamma   90.00000000
_symmetry_Int_Tables_number   1
_chemical_formula_structural   Cr13Fe14Ni27
_chemical_formula_sum   'Cr13 Fe14 Ni27'
_cell_volume   583.96565845
_cell_formula_units_Z   1
loop_
 _symmetry_equiv_pos_site_id
 _symmetry_equiv_pos_as_xyz
  1  'x, y, z'
loop_
 _atom_site_type_symbol
 _atom_site_label
 _atom_site_symmetry_multiplicity
 _atom_site_fract_x
 _atom_site_fract_y
 _atom_site_fract_z
 _atom_site_occupancy
  Ni  Ni0  1  0.99944563  1.00094537  1.00033000  1
  Ni  Ni1  1  0.16839787  0.16731166  0.16906492  1
  Cr  Cr2  1  1.00075601  0.00462463  0.33465896  1
  Cr  Cr3  1  0.00227117  0.33454787  0.00215452  1
  Cr  Cr4  1  0.16646519  0.50222502  0.17114011  1
  Ni  Ni5  1  1.00036690  0.33503526  0.33697965  1
  Ni  Ni6  1  0.99720049  0.66864727  0.99952273  1
  Cr  Cr7  1  0.16590081  0.83398222  0.16738793  1
  Ni  Ni8  1  0.99809435  0.66548577  0.33540524  1
  Cr  Cr9  1  0.33514581  0.00371483  1.00002017  1
  Ni  Ni10  1  0.50214347  0.16615444  0.16688919  1
  Ni  Ni11  1  0.33747252  0.00194121  0.33391753  1
  Ni  Ni12  1  0.33626434  0.33296642  0.99983493  1
  Cr  Cr13  1  0.50246080  0.50148780  0.16682343  1
  Fe  Fe14  1  0.33258808  0.33301008  0.33414848  1
  Cr  Cr15  1  0.33588304  0.66722233  0.99739454  1
  Fe  Fe16  1  0.50403706  0.83543387  0.16855165  1
  Ni  Ni17  1  0.33671809  0.67051769  0.33646556  1
  Ni  Ni18  1  0.66809493  1.00033801  0.00249448  1
  Ni  Ni19  1  0.83366679  0.16674833  0.16782714  1
  Fe  Fe20  1  0.66769581  0.99854487  0.33325366  1
  Fe  Fe21  1  0.66756052  0.33425737  1.00117008  1
  Ni  Ni22  1  0.83403791  0.50348154  0.16800972  1
  Cr  Cr23  1  0.67205974  0.33388329  0.33309043  1
  Ni  Ni24  1  0.67013903  0.66877045  0.99959793  1
  Fe  Fe25  1  0.83294530  0.83386792  0.16762518  1
  Ni  Ni26  1  0.66893533  0.66945728  0.33582293  1
  Ni  Ni27  1  0.16858552  0.16888622  0.50179633  1
  Ni  Ni28  1  0.00192527  0.00343508  0.66819616  1
  Ni  Ni29  1  0.16869826  0.16695937  0.83369680  1
  Ni  Ni30  1  0.16732632  0.50022670  0.49941475  1
  Fe  Fe31  1  0.00397948  0.33490025  0.66710231  1
  Ni  Ni32  1  0.16826497  0.50116815  0.83434696  1
  Cr  Cr33  1  0.16834625  0.83472701  0.50155818  1
  Cr  Cr34  1  1.00105546  0.66667784  0.66908714  1
  Fe  Fe35  1  0.16742515  0.83566080  0.83360225  1
  Cr  Cr36  1  0.50042331  0.16585108  0.50244000  1
  Ni  Ni37  1  0.33499556  0.00166113  0.67007055  1
  Ni  Ni38  1  0.50152122  0.16806868  0.83510898  1
  Cr  Cr39  1  0.49998376  0.50229494  0.50237084  1
  Fe  Fe40  1  0.33161902  0.33486418  0.67052625  1
  Ni  Ni41  1  0.50294867  0.50094554  0.83413536  1
  Fe  Fe42  1  0.50159862  0.83445155  0.50231390  1
  Ni  Ni43  1  0.33654725  0.66797717  0.66945726  1
  Ni  Ni44  1  0.50338713  0.83511953  0.83275211  1
  Fe  Fe45  1  0.83692349  0.16889505  0.50340527  1
  Fe  Fe46  1  0.66749450  0.99831027  0.66880085  1
  Cr  Cr47  1  0.83382914  0.16672926  0.83356613  1
  Ni  Ni48  1  0.83518613  0.50303502  0.50134170  1
  Fe  Fe49  1  0.66853357  0.33628767  0.66889376  1
  Ni  Ni50  1  0.83264070  0.50286377  0.83522566  1
  Ni  Ni51  1  0.83261827  0.83494271  0.50134661  1
  Fe  Fe52  1  0.66795015  0.66980319  0.66876543  1
  Fe  Fe53  1  0.83362180  0.83483101  0.83527337  1
" 