478,Ni50Fe26Cr23_11,-231.82281651504, 190.383941470889,Ni50Fe26Cr23,"# generated using pymatgen
 data_Cr13Fe14Ni27
_symmetry_space_group_name_H-M   'P 1'
_cell_length_a   7.45010758
_cell_length_b   7.45010758
_cell_length_c   10.53604318
_cell_angle_alpha   90.00000000
_cell_angle_beta   90.00000000
_cell_angle_gamma   90.00000000
_symmetry_Int_Tables_number   1
_chemical_formula_structural   Cr13Fe14Ni27
_chemical_formula_sum   'Cr13 Fe14 Ni27'
_cell_volume   584.79362505
_cell_formula_units_Z   1
loop_
 _symmetry_equiv_pos_site_id
 _symmetry_equiv_pos_as_xyz
  1  'x, y, z'
loop_
 _atom_site_type_symbol
 _atom_site_label
 _atom_site_symmetry_multiplicity
 _atom_site_fract_x
 _atom_site_fract_y
 _atom_site_fract_z
 _atom_site_occupancy
  Cr  Cr0  1  0.99999749  0.00223535  0.00117747  1
  Ni  Ni1  1  0.16949645  0.16912408  0.16821578  1
  Ni  Ni2  1  0.99893142  1.00044403  0.33422170  1
  Ni  Ni3  1  0.99932046  0.33660946  0.00153688  1
  Ni  Ni4  1  0.16796815  0.50048769  0.16718020  1
  Cr  Cr5  1  1.00044724  0.33550639  0.33379499  1
  Fe  Fe6  1  1.00061765  0.66577998  1.00099715  1
  Cr  Cr7  1  0.16667240  0.83399251  0.16928765  1
  Ni  Ni8  1  1.00017960  0.66756290  0.33383197  1
  Ni  Ni9  1  0.33637048  1.00012147  0.00310384  1
  Ni  Ni10  1  0.50143101  0.16735695  0.16723281  1
  Ni  Ni11  1  0.33623178  1.00095119  0.33215695  1
  Fe  Fe12  1  0.33408660  0.33450696  0.00223997  1
  Cr  Cr13  1  0.50084395  0.49994955  0.16809198  1
  Ni  Ni14  1  0.33401093  0.33437176  0.33245716  1
  Ni  Ni15  1  0.33339402  0.66754748  0.99918629  1
  Fe  Fe16  1  0.50210821  0.83715585  0.16776752  1
  Ni  Ni17  1  0.33395049  0.66809040  0.33579426  1
  Ni  Ni18  1  0.66737647  0.00256755  0.00246881  1
  Ni  Ni19  1  0.83248615  0.16633564  0.16821673  1
  Ni  Ni20  1  0.66824656  1.00050384  0.33380763  1
  Ni  Ni21  1  0.67043205  0.33364076  1.00079527  1
  Fe  Fe22  1  0.83561269  0.50065818  0.16732421  1
  Ni  Ni23  1  0.66877328  0.33312359  0.33366836  1
  Fe  Fe24  1  0.66865670  0.66797268  1.00097608  1
  Ni  Ni25  1  0.83302821  0.83458334  0.16844017  1
  Ni  Ni26  1  0.66928333  0.66978431  0.33475678  1
  Cr  Cr27  1  0.16701106  0.16926798  0.50058287  1
  Fe  Fe28  1  0.99700461  0.99963027  0.66819489  1
  Cr  Cr29  1  0.16637355  0.16876363  0.83418838  1
  Ni  Ni30  1  0.16817109  0.50239883  0.50266035  1
  Fe  Fe31  1  0.00147730  0.33657494  0.66825449  1
  Fe  Fe32  1  0.16847225  0.50229270  0.83406633  1
  Cr  Cr33  1  0.16547690  0.83209276  0.50008016  1
  Ni  Ni34  1  0.00119095  0.66679399  0.66908435  1
  Fe  Fe35  1  0.16731161  0.83148799  0.83446769  1
  Cr  Cr36  1  0.50222393  0.16810949  0.49987735  1
  Cr  Cr37  1  0.33532914  0.99931914  0.66787240  1
  Cr  Cr38  1  0.50275115  0.17037641  0.83645189  1
  Cr  Cr39  1  0.49966226  0.50257682  0.50077286  1
  Ni  Ni40  1  0.33178179  0.33868984  0.66931724  1
  Ni  Ni41  1  0.50015867  0.50255448  0.83432371  1
  Fe  Fe42  1  0.50327661  0.83325691  0.50052604  1
  Ni  Ni43  1  0.33255747  0.66522499  0.66843025  1
  Cr  Cr44  1  0.50247582  0.83151584  0.83472610  1
  Fe  Fe45  1  0.83441251  0.16585658  0.50083358  1
  Ni  Ni46  1  0.67190398  0.99939051  0.66713198  1
  Ni  Ni47  1  0.83487491  0.16711769  0.83333604  1
  Fe  Fe48  1  0.83626534  0.50371811  0.50094131  1
  Cr  Cr49  1  0.66965223  0.33430817  0.66818624  1
  Fe  Fe50  1  0.83436832  0.50095881  0.83514679  1
  Ni  Ni51  1  0.83348510  0.83438382  0.50201395  1
  Ni  Ni52  1  0.66966336  0.66951302  0.66816634  1
  Fe  Fe53  1  0.83410685  0.83425488  0.83303030  1
" 