7429,Ni50Fe27Cr21_11,-231.962347302114, 191.742210505044,Ni50Fe27Cr21,"# generated using pymatgen
 data_Cr13Fe14Ni27
_symmetry_space_group_name_H-M   'P 1'
_cell_length_a   7.44761331
_cell_length_b   7.44761331
_cell_length_c   10.53251575
_cell_angle_alpha   90.00000000
_cell_angle_beta   90.00000000
_cell_angle_gamma   90.00000000
_symmetry_Int_Tables_number   1
_chemical_formula_structural   Cr13Fe14Ni27
_chemical_formula_sum   'Cr13 Fe14 Ni27'
_cell_volume   584.20646139
_cell_formula_units_Z   1
loop_
 _symmetry_equiv_pos_site_id
 _symmetry_equiv_pos_as_xyz
  1  'x, y, z'
loop_
 _atom_site_type_symbol
 _atom_site_label
 _atom_site_symmetry_multiplicity
 _atom_site_fract_x
 _atom_site_fract_y
 _atom_site_fract_z
 _atom_site_occupancy
  Fe  Fe0  1  0.00243328  0.99967686  1.00128027  1
  Ni  Ni1  1  0.16739725  0.16955128  0.16657641  1
  Ni  Ni2  1  0.99911773  1.00065916  0.33327170  1
  Ni  Ni3  1  0.00295645  0.33628907  0.00278533  1
  Ni  Ni4  1  0.16760496  0.50038892  0.16681129  1
  Fe  Fe5  1  1.00102318  0.33515088  0.33335049  1
  Ni  Ni6  1  0.00184633  0.66887293  0.00295295  1
  Fe  Fe7  1  0.16660903  0.83463457  0.16645657  1
  Fe  Fe8  1  0.99869264  0.66687307  0.33276569  1
  Ni  Ni9  1  0.33369929  0.00156228  0.00170318  1
  Ni  Ni10  1  0.50006926  0.16869404  0.16453858  1
  Cr  Cr11  1  0.33541332  0.00142723  0.33220614  1
  Ni  Ni12  1  0.33398822  0.33428622  1.00093144  1
  Ni  Ni13  1  0.49981939  0.50217213  0.16411360  1
  Cr  Cr14  1  0.33543028  0.33644668  0.33342493  1
  Ni  Ni15  1  0.33284556  0.66814985  1.00019115  1
  Cr  Cr16  1  0.50441480  0.83380859  0.16790930  1
  Cr  Cr17  1  0.33381569  0.66600797  0.33534803  1
  Ni  Ni18  1  0.66683086  1.00051045  1.00035642  1
  Cr  Cr19  1  0.83532260  0.16586475  0.16610443  1
  Ni  Ni20  1  0.67107829  0.00181589  0.33583454  1
  Ni  Ni21  1  0.66685159  0.33470346  0.00248640  1
  Fe  Fe22  1  0.83453365  0.50245169  0.16607937  1
  Cr  Cr23  1  0.66875144  0.33603769  0.33307148  1
  Ni  Ni24  1  0.66886420  0.66856859  0.00191172  1
  Ni  Ni25  1  0.83522407  0.83317079  0.16726187  1
  Fe  Fe26  1  0.66895975  0.66765202  0.33440435  1
  Cr  Cr27  1  0.16429905  0.16994057  0.50160018  1
  Fe  Fe28  1  0.99970099  0.99946532  0.66927818  1
  Ni  Ni29  1  0.16902424  0.16990375  0.83606737  1
  Fe  Fe30  1  0.16641082  0.50163319  0.50264324  1
  Fe  Fe31  1  1.00056315  0.33693797  0.66889767  1
  Fe  Fe32  1  0.16827461  0.50253602  0.83634235  1
  Cr  Cr33  1  0.16795442  0.83432416  0.50125314  1
  Ni  Ni34  1  0.00173121  0.66615569  0.66815541  1
  Fe  Fe35  1  0.16666380  0.83359217  0.83534461  1
  Cr  Cr36  1  0.50281390  0.16697266  0.50217590  1
  Cr  Cr37  1  0.33596542  0.99949791  0.66933837  1
  Fe  Fe38  1  0.50230852  0.16753000  0.83622474  1
  Ni  Ni39  1  0.50238431  0.50427403  0.50436313  1
  Fe  Fe40  1  0.33587592  0.33759102  0.67025000  1
  Fe  Fe41  1  0.50097132  0.50187230  0.83514203  1
  Ni  Ni42  1  0.50288001  0.83069296  0.50173752  1
  Ni  Ni43  1  0.33384582  0.66637637  0.66856655  1
  Ni  Ni44  1  0.50214112  0.83200140  0.83446101  1
  Ni  Ni45  1  0.83669454  0.16976692  0.50281879  1
  Ni  Ni46  1  0.66851693  0.00153401  0.66777087  1
  Cr  Cr47  1  0.83603396  0.16772396  0.83488446  1
  Ni  Ni48  1  0.83518239  0.50073494  0.50066749  1
  Ni  Ni49  1  0.66904349  0.33512636  0.66708618  1
  Cr  Cr50  1  0.83359922  0.50332862  0.83732214  1
  Cr  Cr51  1  0.83296902  0.83485516  0.50233748  1
  Ni  Ni52  1  0.66810681  0.66722969  0.66714087  1
  Ni  Ni53  1  0.83290752  0.83343138  0.83445828  1
" 