6301,Ni50Fe47Cr2_16,-239.723730537996, 221.039363051333,Ni50Fe47Cr2,"# generated using pymatgen
 data_Cr2Fe25Ni27
_symmetry_space_group_name_H-M   'P 1'
_cell_length_a   7.40348593
_cell_length_b   7.40348593
_cell_length_c   10.47011021
_cell_angle_alpha   90.00000000
_cell_angle_beta   90.00000000
_cell_angle_gamma   90.00000000
_symmetry_Int_Tables_number   1
_chemical_formula_structural   Cr2Fe25Ni27
_chemical_formula_sum   'Cr2 Fe25 Ni27'
_cell_volume   573.88353381
_cell_formula_units_Z   1
loop_
 _symmetry_equiv_pos_site_id
 _symmetry_equiv_pos_as_xyz
  1  'x, y, z'
loop_
 _atom_site_type_symbol
 _atom_site_label
 _atom_site_symmetry_multiplicity
 _atom_site_fract_x
 _atom_site_fract_y
 _atom_site_fract_z
 _atom_site_occupancy
  Ni  Ni0  1  0.00506291  1.00306164  1.00384422  1
  Fe  Fe1  1  0.17066184  0.17087107  0.17083624  1
  Ni  Ni2  1  1.00410469  1.00341604  0.33860087  1
  Fe  Fe3  1  0.00537470  0.33784393  1.00389743  1
  Fe  Fe4  1  0.17072484  0.50486756  0.17086948  1
  Ni  Ni5  1  1.00395591  0.33785515  0.33712753  1
  Ni  Ni6  1  0.00482384  0.67180988  1.00315135  1
  Ni  Ni7  1  0.17137574  0.83829461  0.17028797  1
  Ni  Ni8  1  0.00457445  0.67160705  0.33866062  1
  Ni  Ni9  1  0.33713806  1.00377527  0.00445795  1
  Fe  Fe10  1  0.50441714  0.17143076  0.17087410  1
  Fe  Fe11  1  0.33676475  0.00496040  0.33751065  1
  Ni  Ni12  1  0.33808618  0.33669957  1.00376654  1
  Fe  Fe13  1  0.50412113  0.50407519  0.17046605  1
  Ni  Ni14  1  0.33803250  0.33761354  0.33880871  1
  Ni  Ni15  1  0.33606930  0.67240297  0.00464308  1
  Fe  Fe16  1  0.50408274  0.83737021  0.17068485  1
  Fe  Fe17  1  0.33673990  0.67086327  0.33784059  1
  Fe  Fe18  1  0.67055500  1.00400341  0.00440800  1
  Fe  Fe19  1  0.83780065  0.17091162  0.17176043  1
  Ni  Ni20  1  0.67134487  0.00472503  0.33833501  1
  Ni  Ni21  1  0.67127735  0.33693553  0.00491317  1
  Ni  Ni22  1  0.83651534  0.50404879  0.17014855  1
  Ni  Ni23  1  0.67088980  0.33714285  0.33847701  1
  Fe  Fe24  1  0.67165071  0.67178560  0.00454045  1
  Fe  Fe25  1  0.83859157  0.83743532  0.17102708  1
  Fe  Fe26  1  0.67233156  0.67040339  0.33816649  1
  Ni  Ni27  1  0.17050420  0.17173779  0.50273200  1
  Fe  Fe28  1  1.00235127  0.00431962  0.67070477  1
  Ni  Ni29  1  0.17079647  0.17201811  0.83907870  1
  Ni  Ni30  1  0.17181047  0.50391184  0.50419626  1
  Ni  Ni31  1  1.00305610  0.33788840  0.67123889  1
  Ni  Ni32  1  0.17100127  0.50337482  0.83821880  1
  Ni  Ni33  1  0.17022418  0.83722976  0.50405940  1
  Fe  Fe34  1  1.00392587  0.67025514  0.67066947  1
  Fe  Fe35  1  0.17027214  0.83659073  0.83917388  1
  Fe  Fe36  1  0.50546033  0.17202902  0.50308699  1
  Cr  Cr37  1  0.33664860  1.00329393  0.67085780  1
  Fe  Fe38  1  0.50471650  0.17060792  0.83892222  1
  Fe  Fe39  1  0.50439358  0.50416650  0.50481158  1
  Fe  Fe40  1  0.33655175  0.33914154  0.67035202  1
  Cr  Cr41  1  0.50333274  0.50410804  0.83777390  1
  Fe  Fe42  1  0.50515006  0.83667845  0.50395645  1
  Ni  Ni43  1  0.33697661  0.67131944  0.67020505  1
  Fe  Fe44  1  0.50418899  0.83797084  0.83823530  1
  Ni  Ni45  1  0.83725839  0.17066373  0.50426772  1
  Fe  Fe46  1  0.67283114  1.00391289  0.67044046  1
  Fe  Fe47  1  0.83818132  0.17146416  0.83718738  1
  Ni  Ni48  1  0.83673355  0.50420437  0.50502181  1
  Ni  Ni49  1  0.67297326  0.33752587  0.66948754  1
  Fe  Fe50  1  0.83955441  0.50400802  0.83750501  1
  Ni  Ni51  1  0.83724127  0.83800691  0.50336746  1
  Ni  Ni52  1  0.67157364  0.67091928  0.67001068  1
  Ni  Ni53  1  0.83702945  0.83824825  0.83813906  1
" 