8963,Ni50Fe44Cr5_14,-238.216576154473, 213.5835146295,Ni50Fe44Cr5,"# generated using pymatgen
 data_Cr4Fe23Ni27
_symmetry_space_group_name_H-M   'P 1'
_cell_length_a   7.41701589
_cell_length_b   7.41701589
_cell_length_c   10.48924447
_cell_angle_alpha   90.00000000
_cell_angle_beta   90.00000000
_cell_angle_gamma   90.00000000
_symmetry_Int_Tables_number   1
_chemical_formula_structural   Cr4Fe23Ni27
_chemical_formula_sum   'Cr4 Fe23 Ni27'
_cell_volume   577.03562496
_cell_formula_units_Z   1
loop_
 _symmetry_equiv_pos_site_id
 _symmetry_equiv_pos_as_xyz
  1  'x, y, z'
loop_
 _atom_site_type_symbol
 _atom_site_label
 _atom_site_symmetry_multiplicity
 _atom_site_fract_x
 _atom_site_fract_y
 _atom_site_fract_z
 _atom_site_occupancy
  Ni  Ni0  1  0.00376418  1.00147041  1.00308308  1
  Fe  Fe1  1  0.16924194  0.16844591  0.17111441  1
  Ni  Ni2  1  1.00283027  1.00278805  0.33589671  1
  Cr  Cr3  1  1.00198200  0.33588914  0.00384569  1
  Fe  Fe4  1  0.17090095  0.50473368  0.17074729  1
  Fe  Fe5  1  1.00275202  0.33695148  0.33634211  1
  Ni  Ni6  1  1.00205527  0.67255022  0.00435403  1
  Fe  Fe7  1  0.16956688  0.83694261  0.16957766  1
  Fe  Fe8  1  1.00318974  0.67050288  0.33654922  1
  Ni  Ni9  1  0.33598805  1.00235539  1.00271387  1
  Cr  Cr10  1  0.50276596  0.16844577  0.16996163  1
  Ni  Ni11  1  0.33650655  1.00250306  0.33672450  1
  Ni  Ni12  1  0.33900150  0.33686059  1.00248427  1
  Fe  Fe13  1  0.50430945  0.50556930  0.16916686  1
  Ni  Ni14  1  0.33650380  0.33809853  0.33729428  1
  Ni  Ni15  1  0.33847091  0.67090129  0.00467549  1
  Ni  Ni16  1  0.50429763  0.83637705  0.16941292  1
  Fe  Fe17  1  0.33743634  0.67111014  0.33672279  1
  Ni  Ni18  1  0.67036615  1.00201236  1.00233360  1
  Fe  Fe19  1  0.83689418  0.16824861  0.17076372  1
  Ni  Ni20  1  0.67078069  1.00173450  0.33843730  1
  Ni  Ni21  1  0.66870876  0.33857371  1.00298677  1
  Ni  Ni22  1  0.83758801  0.50502295  0.17021614  1
  Fe  Fe23  1  0.67063631  0.33666231  0.33733606  1
  Ni  Ni24  1  0.66959581  0.66953593  1.00281714  1
  Ni  Ni25  1  0.83651176  0.83590512  0.17015831  1
  Ni  Ni26  1  0.67000775  0.67001230  0.33675880  1
  Cr  Cr27  1  0.17019754  0.17149463  0.50387485  1
  Ni  Ni28  1  0.00399883  1.00232034  0.67114069  1
  Fe  Fe29  1  0.17174405  0.16683994  0.83575079  1
  Ni  Ni30  1  0.16910083  0.50348426  0.50287399  1
  Ni  Ni31  1  1.00111275  0.33737776  0.66948594  1
  Cr  Cr32  1  0.17024206  0.50306319  0.83602767  1
  Fe  Fe33  1  0.17026633  0.83545516  0.50374116  1
  Ni  Ni34  1  1.00265884  0.67041845  0.66873702  1
  Fe  Fe35  1  0.17064074  0.83845508  0.83680115  1
  Fe  Fe36  1  0.50408911  0.16995202  0.50335953  1
  Ni  Ni37  1  0.33690543  1.00237865  0.67067955  1
  Ni  Ni38  1  0.50292835  0.16983453  0.83615417  1
  Fe  Fe39  1  0.50293985  0.50332805  0.50354506  1
  Fe  Fe40  1  0.33726888  0.33654188  0.67015313  1
  Ni  Ni41  1  0.50406204  0.50234400  0.83758215  1
  Ni  Ni42  1  0.50443283  0.83757761  0.50309201  1
  Fe  Fe43  1  0.33684528  0.67069958  0.66954855  1
  Ni  Ni44  1  0.50478460  0.83794229  0.83761872  1
  Fe  Fe45  1  0.83551159  0.16993719  0.50362704  1
  Fe  Fe46  1  0.67056345  0.00345920  0.67032658  1
  Fe  Fe47  1  0.83475250  0.16911795  0.83572796  1
  Fe  Fe48  1  0.83689744  0.50358265  0.50343912  1
  Ni  Ni49  1  0.67021108  0.33765963  0.66964636  1
  Fe  Fe50  1  0.83305695  0.50449379  0.83624162  1
  Fe  Fe51  1  0.83724822  0.83659729  0.50309091  1
  Fe  Fe52  1  0.67054416  0.67047544  0.67031935  1
  Ni  Ni53  1  0.83647276  0.83709545  0.83706963  1
" 