4492,Ni50Fe17Cr31_11,-227.801547349564, 174.996371204282,Ni50Fe17Cr31,"# generated using pymatgen
 data_Cr2FeNi3
_symmetry_space_group_name_H-M   'P 1'
_cell_length_a   7.47370484
_cell_length_b   7.47370484
_cell_length_c   10.56941474
_cell_angle_alpha   90.00000000
_cell_angle_beta   90.00000000
_cell_angle_gamma   90.00000000
_symmetry_Int_Tables_number   1
_chemical_formula_structural   Cr2FeNi3
_chemical_formula_sum   'Cr18 Fe9 Ni27'
_cell_volume   590.36802053
_cell_formula_units_Z   9
loop_
 _symmetry_equiv_pos_site_id
 _symmetry_equiv_pos_as_xyz
  1  'x, y, z'
loop_
 _atom_site_type_symbol
 _atom_site_label
 _atom_site_symmetry_multiplicity
 _atom_site_fract_x
 _atom_site_fract_y
 _atom_site_fract_z
 _atom_site_occupancy
  Ni  Ni0  1  0.99632518  0.00062606  0.00014391  1
  Cr  Cr1  1  0.16801089  0.16386088  0.16636910  1
  Cr  Cr2  1  0.99815111  0.00233781  0.33369048  1
  Cr  Cr3  1  0.99767070  0.33074254  0.00051567  1
  Cr  Cr4  1  0.16535201  0.49982234  0.16650487  1
  Fe  Fe5  1  0.99601995  0.33252912  0.33429455  1
  Fe  Fe6  1  0.99646070  0.66725379  0.00038599  1
  Cr  Cr7  1  0.16648823  0.83487094  0.16627783  1
  Cr  Cr8  1  0.99710307  0.66696162  0.33252653  1
  Ni  Ni9  1  0.33502823  0.00045316  0.99789230  1
  Ni  Ni10  1  0.50410005  0.16441214  0.16489504  1
  Ni  Ni11  1  0.33504149  0.99952280  0.33581578  1
  Cr  Cr12  1  0.33496505  0.32919199  0.99618540  1
  Cr  Cr13  1  0.50242267  0.49784380  0.16725263  1
  Cr  Cr14  1  0.33493597  0.32998406  0.33306322  1
  Cr  Cr15  1  0.33357776  0.66681398  0.99811738  1
  Cr  Cr16  1  0.50090613  0.83601922  0.16802391  1
  Ni  Ni17  1  0.33679469  0.66863697  0.33694623  1
  Ni  Ni18  1  0.66751488  0.00217272  0.00015398  1
  Ni  Ni19  1  0.82873319  0.16610905  0.16754053  1
  Fe  Fe20  1  0.66375718  -0.00029776  0.33335469  1
  Ni  Ni21  1  0.66878482  0.32928489  0.00118648  1
  Ni  Ni22  1  0.83003771  0.49891525  0.16690124  1
  Fe  Fe23  1  0.66753477  0.33133403  0.33390703  1
  Fe  Fe24  1  0.66817603  0.66768863  0.00059436  1
  Ni  Ni25  1  0.83037247  0.83352110  0.16299441  1
  Ni  Ni26  1  0.66607018  0.66469047  0.33263004  1
  Ni  Ni27  1  0.16691636  0.16479192  0.50157417  1
  Ni  Ni28  1  0.00037544  0.00400164  0.66562207  1
  Ni  Ni29  1  0.16503244  0.16599332  0.83092929  1
  Cr  Cr30  1  0.16745539  0.49808422  0.50179125  1
  Ni  Ni31  1  0.99951001  0.32931733  0.66520071  1
  Ni  Ni32  1  0.16568264  0.49741100  0.82927786  1
  Ni  Ni33  1  0.16942403  0.83580855  0.50134968  1
  Fe  Fe34  1  0.00204138  0.66624487  0.66565149  1
  Cr  Cr35  1  0.16616490  0.83536846  0.83095704  1
  Ni  Ni36  1  0.49963875  0.16593338  0.50141573  1
  Ni  Ni37  1  0.33331870  0.00007401  0.66486664  1
  Fe  Fe38  1  0.50135119  0.16297447  0.83135121  1
  Ni  Ni39  1  0.50118406  0.49838009  0.49920443  1
  Ni  Ni40  1  0.33249254  0.33142216  0.66749868  1
  Cr  Cr41  1  0.49986745  0.49747958  0.83158772  1
  Ni  Ni42  1  0.49809909  0.83414046  0.49828558  1
  Ni  Ni43  1  0.33341767  0.66706158  0.66381419  1
  Ni  Ni44  1  0.49964755  0.83706949  0.83208875  1
  Fe  Fe45  1  0.83168219  0.16785120  0.50187008  1
  Ni  Ni46  1  0.66489217  0.00258491  0.66605153  1
  Ni  Ni47  1  0.83236369  0.16555834  0.83112309  1
  Fe  Fe48  1  0.83013022  0.49597801  0.49912629  1
  Ni  Ni49  1  0.66659446  0.32993393  0.66398166  1
  Cr  Cr50  1  0.83358855  0.49687421  0.83161749  1
  Cr  Cr51  1  0.83152454  0.83521926  0.50253201  1
  Cr  Cr52  1  0.66217042  0.66743028  0.66479599  1
  Cr  Cr53  1  0.83104871  0.83766141  0.83422141  1
" 