368,Ni51Fe4Cr44_8,-221.156534615403, 142.344809980199,Ni51Fe4Cr44,"# generated using pymatgen
 data_Cr25Fe2Ni27
_symmetry_space_group_name_H-M   'P 1'
_cell_length_a   7.50834845
_cell_length_b   7.50834845
_cell_length_c   10.61840820
_cell_angle_alpha   90.00000000
_cell_angle_beta   90.00000000
_cell_angle_gamma   90.00000000
_symmetry_Int_Tables_number   1
_chemical_formula_structural   Cr25Fe2Ni27
_chemical_formula_sum   'Cr25 Fe2 Ni27'
_cell_volume   598.61590974
_cell_formula_units_Z   1
loop_
 _symmetry_equiv_pos_site_id
 _symmetry_equiv_pos_as_xyz
  1  'x, y, z'
loop_
 _atom_site_type_symbol
 _atom_site_label
 _atom_site_symmetry_multiplicity
 _atom_site_fract_x
 _atom_site_fract_y
 _atom_site_fract_z
 _atom_site_occupancy
  Ni  Ni0  1  -0.00255205  -0.00266689  0.99711757  1
  Ni  Ni1  1  0.16000882  0.16200369  0.16392416  1
  Ni  Ni2  1  0.00086875  0.99649778  0.32929885  1
  Ni  Ni3  1  0.99535538  0.32807299  -0.00030725  1
  Cr  Cr4  1  0.16276128  0.49851982  0.15974533  1
  Cr  Cr5  1  0.99699918  0.33120628  0.33082038  1
  Ni  Ni6  1  -0.00020994  0.66634167  -0.00272129  1
  Ni  Ni7  1  0.16027529  0.83162944  0.16353353  1
  Ni  Ni8  1  0.99652981  0.66573449  0.33175032  1
  Cr  Cr9  1  0.32566680  0.99605579  0.99705973  1
  Cr  Cr10  1  0.49666938  0.16581329  0.16372406  1
  Ni  Ni11  1  0.32339409  -0.00175030  0.32908739  1
  Ni  Ni12  1  0.33228117  0.33259167  0.99673940  1
  Ni  Ni13  1  0.49713514  0.49562933  0.16027274  1
  Cr  Cr14  1  0.32819514  0.33053133  0.33334147  1
  Ni  Ni15  1  0.32808147  0.66147164  0.99724926  1
  Cr  Cr16  1  0.49322800  0.82889956  0.16620177  1
  Cr  Cr17  1  0.32798835  0.66284182  0.32961933  1
  Cr  Cr18  1  0.66863088  0.00082334  0.99313412  1
  Ni  Ni19  1  0.83550370  0.16554534  0.16118148  1
  Cr  Cr20  1  0.66718399  -0.00222048  0.33081056  1
  Ni  Ni21  1  0.66442007  0.33076747  -0.00205703  1
  Fe  Fe22  1  0.83242060  0.49583522  0.16175172  1
  Cr  Cr23  1  0.66611433  0.33369424  0.32793154  1
  Cr  Cr24  1  0.66399943  0.66107399  0.99706502  1
  Cr  Cr25  1  0.83548724  0.83074752  0.16503445  1
  Cr  Cr26  1  0.66680399  0.66004759  0.33231809  1
  Ni  Ni27  1  0.16205695  0.16482537  0.49786369  1
  Ni  Ni28  1  0.99646347  0.99617548  0.66535045  1
  Cr  Cr29  1  0.16114362  0.16656193  0.82998205  1
  Fe  Fe30  1  0.16071749  0.49642396  0.49973713  1
  Ni  Ni31  1  -0.00097228  0.33061885  0.66099154  1
  Cr  Cr32  1  0.16364659  0.49772263  0.83075444  1
  Cr  Cr33  1  0.16011747  0.83267835  0.49567051  1
  Ni  Ni34  1  0.99404363  0.66494355  0.66252074  1
  Ni  Ni35  1  0.15736442  0.82919194  0.83318017  1
  Cr  Cr36  1  0.49307913  0.16434598  0.49707068  1
  Cr  Cr37  1  0.32709449  -0.00028841  0.66588297  1
  Ni  Ni38  1  0.49806262  0.17029595  0.83161122  1
  Ni  Ni39  1  0.49852071  0.49722633  0.49969023  1
  Ni  Ni40  1  0.32924430  0.33200920  0.66225032  1
  Ni  Ni41  1  0.49649379  0.49378012  0.83192729  1
  Cr  Cr42  1  0.50011247  0.83002830  0.49525962  1
  Cr  Cr43  1  0.32985216  0.66067472  0.66516336  1
  Cr  Cr44  1  0.49732975  0.82755356  0.83045987  1
  Cr  Cr45  1  0.83522759  0.16230220  0.49842343  1
  Cr  Cr46  1  0.66800082  0.99512633  0.66801297  1
  Ni  Ni47  1  0.83255852  0.16349510  0.83200609  1
  Ni  Ni48  1  0.83248165  0.50128273  0.49798807  1
  Cr  Cr49  1  0.66373687  0.33266477  0.66524614  1
  Cr  Cr50  1  0.83278701  0.49685749  0.83190894  1
  Ni  Ni51  1  0.83497025  0.82615739  0.49882608  1
  Ni  Ni52  1  0.66736210  0.66228528  0.66219245  1
  Ni  Ni53  1  0.83674642  0.83080553  0.82788520  1
" 