297,Ni51Fe4Cr44_9,-220.907984086122, 141.299991809428,Ni51Fe4Cr44,"# generated using pymatgen
 data_Cr25Fe2Ni27
_symmetry_space_group_name_H-M   'P 1'
_cell_length_a   7.51274909
_cell_length_b   7.51274909
_cell_length_c   10.62463165
_cell_angle_alpha   90.00000000
_cell_angle_beta   90.00000000
_cell_angle_gamma   90.00000000
_symmetry_Int_Tables_number   1
_chemical_formula_structural   Cr25Fe2Ni27
_chemical_formula_sum   'Cr25 Fe2 Ni27'
_cell_volume   599.66907254
_cell_formula_units_Z   1
loop_
 _symmetry_equiv_pos_site_id
 _symmetry_equiv_pos_as_xyz
  1  'x, y, z'
loop_
 _atom_site_type_symbol
 _atom_site_label
 _atom_site_symmetry_multiplicity
 _atom_site_fract_x
 _atom_site_fract_y
 _atom_site_fract_z
 _atom_site_occupancy
  Fe  Fe0  1  0.99605891  0.99605277  -0.00120170  1
  Cr  Cr1  1  0.16436897  0.16120963  0.16440158  1
  Ni  Ni2  1  -0.00219129  0.99407296  0.33063413  1
  Ni  Ni3  1  0.99659117  0.32984536  -0.00288822  1
  Cr  Cr4  1  0.16428661  0.49657664  0.16232780  1
  Cr  Cr5  1  0.99601961  0.33105886  0.33138233  1
  Cr  Cr6  1  0.99661043  0.66388964  -0.00016194  1
  Ni  Ni7  1  0.16301362  0.83298257  0.16280821  1
  Cr  Cr8  1  0.99493749  0.66669471  0.33117740  1
  Fe  Fe9  1  0.33205799  0.99619593  -0.00217254  1
  Ni  Ni10  1  0.49606772  0.16451023  0.16422527  1
  Ni  Ni11  1  0.32785330  -0.00163155  0.32853135  1
  Cr  Cr12  1  0.33093701  0.32975866  -0.00217034  1
  Ni  Ni13  1  0.49991008  0.49663969  0.16465839  1
  Ni  Ni14  1  0.33443760  0.32990093  0.32966511  1
  Ni  Ni15  1  0.33115078  0.66537503  -0.00193596  1
  Cr  Cr16  1  0.49734746  0.82916235  0.16201285  1
  Cr  Cr17  1  0.32958993  0.66216782  0.33146348  1
  Ni  Ni18  1  0.66270480  0.99603168  -0.00282782  1
  Cr  Cr19  1  0.83072818  0.16367005  0.16334099  1
  Cr  Cr20  1  0.66577250  -0.00286708  0.33089415  1
  Cr  Cr21  1  0.66283014  0.32897686  -0.00236708  1
  Ni  Ni22  1  0.82633172  0.49879052  0.16307488  1
  Ni  Ni23  1  0.66106586  0.33307321  0.33016897  1
  Ni  Ni24  1  0.66314691  0.66588854  0.00012121  1
  Ni  Ni25  1  0.83068351  0.82911963  0.16256816  1
  Ni  Ni26  1  0.66542113  0.66020958  0.32923074  1
  Cr  Cr27  1  0.16168183  0.16186606  0.49591914  1
  Ni  Ni28  1  -0.00215690  0.99569321  0.66132023  1
  Cr  Cr29  1  0.16230232  0.16287288  0.83054835  1
  Ni  Ni30  1  0.16326892  0.49881621  0.49970698  1
  Ni  Ni31  1  0.99475957  0.33132881  0.66199454  1
  Cr  Cr32  1  0.16220288  0.49737959  0.82903380  1
  Ni  Ni33  1  0.16167743  0.83035815  0.49912738  1
  Ni  Ni34  1  -0.00059306  0.66385107  0.66034033  1
  Cr  Cr35  1  0.16542228  0.83053599  0.82888100  1
  Cr  Cr36  1  0.49751372  0.16544719  0.49535320  1
  Ni  Ni37  1  0.32822160  0.99529005  0.66480242  1
  Ni  Ni38  1  0.49699864  0.16156040  0.83042713  1
  Ni  Ni39  1  0.49827273  0.49649187  0.49581846  1
  Cr  Cr40  1  0.33163891  0.33108525  0.66343722  1
  Cr  Cr41  1  0.49745654  0.49887250  0.82988363  1
  Cr  Cr42  1  0.49507437  0.82826925  0.49753175  1
  Ni  Ni43  1  0.32653259  0.66446070  0.66163373  1
  Cr  Cr44  1  0.49558415  0.83067188  0.83148892  1
  Ni  Ni45  1  0.83181087  0.16492561  0.49859486  1
  Cr  Cr46  1  0.66422572  -0.00009722  0.66367885  1
  Cr  Cr47  1  0.83121039  0.16467733  0.82940882  1
  Ni  Ni48  1  0.82935510  0.49603300  0.49815941  1
  Ni  Ni49  1  0.66538533  0.32961995  0.66222237  1
  Cr  Cr50  1  0.83125947  0.49566846  0.82979140  1
  Ni  Ni51  1  0.83417382  0.82989719  0.49684469  1
  Cr  Cr52  1  0.66487323  0.66231681  0.66146415  1
  Cr  Cr53  1  0.82986932  0.83050647  0.83137966  1
" 