1571,Ni51Fe18Cr30_8,-227.470427733244, 173.219541938528,Ni51Fe18Cr30,"# generated using pymatgen
 data_Cr2FeNi3
_symmetry_space_group_name_H-M   'P 1'
_cell_length_a   7.47264752
_cell_length_b   7.47264752
_cell_length_c   10.56791947
_cell_angle_alpha   90.00000000
_cell_angle_beta   90.00000000
_cell_angle_gamma   90.00000000
_symmetry_Int_Tables_number   1
_chemical_formula_structural   Cr2FeNi3
_chemical_formula_sum   'Cr18 Fe9 Ni27'
_cell_volume   590.11749508
_cell_formula_units_Z   9
loop_
 _symmetry_equiv_pos_site_id
 _symmetry_equiv_pos_as_xyz
  1  'x, y, z'
loop_
 _atom_site_type_symbol
 _atom_site_label
 _atom_site_symmetry_multiplicity
 _atom_site_fract_x
 _atom_site_fract_y
 _atom_site_fract_z
 _atom_site_occupancy
  Cr  Cr0  1  0.00021467  0.99748356  0.00056272  1
  Ni  Ni1  1  0.16904284  0.16457708  0.16695433  1
  Ni  Ni2  1  0.99940089  0.99804421  0.33257042  1
  Cr  Cr3  1  0.00134832  0.33194827  0.00064517  1
  Fe  Fe4  1  0.16842194  0.49902194  0.16740899  1
  Cr  Cr5  1  0.99931550  0.32948271  0.33334796  1
  Fe  Fe6  1  -0.00012484  0.66539026  0.99926375  1
  Ni  Ni7  1  0.16513858  0.83357154  0.16794949  1
  Ni  Ni8  1  0.99885122  0.67005424  0.33007776  1
  Fe  Fe9  1  0.33571476  0.00226531  0.00018505  1
  Ni  Ni10  1  0.49856725  0.16769867  0.16487596  1
  Ni  Ni11  1  0.33331191  0.00100173  0.33179097  1
  Ni  Ni12  1  0.33587029  0.33268339  -0.00035936  1
  Ni  Ni13  1  0.49707622  0.49711384  0.16592600  1
  Ni  Ni14  1  0.33465661  0.32986119  0.33054006  1
  Cr  Cr15  1  0.33304282  0.66721071  0.00075373  1
  Cr  Cr16  1  0.50053322  0.83499900  0.16856225  1
  Fe  Fe17  1  0.33173672  0.66666232  0.33156775  1
  Fe  Fe18  1  0.66361874  0.00135010  0.99928140  1
  Ni  Ni19  1  0.83106057  0.16311131  0.16637790  1
  Fe  Fe20  1  0.66717611  0.00095726  0.33422811  1
  Ni  Ni21  1  0.66281721  0.33242694  0.00010035  1
  Cr  Cr22  1  0.83067685  0.50078021  0.16537937  1
  Cr  Cr23  1  0.66435472  0.33017678  0.33283721  1
  Cr  Cr24  1  0.66521384  0.66754752  0.99601556  1
  Ni  Ni25  1  0.83504687  0.83502545  0.16632876  1
  Cr  Cr26  1  0.66582960  0.66842148  0.33637155  1
  Cr  Cr27  1  0.16907205  0.16375670  0.50246593  1
  Ni  Ni28  1  0.99645410  0.99794024  0.66493179  1
  Cr  Cr29  1  0.17048811  0.16640952  0.82954597  1
  Cr  Cr30  1  0.16718984  0.50098095  0.49703685  1
  Cr  Cr31  1  0.99650844  0.33231954  0.66496404  1
  Ni  Ni32  1  0.16811743  0.49983374  0.83385508  1
  Cr  Cr33  1  0.16795140  0.83383873  0.49918198  1
  Cr  Cr34  1  0.99861578  0.66680308  0.66828035  1
  Cr  Cr35  1  0.16747042  0.83401880  0.83205413  1
  Ni  Ni36  1  0.50021863  0.16398922  0.50008282  1
  Ni  Ni37  1  0.33819339  0.99752014  0.66734062  1
  Ni  Ni38  1  0.50004198  0.16639811  0.83351621  1
  Cr  Cr39  1  0.49895180  0.49943529  0.50154749  1
  Fe  Fe40  1  0.33651406  0.33221806  0.66758851  1
  Fe  Fe41  1  0.49989172  0.49770656  0.83191438  1
  Ni  Ni42  1  0.50010369  0.83614888  0.50048080  1
  Ni  Ni43  1  0.33718641  0.66740624  0.66731607  1
  Ni  Ni44  1  0.50114964  0.83530954  0.83058666  1
  Ni  Ni45  1  0.82995335  0.16367536  0.50038279  1
  Ni  Ni46  1  0.66413275  -0.00031039  0.66530802  1
  Cr  Cr47  1  0.82851768  0.16587072  0.83256876  1
  Ni  Ni48  1  0.83203044  0.50098627  0.50104506  1
  Ni  Ni49  1  0.66422452  0.33254430  0.66678844  1
  Ni  Ni50  1  0.83126526  0.50026344  0.83271318  1
  Ni  Ni51  1  0.83188247  0.83473850  0.49960776  1
  Fe  Fe52  1  0.66586062  0.66902323  0.66667644  1
  Ni  Ni53  1  0.82986711  0.83207476  0.83244316  1
" 