5545,Ni51Fe4Cr44_11,-220.997729382708, 135.580113080663,Ni51Fe4Cr44,"# generated using pymatgen
 data_Cr25Fe2Ni27
_symmetry_space_group_name_H-M   'P 1'
_cell_length_a   7.51473150
_cell_length_b   7.51473150
_cell_length_c   10.62743520
_cell_angle_alpha   90.00000000
_cell_angle_beta   90.00000000
_cell_angle_gamma   90.00000000
_symmetry_Int_Tables_number   1
_chemical_formula_structural   Cr25Fe2Ni27
_chemical_formula_sum   'Cr25 Fe2 Ni27'
_cell_volume   600.14390737
_cell_formula_units_Z   1
loop_
 _symmetry_equiv_pos_site_id
 _symmetry_equiv_pos_as_xyz
  1  'x, y, z'
loop_
 _atom_site_type_symbol
 _atom_site_label
 _atom_site_symmetry_multiplicity
 _atom_site_fract_x
 _atom_site_fract_y
 _atom_site_fract_z
 _atom_site_occupancy
  Cr  Cr0  1  -0.00026906  0.00121127  0.99403008  1
  Ni  Ni1  1  0.16327914  0.16651355  0.16258283  1
  Cr  Cr2  1  -0.00188064  0.00300757  0.33043733  1
  Ni  Ni3  1  -0.00162142  0.32863509  -0.00218950  1
  Ni  Ni4  1  0.16001661  0.49271545  0.16372043  1
  Ni  Ni5  1  -0.00161843  0.33028717  0.32961290  1
  Cr  Cr6  1  0.00071796  0.66067450  0.99616453  1
  Cr  Cr7  1  0.16421156  0.83233130  0.16407581  1
  Ni  Ni8  1  -0.00130394  0.65880924  0.32957333  1
  Ni  Ni9  1  0.32891957  -0.00235210  0.99640282  1
  Cr  Cr10  1  0.49269861  0.16342108  0.16153036  1
  Ni  Ni11  1  0.32934642  -0.00287019  0.32989867  1
  Ni  Ni12  1  0.32629814  0.33004858  0.99421316  1
  Cr  Cr13  1  0.49582222  0.49282507  0.16094998  1
  Cr  Cr14  1  0.32444757  0.32940409  0.33296573  1
  Cr  Cr15  1  0.32981626  0.66479603  0.99478675  1
  Ni  Ni16  1  0.49424984  0.83298056  0.16375309  1
  Cr  Cr17  1  0.32971579  0.66432013  0.32996058  1
  Cr  Cr18  1  0.66373113  0.99679389  0.99630730  1
  Ni  Ni19  1  0.83259948  0.16815990  0.16215531  1
  Cr  Cr20  1  0.66227267  -0.00288631  0.33130245  1
  Ni  Ni21  1  0.66561168  0.32984698  0.99663179  1
  Ni  Ni22  1  0.83432257  0.49265600  0.16344623  1
  Cr  Cr23  1  0.66823888  0.32825860  0.33011232  1
  Cr  Cr24  1  0.66054677  0.66300939  -0.00290373  1
  Cr  Cr25  1  0.83259323  0.82819932  0.16451645  1
  Cr  Cr26  1  0.66153592  0.66374420  0.32856327  1
  Ni  Ni27  1  0.16301861  0.16337064  0.49757460  1
  Ni  Ni28  1  0.00008132  -0.00110982  0.66467313  1
  Ni  Ni29  1  0.16431444  0.16322873  0.83037794  1
  Ni  Ni30  1  0.16212108  0.49619196  0.49804575  1
  Cr  Cr31  1  -0.00126978  0.32735157  0.66308911  1
  Ni  Ni32  1  0.16566420  0.49585051  0.82895083  1
  Cr  Cr33  1  0.16333455  0.82974571  0.49735499  1
  Ni  Ni34  1  0.00106503  0.66337862  0.66447418  1
  Ni  Ni35  1  0.16643860  0.83152063  0.82750863  1
  Cr  Cr36  1  0.49326330  0.16123839  0.49850967  1
  Ni  Ni37  1  0.32794996  0.99516204  0.66396522  1
  Cr  Cr38  1  0.49433755  0.16494508  0.83123542  1
  Cr  Cr39  1  0.49424371  0.49731929  0.50058495  1
  Fe  Fe40  1  0.32680634  0.33104203  0.66503441  1
  Ni  Ni41  1  0.49406231  0.49702321  0.82935852  1
  Ni  Ni42  1  0.49521307  0.83165913  0.49925556  1
  Ni  Ni43  1  0.33013428  0.66504146  0.66503233  1
  Ni  Ni44  1  0.49377504  0.83066250  0.82752616  1
  Ni  Ni45  1  0.83295611  0.16239229  0.49805459  1
  Fe  Fe46  1  0.66306022  0.99564302  0.66396901  1
  Ni  Ni47  1  0.83173406  0.16403492  0.83025678  1
  Cr  Cr48  1  0.83322029  0.49878673  0.49548470  1
  Cr  Cr49  1  0.66425979  0.32917118  0.66384456  1
  Cr  Cr50  1  0.83037156  0.49635198  0.83147089  1
  Cr  Cr51  1  0.83183577  0.82917245  0.50059319  1
  Ni  Ni52  1  0.65926271  0.66477236  0.66456474  1
  Cr  Cr53  1  0.83312183  0.83018757  0.82528436  1
" 