4641,Ni51Fe4Cr44_14,-221.22972238071, 148.121147506616,Ni51Fe4Cr44,"# generated using pymatgen
 data_Cr25Fe2Ni27
_symmetry_space_group_name_H-M   'P 1'
_cell_length_a   7.50601289
_cell_length_b   7.50601289
_cell_length_c   10.61510523
_cell_angle_alpha   90.00000000
_cell_angle_beta   90.00000000
_cell_angle_gamma   90.00000000
_symmetry_Int_Tables_number   1
_chemical_formula_structural   Cr25Fe2Ni27
_chemical_formula_sum   'Cr25 Fe2 Ni27'
_cell_volume   598.05746543
_cell_formula_units_Z   1
loop_
 _symmetry_equiv_pos_site_id
 _symmetry_equiv_pos_as_xyz
  1  'x, y, z'
loop_
 _atom_site_type_symbol
 _atom_site_label
 _atom_site_symmetry_multiplicity
 _atom_site_fract_x
 _atom_site_fract_y
 _atom_site_fract_z
 _atom_site_occupancy
  Cr  Cr0  1  0.99392971  -0.00235535  0.99683837  1
  Cr  Cr1  1  0.16236510  0.16492667  0.16488652  1
  Ni  Ni2  1  0.99575091  -0.00188418  0.33166304  1
  Ni  Ni3  1  0.99495655  0.33235563  -0.00208922  1
  Cr  Cr4  1  0.16202260  0.49667128  0.16063815  1
  Ni  Ni5  1  0.99515471  0.32958514  0.32999103  1
  Ni  Ni6  1  0.99192788  0.66342300  0.99558026  1
  Cr  Cr7  1  0.16058641  0.83076183  0.16284297  1
  Cr  Cr8  1  0.99592106  0.66392363  0.33227440  1
  Cr  Cr9  1  0.33218493  -0.00218243  0.99471342  1
  Cr  Cr10  1  0.49757049  0.16596275  0.16342185  1
  Cr  Cr11  1  0.32820992  0.99571095  0.33302601  1
  Ni  Ni12  1  0.33152042  0.33106035  0.99712234  1
  Ni  Ni13  1  0.50183379  0.49658940  0.16483448  1
  Cr  Cr14  1  0.33023265  0.33302903  0.33290705  1
  Cr  Cr15  1  0.33240256  0.66446212  0.99689980  1
  Cr  Cr16  1  0.50077570  0.82780402  0.16431546  1
  Cr  Cr17  1  0.33281100  0.66341504  0.33392919  1
  Cr  Cr18  1  0.66602034  0.99645495  0.99479624  1
  Fe  Fe19  1  0.83168620  0.16588209  0.16522276  1
  Cr  Cr20  1  0.66684949  0.99555023  0.32959059  1
  Cr  Cr21  1  0.66698021  0.33133707  0.99699824  1
  Ni  Ni22  1  0.82952855  0.49846061  0.16395681  1
  Ni  Ni23  1  0.66615804  0.33417854  0.32910627  1
  Ni  Ni24  1  0.66823231  0.66373571  -0.00173814  1
  Ni  Ni25  1  0.83100881  0.82769726  0.16463685  1
  Ni  Ni26  1  0.66490563  0.66209687  0.33061494  1
  Fe  Fe27  1  0.16217830  0.16369849  0.49795385  1
  Ni  Ni28  1  0.99515345  0.99454137  0.66379169  1
  Cr  Cr29  1  0.16456840  0.16531046  0.83056370  1
  Ni  Ni30  1  0.16361327  0.49702963  0.49850240  1
  Cr  Cr31  1  0.99611398  0.33197115  0.66452631  1
  Cr  Cr32  1  0.16130081  0.49896595  0.83244302  1
  Ni  Ni33  1  0.16041182  0.83124609  0.49831467  1
  Ni  Ni34  1  0.99737281  0.66724426  0.66475907  1
  Ni  Ni35  1  0.16048387  0.83029882  0.83030033  1
  Cr  Cr36  1  0.50032366  0.16505625  0.50006349  1
  Cr  Cr37  1  0.33088887  0.99583543  0.66457123  1
  Ni  Ni38  1  0.49941565  0.16422643  0.82873385  1
  Ni  Ni39  1  0.49803637  0.49655048  0.49652488  1
  Ni  Ni40  1  0.33212292  0.33088067  0.66235045  1
  Cr  Cr41  1  0.49864418  0.49595495  0.83042521  1
  Ni  Ni42  1  0.49979174  0.82998562  0.49699690  1
  Cr  Cr43  1  0.32876962  0.66382510  0.66090070  1
  Ni  Ni44  1  0.50001712  0.83240698  0.83078154  1
  Cr  Cr45  1  0.83040695  0.16254678  0.49705092  1
  Ni  Ni46  1  0.66616636  0.99711584  0.66654497  1
  Ni  Ni47  1  0.82935929  0.16382918  0.82933259  1
  Cr  Cr48  1  0.82923020  0.49799622  0.49786935  1
  Ni  Ni49  1  0.66310839  0.32917818  0.66613352  1
  Ni  Ni50  1  0.83151224  0.49866279  0.83178525  1
  Ni  Ni51  1  0.83193208  0.83193478  0.49808118  1
  Cr  Cr52  1  0.66566255  0.66502816  0.66393122  1
  Ni  Ni53  1  0.83172647  0.82986510  0.82962539  1
" 