5573,Ni51Cr49_19,-218.988869065906, 134.012747501727,Ni51Cr49,"# generated using pymatgen
 data_CrNi
_symmetry_space_group_name_H-M   'P 1'
_cell_length_a   7.52345962
_cell_length_b   7.52345962
_cell_length_c   10.63977864
_cell_angle_alpha   90.00000000
_cell_angle_beta   90.00000000
_cell_angle_gamma   90.00000000
_symmetry_Int_Tables_number   1
_chemical_formula_structural   CrNi
_chemical_formula_sum   'Cr27 Ni27'
_cell_volume   602.23748182
_cell_formula_units_Z   27
loop_
 _symmetry_equiv_pos_site_id
 _symmetry_equiv_pos_as_xyz
  1  'x, y, z'
loop_
 _atom_site_type_symbol
 _atom_site_label
 _atom_site_symmetry_multiplicity
 _atom_site_fract_x
 _atom_site_fract_y
 _atom_site_fract_z
 _atom_site_occupancy
  Cr  Cr0  1  0.99587735  0.99591909  -0.00295166  1
  Cr  Cr1  1  0.16382626  0.16391966  0.16177695  1
  Cr  Cr2  1  0.99554825  -0.00241329  0.32803612  1
  Cr  Cr3  1  0.99419948  0.33062217  0.99589462  1
  Cr  Cr4  1  0.16471010  0.49677767  0.16363917  1
  Cr  Cr5  1  0.99538091  0.32876092  0.33021342  1
  Cr  Cr6  1  -0.00336923  0.66237908  0.99441857  1
  Ni  Ni7  1  0.16521458  0.82905116  0.16251079  1
  Cr  Cr8  1  0.99543655  0.66232264  0.32870304  1
  Ni  Ni9  1  0.33030897  0.99515520  -0.00284616  1
  Cr  Cr10  1  0.49682935  0.16453247  0.15900620  1
  Cr  Cr11  1  0.33030919  -0.00257558  0.33027188  1
  Ni  Ni12  1  0.33262195  0.33092262  0.99487893  1
  Ni  Ni13  1  0.49746434  0.49756489  0.16181959  1
  Cr  Cr14  1  0.33126384  0.33067527  0.33345153  1
  Cr  Cr15  1  0.32925728  0.66210717  0.99489491  1
  Ni  Ni16  1  0.49572677  0.82831161  0.16192595  1
  Ni  Ni17  1  0.33098206  0.66168095  0.32838795  1
  Ni  Ni18  1  0.66331457  -0.00188916  -0.00137355  1
  Ni  Ni19  1  0.82677736  0.16347676  0.16002798  1
  Cr  Cr20  1  0.66307111  -0.00288955  0.32852927  1
  Ni  Ni21  1  0.66299198  0.32967851  0.99592235  1
  Ni  Ni22  1  0.82622327  0.49567033  0.16184161  1
  Cr  Cr23  1  0.66210732  0.32978265  0.32970284  1
  Cr  Cr24  1  0.66290509  0.66092011  0.99573171  1
  Ni  Ni25  1  0.82801648  0.82960023  0.16234529  1
  Cr  Cr26  1  0.66164261  0.66167978  0.33016531  1
  Ni  Ni27  1  0.16404392  0.16544234  0.50054705  1
  Ni  Ni28  1  -0.00173968  -0.00103753  0.66288867  1
  Cr  Cr29  1  0.16379709  0.16364225  0.82808115  1
  Ni  Ni30  1  0.16336086  0.49377909  0.49742495  1
  Ni  Ni31  1  -0.00332941  0.32958567  0.66290179  1
  Ni  Ni32  1  0.16385642  0.49375379  0.82824764  1
  Cr  Cr33  1  0.16194558  0.82900083  0.49721862  1
  Cr  Cr34  1  -0.00351332  0.66064738  0.66535459  1
  Ni  Ni35  1  0.16392973  0.83130725  0.82886682  1
  Ni  Ni36  1  0.49374070  0.16660049  0.50012954  1
  Ni  Ni37  1  0.32647032  -0.00039680  0.66205763  1
  Cr  Cr38  1  0.49750156  0.16409254  0.83064288  1
  Ni  Ni39  1  0.49534841  0.49341877  0.49731367  1
  Ni  Ni40  1  0.32974127  0.32958923  0.66126032  1
  Ni  Ni41  1  0.49659166  0.49115585  0.82962930  1
  Cr  Cr42  1  0.49617768  0.82899489  0.49648626  1
  Cr  Cr43  1  0.32978693  0.65958954  0.66522317  1
  Cr  Cr44  1  0.49479360  0.83184405  0.83042278  1
  Cr  Cr45  1  0.83089541  0.16394346  0.49884222  1
  Cr  Cr46  1  0.66247141  -0.00064694  0.66119534  1
  Ni  Ni47  1  0.82866950  0.16651645  0.82917684  1
  Ni  Ni48  1  0.83007279  0.49562475  0.49840893  1
  Ni  Ni49  1  0.66232391  0.33091262  0.66324254  1
  Ni  Ni50  1  0.82848942  0.49041697  0.82827004  1
  Ni  Ni51  1  0.83142730  0.82808059  0.49714218  1
  Cr  Cr52  1  0.66233976  0.65798754  0.66221154  1
  Cr  Cr53  1  0.82971938  0.83196158  0.82743896  1
" 