1580,Ni51Fe18Cr30_11,-227.619232372928, 172.342354559857,Ni51Fe18Cr30,"# generated using pymatgen
 data_Cr2FeNi3
_symmetry_space_group_name_H-M   'P 1'
_cell_length_a   7.47020453
_cell_length_b   7.47020453
_cell_length_c   10.56446456
_cell_angle_alpha   90.00000000
_cell_angle_beta   90.00000000
_cell_angle_gamma   90.00000000
_symmetry_Int_Tables_number   1
_chemical_formula_structural   Cr2FeNi3
_chemical_formula_sum   'Cr18 Fe9 Ni27'
_cell_volume   589.53891208
_cell_formula_units_Z   9
loop_
 _symmetry_equiv_pos_site_id
 _symmetry_equiv_pos_as_xyz
  1  'x, y, z'
loop_
 _atom_site_type_symbol
 _atom_site_label
 _atom_site_symmetry_multiplicity
 _atom_site_fract_x
 _atom_site_fract_y
 _atom_site_fract_z
 _atom_site_occupancy
  Ni  Ni0  1  0.00241263  0.00122405  0.00331781  1
  Ni  Ni1  1  0.16727016  0.16566753  0.16502307  1
  Fe  Fe2  1  0.00214205  0.00167693  0.33099028  1
  Ni  Ni3  1  0.00203802  0.33069821  0.99798750  1
  Ni  Ni4  1  0.16831168  0.49800073  0.16420367  1
  Cr  Cr5  1  0.00121464  0.33146842  0.33524615  1
  Cr  Cr6  1  0.00280380  0.66820793  -0.00020007  1
  Ni  Ni7  1  0.16925477  0.83601068  0.16584232  1
  Cr  Cr8  1  0.99967290  0.66793357  0.33283704  1
  Ni  Ni9  1  0.33232515  0.99831953  0.99946682  1
  Ni  Ni10  1  0.49828594  0.16401042  0.16739621  1
  Ni  Ni11  1  0.33339960  0.00248331  0.33163155  1
  Ni  Ni12  1  0.33030425  0.33131690  0.00294486  1
  Fe  Fe13  1  0.49649127  0.49862893  0.16628221  1
  Ni  Ni14  1  0.33292349  0.32874243  0.33035439  1
  Ni  Ni15  1  0.33392120  0.66944852  0.00085813  1
  Ni  Ni16  1  0.49970949  0.83445905  0.16518627  1
  Cr  Cr17  1  0.33218965  0.66700670  0.33067433  1
  Fe  Fe18  1  0.66450779  0.99832956  0.00257736  1
  Ni  Ni19  1  0.83345214  0.16457912  0.16668157  1
  Fe  Fe20  1  0.66571033  0.00059701  0.33021843  1
  Cr  Cr21  1  0.66556015  0.33149188  0.00126773  1
  Cr  Cr22  1  0.83375339  0.49911516  0.16497129  1
  Fe  Fe23  1  0.66599107  0.33191606  0.33170186  1
  Fe  Fe24  1  0.66397072  0.66941674  0.00067106  1
  Fe  Fe25  1  0.83335668  0.83724933  0.16650895  1
  Ni  Ni26  1  0.66647435  0.66787360  0.33053385  1
  Ni  Ni27  1  0.16461788  0.16653456  0.49963672  1
  Ni  Ni28  1  0.00146285  0.00303890  0.66523614  1
  Ni  Ni29  1  0.16496872  0.16535011  0.83494210  1
  Ni  Ni30  1  0.16559270  0.49675641  0.50089753  1
  Ni  Ni31  1  0.00026941  0.33015110  0.66632214  1
  Ni  Ni32  1  0.16553428  0.49878430  0.83458126  1
  Cr  Cr33  1  0.16830989  0.83583813  0.50025075  1
  Cr  Cr34  1  0.00149004  0.66400904  0.66625372  1
  Ni  Ni35  1  0.16925684  0.83510434  0.83320458  1
  Cr  Cr36  1  0.49842196  0.16397823  0.49854401  1
  Fe  Fe37  1  0.32918037  0.99909434  0.66860622  1
  Cr  Cr38  1  0.49651892  0.16211152  0.83377773  1
  Cr  Cr39  1  0.49918906  0.50118084  0.49633719  1
  Cr  Cr40  1  0.32872447  0.33305725  0.66661437  1
  Cr  Cr41  1  0.49818725  0.50254192  0.83580023  1
  Cr  Cr42  1  0.49923510  0.83366430  0.50299727  1
  Ni  Ni43  1  0.33369500  0.66864590  0.66841884  1
  Ni  Ni44  1  0.49735231  0.83275066  0.83212134  1
  Ni  Ni45  1  0.83501031  0.16644313  0.49929284  1
  Fe  Fe46  1  0.66825607  0.99895110  0.66708276  1
  Cr  Cr47  1  0.83749223  0.16650793  0.83398101  1
  Ni  Ni48  1  0.83277131  0.49855897  0.50074837  1
  Cr  Cr49  1  0.67034425  0.33365503  0.66462722  1
  Ni  Ni50  1  0.83545378  0.49982320  0.83219715  1
  Cr  Cr51  1  0.83173740  0.83443510  0.49773726  1
  Ni  Ni52  1  0.66571422  0.66759389  0.66808884  1
  Cr  Cr53  1  0.83235582  0.83415722  0.83511756  1
" 