3691,Ni51Fe4Cr44_7,-220.614036215347, 134.489456681333,Ni51Fe4Cr44,"# generated using pymatgen
 data_Cr25Fe2Ni27
_symmetry_space_group_name_H-M   'P 1'
_cell_length_a   7.51430320
_cell_length_b   7.51430320
_cell_length_c   10.62682950
_cell_angle_alpha   90.00000000
_cell_angle_beta   90.00000000
_cell_angle_gamma   90.00000000
_symmetry_Int_Tables_number   1
_chemical_formula_structural   Cr25Fe2Ni27
_chemical_formula_sum   'Cr25 Fe2 Ni27'
_cell_volume   600.04129791
_cell_formula_units_Z   1
loop_
 _symmetry_equiv_pos_site_id
 _symmetry_equiv_pos_as_xyz
  1  'x, y, z'
loop_
 _atom_site_type_symbol
 _atom_site_label
 _atom_site_symmetry_multiplicity
 _atom_site_fract_x
 _atom_site_fract_y
 _atom_site_fract_z
 _atom_site_occupancy
  Cr  Cr0  1  0.99663602  0.99629098  0.99528973  1
  Cr  Cr1  1  0.16329672  0.16365515  0.16577078  1
  Ni  Ni2  1  -0.00266184  0.99230131  0.33085014  1
  Ni  Ni3  1  0.99576775  0.33391194  0.99594710  1
  Ni  Ni4  1  0.15950795  0.49838824  0.16145330  1
  Cr  Cr5  1  0.99566119  0.33370281  0.33114901  1
  Ni  Ni6  1  0.99536717  0.66023617  -0.00076869  1
  Fe  Fe7  1  0.16228357  0.83099161  0.16488195  1
  Cr  Cr8  1  0.99545032  0.66314137  0.33085437  1
  Cr  Cr9  1  0.33402293  -0.00268879  0.99469409  1
  Ni  Ni10  1  0.49803629  0.15834867  0.16406530  1
  Ni  Ni11  1  0.33251249  0.99490417  0.33075870  1
  Cr  Cr12  1  0.32997124  0.32806543  0.99645644  1
  Cr  Cr13  1  0.49764163  0.49608240  0.16230849  1
  Cr  Cr14  1  0.33220897  0.32952250  0.33148472  1
  Cr  Cr15  1  0.32798788  0.66569135  -0.00020905  1
  Ni  Ni16  1  0.49905127  0.83448866  0.16461791  1
  Cr  Cr17  1  0.33083415  0.66458437  0.32915155  1
  Ni  Ni18  1  0.66127240  -0.00182412  -0.00101742  1
  Cr  Cr19  1  0.82928115  0.16276082  0.16400469  1
  Fe  Fe20  1  0.66150810  0.99460030  0.33011982  1
  Ni  Ni21  1  0.66510973  0.32835147  -0.00288978  1
  Ni  Ni22  1  0.83231705  0.49870379  0.15966455  1
  Cr  Cr23  1  0.66242296  0.33061458  0.33114958  1
  Cr  Cr24  1  0.66395612  0.66622185  -0.00295652  1
  Ni  Ni25  1  0.82943328  0.83012493  0.16400456  1
  Cr  Cr26  1  0.66399530  0.66370707  0.33266390  1
  Cr  Cr27  1  0.16553218  0.16174209  0.49688282  1
  Cr  Cr28  1  -0.00023636  0.99586039  0.66266215  1
  Ni  Ni29  1  0.16701349  0.16671343  0.82827171  1
  Ni  Ni30  1  0.16570966  0.49819282  0.49803401  1
  Cr  Cr31  1  -0.00308499  0.33171276  0.66421224  1
  Ni  Ni32  1  0.16173041  0.49440883  0.83177777  1
  Ni  Ni33  1  0.16536551  0.83092244  0.49428583  1
  Cr  Cr34  1  0.99434171  0.66271493  0.66101732  1
  Cr  Cr35  1  0.16523418  0.82841917  0.82964226  1
  Ni  Ni36  1  0.49556883  0.16217833  0.49736268  1
  Ni  Ni37  1  0.33329058  -0.00090865  0.66365620  1
  Ni  Ni38  1  0.49686149  0.16379653  0.82943724  1
  Ni  Ni39  1  0.49721736  0.49645191  0.49993866  1
  Ni  Ni40  1  0.33271035  0.32833094  0.66306091  1
  Cr  Cr41  1  0.49866196  0.49790358  0.82769546  1
  Ni  Ni42  1  0.49658034  0.83130614  0.49733593  1
  Cr  Cr43  1  0.33147970  0.66521950  0.66149082  1
  Ni  Ni44  1  0.49786716  0.83316993  0.82914249  1
  Cr  Cr45  1  0.82842133  0.16134387  0.49458837  1
  Cr  Cr46  1  0.66105823  0.99584439  0.66323776  1
  Cr  Cr47  1  0.82847985  0.16601915  0.83229520  1
  Ni  Ni48  1  0.82711918  0.49845739  0.49984786  1
  Ni  Ni49  1  0.66080483  0.33185135  0.66234694  1
  Ni  Ni50  1  0.83056367  0.49614615  0.83154523  1
  Ni  Ni51  1  0.82884198  0.82889333  0.49563329  1
  Ni  Ni52  1  0.66303218  0.66213349  0.66100330  1
  Cr  Cr53  1  0.82716710  0.82650047  0.83030005  1
" 