4645,Ni51Cr49_5,-219.03700631095, 131.448490015834,Ni51Cr49,"# generated using pymatgen
 data_CrNi
_symmetry_space_group_name_H-M   'P 1'
_cell_length_a   7.52382446
_cell_length_b   7.52382446
_cell_length_c   10.64029460
_cell_angle_alpha   90.00000000
_cell_angle_beta   90.00000000
_cell_angle_gamma   90.00000000
_symmetry_Int_Tables_number   1
_chemical_formula_structural   CrNi
_chemical_formula_sum   'Cr27 Ni27'
_cell_volume   602.32510021
_cell_formula_units_Z   27
loop_
 _symmetry_equiv_pos_site_id
 _symmetry_equiv_pos_as_xyz
  1  'x, y, z'
loop_
 _atom_site_type_symbol
 _atom_site_label
 _atom_site_symmetry_multiplicity
 _atom_site_fract_x
 _atom_site_fract_y
 _atom_site_fract_z
 _atom_site_occupancy
  Ni  Ni0  1  0.99566918  -0.00208495  0.99591082  1
  Ni  Ni1  1  0.16245640  0.16460388  0.16092067  1
  Cr  Cr2  1  0.99459351  -0.00243254  0.32917858  1
  Ni  Ni3  1  -0.00197372  0.32777582  0.99610071  1
  Ni  Ni4  1  0.16232950  0.49173019  0.16355757  1
  Cr  Cr5  1  -0.00212300  0.32917515  0.33078289  1
  Cr  Cr6  1  0.99545265  0.66417894  0.99559363  1
  Cr  Cr7  1  0.16168004  0.83254586  0.16254299  1
  Ni  Ni8  1  -0.00186974  0.66208831  0.32835450  1
  Ni  Ni9  1  0.32783542  0.99520959  -0.00313643  1
  Cr  Cr10  1  0.49147916  0.16137573  0.16362371  1
  Ni  Ni11  1  0.33018918  -0.00110082  0.32812719  1
  Ni  Ni12  1  0.32504858  0.33085912  -0.00312228  1
  Cr  Cr13  1  0.49460708  0.49499518  0.16115055  1
  Ni  Ni14  1  0.32469698  0.32746010  0.32961093  1
  Cr  Cr15  1  0.33277745  0.66390130  0.99354987  1
  Ni  Ni16  1  0.49773650  0.83264667  0.16281881  1
  Cr  Cr17  1  0.32702464  0.66196730  0.32872670  1
  Cr  Cr18  1  0.66437959  0.99247427  -0.00293625  1
  Ni  Ni19  1  0.83302366  0.15978710  0.16175281  1
  Ni  Ni20  1  0.66302070  -0.00375790  0.32781481  1
  Cr  Cr21  1  0.66521652  0.33128572  0.99381766  1
  Cr  Cr22  1  0.83325620  0.49809946  0.16155362  1
  Cr  Cr23  1  0.66376602  0.32471737  0.32980154  1
  Ni  Ni24  1  0.66291133  0.66573338  0.99403145  1
  Ni  Ni25  1  0.82834559  0.83184936  0.16313434  1
  Cr  Cr26  1  0.66324888  0.66654060  0.32441006  1
  Ni  Ni27  1  0.16327256  0.16447117  0.49326129  1
  Cr  Cr28  1  0.99405387  -0.00166283  0.66471909  1
  Cr  Cr29  1  0.16206018  0.16199552  0.83533950  1
  Ni  Ni30  1  0.16382097  0.49534261  0.49454354  1
  Cr  Cr31  1  -0.00359549  0.32828565  0.66209680  1
  Ni  Ni32  1  0.16319229  0.49686825  0.83057773  1
  Cr  Cr33  1  0.16292789  0.82881663  0.49642219  1
  Cr  Cr34  1  -0.00033292  0.66212870  0.66468774  1
  Ni  Ni35  1  0.16331767  0.82841507  0.83049869  1
  Cr  Cr36  1  0.49554928  0.16045717  0.49459818  1
  Cr  Cr37  1  0.32883036  0.99262155  0.66435109  1
  Cr  Cr38  1  0.49505127  0.16223201  0.83072204  1
  Cr  Cr39  1  0.49597870  0.49726545  0.49733262  1
  Cr  Cr40  1  0.32693543  0.33342789  0.66208577  1
  Ni  Ni41  1  0.49642771  0.50044326  0.82934175  1
  Cr  Cr42  1  0.49752622  0.83036628  0.49707637  1
  Ni  Ni43  1  0.33099025  0.66185921  0.66607269  1
  Ni  Ni44  1  0.49753827  0.82690742  0.82836730  1
  Ni  Ni45  1  0.82941618  0.16008369  0.49667266  1
  Ni  Ni46  1  0.66511130  0.99360825  0.66429756  1
  Ni  Ni47  1  0.83085352  0.16161100  0.83057153  1
  Cr  Cr48  1  0.83066120  0.49948696  0.49584837  1
  Cr  Cr49  1  0.66557035  0.32822710  0.66489142  1
  Ni  Ni50  1  0.82915258  0.49804110  0.83053813  1
  Cr  Cr51  1  0.82809858  0.82901991  0.49547836  1
  Ni  Ni52  1  0.66100906  0.66519330  0.66849550  1
  Ni  Ni53  1  0.82805494  0.82911404  0.82969119  1
" 