8977,Ni51Fe18Cr30_1,-227.764339261669, 177.499672128867,Ni51Fe18Cr30,"# generated using pymatgen
 data_Cr2FeNi3
_symmetry_space_group_name_H-M   'P 1'
_cell_length_a   7.47341167
_cell_length_b   7.47341167
_cell_length_c   10.56900013
_cell_angle_alpha   90.00000000
_cell_angle_beta   90.00000000
_cell_angle_gamma   90.00000000
_symmetry_Int_Tables_number   1
_chemical_formula_structural   Cr2FeNi3
_chemical_formula_sum   'Cr18 Fe9 Ni27'
_cell_volume   590.29854745
_cell_formula_units_Z   9
loop_
 _symmetry_equiv_pos_site_id
 _symmetry_equiv_pos_as_xyz
  1  'x, y, z'
loop_
 _atom_site_type_symbol
 _atom_site_label
 _atom_site_symmetry_multiplicity
 _atom_site_fract_x
 _atom_site_fract_y
 _atom_site_fract_z
 _atom_site_occupancy
  Cr  Cr0  1  0.99643197  0.99949692  0.99896175  1
  Cr  Cr1  1  0.16691589  0.16707854  0.16673353  1
  Ni  Ni2  1  0.00012580  0.99783936  0.33434778  1
  Ni  Ni3  1  0.99641320  0.33381583  0.99939571  1
  Ni  Ni4  1  0.16524257  0.50097303  0.16688879  1
  Cr  Cr5  1  -0.00024489  0.33340739  0.33297832  1
  Cr  Cr6  1  0.00136194  0.66385442  0.99928028  1
  Ni  Ni7  1  0.16676853  0.83163020  0.16675407  1
  Fe  Fe8  1  0.00105688  0.66686945  0.33409317  1
  Fe  Fe9  1  0.33364487  -0.00037953  0.99875053  1
  Fe  Fe10  1  0.50081457  0.16799462  0.16532467  1
  Cr  Cr11  1  0.33178447  0.99841262  0.33393175  1
  Cr  Cr12  1  0.33290485  0.33658418  0.99807082  1
  Cr  Cr13  1  0.50031416  0.49969747  0.16776313  1
  Ni  Ni14  1  0.33211220  0.33616610  0.33452160  1
  Ni  Ni15  1  0.33061537  0.66642647  0.99917182  1
  Cr  Cr16  1  0.49830876  0.83230896  0.16418396  1
  Ni  Ni17  1  0.33224223  0.66416667  0.33340190  1
  Ni  Ni18  1  0.66645343  0.00394276  0.99911407  1
  Fe  Fe19  1  0.83234680  0.16867051  0.16577018  1
  Cr  Cr20  1  0.66836025  0.99848230  0.33215822  1
  Ni  Ni21  1  0.66866424  0.33014791  -0.00035217  1
  Ni  Ni22  1  0.83314806  0.49776081  0.16764525  1
  Fe  Fe23  1  0.66569194  0.33498914  0.33413197  1
  Cr  Cr24  1  0.66678444  0.66515980  0.99666075  1
  Cr  Cr25  1  0.83380331  0.83027642  0.16819703  1
  Ni  Ni26  1  0.66611266  0.66492016  0.33607325  1
  Ni  Ni27  1  0.16637892  0.16428183  0.49995743  1
  Ni  Ni28  1  0.99929671  0.99584828  0.66522250  1
  Cr  Cr29  1  0.16619447  0.16473027  0.83034743  1
  Ni  Ni30  1  0.16608385  0.50035060  0.49723028  1
  Cr  Cr31  1  0.99879578  0.33632688  0.66736275  1
  Ni  Ni32  1  0.16432391  0.50036208  0.83467575  1
  Fe  Fe33  1  0.16376482  0.83133372  0.49942985  1
  Ni  Ni34  1  0.99796688  0.66759115  0.66577790  1
  Fe  Fe35  1  0.16550406  0.83076153  0.83182042  1
  Cr  Cr36  1  0.49832556  0.16772563  0.50066695  1
  Ni  Ni37  1  0.33244327  0.99804465  0.66552744  1
  Ni  Ni38  1  0.50140502  0.16559711  0.83333616  1
  Ni  Ni39  1  0.50124427  0.50153859  0.49826057  1
  Cr  Cr40  1  0.33400271  0.33486359  0.66489892  1
  Ni  Ni41  1  0.50194690  0.49772610  0.83255246  1
  Fe  Fe42  1  0.50112998  0.83033483  0.50063111  1
  Cr  Cr43  1  0.33282870  0.66432258  0.66624221  1
  Cr  Cr44  1  0.50121539  0.83397740  0.83296688  1
  Cr  Cr45  1  0.83487128  0.16487397  0.50231211  1
  Ni  Ni46  1  0.66708755  0.99825932  0.66736627  1
  Fe  Fe47  1  0.82951499  0.16741190  0.83199899  1
  Ni  Ni48  1  0.83149150  0.50447948  0.49969065  1
  Ni  Ni49  1  0.66582516  0.33501512  0.66763995  1
  Ni  Ni50  1  0.83212937  0.50067546  0.83185893  1
  Ni  Ni51  1  0.83364086  0.83057888  0.50035446  1
  Ni  Ni52  1  0.66815179  0.66570021  0.66515793  1
  Ni  Ni53  1  0.83326566  0.83360424  0.82976948  1
" 