8119,Ni51Cr49_2,-219.0888423526, 132.430616929281,Ni51Cr49,"# generated using pymatgen
 data_CrNi
_symmetry_space_group_name_H-M   'P 1'
_cell_length_a   7.52392617
_cell_length_b   7.52392617
_cell_length_c   10.64043843
_cell_angle_alpha   90.00000000
_cell_angle_beta   90.00000000
_cell_angle_gamma   90.00000000
_symmetry_Int_Tables_number   1
_chemical_formula_structural   CrNi
_chemical_formula_sum   'Cr27 Ni27'
_cell_volume   602.34952606
_cell_formula_units_Z   27
loop_
 _symmetry_equiv_pos_site_id
 _symmetry_equiv_pos_as_xyz
  1  'x, y, z'
loop_
 _atom_site_type_symbol
 _atom_site_label
 _atom_site_symmetry_multiplicity
 _atom_site_fract_x
 _atom_site_fract_y
 _atom_site_fract_z
 _atom_site_occupancy
  Ni  Ni0  1  -0.00111374  -0.00340156  -0.00368256  1
  Ni  Ni1  1  0.16373072  0.16384136  0.16267671  1
  Cr  Cr2  1  -0.00021626  -0.00220158  0.32758457  1
  Cr  Cr3  1  -0.00219804  0.32853796  -0.00371870  1
  Ni  Ni4  1  0.16281868  0.49572987  0.16273904  1
  Cr  Cr5  1  -0.00193549  0.32981117  0.32774538  1
  Ni  Ni6  1  -0.00135076  0.66210604  -0.00298196  1
  Ni  Ni7  1  0.16037430  0.82925419  0.16272508  1
  Ni  Ni8  1  -0.00221500  0.66128027  0.32561630  1
  Cr  Cr9  1  0.32316512  0.99562036  0.99473625  1
  Cr  Cr10  1  0.49459848  0.16533603  0.16461424  1
  Ni  Ni11  1  0.32847059  -0.00008050  0.32999044  1
  Ni  Ni12  1  0.32634570  0.33214380  -0.00315665  1
  Ni  Ni13  1  0.49419892  0.49195947  0.16390609  1
  Ni  Ni14  1  0.33058315  0.32800661  0.32912561  1
  Cr  Cr15  1  0.32823230  0.66032059  0.99533001  1
  Cr  Cr16  1  0.49470162  0.83251411  0.16331278  1
  Cr  Cr17  1  0.32790312  0.66075947  0.32759037  1
  Cr  Cr18  1  0.66684422  -0.00304801  0.99383477  1
  Ni  Ni19  1  0.83031182  0.16421038  0.16347741  1
  Ni  Ni20  1  0.66156660  0.00052741  0.32995679  1
  Cr  Cr21  1  0.66476395  0.33303566  -0.00364084  1
  Ni  Ni22  1  0.83158544  0.49503630  0.16407887  1
  Ni  Ni23  1  0.66081969  0.32897921  0.32857555  1
  Cr  Cr24  1  0.66217995  0.65909073  0.99531504  1
  Cr  Cr25  1  0.83217070  0.82951291  0.16332518  1
  Cr  Cr26  1  0.66288521  0.65852220  0.32799719  1
  Ni  Ni27  1  0.16678147  0.16476636  0.49518734  1
  Cr  Cr28  1  -0.00064413  0.00088683  0.66443863  1
  Ni  Ni29  1  0.16024965  0.16494121  0.83060582  1
  Cr  Cr30  1  0.16253736  0.49555067  0.49829665  1
  Ni  Ni31  1  -0.00210029  0.33088215  0.66624996  1
  Ni  Ni32  1  0.16189767  0.49699340  0.82887509  1
  Cr  Cr33  1  0.16164920  0.82650682  0.49621057  1
  Ni  Ni34  1  -0.00071260  0.66019247  0.66657655  1
  Ni  Ni35  1  0.16209439  0.82684507  0.82971375  1
  Ni  Ni36  1  0.49380595  0.16567794  0.49140187  1
  Cr  Cr37  1  0.32759496  0.99502378  0.66296850  1
  Cr  Cr38  1  0.49428232  0.16460787  0.83213329  1
  Ni  Ni39  1  0.49454711  0.49223728  0.49505927  1
  Cr  Cr40  1  0.32751020  0.33029553  0.66275110  1
  Ni  Ni41  1  0.49297302  0.49703839  0.82955698  1
  Cr  Cr42  1  0.49537073  0.83148929  0.49552254  1
  Ni  Ni43  1  0.32791331  0.66136769  0.66621472  1
  Ni  Ni44  1  0.49233021  0.82645268  0.82796935  1
  Cr  Cr45  1  0.82817243  0.16446462  0.49620181  1
  Cr  Cr46  1  0.66196168  -0.00278197  0.66397428  1
  Ni  Ni47  1  0.83423613  0.16556760  0.82974417  1
  Cr  Cr48  1  0.83275786  0.49697748  0.49711869  1
  Cr  Cr49  1  0.66441590  0.33091155  0.66392940  1
  Ni  Ni50  1  0.83376251  0.49560760  0.82848120  1
  Cr  Cr51  1  0.83172104  0.82737905  0.49466595  1
  Cr  Cr52  1  0.65882502  0.66037131  0.66506103  1
  Cr  Cr53  1  0.83273426  0.82823124  0.82990690  1
" 