6006,Ni51Fe18Cr30_19,-227.101414239743, 168.066539177122,Ni51Fe18Cr30,"# generated using pymatgen
 data_Cr2FeNi3
_symmetry_space_group_name_H-M   'P 1'
_cell_length_a   7.47192242
_cell_length_b   7.47192242
_cell_length_c   10.56689403
_cell_angle_alpha   90.00000000
_cell_angle_beta   90.00000000
_cell_angle_gamma   90.00000000
_symmetry_Int_Tables_number   1
_chemical_formula_structural   Cr2FeNi3
_chemical_formula_sum   'Cr18 Fe9 Ni27'
_cell_volume   589.94572803
_cell_formula_units_Z   9
loop_
 _symmetry_equiv_pos_site_id
 _symmetry_equiv_pos_as_xyz
  1  'x, y, z'
loop_
 _atom_site_type_symbol
 _atom_site_label
 _atom_site_symmetry_multiplicity
 _atom_site_fract_x
 _atom_site_fract_y
 _atom_site_fract_z
 _atom_site_occupancy
  Fe  Fe0  1  0.99711064  0.99750802  0.99886219  1
  Cr  Cr1  1  0.16478811  0.16654029  0.16682555  1
  Ni  Ni2  1  0.00035518  0.00286716  0.33277464  1
  Cr  Cr3  1  0.99691720  0.33412549  0.00137460  1
  Ni  Ni4  1  0.16573472  0.50131124  0.16634698  1
  Ni  Ni5  1  0.99748159  0.33348957  0.33354703  1
  Fe  Fe6  1  0.99752294  0.66710565  0.99816574  1
  Cr  Cr7  1  0.16730490  0.83138453  0.16571965  1
  Fe  Fe8  1  0.00048729  0.66243881  0.33311113  1
  Ni  Ni9  1  0.33437438  0.99696364  0.99846372  1
  Cr  Cr10  1  0.50203645  0.16552106  0.16570530  1
  Ni  Ni11  1  0.33167675  0.99695741  0.33371574  1
  Fe  Fe12  1  0.33660130  0.33371788  0.00046857  1
  Fe  Fe13  1  0.50167135  0.50246239  0.16558667  1
  Cr  Cr14  1  0.32991460  0.33480665  0.33234207  1
  Ni  Ni15  1  0.33313638  0.66853368  0.00186820  1
  Ni  Ni16  1  0.50003744  0.83153982  0.16730369  1
  Ni  Ni17  1  0.33398096  0.66766591  0.33133722  1
  Ni  Ni18  1  0.66612488  0.00010370  -0.00018567  1
  Ni  Ni19  1  0.83142166  0.16810857  0.16704421  1
  Fe  Fe20  1  0.66612038  -0.00004413  0.33071257  1
  Ni  Ni21  1  0.66883548  0.33287765  0.99915368  1
  Ni  Ni22  1  0.83244638  0.49879178  0.16837700  1
  Ni  Ni23  1  0.67159121  0.33573577  0.33110026  1
  Ni  Ni24  1  0.66652566  0.66605856  0.00020510  1
  Cr  Cr25  1  0.83127277  0.83310793  0.16711866  1
  Ni  Ni26  1  0.66575830  0.66468493  0.33135835  1
  Ni  Ni27  1  0.16425710  0.16705953  0.49934375  1
  Fe  Fe28  1  0.00081598  0.99881648  0.66716252  1
  Cr  Cr29  1  0.16753862  0.16373564  0.83289995  1
  Ni  Ni30  1  0.16337167  0.49930989  0.49962177  1
  Ni  Ni31  1  0.99714356  0.33464361  0.66406707  1
  Cr  Cr32  1  0.16534819  0.50288533  0.83334721  1
  Cr  Cr33  1  0.16585221  0.83275155  0.50027986  1
  Ni  Ni34  1  0.99878648  0.66443952  0.66745255  1
  Ni  Ni35  1  0.16366420  0.83359123  0.83263058  1
  Cr  Cr36  1  0.49929099  0.16623070  0.49914324  1
  Ni  Ni37  1  0.33033264  0.99833684  0.66666992  1
  Ni  Ni38  1  0.50152139  0.16633066  0.83430653  1
  Cr  Cr39  1  0.50179878  0.50112391  0.50125324  1
  Cr  Cr40  1  0.33142636  0.33153267  0.66558564  1
  Cr  Cr41  1  0.50237637  0.49794623  0.83377645  1
  Cr  Cr42  1  0.49972541  0.83165118  0.49859186  1
  Ni  Ni43  1  0.33041074  0.66919614  0.66602052  1
  Cr  Cr44  1  0.49904706  0.83271538  0.83249450  1
  Cr  Cr45  1  0.83472441  0.16839793  0.49810393  1
  Cr  Cr46  1  0.66581333  0.99964481  0.66888634  1
  Fe  Fe47  1  0.83131771  0.16686143  0.83373267  1
  Fe  Fe48  1  0.83475995  0.49922919  0.50000876  1
  Ni  Ni49  1  0.67143133  0.33442618  0.66883092  1
  Ni  Ni50  1  0.83182435  0.50115395  0.83047073  1
  Cr  Cr51  1  0.83328277  0.83022789  0.49793280  1
  Ni  Ni52  1  0.66989757  0.66439756  0.66736358  1
  Ni  Ni53  1  0.83539666  0.83138533  0.83400501  1
" 