6158,Ni51Cr49_16,-219.084000319307, 133.13715332561,Ni51Cr49,"# generated using pymatgen
 data_CrNi
_symmetry_space_group_name_H-M   'P 1'
_cell_length_a   7.52319097
_cell_length_b   7.52319097
_cell_length_c   10.63939870
_cell_angle_alpha   90.00000000
_cell_angle_beta   90.00000000
_cell_angle_gamma   90.00000000
_symmetry_Int_Tables_number   1
_chemical_formula_structural   CrNi
_chemical_formula_sum   'Cr27 Ni27'
_cell_volume   602.17296859
_cell_formula_units_Z   27
loop_
 _symmetry_equiv_pos_site_id
 _symmetry_equiv_pos_as_xyz
  1  'x, y, z'
loop_
 _atom_site_type_symbol
 _atom_site_label
 _atom_site_symmetry_multiplicity
 _atom_site_fract_x
 _atom_site_fract_y
 _atom_site_fract_z
 _atom_site_occupancy
  Ni  Ni0  1  -0.00344107  0.99417584  0.99592674  1
  Cr  Cr1  1  0.16208559  0.16107035  0.16134748  1
  Ni  Ni2  1  0.99377198  0.99555835  0.33103712  1
  Cr  Cr3  1  -0.00189926  0.33096617  0.99404534  1
  Cr  Cr4  1  0.16239428  0.49752058  0.16642026  1
  Ni  Ni5  1  0.99533339  0.32885187  0.33056799  1
  Cr  Cr6  1  0.99233655  0.66230163  -0.00305072  1
  Ni  Ni7  1  0.15947709  0.83023555  0.16433410  1
  Ni  Ni8  1  0.99577270  0.66464732  0.32724286  1
  Ni  Ni9  1  0.32885289  -0.00285626  0.99513600  1
  Cr  Cr10  1  0.49741069  0.16337626  0.16181421  1
  Cr  Cr11  1  0.32866783  -0.00357955  0.32933096  1
  Ni  Ni12  1  0.32768437  0.32704926  0.99392583  1
  Cr  Cr13  1  0.49653027  0.49478627  0.16490470  1
  Ni  Ni14  1  0.32817797  0.32999310  0.33074757  1
  Cr  Cr15  1  0.33008102  0.66394820  0.99604972  1
  Cr  Cr16  1  0.49670977  0.83085002  0.16106335  1
  Ni  Ni17  1  0.32670999  0.66210676  0.32907207  1
  Ni  Ni18  1  0.66344418  0.99102995  0.99549673  1
  Cr  Cr19  1  0.82949577  0.16071514  0.16470443  1
  Ni  Ni20  1  0.66766920  -0.00281735  0.33058791  1
  Cr  Cr21  1  0.66439774  0.33276025  -0.00319193  1
  Ni  Ni22  1  0.82963234  0.49840859  0.16472566  1
  Ni  Ni23  1  0.66524950  0.32802185  0.33000904  1
  Ni  Ni24  1  0.66574120  0.66635754  0.99490389  1
  Ni  Ni25  1  0.83180327  0.82979696  0.16272356  1
  Cr  Cr26  1  0.66532158  0.66444228  0.32802857  1
  Ni  Ni27  1  0.15951955  0.16377955  0.49583115  1
  Ni  Ni28  1  0.99554773  -0.00239500  0.66163535  1
  Ni  Ni29  1  0.16366626  0.16360002  0.83051943  1
  Cr  Cr30  1  0.16498600  0.49669744  0.49484259  1
  Cr  Cr31  1  -0.00289738  0.32722483  0.66484114  1
  Ni  Ni32  1  0.16437512  0.49388133  0.82831651  1
  Cr  Cr33  1  0.15966183  0.82875903  0.49491515  1
  Cr  Cr34  1  0.99501073  0.66366198  0.66512381  1
  Cr  Cr35  1  0.16191819  0.83125443  0.82947008  1
  Cr  Cr36  1  0.49893579  0.16647243  0.49480350  1
  Cr  Cr37  1  0.32758063  -0.00238117  0.66350153  1
  Cr  Cr38  1  0.49540375  0.16225576  0.83190168  1
  Cr  Cr39  1  0.49415976  0.49510654  0.49659771  1
  Ni  Ni40  1  0.32809943  0.33004847  0.66409177  1
  Cr  Cr41  1  0.49546013  0.49681116  0.82758764  1
  Cr  Cr42  1  0.49618195  0.82733877  0.49648267  1
  Ni  Ni43  1  0.32972450  0.66098819  0.66465647  1
  Ni  Ni44  1  0.49801049  0.82906463  0.83162557  1
  Ni  Ni45  1  0.83169830  0.16079734  0.49430773  1
  Cr  Cr46  1  0.66518630  0.99548566  0.66128463  1
  Cr  Cr47  1  0.83113051  0.16015975  0.82938811  1
  Cr  Cr48  1  0.82960490  0.49430298  0.49474783  1
  Ni  Ni49  1  0.66301364  0.32978496  0.66240565  1
  Ni  Ni50  1  0.82930067  0.49819478  0.83000359  1
  Ni  Ni51  1  0.83204089  0.83417861  0.49435164  1
  Cr  Cr52  1  0.66362551  0.66385985  0.66576220  1
  Ni  Ni53  1  0.82815093  0.82985769  0.83160838  1
" 