7648,Ni51Cr49_15,-219.190078772242, 137.146731693944,Ni51Cr49,"# generated using pymatgen
 data_CrNi
_symmetry_space_group_name_H-M   'P 1'
_cell_length_a   7.52116811
_cell_length_b   7.52116811
_cell_length_c   10.63653794
_cell_angle_alpha   90.00000000
_cell_angle_beta   90.00000000
_cell_angle_gamma   90.00000000
_symmetry_Int_Tables_number   1
_chemical_formula_structural   CrNi
_chemical_formula_sum   'Cr27 Ni27'
_cell_volume   601.68735547
_cell_formula_units_Z   27
loop_
 _symmetry_equiv_pos_site_id
 _symmetry_equiv_pos_as_xyz
  1  'x, y, z'
loop_
 _atom_site_type_symbol
 _atom_site_label
 _atom_site_symmetry_multiplicity
 _atom_site_fract_x
 _atom_site_fract_y
 _atom_site_fract_z
 _atom_site_occupancy
  Ni  Ni0  1  0.99595683  -0.00355947  -0.00252320  1
  Ni  Ni1  1  0.16187618  0.16030544  0.16582374  1
  Ni  Ni2  1  -0.00121616  -0.00228702  0.32896343  1
  Cr  Cr3  1  0.99632098  0.32744348  0.99563296  1
  Cr  Cr4  1  0.16088273  0.49756161  0.16631701  1
  Ni  Ni5  1  0.99593481  0.32525678  0.32888106  1
  Ni  Ni6  1  0.99533225  0.66602907  0.99555354  1
  Ni  Ni7  1  0.16108721  0.83317832  0.16470778  1
  Ni  Ni8  1  -0.00282745  0.66666631  0.32934260  1
  Cr  Cr9  1  0.32829617  -0.00213345  0.00211145  1
  Ni  Ni10  1  0.49771922  0.16350574  0.16401937  1
  Ni  Ni11  1  0.32766581  -0.00333262  0.32816039  1
  Cr  Cr12  1  0.33051418  0.32890979  -0.00167699  1
  Ni  Ni13  1  0.49849879  0.49379800  0.16512377  1
  Ni  Ni14  1  0.33029543  0.32680075  0.32575259  1
  Cr  Cr15  1  0.32982447  0.66371472  -0.00011303  1
  Ni  Ni16  1  0.49650187  0.83164445  0.16463779  1
  Cr  Cr17  1  0.33115428  0.66774128  0.32801701  1
  Ni  Ni18  1  0.66478652  -0.00181231  -0.00106057  1
  Ni  Ni19  1  0.82979040  0.16267859  0.16352894  1
  Cr  Cr20  1  0.66195199  0.99572668  0.32886035  1
  Ni  Ni21  1  0.66291391  0.32883462  -0.00226049  1
  Cr  Cr22  1  0.82962578  0.49587781  0.16580751  1
  Ni  Ni23  1  0.66339890  0.32779038  0.32738379  1
  Cr  Cr24  1  0.66198529  0.66327486  0.99586082  1
  Cr  Cr25  1  0.83199354  0.83071175  0.16113583  1
  Ni  Ni26  1  0.66152219  0.66294231  0.32889441  1
  Cr  Cr27  1  0.16323862  0.16106568  0.49610153  1
  Ni  Ni28  1  -0.00156758  0.99564513  0.66303022  1
  Ni  Ni29  1  0.16170791  0.15904538  0.82881217  1
  Cr  Cr30  1  0.16330423  0.49812051  0.49291991  1
  Cr  Cr31  1  0.99435580  0.32686054  0.66357407  1
  Cr  Cr32  1  0.16372122  0.49822356  0.82991450  1
  Ni  Ni33  1  0.16435344  0.83213257  0.49601492  1
  Cr  Cr34  1  0.99565702  0.66366112  0.66353051  1
  Cr  Cr35  1  0.16179708  0.83238606  0.83018071  1
  Cr  Cr36  1  0.49573029  0.16196982  0.49565743  1
  Ni  Ni37  1  0.32662784  0.99318646  0.66131265  1
  Cr  Cr38  1  0.49474227  0.16166906  0.83067164  1
  Cr  Cr39  1  0.49557140  0.49610075  0.49447814  1
  Cr  Cr40  1  0.32855660  0.33049755  0.66633763  1
  Ni  Ni41  1  0.49869979  0.49665863  0.82992994  1
  Ni  Ni42  1  0.49235727  0.83010226  0.49622296  1
  Ni  Ni43  1  0.33026584  0.66658721  0.66196797  1
  Cr  Cr44  1  0.49675580  0.83233919  0.82850691  1
  Ni  Ni45  1  0.83218871  0.16198446  0.49336510  1
  Cr  Cr46  1  0.66590169  0.99502782  0.66032733  1
  Cr  Cr47  1  0.82919915  0.15859400  0.83152409  1
  Cr  Cr48  1  0.83005945  0.49418343  0.48958748  1
  Cr  Cr49  1  0.66615910  0.33033754  0.66346703  1
  Ni  Ni50  1  0.82794733  0.49780816  0.83246315  1
  Cr  Cr51  1  0.83240741  0.83085497  0.49400278  1
  Cr  Cr52  1  0.66259077  0.66322139  0.66292367  1
  Ni  Ni53  1  0.83160001  0.83018345  0.83200826  1
" 