8134,Ni51Fe4Cr44_19,-221.280979664006, 143.912939369945,Ni51Fe4Cr44,"# generated using pymatgen
 data_Cr25Fe2Ni27
_symmetry_space_group_name_H-M   'P 1'
_cell_length_a   7.50981509
_cell_length_b   7.50981509
_cell_length_c   10.62048235
_cell_angle_alpha   90.00000000
_cell_angle_beta   90.00000000
_cell_angle_gamma   90.00000000
_symmetry_Int_Tables_number   1
_chemical_formula_structural   Cr25Fe2Ni27
_chemical_formula_sum   'Cr25 Fe2 Ni27'
_cell_volume   598.96676953
_cell_formula_units_Z   1
loop_
 _symmetry_equiv_pos_site_id
 _symmetry_equiv_pos_as_xyz
  1  'x, y, z'
loop_
 _atom_site_type_symbol
 _atom_site_label
 _atom_site_symmetry_multiplicity
 _atom_site_fract_x
 _atom_site_fract_y
 _atom_site_fract_z
 _atom_site_occupancy
  Ni  Ni0  1  0.00227319  0.99583235  -0.00190675  1
  Ni  Ni1  1  0.16401000  0.15930426  0.16310977  1
  Cr  Cr2  1  -0.00026538  -0.00194293  0.32931267  1
  Cr  Cr3  1  -0.00196270  0.32782657  -0.00221053  1
  Cr  Cr4  1  0.16530487  0.50066669  0.16215679  1
  Cr  Cr5  1  -0.00049531  0.32752382  0.32824800  1
  Ni  Ni6  1  0.00071550  0.66522273  0.99530130  1
  Ni  Ni7  1  0.16425717  0.83361820  0.16022969  1
  Cr  Cr8  1  0.99680256  0.66632303  0.33055320  1
  Ni  Ni9  1  0.32532907  0.99446183  0.99505052  1
  Cr  Cr10  1  0.49675746  0.16192989  0.16349569  1
  Fe  Fe11  1  0.33150723  -0.00226351  0.33183890  1
  Cr  Cr12  1  0.32884591  0.32763566  0.99481596  1
  Ni  Ni13  1  0.49732034  0.49781049  0.16272669  1
  Cr  Cr14  1  0.33004594  0.32843442  0.33305018  1
  Ni  Ni15  1  0.32732387  0.66702202  0.99566362  1
  Cr  Cr16  1  0.49300471  0.83099666  0.16233293  1
  Cr  Cr17  1  0.33211294  0.66539931  0.33120931  1
  Cr  Cr18  1  0.66234816  -0.00219537  0.99288521  1
  Ni  Ni19  1  0.83207346  0.16276102  0.16358826  1
  Ni  Ni20  1  0.66337851  0.99714569  0.33386273  1
  Cr  Cr21  1  0.66444746  0.33120639  0.99710247  1
  Ni  Ni22  1  0.83085938  0.49686266  0.16201874  1
  Cr  Cr23  1  0.66280099  0.33107756  0.32832852  1
  Cr  Cr24  1  0.66290028  0.66286268  0.99586013  1
  Cr  Cr25  1  0.83202806  0.83217050  0.16280986  1
  Cr  Cr26  1  0.66244329  0.66558255  0.33310403  1
  Ni  Ni27  1  0.16693882  0.16201080  0.50032031  1
  Ni  Ni28  1  -0.00020485  -0.00214129  0.66386364  1
  Ni  Ni29  1  0.16546971  0.16151316  0.82803978  1
  Cr  Cr30  1  0.16493375  0.49531614  0.50305957  1
  Ni  Ni31  1  0.00188659  0.32822204  0.66641080  1
  Ni  Ni32  1  0.16254100  0.49896954  0.82792607  1
  Cr  Cr33  1  0.16395606  0.83108379  0.49908156  1
  Fe  Fe34  1  -0.00041194  0.66566609  0.66669816  1
  Ni  Ni35  1  0.16631917  0.83081865  0.83137743  1
  Ni  Ni36  1  0.49485442  0.16098483  0.49890288  1
  Ni  Ni37  1  0.32953867  0.99711652  0.66385106  1
  Ni  Ni38  1  0.49206812  0.15904338  0.82767914  1
  Ni  Ni39  1  0.49511016  0.49692248  0.49897750  1
  Ni  Ni40  1  0.32742077  0.32856418  0.66381499  1
  Cr  Cr41  1  0.49294949  0.49755910  0.83096163  1
  Ni  Ni42  1  0.49711151  0.83395654  0.49846829  1
  Ni  Ni43  1  0.33013412  0.66519040  0.66505839  1
  Ni  Ni44  1  0.49187446  0.83358526  0.82910702  1
  Cr  Cr45  1  0.83080814  0.16181295  0.49939117  1
  Ni  Ni46  1  0.66133553  0.99557256  0.66262236  1
  Cr  Cr47  1  0.83135990  0.16313671  0.82859798  1
  Cr  Cr48  1  0.83336084  0.49814138  0.50037957  1
  Cr  Cr49  1  0.66104264  0.32958790  0.66604465  1
  Ni  Ni50  1  0.83598263  0.49799482  0.82991189  1
  Ni  Ni51  1  0.82866818  0.83386927  0.49972663  1
  Cr  Cr52  1  0.66154163  0.66718318  0.66270211  1
  Cr  Cr53  1  0.83348184  0.83128276  0.82872585  1
" 