7227,Ni51Cr49_7,-218.828105666203, 127.647703932655,Ni51Cr49,"# generated using pymatgen
 data_CrNi
_symmetry_space_group_name_H-M   'P 1'
_cell_length_a   7.52326143
_cell_length_b   7.52326143
_cell_length_c   10.63949835
_cell_angle_alpha   90.00000000
_cell_angle_beta   90.00000000
_cell_angle_gamma   90.00000000
_symmetry_Int_Tables_number   1
_chemical_formula_structural   CrNi
_chemical_formula_sum   'Cr27 Ni27'
_cell_volume   602.18988815
_cell_formula_units_Z   27
loop_
 _symmetry_equiv_pos_site_id
 _symmetry_equiv_pos_as_xyz
  1  'x, y, z'
loop_
 _atom_site_type_symbol
 _atom_site_label
 _atom_site_symmetry_multiplicity
 _atom_site_fract_x
 _atom_site_fract_y
 _atom_site_fract_z
 _atom_site_occupancy
  Ni  Ni0  1  0.99474113  -0.00210974  -0.00299890  1
  Ni  Ni1  1  0.16388535  0.16228548  0.16351901  1
  Cr  Cr2  1  0.99529298  0.99614248  0.32886032  1
  Cr  Cr3  1  -0.00364325  0.32619417  -0.00233656  1
  Cr  Cr4  1  0.16368828  0.49714625  0.16474487  1
  Cr  Cr5  1  0.99458967  0.33154415  0.32866308  1
  Cr  Cr6  1  0.99375315  0.66219473  -0.00365194  1
  Cr  Cr7  1  0.16181501  0.83070342  0.16288747  1
  Ni  Ni8  1  0.99423970  0.66303639  0.33194961  1
  Cr  Cr9  1  0.32850797  0.00123899  -0.00308528  1
  Ni  Ni10  1  0.49651540  0.16689832  0.16498120  1
  Ni  Ni11  1  0.32964861  -0.00142152  0.32956162  1
  Cr  Cr12  1  0.33010498  0.32896283  0.99403451  1
  Ni  Ni13  1  0.49890616  0.49082498  0.16317992  1
  Ni  Ni14  1  0.33051865  0.32806936  0.32775631  1
  Cr  Cr15  1  0.33180910  0.65876561  0.99340823  1
  Cr  Cr16  1  0.49451822  0.82938931  0.16403552  1
  Cr  Cr17  1  0.32942712  0.66325649  0.33225986  1
  Cr  Cr18  1  0.66463536  -0.00176329  -0.00307257  1
  Ni  Ni19  1  0.82802977  0.16410924  0.16176478  1
  Cr  Cr20  1  0.66289902  0.99622552  0.32977510  1
  Ni  Ni21  1  0.66115536  0.32892570  -0.00173907  1
  Ni  Ni22  1  0.82679061  0.49514045  0.16442327  1
  Ni  Ni23  1  0.66257468  0.33036341  0.32640857  1
  Cr  Cr24  1  0.66279986  0.66058198  -0.00211290  1
  Ni  Ni25  1  0.83179141  0.82957522  0.16234204  1
  Cr  Cr26  1  0.66641163  0.66258646  0.32950390  1
  Cr  Cr27  1  0.16469736  0.16312632  0.49558999  1
  Ni  Ni28  1  0.99509996  0.99316018  0.66367486  1
  Ni  Ni29  1  0.16317134  0.16300209  0.82877715  1
  Ni  Ni30  1  0.16153719  0.49837150  0.49663370  1
  Cr  Cr31  1  -0.00034014  0.33145471  0.66227016  1
  Ni  Ni32  1  0.16399475  0.49461925  0.82686750  1
  Ni  Ni33  1  0.16067466  0.82798706  0.49586022  1
  Ni  Ni34  1  0.99613985  0.66435358  0.66074842  1
  Cr  Cr35  1  0.15893494  0.82987774  0.83093835  1
  Cr  Cr36  1  0.49736990  0.16395289  0.49613634  1
  Cr  Cr37  1  0.32990657  -0.00234695  0.66242990  1
  Ni  Ni38  1  0.49694814  0.16694847  0.82744049  1
  Cr  Cr39  1  0.49716544  0.49221441  0.49580776  1
  Ni  Ni40  1  0.33026175  0.33006049  0.66571829  1
  Ni  Ni41  1  0.49637615  0.49075304  0.82910326  1
  Ni  Ni42  1  0.49606086  0.83116824  0.49623195  1
  Cr  Cr43  1  0.32802629  0.66035408  0.66315509  1
  Cr  Cr44  1  0.49875924  0.83050524  0.82900482  1
  Cr  Cr45  1  0.82677461  0.16474151  0.49949826  1
  Ni  Ni46  1  0.66450917  0.99602547  0.66282540  1
  Cr  Cr47  1  0.82859494  0.16124472  0.82755823  1
  Ni  Ni48  1  0.83095469  0.49813880  0.49577983  1
  Ni  Ni49  1  0.66068089  0.32945683  0.66406584  1
  Cr  Cr50  1  0.82843347  0.49626729  0.82875422  1
  Ni  Ni51  1  0.83212917  0.82832372  0.49884936  1
  Cr  Cr52  1  0.66413953  0.66442821  0.66161579  1
  Ni  Ni53  1  0.83184931  0.83120068  0.82785882  1
" 