711,Ni51Cr49_4,-219.38745584313, 139.15776627294,Ni51Cr49,"# generated using pymatgen
 data_CrNi
_symmetry_space_group_name_H-M   'P 1'
_cell_length_a   7.51724115
_cell_length_b   7.51724115
_cell_length_c   10.63098439
_cell_angle_alpha   90.00000000
_cell_angle_beta   90.00000000
_cell_angle_gamma   90.00000000
_symmetry_Int_Tables_number   1
_chemical_formula_structural   CrNi
_chemical_formula_sum   'Cr27 Ni27'
_cell_volume   600.74538786
_cell_formula_units_Z   27
loop_
 _symmetry_equiv_pos_site_id
 _symmetry_equiv_pos_as_xyz
  1  'x, y, z'
loop_
 _atom_site_type_symbol
 _atom_site_label
 _atom_site_symmetry_multiplicity
 _atom_site_fract_x
 _atom_site_fract_y
 _atom_site_fract_z
 _atom_site_occupancy
  Cr  Cr0  1  -0.00053415  0.99607821  -0.00176035  1
  Ni  Ni1  1  0.16365158  0.16159358  0.16506853  1
  Ni  Ni2  1  -0.00018334  -0.00112512  0.33071028  1
  Cr  Cr3  1  -0.00202947  0.33026799  0.99542019  1
  Cr  Cr4  1  0.16495940  0.49512676  0.16441039  1
  Cr  Cr5  1  -0.00250325  0.32639432  0.33175681  1
  Ni  Ni6  1  -0.00198251  0.66315448  0.99359607  1
  Cr  Cr7  1  0.16552525  0.83177498  0.16379306  1
  Cr  Cr8  1  -0.00181093  0.66671499  0.33106970  1
  Ni  Ni9  1  0.33056714  -0.00280265  0.99382106  1
  Cr  Cr10  1  0.49268208  0.16159794  0.16255238  1
  Ni  Ni11  1  0.32685061  -0.00178447  0.33168420  1
  Cr  Cr12  1  0.32980782  0.32868134  0.99444155  1
  Cr  Cr13  1  0.49402465  0.49708409  0.16797683  1
  Ni  Ni14  1  0.32786610  0.32732739  0.33169998  1
  Cr  Cr15  1  0.32880611  0.66488673  0.99292206  1
  Cr  Cr16  1  0.49461468  0.83103030  0.16422195  1
  Ni  Ni17  1  0.32900473  0.66431322  0.33228977  1
  Ni  Ni18  1  0.66062939  -0.00272406  0.99565473  1
  Ni  Ni19  1  0.83182761  0.16125977  0.16346778  1
  Cr  Cr20  1  0.66505679  -0.00193792  0.33077582  1
  Cr  Cr21  1  0.66184815  0.32874323  0.99597250  1
  Cr  Cr22  1  0.83085348  0.49698820  0.16246331  1
  Cr  Cr23  1  0.66249029  0.32794793  0.33015222  1
  Cr  Cr24  1  0.66197845  0.66378852  0.99526661  1
  Cr  Cr25  1  0.83016541  0.83094466  0.16298841  1
  Ni  Ni26  1  0.66158035  0.66400145  0.32995721  1
  Ni  Ni27  1  0.16483015  0.16270055  0.49569097  1
  Cr  Cr28  1  0.00096285  -0.00190790  0.66000415  1
  Ni  Ni29  1  0.16600113  0.16233930  0.82941251  1
  Ni  Ni30  1  0.16524099  0.49612382  0.49678286  1
  Ni  Ni31  1  -0.00087910  0.32978968  0.66333894  1
  Ni  Ni32  1  0.16260548  0.49683792  0.82882214  1
  Ni  Ni33  1  0.16662139  0.83144514  0.49557772  1
  Cr  Cr34  1  0.00099761  0.66275611  0.66488907  1
  Ni  Ni35  1  0.16691720  0.83081467  0.82989585  1
  Ni  Ni36  1  0.49383016  0.16133449  0.49678003  1
  Ni  Ni37  1  0.33060420  0.99565644  0.66439570  1
  Ni  Ni38  1  0.49459904  0.15946859  0.82999423  1
  Cr  Cr39  1  0.49409041  0.49750961  0.49420542  1
  Cr  Cr40  1  0.32833966  0.32914879  0.66404188  1
  Ni  Ni41  1  0.49617367  0.49814151  0.82816812  1
  Cr  Cr42  1  0.49467795  0.83046611  0.49789599  1
  Ni  Ni43  1  0.33000170  0.66506714  0.66459640  1
  Ni  Ni44  1  0.49469579  0.83247226  0.82830847  1
  Ni  Ni45  1  0.83127551  0.16238791  0.49755553  1
  Ni  Ni46  1  0.65957630  -0.00313933  0.66342453  1
  Cr  Cr47  1  0.83044440  0.16305131  0.82841207  1
  Cr  Cr48  1  0.83050102  0.49641151  0.49910099  1
  Cr  Cr49  1  0.66218452  0.32849736  0.66368568  1
  Ni  Ni50  1  0.83119799  0.49733720  0.82913342  1
  Cr  Cr51  1  0.82913696  0.83083513  0.49731313  1
  Ni  Ni52  1  0.66026724  0.66413875  0.66625104  1
  Cr  Cr53  1  0.82907706  0.83070777  0.82966783  1
" 