789,Ni51Cr49_3,-218.905048266589, 127.352846737387,Ni51Cr49,"# generated using pymatgen
 data_CrNi
_symmetry_space_group_name_H-M   'P 1'
_cell_length_a   7.52505978
_cell_length_b   7.52505978
_cell_length_c   10.64204160
_cell_angle_alpha   90.00000000
_cell_angle_beta   90.00000000
_cell_angle_gamma   90.00000000
_symmetry_Int_Tables_number   1
_chemical_formula_structural   CrNi
_chemical_formula_sum   'Cr27 Ni27'
_cell_volume   602.62183142
_cell_formula_units_Z   27
loop_
 _symmetry_equiv_pos_site_id
 _symmetry_equiv_pos_as_xyz
  1  'x, y, z'
loop_
 _atom_site_type_symbol
 _atom_site_label
 _atom_site_symmetry_multiplicity
 _atom_site_fract_x
 _atom_site_fract_y
 _atom_site_fract_z
 _atom_site_occupancy
  Ni  Ni0  1  -0.00201933  0.99583788  0.99439446  1
  Ni  Ni1  1  0.16283429  0.16155925  0.16044494  1
  Ni  Ni2  1  -0.00301423  -0.00329951  0.33106314  1
  Ni  Ni3  1  0.99587770  0.32948656  -0.00379245  1
  Cr  Cr4  1  0.16184246  0.49501432  0.16248712  1
  Cr  Cr5  1  0.99358563  0.32777708  0.32836658  1
  Ni  Ni6  1  0.99216722  0.66309598  0.99430428  1
  Cr  Cr7  1  0.16235651  0.83151120  0.16354722  1
  Cr  Cr8  1  -0.00311118  0.66478829  0.32950291  1
  Ni  Ni9  1  0.32743890  -0.00188379  0.99613677  1
  Ni  Ni10  1  0.49531517  0.16399919  0.16196600  1
  Cr  Cr11  1  0.32811991  0.99592881  0.32847800  1
  Cr  Cr12  1  0.32843639  0.32594838  -0.00192059  1
  Ni  Ni13  1  0.49957225  0.49608503  0.16563438  1
  Cr  Cr14  1  0.33367470  0.32986357  0.32786190  1
  Cr  Cr15  1  0.32888982  0.66447630  -0.00306040  1
  Cr  Cr16  1  0.49738295  0.82860968  0.16139272  1
  Ni  Ni17  1  0.33215407  0.66183435  0.33107108  1
  Ni  Ni18  1  0.66300614  0.99438296  -0.00376589  1
  Cr  Cr19  1  0.83090875  0.16310008  0.16331400  1
  Cr  Cr20  1  0.66316152  -0.00070379  0.33057171  1
  Cr  Cr21  1  0.66363151  0.33093064  -0.00192709  1
  Ni  Ni22  1  0.82654709  0.49646872  0.16152840  1
  Ni  Ni23  1  0.66098857  0.33146866  0.32986682  1
  Ni  Ni24  1  0.66713575  0.66290301  0.99606710  1
  Cr  Cr25  1  0.82871182  0.82856730  0.16141125  1
  Ni  Ni26  1  0.66039698  0.65797613  0.32836523  1
  Cr  Cr27  1  0.16153134  0.16060074  0.49805367  1
  Ni  Ni28  1  -0.00065272  0.99498163  0.66299950  1
  Ni  Ni29  1  0.16220670  0.15930231  0.82978674  1
  Cr  Cr30  1  0.16722629  0.49819288  0.49702196  1
  Cr  Cr31  1  0.99609437  0.32799373  0.66421821  1
  Cr  Cr32  1  0.16172357  0.49471267  0.82898586  1
  Ni  Ni33  1  0.16392350  0.83076422  0.49694700  1
  Cr  Cr34  1  0.99602975  0.66607345  0.66502579  1
  Ni  Ni35  1  0.16078672  0.83291576  0.82887923  1
  Ni  Ni36  1  0.49703657  0.16555300  0.49691329  1
  Ni  Ni37  1  0.32596740  -0.00381993  0.66312760  1
  Cr  Cr38  1  0.49290832  0.16087181  0.82948989  1
  Ni  Ni39  1  0.49613972  0.49613925  0.49586140  1
  Ni  Ni40  1  0.33071526  0.32847313  0.66175555  1
  Cr  Cr41  1  0.49704920  0.49807387  0.82647238  1
  Cr  Cr42  1  0.49410253  0.82639890  0.49696444  1
  Ni  Ni43  1  0.33009042  0.66382954  0.66089283  1
  Cr  Cr44  1  0.49690294  0.82949608  0.83005774  1
  Ni  Ni45  1  0.82868569  0.16174568  0.49486151  1
  Cr  Cr46  1  0.66377588  0.99596531  0.66195517  1
  Cr  Cr47  1  0.83263167  0.16138247  0.83042649  1
  Cr  Cr48  1  0.82605071  0.49493166  0.49499887  1
  Cr  Cr49  1  0.66144240  0.33037006  0.66025660  1
  Ni  Ni50  1  0.82989780  0.50000735  0.83188413  1
  Cr  Cr51  1  0.83064482  0.83181922  0.49538699  1
  Ni  Ni52  1  0.66164596  0.66166378  0.66394786  1
  Ni  Ni53  1  0.83130350  0.82768680  0.83137134  1
" 