2241,Ni51Fe18Cr30_13,-227.603432512692, 174.798750227239,Ni51Fe18Cr30,"# generated using pymatgen
 data_Cr2FeNi3
_symmetry_space_group_name_H-M   'P 1'
_cell_length_a   7.46760422
_cell_length_b   7.46760422
_cell_length_c   10.56078716
_cell_angle_alpha   90.00000000
_cell_angle_beta   90.00000000
_cell_angle_gamma   90.00000000
_symmetry_Int_Tables_number   1
_chemical_formula_structural   Cr2FeNi3
_chemical_formula_sum   'Cr18 Fe9 Ni27'
_cell_volume   588.92348680
_cell_formula_units_Z   9
loop_
 _symmetry_equiv_pos_site_id
 _symmetry_equiv_pos_as_xyz
  1  'x, y, z'
loop_
 _atom_site_type_symbol
 _atom_site_label
 _atom_site_symmetry_multiplicity
 _atom_site_fract_x
 _atom_site_fract_y
 _atom_site_fract_z
 _atom_site_occupancy
  Ni  Ni0  1  0.00435018  0.00127735  0.00022430  1
  Ni  Ni1  1  0.16668916  0.16691577  0.16582235  1
  Ni  Ni2  1  0.99941772  0.99926203  0.33537319  1
  Ni  Ni3  1  0.00110433  0.33288051  0.00062670  1
  Ni  Ni4  1  0.16911408  0.49837336  0.16667529  1
  Cr  Cr5  1  0.00184460  0.33203870  0.33106287  1
  Cr  Cr6  1  0.99790441  0.66445472  0.00061115  1
  Cr  Cr7  1  0.16835190  0.83444365  0.16462220  1
  Cr  Cr8  1  0.99779161  0.66858992  0.33249270  1
  Ni  Ni9  1  0.33187710  0.99919879  0.99769887  1
  Ni  Ni10  1  0.49898340  0.16663387  0.16795238  1
  Cr  Cr11  1  0.33266656  0.00221488  0.33444614  1
  Cr  Cr12  1  0.33150304  0.33031638  0.00275528  1
  Ni  Ni13  1  0.50012163  0.50215312  0.16906565  1
  Ni  Ni14  1  0.33657599  0.33300398  0.33216258  1
  Ni  Ni15  1  0.33568983  0.66976466  0.00122557  1
  Ni  Ni16  1  0.50084141  0.83103180  0.16639335  1
  Fe  Fe17  1  0.33604153  0.66472350  0.33313173  1
  Cr  Cr18  1  0.66261545  0.99723436  0.00038114  1
  Cr  Cr19  1  0.83443322  0.16531323  0.16744794  1
  Fe  Fe20  1  0.66737312  -0.00003330  0.33397545  1
  Cr  Cr21  1  0.66730269  0.33690755  -0.00001198  1
  Ni  Ni22  1  0.83070194  0.49993460  0.16567514  1
  Ni  Ni23  1  0.66282385  0.33489539  0.33383487  1
  Ni  Ni24  1  0.66561206  0.66660140  0.00162707  1
  Fe  Fe25  1  0.83078208  0.83234115  0.16774900  1
  Ni  Ni26  1  0.66527168  0.66670368  0.33187109  1
  Fe  Fe27  1  0.16491495  0.16594871  0.50053627  1
  Ni  Ni28  1  0.00217457  0.99957675  0.66429868  1
  Ni  Ni29  1  0.16545439  0.16423285  0.83354861  1
  Cr  Cr30  1  0.17197456  0.50113580  0.50144132  1
  Fe  Fe31  1  0.00026035  0.33122619  0.66728510  1
  Cr  Cr32  1  0.16663183  0.50058257  0.83138684  1
  Ni  Ni33  1  0.16576869  0.83455245  0.50206879  1
  Fe  Fe34  1  0.00172293  0.66877866  0.66642461  1
  Ni  Ni35  1  0.16944667  0.83569916  0.83283124  1
  Fe  Fe36  1  0.50126851  0.17003329  0.49888215  1
  Cr  Cr37  1  0.33150947  0.00011334  0.66840801  1
  Fe  Fe38  1  0.49730847  0.16612069  0.83279216  1
  Ni  Ni39  1  0.49868233  0.49878476  0.49870207  1
  Ni  Ni40  1  0.33430340  0.33250369  0.66521121  1
  Cr  Cr41  1  0.50022993  0.50183837  0.83254923  1
  Fe  Fe42  1  0.50050198  0.83046191  0.49865938  1
  Ni  Ni43  1  0.33245577  0.66712411  0.66498141  1
  Ni  Ni44  1  0.49578357  0.83240138  0.83517619  1
  Ni  Ni45  1  0.83260728  0.16374894  0.50006721  1
  Cr  Cr46  1  0.66623724  0.00090678  0.66477559  1
  Cr  Cr47  1  0.83550188  0.16875117  0.83273861  1
  Cr  Cr48  1  0.83016130  0.49754568  0.50252374  1
  Ni  Ni49  1  0.66551104  0.33356338  0.66584201  1
  Ni  Ni50  1  0.83319527  0.49786033  0.83213935  1
  Ni  Ni51  1  0.83489010  0.83806586  0.49807156  1
  Cr  Cr52  1  0.66713784  0.66585101  0.66729828  1
  Cr  Cr53  1  0.83456865  0.83340464  0.83445590  1
" 