8255,Ni51Fe18Cr30_16,-227.461504007835, 172.777576566055,Ni51Fe18Cr30,"# generated using pymatgen
 data_Cr2FeNi3
_symmetry_space_group_name_H-M   'P 1'
_cell_length_a   7.46969298
_cell_length_b   7.46969298
_cell_length_c   10.56374112
_cell_angle_alpha   90.00000000
_cell_angle_beta   90.00000000
_cell_angle_gamma   90.00000000
_symmetry_Int_Tables_number   1
_chemical_formula_structural   Cr2FeNi3
_chemical_formula_sum   'Cr18 Fe9 Ni27'
_cell_volume   589.41780766
_cell_formula_units_Z   9
loop_
 _symmetry_equiv_pos_site_id
 _symmetry_equiv_pos_as_xyz
  1  'x, y, z'
loop_
 _atom_site_type_symbol
 _atom_site_label
 _atom_site_symmetry_multiplicity
 _atom_site_fract_x
 _atom_site_fract_y
 _atom_site_fract_z
 _atom_site_occupancy
  Ni  Ni0  1  0.99676388  0.99975260  0.00103702  1
  Ni  Ni1  1  0.16664835  0.16850617  0.16687536  1
  Ni  Ni2  1  0.00058468  0.00019043  0.33211106  1
  Ni  Ni3  1  0.99816816  0.33255373  0.00085672  1
  Ni  Ni4  1  0.16335206  0.49599532  0.16490149  1
  Ni  Ni5  1  0.99862578  0.33228082  0.33090673  1
  Ni  Ni6  1  0.99707935  0.66714912  0.00174896  1
  Ni  Ni7  1  0.16463507  0.83532388  0.16700331  1
  Cr  Cr8  1  0.99918615  0.66684774  0.33269016  1
  Cr  Cr9  1  0.33191440  0.00116143  0.00295236  1
  Ni  Ni10  1  0.49922712  0.16538613  0.16961567  1
  Ni  Ni11  1  0.33265954  0.00158657  0.33244087  1
  Ni  Ni12  1  0.33388640  0.33316048  0.00162884  1
  Fe  Fe13  1  0.50023746  0.49844864  0.16774439  1
  Ni  Ni14  1  0.33501601  0.33126523  0.33198669  1
  Cr  Cr15  1  0.33309240  0.66455751  0.00410505  1
  Ni  Ni16  1  0.50332421  0.83581159  0.16642051  1
  Cr  Cr17  1  0.33257268  0.66605962  0.32967760  1
  Fe  Fe18  1  0.66932865  0.00029479  0.00261154  1
  Fe  Fe19  1  0.83509137  0.16556942  0.16829819  1
  Ni  Ni20  1  0.66645586  0.00157753  0.33035993  1
  Cr  Cr21  1  0.66701528  0.33290131  0.00165023  1
  Ni  Ni22  1  0.83470410  0.50004998  0.16723086  1
  Ni  Ni23  1  0.66572554  0.33365246  0.33262180  1
  Fe  Fe24  1  0.66985306  0.66518281  0.00056645  1
  Ni  Ni25  1  0.83204389  0.83266448  0.16623865  1
  Fe  Fe26  1  0.66713397  0.66528041  0.33224958  1
  Ni  Ni27  1  0.16715402  0.16772809  0.49869724  1
  Cr  Cr28  1  0.99954914  0.00094336  0.66558301  1
  Fe  Fe29  1  0.16348272  0.16842813  0.83496451  1
  Cr  Cr30  1  0.16455010  0.49395444  0.49950195  1
  Ni  Ni31  1  0.99914387  0.33238482  0.66795938  1
  Cr  Cr32  1  0.16498147  0.49623383  0.83483242  1
  Fe  Fe33  1  0.16624605  0.83533509  0.49667282  1
  Cr  Cr34  1  0.99679781  0.66711646  0.66384922  1
  Cr  Cr35  1  0.16439504  0.83312966  0.83467357  1
  Ni  Ni36  1  0.49748359  0.16762901  0.49717394  1
  Cr  Cr37  1  0.33126129  0.00203259  0.66416896  1
  Cr  Cr38  1  0.49767731  0.16708632  0.83289800  1
  Ni  Ni39  1  0.50204756  0.49810594  0.49896241  1
  Ni  Ni40  1  0.33376570  0.33282977  0.66611009  1
  Ni  Ni41  1  0.50201538  0.49870846  0.83320937  1
  Cr  Cr42  1  0.50271069  0.83488472  0.49838948  1
  Cr  Cr43  1  0.33504947  0.66464905  0.66557218  1
  Cr  Cr44  1  0.50392981  0.83198804  0.83542362  1
  Cr  Cr45  1  0.83386636  0.16886405  0.49533530  1
  Cr  Cr46  1  0.66903816  0.00097053  0.66773877  1
  Fe  Fe47  1  0.83568371  0.16767729  0.83511836  1
  Ni  Ni48  1  0.83174351  0.50032673  0.49929498  1
  Cr  Cr49  1  0.66697026  0.33504550  0.66558258  1
  Ni  Ni50  1  0.83395393  0.50128569  0.83304764  1
  Fe  Fe51  1  0.83153514  0.83356934  0.49726336  1
  Ni  Ni52  1  0.66840417  0.66447487  0.66675225  1
  Ni  Ni53  1  0.83267637  0.83184602  0.83513262  1
" 