8346,Ni51Cr49_18,-219.023836316323, 132.045015517834,Ni51Cr49,"# generated using pymatgen
 data_CrNi
_symmetry_space_group_name_H-M   'P 1'
_cell_length_a   7.52358769
_cell_length_b   7.52358769
_cell_length_c   10.63995975
_cell_angle_alpha   90.00000000
_cell_angle_beta   90.00000000
_cell_angle_gamma   90.00000000
_symmetry_Int_Tables_number   1
_chemical_formula_structural   CrNi
_chemical_formula_sum   'Cr27 Ni27'
_cell_volume   602.26823679
_cell_formula_units_Z   27
loop_
 _symmetry_equiv_pos_site_id
 _symmetry_equiv_pos_as_xyz
  1  'x, y, z'
loop_
 _atom_site_type_symbol
 _atom_site_label
 _atom_site_symmetry_multiplicity
 _atom_site_fract_x
 _atom_site_fract_y
 _atom_site_fract_z
 _atom_site_occupancy
  Cr  Cr0  1  0.99537853  0.99560059  0.99599167  1
  Cr  Cr1  1  0.16247818  0.16262367  0.16437042  1
  Ni  Ni2  1  -0.00174971  0.99228249  0.32985101  1
  Ni  Ni3  1  0.99368728  0.33219379  0.99621219  1
  Ni  Ni4  1  0.16023657  0.49897357  0.16188219  1
  Cr  Cr5  1  -0.00319484  0.33287050  0.33074675  1
  Cr  Cr6  1  -0.00168535  0.66126370  -0.00200411  1
  Ni  Ni7  1  0.15985177  0.82670513  0.16429065  1
  Ni  Ni8  1  -0.00305993  0.66371065  0.32842306  1
  Cr  Cr9  1  0.33215383  0.99382020  -0.00353585  1
  Ni  Ni10  1  0.49839142  0.16322340  0.16113001  1
  Cr  Cr11  1  0.32800145  0.99600470  0.32937653  1
  Cr  Cr12  1  0.32916183  0.33011965  -0.00291863  1
  Cr  Cr13  1  0.49655706  0.49563461  0.16056900  1
  Cr  Cr14  1  0.32853792  0.32834022  0.32955832  1
  Ni  Ni15  1  0.32872559  0.66354826  0.99498708  1
  Cr  Cr16  1  0.49715206  0.82924099  0.16056392  1
  Cr  Cr17  1  0.32562188  0.66432484  0.33020374  1
  Ni  Ni18  1  0.66169502  -0.00246604  0.99523108  1
  Cr  Cr19  1  0.82899039  0.16202969  0.16088950  1
  Cr  Cr20  1  0.66212621  0.99560282  0.32837948  1
  Ni  Ni21  1  0.66478354  0.32772059  -0.00326151  1
  Ni  Ni22  1  0.83116148  0.49810296  0.16166184  1
  Cr  Cr23  1  0.66343465  0.33043217  0.32916108  1
  Ni  Ni24  1  0.66231440  0.66347617  -0.00228960  1
  Ni  Ni25  1  0.83142311  0.82776206  0.16349012  1
  Cr  Cr26  1  0.66682796  0.66262769  0.33070243  1
  Ni  Ni27  1  0.16278476  0.16126893  0.49773770  1
  Ni  Ni28  1  -0.00148588  -0.00357221  0.66235675  1
  Cr  Cr29  1  0.16157769  0.16311664  0.82723139  1
  Ni  Ni30  1  0.16239398  0.49705951  0.49712036  1
  Cr  Cr31  1  -0.00227493  0.32990955  0.66286269  1
  Ni  Ni32  1  0.16532608  0.49780118  0.82973253  1
  Ni  Ni33  1  0.16355505  0.83038268  0.49673898  1
  Cr  Cr34  1  -0.00038450  0.66280816  0.66197779  1
  Ni  Ni35  1  0.16680800  0.82802982  0.82764759  1
  Cr  Cr36  1  0.49360269  0.16156090  0.49750128  1
  Ni  Ni37  1  0.32994869  0.99442437  0.66234766  1
  Ni  Ni38  1  0.49907725  0.16028715  0.82899601  1
  Cr  Cr39  1  0.49457055  0.49809237  0.49779158  1
  Ni  Ni40  1  0.32771210  0.32902994  0.66229181  1
  Cr  Cr41  1  0.49339397  0.49793598  0.83041861  1
  Ni  Ni42  1  0.49347450  0.82999926  0.49944200  1
  Ni  Ni43  1  0.32765346  0.66531151  0.66317209  1
  Ni  Ni44  1  0.49451730  0.83129888  0.82926740  1
  Cr  Cr45  1  0.83281432  0.16111179  0.49770796  1
  Ni  Ni46  1  0.66026788  -0.00350619  0.66506308  1
  Ni  Ni47  1  0.82686232  0.16165696  0.83054373  1
  Ni  Ni48  1  0.83234509  0.49729161  0.49442262  1
  Cr  Cr49  1  0.66307364  0.32745718  0.66294720  1
  Cr  Cr50  1  0.82985207  0.49396287  0.83227517  1
  Cr  Cr51  1  0.83116652  0.83019968  0.49538567  1
  Cr  Cr52  1  0.66133838  0.66510598  0.66090911  1
  Cr  Cr53  1  0.82812058  0.83330032  0.82954272  1
" 