6173,Ni51Fe18Cr30_5,-227.881672502856, 178.385069668428,Ni51Fe18Cr30,"# generated using pymatgen
 data_Cr2FeNi3
_symmetry_space_group_name_H-M   'P 1'
_cell_length_a   7.47040542
_cell_length_b   7.47040542
_cell_length_c   10.56474867
_cell_angle_alpha   90.00000000
_cell_angle_beta   90.00000000
_cell_angle_gamma   90.00000000
_symmetry_Int_Tables_number   1
_chemical_formula_structural   Cr2FeNi3
_chemical_formula_sum   'Cr18 Fe9 Ni27'
_cell_volume   589.58647657
_cell_formula_units_Z   9
loop_
 _symmetry_equiv_pos_site_id
 _symmetry_equiv_pos_as_xyz
  1  'x, y, z'
loop_
 _atom_site_type_symbol
 _atom_site_label
 _atom_site_symmetry_multiplicity
 _atom_site_fract_x
 _atom_site_fract_y
 _atom_site_fract_z
 _atom_site_occupancy
  Cr  Cr0  1  0.99937807  0.00136640  0.00274722  1
  Ni  Ni1  1  0.16731510  0.16825628  0.16878963  1
  Ni  Ni2  1  0.00302361  0.00380150  0.33157009  1
  Ni  Ni3  1  0.99788237  0.33223279  0.00170953  1
  Cr  Cr4  1  0.16721978  0.50013461  0.16337367  1
  Ni  Ni5  1  0.99880235  0.33138767  0.33199685  1
  Ni  Ni6  1  -0.00014263  0.66627313  0.00257054  1
  Ni  Ni7  1  0.16753388  0.83328967  0.16960073  1
  Fe  Fe8  1  0.00145175  0.66684178  0.33337749  1
  Cr  Cr9  1  0.33289111  0.00058045  0.00071301  1
  Ni  Ni10  1  0.49901440  0.16766361  0.16880937  1
  Ni  Ni11  1  0.33192182  0.00001852  0.33533206  1
  Fe  Fe12  1  0.33450407  0.33362686  0.00108846  1
  Ni  Ni13  1  0.49911678  0.49787643  0.16838825  1
  Fe  Fe14  1  0.33309957  0.33200681  0.33324025  1
  Ni  Ni15  1  0.33475604  0.66595182  0.99950012  1
  Cr  Cr16  1  0.49866850  0.83369287  0.16707906  1
  Ni  Ni17  1  0.33566059  0.66710555  0.33352897  1
  Fe  Fe18  1  0.66650429  0.00044456  0.99952832  1
  Ni  Ni19  1  0.83234633  0.16813125  0.16734232  1
  Ni  Ni20  1  0.66430050  0.00085094  0.33067953  1
  Cr  Cr21  1  0.66576647  0.33303819  0.00136641  1
  Ni  Ni22  1  0.83356488  0.49789947  0.17011561  1
  Fe  Fe23  1  0.66533211  0.33274447  0.33215050  1
  Cr  Cr24  1  0.66470561  0.66411413  0.99919437  1
  Cr  Cr25  1  0.83225847  0.83245371  0.16991712  1
  Ni  Ni26  1  0.66300840  0.66260690  0.33387114  1
  Ni  Ni27  1  0.16819031  0.16617391  0.49819844  1
  Cr  Cr28  1  0.00211818  0.99977486  0.66497484  1
  Cr  Cr29  1  0.16725991  0.17054341  0.83205406  1
  Cr  Cr30  1  0.16385005  0.49935363  0.50065505  1
  Ni  Ni31  1  0.99819114  0.33250922  0.66561035  1
  Cr  Cr32  1  0.16726357  0.49990657  0.83541855  1
  Ni  Ni33  1  0.17087322  0.83352876  0.49857555  1
  Ni  Ni34  1  0.00045649  0.66624340  0.66373200  1
  Cr  Cr35  1  0.16654163  0.82989117  0.83177047  1
  Fe  Fe36  1  0.49969633  0.16476133  0.49777191  1
  Fe  Fe37  1  0.33457884  0.99901871  0.66437176  1
  Ni  Ni38  1  0.50145974  0.16673194  0.83283981  1
  Fe  Fe39  1  0.49924675  0.50079328  0.49782807  1
  Cr  Cr40  1  0.33604913  0.33328962  0.66469885  1
  Ni  Ni41  1  0.49923662  0.49863768  0.83229936  1
  Ni  Ni42  1  0.49775086  0.83418935  0.49866554  1
  Ni  Ni43  1  0.33468096  0.66779029  0.66638068  1
  Ni  Ni44  1  0.50000206  0.83410400  0.83345257  1
  Cr  Cr45  1  0.83226479  0.16862586  0.49880686  1
  Cr  Cr46  1  0.66517224  0.00020512  0.67026305  1
  Fe  Fe47  1  0.83145192  0.16725406  0.83355670  1
  Ni  Ni48  1  0.83155957  0.49779879  0.49820861  1
  Ni  Ni49  1  0.66586708  0.33332385  0.66483029  1
  Cr  Cr50  1  0.83676844  0.49969397  0.83019826  1
  Cr  Cr51  1  0.83162125  0.83184539  0.49501523  1
  Cr  Cr52  1  0.66380150  0.66447640  0.66561580  1
  Ni  Ni53  1  0.83202715  0.83300904  0.83449068  1
" 