2475,Ni51Cr49_17,-219.146899447444, 134.946781034003,Ni51Cr49,"# generated using pymatgen
 data_CrNi
_symmetry_space_group_name_H-M   'P 1'
_cell_length_a   7.52023294
_cell_length_b   7.52023294
_cell_length_c   10.63521541
_cell_angle_alpha   90.00000000
_cell_angle_beta   90.00000000
_cell_angle_gamma   90.00000000
_symmetry_Int_Tables_number   1
_chemical_formula_structural   CrNi
_chemical_formula_sum   'Cr27 Ni27'
_cell_volume   601.46294539
_cell_formula_units_Z   27
loop_
 _symmetry_equiv_pos_site_id
 _symmetry_equiv_pos_as_xyz
  1  'x, y, z'
loop_
 _atom_site_type_symbol
 _atom_site_label
 _atom_site_symmetry_multiplicity
 _atom_site_fract_x
 _atom_site_fract_y
 _atom_site_fract_z
 _atom_site_occupancy
  Ni  Ni0  1  -0.00271661  -0.00299119  -0.00258151  1
  Ni  Ni1  1  0.16108077  0.16587384  0.16498959  1
  Ni  Ni2  1  0.99565859  -0.00157657  0.32971163  1
  Ni  Ni3  1  -0.00050045  0.33145851  -0.00266068  1
  Ni  Ni4  1  0.16202955  0.49358825  0.16402953  1
  Ni  Ni5  1  -0.00127954  0.33102777  0.33098213  1
  Ni  Ni6  1  -0.00286415  0.66115094  -0.00308774  1
  Cr  Cr7  1  0.16118599  0.83039321  0.16549032  1
  Ni  Ni8  1  0.99550278  0.65985911  0.33068554  1
  Cr  Cr9  1  0.32834611  -0.00268965  -0.00240737  1
  Cr  Cr10  1  0.49334394  0.16429546  0.16694916  1
  Ni  Ni11  1  0.32939465  0.00006232  0.32980789  1
  Cr  Cr12  1  0.32923002  0.33160407  -0.00178436  1
  Ni  Ni13  1  0.49531536  0.49757201  0.16397435  1
  Ni  Ni14  1  0.32822641  0.33049977  0.32946096  1
  Cr  Cr15  1  0.32921992  0.66067095  0.99491062  1
  Cr  Cr16  1  0.49819683  0.82782508  0.16597336  1
  Cr  Cr17  1  0.32853082  0.65886412  0.33114060  1
  Cr  Cr18  1  0.66452948  0.99618896  -0.00303460  1
  Cr  Cr19  1  0.83350036  0.16476015  0.16331964  1
  Ni  Ni20  1  0.66416942  -0.00295651  0.33206131  1
  Cr  Cr21  1  0.66211138  0.33165061  -0.00334926  1
  Cr  Cr22  1  0.83100173  0.49758354  0.16294300  1
  Cr  Cr23  1  0.66346550  0.33059417  0.33255103  1
  Ni  Ni24  1  0.66320639  0.66054785  -0.00328498  1
  Cr  Cr25  1  0.82988050  0.82738227  0.16392933  1
  Ni  Ni26  1  0.66400099  0.66122798  0.33067279  1
  Cr  Cr27  1  0.16206436  0.16509147  0.49452941  1
  Ni  Ni28  1  0.99242086  -0.00093521  0.66235793  1
  Cr  Cr29  1  0.15977281  0.16622260  0.83052144  1
  Ni  Ni30  1  0.16228818  0.49464941  0.49565558  1
  Ni  Ni31  1  0.99432189  0.33066482  0.66107383  1
  Ni  Ni32  1  0.16281103  0.49616239  0.82958038  1
  Cr  Cr33  1  0.16314638  0.82943507  0.49573047  1
  Cr  Cr34  1  -0.00187907  0.66066320  0.66058454  1
  Cr  Cr35  1  0.16163373  0.82893788  0.82782850  1
  Ni  Ni36  1  0.49865682  0.16466709  0.49547097  1
  Cr  Cr37  1  0.32968239  0.99558642  0.66261076  1
  Cr  Cr38  1  0.49807613  0.16611824  0.82684474  1
  Ni  Ni39  1  0.49732589  0.49524803  0.49739278  1
  Cr  Cr40  1  0.32980678  0.33302034  0.66213656  1
  Ni  Ni41  1  0.49679578  0.49821532  0.82795079  1
  Cr  Cr42  1  0.49714147  0.82905448  0.49630559  1
  Ni  Ni43  1  0.33150044  0.65826691  0.66324264  1
  Cr  Cr44  1  0.49839045  0.82710769  0.82752934  1
  Ni  Ni45  1  0.82969530  0.16478325  0.49775678  1
  Ni  Ni46  1  0.66561042  -0.00172546  0.66059432  1
  Cr  Cr47  1  0.83120467  0.16546908  0.82810946  1
  Ni  Ni48  1  0.82983020  0.49422991  0.49615278  1
  Ni  Ni49  1  0.66424238  0.33117952  0.66013835  1
  Cr  Cr50  1  0.82987109  0.49544390  0.83019935  1
  Cr  Cr51  1  0.82929648  0.82866148  0.49462978  1
  Ni  Ni52  1  0.66178806  0.65982000  0.66204570  1
  Cr  Cr53  1  0.82978627  0.82854307  0.83068292  1
" 