1702,Ni51Fe18Cr30_15,-227.380137393797, 170.946235678766,Ni51Fe18Cr30,"# generated using pymatgen
 data_Cr2FeNi3
_symmetry_space_group_name_H-M   'P 1'
_cell_length_a   7.47205563
_cell_length_b   7.47205563
_cell_length_c   10.56708242
_cell_angle_alpha   90.00000000
_cell_angle_beta   90.00000000
_cell_angle_gamma   90.00000000
_symmetry_Int_Tables_number   1
_chemical_formula_structural   Cr2FeNi3
_chemical_formula_sum   'Cr18 Fe9 Ni27'
_cell_volume   589.97728128
_cell_formula_units_Z   9
loop_
 _symmetry_equiv_pos_site_id
 _symmetry_equiv_pos_as_xyz
  1  'x, y, z'
loop_
 _atom_site_type_symbol
 _atom_site_label
 _atom_site_symmetry_multiplicity
 _atom_site_fract_x
 _atom_site_fract_y
 _atom_site_fract_z
 _atom_site_occupancy
  Cr  Cr0  1  0.00126459  0.99931481  0.00040661  1
  Fe  Fe1  1  0.16657485  0.16633123  0.16693220  1
  Fe  Fe2  1  0.00087817  0.00110511  0.33073205  1
  Ni  Ni3  1  0.99925190  0.33241665  0.99781039  1
  Cr  Cr4  1  0.16608906  0.49863669  0.16660479  1
  Ni  Ni5  1  0.00061773  0.33102170  0.33384414  1
  Cr  Cr6  1  -0.00005904  0.66655747  0.99759088  1
  Fe  Fe7  1  0.16682495  0.83595296  0.16680685  1
  Ni  Ni8  1  -0.00019725  0.66685462  0.33130130  1
  Ni  Ni9  1  0.33421333  0.99786451  0.00023228  1
  Ni  Ni10  1  0.49817073  0.16521020  0.16482949  1
  Ni  Ni11  1  0.33213896  0.00102640  0.33138909  1
  Fe  Fe12  1  0.33175170  0.33296681  0.99921136  1
  Cr  Cr13  1  0.50024432  0.49678588  0.16616235  1
  Ni  Ni14  1  0.33234330  0.33066598  0.33332236  1
  Fe  Fe15  1  0.33419531  0.66692162  0.99691995  1
  Fe  Fe16  1  0.50109851  0.83386935  0.16442211  1
  Cr  Cr17  1  0.33454091  0.66754832  0.33301636  1
  Fe  Fe18  1  0.66653958  0.99748219  0.00185198  1
  Ni  Ni19  1  0.83199710  0.16610261  0.16728540  1
  Cr  Cr20  1  0.66450791  0.99911745  0.33084982  1
  Ni  Ni21  1  0.66675120  0.33412105  0.00029218  1
  Cr  Cr22  1  0.83278003  0.50009455  0.16737467  1
  Ni  Ni23  1  0.66616775  0.33228581  0.33305607  1
  Ni  Ni24  1  0.66445298  0.66748415  0.99753925  1
  Ni  Ni25  1  0.83308763  0.83341992  0.16724292  1
  Ni  Ni26  1  0.66610423  0.66716703  0.33372350  1
  Ni  Ni27  1  0.16712795  0.16648833  0.49620817  1
  Cr  Cr28  1  0.00206450  0.00052399  0.66767301  1
  Ni  Ni29  1  0.16905078  0.16562739  0.83535915  1
  Ni  Ni30  1  0.16654224  0.49922687  0.49861492  1
  Cr  Cr31  1  0.00118974  0.33514447  0.66775613  1
  Ni  Ni32  1  0.16722319  0.50082873  0.83374880  1
  Cr  Cr33  1  0.16671915  0.83322973  0.49966498  1
  Ni  Ni34  1  0.00193490  0.66523074  0.67004035  1
  Ni  Ni35  1  0.16878064  0.83258594  0.83219179  1
  Cr  Cr36  1  0.49666119  0.16524854  0.49905048  1
  Ni  Ni37  1  0.33236480  0.99599525  0.66706400  1
  Cr  Cr38  1  0.49704343  0.16511401  0.83608928  1
  Ni  Ni39  1  0.49854153  0.50177001  0.49764952  1
  Cr  Cr40  1  0.33145740  0.33594665  0.66620857  1
  Ni  Ni41  1  0.49945434  0.50243050  0.83465833  1
  Ni  Ni42  1  0.49880230  0.83131433  0.50028369  1
  Ni  Ni43  1  0.33365631  0.66728941  0.66771469  1
  Ni  Ni44  1  0.49817083  0.83107743  0.83421697  1
  Fe  Fe45  1  0.83517214  0.16701344  0.49678580  1
  Cr  Cr46  1  0.66411157  0.99709024  0.66784558  1
  Cr  Cr47  1  0.83197212  0.16667566  0.83499210  1
  Cr  Cr48  1  0.83413807  0.50210783  0.49681028  1
  Cr  Cr49  1  0.66614058  0.33664854  0.66501461  1
  Ni  Ni50  1  0.83211361  0.50265678  0.83462653  1
  Cr  Cr51  1  0.83373342  0.83156342  0.50006478  1
  Fe  Fe52  1  0.66349626  0.66591092  0.66819777  1
  Ni  Ni53  1  0.83191026  0.82883949  0.83262307  1
" 