3615,Ni51Cr49_12,-219.175975967509, 135.670631768945,Ni51Cr49,"# generated using pymatgen
 data_CrNi
_symmetry_space_group_name_H-M   'P 1'
_cell_length_a   7.51882341
_cell_length_b   7.51882341
_cell_length_c   10.63322204
_cell_angle_alpha   90.00000000
_cell_angle_beta   90.00000000
_cell_angle_gamma   90.00000000
_symmetry_Int_Tables_number   1
_chemical_formula_structural   CrNi
_chemical_formula_sum   'Cr27 Ni27'
_cell_volume   601.12480971
_cell_formula_units_Z   27
loop_
 _symmetry_equiv_pos_site_id
 _symmetry_equiv_pos_as_xyz
  1  'x, y, z'
loop_
 _atom_site_type_symbol
 _atom_site_label
 _atom_site_symmetry_multiplicity
 _atom_site_fract_x
 _atom_site_fract_y
 _atom_site_fract_z
 _atom_site_occupancy
  Ni  Ni0  1  0.00018756  0.99636171  -0.00122650  1
  Ni  Ni1  1  0.16302282  0.15995503  0.16427726  1
  Ni  Ni2  1  -0.00260847  -0.00224547  0.32685392  1
  Cr  Cr3  1  -0.00109845  0.32673121  -0.00096808  1
  Ni  Ni4  1  0.16456356  0.49576378  0.16469884  1
  Cr  Cr5  1  -0.00103297  0.32841385  0.32796271  1
  Cr  Cr6  1  -0.00218920  0.66383543  -0.00117500  1
  Ni  Ni7  1  0.16350731  0.83363726  0.16288552  1
  Cr  Cr8  1  -0.00234109  0.66368258  0.32852427  1
  Ni  Ni9  1  0.32656622  0.99643720  0.99601430  1
  Cr  Cr10  1  0.49348523  0.16299338  0.16533615  1
  Ni  Ni11  1  0.32911065  -0.00299531  0.32933392  1
  Cr  Cr12  1  0.32829501  0.32934355  0.99531799  1
  Ni  Ni13  1  0.49710341  0.49673528  0.16387528  1
  Ni  Ni14  1  0.32832055  0.32886949  0.32878340  1
  Cr  Cr15  1  0.33119149  0.66303961  -0.00154204  1
  Ni  Ni16  1  0.49549940  0.83086959  0.16355409  1
  Cr  Cr17  1  0.33004885  0.66305885  0.32836940  1
  Cr  Cr18  1  0.66349584  0.99532215  -0.00168216  1
  Ni  Ni19  1  0.83123912  0.16114286  0.16528553  1
  Ni  Ni20  1  0.66308624  -0.00336106  0.32847891  1
  Cr  Cr21  1  0.66199544  0.33064597  -0.00335117  1
  Ni  Ni22  1  0.82808607  0.49656518  0.16324458  1
  Ni  Ni23  1  0.66287656  0.32887689  0.32698025  1
  Ni  Ni24  1  0.66234842  0.66275754  -0.00029099  1
  Ni  Ni25  1  0.83065476  0.83176229  0.16304845  1
  Cr  Cr26  1  0.66190164  0.66634516  0.32693047  1
  Ni  Ni27  1  0.16573164  0.16244893  0.49426385  1
  Cr  Cr28  1  -0.00049527  -0.00232902  0.66406075  1
  Ni  Ni29  1  0.16640064  0.15979599  0.83114301  1
  Ni  Ni30  1  0.16374817  0.49460357  0.49676714  1
  Cr  Cr31  1  -0.00037488  0.32930724  0.66319409  1
  Ni  Ni32  1  0.16426678  0.49786208  0.82858479  1
  Cr  Cr33  1  0.16441349  0.83147488  0.49679266  1
  Ni  Ni34  1  0.00024880  0.66235632  0.66419104  1
  Ni  Ni35  1  0.16397488  0.83165654  0.82997942  1
  Cr  Cr36  1  0.49446232  0.16272344  0.49441206  1
  Ni  Ni37  1  0.32875521  -0.00235960  0.66402124  1
  Ni  Ni38  1  0.49264069  0.16389818  0.82859923  1
  Cr  Cr39  1  0.49613553  0.49403660  0.49467667  1
  Cr  Cr40  1  0.32884441  0.32798293  0.66498366  1
  Ni  Ni41  1  0.49620646  0.49509359  0.83016721  1
  Ni  Ni42  1  0.49446268  0.83331488  0.49480410  1
  Cr  Cr43  1  0.32875263  0.66409825  0.66269394  1
  Cr  Cr44  1  0.49351250  0.83093964  0.83140942  1
  Cr  Cr45  1  0.82916738  0.16412484  0.49399407  1
  Cr  Cr46  1  0.65919142  -0.00171600  0.66233374  1
  Cr  Cr47  1  0.82977069  0.16336824  0.83051208  1
  Cr  Cr48  1  0.83062944  0.49587549  0.49877193  1
  Ni  Ni49  1  0.66090447  0.32966189  0.66540046  1
  Cr  Cr50  1  0.82947765  0.49789351  0.82838013  1
  Cr  Cr51  1  0.83101903  0.83029857  0.49653712  1
  Cr  Cr52  1  0.66093244  0.66466816  0.66295264  1
  Cr  Cr53  1  0.83397862  0.82845061  0.83092799  1
" 