3825,Ni51Fe18Cr30_17,-227.758772360252, 179.574470925228,Ni51Fe18Cr30,"# generated using pymatgen
 data_Cr2FeNi3
_symmetry_space_group_name_H-M   'P 1'
_cell_length_a   7.46754454
_cell_length_b   7.46754454
_cell_length_c   10.56070277
_cell_angle_alpha   90.00000000
_cell_angle_beta   90.00000000
_cell_angle_gamma   90.00000000
_symmetry_Int_Tables_number   1
_chemical_formula_structural   Cr2FeNi3
_chemical_formula_sum   'Cr18 Fe9 Ni27'
_cell_volume   588.90936868
_cell_formula_units_Z   9
loop_
 _symmetry_equiv_pos_site_id
 _symmetry_equiv_pos_as_xyz
  1  'x, y, z'
loop_
 _atom_site_type_symbol
 _atom_site_label
 _atom_site_symmetry_multiplicity
 _atom_site_fract_x
 _atom_site_fract_y
 _atom_site_fract_z
 _atom_site_occupancy
  Cr  Cr0  1  0.00132255  0.00036107  0.99892327  1
  Ni  Ni1  1  0.16780371  0.16944085  0.16748085  1
  Cr  Cr2  1  0.00178579  0.99702856  0.33427775  1
  Ni  Ni3  1  0.99982931  0.33411239  0.00167383  1
  Ni  Ni4  1  0.16726000  0.49924009  0.16413085  1
  Fe  Fe5  1  0.00316138  0.33519437  0.33214161  1
  Ni  Ni6  1  0.00283995  0.66315807  0.00148890  1
  Ni  Ni7  1  0.17030387  0.83175889  0.16700541  1
  Cr  Cr8  1  0.00014466  0.66462302  0.33218381  1
  Cr  Cr9  1  0.33606774  0.00091685  0.00289651  1
  Ni  Ni10  1  0.50019763  0.16697346  0.16713695  1
  Ni  Ni11  1  0.33559958  0.00202378  0.33128608  1
  Fe  Fe12  1  0.33205314  0.33481545  -0.00000504  1
  Cr  Cr13  1  0.49906233  0.50138544  0.16744620  1
  Ni  Ni14  1  0.33301027  0.33213510  0.33186979  1
  Ni  Ni15  1  0.33241118  0.66654691  0.00082959  1
  Ni  Ni16  1  0.49826640  0.83341727  0.16932815  1
  Ni  Ni17  1  0.33198896  0.66646916  0.33169824  1
  Fe  Fe18  1  0.66561070  0.00149374  0.99898139  1
  Cr  Cr19  1  0.83267086  0.16970174  0.16769348  1
  Ni  Ni20  1  0.66342679  0.99978461  0.33095632  1
  Ni  Ni21  1  0.66564767  0.33101882  0.99921342  1
  Fe  Fe22  1  0.83352299  0.49943083  0.16588041  1
  Fe  Fe23  1  0.66380259  0.33390974  0.33300580  1
  Cr  Cr24  1  0.66445162  0.66720775  0.99868194  1
  Cr  Cr25  1  0.83103389  0.83356740  0.16354359  1
  Ni  Ni26  1  0.66824923  0.66759293  0.33477019  1
  Cr  Cr27  1  0.17066943  0.16494428  0.49973925  1
  Fe  Fe28  1  0.00059154  0.00034339  0.66723319  1
  Ni  Ni29  1  0.16414398  0.16797548  0.83376923  1
  Ni  Ni30  1  0.16578358  0.50151704  0.49800680  1
  Cr  Cr31  1  0.00037932  0.33710719  0.66490939  1
  Ni  Ni32  1  0.16762795  0.49927378  0.83729645  1
  Ni  Ni33  1  0.16592482  0.83215963  0.50068220  1
  Ni  Ni34  1  0.99792560  0.66709581  0.66469578  1
  Cr  Cr35  1  0.16754192  0.83211249  0.83163533  1
  Ni  Ni36  1  0.50101897  0.16672795  0.49833103  1
  Ni  Ni37  1  0.33466174  0.00026653  0.66630416  1
  Fe  Fe38  1  0.49933806  0.16829573  0.83516524  1
  Cr  Cr39  1  0.50017854  0.49809529  0.49927023  1
  Cr  Cr40  1  0.33597257  0.33145232  0.67104968  1
  Ni  Ni41  1  0.49998345  0.50045801  0.83422393  1
  Cr  Cr42  1  0.49793577  0.83450072  0.49599635  1
  Cr  Cr43  1  0.33106615  0.66515127  0.66637925  1
  Ni  Ni44  1  0.50016309  0.83232078  0.83437791  1
  Cr  Cr45  1  0.83116470  0.16706251  0.49724986  1
  Cr  Cr46  1  0.66469346  0.00112681  0.67053104  1
  Ni  Ni47  1  0.83276629  0.16677039  0.83470612  1
  Ni  Ni48  1  0.83228891  0.50118601  0.49790260  1
  Ni  Ni49  1  0.66726529  0.33262993  0.66650694  1
  Cr  Cr50  1  0.83348898  0.49809577  0.83446030  1
  Ni  Ni51  1  0.83287202  0.83161275  0.50372413  1
  Fe  Fe52  1  0.66655790  0.66495538  0.66691336  1
  Fe  Fe53  1  0.83467449  0.83165773  0.83262420  1
" 