4424,Ni51Fe4Cr44_15,-221.016051588918, 141.35949029583,Ni51Fe4Cr44,"# generated using pymatgen
 data_Cr25Fe2Ni27
_symmetry_space_group_name_H-M   'P 1'
_cell_length_a   7.51056337
_cell_length_b   7.51056337
_cell_length_c   10.62154058
_cell_angle_alpha   90.00000000
_cell_angle_beta   90.00000000
_cell_angle_gamma   90.00000000
_symmetry_Int_Tables_number   1
_chemical_formula_structural   Cr25Fe2Ni27
_chemical_formula_sum   'Cr25 Fe2 Ni27'
_cell_volume   599.14583214
_cell_formula_units_Z   1
loop_
 _symmetry_equiv_pos_site_id
 _symmetry_equiv_pos_as_xyz
  1  'x, y, z'
loop_
 _atom_site_type_symbol
 _atom_site_label
 _atom_site_symmetry_multiplicity
 _atom_site_fract_x
 _atom_site_fract_y
 _atom_site_fract_z
 _atom_site_occupancy
  Cr  Cr0  1  -0.00227616  0.99682483  -0.00159287  1
  Ni  Ni1  1  0.16392204  0.16171807  0.16034519  1
  Cr  Cr2  1  -0.00178540  0.99377546  0.32981628  1
  Ni  Ni3  1  0.99632020  0.33342811  0.99479728  1
  Cr  Cr4  1  0.16307750  0.50116142  0.15874663  1
  Cr  Cr5  1  -0.00134470  0.33282259  0.32963593  1
  Ni  Ni6  1  0.99433256  0.66306163  -0.00215727  1
  Ni  Ni7  1  0.16262228  0.83125625  0.15990505  1
  Cr  Cr8  1  0.99535926  0.66503877  0.32839306  1
  Ni  Ni9  1  0.33198690  0.99657951  -0.00263328  1
  Ni  Ni10  1  0.49957801  0.16149157  0.16258199  1
  Cr  Cr11  1  0.32925169  -0.00202198  0.32779014  1
  Cr  Cr12  1  0.32880023  0.32603402  -0.00281878  1
  Cr  Cr13  1  0.49939426  0.49655182  0.16341898  1
  Cr  Cr14  1  0.32868382  0.32732037  0.32833054  1
  Ni  Ni15  1  0.32931727  0.66571205  0.99457979  1
  Cr  Cr16  1  0.49632885  0.82932332  0.16031167  1
  Cr  Cr17  1  0.32682892  0.66596740  0.33358879  1
  Ni  Ni18  1  0.66188675  0.99545601  0.99573752  1
  Cr  Cr19  1  0.82826032  0.16411678  0.16386374  1
  Ni  Ni20  1  0.66322877  0.99503747  0.33023463  1
  Ni  Ni21  1  0.66499905  0.33085408  0.99684931  1
  Ni  Ni22  1  0.82978587  0.49772362  0.15931244  1
  Ni  Ni23  1  0.66565714  0.33040856  0.32870292  1
  Ni  Ni24  1  0.66711178  0.66458500  0.99537521  1
  Ni  Ni25  1  0.83007484  0.82973972  0.16099418  1
  Cr  Cr26  1  0.66874314  0.66511466  0.33188366  1
  Ni  Ni27  1  0.16220380  0.16282686  0.49981511  1
  Ni  Ni28  1  -0.00049663  0.99627093  0.66307282  1
  Ni  Ni29  1  0.16357701  0.16392142  0.83041228  1
  Ni  Ni30  1  0.16115605  0.49828090  0.50033983  1
  Ni  Ni31  1  0.00031689  0.33179827  0.66516263  1
  Ni  Ni32  1  0.16088230  0.49703317  0.83131381  1
  Ni  Ni33  1  0.16324612  0.83049943  0.49942052  1
  Cr  Cr34  1  0.99317123  0.66330224  0.66329830  1
  Cr  Cr35  1  0.16283188  0.82877471  0.83214731  1
  Cr  Cr36  1  0.50063607  0.16329142  0.49385899  1
  Cr  Cr37  1  0.33126032  -0.00177409  0.66606806  1
  Ni  Ni38  1  0.49772645  0.16236289  0.83529632  1
  Cr  Cr39  1  0.49579892  0.49860210  0.49515765  1
  Cr  Cr40  1  0.32812250  0.32917369  0.66564600  1
  Cr  Cr41  1  0.49518085  0.49962569  0.83303829  1
  Ni  Ni42  1  0.49621861  0.83071472  0.49870347  1
  Fe  Fe43  1  0.32778492  0.66425076  0.66377619  1
  Fe  Fe44  1  0.49756781  0.83115923  0.83397935  1
  Cr  Cr45  1  0.83262025  0.16327400  0.49849102  1
  Cr  Cr46  1  0.66444780  0.99333839  0.66690126  1
  Cr  Cr47  1  0.83267229  0.16311122  0.82918501  1
  Ni  Ni48  1  0.83255153  0.49674485  0.49672652  1
  Cr  Cr49  1  0.66563413  0.33357662  0.66661146  1
  Ni  Ni50  1  0.83234131  0.49824830  0.83431804  1
  Ni  Ni51  1  0.83107799  0.83125340  0.49729118  1
  Cr  Cr52  1  0.66474426  0.66540592  0.66454068  1
  Ni  Ni53  1  0.83014375  0.82941541  0.83299878  1
" 