8032,Ni51Cr49_13,-218.991901399181, 128.180193699942,Ni51Cr49,"# generated using pymatgen
 data_CrNi
_symmetry_space_group_name_H-M   'P 1'
_cell_length_a   7.52499067
_cell_length_b   7.52499067
_cell_length_c   10.64194387
_cell_angle_alpha   90.00000000
_cell_angle_beta   90.00000000
_cell_angle_gamma   90.00000000
_symmetry_Int_Tables_number   1
_chemical_formula_structural   CrNi
_chemical_formula_sum   'Cr27 Ni27'
_cell_volume   602.60522870
_cell_formula_units_Z   27
loop_
 _symmetry_equiv_pos_site_id
 _symmetry_equiv_pos_as_xyz
  1  'x, y, z'
loop_
 _atom_site_type_symbol
 _atom_site_label
 _atom_site_symmetry_multiplicity
 _atom_site_fract_x
 _atom_site_fract_y
 _atom_site_fract_z
 _atom_site_occupancy
  Cr  Cr0  1  0.99605954  -0.00323580  0.99240703  1
  Cr  Cr1  1  0.15839972  0.16317255  0.16488503  1
  Ni  Ni2  1  0.99534125  0.99402663  0.33073182  1
  Ni  Ni3  1  0.99120470  0.33025151  0.99573999  1
  Cr  Cr4  1  0.15902388  0.49783856  0.16266563  1
  Ni  Ni5  1  0.99473142  0.33130140  0.32825308  1
  Ni  Ni6  1  -0.00383288  0.65981161  0.99495724  1
  Cr  Cr7  1  0.16372573  0.82720411  0.16220632  1
  Ni  Ni8  1  -0.00384158  0.66292943  0.33085740  1
  Cr  Cr9  1  0.33066272  0.99471492  0.99526440  1
  Cr  Cr10  1  0.49895622  0.15830221  0.16384700  1
  Ni  Ni11  1  0.32890378  0.99129540  0.32952512  1
  Cr  Cr12  1  0.33161958  0.32945449  0.99443160  1
  Cr  Cr13  1  0.49603204  0.50017243  0.16233673  1
  Cr  Cr14  1  0.32853713  0.33164554  0.33114221  1
  Ni  Ni15  1  0.32922687  0.66366178  0.99504781  1
  Ni  Ni16  1  0.49661576  0.82920982  0.16478003  1
  Ni  Ni17  1  0.32849203  0.66617760  0.33032376  1
  Ni  Ni18  1  0.66306221  -0.00045333  -0.00339677  1
  Ni  Ni19  1  0.82962937  0.16398261  0.16254854  1
  Ni  Ni20  1  0.66434712  0.99291922  0.32783995  1
  Ni  Ni21  1  0.66661063  0.32846992  0.99438139  1
  Ni  Ni22  1  0.83142844  0.49500090  0.16235793  1
  Cr  Cr23  1  0.66460434  0.33162249  0.32680435  1
  Cr  Cr24  1  0.66298087  0.66009898  -0.00295736  1
  Cr  Cr25  1  0.82906841  0.83010514  0.16379736  1
  Ni  Ni26  1  0.66420640  0.66559965  0.32892054  1
  Cr  Cr27  1  0.16251121  0.16435712  0.49403992  1
  Cr  Cr28  1  -0.00268223  0.99440324  0.66360441  1
  Ni  Ni29  1  0.16246577  0.16429613  0.82941926  1
  Ni  Ni30  1  0.16344164  0.49948752  0.49484258  1
  Cr  Cr31  1  -0.00345482  0.32978279  0.66354162  1
  Cr  Cr32  1  0.16265067  0.49747278  0.83078927  1
  Ni  Ni33  1  0.16233414  0.82692103  0.49370886  1
  Cr  Cr34  1  0.99605463  0.66453550  0.66159219  1
  Ni  Ni35  1  0.16395207  0.82754927  0.83036686  1
  Cr  Cr36  1  0.49595802  0.16170858  0.49595237  1
  Cr  Cr37  1  0.32676800  0.99607021  0.66489597  1
  Ni  Ni38  1  0.49721742  0.16532516  0.83028339  1
  Cr  Cr39  1  0.49406120  0.49834817  0.49907479  1
  Ni  Ni40  1  0.32887776  0.33182123  0.66486253  1
  Ni  Ni41  1  0.49669372  0.49554481  0.82828987  1
  Cr  Cr42  1  0.49858964  0.82841318  0.49458234  1
  Ni  Ni43  1  0.32859851  0.66156843  0.66305218  1
  Cr  Cr44  1  0.49629994  0.82699629  0.83047902  1
  Cr  Cr45  1  0.82981934  0.15972431  0.49309881  1
  Cr  Cr46  1  0.66488887  0.99586727  0.66365207  1
  Ni  Ni47  1  0.82862579  0.16521872  0.83275308  1
  Cr  Cr48  1  0.83026622  0.49887630  0.49504296  1
  Cr  Cr49  1  0.66213862  0.33068614  0.66655107  1
  Ni  Ni50  1  0.82788871  0.49461512  0.83167948  1
  Ni  Ni51  1  0.83074825  0.82800851  0.49355483  1
  Ni  Ni52  1  0.66208321  0.66169122  0.66342488  1
  Cr  Cr53  1  0.82950573  0.82752896  0.82926496  1
" 