7389,Ni51Fe18Cr30_12,-227.395980236623, 176.744945322733,Ni51Fe18Cr30,"# generated using pymatgen
 data_Cr2FeNi3
_symmetry_space_group_name_H-M   'P 1'
_cell_length_a   7.46927201
_cell_length_b   7.46927201
_cell_length_c   10.56314578
_cell_angle_alpha   90.00000000
_cell_angle_beta   90.00000000
_cell_angle_gamma   90.00000000
_symmetry_Int_Tables_number   1
_chemical_formula_structural   Cr2FeNi3
_chemical_formula_sum   'Cr18 Fe9 Ni27'
_cell_volume   589.31816130
_cell_formula_units_Z   9
loop_
 _symmetry_equiv_pos_site_id
 _symmetry_equiv_pos_as_xyz
  1  'x, y, z'
loop_
 _atom_site_type_symbol
 _atom_site_label
 _atom_site_symmetry_multiplicity
 _atom_site_fract_x
 _atom_site_fract_y
 _atom_site_fract_z
 _atom_site_occupancy
  Cr  Cr0  1  0.00133076  0.99843268  0.00215957  1
  Ni  Ni1  1  0.16592848  0.16408196  0.16690834  1
  Cr  Cr2  1  0.00090731  0.00007643  0.33260626  1
  Cr  Cr3  1  -0.00004795  0.33581554  0.00142827  1
  Cr  Cr4  1  0.16676453  0.50075129  0.16685754  1
  Fe  Fe5  1  0.99635338  0.33189546  0.33404743  1
  Ni  Ni6  1  0.99725643  0.66517477  0.00048382  1
  Ni  Ni7  1  0.16809912  0.83474786  0.16623158  1
  Cr  Cr8  1  0.99804123  0.66473167  0.33277796  1
  Ni  Ni9  1  0.33561102  0.00142159  0.00017180  1
  Fe  Fe10  1  0.50160461  0.16471772  0.16629293  1
  Ni  Ni11  1  0.33281984  0.00190645  0.33252037  1
  Cr  Cr12  1  0.33495678  0.33064928  0.99644571  1
  Cr  Cr13  1  0.50191974  0.50122619  0.16715553  1
  Cr  Cr14  1  0.33379533  0.33139802  0.33563188  1
  Fe  Fe15  1  0.33362716  0.66849957  0.99748421  1
  Cr  Cr16  1  0.49975061  0.83295242  0.16659911  1
  Fe  Fe17  1  0.33432197  0.66812127  0.33555216  1
  Ni  Ni18  1  0.66255687  0.99914220  0.00105911  1
  Ni  Ni19  1  0.83133927  0.16682401  0.16818659  1
  Ni  Ni20  1  0.66502195  0.00252136  0.33200450  1
  Fe  Fe21  1  0.66660454  0.33310399  -0.00014047  1
  Ni  Ni22  1  0.83095675  0.49891633  0.16616699  1
  Ni  Ni23  1  0.66748052  0.33368974  0.33328454  1
  Ni  Ni24  1  0.66851278  0.66567594  0.99861572  1
  Ni  Ni25  1  0.83122790  0.83349357  0.16537458  1
  Ni  Ni26  1  0.66828061  0.66368479  0.33358591  1
  Ni  Ni27  1  0.16614338  0.16867322  0.49947191  1
  Cr  Cr28  1  0.00227805  0.99946113  0.66465491  1
  Ni  Ni29  1  0.16972135  0.16942327  0.83302809  1
  Ni  Ni30  1  0.16825246  0.49901371  0.50094060  1
  Cr  Cr31  1  0.00076911  0.33545057  0.66541566  1
  Ni  Ni32  1  0.16884550  0.50035342  0.83201349  1
  Fe  Fe33  1  0.16769992  0.83034060  0.49967430  1
  Ni  Ni34  1  0.00070500  0.66214099  0.66620437  1
  Cr  Cr35  1  0.16800909  0.83098474  0.83347224  1
  Fe  Fe36  1  0.50186165  0.17015120  0.49914585  1
  Cr  Cr37  1  0.33381773  0.00254525  0.66701735  1
  Ni  Ni38  1  0.49969845  0.16790399  0.83393736  1
  Ni  Ni39  1  0.50021636  0.50010746  0.50103379  1
  Fe  Fe40  1  0.33520879  0.33643450  0.66695858  1
  Ni  Ni41  1  0.49962591  0.50120982  0.83146547  1
  Cr  Cr42  1  0.49964935  0.83036393  0.49805107  1
  Ni  Ni43  1  0.33351096  0.66308362  0.66631990  1
  Ni  Ni44  1  0.50015168  0.83080900  0.83512098  1
  Ni  Ni45  1  0.83264673  0.17014107  0.49770253  1
  Cr  Cr46  1  0.66343527  0.00143036  0.66640859  1
  Cr  Cr47  1  0.83209552  0.16775398  0.83339925  1
  Ni  Ni48  1  0.83122259  0.49712163  0.50031986  1
  Ni  Ni49  1  0.66343502  0.33718692  0.66619719  1
  Fe  Fe50  1  0.83143505  0.50112271  0.83291226  1
  Cr  Cr51  1  0.83080473  0.83311183  0.50156485  1
  Ni  Ni52  1  0.66539257  0.66078272  0.66737596  1
  Cr  Cr53  1  0.83030543  0.83120546  0.83266084  1
" 