3162,Ni51Fe4Cr44_10,-220.859113523571, 136.511733036725,Ni51Fe4Cr44,"# generated using pymatgen
 data_Cr25Fe2Ni27
_symmetry_space_group_name_H-M   'P 1'
_cell_length_a   7.50873556
_cell_length_b   7.50873556
_cell_length_c   10.61895567
_cell_angle_alpha   90.00000000
_cell_angle_beta   90.00000000
_cell_angle_gamma   90.00000000
_symmetry_Int_Tables_number   1
_chemical_formula_structural   Cr25Fe2Ni27
_chemical_formula_sum   'Cr25 Fe2 Ni27'
_cell_volume   598.70850446
_cell_formula_units_Z   1
loop_
 _symmetry_equiv_pos_site_id
 _symmetry_equiv_pos_as_xyz
  1  'x, y, z'
loop_
 _atom_site_type_symbol
 _atom_site_label
 _atom_site_symmetry_multiplicity
 _atom_site_fract_x
 _atom_site_fract_y
 _atom_site_fract_z
 _atom_site_occupancy
  Cr  Cr0  1  -0.00142794  -0.00127497  0.99704988  1
  Ni  Ni1  1  0.16743890  0.16726330  0.16455817  1
  Cr  Cr2  1  -0.00136603  0.00098229  0.33262685  1
  Ni  Ni3  1  0.00094176  0.33419697  -0.00008117  1
  Fe  Fe4  1  0.16316440  0.49438464  0.16426783  1
  Ni  Ni5  1  -0.00003618  0.33291516  0.33085082  1
  Ni  Ni6  1  -0.00140102  0.65843958  -0.00164357  1
  Cr  Cr7  1  0.16436454  0.83156883  0.16355157  1
  Ni  Ni8  1  0.99604368  0.65875780  0.33038663  1
  Ni  Ni9  1  0.33472357  -0.00083692  -0.00146312  1
  Ni  Ni10  1  0.49283452  0.16198867  0.16361457  1
  Ni  Ni11  1  0.33276185  -0.00047882  0.32951285  1
  Ni  Ni12  1  0.32887948  0.32908359  0.99672227  1
  Cr  Cr13  1  0.49688149  0.49425570  0.16548255  1
  Ni  Ni14  1  0.32617617  0.32817925  0.32998415  1
  Cr  Cr15  1  0.33008050  0.66403849  0.99578475  1
  Ni  Ni16  1  0.49775605  0.83409970  0.16567339  1
  Cr  Cr17  1  0.32989626  0.66534959  0.33032784  1
  Ni  Ni18  1  0.65764333  0.99722236  -0.00261713  1
  Cr  Cr19  1  0.83014895  0.16526875  0.16260229  1
  Ni  Ni20  1  0.66092705  0.99601604  0.32981122  1
  Cr  Cr21  1  0.66315857  0.32942781  0.99595227  1
  Ni  Ni22  1  0.83441981  0.49789602  0.16585503  1
  Cr  Cr23  1  0.66781144  0.32947752  0.33093171  1
  Cr  Cr24  1  0.66202351  0.66439410  -0.00254232  1
  Cr  Cr25  1  0.82928156  0.82789497  0.16364532  1
  Ni  Ni26  1  0.66524740  0.66538358  0.33077650  1
  Ni  Ni27  1  0.16336599  0.16737027  0.49618285  1
  Ni  Ni28  1  0.99707033  -0.00238363  0.66171900  1
  Cr  Cr29  1  0.16596982  0.16587374  0.83057967  1
  Ni  Ni30  1  0.16249859  0.49468099  0.49579988  1
  Cr  Cr31  1  -0.00142741  0.32980139  0.66082549  1
  Ni  Ni32  1  0.16480142  0.49578458  0.83210113  1
  Cr  Cr33  1  0.16357979  0.83021654  0.49802971  1
  Ni  Ni34  1  -0.00268490  0.66140066  0.66319608  1
  Cr  Cr35  1  0.16149602  0.82949570  0.82987034  1
  Cr  Cr36  1  0.49437840  0.16491837  0.49477280  1
  Cr  Cr37  1  0.33045744  -0.00209731  0.66316992  1
  Ni  Ni38  1  0.49436215  0.16496260  0.83293389  1
  Cr  Cr39  1  0.49618972  0.49772042  0.49783920  1
  Ni  Ni40  1  0.32873851  0.33183923  0.66515088  1
  Ni  Ni41  1  0.49434554  0.49558928  0.82910267  1
  Ni  Ni42  1  0.49976750  0.82988998  0.49462265  1
  Cr  Cr43  1  0.33136549  0.66222358  0.66579678  1
  Ni  Ni44  1  0.49813691  0.83120799  0.83144011  1
  Ni  Ni45  1  0.83269260  0.16382370  0.49621480  1
  Cr  Cr46  1  0.66323313  -0.00225887  0.66449762  1
  Cr  Cr47  1  0.83079665  0.16286286  0.83169288  1
  Fe  Fe48  1  0.83227283  0.49812392  0.49585366  1
  Cr  Cr49  1  0.66316234  0.33118137  0.66468931  1
  Cr  Cr50  1  0.83219507  0.49888736  0.83046808  1
  Cr  Cr51  1  0.82978393  0.82891422  0.49768680  1
  Ni  Ni52  1  0.66355441  0.66439662  0.66387711  1
  Cr  Cr53  1  0.83162211  0.82977841  0.83036348  1
" 