7724,Ni51Fe18Cr30_10,-227.567231783958, 171.795648276667,Ni51Fe18Cr30,"# generated using pymatgen
 data_Cr2FeNi3
_symmetry_space_group_name_H-M   'P 1'
_cell_length_a   7.47301127
_cell_length_b   7.47301127
_cell_length_c   10.56843389
_cell_angle_alpha   90.00000000
_cell_angle_beta   90.00000000
_cell_angle_gamma   90.00000000
_symmetry_Int_Tables_number   1
_chemical_formula_structural   Cr2FeNi3
_chemical_formula_sum   'Cr18 Fe9 Ni27'
_cell_volume   590.20367476
_cell_formula_units_Z   9
loop_
 _symmetry_equiv_pos_site_id
 _symmetry_equiv_pos_as_xyz
  1  'x, y, z'
loop_
 _atom_site_type_symbol
 _atom_site_label
 _atom_site_symmetry_multiplicity
 _atom_site_fract_x
 _atom_site_fract_y
 _atom_site_fract_z
 _atom_site_occupancy
  Ni  Ni0  1  0.99939600  0.00070463  0.00222201  1
  Ni  Ni1  1  0.16568304  0.16546695  0.16687776  1
  Ni  Ni2  1  0.00273590  0.00100882  0.33295804  1
  Ni  Ni3  1  0.99866655  0.33446110  0.00063062  1
  Ni  Ni4  1  0.16505418  0.49927053  0.16895509  1
  Ni  Ni5  1  0.00054035  0.33346610  0.33288055  1
  Fe  Fe6  1  -0.00001669  0.66199249  0.00109905  1
  Ni  Ni7  1  0.16530853  0.83404871  0.16734577  1
  Ni  Ni8  1  0.00269361  0.66494434  0.33203081  1
  Fe  Fe9  1  0.33296205  0.00008431  0.00110268  1
  Cr  Cr10  1  0.49875394  0.16811450  0.16668281  1
  Ni  Ni11  1  0.33045671  0.99833584  0.33259695  1
  Cr  Cr12  1  0.33072559  0.33588332  0.99917777  1
  Ni  Ni13  1  0.50056217  0.49803776  0.16704794  1
  Ni  Ni14  1  0.33059012  0.33361505  0.33221286  1
  Cr  Cr15  1  0.33215756  0.66566748  0.00055640  1
  Fe  Fe16  1  0.49683617  0.83215229  0.16568589  1
  Ni  Ni17  1  0.32970240  0.66653481  0.33286359  1
  Ni  Ni18  1  0.66561135  0.99913418  0.99862282  1
  Fe  Fe19  1  0.83538477  0.16911723  0.16544699  1
  Cr  Cr20  1  0.66736871  0.00089949  0.33571420  1
  Ni  Ni21  1  0.66776366  0.33389582  0.99916449  1
  Ni  Ni22  1  0.83322356  0.49822986  0.16583856  1
  Ni  Ni23  1  0.66849740  0.33317689  0.33269131  1
  Fe  Fe24  1  0.66670987  0.66325901  0.00005858  1
  Cr  Cr25  1  0.83526030  0.83247254  0.16399030  1
  Cr  Cr26  1  0.66582147  0.66479596  0.33047149  1
  Ni  Ni27  1  0.16844533  0.16719259  0.49694209  1
  Cr  Cr28  1  0.00039280  0.00204687  0.66307074  1
  Cr  Cr29  1  0.16635900  0.16744873  0.83528465  1
  Ni  Ni30  1  0.16381649  0.50029386  0.49890175  1
  Ni  Ni31  1  0.00051209  0.33758071  0.66509683  1
  Ni  Ni32  1  0.16256830  0.50061939  0.83154577  1
  Ni  Ni33  1  0.16613186  0.83169118  0.49797707  1
  Ni  Ni34  1  0.00144916  0.66218879  0.66631330  1
  Cr  Cr35  1  0.16480966  0.83161163  0.83349176  1
  Ni  Ni36  1  0.49725888  0.16662677  0.49743275  1
  Cr  Cr37  1  0.33383041  0.99896393  0.66622220  1
  Ni  Ni38  1  0.50075321  0.16530503  0.83507187  1
  Cr  Cr39  1  0.49755871  0.49694318  0.49692275  1
  Cr  Cr40  1  0.33059595  0.33396498  0.66834425  1
  Fe  Fe41  1  0.50060642  0.49993460  0.83468615  1
  Fe  Fe42  1  0.49493837  0.83171379  0.49847659  1
  Fe  Fe43  1  0.33036342  0.66581612  0.66562896  1
  Ni  Ni44  1  0.49990998  0.83406128  0.83476909  1
  Fe  Fe45  1  0.83649604  0.17065040  0.49764327  1
  Cr  Cr46  1  0.66488180  0.00025257  0.66348808  1
  Cr  Cr47  1  0.83309349  0.16772138  0.83453750  1
  Ni  Ni48  1  0.83601202  0.49896246  0.49868716  1
  Cr  Cr49  1  0.66822803  0.33254474  0.66623879  1
  Ni  Ni50  1  0.83473143  0.49992272  0.83436125  1
  Cr  Cr51  1  0.83686218  0.82915471  0.49949796  1
  Cr  Cr52  1  0.66538976  0.66600637  0.66785261  1
  Cr  Cr53  1  0.83400927  0.83046448  0.83504281  1
" 