1217,Ni51Fe18Cr30_18,-227.521063278351, 174.377493716728,Ni51Fe18Cr30,"# generated using pymatgen
 data_Cr2FeNi3
_symmetry_space_group_name_H-M   'P 1'
_cell_length_a   7.46883051
_cell_length_b   7.46883051
_cell_length_c   10.56252141
_cell_angle_alpha   90.00000000
_cell_angle_beta   90.00000000
_cell_angle_gamma   90.00000000
_symmetry_Int_Tables_number   1
_chemical_formula_structural   Cr2FeNi3
_chemical_formula_sum   'Cr18 Fe9 Ni27'
_cell_volume   589.21366553
_cell_formula_units_Z   9
loop_
 _symmetry_equiv_pos_site_id
 _symmetry_equiv_pos_as_xyz
  1  'x, y, z'
loop_
 _atom_site_type_symbol
 _atom_site_label
 _atom_site_symmetry_multiplicity
 _atom_site_fract_x
 _atom_site_fract_y
 _atom_site_fract_z
 _atom_site_occupancy
  Ni  Ni0  1  0.99871933  0.99951401  0.99849613  1
  Cr  Cr1  1  0.16464842  0.16741162  0.16331773  1
  Ni  Ni2  1  0.99917866  0.00141154  0.33542890  1
  Ni  Ni3  1  0.99771854  0.33494088  0.99971372  1
  Ni  Ni4  1  0.16252130  0.50119242  0.16648017  1
  Ni  Ni5  1  0.99713565  0.33196713  0.33307177  1
  Ni  Ni6  1  0.00113161  0.66518040  0.99911008  1
  Fe  Fe7  1  0.16535802  0.83222034  0.16569966  1
  Fe  Fe8  1  0.00033256  0.66642959  0.33146567  1
  Ni  Ni9  1  0.33384125  0.99880563  0.99843183  1
  Cr  Cr10  1  0.50285383  0.16474598  0.16211086  1
  Cr  Cr11  1  0.33073997  0.99631224  0.33332211  1
  Ni  Ni12  1  0.33259829  0.33364919  0.99739540  1
  Cr  Cr13  1  0.50114939  0.49917828  0.16842016  1
  Cr  Cr14  1  0.33066158  0.33501090  0.33372841  1
  Cr  Cr15  1  0.33018310  0.66701936  0.99965524  1
  Ni  Ni16  1  0.50040353  0.83456571  0.16827023  1
  Fe  Fe17  1  0.33308480  0.66820894  0.33275698  1
  Ni  Ni18  1  0.66711306  0.00219131  0.99835783  1
  Ni  Ni19  1  0.83313081  0.16748634  0.16834070  1
  Ni  Ni20  1  0.66887186  0.99905850  0.33309627  1
  Ni  Ni21  1  0.66934072  0.33115124  0.99814056  1
  Ni  Ni22  1  0.83638431  0.49856036  0.16759458  1
  Ni  Ni23  1  0.67131054  0.33431133  0.33349792  1
  Cr  Cr24  1  0.66913121  0.66622601  0.99592207  1
  Cr  Cr25  1  0.83307565  0.83373281  0.16686521  1
  Ni  Ni26  1  0.66458844  0.66637610  0.33435843  1
  Ni  Ni27  1  0.16461914  0.16338378  0.50166130  1
  Fe  Fe28  1  0.00209806  0.99864425  0.66687391  1
  Cr  Cr29  1  0.16823465  0.16559216  0.83362000  1
  Cr  Cr30  1  0.16479269  0.50037718  0.49991733  1
  Fe  Fe31  1  0.99940279  0.33286530  0.66794209  1
  Ni  Ni32  1  0.16413893  0.50157050  0.83401578  1
  Ni  Ni33  1  0.16594617  0.83541667  0.49951603  1
  Ni  Ni34  1  0.00133959  0.66776577  0.66969546  1
  Ni  Ni35  1  0.16355153  0.83291961  0.83304377  1
  Cr  Cr36  1  0.49996093  0.16620541  0.49850009  1
  Ni  Ni37  1  0.33059194  0.99804932  0.66621123  1
  Ni  Ni38  1  0.50040718  0.16610711  0.83694501  1
  Fe  Fe39  1  0.50016417  0.50237848  0.49780977  1
  Cr  Cr40  1  0.33239036  0.33229102  0.66760653  1
  Ni  Ni41  1  0.50001074  0.49643462  0.83377959  1
  Fe  Fe42  1  0.49785101  0.83219180  0.49763198  1
  Cr  Cr43  1  0.33213655  0.66907466  0.66699866  1
  Fe  Fe44  1  0.49881339  0.83624671  0.83493891  1
  Fe  Fe45  1  0.83743804  0.16617352  0.49724830  1
  Cr  Cr46  1  0.66696880  0.00011131  0.66854447  1
  Ni  Ni47  1  0.83175826  0.16573756  0.83446374  1
  Cr  Cr48  1  0.83287544  0.50072218  0.49843712  1
  Cr  Cr49  1  0.66890148  0.33328771  0.66815662  1
  Ni  Ni50  1  0.83562998  0.50064800  0.83412084  1
  Cr  Cr51  1  0.83464770  0.83297374  0.49898960  1
  Cr  Cr52  1  0.66710077  0.66629060  0.67016791  1
  Ni  Ni53  1  0.83657802  0.83323767  0.83367010  1
" 