7174,Ni51Fe4Cr44_4,-221.125617522692, 142.85967942533,Ni51Fe4Cr44,"# generated using pymatgen
 data_Cr25Fe2Ni27
_symmetry_space_group_name_H-M   'P 1'
_cell_length_a   7.50841361
_cell_length_b   7.50841361
_cell_length_c   10.61850035
_cell_angle_alpha   90.00000000
_cell_angle_beta   90.00000000
_cell_angle_gamma   90.00000000
_symmetry_Int_Tables_number   1
_chemical_formula_structural   Cr25Fe2Ni27
_chemical_formula_sum   'Cr25 Fe2 Ni27'
_cell_volume   598.63149468
_cell_formula_units_Z   1
loop_
 _symmetry_equiv_pos_site_id
 _symmetry_equiv_pos_as_xyz
  1  'x, y, z'
loop_
 _atom_site_type_symbol
 _atom_site_label
 _atom_site_symmetry_multiplicity
 _atom_site_fract_x
 _atom_site_fract_y
 _atom_site_fract_z
 _atom_site_occupancy
  Ni  Ni0  1  -0.00195670  0.99451580  0.99654693  1
  Cr  Cr1  1  0.16400327  0.16330509  0.16215398  1
  Cr  Cr2  1  0.99480835  0.99646375  0.33134375  1
  Cr  Cr3  1  -0.00225382  0.33268240  0.99715401  1
  Cr  Cr4  1  0.16373892  0.49849205  0.16420065  1
  Ni  Ni5  1  0.99579964  0.33285989  0.33254405  1
  Ni  Ni6  1  0.99287301  0.66523655  -0.00221602  1
  Cr  Cr7  1  0.16404869  0.82997349  0.16200792  1
  Cr  Cr8  1  0.99704991  0.66169098  0.33098017  1
  Ni  Ni9  1  0.33151348  0.00004719  0.99553696  1
  Ni  Ni10  1  0.49690422  0.16459437  0.16144864  1
  Cr  Cr11  1  0.33235923  -0.00264609  0.33118593  1
  Ni  Ni12  1  0.33264078  0.32730655  0.99667041  1
  Cr  Cr13  1  0.49796459  0.49768190  0.16195955  1
  Cr  Cr14  1  0.33030762  0.33212818  0.33244308  1
  Ni  Ni15  1  0.33186447  0.66435915  0.99718672  1
  Cr  Cr16  1  0.49632915  0.82949039  0.16293111  1
  Ni  Ni17  1  0.32938932  0.66254892  0.33346507  1
  Cr  Cr18  1  0.66309462  0.99545440  -0.00254421  1
  Cr  Cr19  1  0.83062472  0.16496030  0.16477588  1
  Cr  Cr20  1  0.66444573  -0.00198559  0.33106567  1
  Fe  Fe21  1  0.66235988  0.33224494  0.99674770  1
  Ni  Ni22  1  0.83028706  0.49883325  0.16192357  1
  Cr  Cr23  1  0.66502550  0.33003810  0.33104108  1
  Ni  Ni24  1  0.66699726  0.66407889  0.99640783  1
  Ni  Ni25  1  0.83137737  0.82821792  0.16151380  1
  Cr  Cr26  1  0.66577633  0.66367224  0.33075577  1
  Cr  Cr27  1  0.15944231  0.16386662  0.49823338  1
  Ni  Ni28  1  0.99579344  0.99635096  0.66313260  1
  Ni  Ni29  1  0.16440238  0.16218516  0.83179590  1
  Ni  Ni30  1  0.16167403  0.49972762  0.49635947  1
  Ni  Ni31  1  0.99436675  0.33192031  0.66226641  1
  Cr  Cr32  1  0.16159855  0.49678238  0.83108548  1
  Ni  Ni33  1  0.16214352  0.82770563  0.49755571  1
  Ni  Ni34  1  0.99285424  0.66340028  0.66222581  1
  Cr  Cr35  1  0.16267088  0.83245543  0.83237460  1
  Ni  Ni36  1  0.50082980  0.16638296  0.49762870  1
  Cr  Cr37  1  0.33060442  -0.00103856  0.66603493  1
  Ni  Ni38  1  0.49557087  0.16363027  0.83268902  1
  Ni  Ni39  1  0.49871819  0.49722628  0.49770041  1
  Cr  Cr40  1  0.33100447  0.32950337  0.66353249  1
  Cr  Cr41  1  0.50106965  0.49841810  0.83177464  1
  Cr  Cr42  1  0.49617280  0.82789927  0.49678990  1
  Cr  Cr43  1  0.33013316  0.66325846  0.66137082  1
  Ni  Ni44  1  0.49883240  0.83045882  0.83281003  1
  Ni  Ni45  1  0.83076529  0.16681204  0.49837153  1
  Cr  Cr46  1  0.66434222  0.99687401  0.66332286  1
  Cr  Cr47  1  0.83245787  0.16524862  0.82829460  1
  Ni  Ni48  1  0.83130991  0.49493469  0.49987951  1
  Ni  Ni49  1  0.66595649  0.33229750  0.66224284  1
  Ni  Ni50  1  0.82931605  0.49998210  0.82978920  1
  Fe  Fe51  1  0.83289694  0.82930416  0.50010479  1
  Ni  Ni52  1  0.66836175  0.66199185  0.66432681  1
  Ni  Ni53  1  0.83058829  0.82742597  0.83032686  1
" 