5901,Ni51Fe18Cr30_6,-227.251755317946, 170.671495753524,Ni51Fe18Cr30,"# generated using pymatgen
 data_Cr2FeNi3
_symmetry_space_group_name_H-M   'P 1'
_cell_length_a   7.47583927
_cell_length_b   7.47583927
_cell_length_c   10.57243329
_cell_angle_alpha   90.00000000
_cell_angle_beta   90.00000000
_cell_angle_gamma   90.00000000
_symmetry_Int_Tables_number   1
_chemical_formula_structural   Cr2FeNi3
_chemical_formula_sum   'Cr18 Fe9 Ni27'
_cell_volume   590.87397862
_cell_formula_units_Z   9
loop_
 _symmetry_equiv_pos_site_id
 _symmetry_equiv_pos_as_xyz
  1  'x, y, z'
loop_
 _atom_site_type_symbol
 _atom_site_label
 _atom_site_symmetry_multiplicity
 _atom_site_fract_x
 _atom_site_fract_y
 _atom_site_fract_z
 _atom_site_occupancy
  Ni  Ni0  1  0.00122458  0.00177890  0.99782969  1
  Ni  Ni1  1  0.16784862  0.16557457  0.16491152  1
  Cr  Cr2  1  0.00098577  0.00121064  0.33666771  1
  Ni  Ni3  1  0.00363074  0.33179941  0.99722511  1
  Fe  Fe4  1  0.16729445  0.50010112  0.16417558  1
  Cr  Cr5  1  0.00126963  0.33211135  0.33529571  1
  Ni  Ni6  1  0.00071415  0.66597870  0.00053822  1
  Ni  Ni7  1  0.16871373  0.83519335  0.16385419  1
  Cr  Cr8  1  0.00238154  0.66571619  0.33379285  1
  Fe  Fe9  1  0.32805745  0.99915359  0.99908399  1
  Fe  Fe10  1  0.49712387  0.16293731  0.16756764  1
  Ni  Ni11  1  0.33384423  0.00056753  0.33045119  1
  Ni  Ni12  1  0.33041140  0.32945562  0.00214275  1
  Cr  Cr13  1  0.49903863  0.49553200  0.16669604  1
  Fe  Fe14  1  0.33484057  0.33046473  0.33368661  1
  Fe  Fe15  1  0.33060436  0.66702959  0.99928512  1
  Ni  Ni16  1  0.49427850  0.83213703  0.16642964  1
  Ni  Ni17  1  0.33401767  0.66677177  0.33024191  1
  Cr  Cr18  1  0.66135882  0.99862614  0.99894885  1
  Cr  Cr19  1  0.83238059  0.16713303  0.16378684  1
  Ni  Ni20  1  0.66154738  0.00178936  0.33383594  1
  Fe  Fe21  1  0.66838977  0.33292047  0.99668344  1
  Cr  Cr22  1  0.83316297  0.49758834  0.16424246  1
  Ni  Ni23  1  0.66490975  0.32902376  0.33493613  1
  Cr  Cr24  1  0.66459127  0.66758766  0.99578225  1
  Cr  Cr25  1  0.83333539  0.83527585  0.16873680  1
  Cr  Cr26  1  0.66570759  0.66590079  0.33742684  1
  Ni  Ni27  1  0.16797355  0.16701888  0.50243702  1
  Fe  Fe28  1  0.99808776  0.00286844  0.66482190  1
  Ni  Ni29  1  0.16430639  0.16703389  0.83119566  1
  Cr  Cr30  1  0.17241107  0.49934153  0.50130964  1
  Ni  Ni31  1  -0.00050426  0.33095176  0.66691298  1
  Cr  Cr32  1  0.16586997  0.49748182  0.83261611  1
  Cr  Cr33  1  0.16673300  0.83451013  0.50439558  1
  Ni  Ni34  1  0.99672797  0.66270180  0.66456287  1
  Cr  Cr35  1  0.16630726  0.83529041  0.82917821  1
  Ni  Ni36  1  0.49989733  0.16874022  0.49754128  1
  Ni  Ni37  1  0.33419622  0.00336235  0.66739883  1
  Cr  Cr38  1  0.49627765  0.16763129  0.83236638  1
  Ni  Ni39  1  0.50139902  0.49591095  0.50161575  1
  Ni  Ni40  1  0.33246648  0.32980628  0.66296574  1
  Cr  Cr41  1  0.49918046  0.49864145  0.82959347  1
  Cr  Cr42  1  0.49822400  0.83347801  0.50176922  1
  Ni  Ni43  1  0.33492224  0.66600178  0.66787610  1
  Ni  Ni44  1  0.49837472  0.83380878  0.82943864  1
  Ni  Ni45  1  0.83022568  0.16572021  0.50223542  1
  Ni  Ni46  1  0.66397667  0.00038872  0.66490628  1
  Fe  Fe47  1  0.83369489  0.16769860  0.83152992  1
  Fe  Fe48  1  0.83190698  0.49655134  0.50323579  1
  Ni  Ni49  1  0.66771183  0.33173278  0.66595447  1
  Ni  Ni50  1  0.83404720  0.49745965  0.83143607  1
  Ni  Ni51  1  0.83151431  0.83537982  0.50212728  1
  Ni  Ni52  1  0.66689789  0.66582473  0.66521086  1
  Cr  Cr53  1  0.83375802  0.83355332  0.82936126  1
" 