6575,Ni51Fe4Cr44_2,-221.138019732548, 145.967071637878,Ni51Fe4Cr44,"# generated using pymatgen
 data_Cr25Fe2Ni27
_symmetry_space_group_name_H-M   'P 1'
_cell_length_a   7.50977433
_cell_length_b   7.50977433
_cell_length_c   10.62042470
_cell_angle_alpha   90.00000000
_cell_angle_beta   90.00000000
_cell_angle_gamma   90.00000000
_symmetry_Int_Tables_number   1
_chemical_formula_structural   Cr25Fe2Ni27
_chemical_formula_sum   'Cr25 Fe2 Ni27'
_cell_volume   598.95701681
_cell_formula_units_Z   1
loop_
 _symmetry_equiv_pos_site_id
 _symmetry_equiv_pos_as_xyz
  1  'x, y, z'
loop_
 _atom_site_type_symbol
 _atom_site_label
 _atom_site_symmetry_multiplicity
 _atom_site_fract_x
 _atom_site_fract_y
 _atom_site_fract_z
 _atom_site_occupancy
  Ni  Ni0  1  -0.00267677  -0.00168802  0.99516763  1
  Ni  Ni1  1  0.16168542  0.16351028  0.16252665  1
  Ni  Ni2  1  0.99501520  0.99608290  0.33046139  1
  Ni  Ni3  1  -0.00131232  0.32899735  0.99552605  1
  Ni  Ni4  1  0.16313098  0.49788686  0.16262068  1
  Cr  Cr5  1  0.99540396  0.32938139  0.32917376  1
  Cr  Cr6  1  -0.00202571  0.66426339  0.99633308  1
  Ni  Ni7  1  0.16159635  0.82999329  0.16352891  1
  Fe  Fe8  1  0.99471814  0.66561095  0.33090804  1
  Cr  Cr9  1  0.32681619  0.99590481  0.00028817  1
  Ni  Ni10  1  0.49892667  0.16307886  0.16545635  1
  Cr  Cr11  1  0.32824530  0.99708084  0.32671914  1
  Cr  Cr12  1  0.32749546  0.33059736  -0.00219461  1
  Cr  Cr13  1  0.49915309  0.49790853  0.16254376  1
  Cr  Cr14  1  0.33147937  0.33005830  0.32921708  1
  Ni  Ni15  1  0.32883536  0.66334003  0.99634862  1
  Cr  Cr16  1  0.50055973  0.83073763  0.16176059  1
  Cr  Cr17  1  0.33001443  0.66442132  0.32900187  1
  Ni  Ni18  1  0.66685545  0.99630922  0.99627424  1
  Cr  Cr19  1  0.82995776  0.16272189  0.16233910  1
  Ni  Ni20  1  0.66740280  -0.00256438  0.33147208  1
  Cr  Cr21  1  0.66720490  0.33051159  0.99544358  1
  Cr  Cr22  1  0.83159290  0.49817601  0.16442763  1
  Ni  Ni23  1  0.66483810  0.33095967  0.33259857  1
  Ni  Ni24  1  0.66392050  0.66448024  0.99405975  1
  Cr  Cr25  1  0.83032302  0.83065939  0.16392973  1
  Ni  Ni26  1  0.66574063  0.66309470  0.33337326  1
  Cr  Cr27  1  0.16093705  0.16374149  0.49989351  1
  Ni  Ni28  1  0.99288695  0.99531712  0.66588685  1
  Ni  Ni29  1  0.16074787  0.16460659  0.83034791  1
  Cr  Cr30  1  0.16242959  0.49744518  0.49816881  1
  Cr  Cr31  1  0.99453117  0.33050909  0.66641409  1
  Ni  Ni32  1  0.16253057  0.49717228  0.83051517  1
  Cr  Cr33  1  0.15865724  0.83030697  0.49785698  1
  Ni  Ni34  1  0.99481635  0.66553072  0.66421320  1
  Ni  Ni35  1  0.16040718  0.82973468  0.83047403  1
  Cr  Cr36  1  0.49885917  0.16441159  0.49720684  1
  Cr  Cr37  1  0.32807600  -0.00261411  0.66498277  1
  Cr  Cr38  1  0.49808370  0.16302187  0.82929727  1
  Ni  Ni39  1  0.49944351  0.49628202  0.49725506  1
  Ni  Ni40  1  0.33027554  0.33278212  0.66548139  1
  Fe  Fe41  1  0.49655895  0.49725601  0.83118640  1
  Cr  Cr42  1  0.50037993  0.83093004  0.49664867  1
  Cr  Cr43  1  0.33003042  0.66243927  0.66594916  1
  Cr  Cr44  1  0.49916239  0.83069898  0.83289519  1
  Ni  Ni45  1  0.82956971  0.16153681  0.49663723  1
  Ni  Ni46  1  0.67044338  0.99696966  0.66353965  1
  Ni  Ni47  1  0.83302409  0.16158109  0.83134714  1
  Ni  Ni48  1  0.82926637  0.49893995  0.49501565  1
  Cr  Cr49  1  0.66577132  0.33151132  0.66291738  1
  Ni  Ni50  1  0.83331880  0.49831456  0.83164577  1
  Ni  Ni51  1  0.83113720  0.83119041  0.49680503  1
  Cr  Cr52  1  0.66800778  0.66366803  0.66427759  1
  Ni  Ni53  1  0.83213483  0.83158587  0.83022020  1
" 