3102,Ni51Fe18Cr30_3,-227.418914697124, 168.636200801967,Ni51Fe18Cr30,"# generated using pymatgen
 data_Cr2FeNi3
_symmetry_space_group_name_H-M   'P 1'
_cell_length_a   7.47233206
_cell_length_b   7.47233206
_cell_length_c   10.56747335
_cell_angle_alpha   90.00000000
_cell_angle_beta   90.00000000
_cell_angle_gamma   90.00000000
_symmetry_Int_Tables_number   1
_chemical_formula_structural   Cr2FeNi3
_chemical_formula_sum   'Cr18 Fe9 Ni27'
_cell_volume   590.04276255
_cell_formula_units_Z   9
loop_
 _symmetry_equiv_pos_site_id
 _symmetry_equiv_pos_as_xyz
  1  'x, y, z'
loop_
 _atom_site_type_symbol
 _atom_site_label
 _atom_site_symmetry_multiplicity
 _atom_site_fract_x
 _atom_site_fract_y
 _atom_site_fract_z
 _atom_site_occupancy
  Ni  Ni0  1  0.99759115  0.00087747  0.99854716  1
  Cr  Cr1  1  0.16244755  0.16695126  0.16692884  1
  Fe  Fe2  1  0.99679111  0.99919386  0.33205047  1
  Ni  Ni3  1  0.99808910  0.32908489  -0.00020819  1
  Ni  Ni4  1  0.16771339  0.50274982  0.16708945  1
  Ni  Ni5  1  0.99576731  0.33267611  0.33297025  1
  Cr  Cr6  1  0.99963445  0.66865093  0.00002264  1
  Ni  Ni7  1  0.16505999  0.83000897  0.16718510  1
  Fe  Fe8  1  0.00155626  0.66670814  0.33213712  1
  Cr  Cr9  1  0.33133004  0.99783318  -0.00021876  1
  Cr  Cr10  1  0.50414091  0.16658908  0.16694455  1
  Cr  Cr11  1  0.33344778  0.99488042  0.33245918  1
  Cr  Cr12  1  0.33305301  0.33437187  0.99868230  1
  Ni  Ni13  1  0.49841225  0.50191098  0.16497215  1
  Cr  Cr14  1  0.33367313  0.33614196  0.33237982  1
  Ni  Ni15  1  0.33573489  0.66630178  0.00159762  1
  Fe  Fe16  1  0.50044154  0.82993612  0.16616702  1
  Ni  Ni17  1  0.33238590  0.66775275  0.33209321  1
  Fe  Fe18  1  0.66992326  0.99896914  0.00028135  1
  Ni  Ni19  1  0.83263824  0.16410705  0.16631141  1
  Ni  Ni20  1  0.66880966  0.00040733  0.33225989  1
  Fe  Fe21  1  0.66671997  0.33297567  0.99897989  1
  Cr  Cr22  1  0.83333468  0.49832678  0.16647835  1
  Ni  Ni23  1  0.67024254  0.33231959  0.33395529  1
  Ni  Ni24  1  0.66396954  0.66682777  0.00012899  1
  Ni  Ni25  1  0.83341003  0.83627600  0.16567793  1
  Cr  Cr26  1  0.66449757  0.66603596  0.33374312  1
  Cr  Cr27  1  0.16466231  0.16410966  0.49985220  1
  Ni  Ni28  1  0.00193714  -0.00034274  0.66800447  1
  Ni  Ni29  1  0.16624930  0.16350367  0.83223820  1
  Cr  Cr30  1  0.16653284  0.50167315  0.49819285  1
  Cr  Cr31  1  0.99729495  0.33012851  0.66655973  1
  Cr  Cr32  1  0.16880296  0.49973141  0.83394006  1
  Ni  Ni33  1  0.16802251  0.83287996  0.49991617  1
  Cr  Cr34  1  0.99780895  0.66936327  0.66615397  1
  Ni  Ni35  1  0.16486803  0.83663047  0.83187692  1
  Cr  Cr36  1  0.50248140  0.16601445  0.50074852  1
  Ni  Ni37  1  0.33141630  0.99881952  0.66691928  1
  Ni  Ni38  1  0.50021423  0.16796436  0.83091796  1
  Ni  Ni39  1  0.50180697  0.50117581  0.50181667  1
  Fe  Fe40  1  0.33634563  0.33234992  0.66828544  1
  Ni  Ni41  1  0.50088044  0.49808567  0.83217736  1
  Ni  Ni42  1  0.49814885  0.83131504  0.50052948  1
  Fe  Fe43  1  0.33534819  0.66776354  0.66532941  1
  Cr  Cr44  1  0.50114836  0.83215045  0.83256465  1
  Ni  Ni45  1  0.83177775  0.16744937  0.49824587  1
  Fe  Fe46  1  0.66744828  0.00027099  0.66632665  1
  Fe  Fe47  1  0.83286957  0.16396055  0.83358044  1
  Ni  Ni48  1  0.83016404  0.49715817  0.49856058  1
  Ni  Ni49  1  0.66442621  0.33453658  0.66580763  1
  Cr  Cr50  1  0.82960487  0.50083114  0.83410461  1
  Cr  Cr51  1  0.83287065  0.83421697  0.50003825  1
  Ni  Ni52  1  0.66361543  0.66423457  0.66535215  1
  Ni  Ni53  1  0.83334414  0.83606620  0.83324987  1
" 