4209,Ni51Cr49_10,-219.05550903632, 134.850726778094,Ni51Cr49,"# generated using pymatgen
 data_CrNi
_symmetry_space_group_name_H-M   'P 1'
_cell_length_a   7.52350317
_cell_length_b   7.52350317
_cell_length_c   10.63984022
_cell_angle_alpha   90.00000000
_cell_angle_beta   90.00000000
_cell_angle_gamma   90.00000000
_symmetry_Int_Tables_number   1
_chemical_formula_structural   CrNi
_chemical_formula_sum   'Cr27 Ni27'
_cell_volume   602.24793929
_cell_formula_units_Z   27
loop_
 _symmetry_equiv_pos_site_id
 _symmetry_equiv_pos_as_xyz
  1  'x, y, z'
loop_
 _atom_site_type_symbol
 _atom_site_label
 _atom_site_symmetry_multiplicity
 _atom_site_fract_x
 _atom_site_fract_y
 _atom_site_fract_z
 _atom_site_occupancy
  Cr  Cr0  1  -0.00307146  -0.00229744  -0.00178315  1
  Ni  Ni1  1  0.16278584  0.16170050  0.16279834  1
  Cr  Cr2  1  0.99594466  -0.00244463  0.32676643  1
  Cr  Cr3  1  0.99409607  0.32860392  0.99525317  1
  Cr  Cr4  1  0.16148608  0.49521779  0.16387563  1
  Ni  Ni5  1  0.99339486  0.33029827  0.33022677  1
  Cr  Cr6  1  -0.00249700  0.66216799  0.99502774  1
  Ni  Ni7  1  0.16379416  0.83020487  0.16142920  1
  Ni  Ni8  1  0.99556009  0.66015935  0.33092774  1
  Ni  Ni9  1  0.33019114  -0.00355558  -0.00180516  1
  Ni  Ni10  1  0.49848231  0.16306778  0.16265308  1
  Cr  Cr11  1  0.33162006  -0.00273205  0.32654107  1
  Cr  Cr12  1  0.32981868  0.32792938  -0.00341439  1
  Cr  Cr13  1  0.49997886  0.49500793  0.16165571  1
  Cr  Cr14  1  0.33018825  0.32907380  0.33134763  1
  Ni  Ni15  1  0.32899914  0.66476676  0.99607490  1
  Cr  Cr16  1  0.49746078  0.82832712  0.16127578  1
  Cr  Cr17  1  0.32821662  0.66217500  0.33042248  1
  Cr  Cr18  1  0.66271319  -0.00055994  0.99547125  1
  Ni  Ni19  1  0.82755292  0.16498333  0.16473663  1
  Ni  Ni20  1  0.66315912  0.00022073  0.32974583  1
  Ni  Ni21  1  0.66358495  0.32801363  0.99525298  1
  Cr  Cr22  1  0.82708321  0.49409183  0.16428987  1
  Ni  Ni23  1  0.66432565  0.32772657  0.33118045  1
  Ni  Ni24  1  0.66242518  0.66048024  0.99514568  1
  Cr  Cr25  1  0.82815137  0.82750449  0.16537537  1
  Ni  Ni26  1  0.66435692  0.66069700  0.33170652  1
  Cr  Cr27  1  0.16213887  0.16468965  0.49877987  1
  Ni  Ni28  1  0.99545367  -0.00324327  0.66329895  1
  Cr  Cr29  1  0.16475353  0.16310099  0.82698159  1
  Ni  Ni30  1  0.16148343  0.49637995  0.49771357  1
  Cr  Cr31  1  0.99417232  0.33206761  0.66371487  1
  Ni  Ni32  1  0.16331359  0.49758318  0.82723396  1
  Cr  Cr33  1  0.16173623  0.82960681  0.49958639  1
  Ni  Ni34  1  -0.00191401  0.66056020  0.66267704  1
  Cr  Cr35  1  0.16442392  0.83015816  0.82707646  1
  Ni  Ni36  1  0.49768085  0.16533246  0.49648783  1
  Ni  Ni37  1  0.33079523  -0.00180889  0.66324258  1
  Ni  Ni38  1  0.49568227  0.16353810  0.82964011  1
  Ni  Ni39  1  0.49676881  0.49400301  0.49612974  1
  Ni  Ni40  1  0.33053236  0.33121464  0.66189857  1
  Cr  Cr41  1  0.49520936  0.49531092  0.83207164  1
  Cr  Cr42  1  0.49651595  0.83017356  0.49659216  1
  Ni  Ni43  1  0.32706074  0.65969360  0.66227357  1
  Cr  Cr44  1  0.49409844  0.83007445  0.83044194  1
  Ni  Ni45  1  0.82829748  0.16530984  0.49435939  1
  Cr  Cr46  1  0.66345006  -0.00001230  0.66242979  1
  Ni  Ni47  1  0.82832196  0.16517962  0.82961162  1
  Ni  Ni48  1  0.83048184  0.49503112  0.49347268  1
  Cr  Cr49  1  0.66209466  0.32930665  0.66310738  1
  Ni  Ni50  1  0.82999096  0.49501853  0.83105168  1
  Cr  Cr51  1  0.83074987  0.82984624  0.49507962  1
  Cr  Cr52  1  0.66395334  0.65949306  0.66234208  1
  Cr  Cr53  1  0.83034753  0.82895839  0.82792224  1
" 