5549,Ni51Fe4Cr44_16,-220.99575392626, 142.526668738332,Ni51Fe4Cr44,"# generated using pymatgen
 data_Cr25Fe2Ni27
_symmetry_space_group_name_H-M   'P 1'
_cell_length_a   7.51384070
_cell_length_b   7.51384070
_cell_length_c   10.62617543
_cell_angle_alpha   90.00000000
_cell_angle_beta   90.00000000
_cell_angle_gamma   90.00000000
_symmetry_Int_Tables_number   1
_chemical_formula_structural   Cr25Fe2Ni27
_chemical_formula_sum   'Cr25 Fe2 Ni27'
_cell_volume   599.93050974
_cell_formula_units_Z   1
loop_
 _symmetry_equiv_pos_site_id
 _symmetry_equiv_pos_as_xyz
  1  'x, y, z'
loop_
 _atom_site_type_symbol
 _atom_site_label
 _atom_site_symmetry_multiplicity
 _atom_site_fract_x
 _atom_site_fract_y
 _atom_site_fract_z
 _atom_site_occupancy
  Cr  Cr0  1  -0.00195512  0.99463611  0.99517990  1
  Cr  Cr1  1  0.16484245  0.16194384  0.16155218  1
  Ni  Ni2  1  -0.00180080  -0.00247882  0.32993684  1
  Ni  Ni3  1  0.99567590  0.33161452  0.99631964  1
  Cr  Cr4  1  0.16265866  0.49530799  0.16349939  1
  Fe  Fe5  1  0.99585355  0.32832574  0.33178631  1
  Cr  Cr6  1  0.99400894  0.66433212  -0.00229502  1
  Ni  Ni7  1  0.16299411  0.83270898  0.16478136  1
  Cr  Cr8  1  -0.00297584  0.66391530  0.32771254  1
  Ni  Ni9  1  0.32974457  -0.00219358  0.99645814  1
  Ni  Ni10  1  0.49628591  0.16584418  0.16314931  1
  Ni  Ni11  1  0.32804500  -0.00046172  0.32973914  1
  Ni  Ni12  1  0.33279220  0.32898063  -0.00295182  1
  Ni  Ni13  1  0.50050282  0.49377237  0.16170608  1
  Cr  Cr14  1  0.33252401  0.32926143  0.33145223  1
  Cr  Cr15  1  0.33097267  0.66298215  0.99669800  1
  Cr  Cr16  1  0.49523830  0.83151973  0.16372797  1
  Cr  Cr17  1  0.32863844  0.66205796  0.33001287  1
  Cr  Cr18  1  0.66335436  0.99572361  0.99645855  1
  Cr  Cr19  1  0.83013552  0.16593784  0.16450541  1
  Cr  Cr20  1  0.66438698  0.00044733  0.33148021  1
  Ni  Ni21  1  0.66218117  0.33378896  -0.00168499  1
  Ni  Ni22  1  0.82735802  0.49600568  0.16237283  1
  Ni  Ni23  1  0.66356104  0.32886269  0.32937339  1
  Fe  Fe24  1  0.66388253  0.66088402  0.99579612  1
  Ni  Ni25  1  0.83168357  0.82854022  0.16376994  1
  Cr  Cr26  1  0.66485399  0.66086375  0.32609368  1
  Ni  Ni27  1  0.16157998  0.16500168  0.49524157  1
  Cr  Cr28  1  0.99673193  -0.00243206  0.66528988  1
  Ni  Ni29  1  0.16338225  0.16339484  0.83239040  1
  Ni  Ni30  1  0.16176063  0.49481007  0.49878737  1
  Ni  Ni31  1  0.99593604  0.33173766  0.66204428  1
  Cr  Cr32  1  0.16233812  0.49505791  0.82848181  1
  Cr  Cr33  1  0.16450193  0.82932693  0.49612189  1
  Ni  Ni34  1  0.99681182  0.66187355  0.66511118  1
  Ni  Ni35  1  0.16488994  0.83078131  0.82954348  1
  Ni  Ni36  1  0.49764721  0.16457717  0.49527264  1
  Cr  Cr37  1  0.32983397  -0.00244985  0.66468581  1
  Cr  Cr38  1  0.49564340  0.16481048  0.83282919  1
  Cr  Cr39  1  0.49742547  0.49745425  0.49909207  1
  Cr  Cr40  1  0.32991665  0.33084402  0.66260684  1
  Ni  Ni41  1  0.50017414  0.49899596  0.83029305  1
  Cr  Cr42  1  0.49592426  0.83030281  0.49825031  1
  Ni  Ni43  1  0.32984911  0.66283988  0.66469216  1
  Ni  Ni44  1  0.49648786  0.82689164  0.82961194  1
  Ni  Ni45  1  0.83134511  0.16658597  0.49589236  1
  Cr  Cr46  1  0.66417434  -0.00204065  0.66285585  1
  Cr  Cr47  1  0.83213790  0.16778355  0.82981936  1
  Cr  Cr48  1  0.83147699  0.49441862  0.49873943  1
  Ni  Ni49  1  0.66501893  0.33235748  0.66305511  1
  Ni  Ni50  1  0.82797478  0.49776274  0.82955575  1
  Cr  Cr51  1  0.83019967  0.83051737  0.49768401  1
  Ni  Ni52  1  0.66398881  0.66166574  0.66811082  1
  Ni  Ni53  1  0.82926100  0.82586305  0.82916642  1
" 