6891,Ni51Fe4Cr44_1,-221.04756332525, 144.151946445944,Ni51Fe4Cr44,"# generated using pymatgen
 data_Cr25Fe2Ni27
_symmetry_space_group_name_H-M   'P 1'
_cell_length_a   7.51110919
_cell_length_b   7.51110919
_cell_length_c   10.62231248
_cell_angle_alpha   90.00000000
_cell_angle_beta   90.00000000
_cell_angle_gamma   90.00000000
_symmetry_Int_Tables_number   1
_chemical_formula_structural   Cr25Fe2Ni27
_chemical_formula_sum   'Cr25 Fe2 Ni27'
_cell_volume   599.27646744
_cell_formula_units_Z   1
loop_
 _symmetry_equiv_pos_site_id
 _symmetry_equiv_pos_as_xyz
  1  'x, y, z'
loop_
 _atom_site_type_symbol
 _atom_site_label
 _atom_site_symmetry_multiplicity
 _atom_site_fract_x
 _atom_site_fract_y
 _atom_site_fract_z
 _atom_site_occupancy
  Cr  Cr0  1  -0.00014586  -0.00175221  0.99417702  1
  Cr  Cr1  1  0.16576022  0.16622619  0.16451500  1
  Cr  Cr2  1  0.99557806  0.99517628  0.33099308  1
  Cr  Cr3  1  -0.00289015  0.33084368  0.99573397  1
  Ni  Ni4  1  0.16653143  0.49457691  0.16621023  1
  Ni  Ni5  1  0.99502446  0.33320303  0.32957294  1
  Cr  Cr6  1  -0.00265175  0.66217188  -0.00204792  1
  Cr  Cr7  1  0.16679315  0.83062461  0.16333032  1
  Cr  Cr8  1  -0.00263001  0.66312927  0.33050434  1
  Ni  Ni9  1  0.33248503  0.00012108  0.99577841  1
  Ni  Ni10  1  0.49676038  0.16590720  0.16458385  1
  Cr  Cr11  1  0.33400696  0.99605828  0.33113624  1
  Ni  Ni12  1  0.33280899  0.32812126  -0.00258024  1
  Ni  Ni13  1  0.49689014  0.49565969  0.16347198  1
  Ni  Ni14  1  0.33374599  0.33136369  0.32807663  1
  Cr  Cr15  1  0.32972714  0.66287374  -0.00156304  1
  Ni  Ni16  1  0.49676858  0.82977359  0.16363175  1
  Ni  Ni17  1  0.33245427  0.66341953  0.32957869  1
  Cr  Cr18  1  0.66061206  0.00091943  -0.00112308  1
  Cr  Cr19  1  0.82919980  0.16587292  0.16550757  1
  Fe  Fe20  1  0.66113393  -0.00200133  0.33141632  1
  Ni  Ni21  1  0.66073126  0.33054286  -0.00194118  1
  Ni  Ni22  1  0.82781337  0.49474287  0.16422168  1
  Ni  Ni23  1  0.66234060  0.33043793  0.32924303  1
  Ni  Ni24  1  0.66229699  0.66067186  0.00030842  1
  Cr  Cr25  1  0.82708453  0.83001091  0.16235652  1
  Cr  Cr26  1  0.66293506  0.66375461  0.33058223  1
  Cr  Cr27  1  0.16365972  0.16433826  0.49685419  1
  Ni  Ni28  1  -0.00235574  -0.00240369  0.66483628  1
  Ni  Ni29  1  0.16484968  0.16278005  0.82948101  1
  Cr  Cr30  1  0.16413340  0.49432712  0.49448992  1
  Ni  Ni31  1  0.99650650  0.32820903  0.66519959  1
  Ni  Ni32  1  0.16407612  0.49439874  0.83046225  1
  Ni  Ni33  1  0.16525466  0.83228919  0.49821183  1
  Cr  Cr34  1  -0.00271808  0.66331888  0.66238103  1
  Ni  Ni35  1  0.16527852  0.83381495  0.82900930  1
  Fe  Fe36  1  0.49776969  0.16223087  0.49663887  1
  Ni  Ni37  1  0.33081335  -0.00290459  0.66420335  1
  Ni  Ni38  1  0.49618809  0.16225615  0.83074503  1
  Cr  Cr39  1  0.49744840  0.49752721  0.49687630  1
  Cr  Cr40  1  0.33027480  0.32663182  0.66649908  1
  Cr  Cr41  1  0.49742227  0.49764759  0.83209168  1
  Ni  Ni42  1  0.49789297  0.83202950  0.49794650  1
  Cr  Cr43  1  0.32991040  0.66582929  0.66267824  1
  Cr  Cr44  1  0.49779224  0.83031335  0.83015345  1
  Cr  Cr45  1  0.83106678  0.16441148  0.49625562  1
  Ni  Ni46  1  0.66267567  -0.00289160  0.66173558  1
  Ni  Ni47  1  0.83025110  0.16344882  0.82853999  1
  Ni  Ni48  1  0.82945473  0.49645770  0.49693237  1
  Cr  Cr49  1  0.66390458  0.32862406  0.66417467  1
  Cr  Cr50  1  0.82763525  0.49707287  0.82970442  1
  Ni  Ni51  1  0.82804171  0.83151251  0.49926294  1
  Ni  Ni52  1  0.66505483  0.66619922  0.66087141  1
  Cr  Cr53  1  0.82816668  0.83169438  0.82970324  1
" 