8197,Ni51Fe4Cr44_0,-221.370059033333, 145.579592338283,Ni51Fe4Cr44,"# generated using pymatgen
 data_Cr25Fe2Ni27
_symmetry_space_group_name_H-M   'P 1'
_cell_length_a   7.50850597
_cell_length_b   7.50850597
_cell_length_c   10.61863097
_cell_angle_alpha   90.00000000
_cell_angle_beta   90.00000000
_cell_angle_gamma   90.00000000
_symmetry_Int_Tables_number   1
_chemical_formula_structural   Cr25Fe2Ni27
_chemical_formula_sum   'Cr25 Fe2 Ni27'
_cell_volume   598.65358656
_cell_formula_units_Z   1
loop_
 _symmetry_equiv_pos_site_id
 _symmetry_equiv_pos_as_xyz
  1  'x, y, z'
loop_
 _atom_site_type_symbol
 _atom_site_label
 _atom_site_symmetry_multiplicity
 _atom_site_fract_x
 _atom_site_fract_y
 _atom_site_fract_z
 _atom_site_occupancy
  Cr  Cr0  1  -0.00179152  0.00034519  0.99401620  1
  Cr  Cr1  1  0.16360334  0.16767808  0.16730200  1
  Ni  Ni2  1  -0.00108144  0.99675970  0.33262793  1
  Ni  Ni3  1  0.99487288  0.33558397  0.99504875  1
  Ni  Ni4  1  0.16195013  0.49659703  0.16518322  1
  Ni  Ni5  1  0.99684096  0.33652543  0.33081649  1
  Ni  Ni6  1  0.99650416  0.65731582  0.99634479  1
  Cr  Cr7  1  0.16087515  0.82607777  0.16655908  1
  Ni  Ni8  1  0.00019266  0.65777663  0.33180212  1
  Cr  Cr9  1  0.33058874  -0.00166317  0.99526579  1
  Ni  Ni10  1  0.49783831  0.17111806  0.16492763  1
  Cr  Cr11  1  0.33252558  0.99604599  0.33041812  1
  Cr  Cr12  1  0.32840268  0.33189897  -0.00106863  1
  Ni  Ni13  1  0.49794495  0.49403134  0.16521254  1
  Ni  Ni14  1  0.33112498  0.33698568  0.33038781  1
  Cr  Cr15  1  0.32862607  0.66141432  0.99723112  1
  Cr  Cr16  1  0.49740388  0.82601285  0.16193336  1
  Ni  Ni17  1  0.32848295  0.65846404  0.33240595  1
  Cr  Cr18  1  0.66286337  0.00068853  -0.00268282  1
  Cr  Cr19  1  0.83183317  0.16780358  0.16562053  1
  Cr  Cr20  1  0.66357803  -0.00008324  0.33035493  1
  Ni  Ni21  1  0.66687467  0.33450115  -0.00097320  1
  Ni  Ni22  1  0.83157765  0.49597611  0.16268425  1
  Ni  Ni23  1  0.66375990  0.33450082  0.32943623  1
  Ni  Ni24  1  0.66531728  0.65805127  0.99663826  1
  Cr  Cr25  1  0.83370851  0.82470833  0.16372771  1
  Cr  Cr26  1  0.66303034  0.65866096  0.33227089  1
  Cr  Cr27  1  0.16303524  0.16760968  0.49579650  1
  Cr  Cr28  1  -0.00145571  -0.00087824  0.66528851  1
  Ni  Ni29  1  0.16127380  0.16788382  0.82902699  1
  Ni  Ni30  1  0.16385901  0.49697979  0.49587573  1
  Ni  Ni31  1  0.99617142  0.33342966  0.66607870  1
  Fe  Fe32  1  0.16138451  0.49624427  0.83078183  1
  Ni  Ni33  1  0.16513802  0.82753069  0.49328839  1
  Cr  Cr34  1  -0.00223616  0.65881028  0.66313805  1
  Ni  Ni35  1  0.16375946  0.82980425  0.83204784  1
  Cr  Cr36  1  0.49650376  0.17034737  0.49755953  1
  Cr  Cr37  1  0.32928722  0.99507547  0.66575606  1
  Cr  Cr38  1  0.49761116  0.16905099  0.82914409  1
  Ni  Ni39  1  0.49703797  0.49746676  0.49735279  1
  Fe  Fe40  1  0.32839663  0.33352018  0.66286431  1
  Cr  Cr41  1  0.50105585  0.49824924  0.82899310  1
  Ni  Ni42  1  0.49498675  0.82598948  0.49826062  1
  Cr  Cr43  1  0.32958322  0.66335974  0.66203920  1
  Ni  Ni44  1  0.49653825  0.82754224  0.83057287  1
  Cr  Cr45  1  0.83213214  0.16850393  0.49659285  1
  Cr  Cr46  1  0.66362688  0.99623016  0.66393200  1
  Ni  Ni47  1  0.83253422  0.17060410  0.83032193  1
  Ni  Ni48  1  0.83045338  0.49520933  0.49753088  1
  Ni  Ni49  1  0.66788770  0.33520172  0.66314177  1
  Ni  Ni50  1  0.83071649  0.49396790  0.83152218  1
  Cr  Cr51  1  0.83258160  0.82666644  0.49514284  1
  Ni  Ni52  1  0.66267269  0.65876239  0.66280447  1
  Cr  Cr53  1  0.82893610  0.82398212  0.83257389  1
" 