3603,Ni51Fe18Cr30_0,-227.859222038424, 173.570491549872,Ni51Fe18Cr30,"# generated using pymatgen
 data_Cr2FeNi3
_symmetry_space_group_name_H-M   'P 1'
_cell_length_a   7.47365737
_cell_length_b   7.47365737
_cell_length_c   10.56934762
_cell_angle_alpha   90.00000000
_cell_angle_beta   90.00000000
_cell_angle_gamma   90.00000000
_symmetry_Int_Tables_number   1
_chemical_formula_structural   Cr2FeNi3
_chemical_formula_sum   'Cr18 Fe9 Ni27'
_cell_volume   590.35677224
_cell_formula_units_Z   9
loop_
 _symmetry_equiv_pos_site_id
 _symmetry_equiv_pos_as_xyz
  1  'x, y, z'
loop_
 _atom_site_type_symbol
 _atom_site_label
 _atom_site_symmetry_multiplicity
 _atom_site_fract_x
 _atom_site_fract_y
 _atom_site_fract_z
 _atom_site_occupancy
  Ni  Ni0  1  0.99558145  0.99777769  0.99808271  1
  Cr  Cr1  1  0.16644332  0.16627014  0.16836155  1
  Ni  Ni2  1  0.99659066  0.00115277  0.33456670  1
  Ni  Ni3  1  0.99818261  0.33344046  0.99867059  1
  Cr  Cr4  1  0.16427165  0.50017610  0.16471485  1
  Ni  Ni5  1  0.99642131  0.33122643  0.33538862  1
  Ni  Ni6  1  -0.00024768  0.66726733  0.99949437  1
  Cr  Cr7  1  0.16272924  0.83212876  0.16695118  1
  Fe  Fe8  1  0.99762952  0.66585976  0.33302962  1
  Cr  Cr9  1  0.33330266  0.99516081  0.99922146  1
  Cr  Cr10  1  0.49986063  0.16590284  0.16629517  1
  Ni  Ni11  1  0.33332262  0.99761832  0.33531812  1
  Ni  Ni12  1  0.33150338  0.33555799  0.99917573  1
  Cr  Cr13  1  0.49984534  0.49766290  0.16603354  1
  Ni  Ni14  1  0.33224197  0.33414409  0.33524114  1
  Ni  Ni15  1  0.33153875  0.66591767  0.99807979  1
  Fe  Fe16  1  0.50148601  0.83277075  0.16902376  1
  Ni  Ni17  1  0.33854432  0.66710090  0.33309864  1
  Ni  Ni18  1  0.66944679  0.99769740  0.99885464  1
  Cr  Cr19  1  0.83239809  0.16502371  0.16314786  1
  Fe  Fe20  1  0.66742223  0.99774831  0.33413002  1
  Ni  Ni21  1  0.66903533  0.33172687  0.00046914  1
  Ni  Ni22  1  0.83344107  0.50182528  0.16695466  1
  Fe  Fe23  1  0.66825432  0.33422328  0.33432754  1
  Cr  Cr24  1  0.66562010  0.66831226  0.00081364  1
  Ni  Ni25  1  0.83280261  0.83207653  0.16743218  1
  Fe  Fe26  1  0.66776417  0.66658929  0.33444884  1
  Ni  Ni27  1  0.16577947  0.16656940  0.49797436  1
  Cr  Cr28  1  0.99708893  0.00117051  0.66557807  1
  Cr  Cr29  1  0.16636170  0.16879083  0.83273781  1
  Cr  Cr30  1  0.16496001  0.49890534  0.49957256  1
  Ni  Ni31  1  0.00117946  0.33315424  0.66438305  1
  Ni  Ni32  1  0.16485864  0.50046331  0.83473326  1
  Cr  Cr33  1  0.16438518  0.83432801  0.49854566  1
  Ni  Ni34  1  0.99667669  0.66578375  0.66632069  1
  Fe  Fe35  1  0.16271819  0.82921402  0.83415142  1
  Cr  Cr36  1  0.49769971  0.16539619  0.49956280  1
  Fe  Fe37  1  0.33403785  -0.00008351  0.66485083  1
  Cr  Cr38  1  0.50243145  0.16545458  0.83328330  1
  Ni  Ni39  1  0.50126709  0.50117380  0.49834530  1
  Ni  Ni40  1  0.32983601  0.33348538  0.66425227  1
  Cr  Cr41  1  0.49860164  0.49758061  0.83345287  1
  Ni  Ni42  1  0.50259757  0.83261767  0.49931868  1
  Cr  Cr43  1  0.33460306  0.66595509  0.66771605  1
  Fe  Fe44  1  0.50228260  0.83259941  0.83133213  1
  Ni  Ni45  1  0.83392836  0.16509574  0.49947965  1
  Ni  Ni46  1  0.66760266  0.99528213  0.66600130  1
  Fe  Fe47  1  0.83309305  0.16601772  0.83400952  1
  Ni  Ni48  1  0.83197875  0.50176804  0.49890839  1
  Cr  Cr49  1  0.66940347  0.33375602  0.66315291  1
  Cr  Cr50  1  0.83616456  0.50282479  0.83264108  1
  Ni  Ni51  1  0.83067455  0.83190904  0.49881661  1
  Ni  Ni52  1  0.66733255  0.67050502  0.66277661  1
  Ni  Ni53  1  0.83314528  0.83404522  0.83289773  1
" 