7691,Ni51Cr49_11,-219.006227707549, 129.538627069442,Ni51Cr49,"# generated using pymatgen
 data_CrNi
_symmetry_space_group_name_H-M   'P 1'
_cell_length_a   7.52531122
_cell_length_b   7.52531122
_cell_length_c   10.64239719
_cell_angle_alpha   90.00000000
_cell_angle_beta   90.00000000
_cell_angle_gamma   90.00000000
_symmetry_Int_Tables_number   1
_chemical_formula_structural   CrNi
_chemical_formula_sum   'Cr27 Ni27'
_cell_volume   602.68224161
_cell_formula_units_Z   27
loop_
 _symmetry_equiv_pos_site_id
 _symmetry_equiv_pos_as_xyz
  1  'x, y, z'
loop_
 _atom_site_type_symbol
 _atom_site_label
 _atom_site_symmetry_multiplicity
 _atom_site_fract_x
 _atom_site_fract_y
 _atom_site_fract_z
 _atom_site_occupancy
  Ni  Ni0  1  0.99505111  0.00125494  0.99534219  1
  Ni  Ni1  1  0.16181599  0.16225547  0.16241461  1
  Cr  Cr2  1  -0.00192932  -0.00046107  0.32907191  1
  Ni  Ni3  1  0.99202035  0.32502830  -0.00330728  1
  Cr  Cr4  1  0.16079290  0.49315262  0.16334036  1
  Ni  Ni5  1  -0.00314916  0.32739156  0.32735822  1
  Cr  Cr6  1  0.99127303  0.66237243  0.99576871  1
  Cr  Cr7  1  0.16402820  0.83367726  0.16271865  1
  Cr  Cr8  1  0.99407206  0.66084906  0.32840005  1
  Ni  Ni9  1  0.32950795  -0.00149802  -0.00278483  1
  Ni  Ni10  1  0.49626247  0.16306827  0.16196428  1
  Ni  Ni11  1  0.32901414  0.00061875  0.32933503  1
  Cr  Cr12  1  0.32937089  0.32608902  -0.00244446  1
  Ni  Ni13  1  0.50044504  0.49401124  0.16118576  1
  Cr  Cr14  1  0.32948650  0.32497567  0.32943615  1
  Cr  Cr15  1  0.33285922  0.66371306  0.99547753  1
  Cr  Cr16  1  0.49565054  0.83157834  0.16083759  1
  Cr  Cr17  1  0.33033029  0.66305945  0.32878058  1
  Ni  Ni18  1  0.66381270  -0.00302639  0.99527534  1
  Ni  Ni19  1  0.83030508  0.16664972  0.16009741  1
  Cr  Cr20  1  0.66069332  -0.00124858  0.32998987  1
  Ni  Ni21  1  0.66668736  0.32943433  -0.00106365  1
  Ni  Ni22  1  0.82729268  0.49147712  0.16132221  1
  Cr  Cr23  1  0.66300088  0.32875245  0.32682923  1
  Ni  Ni24  1  0.66385589  0.66194208  0.99557870  1
  Cr  Cr25  1  0.82869361  0.83120826  0.16127646  1
  Cr  Cr26  1  0.66393045  0.66100644  0.32682483  1
  Ni  Ni27  1  0.16290354  0.16275758  0.49542356  1
  Ni  Ni28  1  0.99395607  -0.00239672  0.66443782  1
  Ni  Ni29  1  0.15716465  0.16140885  0.83058880  1
  Cr  Cr30  1  0.16064756  0.49490006  0.49815673  1
  Ni  Ni31  1  0.99411244  0.32792454  0.66428863  1
  Cr  Cr32  1  0.15970823  0.49422004  0.82672816  1
  Cr  Cr33  1  0.16271118  0.83028890  0.49617515  1
  Ni  Ni34  1  0.99353655  0.66279405  0.66388616  1
  Cr  Cr35  1  0.16267863  0.83160615  0.82942870  1
  Ni  Ni36  1  0.49490673  0.16148993  0.49632852  1
  Cr  Cr37  1  0.32939333  -0.00261866  0.66225126  1
  Cr  Cr38  1  0.49977972  0.16041600  0.83049145  1
  Cr  Cr39  1  0.49707376  0.49515329  0.49913640  1
  Cr  Cr40  1  0.32877133  0.32792843  0.66148538  1
  Cr  Cr41  1  0.49980475  0.49825107  0.82841344  1
  Cr  Cr42  1  0.49629321  0.83136813  0.49748323  1
  Ni  Ni43  1  0.33057177  0.66373779  0.66322246  1
  Ni  Ni44  1  0.50023245  0.82927860  0.82934474  1
  Cr  Cr45  1  0.82958319  0.16387491  0.49885863  1
  Ni  Ni46  1  0.66499807  0.99551523  0.66417297  1
  Ni  Ni47  1  0.83157437  0.16262539  0.82936803  1
  Cr  Cr48  1  0.83066641  0.49446838  0.49806277  1
  Ni  Ni49  1  0.66593123  0.32904635  0.66311804  1
  Ni  Ni50  1  0.82857297  0.49516631  0.82845235  1
  Cr  Cr51  1  0.82935762  0.83003113  0.49902273  1
  Ni  Ni52  1  0.66430437  0.66378488  0.66563374  1
  Ni  Ni53  1  0.82654816  0.83060405  0.82797117  1
" 