5219,Ni51Fe4Cr44_13,-221.290871171935, 142.899235834002,Ni51Fe4Cr44,"# generated using pymatgen
 data_Cr25Fe2Ni27
_symmetry_space_group_name_H-M   'P 1'
_cell_length_a   7.50658472
_cell_length_b   7.50658472
_cell_length_c   10.61591392
_cell_angle_alpha   90.00000000
_cell_angle_beta   90.00000000
_cell_angle_gamma   90.00000000
_symmetry_Int_Tables_number   1
_chemical_formula_structural   Cr25Fe2Ni27
_chemical_formula_sum   'Cr25 Fe2 Ni27'
_cell_volume   598.19416064
_cell_formula_units_Z   1
loop_
 _symmetry_equiv_pos_site_id
 _symmetry_equiv_pos_as_xyz
  1  'x, y, z'
loop_
 _atom_site_type_symbol
 _atom_site_label
 _atom_site_symmetry_multiplicity
 _atom_site_fract_x
 _atom_site_fract_y
 _atom_site_fract_z
 _atom_site_occupancy
  Ni  Ni0  1  0.00064750  0.99694653  -0.00094585  1
  Fe  Fe1  1  0.16688938  0.16591790  0.16297550  1
  Ni  Ni2  1  -0.00222853  0.99619483  0.33040046  1
  Cr  Cr3  1  0.00220671  0.33255344  0.99536269  1
  Ni  Ni4  1  0.16709715  0.49973737  0.16391332  1
  Cr  Cr5  1  -0.00071650  0.33389875  0.33223985  1
  Ni  Ni6  1  -0.00070087  0.66405326  -0.00133294  1
  Cr  Cr7  1  0.16140857  0.82972899  0.16489712  1
  Ni  Ni8  1  0.00046682  0.66378420  0.33153075  1
  Ni  Ni9  1  0.32925244  -0.00124284  0.99687625  1
  Ni  Ni10  1  0.49609264  0.16788299  0.16347700  1
  Cr  Cr11  1  0.32936933  0.99728610  0.33043513  1
  Ni  Ni12  1  0.33012311  0.33169164  -0.00055757  1
  Ni  Ni13  1  0.49447216  0.49446240  0.16327381  1
  Ni  Ni14  1  0.33079760  0.33431581  0.32722770  1
  Ni  Ni15  1  0.33034202  0.66205278  0.99719303  1
  Cr  Cr16  1  0.49378428  0.82804828  0.16245685  1
  Ni  Ni17  1  0.32685552  0.65990935  0.33114669  1
  Cr  Cr18  1  0.66228828  0.99613454  0.99681651  1
  Cr  Cr19  1  0.83150309  0.16337876  0.16424291  1
  Cr  Cr20  1  0.66479340  -0.00161961  0.33151331  1
  Ni  Ni21  1  0.66101649  0.33258894  -0.00012524  1
  Cr  Cr22  1  0.83052432  0.49840048  0.16221386  1
  Ni  Ni23  1  0.66315899  0.33125570  0.33033005  1
  Ni  Ni24  1  0.66229443  0.66278735  -0.00200591  1
  Fe  Fe25  1  0.83184259  0.82903610  0.16304689  1
  Cr  Cr26  1  0.66396837  0.66114779  0.32938839  1
  Cr  Cr27  1  0.16411554  0.16519310  0.49683801  1
  Cr  Cr28  1  -0.00168545  -0.00083038  0.66346163  1
  Ni  Ni29  1  0.16512762  0.16609345  0.83291148  1
  Ni  Ni30  1  0.16311392  0.50017172  0.49804837  1
  Ni  Ni31  1  0.00152776  0.33439522  0.66319714  1
  Ni  Ni32  1  0.16510821  0.49725076  0.82982355  1
  Ni  Ni33  1  0.16253293  0.82621546  0.49619031  1
  Ni  Ni34  1  -0.00062474  0.65989376  0.66197991  1
  Cr  Cr35  1  0.16492117  0.82813815  0.83166029  1
  Cr  Cr36  1  0.49727087  0.16790647  0.49596511  1
  Cr  Cr37  1  0.33014355  0.99609603  0.66603687  1
  Cr  Cr38  1  0.49439433  0.16628568  0.83172747  1
  Cr  Cr39  1  0.49451984  0.49662106  0.49635386  1
  Ni  Ni40  1  0.32514839  0.33410927  0.66515906  1
  Cr  Cr41  1  0.49546345  0.49871439  0.83201332  1
  Cr  Cr42  1  0.49252724  0.82710829  0.49970029  1
  Ni  Ni43  1  0.32827523  0.66136294  0.66394221  1
  Ni  Ni44  1  0.49532932  0.82753757  0.83147532  1
  Ni  Ni45  1  0.83269642  0.16711448  0.49620007  1
  Cr  Cr46  1  0.66335150  0.99475952  0.66368572  1
  Cr  Cr47  1  0.83363823  0.16611132  0.83041470  1
  Ni  Ni48  1  0.83322119  0.49664352  0.49823002  1
  Cr  Cr49  1  0.66706311  0.33194849  0.66182118  1
  Cr  Cr50  1  0.83242598  0.49851986  0.83053840  1
  Cr  Cr51  1  0.83469631  0.82896707  0.49570460  1
  Ni  Ni52  1  0.66420010  0.66354394  0.66462470  1
  Cr  Cr53  1  0.83174000  0.82758828  0.83409712  1
" 