4166,Ni51Fe18Cr30_4,-227.869891347364, 175.245500133,Ni51Fe18Cr30,"# generated using pymatgen
 data_Cr2FeNi3
_symmetry_space_group_name_H-M   'P 1'
_cell_length_a   7.47456428
_cell_length_b   7.47456428
_cell_length_c   10.57063018
_cell_angle_alpha   90.00000000
_cell_angle_beta   90.00000000
_cell_angle_gamma   90.00000000
_symmetry_Int_Tables_number   1
_chemical_formula_structural   Cr2FeNi3
_chemical_formula_sum   'Cr18 Fe9 Ni27'
_cell_volume   590.57171302
_cell_formula_units_Z   9
loop_
 _symmetry_equiv_pos_site_id
 _symmetry_equiv_pos_as_xyz
  1  'x, y, z'
loop_
 _atom_site_type_symbol
 _atom_site_label
 _atom_site_symmetry_multiplicity
 _atom_site_fract_x
 _atom_site_fract_y
 _atom_site_fract_z
 _atom_site_occupancy
  Fe  Fe0  1  0.00103792  0.99914273  0.99792563  1
  Fe  Fe1  1  0.16756010  0.16483231  0.16335596  1
  Ni  Ni2  1  0.00117972  -0.00043408  0.33023950  1
  Ni  Ni3  1  0.00060783  0.33140475  0.99821188  1
  Cr  Cr4  1  0.17036535  0.50074674  0.16351331  1
  Cr  Cr5  1  0.00417981  0.33160566  0.33403220  1
  Fe  Fe6  1  0.00046469  0.66861651  0.99846226  1
  Ni  Ni7  1  0.16477395  0.83290848  0.16410910  1
  Cr  Cr8  1  0.00143478  0.66642518  0.33162494  1
  Ni  Ni9  1  0.33177878  0.99781793  0.99679371  1
  Cr  Cr10  1  0.50063515  0.16792832  0.16484582  1
  Cr  Cr11  1  0.33124231  0.00021376  0.33353859  1
  Ni  Ni12  1  0.33008817  0.33037531  -0.00039111  1
  Ni  Ni13  1  0.49680453  0.49910971  0.16785680  1
  Ni  Ni14  1  0.33416826  0.33392623  0.33465708  1
  Ni  Ni15  1  0.33290606  0.67011643  0.00111050  1
  Fe  Fe16  1  0.49591001  0.83356995  0.16437137  1
  Ni  Ni17  1  0.33353172  0.66460206  0.33170282  1
  Ni  Ni18  1  0.66568506  0.99715158  0.99771199  1
  Cr  Cr19  1  0.83257795  0.16394844  0.16713149  1
  Ni  Ni20  1  0.66571863  0.99936084  0.33108470  1
  Cr  Cr21  1  0.66753055  0.33317598  0.99606030  1
  Fe  Fe22  1  0.83266063  0.49811814  0.16520384  1
  Ni  Ni23  1  0.66289363  0.33337150  0.33349148  1
  Cr  Cr24  1  0.66583410  0.66863729  -0.00026981  1
  Fe  Fe25  1  0.83334015  0.83419109  0.16495094  1
  Cr  Cr26  1  0.66298309  0.66593858  0.33005281  1
  Fe  Fe27  1  0.16887815  0.16630294  0.50138758  1
  Ni  Ni28  1  0.00201096  0.99916206  0.66920725  1
  Ni  Ni29  1  0.16646278  0.16444685  0.83479882  1
  Ni  Ni30  1  0.17205341  0.50058467  0.50001311  1
  Cr  Cr31  1  0.00183846  0.33059931  0.66690949  1
  Cr  Cr32  1  0.16818779  0.50225140  0.83434074  1
  Cr  Cr33  1  0.16486240  0.83038926  0.50318665  1
  Ni  Ni34  1  0.00007802  0.66804963  0.66905011  1
  Ni  Ni35  1  0.16576388  0.83333902  0.83250446  1
  Ni  Ni36  1  0.49989083  0.17073940  0.49926371  1
  Fe  Fe37  1  0.33175277  0.00110646  0.66963158  1
  Ni  Ni38  1  0.49881192  0.16522129  0.83338934  1
  Ni  Ni39  1  0.49537198  0.49618873  0.49923529  1
  Ni  Ni40  1  0.33375302  0.33077960  0.66426937  1
  Cr  Cr41  1  0.49572868  0.49883724  0.83091008  1
  Cr  Cr42  1  0.49880578  0.83204626  0.50046694  1
  Ni  Ni43  1  0.33327634  0.66615793  0.66590387  1
  Ni  Ni44  1  0.49769710  0.83372999  0.83411576  1
  Cr  Cr45  1  0.82936867  0.16313083  0.49740283  1
  Cr  Cr46  1  0.66423266  -0.00025027  0.66987331  1
  Ni  Ni47  1  0.83314306  0.16376429  0.83374910  1
  Cr  Cr48  1  0.83093238  0.49972753  0.50250369  1
  Ni  Ni49  1  0.66331793  0.33299322  0.66737259  1
  Fe  Fe50  1  0.83361060  0.50038628  0.83102527  1
  Cr  Cr51  1  0.83471034  0.83578433  0.49953250  1
  Ni  Ni52  1  0.66524275  0.66578880  0.66840541  1
  Ni  Ni53  1  0.83517228  0.83478942  0.83302097  1
" 