4360,Ni51Fe4Cr44_6,-221.087537336646, 142.755897825532,Ni51Fe4Cr44,"# generated using pymatgen
 data_Cr25Fe2Ni27
_symmetry_space_group_name_H-M   'P 1'
_cell_length_a   7.51066193
_cell_length_b   7.51066193
_cell_length_c   10.62167996
_cell_angle_alpha   90.00000000
_cell_angle_beta   90.00000000
_cell_angle_gamma   90.00000000
_symmetry_Int_Tables_number   1
_chemical_formula_structural   Cr25Fe2Ni27
_chemical_formula_sum   'Cr25 Fe2 Ni27'
_cell_volume   599.16941872
_cell_formula_units_Z   1
loop_
 _symmetry_equiv_pos_site_id
 _symmetry_equiv_pos_as_xyz
  1  'x, y, z'
loop_
 _atom_site_type_symbol
 _atom_site_label
 _atom_site_symmetry_multiplicity
 _atom_site_fract_x
 _atom_site_fract_y
 _atom_site_fract_z
 _atom_site_occupancy
  Ni  Ni0  1  0.00067879  0.99625163  0.99704309  1
  Cr  Cr1  1  0.16493145  0.16225128  0.16532821  1
  Cr  Cr2  1  0.99620483  -0.00124829  0.33126868  1
  Cr  Cr3  1  -0.00220715  0.32732063  -0.00089769  1
  Ni  Ni4  1  0.16311453  0.49699782  0.16498560  1
  Fe  Fe5  1  0.99567815  0.32901516  0.33128650  1
  Fe  Fe6  1  -0.00092625  0.66637640  -0.00252303  1
  Ni  Ni7  1  0.16533482  0.83212135  0.16132068  1
  Cr  Cr8  1  -0.00286706  0.66380485  0.33072844  1
  Ni  Ni9  1  0.32891984  0.99577722  0.99668803  1
  Ni  Ni10  1  0.49714392  0.16293259  0.16443671  1
  Ni  Ni11  1  0.33095751  0.00104736  0.32857445  1
  Cr  Cr12  1  0.33143858  0.32689033  0.99527827  1
  Cr  Cr13  1  0.49835240  0.49507434  0.16526525  1
  Ni  Ni14  1  0.33113383  0.32673546  0.33076160  1
  Cr  Cr15  1  0.33038301  0.66771703  -0.00163521  1
  Ni  Ni16  1  0.49564903  0.83281285  0.16404430  1
  Cr  Cr17  1  0.33056630  0.66628415  0.32644457  1
  Cr  Cr18  1  0.66001658  -0.00082152  -0.00167673  1
  Ni  Ni19  1  0.82860868  0.16538734  0.16357119  1
  Cr  Cr20  1  0.66355412  -0.00141527  0.33082800  1
  Ni  Ni21  1  0.66290163  0.32899626  -0.00167391  1
  Cr  Cr22  1  0.82936706  0.49593287  0.16231021  1
  Ni  Ni23  1  0.66450934  0.32832693  0.33081481  1
  Ni  Ni24  1  0.66189925  0.66506253  -0.00253740  1
  Cr  Cr25  1  0.83020144  0.83144016  0.16154101  1
  Ni  Ni26  1  0.66567072  0.66251005  0.33134186  1
  Ni  Ni27  1  0.16616786  0.16309746  0.49743605  1
  Ni  Ni28  1  -0.00219372  0.99708540  0.66299228  1
  Ni  Ni29  1  0.16648029  0.15801298  0.82865837  1
  Cr  Cr30  1  0.16469174  0.49369455  0.49668923  1
  Cr  Cr31  1  -0.00241697  0.32826142  0.66108215  1
  Cr  Cr32  1  0.16241317  0.49658234  0.82909761  1
  Cr  Cr33  1  0.16353486  0.83587449  0.49928861  1
  Ni  Ni34  1  0.99634721  0.66663592  0.66367466  1
  Ni  Ni35  1  0.16378787  0.83545001  0.83079037  1
  Ni  Ni36  1  0.49491262  0.16366863  0.49725410  1
  Ni  Ni37  1  0.33024663  0.00108759  0.66602120  1
  Ni  Ni38  1  0.49399727  0.15971754  0.82964682  1
  Cr  Cr39  1  0.49723985  0.49337690  0.49517860  1
  Ni  Ni40  1  0.32992760  0.32356678  0.66400844  1
  Cr  Cr41  1  0.49893630  0.49504091  0.83052360  1
  Cr  Cr42  1  0.49730969  0.83473122  0.49595337  1
  Cr  Cr43  1  0.32949724  0.66518661  0.66614357  1
  Ni  Ni44  1  0.49559534  0.83503393  0.83073776  1
  Ni  Ni45  1  0.83022182  0.16321965  0.49682660  1
  Ni  Ni46  1  0.66316321  -0.00146531  0.66254669  1
  Cr  Cr47  1  0.83125077  0.16121329  0.83233539  1
  Ni  Ni48  1  0.83033785  0.49688060  0.49513618  1
  Cr  Cr49  1  0.66282102  0.32600452  0.66381313  1
  Cr  Cr50  1  0.82985683  0.49893378  0.83337890  1
  Ni  Ni51  1  0.83090783  0.83115304  0.49972423  1
  Cr  Cr52  1  0.66478965  0.66617116  0.66149272  1
  Cr  Cr53  1  0.83217216  0.83141445  0.82986322  1
" 