2819,Ni51Fe4Cr44_3,-221.21978212008, 146.967911794384,Ni51Fe4Cr44,"# generated using pymatgen
 data_Cr25Fe2Ni27
_symmetry_space_group_name_H-M   'P 1'
_cell_length_a   7.50760127
_cell_length_b   7.50760127
_cell_length_c   10.61735153
_cell_angle_alpha   90.00000000
_cell_angle_beta   90.00000000
_cell_angle_gamma   90.00000000
_symmetry_Int_Tables_number   1
_chemical_formula_structural   Cr25Fe2Ni27
_chemical_formula_sum   'Cr25 Fe2 Ni27'
_cell_volume   598.43721698
_cell_formula_units_Z   1
loop_
 _symmetry_equiv_pos_site_id
 _symmetry_equiv_pos_as_xyz
  1  'x, y, z'
loop_
 _atom_site_type_symbol
 _atom_site_label
 _atom_site_symmetry_multiplicity
 _atom_site_fract_x
 _atom_site_fract_y
 _atom_site_fract_z
 _atom_site_occupancy
  Ni  Ni0  1  -0.00067011  -0.00143526  -0.00196312  1
  Ni  Ni1  1  0.16649123  0.16728535  0.16321927  1
  Cr  Cr2  1  -0.00232197  -0.00115614  0.33580967  1
  Cr  Cr3  1  -0.00220355  0.33289790  0.99657958  1
  Ni  Ni4  1  0.16717771  0.49327809  0.16491995  1
  Cr  Cr5  1  -0.00158332  0.33149851  0.33361334  1
  Cr  Cr6  1  -0.00263954  0.66110876  0.99666223  1
  Cr  Cr7  1  0.16325630  0.82985605  0.16456741  1
  Ni  Ni8  1  0.99523796  0.66357674  0.33286774  1
  Cr  Cr9  1  0.33246851  -0.00080674  -0.00121754  1
  Fe  Fe10  1  0.49623215  0.16531509  0.16559613  1
  Cr  Cr11  1  0.33211164  0.00132700  0.33190590  1
  Ni  Ni12  1  0.33079270  0.33055338  -0.00226445  1
  Cr  Cr13  1  0.49565047  0.49813879  0.16782400  1
  Ni  Ni14  1  0.33084822  0.32883439  0.33099922  1
  Cr  Cr15  1  0.33203311  0.66273582  0.99274697  1
  Ni  Ni16  1  0.49862694  0.83087446  0.16618318  1
  Cr  Cr17  1  0.32926323  0.66442900  0.33305104  1
  Cr  Cr18  1  0.65981665  -0.00218697  0.99713459  1
  Cr  Cr19  1  0.83136869  0.16226603  0.16265945  1
  Ni  Ni20  1  0.66264829  0.99639272  0.33237611  1
  Cr  Cr21  1  0.66036439  0.33217464  0.99369551  1
  Cr  Cr22  1  0.83001139  0.49833442  0.16719047  1
  Cr  Cr23  1  0.66329161  0.32822531  0.33487972  1
  Cr  Cr24  1  0.66232244  0.66251943  0.99402785  1
  Cr  Cr25  1  0.82840160  0.83138686  0.16585905  1
  Ni  Ni26  1  0.66530124  0.66508956  0.33359919  1
  Ni  Ni27  1  0.16456774  0.16567158  0.50005507  1
  Ni  Ni28  1  0.99587903  -0.00161220  0.65841663  1
  Cr  Cr29  1  0.16338987  0.16526651  0.82901132  1
  Cr  Cr30  1  0.16863025  0.49570435  0.49779539  1
  Ni  Ni31  1  0.99671542  0.33110210  0.66238696  1
  Ni  Ni32  1  0.16720116  0.49400530  0.82890551  1
  Ni  Ni33  1  0.16108322  0.83148568  0.49852722  1
  Cr  Cr34  1  0.99593218  0.66191607  0.66220836  1
  Cr  Cr35  1  0.16414523  0.83191158  0.82740284  1
  Ni  Ni36  1  0.49803175  0.16613182  0.49748210  1
  Cr  Cr37  1  0.33256403  -0.00157574  0.66104661  1
  Ni  Ni38  1  0.49659195  0.16601194  0.82928199  1
  Ni  Ni39  1  0.49980463  0.49429956  0.49902769  1
  Ni  Ni40  1  0.33317060  0.33024683  0.66368386  1
  Ni  Ni41  1  0.49563793  0.49529447  0.82610384  1
  Cr  Cr42  1  0.49954169  0.82728203  0.49830324  1
  Fe  Fe43  1  0.33280142  0.66130462  0.66421861  1
  Ni  Ni44  1  0.49896344  0.82977457  0.82686952  1
  Ni  Ni45  1  0.82858073  0.16313793  0.50182773  1
  Ni  Ni46  1  0.66291135  -0.00188080  0.66254899  1
  Cr  Cr47  1  0.83058492  0.16387395  0.82712984  1
  Ni  Ni48  1  0.82822861  0.49792913  0.49817945  1
  Ni  Ni49  1  0.66241283  0.33161850  0.66321133  1
  Ni  Ni50  1  0.82939157  0.49606324  0.82677996  1
  Ni  Ni51  1  0.82895883  0.83091281  0.49682774  1
  Ni  Ni52  1  0.66362008  0.66195667  0.66449143  1
  Cr  Cr53  1  0.83051622  0.83380894  0.82990899  1
" 