807,Ni51Fe18Cr30_9,-227.514469488262, 170.905090674056,Ni51Fe18Cr30,"# generated using pymatgen
 data_Cr2FeNi3
_symmetry_space_group_name_H-M   'P 1'
_cell_length_a   7.46973025
_cell_length_b   7.46973025
_cell_length_c   10.56379383
_cell_angle_alpha   90.00000000
_cell_angle_beta   90.00000000
_cell_angle_gamma   90.00000000
_symmetry_Int_Tables_number   1
_chemical_formula_structural   Cr2FeNi3
_chemical_formula_sum   'Cr18 Fe9 Ni27'
_cell_volume   589.42663073
_cell_formula_units_Z   9
loop_
 _symmetry_equiv_pos_site_id
 _symmetry_equiv_pos_as_xyz
  1  'x, y, z'
loop_
 _atom_site_type_symbol
 _atom_site_label
 _atom_site_symmetry_multiplicity
 _atom_site_fract_x
 _atom_site_fract_y
 _atom_site_fract_z
 _atom_site_occupancy
  Ni  Ni0  1  0.00360625  0.00281500  0.00078887  1
  Ni  Ni1  1  0.16365629  0.16801648  0.16562627  1
  Ni  Ni2  1  0.00044676  0.00189348  0.33274886  1
  Ni  Ni3  1  0.00110657  0.33332078  0.00050097  1
  Fe  Fe4  1  0.16598114  0.49971907  0.16738076  1
  Ni  Ni5  1  0.99905117  0.33386699  0.33311482  1
  Fe  Fe6  1  0.00159357  0.66493472  0.00045307  1
  Ni  Ni7  1  0.16441689  0.83096617  0.16646432  1
  Fe  Fe8  1  0.00140338  0.66569335  0.33449107  1
  Cr  Cr9  1  0.32919323  0.99793072  0.00087637  1
  Cr  Cr10  1  0.49843976  0.17127202  0.16888311  1
  Cr  Cr11  1  0.32929405  0.99791474  0.33330608  1
  Fe  Fe12  1  0.33055790  0.33526007  0.00188782  1
  Ni  Ni13  1  0.49914481  0.50098259  0.16653158  1
  Ni  Ni14  1  0.33101625  0.33709134  0.33251554  1
  Ni  Ni15  1  0.33295425  0.66483455  0.00033231  1
  Cr  Cr16  1  0.49949678  0.82851006  0.16686202  1
  Ni  Ni17  1  0.33299275  0.66329556  0.33367667  1
  Cr  Cr18  1  0.66709526  0.99961760  0.00036801  1
  Ni  Ni19  1  0.83759336  0.16874847  0.16747183  1
  Cr  Cr20  1  0.66828715  0.00054873  0.33535494  1
  Cr  Cr21  1  0.66908798  0.33634898  0.00177366  1
  Ni  Ni22  1  0.83303716  0.50038960  0.16712221  1
  Fe  Fe23  1  0.66687371  0.33603407  0.33396878  1
  Ni  Ni24  1  0.66396095  0.66216218  0.99825097  1
  Cr  Cr25  1  0.83586925  0.83075938  0.16589412  1
  Ni  Ni26  1  0.66557926  0.66213165  0.33460843  1
  Cr  Cr27  1  0.16768561  0.16882980  0.50133879  1
  Cr  Cr28  1  0.00196274  0.00043047  0.66592528  1
  Ni  Ni29  1  0.16825348  0.16688313  0.83291290  1
  Ni  Ni30  1  0.16798222  0.50107500  0.49866924  1
  Ni  Ni31  1  0.00027065  0.33457105  0.66594781  1
  Cr  Cr32  1  0.16672068  0.49871772  0.83257013  1
  Ni  Ni33  1  0.16680817  0.83088943  0.49902096  1
  Cr  Cr34  1  0.00119950  0.66334288  0.66366675  1
  Ni  Ni35  1  0.16858081  0.83282199  0.83385700  1
  Ni  Ni36  1  0.49882350  0.16931098  0.49950293  1
  Ni  Ni37  1  0.33283761  0.99673504  0.66648973  1
  Cr  Cr38  1  0.49565373  0.16891019  0.83208955  1
  Ni  Ni39  1  0.49800520  0.49914949  0.49889376  1
  Fe  Fe40  1  0.33254152  0.33496509  0.66434163  1
  Fe  Fe41  1  0.49794884  0.50185420  0.83383248  1
  Fe  Fe42  1  0.49803828  0.83044014  0.49891327  1
  Ni  Ni43  1  0.33372317  0.66788285  0.66525812  1
  Fe  Fe44  1  0.49642678  0.83010780  0.83354001  1
  Ni  Ni45  1  0.83310605  0.16811220  0.49797422  1
  Cr  Cr46  1  0.66452596  0.99860512  0.66383759  1
  Cr  Cr47  1  0.83633073  0.16838047  0.83350945  1
  Ni  Ni48  1  0.83357757  0.49991701  0.49775158  1
  Cr  Cr49  1  0.66989219  0.33597558  0.66422522  1
  Ni  Ni50  1  0.83337235  0.50065346  0.83462887  1
  Ni  Ni51  1  0.83464695  0.83160051  0.49717396  1
  Cr  Cr52  1  0.66462623  0.66489842  0.66678858  1
  Cr  Cr53  1  0.83502697  0.83018497  0.83639010  1
" 