3524,Ni51Fe4Cr44_18,-221.160225290622, 144.951375587168,Ni51Fe4Cr44,"# generated using pymatgen
 data_Cr25Fe2Ni27
_symmetry_space_group_name_H-M   'P 1'
_cell_length_a   7.50771012
_cell_length_b   7.50771012
_cell_length_c   10.61750547
_cell_angle_alpha   90.00000000
_cell_angle_beta   90.00000000
_cell_angle_gamma   90.00000000
_symmetry_Int_Tables_number   1
_chemical_formula_structural   Cr25Fe2Ni27
_chemical_formula_sum   'Cr25 Fe2 Ni27'
_cell_volume   598.46324733
_cell_formula_units_Z   1
loop_
 _symmetry_equiv_pos_site_id
 _symmetry_equiv_pos_as_xyz
  1  'x, y, z'
loop_
 _atom_site_type_symbol
 _atom_site_label
 _atom_site_symmetry_multiplicity
 _atom_site_fract_x
 _atom_site_fract_y
 _atom_site_fract_z
 _atom_site_occupancy
  Cr  Cr0  1  -0.00239171  0.99664619  0.99671128  1
  Cr  Cr1  1  0.16555944  0.16595672  0.16367173  1
  Ni  Ni2  1  0.99666216  0.99477605  0.33406266  1
  Ni  Ni3  1  0.99609657  0.33358102  0.99726522  1
  Fe  Fe4  1  0.16322051  0.49912334  0.16295615  1
  Cr  Cr5  1  -0.00004516  0.32975357  0.33066295  1
  Ni  Ni6  1  -0.00120350  0.66120711  -0.00172894  1
  Cr  Cr7  1  0.16345888  0.82779419  0.16321378  1
  Ni  Ni8  1  -0.00167543  0.66696484  0.32921949  1
  Fe  Fe9  1  0.33178935  0.99542297  0.99504568  1
  Cr  Cr10  1  0.49565718  0.16439047  0.16191764  1
  Cr  Cr11  1  0.32885762  0.99568903  0.33169070  1
  Ni  Ni12  1  0.33133931  0.33234312  0.99693597  1
  Cr  Cr13  1  0.49531779  0.49694961  0.16493049  1
  Ni  Ni14  1  0.32914241  0.33342242  0.33170715  1
  Ni  Ni15  1  0.33006738  0.66395220  0.99617651  1
  Ni  Ni16  1  0.49595428  0.82873804  0.16310416  1
  Ni  Ni17  1  0.32988830  0.66315620  0.33196030  1
  Cr  Cr18  1  0.66197270  0.99658564  0.99718520  1
  Cr  Cr19  1  0.83072668  0.16456439  0.16354392  1
  Cr  Cr20  1  0.66663754  0.99361743  0.33075971  1
  Ni  Ni21  1  0.66439712  0.33119550  0.99382251  1
  Ni  Ni22  1  0.83373869  0.49952911  0.16131893  1
  Cr  Cr23  1  0.66320600  0.33205925  0.33222251  1
  Cr  Cr24  1  0.66320243  0.66340956  -0.00206108  1
  Ni  Ni25  1  0.83253135  0.82689430  0.16593402  1
  Cr  Cr26  1  0.66288738  0.66632325  0.33014904  1
  Ni  Ni27  1  0.16337180  0.16072197  0.49579427  1
  Cr  Cr28  1  -0.00051086  0.99699540  0.66109769  1
  Cr  Cr29  1  0.16591345  0.16186413  0.83206305  1
  Cr  Cr30  1  0.16626848  0.50043399  0.49585168  1
  Cr  Cr31  1  0.99620587  0.32972653  0.66449603  1
  Cr  Cr32  1  0.16288177  0.50151040  0.83250029  1
  Ni  Ni33  1  0.16373477  0.83080157  0.49800728  1
  Ni  Ni34  1  -0.00046330  0.66643453  0.66436504  1
  Ni  Ni35  1  0.16781897  0.82855319  0.82998425  1
  Cr  Cr36  1  0.49592665  0.16470638  0.49652485  1
  Ni  Ni37  1  0.33042789  0.99312502  0.66505894  1
  Ni  Ni38  1  0.49741062  0.16433515  0.83309111  1
  Ni  Ni39  1  0.49432312  0.50000432  0.49627429  1
  Cr  Cr40  1  0.33146688  0.33132612  0.66240487  1
  Ni  Ni41  1  0.49740839  0.49683118  0.83179093  1
  Ni  Ni42  1  0.49421586  0.82810733  0.49794130  1
  Ni  Ni43  1  0.33089059  0.66796845  0.66367599  1
  Ni  Ni44  1  0.49158165  0.83073919  0.83090814  1
  Ni  Ni45  1  0.83340717  0.16100109  0.49619307  1
  Cr  Cr46  1  0.66284264  0.99699783  0.66377306  1
  Ni  Ni47  1  0.82825519  0.16808684  0.83256038  1
  Cr  Cr48  1  0.83033911  0.49977319  0.49857906  1
  Cr  Cr49  1  0.66419744  0.33123877  0.66629039  1
  Ni  Ni50  1  0.83033998  0.49527740  0.83296242  1
  Ni  Ni51  1  0.83395522  0.83158200  0.49521085  1
  Cr  Cr52  1  0.66105499  0.66368506  0.66399889  1
  Cr  Cr53  1  0.83350568  0.82789275  0.82998951  1
" 