1541,Ni51Fe4Cr44_5,-221.169662401607, 144.885465119946,Ni51Fe4Cr44,"# generated using pymatgen
 data_Cr25Fe2Ni27
_symmetry_space_group_name_H-M   'P 1'
_cell_length_a   7.50950037
_cell_length_b   7.50950037
_cell_length_c   10.62003728
_cell_angle_alpha   90.00000000
_cell_angle_beta   90.00000000
_cell_angle_gamma   90.00000000
_symmetry_Int_Tables_number   1
_chemical_formula_structural   Cr25Fe2Ni27
_chemical_formula_sum   'Cr25 Fe2 Ni27'
_cell_volume   598.89147021
_cell_formula_units_Z   1
loop_
 _symmetry_equiv_pos_site_id
 _symmetry_equiv_pos_as_xyz
  1  'x, y, z'
loop_
 _atom_site_type_symbol
 _atom_site_label
 _atom_site_symmetry_multiplicity
 _atom_site_fract_x
 _atom_site_fract_y
 _atom_site_fract_z
 _atom_site_occupancy
  Ni  Ni0  1  -0.00118589  0.99468430  0.99707453  1
  Fe  Fe1  1  0.16228835  0.16171168  0.16462190  1
  Cr  Cr2  1  0.99700925  0.99423199  0.33024008  1
  Cr  Cr3  1  -0.00131770  0.33079450  0.99684570  1
  Cr  Cr4  1  0.16205776  0.49926343  0.16993090  1
  Ni  Ni5  1  0.99434602  0.33126959  0.32991693  1
  Cr  Cr6  1  0.99554009  0.66675283  -0.00277571  1
  Ni  Ni7  1  0.16211554  0.83218874  0.16653418  1
  Ni  Ni8  1  -0.00206622  0.66479626  0.33032625  1
  Cr  Cr9  1  0.32562291  -0.00172595  0.99661070  1
  Cr  Cr10  1  0.49876835  0.16271196  0.16471043  1
  Ni  Ni11  1  0.32874632  0.99445662  0.33210029  1
  Cr  Cr12  1  0.33213757  0.32985048  0.99372569  1
  Cr  Cr13  1  0.50014644  0.49798600  0.16278231  1
  Cr  Cr14  1  0.33115908  0.32938377  0.33020029  1
  Cr  Cr15  1  0.32963806  0.66294203  0.99678832  1
  Cr  Cr16  1  0.49617479  0.82983225  0.16457618  1
  Ni  Ni17  1  0.32760237  0.66836007  0.33166533  1
  Cr  Cr18  1  0.66655295  0.99461481  0.99504532  1
  Cr  Cr19  1  0.83105819  0.16473758  0.16379537  1
  Cr  Cr20  1  0.66283183  0.99703718  0.33756837  1
  Ni  Ni21  1  0.66442532  0.33385913  0.99525109  1
  Ni  Ni22  1  0.83082472  0.49713568  0.16499909  1
  Ni  Ni23  1  0.66626227  0.33009420  0.33137424  1
  Ni  Ni24  1  0.66790685  0.66038349  0.99587812  1
  Ni  Ni25  1  0.83377078  0.82855311  0.16238811  1
  Cr  Cr26  1  0.66646860  0.66448202  0.33058975  1
  Cr  Cr27  1  0.16146420  0.16444025  0.49834299  1
  Cr  Cr28  1  -0.00267905  0.99488979  0.66466437  1
  Ni  Ni29  1  0.16509301  0.16190374  0.82948825  1
  Cr  Cr30  1  0.16286427  0.50002054  0.49896228  1
  Ni  Ni31  1  -0.00213597  0.33121545  0.66473998  1
  Cr  Cr32  1  0.16344362  0.49825949  0.82296977  1
  Ni  Ni33  1  0.16613124  0.83012026  0.49739020  1
  Ni  Ni34  1  0.99615184  0.66541713  0.66399582  1
  Ni  Ni35  1  0.16272995  0.83277640  0.82813082  1
  Fe  Fe36  1  0.49505584  0.16273275  0.49800210  1
  Ni  Ni37  1  0.32968873  0.99706419  0.66357890  1
  Ni  Ni38  1  0.49500343  0.16577401  0.82847351  1
  Cr  Cr39  1  0.49552358  0.50056406  0.49779279  1
  Ni  Ni40  1  0.33015483  0.32914502  0.66667954  1
  Ni  Ni41  1  0.49974807  0.49681137  0.82980990  1
  Ni  Ni42  1  0.49363777  0.83110886  0.49797179  1
  Ni  Ni43  1  0.33050508  0.66580393  0.66359203  1
  Cr  Cr44  1  0.49739404  0.82876482  0.82945129  1
  Ni  Ni45  1  0.83031341  0.16470745  0.49585777  1
  Cr  Cr46  1  0.66301424  0.99509670  0.65879006  1
  Cr  Cr47  1  0.83186445  0.16358306  0.83120024  1
  Cr  Cr48  1  0.83364635  0.49563184  0.49719623  1
  Cr  Cr49  1  0.66277393  0.33107501  0.66357853  1
  Ni  Ni50  1  0.82820963  0.49901465  0.82945165  1
  Ni  Ni51  1  0.83129257  0.82964368  0.49856351  1
  Ni  Ni52  1  0.66495100  0.66453883  0.66522504  1
  Ni  Ni53  1  0.83263872  0.82687234  0.83070025  1
" 