5220,Ni51Cr49_1,-219.100567003386, 131.92778279089,Ni51Cr49,"# generated using pymatgen
 data_CrNi
_symmetry_space_group_name_H-M   'P 1'
_cell_length_a   7.52627901
_cell_length_b   7.52627901
_cell_length_c   10.64376584
_cell_angle_alpha   90.00000000
_cell_angle_beta   90.00000000
_cell_angle_gamma   90.00000000
_symmetry_Int_Tables_number   1
_chemical_formula_structural   CrNi
_chemical_formula_sum   'Cr27 Ni27'
_cell_volume   602.91479301
_cell_formula_units_Z   27
loop_
 _symmetry_equiv_pos_site_id
 _symmetry_equiv_pos_as_xyz
  1  'x, y, z'
loop_
 _atom_site_type_symbol
 _atom_site_label
 _atom_site_symmetry_multiplicity
 _atom_site_fract_x
 _atom_site_fract_y
 _atom_site_fract_z
 _atom_site_occupancy
  Ni  Ni0  1  0.99511196  0.99183678  -0.00274385  1
  Cr  Cr1  1  0.16081313  0.16184421  0.16495367  1
  Cr  Cr2  1  0.99468350  0.99345431  0.32854664  1
  Cr  Cr3  1  -0.00275276  0.33053589  0.99377206  1
  Cr  Cr4  1  0.16272238  0.49970849  0.16556098  1
  Ni  Ni5  1  0.99335622  0.33110861  0.33240270  1
  Cr  Cr6  1  -0.00270519  0.66431036  0.99549378  1
  Ni  Ni7  1  0.16210927  0.82796691  0.16134301  1
  Ni  Ni8  1  0.99189085  0.66322879  0.32957388  1
  Cr  Cr9  1  0.32877357  0.99467070  -0.00080216  1
  Ni  Ni10  1  0.49950633  0.16328497  0.16201519  1
  Cr  Cr11  1  0.33064257  -0.00391882  0.32943833  1
  Cr  Cr12  1  0.33042261  0.33403145  -0.00356745  1
  Ni  Ni13  1  0.49908773  0.49814355  0.16119119  1
  Cr  Cr14  1  0.32989038  0.32812813  0.32700133  1
  Ni  Ni15  1  0.33129962  0.66371370  0.99547456  1
  Ni  Ni16  1  0.49774057  0.82731666  0.16138187  1
  Cr  Cr17  1  0.33255513  0.66486038  0.32656405  1
  Ni  Ni18  1  0.66302065  0.99396178  -0.00024612  1
  Cr  Cr19  1  0.82775378  0.16304739  0.15903110  1
  Cr  Cr20  1  0.66235514  0.99158065  0.32939565  1
  Ni  Ni21  1  0.65937896  0.33137079  -0.00324389  1
  Cr  Cr22  1  0.82773225  0.49719875  0.16605381  1
  Ni  Ni23  1  0.66367105  0.33185336  0.32836457  1
  Ni  Ni24  1  0.65963567  0.66305843  -0.00152669  1
  Ni  Ni25  1  0.82797030  0.82774932  0.16139271  1
  Ni  Ni26  1  0.66525155  0.66240087  0.32952963  1
  Ni  Ni27  1  0.15998951  0.16226328  0.49805831  1
  Ni  Ni28  1  -0.00198695  0.99408302  0.66207482  1
  Cr  Cr29  1  0.16061041  0.15853891  0.82672110  1
  Cr  Cr30  1  0.15936037  0.49668314  0.49462949  1
  Ni  Ni31  1  0.99560182  0.33102878  0.66179373  1
  Ni  Ni32  1  0.16442819  0.50061907  0.82665061  1
  Cr  Cr33  1  0.16410771  0.82839429  0.49842789  1
  Ni  Ni34  1  -0.00239259  0.66277811  0.66251573  1
  Ni  Ni35  1  0.16263247  0.82648706  0.82793450  1
  Cr  Cr36  1  0.49474159  0.16190224  0.49737709  1
  Ni  Ni37  1  0.32645523  0.99311017  0.66061209  1
  Cr  Cr38  1  0.49928751  0.16233134  0.82952527  1
  Cr  Cr39  1  0.49862102  0.49810099  0.49521826  1
  Cr  Cr40  1  0.32904583  0.33131035  0.66478953  1
  Ni  Ni41  1  0.49523133  0.49799616  0.83119762  1
  Ni  Ni42  1  0.49718757  0.82751531  0.49706164  1
  Ni  Ni43  1  0.32816807  0.66431667  0.66537451  1
  Cr  Cr44  1  0.49344468  0.82748972  0.82891081  1
  Cr  Cr45  1  0.83064310  0.16618697  0.49745340  1
  Cr  Cr46  1  0.66392321  0.99399640  0.65937671  1
  Cr  Cr47  1  0.82852390  0.16205975  0.83166398  1
  Ni  Ni48  1  0.82991816  0.49786437  0.49466620  1
  Ni  Ni49  1  0.66495672  0.33181252  0.66334089  1
  Cr  Cr50  1  0.82736153  0.49594656  0.82844840  1
  Ni  Ni51  1  0.83079746  0.82546135  0.49557097  1
  Cr  Cr52  1  0.66414287  0.66202363  0.66010898  1
  Cr  Cr53  1  0.83079354  0.83076499  0.83165842  1
" 