2,Ni51Cr49_6,-219.089135386421, 133.011263829627,Ni51Cr49,"# generated using pymatgen
 data_CrNi
_symmetry_space_group_name_H-M   'P 1'
_cell_length_a   7.52323413
_cell_length_b   7.52323413
_cell_length_c   10.63945974
_cell_angle_alpha   90.00000000
_cell_angle_beta   90.00000000
_cell_angle_gamma   90.00000000
_symmetry_Int_Tables_number   1
_chemical_formula_structural   CrNi
_chemical_formula_sum   'Cr27 Ni27'
_cell_volume   602.18333201
_cell_formula_units_Z   27
loop_
 _symmetry_equiv_pos_site_id
 _symmetry_equiv_pos_as_xyz
  1  'x, y, z'
loop_
 _atom_site_type_symbol
 _atom_site_label
 _atom_site_symmetry_multiplicity
 _atom_site_fract_x
 _atom_site_fract_y
 _atom_site_fract_z
 _atom_site_occupancy
  Cr  Cr0  1  -0.00217727  0.99474365  0.99338260  1
  Cr  Cr1  1  0.16270148  0.16367561  0.16576902  1
  Ni  Ni2  1  0.99488867  -0.00036543  0.33099910  1
  Cr  Cr3  1  0.99535158  0.33223565  0.99324324  1
  Ni  Ni4  1  0.16426193  0.49966165  0.16217959  1
  Ni  Ni5  1  0.99496170  0.32563975  0.33082753  1
  Ni  Ni6  1  -0.00074460  0.66212169  0.99541007  1
  Ni  Ni7  1  0.16242296  0.82638801  0.16176905  1
  Cr  Cr8  1  -0.00207807  0.66243149  0.32739508  1
  Cr  Cr9  1  0.32889614  0.99600687  0.99524587  1
  Ni  Ni10  1  0.49902242  0.16588205  0.16392430  1
  Cr  Cr11  1  0.32905939  -0.00351296  0.32834832  1
  Cr  Cr12  1  0.33215577  0.33170827  0.99587675  1
  Ni  Ni13  1  0.49599937  0.49457752  0.16138142  1
  Cr  Cr14  1  0.33034299  0.33165030  0.32869015  1
  Ni  Ni15  1  0.32760489  0.66105568  -0.00310013  1
  Cr  Cr16  1  0.49576183  0.82964362  0.16184467  1
  Cr  Cr17  1  0.33028106  0.66068490  0.32741395  1
  Cr  Cr18  1  0.66199733  -0.00050893  0.99522803  1
  Cr  Cr19  1  0.82724476  0.16427868  0.16621658  1
  Ni  Ni20  1  0.66566843  0.00073403  0.32955045  1
  Ni  Ni21  1  0.66082338  0.33200786  0.99450702  1
  Cr  Cr22  1  0.82960376  0.49477074  0.16131640  1
  Ni  Ni23  1  0.66329096  0.32687578  0.32938337  1
  Ni  Ni24  1  0.66193521  0.65791051  0.99538275  1
  Cr  Cr25  1  0.83093063  0.82973040  0.16286922  1
  Cr  Cr26  1  0.66063349  0.66102595  0.33045411  1
  Ni  Ni27  1  0.15977563  0.16383182  0.49500820  1
  Cr  Cr28  1  -0.00327205  -0.00249376  0.66394054  1
  Ni  Ni29  1  0.16400896  0.16402494  0.82784567  1
  Cr  Cr30  1  0.16464472  0.49394369  0.49797700  1
  Cr  Cr31  1  0.99610928  0.32903641  0.66459029  1
  Ni  Ni32  1  0.16366213  0.49899869  0.82882782  1
  Cr  Cr33  1  0.16259840  0.83011108  0.49757306  1
  Ni  Ni34  1  -0.00263579  0.66192946  0.66636901  1
  Ni  Ni35  1  0.16274604  0.82573895  0.82998821  1
  Cr  Cr36  1  0.49717073  0.16607696  0.49600644  1
  Cr  Cr37  1  0.32768189  -0.00160256  0.66528720  1
  Ni  Ni38  1  0.49718520  0.16802814  0.82906503  1
  Ni  Ni39  1  0.49738156  0.49498388  0.49921370  1
  Ni  Ni40  1  0.33164300  0.33219487  0.66454331  1
  Ni  Ni41  1  0.49719141  0.49479300  0.82829405  1
  Cr  Cr42  1  0.49709861  0.82696866  0.49802408  1
  Ni  Ni43  1  0.32996281  0.65870508  0.66459131  1
  Cr  Cr44  1  0.49455218  0.82659728  0.82889687  1
  Ni  Ni45  1  0.83048141  0.16382254  0.49244833  1
  Cr  Cr46  1  0.66434734  -0.00143484  0.66363009  1
  Ni  Ni47  1  0.82756803  0.16713778  0.82942267  1
  Cr  Cr48  1  0.82768956  0.49371906  0.49734112  1
  Ni  Ni49  1  0.66067161  0.33225411  0.66482884  1
  Ni  Ni50  1  0.82789654  0.49596806  0.82976153  1
  Cr  Cr51  1  0.82911802  0.83089410  0.49595440  1
  Ni  Ni52  1  0.66150339  0.65762789  0.66347375  1
  Cr  Cr53  1  0.83073241  0.82544458  0.82994222  1
" 