5056,Ni51Cr49_9,-219.143392558224, 132.673563098108,Ni51Cr49,"# generated using pymatgen
 data_CrNi
_symmetry_space_group_name_H-M   'P 1'
_cell_length_a   7.52481632
_cell_length_b   7.52481632
_cell_length_c   10.64169729
_cell_angle_alpha   90.00000000
_cell_angle_beta   90.00000000
_cell_angle_gamma   90.00000000
_symmetry_Int_Tables_number   1
_chemical_formula_structural   CrNi
_chemical_formula_sum   'Cr27 Ni27'
_cell_volume   602.56334186
_cell_formula_units_Z   27
loop_
 _symmetry_equiv_pos_site_id
 _symmetry_equiv_pos_as_xyz
  1  'x, y, z'
loop_
 _atom_site_type_symbol
 _atom_site_label
 _atom_site_symmetry_multiplicity
 _atom_site_fract_x
 _atom_site_fract_y
 _atom_site_fract_z
 _atom_site_occupancy
  Ni  Ni0  1  -0.00285747  0.99602688  0.99433810  1
  Cr  Cr1  1  0.16386362  0.16305983  0.16209293  1
  Cr  Cr2  1  -0.00148811  0.99458444  0.32866915  1
  Ni  Ni3  1  0.99531446  0.32657840  0.99540773  1
  Cr  Cr4  1  0.16082436  0.49637839  0.15940624  1
  Cr  Cr5  1  0.99218874  0.32934746  0.33153694  1
  Ni  Ni6  1  -0.00204202  0.66538450  -0.00341924  1
  Ni  Ni7  1  0.16174641  0.82865054  0.16217842  1
  Ni  Ni8  1  -0.00310627  0.66254489  0.32938838  1
  Cr  Cr9  1  0.32683999  0.99428738  0.99472431  1
  Ni  Ni10  1  0.49431039  0.16574327  0.16398833  1
  Ni  Ni11  1  0.32784311  -0.00310099  0.32852013  1
  Ni  Ni12  1  0.32813268  0.32921248  -0.00261199  1
  Ni  Ni13  1  0.49412313  0.49419966  0.16156450  1
  Ni  Ni14  1  0.33172497  0.32932139  0.32808570  1
  Ni  Ni15  1  0.32671939  0.66343048  0.99567910  1
  Cr  Cr16  1  0.49472898  0.83102664  0.16327760  1
  Cr  Cr17  1  0.32661112  0.66395427  0.33032523  1
  Cr  Cr18  1  0.66628348  -0.00179171  0.99581846  1
  Ni  Ni19  1  0.83143706  0.16456729  0.16011451  1
  Cr  Cr20  1  0.66494236  0.00125761  0.32504042  1
  Cr  Cr21  1  0.66360605  0.32807789  0.00038504  1
  Ni  Ni22  1  0.83126066  0.49546277  0.16141100  1
  Cr  Cr23  1  0.66316032  0.32977838  0.32730153  1
  Cr  Cr24  1  0.66165058  0.66328892  0.99517816  1
  Cr  Cr25  1  0.83371993  0.82767113  0.16151058  1
  Cr  Cr26  1  0.66456730  0.65828654  0.32967229  1
  Cr  Cr27  1  0.16288126  0.16129373  0.49755786  1
  Ni  Ni28  1  -0.00339668  -0.00282280  0.66495964  1
  Ni  Ni29  1  0.15879986  0.15993785  0.82949545  1
  Cr  Cr30  1  0.16141107  0.49456066  0.49517866  1
  Ni  Ni31  1  0.99370277  0.32516926  0.66331315  1
  Cr  Cr32  1  0.16107558  0.49205099  0.83508379  1
  Ni  Ni33  1  0.16240226  0.83181563  0.49513157  1
  Cr  Cr34  1  -0.00238127  0.66415252  0.66152801  1
  Ni  Ni35  1  0.16085189  0.83126973  0.83101502  1
  Cr  Cr36  1  0.49510096  0.16105714  0.49508659  1
  Ni  Ni37  1  0.32643747  0.99406026  0.66484131  1
  Cr  Cr38  1  0.49485195  0.16117321  0.82855175  1
  Ni  Ni39  1  0.49802815  0.49611467  0.49619895  1
  Cr  Cr40  1  0.32658639  0.32914775  0.66355765  1
  Cr  Cr41  1  0.49515031  0.49816297  0.83083185  1
  Cr  Cr42  1  0.49742121  0.83201946  0.49841582  1
  Cr  Cr43  1  0.32944874  0.66548662  0.66417446  1
  Ni  Ni44  1  0.49648550  0.83057517  0.82694962  1
  Ni  Ni45  1  0.83015768  0.16309372  0.50006997  1
  Ni  Ni46  1  0.66527983  0.99558176  0.66610823  1
  Ni  Ni47  1  0.83445178  0.15971622  0.82857914  1
  Ni  Ni48  1  0.82943128  0.49614034  0.49745189  1
  Cr  Cr49  1  0.66551193  0.33037818  0.66078964  1
  Cr  Cr50  1  0.83222220  0.49709056  0.82984194  1
  Cr  Cr51  1  0.82985111  0.83079407  0.49687831  1
  Ni  Ni52  1  0.66374298  0.66528917  0.66303611  1
  Ni  Ni53  1  0.83110712  0.83218094  0.82850860  1
" 