4702,Ni51Fe18Cr30_2,-227.37727693934, 173.094890984795,Ni51Fe18Cr30,"# generated using pymatgen
 data_Cr2FeNi3
_symmetry_space_group_name_H-M   'P 1'
_cell_length_a   7.46944494
_cell_length_b   7.46944494
_cell_length_c   10.56339034
_cell_angle_alpha   90.00000000
_cell_angle_beta   90.00000000
_cell_angle_gamma   90.00000000
_symmetry_Int_Tables_number   1
_chemical_formula_structural   Cr2FeNi3
_chemical_formula_sum   'Cr18 Fe9 Ni27'
_cell_volume   589.35909293
_cell_formula_units_Z   9
loop_
 _symmetry_equiv_pos_site_id
 _symmetry_equiv_pos_as_xyz
  1  'x, y, z'
loop_
 _atom_site_type_symbol
 _atom_site_label
 _atom_site_symmetry_multiplicity
 _atom_site_fract_x
 _atom_site_fract_y
 _atom_site_fract_z
 _atom_site_occupancy
  Ni  Ni0  1  0.99861441  0.99909833  0.99851845  1
  Cr  Cr1  1  0.16765201  0.16217534  0.16677399  1
  Ni  Ni2  1  0.00049784  0.99937817  0.33587195  1
  Cr  Cr3  1  0.99717209  0.33114828  0.99877684  1
  Ni  Ni4  1  0.16889261  0.50495451  0.16584151  1
  Cr  Cr5  1  0.00001111  0.32979571  0.33142328  1
  Ni  Ni6  1  0.00264402  0.66887915  0.99907596  1
  Fe  Fe7  1  0.16693485  0.83277135  0.16473709  1
  Ni  Ni8  1  0.00119353  0.66884988  0.33330097  1
  Ni  Ni9  1  0.33396351  0.99553574  0.99733938  1
  Cr  Cr10  1  0.50079582  0.16531068  0.16542123  1
  Ni  Ni11  1  0.33150605  0.99765567  0.33515145  1
  Cr  Cr12  1  0.33369685  0.33568954  0.99972403  1
  Ni  Ni13  1  0.49834618  0.50019269  0.16916350  1
  Fe  Fe14  1  0.33227389  0.33241736  0.33281612  1
  Ni  Ni15  1  0.33334632  0.66904077  0.00104774  1
  Fe  Fe16  1  0.49727320  0.83337243  0.16574886  1
  Cr  Cr17  1  0.33417574  0.66712111  0.33245285  1
  Ni  Ni18  1  0.66687959  0.00164780  0.99810804  1
  Ni  Ni19  1  0.83144216  0.16386953  0.16525919  1
  Cr  Cr20  1  0.66896815  0.99880199  0.33360095  1
  Ni  Ni21  1  0.66657000  0.33133155  0.99796536  1
  Cr  Cr22  1  0.83321556  0.50159502  0.16604141  1
  Fe  Fe23  1  0.66625526  0.33361942  0.33212332  1
  Cr  Cr24  1  0.66358769  0.66724939  0.99792019  1
  Cr  Cr25  1  0.83609898  0.83476161  0.16615767  1
  Fe  Fe26  1  0.66675786  0.66775857  0.33456475  1
  Ni  Ni27  1  0.16620611  0.16267499  0.50006358  1
  Ni  Ni28  1  0.00032432  0.00169010  0.66484584  1
  Ni  Ni29  1  0.16718908  0.16008843  0.83123044  1
  Cr  Cr30  1  0.16505765  0.49959675  0.50111818  1
  Ni  Ni31  1  0.99738863  0.32933951  0.66773837  1
  Cr  Cr32  1  0.16366905  0.50335357  0.83383725  1
  Fe  Fe33  1  0.16385495  0.83738450  0.50071641  1
  Ni  Ni34  1  0.99813579  0.66875915  0.66744861  1
  Ni  Ni35  1  0.16444996  0.83624045  0.83392489  1
  Cr  Cr36  1  0.49732237  0.16619729  0.49932941  1
  Ni  Ni37  1  0.33100451  0.99950946  0.66675793  1
  Ni  Ni38  1  0.49994688  0.16543973  0.83471040  1
  Fe  Fe39  1  0.50195271  0.49960644  0.49827881  1
  Cr  Cr40  1  0.33196454  0.33118055  0.66731192  1
  Ni  Ni41  1  0.50268075  0.49761531  0.83347428  1
  Ni  Ni42  1  0.49943385  0.83397968  0.49873720  1
  Cr  Cr43  1  0.33460649  0.67058720  0.66759539  1
  Fe  Fe44  1  0.49805435  0.83605201  0.83451532  1
  Ni  Ni45  1  0.83546375  0.16478839  0.50017299  1
  Cr  Cr46  1  0.66816644  0.99918487  0.66850309  1
  Ni  Ni47  1  0.83220713  0.16510987  0.83397652  1
  Cr  Cr48  1  0.83315404  0.50184025  0.50104578  1
  Fe  Fe49  1  0.66949938  0.33153268  0.66987333  1
  Ni  Ni50  1  0.83184660  0.50074446  0.83208312  1
  Ni  Ni51  1  0.83535605  0.83315865  0.49870557  1
  Cr  Cr52  1  0.66601084  0.66811122  0.66663930  1
  Ni  Ni53  1  0.83762283  0.83354720  0.83377430  1
" 