9019,Ni51Cr49_14,-218.957492834259, 130.531969499834,Ni51Cr49,"# generated using pymatgen
 data_CrNi
_symmetry_space_group_name_H-M   'P 1'
_cell_length_a   7.52953914
_cell_length_b   7.52953914
_cell_length_c   10.64837637
_cell_angle_alpha   90.00000000
_cell_angle_beta   90.00000000
_cell_angle_gamma   90.00000000
_symmetry_Int_Tables_number   1
_chemical_formula_structural   CrNi
_chemical_formula_sum   'Cr27 Ni27'
_cell_volume   603.69862038
_cell_formula_units_Z   27
loop_
 _symmetry_equiv_pos_site_id
 _symmetry_equiv_pos_as_xyz
  1  'x, y, z'
loop_
 _atom_site_type_symbol
 _atom_site_label
 _atom_site_symmetry_multiplicity
 _atom_site_fract_x
 _atom_site_fract_y
 _atom_site_fract_z
 _atom_site_occupancy
  Ni  Ni0  1  -0.00390457  0.99339704  -0.00405952  1
  Cr  Cr1  1  0.15902570  0.16162157  0.16276785  1
  Ni  Ni2  1  0.99548348  0.99323675  0.32712653  1
  Ni  Ni3  1  -0.00219496  0.33135979  0.99561926  1
  Ni  Ni4  1  0.15965316  0.49880588  0.16332321  1
  Ni  Ni5  1  0.99364687  0.33191904  0.32718553  1
  Ni  Ni6  1  -0.00245437  0.66261048  -0.00214039  1
  Ni  Ni7  1  0.15737729  0.82564856  0.16373626  1
  Ni  Ni8  1  0.99546673  0.66225897  0.32490145  1
  Cr  Cr9  1  0.32892405  0.99491075  0.99363664  1
  Cr  Cr10  1  0.49743912  0.16421810  0.16148969  1
  Cr  Cr11  1  0.32876094  0.99343766  0.33023565  1
  Cr  Cr12  1  0.32716926  0.32969006  0.99452664  1
  Ni  Ni13  1  0.49675264  0.49751416  0.16609161  1
  Cr  Cr14  1  0.33029811  0.33010939  0.32805643  1
  Cr  Cr15  1  0.32527419  0.66295823  -0.00370760  1
  Cr  Cr16  1  0.49599905  0.82655967  0.16279913  1
  Ni  Ni17  1  0.32884622  0.66232224  0.32727001  1
  Ni  Ni18  1  0.66390697  0.99475219  0.99426146  1
  Cr  Cr19  1  0.83104937  0.16163839  0.16169532  1
  Cr  Cr20  1  0.66289428  0.99475151  0.32987390  1
  Cr  Cr21  1  0.66263564  0.32890817  -0.00285158  1
  Ni  Ni22  1  0.83127308  0.49769937  0.16470873  1
  Ni  Ni23  1  0.66390627  0.33230713  0.32832320  1
  Cr  Cr24  1  0.66537268  0.66453805  -0.00207963  1
  Ni  Ni25  1  0.83311647  0.82690221  0.16232589  1
  Ni  Ni26  1  0.66319313  0.66058645  0.32767481  1
  Cr  Cr27  1  0.16134101  0.16035020  0.49512766  1
  Ni  Ni28  1  -0.00203012  0.99530820  0.66443089  1
  Ni  Ni29  1  0.16249468  0.16027486  0.82910081  1
  Cr  Cr30  1  0.16330747  0.49795724  0.49438411  1
  Cr  Cr31  1  -0.00241784  0.32874683  0.66426059  1
  Ni  Ni32  1  0.16210396  0.49690735  0.83043134  1
  Cr  Cr33  1  0.16460939  0.82893510  0.49528571  1
  Cr  Cr34  1  -0.00297051  0.66349124  0.66499067  1
  Ni  Ni35  1  0.16371669  0.83044862  0.82836596  1
  Ni  Ni36  1  0.49705328  0.15975173  0.49723246  1
  Ni  Ni37  1  0.33137774  0.99363249  0.66422763  1
  Ni  Ni38  1  0.49453644  0.15754578  0.82798279  1
  Cr  Cr39  1  0.49615497  0.49991543  0.49465860  1
  Cr  Cr40  1  0.32844818  0.32679298  0.66481227  1
  Cr  Cr41  1  0.49442177  0.49924471  0.82756950  1
  Ni  Ni42  1  0.49582006  0.82902347  0.49844572  1
  Ni  Ni43  1  0.33088860  0.66718374  0.66450005  1
  Ni  Ni44  1  0.49429603  0.83229446  0.82558462  1
  Cr  Cr45  1  0.83014058  0.16161182  0.49481555  1
  Ni  Ni46  1  0.65822295  0.99363570  0.66282215  1
  Cr  Cr47  1  0.83032541  0.15986364  0.83085676  1
  Cr  Cr48  1  0.82811714  0.49683719  0.49423338  1
  Cr  Cr49  1  0.66156504  0.32739389  0.66156447  1
  Cr  Cr50  1  0.83054876  0.49686154  0.82932961  1
  Cr  Cr51  1  0.82823384  0.82902732  0.49658140  1
  Ni  Ni52  1  0.65837869  0.66742779  0.66206592  1
  Cr  Cr53  1  0.82831803  0.83078793  0.82946199  1
" 