2027,Ni51Fe4Cr44_12,-221.209275855415, 146.311766469223,Ni51Fe4Cr44,"# generated using pymatgen
 data_Cr25Fe2Ni27
_symmetry_space_group_name_H-M   'P 1'
_cell_length_a   7.50615380
_cell_length_b   7.50615380
_cell_length_c   10.61530451
_cell_angle_alpha   90.00000000
_cell_angle_beta   90.00000000
_cell_angle_gamma   90.00000000
_symmetry_Int_Tables_number   1
_chemical_formula_structural   Cr25Fe2Ni27
_chemical_formula_sum   'Cr25 Fe2 Ni27'
_cell_volume   598.09114824
_cell_formula_units_Z   1
loop_
 _symmetry_equiv_pos_site_id
 _symmetry_equiv_pos_as_xyz
  1  'x, y, z'
loop_
 _atom_site_type_symbol
 _atom_site_label
 _atom_site_symmetry_multiplicity
 _atom_site_fract_x
 _atom_site_fract_y
 _atom_site_fract_z
 _atom_site_occupancy
  Ni  Ni0  1  -0.00012165  0.99735828  0.99416270  1
  Cr  Cr1  1  0.16783656  0.16364147  0.16082355  1
  Cr  Cr2  1  0.99711515  0.99518172  0.33423244  1
  Cr  Cr3  1  0.99471005  0.33222068  0.99645466  1
  Fe  Fe4  1  0.16634553  0.49872342  0.16495236  1
  Cr  Cr5  1  -0.00222534  0.33334289  0.33057500  1
  Cr  Cr6  1  -0.00211312  0.66393678  -0.00186917  1
  Cr  Cr7  1  0.16607311  0.82943365  0.16187127  1
  Ni  Ni8  1  0.00134501  0.66195327  0.33002635  1
  Ni  Ni9  1  0.33349878  0.99529485  0.99494062  1
  Ni  Ni10  1  0.49860862  0.16303153  0.16289639  1
  Cr  Cr11  1  0.33345015  0.99554156  0.33159355  1
  Cr  Cr12  1  0.33244820  0.32904541  0.99415721  1
  Cr  Cr13  1  0.49358144  0.49750488  0.16352445  1
  Ni  Ni14  1  0.32918852  0.33350999  0.32949260  1
  Ni  Ni15  1  0.33222773  0.66773939  0.99577332  1
  Ni  Ni16  1  0.49644905  0.83187493  0.16337482  1
  Ni  Ni17  1  0.32833969  0.66440429  0.33175574  1
  Ni  Ni18  1  0.65948511  -0.00210552  -0.00194950  1
  Cr  Cr19  1  0.82921351  0.16119447  0.16231439  1
  Ni  Ni20  1  0.66187385  0.99705691  0.33076081  1
  Ni  Ni21  1  0.66266859  0.32909847  0.99591062  1
  Fe  Fe22  1  0.82896389  0.49750394  0.16303648  1
  Cr  Cr23  1  0.66409812  0.32923261  0.32955578  1
  Cr  Cr24  1  0.66258298  0.66264455  0.99470761  1
  Cr  Cr25  1  0.83036839  0.83227481  0.16325990  1
  Cr  Cr26  1  0.66429789  0.66779334  0.33052919  1
  Cr  Cr27  1  0.16290239  0.16643545  0.49971505  1
  Ni  Ni28  1  -0.00118291  0.99665122  0.66420063  1
  Ni  Ni29  1  0.16361951  0.16078213  0.83120995  1
  Ni  Ni30  1  0.16336375  0.50138983  0.49611717  1
  Ni  Ni31  1  -0.00259896  0.33107539  0.66434559  1
  Cr  Cr32  1  0.16541518  0.50064933  0.82878179  1
  Ni  Ni33  1  0.16442379  0.82506248  0.49937459  1
  Ni  Ni34  1  -0.00083361  0.66396117  0.66417319  1
  Ni  Ni35  1  0.16586694  0.83218635  0.83127028  1
  Cr  Cr36  1  0.50013901  0.16396778  0.49515424  1
  Cr  Cr37  1  0.33158060  0.99392234  0.66676589  1
  Ni  Ni38  1  0.49839904  0.16208088  0.83407844  1
  Cr  Cr39  1  0.49179388  0.50055993  0.49951093  1
  Cr  Cr40  1  0.32983973  0.33004961  0.66666847  1
  Ni  Ni41  1  0.49872088  0.49965381  0.83044033  1
  Ni  Ni42  1  0.49634674  0.82914792  0.49786983  1
  Ni  Ni43  1  0.33059187  0.66635385  0.66439250  1
  Ni  Ni44  1  0.49616816  0.83004348  0.83129460  1
  Ni  Ni45  1  0.83081013  0.16232656  0.49994482  1
  Ni  Ni46  1  0.66294759  0.99545572  0.66302956  1
  Cr  Cr47  1  0.83123821  0.16152204  0.82980145  1
  Cr  Cr48  1  0.83125144  0.49857512  0.50079438  1
  Cr  Cr49  1  0.66449271  0.33131364  0.66751722  1
  Ni  Ni50  1  0.82937131  0.49723856  0.82962907  1
  Cr  Cr51  1  0.83034122  0.83236048  0.50023377  1
  Ni  Ni52  1  0.66196484  0.66685381  0.66730608  1
  Cr  Cr53  1  0.83204985  0.83128167  0.82885015  1
" 