8237,Ni51Cr49_8,-219.090073063707, 132.241587978722,Ni51Cr49,"# generated using pymatgen
 data_CrNi
_symmetry_space_group_name_H-M   'P 1'
_cell_length_a   7.52433004
_cell_length_b   7.52433004
_cell_length_c   10.64100959
_cell_angle_alpha   90.00000000
_cell_angle_beta   90.00000000
_cell_angle_gamma   90.00000000
_symmetry_Int_Tables_number   1
_chemical_formula_structural   CrNi
_chemical_formula_sum   'Cr27 Ni27'
_cell_volume   602.44653112
_cell_formula_units_Z   27
loop_
 _symmetry_equiv_pos_site_id
 _symmetry_equiv_pos_as_xyz
  1  'x, y, z'
loop_
 _atom_site_type_symbol
 _atom_site_label
 _atom_site_symmetry_multiplicity
 _atom_site_fract_x
 _atom_site_fract_y
 _atom_site_fract_z
 _atom_site_occupancy
  Cr  Cr0  1  -0.00167772  0.99456984  0.99509229  1
  Cr  Cr1  1  0.16214130  0.16220589  0.16867394  1
  Ni  Ni2  1  0.99407942  -0.00161761  0.32785241  1
  Cr  Cr3  1  0.99469154  0.33104544  -0.00317009  1
  Cr  Cr4  1  0.16751348  0.49684823  0.16369902  1
  Ni  Ni5  1  0.99525756  0.33096100  0.32985628  1
  Ni  Ni6  1  -0.00291390  0.66105982  0.99453824  1
  Cr  Cr7  1  0.16622736  0.82876956  0.16413982  1
  Cr  Cr8  1  0.99295672  0.65932319  0.33086303  1
  Cr  Cr9  1  0.33104673  0.99263297  0.99263279  1
  Cr  Cr10  1  0.49562719  0.16455376  0.16490778  1
  Ni  Ni11  1  0.33457848  0.99413149  0.33032359  1
  Cr  Cr12  1  0.33208365  0.32960842  0.99371514  1
  Ni  Ni13  1  0.49835403  0.50061597  0.16224997  1
  Ni  Ni14  1  0.32991400  0.33142196  0.33122891  1
  Ni  Ni15  1  0.33153217  0.66403995  0.99507228  1
  Ni  Ni16  1  0.49646752  0.82488194  0.16539653  1
  Ni  Ni17  1  0.33387074  0.66298066  0.32962331  1
  Cr  Cr18  1  0.65904970  -0.00355059  -0.00297136  1
  Ni  Ni19  1  0.82874537  0.16512233  0.16521137  1
  Ni  Ni20  1  0.65980180  0.99439901  0.32994199  1
  Ni  Ni21  1  0.66269654  0.33179696  -0.00129449  1
  Ni  Ni22  1  0.82662050  0.49608959  0.16147184  1
  Cr  Cr23  1  0.66362310  0.33293260  0.32776968  1
  Ni  Ni24  1  0.66039138  0.66162028  -0.00099894  1
  Cr  Cr25  1  0.82785979  0.82945765  0.16316019  1
  Ni  Ni26  1  0.65951852  0.66443433  0.32870115  1
  Cr  Cr27  1  0.16498414  0.16364751  0.49010958  1
  Cr  Cr28  1  -0.00157389  0.99499780  0.66612981  1
  Ni  Ni29  1  0.16486946  0.16338985  0.82966930  1
  Ni  Ni30  1  0.16431933  0.49645692  0.49401359  1
  Cr  Cr31  1  -0.00190854  0.33272716  0.66123101  1
  Ni  Ni32  1  0.16482094  0.50001074  0.82994039  1
  Cr  Cr33  1  0.16715119  0.82874954  0.49290046  1
  Cr  Cr34  1  -0.00108900  0.66061117  0.66191148  1
  Ni  Ni35  1  0.16626388  0.82495611  0.83118609  1
  Ni  Ni36  1  0.49602134  0.15911070  0.49451998  1
  Cr  Cr37  1  0.33266507  0.99446013  0.66590504  1
  Ni  Ni38  1  0.49656445  0.16130306  0.82893258  1
  Cr  Cr39  1  0.49422383  0.49960685  0.49580847  1
  Cr  Cr40  1  0.32856061  0.32977742  0.66364144  1
  Cr  Cr41  1  0.49670904  0.49889132  0.83178136  1
  Ni  Ni42  1  0.49690800  0.82983116  0.49528050  1
  Ni  Ni43  1  0.33094812  0.66445558  0.66398936  1
  Ni  Ni44  1  0.49527659  0.82716101  0.82832504  1
  Cr  Cr45  1  0.82836758  0.16052486  0.49505125  1
  Ni  Ni46  1  0.65699584  0.99337975  0.66283952  1
  Cr  Cr47  1  0.82660191  0.16273893  0.82958595  1
  Ni  Ni48  1  0.82894468  0.49746714  0.49507342  1
  Cr  Cr49  1  0.66105430  0.32846337  0.66158548  1
  Cr  Cr50  1  0.82646121  0.49853177  0.83073237  1
  Cr  Cr51  1  0.82452525  0.82987004  0.49718993  1
  Ni  Ni52  1  0.65921762  0.66605538  0.66110913  1
  Cr  Cr53  1  0.82651015  0.82694013  0.82832089  1
" 