5105,Ni51Cr49_0,-219.194516191568, 136.838519643601,Ni51Cr49,"# generated using pymatgen
 data_CrNi
_symmetry_space_group_name_H-M   'P 1'
_cell_length_a   7.52063357
_cell_length_b   7.52063357
_cell_length_c   10.63578199
_cell_angle_alpha   90.00000000
_cell_angle_beta   90.00000000
_cell_angle_gamma   90.00000000
_symmetry_Int_Tables_number   1
_chemical_formula_structural   CrNi
_chemical_formula_sum   'Cr27 Ni27'
_cell_volume   601.55907698
_cell_formula_units_Z   27
loop_
 _symmetry_equiv_pos_site_id
 _symmetry_equiv_pos_as_xyz
  1  'x, y, z'
loop_
 _atom_site_type_symbol
 _atom_site_label
 _atom_site_symmetry_multiplicity
 _atom_site_fract_x
 _atom_site_fract_y
 _atom_site_fract_z
 _atom_site_occupancy
  Cr  Cr0  1  0.99534279  -0.00106184  -0.00293064  1
  Ni  Ni1  1  0.16324706  0.16661507  0.16251816  1
  Cr  Cr2  1  0.99442269  -0.00337016  0.32899852  1
  Cr  Cr3  1  0.99605780  0.32937124  -0.00306237  1
  Ni  Ni4  1  0.16447610  0.49304860  0.16434057  1
  Ni  Ni5  1  0.99511687  0.32880185  0.32602104  1
  Cr  Cr6  1  0.99347993  0.66091855  -0.00194301  1
  Cr  Cr7  1  0.16336542  0.82840771  0.16360377  1
  Cr  Cr8  1  -0.00295775  0.66202431  0.32902367  1
  Cr  Cr9  1  0.33147893  -0.00199473  -0.00238599  1
  Ni  Ni10  1  0.49866006  0.16333155  0.16298111  1
  Cr  Cr11  1  0.33322846  0.99344261  0.32845349  1
  Ni  Ni12  1  0.32974561  0.32782662  -0.00184594  1
  Cr  Cr13  1  0.49705753  0.49629557  0.16303220  1
  Cr  Cr14  1  0.32931143  0.33182995  0.32878163  1
  Cr  Cr15  1  0.33225675  0.66317629  -0.00133443  1
  Ni  Ni16  1  0.50066233  0.82971701  0.16491713  1
  Ni  Ni17  1  0.33320108  0.66388104  0.33098135  1
  Cr  Cr18  1  0.66236119  0.99564237  -0.00181854  1
  Ni  Ni19  1  0.82746092  0.16317600  0.16510154  1
  Ni  Ni20  1  0.66307810  0.99417335  0.32761015  1
  Ni  Ni21  1  0.66347693  0.32962412  0.99620291  1
  Cr  Cr22  1  0.82770096  0.49658529  0.16361572  1
  Ni  Ni23  1  0.66372474  0.32915978  0.32860575  1
  Ni  Ni24  1  0.66268680  0.66295966  0.99595386  1
  Ni  Ni25  1  0.82456456  0.83109278  0.16434518  1
  Ni  Ni26  1  0.66037842  0.66603708  0.33090435  1
  Cr  Cr27  1  0.16198937  0.16149607  0.49834966  1
  Ni  Ni28  1  -0.00350586  0.99438989  0.66330312  1
  Ni  Ni29  1  0.16213379  0.16428562  0.82878140  1
  Cr  Cr30  1  0.16546765  0.49838568  0.49626489  1
  Cr  Cr31  1  0.99561065  0.32986721  0.66550325  1
  Cr  Cr32  1  0.16428187  0.49671886  0.82923100  1
  Ni  Ni33  1  0.16310159  0.82734236  0.49895953  1
  Ni  Ni34  1  0.99533553  0.66550476  0.66212514  1
  Cr  Cr35  1  0.16353933  0.83082881  0.82665743  1
  Cr  Cr36  1  0.49786270  0.16534743  0.49469557  1
  Cr  Cr37  1  0.33019214  0.99502388  0.66307283  1
  Cr  Cr38  1  0.49523040  0.16461358  0.83115496  1
  Ni  Ni39  1  0.49653098  0.50097839  0.49676464  1
  Ni  Ni40  1  0.32929773  0.33242299  0.66359510  1
  Cr  Cr41  1  0.49798109  0.49774474  0.83001785  1
  Ni  Ni42  1  0.49758781  0.82479236  0.49534373  1
  Ni  Ni43  1  0.33188597  0.66332984  0.66042644  1
  Ni  Ni44  1  0.49777218  0.82655019  0.82902434  1
  Cr  Cr45  1  0.82933169  0.16070337  0.49358969  1
  Cr  Cr46  1  0.66395783  0.99381645  0.66259106  1
  Ni  Ni47  1  0.83156687  0.16464088  0.82989403  1
  Cr  Cr48  1  0.82674776  0.49811981  0.49504137  1
  Cr  Cr49  1  0.66259294  0.33281963  0.66396088  1
  Ni  Ni50  1  0.82750062  0.49686086  0.82999068  1
  Ni  Ni51  1  0.82876437  0.82845641  0.49726172  1
  Ni  Ni52  1  0.66208235  0.66411820  0.66257161  1
  Cr  Cr53  1  0.82919471  0.82774986  0.82877669  1
" 