4372,Ni51Fe18Cr30_7,-227.526584969386, 173.603667587572,Ni51Fe18Cr30,"# generated using pymatgen
 data_Cr2FeNi3
_symmetry_space_group_name_H-M   'P 1'
_cell_length_a   7.46945088
_cell_length_b   7.46945088
_cell_length_c   10.56339874
_cell_angle_alpha   90.00000000
_cell_angle_beta   90.00000000
_cell_angle_gamma   90.00000000
_symmetry_Int_Tables_number   1
_chemical_formula_structural   Cr2FeNi3
_chemical_formula_sum   'Cr18 Fe9 Ni27'
_cell_volume   589.36049976
_cell_formula_units_Z   9
loop_
 _symmetry_equiv_pos_site_id
 _symmetry_equiv_pos_as_xyz
  1  'x, y, z'
loop_
 _atom_site_type_symbol
 _atom_site_label
 _atom_site_symmetry_multiplicity
 _atom_site_fract_x
 _atom_site_fract_y
 _atom_site_fract_z
 _atom_site_occupancy
  Ni  Ni0  1  0.99901581  0.99902881  -0.00000918  1
  Ni  Ni1  1  0.16503172  0.16571725  0.16811889  1
  Ni  Ni2  1  0.99877542  0.00097657  0.32829812  1
  Ni  Ni3  1  0.00203097  0.33140769  0.99826202  1
  Cr  Cr4  1  0.16868402  0.49659774  0.16363570  1
  Ni  Ni5  1  0.99769212  0.33148076  0.33256382  1
  Ni  Ni6  1  0.00154818  0.66916762  0.99858506  1
  Ni  Ni7  1  0.16653995  0.83640414  0.16532752  1
  Cr  Cr8  1  0.99819373  0.66763838  0.33374776  1
  Cr  Cr9  1  0.33354169  0.00096740  0.00060711  1
  Fe  Fe10  1  0.49925439  0.16571308  0.16912376  1
  Ni  Ni11  1  0.33725523  0.00125032  0.33214950  1
  Ni  Ni12  1  0.33177882  0.33355298  0.00027031  1
  Fe  Fe13  1  0.49962521  0.49976720  0.16609563  1
  Ni  Ni14  1  0.33625445  0.32960919  0.33035805  1
  Ni  Ni15  1  0.33189225  0.66684877  0.99862695  1
  Ni  Ni16  1  0.50109881  0.83114557  0.16748779  1
  Cr  Cr17  1  0.33405112  0.66977588  0.33302759  1
  Cr  Cr18  1  0.66809566  -0.00012433  0.99968253  1
  Ni  Ni19  1  0.83594492  0.16450559  0.16796653  1
  Ni  Ni20  1  0.66361831  0.00092331  0.33165001  1
  Cr  Cr21  1  0.66538645  0.32828515  0.99927093  1
  Cr  Cr22  1  0.83129289  0.49950503  0.16644774  1
  Ni  Ni23  1  0.66550431  0.33067910  0.33409322  1
  Fe  Fe24  1  0.66654416  0.66952024  0.00038876  1
  Ni  Ni25  1  0.83183899  0.83565148  0.16628744  1
  Fe  Fe26  1  0.66501958  0.66865461  0.33253990  1
  Cr  Cr27  1  0.16768113  0.16371774  0.49581829  1
  Ni  Ni28  1  0.99921580  0.99876871  0.67112265  1
  Ni  Ni29  1  0.16591143  0.16595935  0.83459246  1
  Cr  Cr30  1  0.16736304  0.49746354  0.49868705  1
  Cr  Cr31  1  0.99868654  0.33294696  0.66786260  1
  Ni  Ni32  1  0.16824944  0.50027490  0.83653288  1
  Cr  Cr33  1  0.16929498  0.83854541  0.50075491  1
  Cr  Cr34  1  -0.00010010  0.66670230  0.66637508  1
  Fe  Fe35  1  0.16555121  0.83485939  0.83412838  1
  Ni  Ni36  1  0.50118019  0.16382541  0.49868724  1
  Ni  Ni37  1  0.33715850  0.99892925  0.66739508  1
  Ni  Ni38  1  0.49908894  0.16538432  0.83077001  1
  Cr  Cr39  1  0.50192699  0.49995393  0.49973825  1
  Cr  Cr40  1  0.33370667  0.33029687  0.66817142  1
  Cr  Cr41  1  0.49767259  0.50208266  0.83535434  1
  Ni  Ni42  1  0.50176968  0.83552198  0.50188658  1
  Fe  Fe43  1  0.33487458  0.67088976  0.66867987  1
  Fe  Fe44  1  0.50013938  0.83444754  0.83149215  1
  Cr  Cr45  1  0.83173905  0.16464460  0.50006905  1
  Ni  Ni46  1  0.66345400  0.99850237  0.66859485  1
  Ni  Ni47  1  0.83470745  0.16185190  0.83210300  1
  Fe  Fe48  1  0.82929827  0.49880886  0.49875068  1
  Fe  Fe49  1  0.66607810  0.32934749  0.66708138  1
  Cr  Cr50  1  0.83294073  0.50123857  0.83397120  1
  Cr  Cr51  1  0.82963113  0.83632285  0.49825774  1
  Ni  Ni52  1  0.66574049  0.66996747  0.66601341  1
  Ni  Ni53  1  0.83284347  0.83540917  0.83381885  1
" 