3943,Ni51Fe18Cr30_14,-227.593022511643, 169.93068286389,Ni51Fe18Cr30,"# generated using pymatgen
 data_Cr2FeNi3
_symmetry_space_group_name_H-M   'P 1'
_cell_length_a   7.47728459
_cell_length_b   7.47728459
_cell_length_c   10.57447728
_cell_angle_alpha   90.00000000
_cell_angle_beta   90.00000000
_cell_angle_gamma   90.00000000
_symmetry_Int_Tables_number   1
_chemical_formula_structural   Cr2FeNi3
_chemical_formula_sum   'Cr18 Fe9 Ni27'
_cell_volume   591.21674919
_cell_formula_units_Z   9
loop_
 _symmetry_equiv_pos_site_id
 _symmetry_equiv_pos_as_xyz
  1  'x, y, z'
loop_
 _atom_site_type_symbol
 _atom_site_label
 _atom_site_symmetry_multiplicity
 _atom_site_fract_x
 _atom_site_fract_y
 _atom_site_fract_z
 _atom_site_occupancy
  Ni  Ni0  1  0.00124807  0.00010064  0.00067863  1
  Ni  Ni1  1  0.16550010  0.16678636  0.16537199  1
  Fe  Fe2  1  -0.00036715  0.00003034  0.33207663  1
  Ni  Ni3  1  0.00260496  0.33162630  0.00124565  1
  Cr  Cr4  1  0.16720651  0.49919518  0.16605780  1
  Fe  Fe5  1  0.00021114  0.33137411  0.33104001  1
  Ni  Ni6  1  0.00062882  0.66588194  -0.00026721  1
  Cr  Cr7  1  0.16511007  0.83354704  0.16373168  1
  Fe  Fe8  1  0.00015229  0.66677959  0.33256294  1
  Ni  Ni9  1  0.33091704  0.00064122  0.99848776  1
  Ni  Ni10  1  0.49731029  0.16534447  0.16568293  1
  Cr  Cr11  1  0.33275542  -0.00027001  0.33480990  1
  Ni  Ni12  1  0.32906025  0.33123716  0.99919422  1
  Cr  Cr13  1  0.49566487  0.49939342  0.16658530  1
  Ni  Ni14  1  0.32815374  0.33144458  0.33391695  1
  Ni  Ni15  1  0.32982379  0.66625124  0.99472822  1
  Cr  Cr16  1  0.49803284  0.83285971  0.16523694  1
  Ni  Ni17  1  0.33084794  0.66587750  0.33597532  1
  Ni  Ni18  1  0.66643510  -0.00061044  0.00304994  1
  Ni  Ni19  1  0.83535211  0.16353002  0.16485363  1
  Ni  Ni20  1  0.66738563  0.99773628  0.33094812  1
  Cr  Cr21  1  0.66711934  0.33197200  0.00149238  1
  Ni  Ni22  1  0.83577639  0.50041553  0.16715846  1
  Cr  Cr23  1  0.66620862  0.33023959  0.32943359  1
  Cr  Cr24  1  0.66633479  0.66732312  -0.00022499  1
  Ni  Ni25  1  0.83428762  0.83401344  0.16765291  1
  Ni  Ni26  1  0.66719201  0.66835848  0.33153351  1
  Fe  Fe27  1  0.16826558  0.16515613  0.50013630  1
  Ni  Ni28  1  0.00497217  0.99756887  0.66521020  1
  Ni  Ni29  1  0.16791320  0.16382223  0.83304982  1
  Fe  Fe30  1  0.16669663  0.50219731  0.49865451  1
  Cr  Cr31  1  0.00267788  0.33287218  0.66646534  1
  Fe  Fe32  1  0.16714232  0.49819316  0.83384102  1
  Ni  Ni33  1  0.16753553  0.83284090  0.50124819  1
  Ni  Ni34  1  0.00296109  0.66751625  0.66536650  1
  Fe  Fe35  1  0.16787066  0.83334756  0.83243759  1
  Fe  Fe36  1  0.49774155  0.16440754  0.49924244  1
  Ni  Ni37  1  0.32937215  0.99851645  0.66453932  1
  Cr  Cr38  1  0.49597164  0.16830797  0.83270846  1
  Cr  Cr39  1  0.49719885  0.49932331  0.49953172  1
  Ni  Ni40  1  0.33160642  0.33262414  0.66458316  1
  Ni  Ni41  1  0.49397158  0.50098110  0.83028764  1
  Ni  Ni42  1  0.49636790  0.83099959  0.50013586  1
  Ni  Ni43  1  0.33098726  0.66677136  0.66684989  1
  Fe  Fe44  1  0.49685572  0.83292668  0.83256681  1
  Cr  Cr45  1  0.83430302  0.16489069  0.50219689  1
  Cr  Cr46  1  0.66266398  0.99833413  0.66503027  1
  Cr  Cr47  1  0.83678073  0.16399813  0.83261454  1
  Cr  Cr48  1  0.83253943  0.50035009  0.50057659  1
  Ni  Ni49  1  0.66283516  0.33442408  0.66599465  1
  Cr  Cr50  1  0.83173568  0.49982443  0.83004258  1
  Cr  Cr51  1  0.83434399  0.83244452  0.49882989  1
  Ni  Ni52  1  0.66370039  0.66563688  0.66637044  1
  Cr  Cr53  1  0.83707179  0.83368043  0.83151112  1
" 