3115,Ni51Fe4Cr44_17,-220.535953661368, 131.296759223518,Ni51Fe4Cr44,"# generated using pymatgen
 data_Cr25Fe2Ni27
_symmetry_space_group_name_H-M   'P 1'
_cell_length_a   7.51763394
_cell_length_b   7.51763394
_cell_length_c   10.63153988
_cell_angle_alpha   90.00000000
_cell_angle_beta   90.00000000
_cell_angle_gamma   90.00000000
_symmetry_Int_Tables_number   1
_chemical_formula_structural   Cr25Fe2Ni27
_chemical_formula_sum   'Cr25 Fe2 Ni27'
_cell_volume   600.83956315
_cell_formula_units_Z   1
loop_
 _symmetry_equiv_pos_site_id
 _symmetry_equiv_pos_as_xyz
  1  'x, y, z'
loop_
 _atom_site_type_symbol
 _atom_site_label
 _atom_site_symmetry_multiplicity
 _atom_site_fract_x
 _atom_site_fract_y
 _atom_site_fract_z
 _atom_site_occupancy
  Ni  Ni0  1  -0.00267713  0.99357128  0.99524483  1
  Ni  Ni1  1  0.16878132  0.16315205  0.16222308  1
  Cr  Cr2  1  -0.00085487  0.99454773  0.33068380  1
  Cr  Cr3  1  -0.00158953  0.32884058  -0.00226334  1
  Ni  Ni4  1  0.16645545  0.49669558  0.16408594  1
  Cr  Cr5  1  -0.00246840  0.33147928  0.33042019  1
  Ni  Ni6  1  -0.00336286  0.66754135  0.99638038  1
  Ni  Ni7  1  0.16395576  0.83006468  0.16317960  1
  Ni  Ni8  1  0.00085255  0.66323912  0.33191548  1
  Ni  Ni9  1  0.32873321  -0.00116776  -0.00221352  1
  Ni  Ni10  1  0.49113192  0.16448381  0.16148534  1
  Ni  Ni11  1  0.32970321  0.99621649  0.32972619  1
  Ni  Ni12  1  0.33113257  0.32748615  -0.00074569  1
  Ni  Ni13  1  0.49248854  0.49451461  0.16357900  1
  Ni  Ni14  1  0.33074580  0.33107933  0.32873008  1
  Cr  Cr15  1  0.32827110  0.66354606  -0.00219383  1
  Cr  Cr16  1  0.49557074  0.83092293  0.16295182  1
  Ni  Ni17  1  0.32671305  0.66259373  0.33122769  1
  Ni  Ni18  1  0.66382129  -0.00326833  0.99399590  1
  Cr  Cr19  1  0.83052868  0.16134223  0.16255882  1
  Cr  Cr20  1  0.66124444  -0.00165597  0.33305076  1
  Cr  Cr21  1  0.66031915  0.32884861  -0.00232004  1
  Cr  Cr22  1  0.83068508  0.49988041  0.16207931  1
  Cr  Cr23  1  0.66099613  0.32948435  0.33074940  1
  Ni  Ni24  1  0.66521757  0.66507638  0.99638764  1
  Cr  Cr25  1  0.83110804  0.82870711  0.16036240  1
  Cr  Cr26  1  0.66196748  0.66205752  0.33197646  1
  Cr  Cr27  1  0.16586350  0.16501777  0.49579877  1
  Cr  Cr28  1  0.99391695  0.99486371  0.66359011  1
  Cr  Cr29  1  0.16493989  0.16297481  0.83085111  1
  Ni  Ni30  1  0.16431249  0.49816507  0.49535409  1
  Cr  Cr31  1  0.99573131  0.32970048  0.66167911  1
  Cr  Cr32  1  0.16426588  0.49587920  0.82944431  1
  Ni  Ni33  1  0.16471772  0.82655514  0.49405085  1
  Cr  Cr34  1  -0.00203848  0.66541844  0.66235383  1
  Ni  Ni35  1  0.16071177  0.83162000  0.83275727  1
  Ni  Ni36  1  0.49686328  0.16243544  0.49761697  1
  Cr  Cr37  1  0.33157104  0.99562088  0.66297769  1
  Fe  Fe38  1  0.49742195  0.16158565  0.83079794  1
  Fe  Fe39  1  0.49413542  0.49603169  0.49534215  1
  Ni  Ni40  1  0.33211247  0.33007976  0.66174328  1
  Cr  Cr41  1  0.49548775  0.49523884  0.83031673  1
  Ni  Ni42  1  0.49644879  0.83158876  0.49598095  1
  Cr  Cr43  1  0.32845660  0.66345378  0.66099039  1
  Cr  Cr44  1  0.49894536  0.83225517  0.83140805  1
  Ni  Ni45  1  0.82645873  0.16283647  0.49831187  1
  Ni  Ni46  1  0.66432765  -0.00188728  0.66246479  1
  Ni  Ni47  1  0.82790796  0.15835149  0.83015975  1
  Ni  Ni48  1  0.83153077  0.49783440  0.49599240  1
  Cr  Cr49  1  0.66265640  0.32670724  0.66158903  1
  Cr  Cr50  1  0.83002653  0.49876801  0.83223230  1
  Ni  Ni51  1  0.82873685  0.82923603  0.49745352  1
  Cr  Cr52  1  0.66346112  0.66541188  0.66116618  1
  Ni  Ni53  1  0.82987643  0.83329425  0.83263525  1
" 