7304,Ni52Fe46Cr1_14,-240.187022143417, 221.47325810385,Ni52Fe46Cr1,"# generated using pymatgen
 data_Cr(Fe6Ni7)2
_symmetry_space_group_name_H-M   'P 1'
_cell_length_a   7.40934102
_cell_length_b   7.40934102
_cell_length_c   10.47839056
_cell_angle_alpha   90.00000000
_cell_angle_beta   90.00000000
_cell_angle_gamma   90.00000000
_symmetry_Int_Tables_number   1
_chemical_formula_structural   Cr(Fe6Ni7)2
_chemical_formula_sum   'Cr2 Fe24 Ni28'
_cell_volume   575.24618910
_cell_formula_units_Z   2
loop_
 _symmetry_equiv_pos_site_id
 _symmetry_equiv_pos_as_xyz
  1  'x, y, z'
loop_
 _atom_site_type_symbol
 _atom_site_label
 _atom_site_symmetry_multiplicity
 _atom_site_fract_x
 _atom_site_fract_y
 _atom_site_fract_z
 _atom_site_occupancy
  Fe  Fe0  1  1.00344142  0.00439588  0.00395895  1
  Fe  Fe1  1  0.16954019  0.16996229  0.17160854  1
  Ni  Ni2  1  0.00503576  0.00409841  0.33641725  1
  Fe  Fe3  1  0.00396247  0.33727556  1.00344616  1
  Ni  Ni4  1  0.17010584  0.50336580  0.17182794  1
  Ni  Ni5  1  1.00375816  0.33663270  0.33634796  1
  Ni  Ni6  1  1.00356266  0.67080636  0.00409079  1
  Fe  Fe7  1  0.17082270  0.83720184  0.17076400  1
  Fe  Fe8  1  0.00412370  0.66990817  0.33631758  1
  Ni  Ni9  1  0.33658590  1.00319946  1.00325128  1
  Cr  Cr10  1  0.50351195  0.16941032  0.17159353  1
  Ni  Ni11  1  0.33524128  1.00254823  0.33764224  1
  Ni  Ni12  1  0.33683264  0.33741271  1.00301338  1
  Fe  Fe13  1  0.50391802  0.50576457  0.17160972  1
  Ni  Ni14  1  0.33629134  0.33795769  0.33819540  1
  Fe  Fe15  1  0.33759235  0.67064399  0.00427409  1
  Ni  Ni16  1  0.50462781  0.83676232  0.17136777  1
  Ni  Ni17  1  0.33818028  0.67117467  0.33667725  1
  Ni  Ni18  1  0.67071611  1.00290050  1.00297536  1
  Fe  Fe19  1  0.83845247  0.17022582  0.17025800  1
  Fe  Fe20  1  0.67084661  1.00304434  0.33734083  1
  Ni  Ni21  1  0.67098242  0.33822652  1.00269485  1
  Fe  Fe22  1  0.83680565  0.50448706  0.17076393  1
  Ni  Ni23  1  0.67163331  0.33957754  0.33819603  1
  Fe  Fe24  1  0.67006485  0.67116329  0.00398641  1
  Ni  Ni25  1  0.83633676  0.83734426  0.17032591  1
  Ni  Ni26  1  0.67008306  0.66989937  0.33587727  1
  Ni  Ni27  1  0.17004671  0.17124218  0.50277200  1
  Ni  Ni28  1  1.00255420  1.00373839  0.67167478  1
  Fe  Fe29  1  0.16969286  0.17187032  0.83722660  1
  Fe  Fe30  1  0.17091482  0.50286202  0.50371420  1
  Ni  Ni31  1  1.00387458  0.33751234  0.67122398  1
  Ni  Ni32  1  0.17007313  0.50331982  0.83550884  1
  Fe  Fe33  1  0.16973867  0.83660310  0.50273288  1
  Fe  Fe34  1  1.00301423  0.66968006  0.67146674  1
  Fe  Fe35  1  0.16906310  0.83619780  0.83818563  1
  Fe  Fe36  1  0.50454797  0.17270997  0.50295583  1
  Cr  Cr37  1  0.33674883  0.00470148  0.67075386  1
  Fe  Fe38  1  0.50526782  0.17199196  0.83862169  1
  Ni  Ni39  1  0.50415468  0.50390393  0.50388135  1
  Ni  Ni40  1  0.33686802  0.33886032  0.67047518  1
  Fe  Fe41  1  0.50445421  0.50315801  0.83644544  1
  Fe  Fe42  1  0.50479330  0.83575218  0.50297378  1
  Fe  Fe43  1  0.33791753  0.66857901  0.67038770  1
  Ni  Ni44  1  0.50470716  0.83756851  0.83815016  1
  Fe  Fe45  1  0.83751280  0.17153695  0.50460853  1
  Ni  Ni46  1  0.67255926  1.00296511  0.67024611  1
  Ni  Ni47  1  0.83701394  0.17068281  0.83682287  1
  Ni  Ni48  1  0.83688289  0.50381232  0.50367256  1
  Ni  Ni49  1  0.67094300  0.33859126  0.67079665  1
  Ni  Ni50  1  0.83833518  0.50288234  0.83736923  1
  Fe  Fe51  1  0.83715004  0.83703951  0.50368009  1
  Ni  Ni52  1  0.67121962  0.67012609  0.67167690  1
  Fe  Fe53  1  0.83718135  0.83700816  0.83743960  1
" 