8406,Ni52Fe11Cr35_18,-225.998205300407, 164.058006199598,Ni52Fe11Cr35,"# generated using pymatgen
 data_Cr10Fe3Ni14
_symmetry_space_group_name_H-M   'P 1'
_cell_length_a   7.48598549
_cell_length_b   7.48598549
_cell_length_c   10.58678220
_cell_angle_alpha   90.00000000
_cell_angle_beta   90.00000000
_cell_angle_gamma   90.00000000
_symmetry_Int_Tables_number   1
_chemical_formula_structural   Cr10Fe3Ni14
_chemical_formula_sum   'Cr20 Fe6 Ni28'
_cell_volume   593.28304926
_cell_formula_units_Z   2
loop_
 _symmetry_equiv_pos_site_id
 _symmetry_equiv_pos_as_xyz
  1  'x, y, z'
loop_
 _atom_site_type_symbol
 _atom_site_label
 _atom_site_symmetry_multiplicity
 _atom_site_fract_x
 _atom_site_fract_y
 _atom_site_fract_z
 _atom_site_occupancy
  Cr  Cr0  1  0.99287934  0.00011454  0.99785870  1
  Cr  Cr1  1  0.16461246  0.16535034  0.16625170  1
  Fe  Fe2  1  0.99728108  0.99670951  0.33220130  1
  Ni  Ni3  1  0.99634503  0.33266187  0.99853584  1
  Ni  Ni4  1  0.16420101  0.49854908  0.16508163  1
  Cr  Cr5  1  0.99869325  0.33436301  0.33409607  1
  Cr  Cr6  1  0.99487016  0.66372683  0.99827756  1
  Cr  Cr7  1  0.16482284  0.82978085  0.16845903  1
  Ni  Ni8  1  0.99735516  0.66529191  0.33266097  1
  Cr  Cr9  1  0.33982010  -0.00046164  0.99721601  1
  Ni  Ni10  1  0.50454899  0.16403688  0.16667716  1
  Ni  Ni11  1  0.33603709  0.99730328  0.33291275  1
  Cr  Cr12  1  0.33327799  0.33182146  0.00047014  1
  Fe  Fe13  1  0.50217793  0.49879650  0.16659586  1
  Cr  Cr14  1  0.33401181  0.33216846  0.33132450  1
  Cr  Cr15  1  0.33766774  0.66480894  0.00129826  1
  Ni  Ni16  1  0.50409220  0.83404868  0.16720673  1
  Cr  Cr17  1  0.33343737  0.66538049  0.33152768  1
  Ni  Ni18  1  0.66445727  0.99736713  0.00016783  1
  Ni  Ni19  1  0.82665980  0.16461068  0.16557831  1
  Ni  Ni20  1  0.66353341  0.99750941  0.32776561  1
  Fe  Fe21  1  0.66503422  0.33051948  0.99833785  1
  Cr  Cr22  1  0.83140199  0.49851136  0.16570467  1
  Ni  Ni23  1  0.66534660  0.33220992  0.33050029  1
  Fe  Fe24  1  0.66502139  0.66786467  0.99728564  1
  Ni  Ni25  1  0.82713377  0.83339632  0.16746924  1
  Ni  Ni26  1  0.66580507  0.66698933  0.33177228  1
  Fe  Fe27  1  0.16873034  0.16210541  0.50072957  1
  Ni  Ni28  1  0.00192786  -0.00125880  0.66509842  1
  Ni  Ni29  1  0.16762509  0.16626397  0.82857115  1
  Ni  Ni30  1  0.16786102  0.50153919  0.49933423  1
  Cr  Cr31  1  0.99839273  0.33215487  0.66398377  1
  Cr  Cr32  1  0.16733779  0.49729995  0.83319703  1
  Ni  Ni33  1  0.16719328  0.83177934  0.49836278  1
  Cr  Cr34  1  0.99519297  0.66586830  0.66469998  1
  Cr  Cr35  1  0.16739659  0.83379714  0.82878008  1
  Cr  Cr36  1  0.49987081  0.16589566  0.49940565  1
  Ni  Ni37  1  0.33194668  0.99848234  0.66599216  1
  Ni  Ni38  1  0.49840564  0.16715365  0.83100035  1
  Ni  Ni39  1  0.49959279  0.49992504  0.50003610  1
  Ni  Ni40  1  0.33407651  0.33258419  0.66576950  1
  Ni  Ni41  1  0.50241223  0.49842563  0.83044685  1
  Ni  Ni42  1  0.49612718  0.82951658  0.49877464  1
  Ni  Ni43  1  0.33629718  0.66514801  0.66332169  1
  Ni  Ni44  1  0.50187973  0.83047991  0.83039887  1
  Cr  Cr45  1  0.82948268  0.16617604  0.49650659  1
  Cr  Cr46  1  0.66390154  0.99559457  0.66870004  1
  Cr  Cr47  1  0.83078676  0.16699122  0.83301209  1
  Fe  Fe48  1  0.82700907  0.50118524  0.49802810  1
  Ni  Ni49  1  0.66203812  0.33697643  0.66658186  1
  Ni  Ni50  1  0.82626242  0.49921651  0.83164484  1
  Cr  Cr51  1  0.83048928  0.83201760  0.49636644  1
  Ni  Ni52  1  0.66143118  0.66292436  0.66707593  1
  Ni  Ni53  1  0.82750344  0.83002438  0.83264367  1
" 