1977,Ni52Fe35Cr11_1,-236.971476359051, 210.626958927373,Ni52Fe35Cr11,"# generated using pymatgen
 data_Cr7Fe19Ni28
_symmetry_space_group_name_H-M   'P 1'
_cell_length_a   7.42959455
_cell_length_b   7.42959455
_cell_length_c   10.50703337
_cell_angle_alpha   90.00000000
_cell_angle_beta   90.00000000
_cell_angle_gamma   90.00000000
_symmetry_Int_Tables_number   1
_chemical_formula_structural   Cr7Fe19Ni28
_chemical_formula_sum   'Cr7 Fe19 Ni28'
_cell_volume   579.97642313
_cell_formula_units_Z   1
loop_
 _symmetry_equiv_pos_site_id
 _symmetry_equiv_pos_as_xyz
  1  'x, y, z'
loop_
 _atom_site_type_symbol
 _atom_site_label
 _atom_site_symmetry_multiplicity
 _atom_site_fract_x
 _atom_site_fract_y
 _atom_site_fract_z
 _atom_site_occupancy
  Cr  Cr0  1  0.00443062  0.00254432  1.00218504  1
  Ni  Ni1  1  0.16872544  0.17118344  0.16810404  1
  Cr  Cr2  1  0.00334681  0.00296120  0.33602170  1
  Ni  Ni3  1  1.00150442  0.33650065  1.00235604  1
  Fe  Fe4  1  0.17008074  0.50349654  0.16874164  1
  Fe  Fe5  1  0.00265636  0.33749012  0.33594877  1
  Ni  Ni6  1  0.00308625  0.66815693  1.00244306  1
  Ni  Ni7  1  0.17086088  0.83353407  0.16840279  1
  Fe  Fe8  1  0.00293251  0.66774495  0.33575003  1
  Ni  Ni9  1  0.33522776  0.00254013  0.00314087  1
  Fe  Fe10  1  0.50272007  0.16923795  0.16764074  1
  Cr  Cr11  1  0.33281402  1.00151655  0.33478727  1
  Fe  Fe12  1  0.33640514  0.33642300  1.00180541  1
  Ni  Ni13  1  0.50347147  0.50396226  0.16983379  1
  Fe  Fe14  1  0.33543051  0.33907239  0.33568168  1
  Ni  Ni15  1  0.33519075  0.66937947  0.00358987  1
  Ni  Ni16  1  0.50338721  0.83437676  0.16809371  1
  Ni  Ni17  1  0.33596592  0.66721496  0.33577491  1
  Ni  Ni18  1  0.66843346  0.00411722  0.00386181  1
  Fe  Fe19  1  0.83384624  0.17078076  0.16882902  1
  Fe  Fe20  1  0.67045964  1.00200097  0.33385568  1
  Ni  Ni21  1  0.66965027  0.33646414  1.00203470  1
  Fe  Fe22  1  0.83536259  0.50302567  0.16877774  1
  Ni  Ni23  1  0.67045230  0.33828941  0.33556331  1
  Ni  Ni24  1  0.66928458  0.66698104  0.00357381  1
  Fe  Fe25  1  0.83369103  0.83375442  0.16880370  1
  Ni  Ni26  1  0.66887679  0.66602322  0.33518224  1
  Ni  Ni27  1  0.16677264  0.17230595  0.50424884  1
  Cr  Cr28  1  0.00490494  0.00290387  0.66935321  1
  Fe  Fe29  1  0.17197781  0.17104105  0.83584242  1
  Ni  Ni30  1  0.16809306  0.50320638  0.50132741  1
  Fe  Fe31  1  0.00329195  0.33750684  0.66923293  1
  Ni  Ni32  1  0.16844070  0.50366173  0.83689182  1
  Ni  Ni33  1  0.16885001  0.83205504  0.50329319  1
  Fe  Fe34  1  0.00414881  0.66735990  0.66964081  1
  Ni  Ni35  1  0.16960089  0.83271476  0.83586579  1
  Cr  Cr36  1  0.50449405  0.17018915  0.50339654  1
  Ni  Ni37  1  0.33226024  0.00334887  0.66976646  1
  Ni  Ni38  1  0.50489227  0.17040374  0.83648478  1
  Fe  Fe39  1  0.50183961  0.50228960  0.50265325  1
  Ni  Ni40  1  0.33630554  0.33642516  0.66937363  1
  Ni  Ni41  1  0.50255350  0.50097960  0.83499942  1
  Cr  Cr42  1  0.50252696  0.83386398  0.50387627  1
  Ni  Ni43  1  0.33504181  0.66778890  0.66819636  1
  Cr  Cr44  1  0.50164901  0.83614409  0.83618229  1
  Ni  Ni45  1  0.83571110  0.17149963  0.50160023  1
  Fe  Fe46  1  0.66883929  0.00413936  0.67065681  1
  Ni  Ni47  1  0.83310726  0.17156497  0.83613336  1
  Fe  Fe48  1  0.83606412  0.50199361  0.50232738  1
  Ni  Ni49  1  0.66933217  0.33800961  0.66996012  1
  Fe  Fe50  1  0.83523886  0.50219413  0.83645669  1
  Fe  Fe51  1  0.83671901  0.83454494  0.50245753  1
  Ni  Ni52  1  0.66984766  0.66545248  0.66880523  1
  Fe  Fe53  1  0.83531166  0.83374886  0.83630257  1
" 