3834,Ni52Fe10Cr37_19,-224.757218431649, 159.040189641296,Ni52Fe10Cr37,"# generated using pymatgen
 data_Cr21Fe5Ni28
_symmetry_space_group_name_H-M   'P 1'
_cell_length_a   7.49237923
_cell_length_b   7.49237923
_cell_length_c   10.59582432
_cell_angle_alpha   90.00000000
_cell_angle_beta   90.00000000
_cell_angle_gamma   90.00000000
_symmetry_Int_Tables_number   1
_chemical_formula_structural   Cr21Fe5Ni28
_chemical_formula_sum   'Cr21 Fe5 Ni28'
_cell_volume   594.80450805
_cell_formula_units_Z   1
loop_
 _symmetry_equiv_pos_site_id
 _symmetry_equiv_pos_as_xyz
  1  'x, y, z'
loop_
 _atom_site_type_symbol
 _atom_site_label
 _atom_site_symmetry_multiplicity
 _atom_site_fract_x
 _atom_site_fract_y
 _atom_site_fract_z
 _atom_site_occupancy
  Ni  Ni0  1  0.99625116  0.99651397  0.99794574  1
  Cr  Cr1  1  0.16270679  0.16322125  0.16615881  1
  Ni  Ni2  1  0.99662215  0.99770154  0.33122948  1
  Ni  Ni3  1  0.99587882  0.33044938  -0.00035102  1
  Ni  Ni4  1  0.16335469  0.50033763  0.16471532  1
  Fe  Fe5  1  0.99685311  0.33240891  0.33250900  1
  Ni  Ni6  1  0.00188751  0.66798059  -0.00036558  1
  Ni  Ni7  1  0.16415086  0.83105832  0.16339866  1
  Fe  Fe8  1  0.99638827  0.66485574  0.33161788  1
  Ni  Ni9  1  0.33238445  0.99352704  0.99817363  1
  Cr  Cr10  1  0.49982341  0.16355739  0.16518975  1
  Fe  Fe11  1  0.33091586  0.99806425  0.32968877  1
  Cr  Cr12  1  0.33128544  0.33303929  -0.00153354  1
  Cr  Cr13  1  0.49933786  0.49889894  0.16514603  1
  Ni  Ni14  1  0.32985694  0.33345391  0.33293961  1
  Ni  Ni15  1  0.32845322  0.66925629  -0.00138726  1
  Ni  Ni16  1  0.49722339  0.83230189  0.16388913  1
  Cr  Cr17  1  0.33007656  0.66354192  0.32857729  1
  Ni  Ni18  1  0.66627604  -0.00055383  0.99675692  1
  Ni  Ni19  1  0.83251737  0.16400424  0.16349944  1
  Cr  Cr20  1  0.66921928  0.99711038  0.33179275  1
  Ni  Ni21  1  0.66762255  0.32644287  0.99731473  1
  Cr  Cr22  1  0.83280254  0.49760580  0.16464501  1
  Ni  Ni23  1  0.66664170  0.33240009  0.33291902  1
  Cr  Cr24  1  0.66402801  0.66861331  -0.00129346  1
  Ni  Ni25  1  0.83350303  0.83312026  0.16528702  1
  Ni  Ni26  1  0.66739533  0.66487124  0.33252339  1
  Cr  Cr27  1  0.16482774  0.16579851  0.49741606  1
  Cr  Cr28  1  0.99649888  0.99772678  0.66607897  1
  Cr  Cr29  1  0.16437380  0.16265893  0.83136020  1
  Ni  Ni30  1  0.16161406  0.49706271  0.49959223  1
  Ni  Ni31  1  -0.00095091  0.33401070  0.66206409  1
  Cr  Cr32  1  0.16270489  0.50091161  0.83086884  1
  Cr  Cr33  1  0.16330058  0.83170246  0.49909538  1
  Ni  Ni34  1  0.00014957  0.66359944  0.66304399  1
  Ni  Ni35  1  0.16618312  0.83136113  0.83266257  1
  Cr  Cr36  1  0.49670340  0.16498727  0.49735094  1
  Ni  Ni37  1  0.33217293  0.99729475  0.66686053  1
  Ni  Ni38  1  0.49924251  0.16144497  0.83233446  1
  Cr  Cr39  1  0.49909431  0.49779392  0.49783241  1
  Fe  Fe40  1  0.32931446  0.33124681  0.66453780  1
  Cr  Cr41  1  0.49807144  0.49846067  0.83198459  1
  Cr  Cr42  1  0.49865264  0.83210095  0.49821187  1
  Fe  Fe43  1  0.32846667  0.66636226  0.66636900  1
  Ni  Ni44  1  0.49551981  0.83514535  0.83248919  1
  Ni  Ni45  1  0.83352047  0.16740971  0.49658099  1
  Cr  Cr46  1  0.66577233  -0.00161120  0.66693288  1
  Ni  Ni47  1  0.83031189  0.16419197  0.83487598  1
  Ni  Ni48  1  0.83480306  0.49844865  0.49678031  1
  Cr  Cr49  1  0.66703648  0.32942236  0.66548373  1
  Cr  Cr50  1  0.83410990  0.49779104  0.83342513  1
  Ni  Ni51  1  0.83349525  0.82909807  0.49656135  1
  Cr  Cr52  1  0.66706824  0.66712463  0.66387247  1
  Ni  Ni53  1  0.83319953  0.83338634  0.83306096  1
" 