921,Ni52Fe11Cr35_5,-225.971812758995, 164.568975550394,Ni52Fe11Cr35,"# generated using pymatgen
 data_Cr10Fe3Ni14
_symmetry_space_group_name_H-M   'P 1'
_cell_length_a   7.48331267
_cell_length_b   7.48331267
_cell_length_c   10.58300227
_cell_angle_alpha   90.00000000
_cell_angle_beta   90.00000000
_cell_angle_gamma   90.00000000
_symmetry_Int_Tables_number   1
_chemical_formula_structural   Cr10Fe3Ni14
_chemical_formula_sum   'Cr20 Fe6 Ni28'
_cell_volume   592.64779440
_cell_formula_units_Z   2
loop_
 _symmetry_equiv_pos_site_id
 _symmetry_equiv_pos_as_xyz
  1  'x, y, z'
loop_
 _atom_site_type_symbol
 _atom_site_label
 _atom_site_symmetry_multiplicity
 _atom_site_fract_x
 _atom_site_fract_y
 _atom_site_fract_z
 _atom_site_occupancy
  Ni  Ni0  1  -0.00093119  0.00050140  0.00021348  1
  Ni  Ni1  1  0.16469407  0.16410451  0.16686880  1
  Ni  Ni2  1  0.00217105  0.00117327  0.33158657  1
  Ni  Ni3  1  0.99695678  0.33187621  -0.00093794  1
  Cr  Cr4  1  0.16439406  0.49774641  0.16441988  1
  Fe  Fe5  1  -0.00075309  0.32771616  0.33101970  1
  Ni  Ni6  1  0.99732275  0.66434176  0.99890833  1
  Ni  Ni7  1  0.16225212  0.83499983  0.16652439  1
  Cr  Cr8  1  0.99833832  0.66668350  0.32939058  1
  Cr  Cr9  1  0.33063552  0.00124153  0.99863935  1
  Ni  Ni10  1  0.49825064  0.16651641  0.16560280  1
  Ni  Ni11  1  0.32944209  -0.00086356  0.33199846  1
  Fe  Fe12  1  0.33036873  0.32943566  0.99746646  1
  Cr  Cr13  1  0.49955988  0.49631084  0.16608663  1
  Fe  Fe14  1  0.33086917  0.32974430  0.33283678  1
  Cr  Cr15  1  0.32949344  0.66693310  0.99861404  1
  Cr  Cr16  1  0.49951916  0.83375666  0.16915990  1
  Fe  Fe17  1  0.33327215  0.66834699  0.33421141  1
  Cr  Cr18  1  0.66617854  0.00150768  0.99803016  1
  Ni  Ni19  1  0.83377528  0.16494527  0.16604892  1
  Fe  Fe20  1  0.66712162  0.99822617  0.33097941  1
  Ni  Ni21  1  0.66827470  0.33083532  0.99889145  1
  Ni  Ni22  1  0.83267957  0.49858544  0.16436920  1
  Cr  Cr23  1  0.66768554  0.33299892  0.33184269  1
  Cr  Cr24  1  0.66973126  0.66414627  0.99835888  1
  Ni  Ni25  1  0.83518536  0.83311086  0.16595599  1
  Ni  Ni26  1  0.66375449  0.66518500  0.33222035  1
  Ni  Ni27  1  0.16447623  0.16319225  0.49732800  1
  Ni  Ni28  1  -0.00003403  -0.00091616  0.66497032  1
  Ni  Ni29  1  0.16489696  0.16818918  0.83254830  1
  Cr  Cr30  1  0.16913625  0.49908183  0.50029864  1
  Cr  Cr31  1  -0.00043241  0.33053260  0.66527329  1
  Ni  Ni32  1  0.16419176  0.49758178  0.83155697  1
  Ni  Ni33  1  0.16667627  0.83388226  0.49908119  1
  Ni  Ni34  1  0.00118081  0.66687147  0.66811762  1
  Cr  Cr35  1  0.16200576  0.83109421  0.83137835  1
  Cr  Cr36  1  0.49808093  0.16656920  0.49816454  1
  Cr  Cr37  1  0.33029013  0.99890730  0.66657040  1
  Ni  Ni38  1  0.49849119  0.16683084  0.83360163  1
  Ni  Ni39  1  0.49597691  0.50111892  0.49825186  1
  Ni  Ni40  1  0.33128115  0.33317244  0.66653381  1
  Cr  Cr41  1  0.49667267  0.49670845  0.83212243  1
  Fe  Fe42  1  0.49614986  0.83024312  0.49706924  1
  Ni  Ni43  1  0.33128568  0.66491069  0.66316249  1
  Ni  Ni44  1  0.50026258  0.83300353  0.83003006  1
  Ni  Ni45  1  0.83530216  0.16278916  0.49741981  1
  Cr  Cr46  1  0.66655139  -0.00027349  0.66750299  1
  Ni  Ni47  1  0.83333699  0.16493323  0.83322438  1
  Cr  Cr48  1  0.83119715  0.49856244  0.49880152  1
  Cr  Cr49  1  0.66590898  0.33168397  0.66675431  1
  Ni  Ni50  1  0.83535339  0.49934338  0.83423757  1
  Cr  Cr51  1  0.83388353  0.83537786  0.49932260  1
  Cr  Cr52  1  0.66494273  0.66536860  0.66646840  1
  Ni  Ni53  1  0.83400820  0.83245026  0.83221785  1
" 