4458,Ni52Fe48_4,-240.883917850947, 221.420712647664,Ni52Fe48,"# generated using pymatgen
 data_Fe14Ni13
_symmetry_space_group_name_H-M   'P 1'
_cell_length_a   7.40352928
_cell_length_b   7.40352928
_cell_length_c   10.47017152
_cell_angle_alpha   90.00000000
_cell_angle_beta   90.00000000
_cell_angle_gamma   90.00000000
_symmetry_Int_Tables_number   1
_chemical_formula_structural   Fe14Ni13
_chemical_formula_sum   'Fe28 Ni26'
_cell_volume   573.89361531
_cell_formula_units_Z   2
loop_
 _symmetry_equiv_pos_site_id
 _symmetry_equiv_pos_as_xyz
  1  'x, y, z'
loop_
 _atom_site_type_symbol
 _atom_site_label
 _atom_site_symmetry_multiplicity
 _atom_site_fract_x
 _atom_site_fract_y
 _atom_site_fract_z
 _atom_site_occupancy
  Fe  Fe0  1  0.00533179  1.00369811  1.00420732  1
  Ni  Ni1  1  0.17219380  0.17087244  0.17065475  1
  Ni  Ni2  1  1.00379163  0.00457884  0.33778211  1
  Fe  Fe3  1  0.00528242  0.33825580  1.00411223  1
  Fe  Fe4  1  0.17176633  0.50443901  0.17095180  1
  Ni  Ni5  1  1.00414776  0.33670434  0.33778882  1
  Fe  Fe6  1  0.00521242  0.67091237  1.00403983  1
  Ni  Ni7  1  0.16949642  0.83778991  0.17227707  1
  Ni  Ni8  1  0.00529950  0.67158040  0.33798925  1
  Fe  Fe9  1  0.33748184  0.00465373  0.00442846  1
  Ni  Ni10  1  0.50385164  0.17286277  0.17212510  1
  Fe  Fe11  1  0.33725713  1.00400405  0.33770214  1
  Ni  Ni12  1  0.33781399  0.33858875  1.00366970  1
  Ni  Ni13  1  0.50466093  0.50268777  0.17121500  1
  Fe  Fe14  1  0.33747524  0.33776790  0.33692216  1
  Ni  Ni15  1  0.33779427  0.67007732  1.00321856  1
  Fe  Fe16  1  0.50379600  0.83759757  0.17180536  1
  Ni  Ni17  1  0.33771506  0.67086899  0.33774010  1
  Fe  Fe18  1  0.67005013  0.00457853  0.00433676  1
  Fe  Fe19  1  0.83762690  0.17051168  0.17133942  1
  Ni  Ni20  1  0.67173546  0.00456788  0.33813877  1
  Fe  Fe21  1  0.66959520  0.33788716  0.00433239  1
  Fe  Fe22  1  0.83752977  0.50409018  0.17135170  1
  Ni  Ni23  1  0.67102025  0.33707614  0.33754303  1
  Fe  Fe24  1  0.67055360  0.67040207  0.00462943  1
  Ni  Ni25  1  0.83834764  0.83697480  0.17142535  1
  Ni  Ni26  1  0.66985364  0.67122184  0.33752905  1
  Ni  Ni27  1  0.17129406  0.17169586  0.50449895  1
  Ni  Ni28  1  1.00401576  0.00437349  0.67151993  1
  Fe  Fe29  1  0.16982795  0.17102945  0.83755152  1
  Ni  Ni30  1  0.17094971  0.50380113  0.50302331  1
  Fe  Fe31  1  0.00450625  0.33748724  0.67077168  1
  Ni  Ni32  1  0.17089597  0.50493330  0.83826768  1
  Ni  Ni33  1  0.17023638  0.83737366  0.50358529  1
  Fe  Fe34  1  0.00443809  0.67153169  0.67098452  1
  Ni  Ni35  1  0.17018962  0.83653952  0.83700687  1
  Fe  Fe36  1  0.50380596  0.17003978  0.50415328  1
  Fe  Fe37  1  0.33711559  1.00421503  0.67073853  1
  Ni  Ni38  1  0.50488887  0.17174929  0.83750701  1
  Fe  Fe39  1  0.50351068  0.50557411  0.50322516  1
  Fe  Fe40  1  0.33677384  0.33699781  0.67152394  1
  Fe  Fe41  1  0.50442037  0.50434255  0.83861063  1
  Ni  Ni42  1  0.50540079  0.83771278  0.50323000  1
  Fe  Fe43  1  0.33647860  0.67165712  0.67073060  1
  Fe  Fe44  1  0.50463383  0.83728719  0.83720050  1
  Fe  Fe45  1  0.83884274  0.16988763  0.50427333  1
  Fe  Fe46  1  0.67146194  1.00414573  0.67091636  1
  Ni  Ni47  1  0.83589156  0.17103801  0.83797191  1
  Fe  Fe48  1  0.83846855  0.50506205  0.50397053  1
  Fe  Fe49  1  0.67158532  0.33684944  0.67141995  1
  Ni  Ni50  1  0.83789708  0.50446581  0.83771143  1
  Ni  Ni51  1  0.83723341  0.83736452  0.50418337  1
  Fe  Fe52  1  0.67195397  0.67187445  0.67054553  1
  Ni  Ni53  1  0.83824796  0.83736658  0.83726811  1
" 