7217,Ni52Fe11Cr35_3,-225.60379079685, 158.687041136944,Ni52Fe11Cr35,"# generated using pymatgen
 data_Cr10Fe3Ni14
_symmetry_space_group_name_H-M   'P 1'
_cell_length_a   7.48709877
_cell_length_b   7.48709877
_cell_length_c   10.58835663
_cell_angle_alpha   90.00000000
_cell_angle_beta   90.00000000
_cell_angle_gamma   90.00000000
_symmetry_Int_Tables_number   1
_chemical_formula_structural   Cr10Fe3Ni14
_chemical_formula_sum   'Cr20 Fe6 Ni28'
_cell_volume   593.54778041
_cell_formula_units_Z   2
loop_
 _symmetry_equiv_pos_site_id
 _symmetry_equiv_pos_as_xyz
  1  'x, y, z'
loop_
 _atom_site_type_symbol
 _atom_site_label
 _atom_site_symmetry_multiplicity
 _atom_site_fract_x
 _atom_site_fract_y
 _atom_site_fract_z
 _atom_site_occupancy
  Cr  Cr0  1  0.99803663  0.00111827  0.99620567  1
  Ni  Ni1  1  0.16283333  0.16705350  0.16430320  1
  Ni  Ni2  1  0.99718692  0.99634807  0.33160778  1
  Ni  Ni3  1  0.99556555  0.33046714  -0.00053364  1
  Cr  Cr4  1  0.16632251  0.49785953  0.16603923  1
  Cr  Cr5  1  0.99751663  0.33211710  0.32809375  1
  Cr  Cr6  1  0.99800766  0.66395448  0.99660243  1
  Cr  Cr7  1  0.16605460  0.83153203  0.16758112  1
  Ni  Ni8  1  0.99785148  0.66832238  0.33295916  1
  Cr  Cr9  1  0.33149141  0.99861049  0.99844307  1
  Fe  Fe10  1  0.50133703  0.16705920  0.16357089  1
  Cr  Cr11  1  0.33278154  0.99786346  0.33268604  1
  Fe  Fe12  1  0.33275782  0.33267521  -0.00110240  1
  Ni  Ni13  1  0.50015297  0.49911276  0.16386573  1
  Cr  Cr14  1  0.33461649  0.33289763  0.33094348  1
  Ni  Ni15  1  0.33441471  0.66303656  0.99818388  1
  Cr  Cr16  1  0.50066510  0.82978237  0.16410225  1
  Ni  Ni17  1  0.33348970  0.66595800  0.33360285  1
  Ni  Ni18  1  0.66652973  0.00199194  -0.00055112  1
  Ni  Ni19  1  0.83187416  0.16642348  0.16446813  1
  Ni  Ni20  1  0.66645854  0.99747374  0.33219359  1
  Ni  Ni21  1  0.66667075  0.33260829  -0.00039068  1
  Ni  Ni22  1  0.82909984  0.49607843  0.16429181  1
  Cr  Cr23  1  0.66385100  0.33235570  0.33147067  1
  Fe  Fe24  1  0.66478510  0.66262191  0.99805308  1
  Cr  Cr25  1  0.82926719  0.83328987  0.16860625  1
  Ni  Ni26  1  0.66463794  0.66607973  0.33194923  1
  Cr  Cr27  1  0.16518477  0.16306615  0.50106843  1
  Ni  Ni28  1  0.00129256  0.99510220  0.66773038  1
  Ni  Ni29  1  0.16280671  0.16462662  0.83094342  1
  Cr  Cr30  1  0.16770372  0.50206629  0.49847562  1
  Cr  Cr31  1  0.99716116  0.33156611  0.66851316  1
  Cr  Cr32  1  0.16800274  0.49826177  0.83140889  1
  Ni  Ni33  1  0.16602466  0.83148021  0.49954750  1
  Ni  Ni34  1  0.99851323  0.66984533  0.66593388  1
  Ni  Ni35  1  0.16396888  0.83269071  0.82868393  1
  Fe  Fe36  1  0.49809032  0.16512300  0.50079235  1
  Ni  Ni37  1  0.32879762  0.99762213  0.66457625  1
  Cr  Cr38  1  0.49930378  0.16794673  0.83094366  1
  Ni  Ni39  1  0.49875217  0.50202461  0.50062774  1
  Ni  Ni40  1  0.33581404  0.33213435  0.66579135  1
  Ni  Ni41  1  0.49996094  0.49913661  0.83155350  1
  Ni  Ni42  1  0.49818547  0.82929771  0.49818337  1
  Ni  Ni43  1  0.33264026  0.66622664  0.66417228  1
  Cr  Cr44  1  0.49899056  0.82851216  0.83353526  1
  Cr  Cr45  1  0.83112124  0.16252664  0.49840792  1
  Cr  Cr46  1  0.66562330  0.99825514  0.66427646  1
  Ni  Ni47  1  0.83343331  0.16528016  0.83335890  1
  Cr  Cr48  1  0.83002655  0.50109677  0.49947408  1
  Ni  Ni49  1  0.66223651  0.33492559  0.66605087  1
  Fe  Fe50  1  0.82940966  0.49830488  0.83202143  1
  Fe  Fe51  1  0.83269422  0.83046952  0.49806782  1
  Ni  Ni52  1  0.66482852  0.66275532  0.66612778  1
  Ni  Ni53  1  0.83286819  0.83265683  0.83017978  1
" 