5559,Ni52Fe35Cr11_12,-236.192226858631, 210.700916895028,Ni52Fe35Cr11,"# generated using pymatgen
 data_Cr7Fe19Ni28
_symmetry_space_group_name_H-M   'P 1'
_cell_length_a   7.42395594
_cell_length_b   7.42395594
_cell_length_c   10.49905918
_cell_angle_alpha   90.00000000
_cell_angle_beta   90.00000000
_cell_angle_gamma   90.00000000
_symmetry_Int_Tables_number   1
_chemical_formula_structural   Cr7Fe19Ni28
_chemical_formula_sum   'Cr7 Fe19 Ni28'
_cell_volume   578.65692644
_cell_formula_units_Z   1
loop_
 _symmetry_equiv_pos_site_id
 _symmetry_equiv_pos_as_xyz
  1  'x, y, z'
loop_
 _atom_site_type_symbol
 _atom_site_label
 _atom_site_symmetry_multiplicity
 _atom_site_fract_x
 _atom_site_fract_y
 _atom_site_fract_z
 _atom_site_occupancy
  Fe  Fe0  1  0.00484998  1.00274309  0.00401927  1
  Ni  Ni1  1  0.16851197  0.16858896  0.16763605  1
  Ni  Ni2  1  1.00206290  1.00061174  0.33599202  1
  Fe  Fe3  1  0.00400961  0.33651649  0.00437014  1
  Ni  Ni4  1  0.16925377  0.50365478  0.16922262  1
  Cr  Cr5  1  0.00337070  0.33697808  0.33539742  1
  Fe  Fe6  1  0.00340309  0.66944621  0.00383047  1
  Ni  Ni7  1  0.16990126  0.83646204  0.16907777  1
  Ni  Ni8  1  1.00228954  0.67117076  0.33589402  1
  Fe  Fe9  1  0.33524855  0.00300616  1.00283478  1
  Fe  Fe10  1  0.50242187  0.17046800  0.16940965  1
  Cr  Cr11  1  0.33560359  0.00382126  0.33567751  1
  Ni  Ni12  1  0.33456556  0.33558792  1.00151611  1
  Cr  Cr13  1  0.50355578  0.50380919  0.17024779  1
  Ni  Ni14  1  0.33679963  0.33669338  0.33749975  1
  Fe  Fe15  1  0.33607143  0.66981445  1.00222414  1
  Ni  Ni16  1  0.50255258  0.83566099  0.16954471  1
  Fe  Fe17  1  0.33523711  0.66825516  0.33685880  1
  Cr  Cr18  1  0.66917417  1.00170598  0.00485331  1
  Ni  Ni19  1  0.83649201  0.16980091  0.16982405  1
  Fe  Fe20  1  0.67169587  0.00318330  0.33625592  1
  Ni  Ni21  1  0.66879463  0.33740901  0.00381308  1
  Ni  Ni22  1  0.83568908  0.50250437  0.16877037  1
  Ni  Ni23  1  0.66885932  0.33646693  0.33633420  1
  Ni  Ni24  1  0.67037159  0.66997570  1.00188713  1
  Fe  Fe25  1  0.83767752  0.83497645  0.17018544  1
  Ni  Ni26  1  0.67110108  0.67015139  0.33691720  1
  Ni  Ni27  1  0.16916032  0.16934527  0.50517740  1
  Fe  Fe28  1  0.00388770  0.00364662  0.66879692  1
  Ni  Ni29  1  0.17175405  0.16880945  0.83589433  1
  Ni  Ni30  1  0.17060906  0.50245778  0.50252960  1
  Ni  Ni31  1  0.00439953  0.33650260  0.66845979  1
  Ni  Ni32  1  0.17145730  0.50218041  0.83695178  1
  Fe  Fe33  1  0.16751822  0.83602281  0.50261037  1
  Fe  Fe34  1  1.00249513  0.66956038  0.66885332  1
  Ni  Ni35  1  0.16997254  0.83771836  0.83680038  1
  Fe  Fe36  1  0.50356203  0.17205763  0.50416924  1
  Ni  Ni37  1  0.33632008  0.00427768  0.67107083  1
  Fe  Fe38  1  0.50013987  0.17037431  0.83513320  1
  Ni  Ni39  1  0.50389682  0.50269759  0.50216665  1
  Ni  Ni40  1  0.33516617  0.33450257  0.66969248  1
  Fe  Fe41  1  0.50177444  0.50184640  0.83698138  1
  Fe  Fe42  1  0.50449543  0.83599981  0.50271812  1
  Cr  Cr43  1  0.33522308  0.66920118  0.66950344  1
  Fe  Fe44  1  0.50264782  0.83648215  0.83646466  1
  Ni  Ni45  1  0.83567940  0.16882308  0.50391132  1
  Ni  Ni46  1  0.66903319  1.00215020  0.66862299  1
  Cr  Cr47  1  0.83707513  0.16938900  0.83476436  1
  Ni  Ni48  1  0.83420020  0.50301212  0.50393026  1
  Ni  Ni49  1  0.66913840  0.33558212  0.66856113  1
  Cr  Cr50  1  0.83490077  0.50342756  0.83583647  1
  Fe  Fe51  1  0.83669224  0.83574633  0.50298236  1
  Fe  Fe52  1  0.66991463  0.66977502  0.66878457  1
  Ni  Ni53  1  0.83604127  0.83566790  0.83525798  1
" 