2502,Ni52Fe48_8,-240.429412462531, 219.592911344883,Ni52Fe48,"# generated using pymatgen
 data_Fe14Ni13
_symmetry_space_group_name_H-M   'P 1'
_cell_length_a   7.39865072
_cell_length_b   7.39865072
_cell_length_c   10.46327219
_cell_angle_alpha   90.00000000
_cell_angle_beta   90.00000000
_cell_angle_gamma   90.00000000
_symmetry_Int_Tables_number   1
_chemical_formula_structural   Fe14Ni13
_chemical_formula_sum   'Fe28 Ni26'
_cell_volume   572.75985872
_cell_formula_units_Z   2
loop_
 _symmetry_equiv_pos_site_id
 _symmetry_equiv_pos_as_xyz
  1  'x, y, z'
loop_
 _atom_site_type_symbol
 _atom_site_label
 _atom_site_symmetry_multiplicity
 _atom_site_fract_x
 _atom_site_fract_y
 _atom_site_fract_z
 _atom_site_occupancy
  Ni  Ni0  1  1.00280433  1.00426231  1.00452980  1
  Ni  Ni1  1  0.17193260  0.17091974  0.17162472  1
  Fe  Fe2  1  0.00601953  1.00372373  0.33728469  1
  Ni  Ni3  1  0.00551302  0.33814230  1.00437595  1
  Ni  Ni4  1  0.17121487  0.50416213  0.17127453  1
  Fe  Fe5  1  0.00608389  0.33899136  0.33757038  1
  Ni  Ni6  1  0.00515556  0.67146382  0.00489028  1
  Ni  Ni7  1  0.17075423  0.83878520  0.17172856  1
  Ni  Ni8  1  1.00433652  0.67137296  0.33751496  1
  Fe  Fe9  1  0.33670718  0.00483573  0.00466142  1
  Fe  Fe10  1  0.50400922  0.17178945  0.17096004  1
  Ni  Ni11  1  0.33794930  0.00537449  0.33777395  1
  Ni  Ni12  1  0.33745284  0.33895076  1.00453082  1
  Ni  Ni13  1  0.50533784  0.50487993  0.17111940  1
  Ni  Ni14  1  0.33758967  0.33784559  0.33812602  1
  Ni  Ni15  1  0.33708753  0.66993340  0.00514616  1
  Fe  Fe16  1  0.50408236  0.83684226  0.17117448  1
  Ni  Ni17  1  0.33722568  0.67064560  0.33822762  1
  Ni  Ni18  1  0.67243019  0.00462439  0.00473777  1
  Fe  Fe19  1  0.83891707  0.17140947  0.17065987  1
  Fe  Fe20  1  0.67052196  1.00335782  0.33797415  1
  Fe  Fe21  1  0.67192131  0.33851184  1.00406189  1
  Ni  Ni22  1  0.83731715  0.50605405  0.17218657  1
  Fe  Fe23  1  0.67038502  0.33943045  0.33817011  1
  Fe  Fe24  1  0.67205692  0.67102058  0.00523415  1
  Ni  Ni25  1  0.83776909  0.83689508  0.17101660  1
  Ni  Ni26  1  0.67230331  0.67173313  0.33803491  1
  Ni  Ni27  1  0.17192533  0.17182481  0.50471421  1
  Fe  Fe28  1  0.00462632  0.00607882  0.67153907  1
  Ni  Ni29  1  0.17225902  0.17120797  0.83752474  1
  Ni  Ni30  1  0.17120468  0.50354933  0.50435913  1
  Fe  Fe31  1  1.00441496  0.33747565  0.67161773  1
  Fe  Fe32  1  0.17211400  0.50414087  0.83835302  1
  Fe  Fe33  1  0.17134529  0.83766665  0.50358709  1
  Fe  Fe34  1  1.00391519  0.67031212  0.67113477  1
  Fe  Fe35  1  0.17150057  0.83801253  0.83891307  1
  Fe  Fe36  1  0.50366038  0.17198092  0.50546553  1
  Fe  Fe37  1  0.33893622  0.00594566  0.67115147  1
  Ni  Ni38  1  0.50353393  0.17002893  0.83742770  1
  Fe  Fe39  1  0.50343189  0.50385324  0.50393028  1
  Ni  Ni40  1  0.33828916  0.33815412  0.67120818  1
  Fe  Fe41  1  0.50406583  0.50371634  0.83820487  1
  Fe  Fe42  1  0.50373917  0.83803166  0.50483419  1
  Fe  Fe43  1  0.33906820  0.67101975  0.67128902  1
  Ni  Ni44  1  0.50542674  0.83893800  0.83813970  1
  Fe  Fe45  1  0.83836259  0.17161630  0.50526972  1
  Ni  Ni46  1  0.67192456  0.00522622  0.67074430  1
  Fe  Fe47  1  0.83703257  0.17087053  0.83793523  1
  Fe  Fe48  1  0.83872268  0.50435206  0.50464218  1
  Ni  Ni49  1  0.67038411  0.33660929  0.67156465  1
  Ni  Ni50  1  0.83771546  0.50525518  0.83767999  1
  Fe  Fe51  1  0.83878430  0.83789920  0.50400817  1
  Fe  Fe52  1  0.67088326  0.67080978  0.67115075  1
  Fe  Fe53  1  0.83745713  0.83906824  0.83862315  1
" 