1245,Ni52Fe35Cr11_16,-236.221959252186, 208.158733372,Ni52Fe35Cr11,"# generated using pymatgen
 data_Cr7Fe19Ni28
_symmetry_space_group_name_H-M   'P 1'
_cell_length_a   7.42647508
_cell_length_b   7.42647508
_cell_length_c   10.50262178
_cell_angle_alpha   90.00000000
_cell_angle_beta   90.00000000
_cell_angle_gamma   90.00000000
_symmetry_Int_Tables_number   1
_chemical_formula_structural   Cr7Fe19Ni28
_chemical_formula_sum   'Cr7 Fe19 Ni28'
_cell_volume   579.24618479
_cell_formula_units_Z   1
loop_
 _symmetry_equiv_pos_site_id
 _symmetry_equiv_pos_as_xyz
  1  'x, y, z'
loop_
 _atom_site_type_symbol
 _atom_site_label
 _atom_site_symmetry_multiplicity
 _atom_site_fract_x
 _atom_site_fract_y
 _atom_site_fract_z
 _atom_site_occupancy
  Fe  Fe0  1  1.00241777  0.00334259  1.00200785  1
  Ni  Ni1  1  0.16898072  0.16876235  0.17106050  1
  Fe  Fe2  1  1.00221454  0.00611080  0.33548348  1
  Fe  Fe3  1  1.00213240  0.33562786  0.00285042  1
  Fe  Fe4  1  0.16823338  0.50036324  0.16811066  1
  Ni  Ni5  1  0.00533579  0.33513627  0.33572533  1
  Ni  Ni6  1  0.00313013  0.66979490  1.00232557  1
  Ni  Ni7  1  0.17031103  0.83828952  0.16727878  1
  Cr  Cr8  1  1.00130868  0.66892604  0.33546011  1
  Fe  Fe9  1  0.33583308  0.00286864  1.00260273  1
  Fe  Fe10  1  0.50192961  0.16860533  0.16915472  1
  Ni  Ni11  1  0.33839652  0.00530300  0.33532570  1
  Ni  Ni12  1  0.33708486  0.33631127  0.00335012  1
  Fe  Fe13  1  0.50257911  0.50147991  0.16761480  1
  Ni  Ni14  1  0.33446529  0.33435233  0.33681882  1
  Fe  Fe15  1  0.33636985  0.66907236  1.00211136  1
  Fe  Fe16  1  0.50371082  0.83810573  0.16909358  1
  Cr  Cr17  1  0.33662305  0.66800894  0.33680476  1
  Ni  Ni18  1  0.66928267  0.00339489  1.00213889  1
  Ni  Ni19  1  0.83728812  0.16995269  0.16933077  1
  Ni  Ni20  1  0.66892591  1.00138906  0.33723579  1
  Ni  Ni21  1  0.66823738  0.33497488  1.00180408  1
  Ni  Ni22  1  0.83516779  0.50177297  0.16753385  1
  Cr  Cr23  1  0.66817732  0.33382497  0.33597787  1
  Fe  Fe24  1  0.66931176  0.66878371  1.00229191  1
  Fe  Fe25  1  0.83610871  0.83730437  0.16850679  1
  Fe  Fe26  1  0.66808206  0.67160705  0.33596164  1
  Fe  Fe27  1  0.16905580  0.17045662  0.50195766  1
  Ni  Ni28  1  1.00132940  0.00367448  0.66973920  1
  Ni  Ni29  1  0.16725989  0.16854611  0.83632538  1
  Ni  Ni30  1  0.17168730  0.49936550  0.50144940  1
  Ni  Ni31  1  1.00204025  0.33476262  0.67028163  1
  Ni  Ni32  1  0.17033811  0.50270272  0.83827677  1
  Cr  Cr33  1  0.17082433  0.83849415  0.50435016  1
  Cr  Cr34  1  0.00295413  0.66962251  0.67087895  1
  Ni  Ni35  1  0.17084693  0.83694421  0.83692139  1
  Ni  Ni36  1  0.50311539  0.16794670  0.50214883  1
  Ni  Ni37  1  0.33767229  1.00192145  0.67054700  1
  Fe  Fe38  1  0.50291864  0.16819415  0.83699122  1
  Ni  Ni39  1  0.50145146  0.50369526  0.50273211  1
  Cr  Cr40  1  0.33622275  0.33574568  0.66776493  1
  Ni  Ni41  1  0.50314399  0.50436017  0.83665115  1
  Ni  Ni42  1  0.50457529  0.83655490  0.50308541  1
  Fe  Fe43  1  0.33758717  0.67027161  0.67015715  1
  Ni  Ni44  1  0.50209138  0.83475093  0.83547852  1
  Ni  Ni45  1  0.83679013  0.16741966  0.50306944  1
  Fe  Fe46  1  0.67032030  0.00291528  0.66898475  1
  Ni  Ni47  1  0.83690914  0.16960033  0.83579372  1
  Cr  Cr48  1  0.83550179  0.50070953  0.50404988  1
  Fe  Fe49  1  0.67059789  0.33437018  0.67020084  1
  Fe  Fe50  1  0.83604570  0.50233398  0.83743926  1
  Ni  Ni51  1  0.83245213  0.83994445  0.50113614  1
  Fe  Fe52  1  0.66688204  0.67091004  0.66993177  1
  Ni  Ni53  1  0.83525521  0.83782833  0.83720361  1
" 