7471,Ni52Fe46Cr1_10,-240.423623132655, 217.614675700782,Ni52Fe46Cr1,"# generated using pymatgen
 data_Cr(Fe6Ni7)2
_symmetry_space_group_name_H-M   'P 1'
_cell_length_a   7.41333850
_cell_length_b   7.41333850
_cell_length_c   10.48404384
_cell_angle_alpha   90.00000000
_cell_angle_beta   90.00000000
_cell_angle_gamma   90.00000000
_symmetry_Int_Tables_number   1
_chemical_formula_structural   Cr(Fe6Ni7)2
_chemical_formula_sum   'Cr2 Fe24 Ni28'
_cell_volume   576.17775851
_cell_formula_units_Z   2
loop_
 _symmetry_equiv_pos_site_id
 _symmetry_equiv_pos_as_xyz
  1  'x, y, z'
loop_
 _atom_site_type_symbol
 _atom_site_label
 _atom_site_symmetry_multiplicity
 _atom_site_fract_x
 _atom_site_fract_y
 _atom_site_fract_z
 _atom_site_occupancy
  Ni  Ni0  1  1.00225388  0.00449073  0.00410015  1
  Fe  Fe1  1  0.17153220  0.17118928  0.16957220  1
  Fe  Fe2  1  0.00430469  1.00205822  0.33744459  1
  Ni  Ni3  1  0.00513436  0.33625946  1.00290816  1
  Ni  Ni4  1  0.17002980  0.50391660  0.17115513  1
  Fe  Fe5  1  0.00407478  0.33754381  0.33626164  1
  Ni  Ni6  1  1.00189157  0.67012561  1.00259050  1
  Ni  Ni7  1  0.16824882  0.83774573  0.17128621  1
  Ni  Ni8  1  0.00367044  0.67019073  0.33714229  1
  Fe  Fe9  1  0.33604137  0.00504870  0.00401122  1
  Ni  Ni10  1  0.50432902  0.17125701  0.17011216  1
  Ni  Ni11  1  0.33779503  0.00452449  0.33703560  1
  Ni  Ni12  1  0.33613961  0.33586751  1.00333195  1
  Ni  Ni13  1  0.50468807  0.50136333  0.17104775  1
  Ni  Ni14  1  0.33670378  0.33715753  0.33694662  1
  Cr  Cr15  1  0.33684284  0.66781003  1.00354608  1
  Fe  Fe16  1  0.50413080  0.83747267  0.17152432  1
  Ni  Ni17  1  0.33699079  0.66919210  0.33736649  1
  Ni  Ni18  1  0.67137109  1.00340942  1.00306665  1
  Fe  Fe19  1  0.83691797  0.17025022  0.16985279  1
  Ni  Ni20  1  0.67025307  1.00328244  0.33765999  1
  Fe  Fe21  1  0.67074137  0.33745461  0.00362932  1
  Fe  Fe22  1  0.83732047  0.50431901  0.16956574  1
  Fe  Fe23  1  0.66872636  0.33750548  0.33686974  1
  Ni  Ni24  1  0.67175163  0.67122647  1.00340269  1
  Fe  Fe25  1  0.83649316  0.83630319  0.17051867  1
  Ni  Ni26  1  0.67020649  0.67127469  0.33707473  1
  Fe  Fe27  1  0.17075978  0.16992773  0.50432665  1
  Ni  Ni28  1  1.00268598  0.00374864  0.67002494  1
  Ni  Ni29  1  0.17059997  0.16907909  0.83750647  1
  Fe  Fe30  1  0.16962148  0.50376566  0.50247886  1
  Fe  Fe31  1  0.00381178  0.33763950  0.67142306  1
  Ni  Ni32  1  0.16858811  0.50220857  0.83658094  1
  Ni  Ni33  1  0.16793684  0.83846530  0.50273059  1
  Ni  Ni34  1  1.00150927  0.67111517  0.67113204  1
  Ni  Ni35  1  0.16757426  0.83957695  0.83685683  1
  Fe  Fe36  1  0.50314785  0.16971788  0.50266969  1
  Fe  Fe37  1  0.33570734  0.00442926  0.67006147  1
  Fe  Fe38  1  0.50229890  0.17134428  0.83758438  1
  Ni  Ni39  1  0.50501222  0.50182494  0.50232417  1
  Ni  Ni40  1  0.33693866  0.33565852  0.67058632  1
  Ni  Ni41  1  0.50638306  0.50126303  0.83749576  1
  Fe  Fe42  1  0.50489772  0.83719611  0.50216941  1
  Cr  Cr43  1  0.33678442  0.66828432  0.67015463  1
  Fe  Fe44  1  0.50514042  0.83746204  0.83717390  1
  Fe  Fe45  1  0.83695762  0.16927732  0.50361947  1
  Fe  Fe46  1  0.67081763  1.00296975  0.66993073  1
  Fe  Fe47  1  0.83838076  0.17069319  0.83739538  1
  Fe  Fe48  1  0.83699186  0.50552971  0.50418639  1
  Fe  Fe49  1  0.67037374  0.33825123  0.67036590  1
  Ni  Ni50  1  0.83589789  0.50428250  0.83687426  1
  Ni  Ni51  1  0.83822193  0.83728554  0.50391121  1
  Ni  Ni52  1  0.67210809  0.67059415  0.67038893  1
  Fe  Fe53  1  0.83788203  0.83578364  0.83663736  1
" 