8660,Ni52Fe46Cr1_5,-240.253542552844, 220.362422471806,Ni52Fe46Cr1,"# generated using pymatgen
 data_Cr(Fe6Ni7)2
_symmetry_space_group_name_H-M   'P 1'
_cell_length_a   7.40777489
_cell_length_b   7.40777489
_cell_length_c   10.47617572
_cell_angle_alpha   90.00000000
_cell_angle_beta   90.00000000
_cell_angle_gamma   90.00000000
_symmetry_Int_Tables_number   1
_chemical_formula_structural   Cr(Fe6Ni7)2
_chemical_formula_sum   'Cr2 Fe24 Ni28'
_cell_volume   574.88149295
_cell_formula_units_Z   2
loop_
 _symmetry_equiv_pos_site_id
 _symmetry_equiv_pos_as_xyz
  1  'x, y, z'
loop_
 _atom_site_type_symbol
 _atom_site_label
 _atom_site_symmetry_multiplicity
 _atom_site_fract_x
 _atom_site_fract_y
 _atom_site_fract_z
 _atom_site_occupancy
  Ni  Ni0  1  1.00313100  1.00356321  1.00377237  1
  Cr  Cr1  1  0.16817224  0.17095861  0.16962581  1
  Ni  Ni2  1  1.00279103  1.00281611  0.33737642  1
  Ni  Ni3  1  1.00315727  0.33901902  1.00365566  1
  Ni  Ni4  1  0.17174481  0.50452409  0.17106225  1
  Fe  Fe5  1  1.00387878  0.33758265  0.33768242  1
  Ni  Ni6  1  0.00492588  0.66941817  1.00378199  1
  Fe  Fe7  1  0.17055053  0.83554812  0.17058512  1
  Ni  Ni8  1  0.00529539  0.67035018  0.33767483  1
  Ni  Ni9  1  0.33903841  1.00290426  1.00326667  1
  Fe  Fe10  1  0.50592444  0.16982111  0.17082336  1
  Ni  Ni11  1  0.33814829  1.00332624  0.33736744  1
  Fe  Fe12  1  0.33717405  0.33813015  1.00337101  1
  Ni  Ni13  1  0.50266354  0.50551631  0.17112061  1
  Fe  Fe14  1  0.33787960  0.33832928  0.33797769  1
  Fe  Fe15  1  0.33665920  0.67118516  1.00369120  1
  Ni  Ni16  1  0.50509689  0.83626437  0.17111697  1
  Ni  Ni17  1  0.33598155  0.66950232  0.33532206  1
  Ni  Ni18  1  0.66983447  0.00467273  0.00428950  1
  Ni  Ni19  1  0.83726907  0.16910487  0.17158520  1
  Ni  Ni20  1  0.67106321  0.00579980  0.33612686  1
  Fe  Fe21  1  0.67152310  0.33638437  1.00364865  1
  Fe  Fe22  1  0.83776043  0.50439916  0.17046305  1
  Fe  Fe23  1  0.67024031  0.33710612  0.33763508  1
  Fe  Fe24  1  0.67083811  0.67173264  1.00382659  1
  Ni  Ni25  1  0.83628205  0.83929215  0.17061140  1
  Fe  Fe26  1  0.67115772  0.67141851  0.33687852  1
  Fe  Fe27  1  0.17050410  0.17006865  0.50375143  1
  Ni  Ni28  1  1.00354796  0.00472583  0.67085465  1
  Fe  Fe29  1  0.17058153  0.17046666  0.83766208  1
  Fe  Fe30  1  0.17075873  0.50495183  0.50384668  1
  Ni  Ni31  1  1.00355028  0.33712099  0.67063673  1
  Ni  Ni32  1  0.17148574  0.50360972  0.83690546  1
  Fe  Fe33  1  0.16919412  0.83697848  0.50394614  1
  Fe  Fe34  1  1.00332296  0.67090138  0.67071853  1
  Ni  Ni35  1  0.17112229  0.83736237  0.83725437  1
  Fe  Fe36  1  0.50476778  0.17179945  0.50384737  1
  Fe  Fe37  1  0.33695566  0.00443745  0.67183682  1
  Fe  Fe38  1  0.50385353  0.17016546  0.83733089  1
  Ni  Ni39  1  0.50322565  0.50294203  0.50429166  1
  Fe  Fe40  1  0.33807339  0.33804842  0.67065100  1
  Ni  Ni41  1  0.50293880  0.50503068  0.83658810  1
  Cr  Cr42  1  0.50536703  0.83596073  0.50433268  1
  Ni  Ni43  1  0.33737001  0.66933125  0.67179853  1
  Ni  Ni44  1  0.50386498  0.83650454  0.83669021  1
  Fe  Fe45  1  0.83673117  0.17023333  0.50451748  1
  Ni  Ni46  1  0.67153906  0.00509150  0.67158952  1
  Ni  Ni47  1  0.83843832  0.17010227  0.83697712  1
  Fe  Fe48  1  0.83673009  0.50453759  0.50448109  1
  Ni  Ni49  1  0.67071097  0.33757924  0.67077673  1
  Fe  Fe50  1  0.83760351  0.50413352  0.83705840  1
  Ni  Ni51  1  0.83862792  0.83874376  0.50477069  1
  Ni  Ni52  1  0.66968990  0.66933150  0.67134634  1
  Fe  Fe53  1  0.83730150  0.83720994  0.83723891  1
" 