4925,Ni52Fe10Cr37_10,-224.687775839769, 156.272401062955,Ni52Fe10Cr37,"# generated using pymatgen
 data_Cr21Fe5Ni28
_symmetry_space_group_name_H-M   'P 1'
_cell_length_a   7.49241062
_cell_length_b   7.49241062
_cell_length_c   10.59586872
_cell_angle_alpha   90.00000000
_cell_angle_beta   90.00000000
_cell_angle_gamma   90.00000000
_symmetry_Int_Tables_number   1
_chemical_formula_structural   Cr21Fe5Ni28
_chemical_formula_sum   'Cr21 Fe5 Ni28'
_cell_volume   594.81198458
_cell_formula_units_Z   1
loop_
 _symmetry_equiv_pos_site_id
 _symmetry_equiv_pos_as_xyz
  1  'x, y, z'
loop_
 _atom_site_type_symbol
 _atom_site_label
 _atom_site_symmetry_multiplicity
 _atom_site_fract_x
 _atom_site_fract_y
 _atom_site_fract_z
 _atom_site_occupancy
  Cr  Cr0  1  -0.00009244  0.99540761  0.99682051  1
  Cr  Cr1  1  0.16639169  0.16550003  0.16319283  1
  Cr  Cr2  1  -0.00051293  0.99662972  0.33363609  1
  Ni  Ni3  1  0.00218502  0.33598480  0.99743387  1
  Ni  Ni4  1  0.16649032  0.49915304  0.16316790  1
  Cr  Cr5  1  0.00256771  0.33240448  0.33161391  1
  Ni  Ni6  1  0.99810329  0.66108244  0.99698335  1
  Cr  Cr7  1  0.16823708  0.83015158  0.16315040  1
  Cr  Cr8  1  0.99748866  0.66473813  0.32937247  1
  Ni  Ni9  1  0.33083178  0.00072273  0.99345479  1
  Cr  Cr10  1  0.49688838  0.16546708  0.16206896  1
  Ni  Ni11  1  0.33169157  0.00080633  0.33584091  1
  Ni  Ni12  1  0.33059775  0.33428460  0.99663825  1
  Ni  Ni13  1  0.49672220  0.49922681  0.16287592  1
  Ni  Ni14  1  0.33184442  0.33094820  0.33060293  1
  Ni  Ni15  1  0.33094072  0.66159295  0.99778209  1
  Cr  Cr16  1  0.49466111  0.83066099  0.16431318  1
  Fe  Fe17  1  0.33083296  0.66466202  0.33168041  1
  Cr  Cr18  1  0.66488257  0.99446598  0.99731030  1
  Cr  Cr19  1  0.83233005  0.16801791  0.16350786  1
  Cr  Cr20  1  0.66538840  0.99648217  0.33476776  1
  Fe  Fe21  1  0.66369676  0.33559437  0.99590230  1
  Ni  Ni22  1  0.83174798  0.49778677  0.15948606  1
  Cr  Cr23  1  0.66290225  0.33256219  0.33273726  1
  Ni  Ni24  1  0.66607605  0.66154142  0.99821359  1
  Fe  Fe25  1  0.83196725  0.82739687  0.16208046  1
  Cr  Cr26  1  0.66602410  0.66563189  0.33092410  1
  Ni  Ni27  1  0.16544112  0.16283941  0.49978778  1
  Ni  Ni28  1  0.00067856  0.99683054  0.66408448  1
  Fe  Fe29  1  0.16465455  0.16584222  0.83126875  1
  Cr  Cr30  1  0.16521547  0.50112459  0.49923027  1
  Ni  Ni31  1  -0.00000703  0.33102323  0.66605980  1
  Ni  Ni32  1  0.16448302  0.50091046  0.83259189  1
  Ni  Ni33  1  0.16701030  0.83366195  0.50071436  1
  Ni  Ni34  1  0.00045357  0.66708055  0.66859065  1
  Ni  Ni35  1  0.16538908  0.83038270  0.83075768  1
  Ni  Ni36  1  0.49631305  0.16388361  0.49933860  1
  Ni  Ni37  1  0.32789264  0.99812052  0.66476545  1
  Fe  Fe38  1  0.49659613  0.16623572  0.83178153  1
  Cr  Cr39  1  0.49644514  0.50009925  0.49897085  1
  Cr  Cr40  1  0.33094251  0.33143284  0.66757208  1
  Ni  Ni41  1  0.49747731  0.49791308  0.83378946  1
  Ni  Ni42  1  0.49294948  0.83377932  0.49800107  1
  Ni  Ni43  1  0.32852368  0.66649116  0.66557369  1
  Cr  Cr44  1  0.49290308  0.82952354  0.83217692  1
  Ni  Ni45  1  0.83302596  0.16413006  0.50149672  1
  Cr  Cr46  1  0.66317120  0.99780682  0.66233923  1
  Cr  Cr47  1  0.83314094  0.16812878  0.83006928  1
  Cr  Cr48  1  0.83350423  0.49587372  0.50523799  1
  Ni  Ni49  1  0.66400894  0.33101049  0.66696279  1
  Ni  Ni50  1  0.83314201  0.49772714  0.83165503  1
  Ni  Ni51  1  0.83447300  0.83266747  0.50083783  1
  Cr  Cr52  1  0.66472074  0.66566149  0.66682478  1
  Ni  Ni53  1  0.83516731  0.82951691  0.83256322  1
" 