2501,Ni52Fe35Cr11_7,-236.408231841626, 207.729239020093,Ni52Fe35Cr11,"# generated using pymatgen
 data_Cr7Fe19Ni28
_symmetry_space_group_name_H-M   'P 1'
_cell_length_a   7.42459992
_cell_length_b   7.42459992
_cell_length_c   10.49996991
_cell_angle_alpha   90.00000000
_cell_angle_beta   90.00000000
_cell_angle_gamma   90.00000000
_symmetry_Int_Tables_number   1
_chemical_formula_structural   Cr7Fe19Ni28
_chemical_formula_sum   'Cr7 Fe19 Ni28'
_cell_volume   578.80752323
_cell_formula_units_Z   1
loop_
 _symmetry_equiv_pos_site_id
 _symmetry_equiv_pos_as_xyz
  1  'x, y, z'
loop_
 _atom_site_type_symbol
 _atom_site_label
 _atom_site_symmetry_multiplicity
 _atom_site_fract_x
 _atom_site_fract_y
 _atom_site_fract_z
 _atom_site_occupancy
  Ni  Ni0  1  1.00255535  0.00319876  1.00268730  1
  Ni  Ni1  1  0.16816579  0.17080040  0.16838288  1
  Cr  Cr2  1  0.00357973  1.00201076  0.33615633  1
  Ni  Ni3  1  1.00130376  0.33556107  0.00541750  1
  Fe  Fe4  1  0.16981270  0.50318337  0.16984798  1
  Fe  Fe5  1  1.00197984  0.33974099  0.33534769  1
  Fe  Fe6  1  0.00457999  0.66936544  1.00232424  1
  Ni  Ni7  1  0.16969675  0.83625902  0.16883367  1
  Ni  Ni8  1  0.00475897  0.66841961  0.33671838  1
  Ni  Ni9  1  0.33504174  1.00091498  0.00292596  1
  Cr  Cr10  1  0.50202208  0.17073191  0.16871013  1
  Fe  Fe11  1  0.33694801  1.00067432  0.33693133  1
  Ni  Ni12  1  0.33652447  0.33808124  0.00340879  1
  Fe  Fe13  1  0.50216381  0.50292611  0.16958511  1
  Fe  Fe14  1  0.33632523  0.33914878  0.33634910  1
  Ni  Ni15  1  0.33511322  0.66958385  1.00241808  1
  Cr  Cr16  1  0.50185102  0.83420669  0.16953250  1
  Ni  Ni17  1  0.33519599  0.66931950  0.33725585  1
  Ni  Ni18  1  0.67097880  0.00460982  1.00132339  1
  Fe  Fe19  1  0.83749218  0.17130968  0.16760193  1
  Fe  Fe20  1  0.66867462  1.00243223  0.33838027  1
  Ni  Ni21  1  0.67074815  0.33563529  1.00183376  1
  Fe  Fe22  1  0.83659938  0.50114646  0.16997179  1
  Ni  Ni23  1  0.67006321  0.33672072  0.33711940  1
  Fe  Fe24  1  0.66848064  0.66806167  1.00096530  1
  Cr  Cr25  1  0.83618831  0.83484526  0.16786060  1
  Ni  Ni26  1  0.66862286  0.66729426  0.33778546  1
  Cr  Cr27  1  0.16967406  0.17067035  0.50476769  1
  Fe  Fe28  1  0.00349706  1.00126892  0.66999361  1
  Cr  Cr29  1  0.16870272  0.16919664  0.83577006  1
  Ni  Ni30  1  0.16933161  0.50396437  0.50319172  1
  Ni  Ni31  1  1.00123260  0.33807879  0.66855910  1
  Fe  Fe32  1  0.17012426  0.50453270  0.83544841  1
  Ni  Ni33  1  0.17047386  0.83416922  0.50356258  1
  Ni  Ni34  1  0.00416461  0.66940987  0.66894822  1
  Ni  Ni35  1  0.16999016  0.83573486  0.83617934  1
  Fe  Fe36  1  0.50261510  0.17063491  0.50220670  1
  Ni  Ni37  1  0.33607132  1.00068691  0.66915068  1
  Fe  Fe38  1  0.50344199  0.16994115  0.83741081  1
  Ni  Ni39  1  0.50406610  0.50384960  0.50234013  1
  Ni  Ni40  1  0.33753158  0.33791238  0.66934867  1
  Ni  Ni41  1  0.50427626  0.50376020  0.83652525  1
  Ni  Ni42  1  0.50282779  0.83417950  0.50120694  1
  Ni  Ni43  1  0.33500590  0.66997627  0.66890105  1
  Ni  Ni44  1  0.50225816  0.83381655  0.83764745  1
  Fe  Fe45  1  0.83442132  0.17168837  0.50349403  1
  Cr  Cr46  1  0.66871203  0.00350150  0.66904239  1
  Ni  Ni47  1  0.83625930  0.17102732  0.83794831  1
  Fe  Fe48  1  0.83620211  0.50388670  0.50289539  1
  Ni  Ni49  1  0.66981158  0.33700789  0.66962332  1
  Fe  Fe50  1  0.83588572  0.50269269  0.83571208  1
  Fe  Fe51  1  0.83635351  0.83299877  0.50241216  1
  Ni  Ni52  1  0.66941211  0.66795060  0.66921029  1
  Fe  Fe53  1  0.83655412  0.83564428  0.83719243  1
" 