1798,Ni52Fe11Cr35_15,-225.525620673328, 158.007220495727,Ni52Fe11Cr35,"# generated using pymatgen
 data_Cr10Fe3Ni14
_symmetry_space_group_name_H-M   'P 1'
_cell_length_a   7.49071502
_cell_length_b   7.49071502
_cell_length_c   10.59347078
_cell_angle_alpha   90.00000000
_cell_angle_beta   90.00000000
_cell_angle_gamma   90.00000000
_symmetry_Int_Tables_number   1
_chemical_formula_structural   Cr10Fe3Ni14
_chemical_formula_sum   'Cr20 Fe6 Ni28'
_cell_volume   594.40824274
_cell_formula_units_Z   2
loop_
 _symmetry_equiv_pos_site_id
 _symmetry_equiv_pos_as_xyz
  1  'x, y, z'
loop_
 _atom_site_type_symbol
 _atom_site_label
 _atom_site_symmetry_multiplicity
 _atom_site_fract_x
 _atom_site_fract_y
 _atom_site_fract_z
 _atom_site_occupancy
  Cr  Cr0  1  0.99656024  0.99558471  0.99793450  1
  Ni  Ni1  1  0.16311054  0.16835796  0.16434307  1
  Cr  Cr2  1  0.99537091  -0.00040866  0.33186142  1
  Ni  Ni3  1  -0.00005291  0.33362923  0.00046159  1
  Ni  Ni4  1  0.16131232  0.49726054  0.16520093  1
  Ni  Ni5  1  0.99793798  0.33404793  0.33235570  1
  Ni  Ni6  1  0.99778204  0.66363936  -0.00072394  1
  Ni  Ni7  1  0.16497138  0.82938745  0.16596513  1
  Ni  Ni8  1  0.99750835  0.66203425  0.32996106  1
  Cr  Cr9  1  0.33123550  0.99711645  0.00157945  1
  Fe  Fe10  1  0.49804195  0.16502243  0.16497789  1
  Cr  Cr11  1  0.33366350  0.99770275  0.33033346  1
  Ni  Ni12  1  0.32893141  0.33384971  0.00138235  1
  Ni  Ni13  1  0.50016101  0.50265142  0.16502582  1
  Cr  Cr14  1  0.33119247  0.33472241  0.33087838  1
  Cr  Cr15  1  0.32806585  0.66253643  -0.00024183  1
  Ni  Ni16  1  0.50274525  0.83078476  0.16640614  1
  Ni  Ni17  1  0.33272016  0.66414951  0.33006753  1
  Ni  Ni18  1  0.66796850  0.99670931  0.00100074  1
  Fe  Fe19  1  0.83344044  0.16593124  0.16617805  1
  Ni  Ni20  1  0.66545290  0.99680867  0.33213557  1
  Cr  Cr21  1  0.66582910  0.33173230  0.00245362  1
  Ni  Ni22  1  0.83369443  0.50031549  0.16524420  1
  Cr  Cr23  1  0.66730446  0.33198073  0.33183059  1
  Ni  Ni24  1  0.66810538  0.66745895  0.00108659  1
  Fe  Fe25  1  0.83116684  0.82718367  0.16570657  1
  Ni  Ni26  1  0.66520388  0.66584400  0.33219053  1
  Ni  Ni27  1  0.16429463  0.17105893  0.49961380  1
  Cr  Cr28  1  0.99576109  0.99818974  0.66557438  1
  Cr  Cr29  1  0.16505645  0.16975497  0.83060430  1
  Fe  Fe30  1  0.16211696  0.49682148  0.49688205  1
  Ni  Ni31  1  0.00010993  0.33258574  0.66244151  1
  Ni  Ni32  1  0.16209625  0.49530509  0.83289088  1
  Cr  Cr33  1  0.16514826  0.83112979  0.49516738  1
  Cr  Cr34  1  0.99668857  0.66496371  0.66640218  1
  Ni  Ni35  1  0.16104899  0.82941924  0.83353238  1
  Ni  Ni36  1  0.49772067  0.16393337  0.49784004  1
  Cr  Cr37  1  0.33096091  0.99803714  0.66310554  1
  Cr  Cr38  1  0.49742684  0.16580481  0.83392751  1
  Fe  Fe39  1  0.49977838  0.50052312  0.49699209  1
  Ni  Ni40  1  0.32946208  0.33382157  0.66202771  1
  Cr  Cr41  1  0.49829546  0.49790072  0.83177917  1
  Ni  Ni42  1  0.50305072  0.83016113  0.49632860  1
  Cr  Cr43  1  0.33181806  0.66244721  0.66466574  1
  Cr  Cr44  1  0.50243240  0.83104668  0.83210319  1
  Ni  Ni45  1  0.83334848  0.16747850  0.49769117  1
  Cr  Cr46  1  0.66883305  0.99757716  0.66342864  1
  Fe  Fe47  1  0.83303515  0.16540061  0.83260718  1
  Ni  Ni48  1  0.83309811  0.49970610  0.49712168  1
  Cr  Cr49  1  0.66653981  0.33305315  0.66124474  1
  Cr  Cr50  1  0.83345325  0.49951661  0.83341654  1
  Ni  Ni51  1  0.82669594  0.82801083  0.49556946  1
  Ni  Ni52  1  0.66650203  0.66546399  0.66167239  1
  Ni  Ni53  1  0.83049536  0.82954731  0.83446631  1
" 