1710,Ni52Fe46Cr1_8,-240.719057408682, 223.964462523167,Ni52Fe46Cr1,"# generated using pymatgen
 data_Cr(Fe6Ni7)2
_symmetry_space_group_name_H-M   'P 1'
_cell_length_a   7.41157335
_cell_length_b   7.41157335
_cell_length_c   10.48154755
_cell_angle_alpha   90.00000000
_cell_angle_beta   90.00000000
_cell_angle_gamma   90.00000000
_symmetry_Int_Tables_number   1
_chemical_formula_structural   Cr(Fe6Ni7)2
_chemical_formula_sum   'Cr2 Fe24 Ni28'
_cell_volume   575.76628575
_cell_formula_units_Z   2
loop_
 _symmetry_equiv_pos_site_id
 _symmetry_equiv_pos_as_xyz
  1  'x, y, z'
loop_
 _atom_site_type_symbol
 _atom_site_label
 _atom_site_symmetry_multiplicity
 _atom_site_fract_x
 _atom_site_fract_y
 _atom_site_fract_z
 _atom_site_occupancy
  Ni  Ni0  1  1.00370733  0.00446687  1.00329877  1
  Ni  Ni1  1  0.17083696  0.17105278  0.17039784  1
  Fe  Fe2  1  0.00468024  1.00363070  0.33686217  1
  Ni  Ni3  1  0.00420154  0.33621987  0.00447281  1
  Ni  Ni4  1  0.16914536  0.50257946  0.16995714  1
  Fe  Fe5  1  0.00605029  0.33763167  0.33668529  1
  Fe  Fe6  1  1.00335292  0.66939893  0.00423010  1
  Ni  Ni7  1  0.17248418  0.83759248  0.17016565  1
  Fe  Fe8  1  0.00419306  0.66996361  0.33757657  1
  Fe  Fe9  1  0.33732417  0.00385520  0.00395064  1
  Fe  Fe10  1  0.50187869  0.16992865  0.17023256  1
  Ni  Ni11  1  0.33458337  0.00498329  0.33619826  1
  Ni  Ni12  1  0.33609171  0.33776223  0.00398260  1
  Fe  Fe13  1  0.50199351  0.50503298  0.16923593  1
  Ni  Ni14  1  0.33478253  0.33629043  0.33797480  1
  Ni  Ni15  1  0.33729625  0.66982281  0.00402836  1
  Ni  Ni16  1  0.50390004  0.83756440  0.17063758  1
  Fe  Fe17  1  0.33622331  0.66973110  0.33551131  1
  Ni  Ni18  1  0.67165074  1.00326457  0.00427100  1
  Fe  Fe19  1  0.83879515  0.16948708  0.16813026  1
  Fe  Fe20  1  0.66994503  1.00286786  0.33658643  1
  Ni  Ni21  1  0.67093182  0.33763850  1.00316870  1
  Ni  Ni22  1  0.83793403  0.50404741  0.16885652  1
  Cr  Cr23  1  0.66986510  0.33854828  0.33768341  1
  Ni  Ni24  1  0.67010391  0.67032553  0.00385533  1
  Fe  Fe25  1  0.83751653  0.83671341  0.17068464  1
  Ni  Ni26  1  0.67208874  0.67086508  0.33670246  1
  Ni  Ni27  1  0.17155484  0.17115006  0.50330822  1
  Fe  Fe28  1  1.00357235  1.00341222  0.67062491  1
  Ni  Ni29  1  0.17017165  0.17054507  0.83752513  1
  Ni  Ni30  1  0.16904435  0.50258465  0.50342897  1
  Fe  Fe31  1  1.00319823  0.33674867  0.67090464  1
  Fe  Fe32  1  0.17031828  0.50303032  0.83765647  1
  Ni  Ni33  1  0.16971009  0.83749026  0.50387017  1
  Fe  Fe34  1  1.00310779  0.67106711  0.66941891  1
  Fe  Fe35  1  0.17016669  0.83771556  0.83713813  1
  Ni  Ni36  1  0.50220243  0.16998173  0.50507641  1
  Ni  Ni37  1  0.33567459  0.00491404  0.67140582  1
  Fe  Fe38  1  0.50448075  0.17025614  0.83655051  1
  Fe  Fe39  1  0.50272376  0.50311180  0.50430613  1
  Fe  Fe40  1  0.33760808  0.33616060  0.66973264  1
  Fe  Fe41  1  0.50431945  0.50357167  0.83769344  1
  Cr  Cr42  1  0.50413404  0.83834960  0.50296606  1
  Fe  Fe43  1  0.33691694  0.67087863  0.67161491  1
  Ni  Ni44  1  0.50389184  0.83726378  0.83726063  1
  Fe  Fe45  1  0.83836108  0.16917130  0.50524554  1
  Ni  Ni46  1  0.67115830  1.00374021  0.66992575  1
  Ni  Ni47  1  0.83749069  0.17192371  0.83715039  1
  Ni  Ni48  1  0.83822217  0.50483618  0.50476937  1
  Fe  Fe49  1  0.67042222  0.33662383  0.67057888  1
  Ni  Ni50  1  0.83670735  0.50296435  0.83760443  1
  Ni  Ni51  1  0.83705737  0.83573158  0.50371485  1
  Ni  Ni52  1  0.67195518  0.66972497  0.67066641  1
  Fe  Fe53  1  0.83636298  0.83787677  0.83661516  1
" 