3317,Ni52Fe48_13,-240.828089769591, 219.111347889,Ni52Fe48,"# generated using pymatgen
 data_Fe14Ni13
_symmetry_space_group_name_H-M   'P 1'
_cell_length_a   7.40456761
_cell_length_b   7.40456761
_cell_length_c   10.47163993
_cell_angle_alpha   90.00000000
_cell_angle_beta   90.00000000
_cell_angle_gamma   90.00000000
_symmetry_Int_Tables_number   1
_chemical_formula_structural   Fe14Ni13
_chemical_formula_sum   'Fe28 Ni26'
_cell_volume   574.13511015
_cell_formula_units_Z   2
loop_
 _symmetry_equiv_pos_site_id
 _symmetry_equiv_pos_as_xyz
  1  'x, y, z'
loop_
 _atom_site_type_symbol
 _atom_site_label
 _atom_site_symmetry_multiplicity
 _atom_site_fract_x
 _atom_site_fract_y
 _atom_site_fract_z
 _atom_site_occupancy
  Ni  Ni0  1  0.00578516  0.00589166  0.00462158  1
  Ni  Ni1  1  0.17218173  0.16990111  0.17086624  1
  Ni  Ni2  1  0.00492755  0.00488644  0.33788223  1
  Fe  Fe3  1  0.00422600  0.33858150  0.00427290  1
  Fe  Fe4  1  0.17177330  0.50300208  0.17054560  1
  Ni  Ni5  1  0.00450935  0.33540047  0.33748260  1
  Fe  Fe6  1  1.00327370  0.67153463  1.00400802  1
  Ni  Ni7  1  0.16993888  0.83686533  0.17118782  1
  Fe  Fe8  1  0.00425992  0.67054971  0.33736455  1
  Fe  Fe9  1  0.33849979  1.00419647  0.00467286  1
  Ni  Ni10  1  0.50509009  0.17198070  0.17186661  1
  Fe  Fe11  1  0.33655696  0.00518256  0.33787077  1
  Fe  Fe12  1  0.33815919  0.33699349  1.00372121  1
  Fe  Fe13  1  0.50260060  0.50409318  0.16989824  1
  Fe  Fe14  1  0.33628447  0.33574777  0.33748154  1
  Ni  Ni15  1  0.33825615  0.67133764  1.00419891  1
  Fe  Fe16  1  0.50276782  0.83831581  0.17180695  1
  Fe  Fe17  1  0.33554331  0.67124542  0.33776418  1
  Fe  Fe18  1  0.67046928  1.00378836  1.00390286  1
  Fe  Fe19  1  0.83897932  0.17008965  0.17081087  1
  Fe  Fe20  1  0.67150035  0.00527954  0.33804539  1
  Ni  Ni21  1  0.67086830  0.33791773  0.00508797  1
  Fe  Fe22  1  0.83805749  0.50319890  0.17045021  1
  Fe  Fe23  1  0.67186285  0.33657809  0.33736638  1
  Ni  Ni24  1  0.66824694  0.66943274  1.00398155  1
  Fe  Fe25  1  0.83791128  0.83943838  0.16951302  1
  Fe  Fe26  1  0.67274296  0.67113315  0.33764885  1
  Ni  Ni27  1  0.17108181  0.17020901  0.50403097  1
  Ni  Ni28  1  0.00543984  0.00631377  0.67008311  1
  Ni  Ni29  1  0.17130971  0.17046232  0.83771684  1
  Fe  Fe30  1  0.17177028  0.50294493  0.50461302  1
  Fe  Fe31  1  1.00363039  0.33818918  0.67098982  1
  Ni  Ni32  1  0.17129365  0.50553465  0.83825389  1
  Ni  Ni33  1  0.17080195  0.83653904  0.50376230  1
  Fe  Fe34  1  1.00365082  0.67126450  0.67138620  1
  Ni  Ni35  1  0.17031130  0.83722585  0.83776266  1
  Ni  Ni36  1  0.50473903  0.17119001  0.50359237  1
  Fe  Fe37  1  0.33842212  1.00391456  0.67004135  1
  Ni  Ni38  1  0.50520008  0.17221873  0.83723061  1
  Fe  Fe39  1  0.50326918  0.50361029  0.50511097  1
  Fe  Fe40  1  0.33776245  0.33716903  0.67165275  1
  Ni  Ni41  1  0.50462448  0.50307540  0.83773070  1
  Ni  Ni42  1  0.50375282  0.83692643  0.50307215  1
  Ni  Ni43  1  0.33811885  0.67092565  0.67096008  1
  Fe  Fe44  1  0.50404600  0.83668147  0.83672899  1
  Ni  Ni45  1  0.83709121  0.17252061  0.50361542  1
  Fe  Fe46  1  0.67107656  1.00414328  0.67052219  1
  Ni  Ni47  1  0.83663000  0.17139407  0.83844011  1
  Fe  Fe48  1  0.83739603  0.50390993  0.50451554  1
  Ni  Ni49  1  0.67102590  0.33792998  0.67036523  1
  Ni  Ni50  1  0.83629522  0.50478440  0.83770732  1
  Fe  Fe51  1  0.83753203  0.84037034  0.50542306  1
  Ni  Ni52  1  0.66845966  0.66909152  0.67091189  1
  Ni  Ni53  1  0.83782285  0.83672550  0.83728749  1
" 