5772,Ni52Fe46Cr1_18,-240.576165155082, 222.723050779801,Ni52Fe46Cr1,"# generated using pymatgen
 data_Cr(Fe6Ni7)2
_symmetry_space_group_name_H-M   'P 1'
_cell_length_a   7.40645051
_cell_length_b   7.40645051
_cell_length_c   10.47430275
_cell_angle_alpha   90.00000000
_cell_angle_beta   90.00000000
_cell_angle_gamma   90.00000000
_symmetry_Int_Tables_number   1
_chemical_formula_structural   Cr(Fe6Ni7)2
_chemical_formula_sum   'Cr2 Fe24 Ni28'
_cell_volume   574.57320985
_cell_formula_units_Z   2
loop_
 _symmetry_equiv_pos_site_id
 _symmetry_equiv_pos_as_xyz
  1  'x, y, z'
loop_
 _atom_site_type_symbol
 _atom_site_label
 _atom_site_symmetry_multiplicity
 _atom_site_fract_x
 _atom_site_fract_y
 _atom_site_fract_z
 _atom_site_occupancy
  Fe  Fe0  1  1.00313918  1.00368288  1.00406593  1
  Fe  Fe1  1  0.16970561  0.16952935  0.17094521  1
  Ni  Ni2  1  1.00211852  0.00442338  0.33710431  1
  Ni  Ni3  1  0.00445733  0.33590882  1.00383463  1
  Ni  Ni4  1  0.17040796  0.50402656  0.17176458  1
  Ni  Ni5  1  0.00479588  0.33708839  0.33762195  1
  Fe  Fe6  1  1.00286489  0.66911622  1.00383403  1
  Ni  Ni7  1  0.16960125  0.83651545  0.17265173  1
  Ni  Ni8  1  0.00461058  0.67076065  0.33639084  1
  Fe  Fe9  1  0.33813164  0.00549239  0.00439768  1
  Ni  Ni10  1  0.50496950  0.17148520  0.17166219  1
  Fe  Fe11  1  0.33598812  0.00436241  0.33692474  1
  Fe  Fe12  1  0.33823384  0.33679321  1.00382174  1
  Fe  Fe13  1  0.50548405  0.50461600  0.17114868  1
  Ni  Ni14  1  0.33655443  0.33768471  0.33446777  1
  Cr  Cr15  1  0.33802784  0.67059858  1.00342093  1
  Ni  Ni16  1  0.50443205  0.83893832  0.17288384  1
  Ni  Ni17  1  0.33758463  0.67068826  0.33740522  1
  Fe  Fe18  1  0.67061761  0.00543579  0.00486124  1
  Ni  Ni19  1  0.83672243  0.17042995  0.17174990  1
  Ni  Ni20  1  0.67109836  1.00348505  0.33699316  1
  Ni  Ni21  1  0.67166957  0.33715995  1.00372980  1
  Fe  Fe22  1  0.83800665  0.50416396  0.16954903  1
  Fe  Fe23  1  0.67230932  0.33660355  0.33598504  1
  Ni  Ni24  1  0.67065548  0.67162688  0.00463594  1
  Ni  Ni25  1  0.83813582  0.83827976  0.17002120  1
  Fe  Fe26  1  0.67308701  0.67186671  0.33693434  1
  Fe  Fe27  1  0.17055070  0.17119211  0.50403184  1
  Ni  Ni28  1  1.00279908  0.00471028  0.67118856  1
  Fe  Fe29  1  0.16985640  0.17196603  0.83718633  1
  Fe  Fe30  1  0.16886884  0.50402877  0.50355918  1
  Ni  Ni31  1  0.00572163  0.33697301  0.67030101  1
  Ni  Ni32  1  0.16999114  0.50498800  0.83553622  1
  Fe  Fe33  1  0.16959612  0.83708569  0.50395141  1
  Ni  Ni34  1  1.00332792  0.67075693  0.67154093  1
  Ni  Ni35  1  0.16880992  0.83795938  0.83608888  1
  Fe  Fe36  1  0.50395740  0.16877209  0.50416177  1
  Fe  Fe37  1  0.33656109  1.00407134  0.67149071  1
  Ni  Ni38  1  0.50523482  0.17127579  0.83651943  1
  Cr  Cr39  1  0.50320676  0.50220193  0.50426258  1
  Ni  Ni40  1  0.33636538  0.33714173  0.67305844  1
  Ni  Ni41  1  0.50493713  0.50237962  0.83684386  1
  Fe  Fe42  1  0.50558323  0.83866145  0.50342883  1
  Fe  Fe43  1  0.33627341  0.67166544  0.67155564  1
  Fe  Fe44  1  0.50521100  0.83747879  0.83750103  1
  Fe  Fe45  1  0.83737075  0.17010170  0.50417194  1
  Ni  Ni46  1  0.67052688  1.00300431  0.67164459  1
  Ni  Ni47  1  0.83674695  0.17033867  0.83640571  1
  Fe  Fe48  1  0.83942977  0.50552979  0.50526787  1
  Fe  Fe49  1  0.67272191  0.33687338  0.67231739  1
  Ni  Ni50  1  0.83749663  0.50328723  0.83671806  1
  Ni  Ni51  1  0.83900905  0.83837059  0.50441591  1
  Ni  Ni52  1  0.67032685  0.67274332  0.67184416  1
  Fe  Fe53  1  0.83701466  0.83658528  0.83710708  1
" 