5400,Ni52Fe48_14,-240.775223919461, 225.603305466908,Ni52Fe48,"# generated using pymatgen
 data_Fe14Ni13
_symmetry_space_group_name_H-M   'P 1'
_cell_length_a   7.39672714
_cell_length_b   7.39672714
_cell_length_c   10.46055184
_cell_angle_alpha   90.00000000
_cell_angle_beta   90.00000000
_cell_angle_gamma   90.00000000
_symmetry_Int_Tables_number   1
_chemical_formula_structural   Fe14Ni13
_chemical_formula_sum   'Fe28 Ni26'
_cell_volume   572.31323874
_cell_formula_units_Z   2
loop_
 _symmetry_equiv_pos_site_id
 _symmetry_equiv_pos_as_xyz
  1  'x, y, z'
loop_
 _atom_site_type_symbol
 _atom_site_label
 _atom_site_symmetry_multiplicity
 _atom_site_fract_x
 _atom_site_fract_y
 _atom_site_fract_z
 _atom_site_occupancy
  Ni  Ni0  1  1.00440970  1.00427529  1.00460757  1
  Ni  Ni1  1  0.17176637  0.17229532  0.17148234  1
  Fe  Fe2  1  1.00334240  1.00361832  0.33682712  1
  Fe  Fe3  1  1.00447779  0.33679236  1.00354148  1
  Fe  Fe4  1  0.17087562  0.50433050  0.17162805  1
  Fe  Fe5  1  1.00367153  0.33900979  0.33919491  1
  Fe  Fe6  1  1.00428047  0.67072794  0.00591966  1
  Ni  Ni7  1  0.17071421  0.83828429  0.17195762  1
  Ni  Ni8  1  0.00533307  0.67174350  0.33925820  1
  Fe  Fe9  1  0.33835359  0.00697845  0.00510931  1
  Ni  Ni10  1  0.50403208  0.17361186  0.17253681  1
  Fe  Fe11  1  0.33905737  1.00407274  0.33803013  1
  Ni  Ni12  1  0.33919606  0.33891712  1.00402670  1
  Fe  Fe13  1  0.50526193  0.50390685  0.17228087  1
  Fe  Fe14  1  0.33936008  0.33961143  0.33774494  1
  Fe  Fe15  1  0.33797691  0.67144570  0.00512595  1
  Fe  Fe16  1  0.50459097  0.84038793  0.17207085  1
  Ni  Ni17  1  0.33757030  0.67146559  0.33721139  1
  Fe  Fe18  1  0.67146043  0.00688076  0.00505318  1
  Ni  Ni19  1  0.83856544  0.17166319  0.17121541  1
  Ni  Ni20  1  0.67246715  0.00531945  0.33720881  1
  Ni  Ni21  1  0.67053994  0.33724065  1.00323380  1
  Fe  Fe22  1  0.83813883  0.50320057  0.17147765  1
  Ni  Ni23  1  0.67179955  0.33744276  0.33937074  1
  Fe  Fe24  1  0.67188566  0.67087174  1.00428503  1
  Ni  Ni25  1  0.83794390  0.83635651  0.17119767  1
  Ni  Ni26  1  0.67155793  0.67104299  0.33688860  1
  Ni  Ni27  1  0.17138858  0.17262865  0.50318748  1
  Fe  Fe28  1  0.00501737  1.00381391  0.67235273  1
  Ni  Ni29  1  0.17233655  0.17258030  0.83928018  1
  Fe  Fe30  1  0.17222459  0.50619247  0.50558357  1
  Ni  Ni31  1  0.00493639  0.33571643  0.67250365  1
  Fe  Fe32  1  0.17123195  0.50489853  0.83762806  1
  Fe  Fe33  1  0.17300370  0.83795031  0.50396682  1
  Fe  Fe34  1  1.00389675  0.67059164  0.67093925  1
  Fe  Fe35  1  0.17076882  0.83942699  0.83935211  1
  Fe  Fe36  1  0.50518071  0.17021499  0.50422784  1
  Fe  Fe37  1  0.33812300  1.00430874  0.67109031  1
  Ni  Ni38  1  0.50351198  0.17103311  0.83609096  1
  Ni  Ni39  1  0.50449481  0.50541361  0.50496588  1
  Fe  Fe40  1  0.33742748  0.33906989  0.67147683  1
  Fe  Fe41  1  0.50616992  0.50415313  0.83732672  1
  Ni  Ni42  1  0.50623007  0.83569576  0.50270067  1
  Ni  Ni43  1  0.33865857  0.67290973  0.67266902  1
  Ni  Ni44  1  0.50515177  0.83767713  0.83933921  1
  Fe  Fe45  1  0.83736356  0.17052502  0.50502885  1
  Fe  Fe46  1  0.67128529  1.00318522  0.67133064  1
  Ni  Ni47  1  0.83823240  0.17145107  0.83780090  1
  Fe  Fe48  1  0.83725761  0.50492174  0.50562233  1
  Fe  Fe49  1  0.67146628  0.33960783  0.67202356  1
  Ni  Ni50  1  0.83850431  0.50593985  0.83761838  1
  Ni  Ni51  1  0.83733933  0.83657149  0.50454515  1
  Ni  Ni52  1  0.66970933  0.67219152  0.67138475  1
  Ni  Ni53  1  0.83714781  0.83652554  0.83816756  1
" 