7567,Ni52Fe11Cr35_14,-225.712312907201, 163.602724982317,Ni52Fe11Cr35,"# generated using pymatgen
 data_Cr10Fe3Ni14
_symmetry_space_group_name_H-M   'P 1'
_cell_length_a   7.48471226
_cell_length_b   7.48471226
_cell_length_c   10.58498159
_cell_angle_alpha   90.00000000
_cell_angle_beta   90.00000000
_cell_angle_gamma   90.00000000
_symmetry_Int_Tables_number   1
_chemical_formula_structural   Cr10Fe3Ni14
_chemical_formula_sum   'Cr20 Fe6 Ni28'
_cell_volume   592.98038133
_cell_formula_units_Z   2
loop_
 _symmetry_equiv_pos_site_id
 _symmetry_equiv_pos_as_xyz
  1  'x, y, z'
loop_
 _atom_site_type_symbol
 _atom_site_label
 _atom_site_symmetry_multiplicity
 _atom_site_fract_x
 _atom_site_fract_y
 _atom_site_fract_z
 _atom_site_occupancy
  Cr  Cr0  1  0.00021809  0.99838322  0.00266893  1
  Ni  Ni1  1  0.16875822  0.16448854  0.16605178  1
  Cr  Cr2  1  0.00137638  0.99811818  0.32776963  1
  Fe  Fe3  1  0.00085729  0.33016174  -0.00092839  1
  Cr  Cr4  1  0.16940418  0.49887062  0.16296415  1
  Cr  Cr5  1  0.00020527  0.33008115  0.33290671  1
  Ni  Ni6  1  0.00049468  0.66643177  -0.00070553  1
  Ni  Ni7  1  0.16865969  0.83265087  0.16320307  1
  Cr  Cr8  1  0.99870183  0.66892743  0.33047740  1
  Ni  Ni9  1  0.33279507  0.00088101  -0.00034890  1
  Ni  Ni10  1  0.49886430  0.16566927  0.16518356  1
  Ni  Ni11  1  0.33172806  0.00003236  0.33094720  1
  Ni  Ni12  1  0.33463476  0.33153665  -0.00111498  1
  Ni  Ni13  1  0.49882064  0.49702839  0.16461848  1
  Ni  Ni14  1  0.33546552  0.33028151  0.33055426  1
  Ni  Ni15  1  0.33205370  0.66394179  0.99753642  1
  Cr  Cr16  1  0.49685483  0.83344138  0.16456512  1
  Fe  Fe17  1  0.33274470  0.66684005  0.33109121  1
  Ni  Ni18  1  0.66475092  0.00102916  -0.00021697  1
  Ni  Ni19  1  0.82853794  0.16525237  0.16528264  1
  Ni  Ni20  1  0.66299349  0.00028210  0.32960232  1
  Fe  Fe21  1  0.66249283  0.33034780  -0.00084249  1
  Cr  Cr22  1  0.83160794  0.49709238  0.16331480  1
  Ni  Ni23  1  0.66126473  0.33269077  0.33100158  1
  Ni  Ni24  1  0.66428496  0.66454198  -0.00007826  1
  Fe  Fe25  1  0.82996495  0.83351188  0.16271685  1
  Cr  Cr26  1  0.66387797  0.66510714  0.33274165  1
  Ni  Ni27  1  0.16843561  0.16108280  0.49793544  1
  Ni  Ni28  1  0.00174704  0.99599461  0.66559370  1
  Cr  Cr29  1  0.16689867  0.16355540  0.83208280  1
  Cr  Cr30  1  0.16669493  0.49981724  0.49788277  1
  Cr  Cr31  1  0.00046903  0.33184920  0.66524196  1
  Ni  Ni32  1  0.16753910  0.50206786  0.83481698  1
  Ni  Ni33  1  0.16925107  0.83303884  0.50063244  1
  Ni  Ni34  1  0.00084482  0.66751663  0.66598129  1
  Ni  Ni35  1  0.16661328  0.82956518  0.83178254  1
  Cr  Cr36  1  0.49799030  0.16340612  0.49670805  1
  Ni  Ni37  1  0.33110142  0.99762784  0.66531854  1
  Ni  Ni38  1  0.50018261  0.16484193  0.83493979  1
  Ni  Ni39  1  0.49690391  0.49992680  0.49495202  1
  Cr  Cr40  1  0.33432512  0.33270988  0.66766564  1
  Ni  Ni41  1  0.49667141  0.49898492  0.83718143  1
  Fe  Fe42  1  0.49577089  0.83309034  0.49828948  1
  Fe  Fe43  1  0.33055381  0.66647653  0.66690310  1
  Cr  Cr44  1  0.49551641  0.83485987  0.83255613  1
  Cr  Cr45  1  0.83094114  0.16565385  0.50013216  1
  Ni  Ni46  1  0.66311662  0.99877828  0.66730758  1
  Ni  Ni47  1  0.82929896  0.16415313  0.83204485  1
  Ni  Ni48  1  0.82986240  0.50002487  0.49865720  1
  Cr  Cr49  1  0.66208702  0.33353208  0.66761625  1
  Cr  Cr50  1  0.83475706  0.49810698  0.83512643  1
  Cr  Cr51  1  0.83186785  0.83453835  0.50082336  1
  Cr  Cr52  1  0.66206283  0.66372708  0.66391501  1
  Cr  Cr53  1  0.83236111  0.83372926  0.83322821  1
" 