7510,Ni52Fe11Cr35_17,-225.45590235702, 156.390958379661,Ni52Fe11Cr35,"# generated using pymatgen
 data_Cr10Fe3Ni14
_symmetry_space_group_name_H-M   'P 1'
_cell_length_a   7.48599120
_cell_length_b   7.48599120
_cell_length_c   10.58679028
_cell_angle_alpha   90.00000000
_cell_angle_beta   90.00000000
_cell_angle_gamma   90.00000000
_symmetry_Int_Tables_number   1
_chemical_formula_structural   Cr10Fe3Ni14
_chemical_formula_sum   'Cr20 Fe6 Ni28'
_cell_volume   593.28440758
_cell_formula_units_Z   2
loop_
 _symmetry_equiv_pos_site_id
 _symmetry_equiv_pos_as_xyz
  1  'x, y, z'
loop_
 _atom_site_type_symbol
 _atom_site_label
 _atom_site_symmetry_multiplicity
 _atom_site_fract_x
 _atom_site_fract_y
 _atom_site_fract_z
 _atom_site_occupancy
  Ni  Ni0  1  0.99742349  0.99695776  0.99782782  1
  Cr  Cr1  1  0.16601607  0.16461490  0.16238384  1
  Cr  Cr2  1  0.99672536  0.00045471  0.33105214  1
  Cr  Cr3  1  0.99544957  0.33044095  -0.00120871  1
  Cr  Cr4  1  0.16348368  0.50076909  0.16645933  1
  Ni  Ni5  1  0.99587816  0.33199623  0.33388179  1
  Ni  Ni6  1  0.99553650  0.66706282  0.99840225  1
  Cr  Cr7  1  0.16238086  0.83067089  0.16240099  1
  Fe  Fe8  1  0.99557421  0.66527838  0.33277585  1
  Ni  Ni9  1  0.33252159  0.99745187  0.99693577  1
  Ni  Ni10  1  0.50168003  0.16446780  0.16319230  1
  Cr  Cr11  1  0.33301787  0.99832691  0.33442627  1
  Fe  Fe12  1  0.33314998  0.33104524  0.99760960  1
  Cr  Cr13  1  0.49950793  0.49874645  0.16277609  1
  Cr  Cr14  1  0.32968236  0.32939740  0.33366791  1
  Ni  Ni15  1  0.33373082  0.66760968  0.99627207  1
  Cr  Cr16  1  0.50109163  0.83307474  0.16496964  1
  Cr  Cr17  1  0.33325356  0.66859353  0.33499273  1
  Ni  Ni18  1  0.66660329  0.99652960  0.00082962  1
  Ni  Ni19  1  0.82939583  0.16401022  0.16439274  1
  Fe  Fe20  1  0.66672046  0.99830618  0.33265439  1
  Fe  Fe21  1  0.66630339  0.33201237  -0.00099276  1
  Ni  Ni22  1  0.83175412  0.50077498  0.16528176  1
  Cr  Cr23  1  0.66919586  0.33092551  0.33155511  1
  Ni  Ni24  1  0.66668493  0.66589695  0.99733924  1
  Ni  Ni25  1  0.83084037  0.83133385  0.16431837  1
  Ni  Ni26  1  0.66924400  0.66741913  0.33256371  1
  Ni  Ni27  1  0.16395273  0.16381760  0.50034876  1
  Ni  Ni28  1  -0.00034010  0.99719188  0.66576096  1
  Ni  Ni29  1  0.16668023  0.16046365  0.83254379  1
  Ni  Ni30  1  0.16056610  0.50032698  0.49734228  1
  Cr  Cr31  1  0.99771219  0.33107162  0.66358903  1
  Cr  Cr32  1  0.16498918  0.50083118  0.83306563  1
  Ni  Ni33  1  0.16275734  0.83224010  0.50075778  1
  Fe  Fe34  1  0.99787385  0.66873345  0.66572877  1
  Ni  Ni35  1  0.16369259  0.83437194  0.83340656  1
  Ni  Ni36  1  0.50018871  0.16081329  0.49955678  1
  Ni  Ni37  1  0.33023795  0.99695137  0.66429733  1
  Cr  Cr38  1  0.49920213  0.16396525  0.83205733  1
  Cr  Cr39  1  0.50019765  0.49907509  0.49838319  1
  Cr  Cr40  1  0.33069239  0.33056696  0.66408095  1
  Ni  Ni41  1  0.50014830  0.49975097  0.83629888  1
  Ni  Ni42  1  0.50104461  0.83573331  0.49946898  1
  Cr  Cr43  1  0.33277572  0.66937873  0.66553607  1
  Fe  Fe44  1  0.49965442  0.83350453  0.83328230  1
  Ni  Ni45  1  0.83199796  0.16310323  0.49899579  1
  Ni  Ni46  1  0.66650842  0.99604799  0.66221891  1
  Cr  Cr47  1  0.83184675  0.16069968  0.83154153  1
  Ni  Ni48  1  0.83559764  0.50105770  0.49748561  1
  Cr  Cr49  1  0.66788822  0.33357251  0.66548716  1
  Ni  Ni50  1  0.83041232  0.50258810  0.83411646  1
  Ni  Ni51  1  0.83239465  0.83238872  0.49850147  1
  Cr  Cr52  1  0.66669004  0.66711374  0.66770147  1
  Ni  Ni53  1  0.83346754  0.83214773  0.83336182  1
" 