8261,Ni52Fe10Cr37_13,-224.460282754935, 155.3263437965,Ni52Fe10Cr37,"# generated using pymatgen
 data_Cr21Fe5Ni28
_symmetry_space_group_name_H-M   'P 1'
_cell_length_a   7.48753508
_cell_length_b   7.48753508
_cell_length_c   10.58897366
_cell_angle_alpha   90.00000000
_cell_angle_beta   90.00000000
_cell_angle_gamma   90.00000000
_symmetry_Int_Tables_number   1
_chemical_formula_structural   Cr21Fe5Ni28
_chemical_formula_sum   'Cr21 Fe5 Ni28'
_cell_volume   593.65155380
_cell_formula_units_Z   1
loop_
 _symmetry_equiv_pos_site_id
 _symmetry_equiv_pos_as_xyz
  1  'x, y, z'
loop_
 _atom_site_type_symbol
 _atom_site_label
 _atom_site_symmetry_multiplicity
 _atom_site_fract_x
 _atom_site_fract_y
 _atom_site_fract_z
 _atom_site_occupancy
  Ni  Ni0  1  0.99800057  -0.00102403  0.99834473  1
  Cr  Cr1  1  0.16454651  0.16287619  0.16498644  1
  Ni  Ni2  1  -0.00054175  0.99642054  0.33114952  1
  Ni  Ni3  1  0.99554560  0.32773634  0.99762485  1
  Cr  Cr4  1  0.16340606  0.50041099  0.16384219  1
  Cr  Cr5  1  0.99711471  0.32909625  0.33241234  1
  Ni  Ni6  1  0.99774160  0.66981501  -0.00009388  1
  Fe  Fe7  1  0.16318326  0.83411358  0.16472378  1
  Ni  Ni8  1  -0.00104810  0.67061481  0.33206846  1
  Ni  Ni9  1  0.33055991  0.99572204  0.99732061  1
  Cr  Cr10  1  0.49980593  0.16207486  0.16455921  1
  Fe  Fe11  1  0.33147561  0.99709307  0.33298473  1
  Cr  Cr12  1  0.33139917  0.33147273  -0.00114304  1
  Ni  Ni13  1  0.50076820  0.50034277  0.16380055  1
  Cr  Cr14  1  0.33369706  0.33242356  0.33341951  1
  Cr  Cr15  1  0.33290136  0.66879980  -0.00028020  1
  Ni  Ni16  1  0.50052888  0.83345191  0.16408896  1
  Cr  Cr17  1  0.33258693  0.66717116  0.33015255  1
  Ni  Ni18  1  0.66703142  0.99744919  0.00026963  1
  Ni  Ni19  1  0.83199749  0.16078055  0.16341541  1
  Fe  Fe20  1  0.66616389  0.99715258  0.33114293  1
  Ni  Ni21  1  0.66829471  0.33058777  -0.00006633  1
  Cr  Cr22  1  0.83323344  0.50056456  0.16299528  1
  Cr  Cr23  1  0.66501091  0.33094225  0.33260268  1
  Ni  Ni24  1  0.66471299  0.66793994  0.00002917  1
  Ni  Ni25  1  0.83169681  0.83394509  0.16526766  1
  Cr  Cr26  1  0.66445623  0.66577347  0.33307440  1
  Ni  Ni27  1  0.16801774  0.16203352  0.50037873  1
  Ni  Ni28  1  0.00230304  -0.00027992  0.66607226  1
  Ni  Ni29  1  0.16378739  0.16287009  0.83050530  1
  Cr  Cr30  1  0.16114975  0.49912019  0.49971756  1
  Ni  Ni31  1  -0.00135397  0.32842737  0.66513556  1
  Cr  Cr32  1  0.16176100  0.49795072  0.83204194  1
  Ni  Ni33  1  0.16621373  0.83500027  0.49770729  1
  Ni  Ni34  1  -0.00087019  0.66794353  0.66363919  1
  Ni  Ni35  1  0.16451570  0.83519976  0.83257877  1
  Ni  Ni36  1  0.49573928  0.16284488  0.49892153  1
  Fe  Fe37  1  0.33027377  -0.00103079  0.66560667  1
  Cr  Cr38  1  0.49855521  0.16323874  0.83293156  1
  Fe  Fe39  1  0.49920761  0.49828494  0.50086310  1
  Ni  Ni40  1  0.33185303  0.32938323  0.66311752  1
  Cr  Cr41  1  0.50174649  0.49907784  0.83170925  1
  Ni  Ni42  1  0.49700202  0.83530192  0.49887667  1
  Cr  Cr43  1  0.33272917  0.66875913  0.66601918  1
  Ni  Ni44  1  0.49839481  0.83353234  0.83336709  1
  Cr  Cr45  1  0.83238128  0.16424365  0.49891223  1
  Cr  Cr46  1  0.66614231  0.99826885  0.66590633  1
  Ni  Ni47  1  0.83379943  0.16569125  0.83371429  1
  Ni  Ni48  1  0.83187965  0.49977116  0.50167612  1
  Ni  Ni49  1  0.66532124  0.33208147  0.66301855  1
  Cr  Cr50  1  0.83240212  0.49892039  0.83095875  1
  Cr  Cr51  1  0.83348317  0.82969903  0.49889568  1
  Ni  Ni52  1  0.66395934  0.66468135  0.66314836  1
  Cr  Cr53  1  0.83145880  0.83136042  0.83201068  1
" 