4078,Ni52Fe48_10,-240.929841067448, 224.448491029221,Ni52Fe48,"# generated using pymatgen
 data_Fe14Ni13
_symmetry_space_group_name_H-M   'P 1'
_cell_length_a   7.39889390
_cell_length_b   7.39889390
_cell_length_c   10.46361611
_cell_angle_alpha   90.00000000
_cell_angle_beta   90.00000000
_cell_angle_gamma   90.00000000
_symmetry_Int_Tables_number   1
_chemical_formula_structural   Fe14Ni13
_chemical_formula_sum   'Fe28 Ni26'
_cell_volume   572.81633909
_cell_formula_units_Z   2
loop_
 _symmetry_equiv_pos_site_id
 _symmetry_equiv_pos_as_xyz
  1  'x, y, z'
loop_
 _atom_site_type_symbol
 _atom_site_label
 _atom_site_symmetry_multiplicity
 _atom_site_fract_x
 _atom_site_fract_y
 _atom_site_fract_z
 _atom_site_occupancy
  Ni  Ni0  1  0.00564447  0.00524888  1.00409451  1
  Ni  Ni1  1  0.17049776  0.17101088  0.17164418  1
  Fe  Fe2  1  0.00473658  0.00536495  0.33745660  1
  Fe  Fe3  1  0.00528079  0.33764108  0.00501760  1
  Fe  Fe4  1  0.17133308  0.50425233  0.17209633  1
  Ni  Ni5  1  0.00469273  0.33653165  0.33828890  1
  Ni  Ni6  1  0.00484135  0.67194546  0.00488361  1
  Fe  Fe7  1  0.17140589  0.83829452  0.17042993  1
  Fe  Fe8  1  0.00501664  0.66984778  0.33827546  1
  Ni  Ni9  1  0.33663595  0.00490923  1.00433959  1
  Fe  Fe10  1  0.50391188  0.17140465  0.17194426  1
  Fe  Fe11  1  0.33840766  0.00514307  0.33766365  1
  Fe  Fe12  1  0.33726432  0.33812892  0.00493916  1
  Fe  Fe13  1  0.50428714  0.50455290  0.17153631  1
  Ni  Ni14  1  0.33758058  0.33767290  0.33838593  1
  Ni  Ni15  1  0.33778760  0.67194386  1.00443688  1
  Fe  Fe16  1  0.50408000  0.83785925  0.17145581  1
  Ni  Ni17  1  0.33837458  0.67131127  0.33793689  1
  Fe  Fe18  1  0.67155166  1.00338756  1.00408107  1
  Fe  Fe19  1  0.83862973  0.17147611  0.17154942  1
  Fe  Fe20  1  0.67067349  0.00534864  0.33902443  1
  Fe  Fe21  1  0.67127021  0.33842516  1.00412033  1
  Fe  Fe22  1  0.83819631  0.50441793  0.17140641  1
  Ni  Ni23  1  0.67154517  0.33767081  0.33843214  1
  Ni  Ni24  1  0.67118948  0.67079646  1.00364806  1
  Fe  Fe25  1  0.83833054  0.83792059  0.17071015  1
  Ni  Ni26  1  0.67040436  0.67096911  0.33917175  1
  Fe  Fe27  1  0.17220777  0.17168100  0.50389937  1
  Fe  Fe28  1  1.00378410  1.00393235  0.67208947  1
  Ni  Ni29  1  0.16961259  0.16994021  0.83764465  1
  Ni  Ni30  1  0.17195707  0.50599556  0.50442310  1
  Fe  Fe31  1  1.00357473  0.33832745  0.67087438  1
  Fe  Fe32  1  0.17114885  0.50488990  0.83747419  1
  Ni  Ni33  1  0.17160580  0.83662385  0.50363060  1
  Ni  Ni34  1  0.00543231  0.67153489  0.67099532  1
  Ni  Ni35  1  0.17109985  0.83811108  0.83918348  1
  Ni  Ni36  1  0.50655079  0.17189230  0.50442633  1
  Fe  Fe37  1  0.33860817  1.00344111  0.67160378  1
  Fe  Fe38  1  0.50434013  0.17109114  0.83734258  1
  Ni  Ni39  1  0.50460076  0.50519982  0.50363373  1
  Fe  Fe40  1  0.33910283  0.33910431  0.67074524  1
  Ni  Ni41  1  0.50531246  0.50575812  0.83828858  1
  Ni  Ni42  1  0.50425529  0.83672552  0.50462429  1
  Ni  Ni43  1  0.33738763  0.67153124  0.67144135  1
  Fe  Fe44  1  0.50418744  0.83812243  0.83769736  1
  Ni  Ni45  1  0.83716255  0.17154140  0.50363416  1
  Ni  Ni46  1  0.67135810  0.00576686  0.67153871  1
  Ni  Ni47  1  0.83854198  0.17108783  0.83943047  1
  Fe  Fe48  1  0.83720754  0.50465390  0.50445491  1
  Ni  Ni49  1  0.67135496  0.33687401  0.67060050  1
  Fe  Fe50  1  0.83825557  0.50473441  0.83795556  1
  Fe  Fe51  1  0.83706124  0.83755152  0.50494225  1
  Ni  Ni52  1  0.67099700  0.67117764  0.67099640  1
  Fe  Fe53  1  0.83842865  0.83794030  0.83816597  1
" 