2093,Ni52Fe48_19,-240.998180835617, 221.920827977887,Ni52Fe48,"# generated using pymatgen
 data_Fe14Ni13
_symmetry_space_group_name_H-M   'P 1'
_cell_length_a   7.39903475
_cell_length_b   7.39903475
_cell_length_c   10.46381530
_cell_angle_alpha   90.00000000
_cell_angle_beta   90.00000000
_cell_angle_gamma   90.00000000
_symmetry_Int_Tables_number   1
_chemical_formula_structural   Fe14Ni13
_chemical_formula_sum   'Fe28 Ni26'
_cell_volume   572.84905332
_cell_formula_units_Z   2
loop_
 _symmetry_equiv_pos_site_id
 _symmetry_equiv_pos_as_xyz
  1  'x, y, z'
loop_
 _atom_site_type_symbol
 _atom_site_label
 _atom_site_symmetry_multiplicity
 _atom_site_fract_x
 _atom_site_fract_y
 _atom_site_fract_z
 _atom_site_occupancy
  Ni  Ni0  1  0.00461759  1.00324738  0.00605039  1
  Fe  Fe1  1  0.17152442  0.16903382  0.17207104  1
  Fe  Fe2  1  0.00492604  1.00412841  0.33751616  1
  Fe  Fe3  1  1.00362943  0.33783916  1.00420480  1
  Fe  Fe4  1  0.17086752  0.50573113  0.17080207  1
  Fe  Fe5  1  0.00498894  0.33771335  0.33834460  1
  Ni  Ni6  1  1.00422001  0.67220567  0.00477708  1
  Ni  Ni7  1  0.17155335  0.83747305  0.17198453  1
  Ni  Ni8  1  1.00386484  0.67136546  0.33754172  1
  Fe  Fe9  1  0.33768945  1.00435624  0.00583940  1
  Ni  Ni10  1  0.50450784  0.17110742  0.17145926  1
  Ni  Ni11  1  0.33845985  0.00551624  0.33748815  1
  Fe  Fe12  1  0.33755455  0.33833823  1.00381303  1
  Fe  Fe13  1  0.50538179  0.50464265  0.17038822  1
  Fe  Fe14  1  0.33721243  0.33751926  0.33847277  1
  Fe  Fe15  1  0.33744541  0.67109199  1.00422489  1
  Ni  Ni16  1  0.50397964  0.83841199  0.17082224  1
  Fe  Fe17  1  0.33777451  0.67238241  0.33788574  1
  Fe  Fe18  1  0.67285957  0.00470913  0.00479653  1
  Ni  Ni19  1  0.83772899  0.17111133  0.17209763  1
  Fe  Fe20  1  0.67115172  1.00356663  0.33781634  1
  Ni  Ni21  1  0.67030616  0.33792082  0.00477549  1
  Fe  Fe22  1  0.83753499  0.50529947  0.17136857  1
  Fe  Fe23  1  0.67158837  0.33777899  0.33679457  1
  Fe  Fe24  1  0.67235743  0.67148363  1.00389618  1
  Ni  Ni25  1  0.83825732  0.83840929  0.17146343  1
  Fe  Fe26  1  0.67134890  0.67244484  0.33888664  1
  Ni  Ni27  1  0.17209871  0.17178402  0.50459778  1
  Ni  Ni28  1  1.00417157  1.00369402  0.67030810  1
  Fe  Fe29  1  0.17032075  0.17188783  0.83672724  1
  Fe  Fe30  1  0.17069272  0.50551781  0.50536314  1
  Fe  Fe31  1  0.00510130  0.33799619  0.67123879  1
  Ni  Ni32  1  0.17210817  0.50419629  0.83691714  1
  Fe  Fe33  1  0.17071538  0.83795633  0.50426949  1
  Ni  Ni34  1  1.00375409  0.67154104  0.67147270  1
  Fe  Fe35  1  0.16966701  0.83681746  0.83833786  1
  Fe  Fe36  1  0.50455770  0.17038825  0.50426987  1
  Ni  Ni37  1  0.33811998  0.00584977  0.67170438  1
  Fe  Fe38  1  0.50562264  0.17263422  0.83817039  1
  Fe  Fe39  1  0.50492845  0.50514032  0.50577730  1
  Ni  Ni40  1  0.33893783  0.33773208  0.67106063  1
  Ni  Ni41  1  0.50334967  0.50460931  0.83720989  1
  Ni  Ni42  1  0.50469674  0.83793287  0.50494802  1
  Ni  Ni43  1  0.33771856  0.67020766  0.67054312  1
  Fe  Fe44  1  0.50553485  0.83681708  0.83678985  1
  Fe  Fe45  1  0.83786379  0.17040896  0.50490248  1
  Ni  Ni46  1  0.67149537  0.00491003  0.67135347  1
  Ni  Ni47  1  0.83833919  0.17079709  0.83669083  1
  Ni  Ni48  1  0.83833244  0.50541367  0.50569982  1
  Fe  Fe49  1  0.67117665  0.33841189  0.67237610  1
  Ni  Ni50  1  0.83832937  0.50460545  0.83796259  1
  Ni  Ni51  1  0.83698473  0.83699586  0.50459868  1
  Ni  Ni52  1  0.67231249  0.67072851  0.67158834  1
  Ni  Ni53  1  0.83792618  0.83838536  0.83772789  1
" 