7149,Ni52Fe48_11,-240.667330169468, 225.168260009391,Ni52Fe48,"# generated using pymatgen
 data_Fe14Ni13
_symmetry_space_group_name_H-M   'P 1'
_cell_length_a   7.39710455
_cell_length_b   7.39710455
_cell_length_c   10.46108558
_cell_angle_alpha   90.00000000
_cell_angle_beta   90.00000000
_cell_angle_gamma   90.00000000
_symmetry_Int_Tables_number   1
_chemical_formula_structural   Fe14Ni13
_chemical_formula_sum   'Fe28 Ni26'
_cell_volume   572.40084960
_cell_formula_units_Z   2
loop_
 _symmetry_equiv_pos_site_id
 _symmetry_equiv_pos_as_xyz
  1  'x, y, z'
loop_
 _atom_site_type_symbol
 _atom_site_label
 _atom_site_symmetry_multiplicity
 _atom_site_fract_x
 _atom_site_fract_y
 _atom_site_fract_z
 _atom_site_occupancy
  Fe  Fe0  1  0.00620902  0.00564189  1.00378483  1
  Ni  Ni1  1  0.17221158  0.17123531  0.17028173  1
  Fe  Fe2  1  0.00510885  0.00627495  0.33838951  1
  Ni  Ni3  1  1.00373104  0.33955151  1.00442478  1
  Ni  Ni4  1  0.17354801  0.50388146  0.17085559  1
  Ni  Ni5  1  1.00348593  0.33876640  0.33838671  1
  Ni  Ni6  1  0.00488955  0.67141786  1.00388688  1
  Ni  Ni7  1  0.17024734  0.83896739  0.17150041  1
  Fe  Fe8  1  0.00478927  0.67108353  0.33685139  1
  Ni  Ni9  1  0.33860671  1.00357016  1.00316994  1
  Fe  Fe10  1  0.50280967  0.17096038  0.17219740  1
  Ni  Ni11  1  0.33815013  1.00279674  0.34003146  1
  Ni  Ni12  1  0.33853044  0.33781827  1.00409239  1
  Ni  Ni13  1  0.50453026  0.50289919  0.17049596  1
  Ni  Ni14  1  0.33853506  0.33680916  0.33834725  1
  Ni  Ni15  1  0.33706083  0.67264957  0.00576058  1
  Fe  Fe16  1  0.50251639  0.83788322  0.17140646  1
  Fe  Fe17  1  0.33826252  0.66883509  0.33795517  1
  Fe  Fe18  1  0.67123911  0.00524783  1.00449233  1
  Fe  Fe19  1  0.83958917  0.17286576  0.17133200  1
  Fe  Fe20  1  0.67173985  0.00606552  0.33844384  1
  Ni  Ni21  1  0.67210255  0.33755798  0.00529402  1
  Fe  Fe22  1  0.84010849  0.50529231  0.17115072  1
  Ni  Ni23  1  0.67199194  0.33885929  0.33821659  1
  Fe  Fe24  1  0.67081129  0.66974621  0.00532960  1
  Ni  Ni25  1  0.83839689  0.83973207  0.16985270  1
  Fe  Fe26  1  0.67111890  0.67041574  0.33820326  1
  Fe  Fe27  1  0.17005456  0.17214281  0.50346606  1
  Ni  Ni28  1  1.00420282  0.00549609  0.67163807  1
  Fe  Fe29  1  0.16931804  0.17236153  0.83912318  1
  Fe  Fe30  1  0.17038714  0.50373832  0.50470861  1
  Fe  Fe31  1  1.00427885  0.33836838  0.67178958  1
  Ni  Ni32  1  0.17272066  0.50632179  0.83878373  1
  Fe  Fe33  1  0.17121230  0.83809072  0.50551269  1
  Fe  Fe34  1  0.00548657  0.67159742  0.67273572  1
  Ni  Ni35  1  0.17235208  0.83782147  0.83862119  1
  Ni  Ni36  1  0.50443961  0.17224870  0.50489567  1
  Fe  Fe37  1  0.33697442  1.00431810  0.67143831  1
  Fe  Fe38  1  0.50414771  0.17241230  0.83795952  1
  Ni  Ni39  1  0.50396852  0.50335571  0.50554530  1
  Fe  Fe40  1  0.33702212  0.33821808  0.67121644  1
  Fe  Fe41  1  0.50427450  0.50503477  0.83845050  1
  Fe  Fe42  1  0.50692424  0.83778227  0.50500202  1
  Ni  Ni43  1  0.33877239  0.67179487  0.67051128  1
  Fe  Fe44  1  0.50461208  0.83670569  0.83789950  1
  Ni  Ni45  1  0.83694161  0.17092879  0.50444992  1
  Fe  Fe46  1  0.67146524  0.00472964  0.67108531  1
  Ni  Ni47  1  0.83646089  0.17099618  0.83816024  1
  Ni  Ni48  1  0.83722577  0.50530991  0.50469101  1
  Fe  Fe49  1  0.67217733  0.33788384  0.67096889  1
  Ni  Ni50  1  0.83762089  0.50381319  0.83829222  1
  Ni  Ni51  1  0.83977938  0.83832354  0.50566419  1
  Fe  Fe52  1  0.67233632  0.67135485  0.67067259  1
  Fe  Fe53  1  0.83982070  0.83732380  0.83788226  1
" 