954,Ni52Fe35Cr11_4,-236.428658019609, 207.307764855822,Ni52Fe35Cr11,"# generated using pymatgen
 data_Cr7Fe19Ni28
_symmetry_space_group_name_H-M   'P 1'
_cell_length_a   7.42540574
_cell_length_b   7.42540574
_cell_length_c   10.50110950
_cell_angle_alpha   90.00000000
_cell_angle_beta   90.00000000
_cell_angle_gamma   90.00000000
_symmetry_Int_Tables_number   1
_chemical_formula_structural   Cr7Fe19Ni28
_chemical_formula_sum   'Cr7 Fe19 Ni28'
_cell_volume   578.99600284
_cell_formula_units_Z   1
loop_
 _symmetry_equiv_pos_site_id
 _symmetry_equiv_pos_as_xyz
  1  'x, y, z'
loop_
 _atom_site_type_symbol
 _atom_site_label
 _atom_site_symmetry_multiplicity
 _atom_site_fract_x
 _atom_site_fract_y
 _atom_site_fract_z
 _atom_site_occupancy
  Cr  Cr0  1  1.00231163  0.00324236  0.00434062  1
  Fe  Fe1  1  0.17064886  0.16962941  0.16911763  1
  Fe  Fe2  1  0.00287645  0.99981479  0.33683402  1
  Ni  Ni3  1  1.00206647  0.33751974  1.00103849  1
  Cr  Cr4  1  0.17039604  0.50295064  0.16854875  1
  Cr  Cr5  1  0.00280636  0.33718502  0.33722473  1
  Ni  Ni6  1  1.00119375  0.66706032  1.00195080  1
  Cr  Cr7  1  0.16769447  0.83681728  0.17016577  1
  Ni  Ni8  1  1.00098438  0.67016151  0.33756711  1
  Ni  Ni9  1  0.33834616  0.00469457  1.00111210  1
  Fe  Fe10  1  0.50343773  0.17016744  0.16943847  1
  Ni  Ni11  1  0.33685598  0.00441106  0.33783021  1
  Fe  Fe12  1  0.33661285  0.33479689  1.00124851  1
  Ni  Ni13  1  0.50457862  0.50063275  0.16958956  1
  Fe  Fe14  1  0.33882894  0.33600413  0.33783828  1
  Fe  Fe15  1  0.33662145  0.66894626  1.00092161  1
  Cr  Cr16  1  0.50433472  0.83590279  0.16898831  1
  Ni  Ni17  1  0.33709975  0.66910769  0.33831902  1
  Ni  Ni18  1  0.66783390  0.00382434  1.00168085  1
  Fe  Fe19  1  0.83432513  0.16967336  0.16931656  1
  Ni  Ni20  1  0.66854865  1.00259083  0.33625089  1
  Fe  Fe21  1  0.66958274  0.33598848  1.00274740  1
  Ni  Ni22  1  0.83392722  0.50369222  0.16827038  1
  Fe  Fe23  1  0.66677861  0.33785916  0.33572870  1
  Fe  Fe24  1  0.67096687  0.66913962  1.00238771  1
  Ni  Ni25  1  0.83584093  0.83578431  0.17071006  1
  Ni  Ni26  1  0.67032810  0.66890423  0.33673323  1
  Ni  Ni27  1  0.17234195  0.16850849  0.50326300  1
  Ni  Ni28  1  0.00368499  1.00210530  0.66965333  1
  Ni  Ni29  1  0.17068491  0.17014827  0.83553563  1
  Ni  Ni30  1  0.17084713  0.50391205  0.50405270  1
  Fe  Fe31  1  0.00563497  0.33749836  0.67001902  1
  Fe  Fe32  1  0.16966751  0.50254187  0.83584119  1
  Ni  Ni33  1  0.16852985  0.83598963  0.50248669  1
  Ni  Ni34  1  1.00264513  0.67005224  0.66889049  1
  Fe  Fe35  1  0.17043511  0.83568601  0.83517754  1
  Ni  Ni36  1  0.50008099  0.16955154  0.50170534  1
  Fe  Fe37  1  0.33548939  0.00294376  0.66936676  1
  Ni  Ni38  1  0.50122821  0.16920467  0.83751894  1
  Ni  Ni39  1  0.50164151  0.50293254  0.50117848  1
  Ni  Ni40  1  0.33514899  0.33590536  0.66875094  1
  Ni  Ni41  1  0.50179655  0.50285706  0.83764294  1
  Fe  Fe42  1  0.50250128  0.83556145  0.50206427  1
  Ni  Ni43  1  0.33610490  0.66877765  0.66940040  1
  Fe  Fe44  1  0.50281285  0.83667515  0.83653177  1
  Cr  Cr45  1  0.83590778  0.16736216  0.50393266  1
  Fe  Fe46  1  0.66900557  1.00002781  0.67030088  1
  Fe  Fe47  1  0.83587542  0.16924772  0.83633242  1
  Ni  Ni48  1  0.83592581  0.50674397  0.50289064  1
  Cr  Cr49  1  0.66831940  0.33705039  0.66918910  1
  Fe  Fe50  1  0.83686517  0.50333115  0.83694454  1
  Ni  Ni51  1  0.83696734  0.83442981  0.50186778  1
  Ni  Ni52  1  0.66966373  0.67031691  0.66914068  1
  Ni  Ni53  1  0.83578348  0.83555421  0.83583887  1
" 