2642,Ni52Fe11Cr35_16,-225.691582737432, 162.928799482777,Ni52Fe11Cr35,"# generated using pymatgen
 data_Cr10Fe3Ni14
_symmetry_space_group_name_H-M   'P 1'
_cell_length_a   7.48363513
_cell_length_b   7.48363513
_cell_length_c   10.58345830
_cell_angle_alpha   90.00000000
_cell_angle_beta   90.00000000
_cell_angle_gamma   90.00000000
_symmetry_Int_Tables_number   1
_chemical_formula_structural   Cr10Fe3Ni14
_chemical_formula_sum   'Cr20 Fe6 Ni28'
_cell_volume   592.72441035
_cell_formula_units_Z   2
loop_
 _symmetry_equiv_pos_site_id
 _symmetry_equiv_pos_as_xyz
  1  'x, y, z'
loop_
 _atom_site_type_symbol
 _atom_site_label
 _atom_site_symmetry_multiplicity
 _atom_site_fract_x
 _atom_site_fract_y
 _atom_site_fract_z
 _atom_site_occupancy
  Ni  Ni0  1  0.99784965  -0.00021418  0.00037403  1
  Ni  Ni1  1  0.16565769  0.16661013  0.16748001  1
  Ni  Ni2  1  0.00047967  0.00494798  0.33127174  1
  Fe  Fe3  1  -0.00088533  0.33157667  0.00231443  1
  Ni  Ni4  1  0.16601032  0.49373949  0.16517671  1
  Ni  Ni5  1  0.99789221  0.32912018  0.33144951  1
  Cr  Cr6  1  0.00024570  0.66564451  0.99856682  1
  Ni  Ni7  1  0.16592668  0.83625070  0.16709845  1
  Cr  Cr8  1  0.99562251  0.66242467  0.32999925  1
  Cr  Cr9  1  0.33308871  -0.00047041  0.00127140  1
  Ni  Ni10  1  0.49775913  0.16774050  0.16591505  1
  Ni  Ni11  1  0.33251726  0.00352215  0.33128656  1
  Ni  Ni12  1  0.33340530  0.33338121  0.00036549  1
  Ni  Ni13  1  0.49970981  0.49486301  0.16652584  1
  Ni  Ni14  1  0.33180845  0.32783586  0.33041608  1
  Cr  Cr15  1  0.33186700  0.66369238  0.99778413  1
  Ni  Ni16  1  0.49869851  0.83401618  0.16695916  1
  Cr  Cr17  1  0.33437593  0.66626964  0.32774450  1
  Ni  Ni18  1  0.66680089  0.00094878  0.99880783  1
  Fe  Fe19  1  0.83312028  0.16718365  0.16480281  1
  Cr  Cr20  1  0.66426456  0.00128306  0.33165066  1
  Ni  Ni21  1  0.66396516  0.33094273  0.00321447  1
  Ni  Ni22  1  0.83076175  0.49407798  0.16841371  1
  Fe  Fe23  1  0.66690660  0.33170228  0.33112238  1
  Cr  Cr24  1  0.66459969  0.66533888  -0.00051703  1
  Cr  Cr25  1  0.83221203  0.83414101  0.16539346  1
  Ni  Ni26  1  0.66493725  0.66311817  0.33146019  1
  Fe  Fe27  1  0.16256421  0.16597764  0.49636492  1
  Ni  Ni28  1  0.99710018  0.00167393  0.66532953  1
  Cr  Cr29  1  0.16292138  0.16695861  0.83328163  1
  Cr  Cr30  1  0.16395235  0.49514090  0.49822787  1
  Ni  Ni31  1  0.99565639  0.32924844  0.66424030  1
  Ni  Ni32  1  0.16643598  0.49674677  0.83338820  1
  Cr  Cr33  1  0.16665666  0.83591328  0.49536432  1
  Cr  Cr34  1  0.99743117  0.66453666  0.66759645  1
  Ni  Ni35  1  0.16326364  0.83392423  0.83241210  1
  Fe  Fe36  1  0.50069761  0.16596589  0.49703888  1
  Cr  Cr37  1  0.33300530  -0.00058166  0.66335973  1
  Cr  Cr38  1  0.50221939  0.16792980  0.83332442  1
  Cr  Cr39  1  0.50154356  0.49977972  0.49732211  1
  Cr  Cr40  1  0.33248606  0.33126532  0.66588976  1
  Ni  Ni41  1  0.49964391  0.49797501  0.83256972  1
  Ni  Ni42  1  0.50085128  0.83417669  0.49855457  1
  Cr  Cr43  1  0.33379104  0.66647043  0.67075595  1
  Ni  Ni44  1  0.50253536  0.83206214  0.83082647  1
  Ni  Ni45  1  0.83379000  0.16783490  0.49940670  1
  Fe  Fe46  1  0.66721836  -0.00059170  0.66523377  1
  Cr  Cr47  1  0.83191659  0.16413256  0.83479297  1
  Ni  Ni48  1  0.82971010  0.49352166  0.49834020  1
  Ni  Ni49  1  0.66767152  0.33231236  0.66266116  1
  Cr  Cr50  1  0.83027515  0.49568603  0.83097200  1
  Cr  Cr51  1  0.83076498  0.83198516  0.50002078  1
  Ni  Ni52  1  0.66517319  0.66521195  0.66615679  1
  Ni  Ni53  1  0.83128155  0.83521040  0.83037541  1
" 