3506,Ni52Fe46Cr1_1,-240.041843915059, 222.229535723849,Ni52Fe46Cr1,"# generated using pymatgen
 data_Cr(Fe6Ni7)2
_symmetry_space_group_name_H-M   'P 1'
_cell_length_a   7.40601886
_cell_length_b   7.40601886
_cell_length_c   10.47369231
_cell_angle_alpha   90.00000000
_cell_angle_beta   90.00000000
_cell_angle_gamma   90.00000000
_symmetry_Int_Tables_number   1
_chemical_formula_structural   Cr(Fe6Ni7)2
_chemical_formula_sum   'Cr2 Fe24 Ni28'
_cell_volume   574.47275712
_cell_formula_units_Z   2
loop_
 _symmetry_equiv_pos_site_id
 _symmetry_equiv_pos_as_xyz
  1  'x, y, z'
loop_
 _atom_site_type_symbol
 _atom_site_label
 _atom_site_symmetry_multiplicity
 _atom_site_fract_x
 _atom_site_fract_y
 _atom_site_fract_z
 _atom_site_occupancy
  Fe  Fe0  1  1.00273911  1.00303054  1.00382003  1
  Cr  Cr1  1  0.16811633  0.17084911  0.17085164  1
  Ni  Ni2  1  1.00306905  1.00310258  0.33732581  1
  Fe  Fe3  1  1.00293603  0.33827737  1.00348364  1
  Ni  Ni4  1  0.17117462  0.50645185  0.17123275  1
  Ni  Ni5  1  0.00445324  0.33763920  0.33747624  1
  Ni  Ni6  1  1.00353249  0.67126748  0.00445707  1
  Ni  Ni7  1  0.16932429  0.83486098  0.17096081  1
  Ni  Ni8  1  1.00389259  0.67161941  0.33719139  1
  Fe  Fe9  1  0.33751480  1.00155159  1.00165479  1
  Cr  Cr10  1  0.50635339  0.17199290  0.17024057  1
  Fe  Fe11  1  0.33588152  1.00271862  0.34031955  1
  Ni  Ni12  1  0.33710578  0.33846359  1.00200564  1
  Ni  Ni13  1  0.50422654  0.50570002  0.17136539  1
  Ni  Ni14  1  0.33719733  0.33845250  0.33971886  1
  Fe  Fe15  1  0.33776261  0.67061239  1.00358890  1
  Fe  Fe16  1  0.50460511  0.83576281  0.17031535  1
  Fe  Fe17  1  0.33587993  0.67058603  0.33757551  1
  Ni  Ni18  1  0.67183551  1.00274166  1.00323565  1
  Ni  Ni19  1  0.83726054  0.17025134  0.17177421  1
  Fe  Fe20  1  0.67254024  1.00395035  0.33762145  1
  Fe  Fe21  1  0.67166362  0.33852161  1.00299048  1
  Fe  Fe22  1  0.83831081  0.50480052  0.17098656  1
  Fe  Fe23  1  0.67237839  0.33793150  0.33851218  1
  Ni  Ni24  1  0.67172470  0.67201236  0.00460426  1
  Ni  Ni25  1  0.83801729  0.83761804  0.17094467  1
  Fe  Fe26  1  0.67141107  0.67048192  0.33728609  1
  Ni  Ni27  1  0.17081551  0.17071860  0.50386489  1
  Fe  Fe28  1  0.00514568  0.00445519  0.67054572  1
  Ni  Ni29  1  0.16965759  0.17102891  0.83744427  1
  Fe  Fe30  1  0.17174976  0.50382814  0.50369648  1
  Fe  Fe31  1  0.00471382  0.33742434  0.67081527  1
  Ni  Ni32  1  0.17155525  0.50411700  0.83701848  1
  Ni  Ni33  1  0.17088248  0.83768211  0.50403582  1
  Fe  Fe34  1  0.00518521  0.67048143  0.67092433  1
  Ni  Ni35  1  0.17123226  0.83721229  0.83736429  1
  Ni  Ni36  1  0.50416899  0.17104471  0.50487328  1
  Ni  Ni37  1  0.33699511  0.00473377  0.67092528  1
  Fe  Fe38  1  0.50292530  0.17099091  0.83708132  1
  Fe  Fe39  1  0.50322486  0.50382727  0.50471670  1
  Ni  Ni40  1  0.33774896  0.33662500  0.67063452  1
  Ni  Ni41  1  0.50427300  0.50487695  0.83676771  1
  Ni  Ni42  1  0.50410038  0.83735558  0.50340947  1
  Ni  Ni43  1  0.33777111  0.67100010  0.67118415  1
  Ni  Ni44  1  0.50427622  0.83613614  0.83778372  1
  Fe  Fe45  1  0.83759197  0.17009933  0.50379600  1
  Fe  Fe46  1  0.66906993  0.00418227  0.67116935  1
  Ni  Ni47  1  0.83760705  0.17102422  0.83742738  1
  Fe  Fe48  1  0.83738805  0.50425800  0.50419312  1
  Ni  Ni49  1  0.66997329  0.33770548  0.67125860  1
  Fe  Fe50  1  0.83755562  0.50463871  0.83718272  1
  Fe  Fe51  1  0.83759130  0.83800369  0.50327674  1
  Ni  Ni52  1  0.67089245  0.67085557  0.67106376  1
  Fe  Fe53  1  0.83749346  0.83693755  0.83849861  1
" 