5547,Ni52Fe48_3,-240.64754907789, 221.835257438278,Ni52Fe48,"# generated using pymatgen
 data_Fe14Ni13
_symmetry_space_group_name_H-M   'P 1'
_cell_length_a   7.39827995
_cell_length_b   7.39827995
_cell_length_c   10.46274784
_cell_angle_alpha   90.00000000
_cell_angle_beta   90.00000000
_cell_angle_gamma   90.00000000
_symmetry_Int_Tables_number   1
_chemical_formula_structural   Fe14Ni13
_chemical_formula_sum   'Fe28 Ni26'
_cell_volume   572.67375519
_cell_formula_units_Z   2
loop_
 _symmetry_equiv_pos_site_id
 _symmetry_equiv_pos_as_xyz
  1  'x, y, z'
loop_
 _atom_site_type_symbol
 _atom_site_label
 _atom_site_symmetry_multiplicity
 _atom_site_fract_x
 _atom_site_fract_y
 _atom_site_fract_z
 _atom_site_occupancy
  Fe  Fe0  1  0.00519308  1.00300832  1.00445224  1
  Ni  Ni1  1  0.17305567  0.17169160  0.17168187  1
  Fe  Fe2  1  0.00557092  1.00454334  0.33815444  1
  Fe  Fe3  1  0.00556309  0.33897264  1.00456985  1
  Fe  Fe4  1  0.17109649  0.50471201  0.17137160  1
  Ni  Ni5  1  0.00480182  0.33898842  0.33724321  1
  Ni  Ni6  1  0.00518998  0.67131775  1.00415075  1
  Ni  Ni7  1  0.17028422  0.83758041  0.17060149  1
  Ni  Ni8  1  1.00396615  0.67050375  0.33801894  1
  Fe  Fe9  1  0.33735580  1.00359815  0.00501864  1
  Ni  Ni10  1  0.50401468  0.17253335  0.17074818  1
  Ni  Ni11  1  0.33874580  0.00528080  0.33714409  1
  Fe  Fe12  1  0.33743522  0.33884122  0.00550414  1
  Fe  Fe13  1  0.50388935  0.50463356  0.17108275  1
  Ni  Ni14  1  0.33755013  0.33659212  0.33781830  1
  Ni  Ni15  1  0.33734571  0.67205356  0.00555637  1
  Fe  Fe16  1  0.50381252  0.83898479  0.17067078  1
  Fe  Fe17  1  0.33633860  0.67088823  0.33762396  1
  Fe  Fe18  1  0.67139526  1.00332469  1.00431925  1
  Fe  Fe19  1  0.83860585  0.17068251  0.17170117  1
  Fe  Fe20  1  0.67150798  0.00542527  0.33836382  1
  Fe  Fe21  1  0.67094680  0.33874320  1.00452622  1
  Fe  Fe22  1  0.83895375  0.50472568  0.17193402  1
  Fe  Fe23  1  0.67107373  0.33755521  0.33865781  1
  Fe  Fe24  1  0.67153462  0.67187962  1.00402515  1
  Ni  Ni25  1  0.83881388  0.83711160  0.17122344  1
  Fe  Fe26  1  0.67197342  0.67096509  0.33852796  1
  Fe  Fe27  1  0.17033879  0.17138801  0.50407932  1
  Ni  Ni28  1  0.00513729  0.00500762  0.67093667  1
  Fe  Fe29  1  0.17102358  0.17019892  0.83798591  1
  Ni  Ni30  1  0.17096835  0.50519885  0.50416679  1
  Ni  Ni31  1  1.00394837  0.33801715  0.67140491  1
  Ni  Ni32  1  0.17140461  0.50488857  0.83845192  1
  Ni  Ni33  1  0.17060902  0.83670787  0.50509346  1
  Fe  Fe34  1  1.00394900  0.67201209  0.67110453  1
  Ni  Ni35  1  0.17103106  0.83670736  0.83824992  1
  Ni  Ni36  1  0.50553965  0.17202684  0.50514730  1
  Ni  Ni37  1  0.33813630  1.00415903  0.67197534  1
  Fe  Fe38  1  0.50437426  0.17018943  0.83749625  1
  Fe  Fe39  1  0.50550306  0.50457460  0.50478300  1
  Fe  Fe40  1  0.33840767  0.33727927  0.67076789  1
  Fe  Fe41  1  0.50442911  0.50642252  0.83808205  1
  Fe  Fe42  1  0.50513059  0.83827622  0.50564215  1
  Fe  Fe43  1  0.33784095  0.67187438  0.67233309  1
  Ni  Ni44  1  0.50521127  0.83863896  0.83825593  1
  Ni  Ni45  1  0.83586322  0.17166632  0.50410560  1
  Ni  Ni46  1  0.67066669  1.00416962  0.67130349  1
  Fe  Fe47  1  0.83854509  0.17055218  0.83671422  1
  Ni  Ni48  1  0.83862445  0.50437646  0.50519966  1
  Ni  Ni49  1  0.67223029  0.33848103  0.67094858  1
  Fe  Fe50  1  0.83833653  0.50589725  0.83730003  1
  Ni  Ni51  1  0.83861746  0.83790226  0.50530220  1
  Ni  Ni52  1  0.67138692  0.67129692  0.67203092  1
  Ni  Ni53  1  0.83769927  0.83792072  0.83741582  1
" 