2770,Ni52Fe35Cr11_2,-236.430330994513, 207.207499204322,Ni52Fe35Cr11,"# generated using pymatgen
 data_Cr7Fe19Ni28
_symmetry_space_group_name_H-M   'P 1'
_cell_length_a   7.42577712
_cell_length_b   7.42577712
_cell_length_c   10.50163471
_cell_angle_alpha   90.00000000
_cell_angle_beta   90.00000000
_cell_angle_gamma   90.00000000
_symmetry_Int_Tables_number   1
_chemical_formula_structural   Cr7Fe19Ni28
_chemical_formula_sum   'Cr7 Fe19 Ni28'
_cell_volume   579.08288242
_cell_formula_units_Z   1
loop_
 _symmetry_equiv_pos_site_id
 _symmetry_equiv_pos_as_xyz
  1  'x, y, z'
loop_
 _atom_site_type_symbol
 _atom_site_label
 _atom_site_symmetry_multiplicity
 _atom_site_fract_x
 _atom_site_fract_y
 _atom_site_fract_z
 _atom_site_occupancy
  Ni  Ni0  1  0.00425114  0.00405860  1.00275198  1
  Fe  Fe1  1  0.16958780  0.16909664  0.16950783  1
  Ni  Ni2  1  1.00226513  1.00259208  0.33603373  1
  Ni  Ni3  1  1.00110664  0.33501447  0.00340885  1
  Ni  Ni4  1  0.16862974  0.50266596  0.16924457  1
  Ni  Ni5  1  0.00379627  0.33545101  0.33617747  1
  Ni  Ni6  1  1.00266053  0.66926449  0.00465433  1
  Ni  Ni7  1  0.16868546  0.83524793  0.16850342  1
  Ni  Ni8  1  1.00148937  0.67029394  0.33536374  1
  Ni  Ni9  1  0.33569941  1.00098500  0.00345721  1
  Ni  Ni10  1  0.50286672  0.16865092  0.16978059  1
  Fe  Fe11  1  0.33530889  0.00444567  0.33540744  1
  Fe  Fe12  1  0.33461810  0.33596029  0.00540909  1
  Fe  Fe13  1  0.50208215  0.50291876  0.16828025  1
  Ni  Ni14  1  0.33555170  0.33470596  0.33532778  1
  Ni  Ni15  1  0.33745431  0.67216804  0.00327651  1
  Ni  Ni16  1  0.50309920  0.83747702  0.16857349  1
  Cr  Cr17  1  0.33617529  0.66928198  0.33576715  1
  Fe  Fe18  1  0.66931579  1.00202767  0.00462436  1
  Ni  Ni19  1  0.83610083  0.16870414  0.16823161  1
  Fe  Fe20  1  0.67043916  1.00204620  0.33600649  1
  Fe  Fe21  1  0.67159656  0.33621534  0.00402717  1
  Fe  Fe22  1  0.83740016  0.50369866  0.16791507  1
  Cr  Cr23  1  0.66919619  0.33601360  0.33643547  1
  Ni  Ni24  1  0.66822120  0.66902777  0.00457423  1
  Fe  Fe25  1  0.83665403  0.83632429  0.16976261  1
  Fe  Fe26  1  0.67132626  0.67063641  0.33652280  1
  Fe  Fe27  1  0.16892819  0.16968717  0.50312051  1
  Ni  Ni28  1  0.00560360  0.00347385  0.66954964  1
  Fe  Fe29  1  0.16798639  0.16736763  0.83570186  1
  Fe  Fe30  1  0.16802187  0.50153506  0.50294419  1
  Ni  Ni31  1  1.00147070  0.33557494  0.66874777  1
  Cr  Cr32  1  0.16782951  0.50384434  0.83545354  1
  Fe  Fe33  1  0.16752510  0.83710921  0.50372095  1
  Ni  Ni34  1  1.00219259  0.66928996  0.66830880  1
  Ni  Ni35  1  0.17035792  0.83740819  0.83547881  1
  Fe  Fe36  1  0.50174625  0.17002686  0.50294308  1
  Ni  Ni37  1  0.33412361  1.00192745  0.66887582  1
  Cr  Cr38  1  0.50262556  0.16888274  0.83622218  1
  Ni  Ni39  1  0.50193335  0.50195750  0.50480070  1
  Ni  Ni40  1  0.33621201  0.33507315  0.66699278  1
  Cr  Cr41  1  0.50378207  0.50388365  0.83648272  1
  Fe  Fe42  1  0.50386858  0.83604684  0.50325114  1
  Fe  Fe43  1  0.33613201  0.67077361  0.66856530  1
  Ni  Ni44  1  0.50018193  0.83603460  0.83617486  1
  Ni  Ni45  1  0.83767892  0.16861518  0.50385766  1
  Cr  Cr46  1  0.66915988  1.00260036  0.66894288  1
  Fe  Fe47  1  0.83886221  0.17170288  0.83661791  1
  Fe  Fe48  1  0.83660126  0.50365765  0.50449405  1
  Ni  Ni49  1  0.67065310  0.33848306  0.66879517  1
  Ni  Ni50  1  0.83674078  0.50120823  0.83501600  1
  Ni  Ni51  1  0.83741930  0.83625791  0.50100872  1
  Ni  Ni52  1  0.66910706  0.66719949  0.66763563  1
  Cr  Cr53  1  0.83773703  0.83546447  0.83733091  1
" 