8400,Ni52Fe48_0,-240.501592284573, 220.498042179668,Ni52Fe48,"# generated using pymatgen
 data_Fe14Ni13
_symmetry_space_group_name_H-M   'P 1'
_cell_length_a   7.39708129
_cell_length_b   7.39708129
_cell_length_c   10.46105268
_cell_angle_alpha   90.00000000
_cell_angle_beta   90.00000000
_cell_angle_gamma   90.00000000
_symmetry_Int_Tables_number   1
_chemical_formula_structural   Fe14Ni13
_chemical_formula_sum   'Fe28 Ni26'
_cell_volume   572.39544877
_cell_formula_units_Z   2
loop_
 _symmetry_equiv_pos_site_id
 _symmetry_equiv_pos_as_xyz
  1  'x, y, z'
loop_
 _atom_site_type_symbol
 _atom_site_label
 _atom_site_symmetry_multiplicity
 _atom_site_fract_x
 _atom_site_fract_y
 _atom_site_fract_z
 _atom_site_occupancy
  Ni  Ni0  1  1.00248589  1.00293747  1.00431835  1
  Fe  Fe1  1  0.17151250  0.16955449  0.16984051  1
  Fe  Fe2  1  1.00330842  0.00504865  0.33793526  1
  Fe  Fe3  1  1.00472851  0.33686830  1.00396715  1
  Fe  Fe4  1  0.17225480  0.50587386  0.17113519  1
  Ni  Ni5  1  0.00511157  0.33908054  0.33615749  1
  Ni  Ni6  1  0.00560660  0.67112724  1.00441279  1
  Ni  Ni7  1  0.17103459  0.83750947  0.17186748  1
  Fe  Fe8  1  1.00313227  0.67180577  0.33791277  1
  Fe  Fe9  1  0.33714445  1.00448143  1.00436612  1
  Ni  Ni10  1  0.50438253  0.17265818  0.17008021  1
  Fe  Fe11  1  0.33831095  0.00647178  0.33893805  1
  Ni  Ni12  1  0.33853114  0.33986996  1.00454750  1
  Fe  Fe13  1  0.50455058  0.50657056  0.17139012  1
  Fe  Fe14  1  0.33926182  0.33662892  0.33702443  1
  Fe  Fe15  1  0.33809134  0.67393320  1.00440711  1
  Ni  Ni16  1  0.50445572  0.83952041  0.17306672  1
  Fe  Fe17  1  0.33830064  0.67162338  0.33888176  1
  Ni  Ni18  1  0.67120976  1.00405624  0.00474882  1
  Fe  Fe19  1  0.83721556  0.16850542  0.17119715  1
  Ni  Ni20  1  0.67044928  1.00462130  0.33829892  1
  Fe  Fe21  1  0.67269106  0.33771252  0.00523711  1
  Fe  Fe22  1  0.83769402  0.50542659  0.17080801  1
  Ni  Ni23  1  0.67193460  0.33663677  0.33719471  1
  Fe  Fe24  1  0.67206365  0.67283896  1.00442202  1
  Ni  Ni25  1  0.83840542  0.83656842  0.17126142  1
  Fe  Fe26  1  0.67281055  0.67105607  0.33795231  1
  Fe  Fe27  1  0.17028665  0.17044489  0.50615273  1
  Ni  Ni28  1  1.00381716  1.00435151  0.67162041  1
  Ni  Ni29  1  0.17166282  0.17115822  0.83771366  1
  Fe  Fe30  1  0.17106713  0.50461731  0.50467574  1
  Ni  Ni31  1  0.00475812  0.33921386  0.67229445  1
  Fe  Fe32  1  0.17001470  0.50558826  0.83842615  1
  Ni  Ni33  1  0.17047906  0.83754858  0.50487486  1
  Ni  Ni34  1  0.00639466  0.67056285  0.67155634  1
  Ni  Ni35  1  0.17095762  0.83905203  0.83778978  1
  Ni  Ni36  1  0.50426369  0.17391627  0.50579290  1
  Ni  Ni37  1  0.33917522  1.00320926  0.67203447  1
  Fe  Fe38  1  0.50587541  0.16981381  0.83864701  1
  Fe  Fe39  1  0.50460223  0.50622564  0.50459667  1
  Fe  Fe40  1  0.33682026  0.33677334  0.67235096  1
  Fe  Fe41  1  0.50472787  0.50511092  0.83822337  1
  Fe  Fe42  1  0.50475795  0.83961981  0.50539059  1
  Ni  Ni43  1  0.33740244  0.67088211  0.67212763  1
  Ni  Ni44  1  0.50447397  0.83763325  0.83763409  1
  Fe  Fe45  1  0.83814254  0.17023447  0.50480340  1
  Ni  Ni46  1  0.67133657  0.00505509  0.67151650  1
  Ni  Ni47  1  0.83859903  0.17236137  0.83753730  1
  Fe  Fe48  1  0.83876107  0.50372294  0.50496412  1
  Fe  Fe49  1  0.67204496  0.33793651  0.67064699  1
  Ni  Ni50  1  0.83759845  0.50456671  0.83780838  1
  Ni  Ni51  1  0.83922355  0.83659315  0.50541013  1
  Fe  Fe52  1  0.67273019  0.67296236  0.67197669  1
  Ni  Ni53  1  0.83873169  0.83724285  0.83744843  1
" 