3071,Ni52Fe46Cr1_9,-239.985512838487, 223.007456739939,Ni52Fe46Cr1,"# generated using pymatgen
 data_Cr(Fe6Ni7)2
_symmetry_space_group_name_H-M   'P 1'
_cell_length_a   7.40469089
_cell_length_b   7.40469089
_cell_length_c   10.47181429
_cell_angle_alpha   90.00000000
_cell_angle_beta   90.00000000
_cell_angle_gamma   90.00000000
_symmetry_Int_Tables_number   1
_chemical_formula_structural   Cr(Fe6Ni7)2
_chemical_formula_sum   'Cr2 Fe24 Ni28'
_cell_volume   574.16378880
_cell_formula_units_Z   2
loop_
 _symmetry_equiv_pos_site_id
 _symmetry_equiv_pos_as_xyz
  1  'x, y, z'
loop_
 _atom_site_type_symbol
 _atom_site_label
 _atom_site_symmetry_multiplicity
 _atom_site_fract_x
 _atom_site_fract_y
 _atom_site_fract_z
 _atom_site_occupancy
  Cr  Cr0  1  1.00332736  1.00395475  1.00321840  1
  Fe  Fe1  1  0.17144274  0.17207409  0.17268138  1
  Ni  Ni2  1  0.00540509  0.00452488  0.33889443  1
  Fe  Fe3  1  1.00329511  0.34018781  1.00401814  1
  Fe  Fe4  1  0.17080067  0.50318053  0.17090386  1
  Ni  Ni5  1  0.00452054  0.33733092  0.33666308  1
  Ni  Ni6  1  1.00335057  0.67002701  1.00416578  1
  Fe  Fe7  1  0.17118448  0.83737836  0.17243307  1
  Fe  Fe8  1  0.00518820  0.67095669  0.33759808  1
  Fe  Fe9  1  0.34007264  0.00429302  1.00405370  1
  Ni  Ni10  1  0.50335051  0.17072946  0.17014005  1
  Ni  Ni11  1  0.33561985  1.00380532  0.33725310  1
  Ni  Ni12  1  0.33854831  0.33773277  1.00346019  1
  Fe  Fe13  1  0.50490799  0.50321583  0.17078289  1
  Ni  Ni14  1  0.33672176  0.33826596  0.33866309  1
  Fe  Fe15  1  0.33764797  0.67025664  0.00425214  1
  Fe  Fe16  1  0.50412345  0.83694922  0.16994339  1
  Ni  Ni17  1  0.33743383  0.67055356  0.33736165  1
  Fe  Fe18  1  0.66934099  0.00452881  1.00359899  1
  Ni  Ni19  1  0.83656445  0.17310826  0.17086511  1
  Cr  Cr20  1  0.67199054  0.00437045  0.33755469  1
  Ni  Ni21  1  0.67003262  0.33821901  0.00427732  1
  Ni  Ni22  1  0.83816982  0.50394977  0.17086001  1
  Fe  Fe23  1  0.67094924  0.33840920  0.33717068  1
  Ni  Ni24  1  0.67145316  0.67042138  1.00379405  1
  Fe  Fe25  1  0.83731508  0.83630367  0.17056413  1
  Fe  Fe26  1  0.67093517  0.66927740  0.33725070  1
  Ni  Ni27  1  0.17158527  0.17062205  0.50341510  1
  Fe  Fe28  1  1.00332035  0.00501403  0.67016704  1
  Fe  Fe29  1  0.17151115  0.17170301  0.83625605  1
  Ni  Ni30  1  0.17097939  0.50442726  0.50319774  1
  Ni  Ni31  1  1.00350902  0.33799152  0.67202211  1
  Ni  Ni32  1  0.17023855  0.50452547  0.83823246  1
  Ni  Ni33  1  0.17161311  0.83758193  0.50392942  1
  Fe  Fe34  1  1.00367668  0.67068663  0.67125859  1
  Fe  Fe35  1  0.17125435  0.83684145  0.83656950  1
  Fe  Fe36  1  0.50322820  0.17141694  0.50519962  1
  Ni  Ni37  1  0.33792596  1.00347155  0.67068386  1
  Ni  Ni38  1  0.50442227  0.16946280  0.83799368  1
  Fe  Fe39  1  0.50405761  0.50421310  0.50380472  1
  Fe  Fe40  1  0.33758018  0.33675272  0.67100858  1
  Fe  Fe41  1  0.50537274  0.50389435  0.83804038  1
  Fe  Fe42  1  0.50304287  0.83699518  0.50536420  1
  Fe  Fe43  1  0.33758505  0.67087735  0.67040069  1
  Ni  Ni44  1  0.50411171  0.83895917  0.83834362  1
  Ni  Ni45  1  0.83802687  0.17170259  0.50458220  1
  Ni  Ni46  1  0.67073382  1.00418432  0.67196591  1
  Ni  Ni47  1  0.83556686  0.17185710  0.83718326  1
  Ni  Ni48  1  0.83785902  0.50411702  0.50371376  1
  Ni  Ni49  1  0.67192540  0.33726739  0.67047894  1
  Ni  Ni50  1  0.83898333  0.50421462  0.83805462  1
  Ni  Ni51  1  0.83830842  0.83680993  0.50440142  1
  Fe  Fe52  1  0.67137721  0.67121018  0.67139789  1
  Ni  Ni53  1  0.83588611  0.83656915  0.83728616  1
" 