1174,Ni52Fe35Cr11_5,-236.952919023184, 210.977290900806,Ni52Fe35Cr11,"# generated using pymatgen
 data_Cr7Fe19Ni28
_symmetry_space_group_name_H-M   'P 1'
_cell_length_a   7.42775210
_cell_length_b   7.42775210
_cell_length_c   10.50442776
_cell_angle_alpha   90.00000000
_cell_angle_beta   90.00000000
_cell_angle_gamma   90.00000000
_symmetry_Int_Tables_number   1
_chemical_formula_structural   Cr7Fe19Ni28
_chemical_formula_sum   'Cr7 Fe19 Ni28'
_cell_volume   579.54504897
_cell_formula_units_Z   1
loop_
 _symmetry_equiv_pos_site_id
 _symmetry_equiv_pos_as_xyz
  1  'x, y, z'
loop_
 _atom_site_type_symbol
 _atom_site_label
 _atom_site_symmetry_multiplicity
 _atom_site_fract_x
 _atom_site_fract_y
 _atom_site_fract_z
 _atom_site_occupancy
  Ni  Ni0  1  1.00122005  1.00069369  0.00370280  1
  Fe  Fe1  1  0.16593548  0.16988334  0.16956287  1
  Fe  Fe2  1  1.00004785  1.00210312  0.33498886  1
  Cr  Cr3  1  1.00143506  0.33581043  1.00188566  1
  Ni  Ni4  1  0.16903167  0.50351744  0.16963345  1
  Fe  Fe5  1  0.00278622  0.33577364  0.33472582  1
  Fe  Fe6  1  0.00289502  0.67041566  0.00280882  1
  Ni  Ni7  1  0.16633549  0.83399035  0.16918557  1
  Ni  Ni8  1  1.00217201  0.66964695  0.33461263  1
  Cr  Cr9  1  0.33452462  1.00160069  1.00078909  1
  Cr  Cr10  1  0.50454532  0.17063639  0.16863845  1
  Cr  Cr11  1  0.33563116  1.00218102  0.33749904  1
  Ni  Ni12  1  0.33756083  0.33858627  0.00286448  1
  Fe  Fe13  1  0.50399796  0.50302811  0.16789965  1
  Fe  Fe14  1  0.33545300  0.33688853  0.33692642  1
  Fe  Fe15  1  0.33542803  0.66733498  1.00212937  1
  Fe  Fe16  1  0.50526693  0.83365362  0.16901792  1
  Cr  Cr17  1  0.33525587  0.66842271  0.33593946  1
  Fe  Fe18  1  0.67199819  0.00310310  1.00156130  1
  Ni  Ni19  1  0.83528340  0.16828233  0.17116779  1
  Ni  Ni20  1  0.67197292  0.00322990  0.33625531  1
  Ni  Ni21  1  0.66880427  0.33741023  1.00148242  1
  Ni  Ni22  1  0.83662170  0.50349586  0.17038925  1
  Ni  Ni23  1  0.67030896  0.33528017  0.33568044  1
  Fe  Fe24  1  0.66961348  0.66879979  1.00228507  1
  Ni  Ni25  1  0.83717020  0.83615954  0.16978039  1
  Fe  Fe26  1  0.67069918  0.67068151  0.33521829  1
  Fe  Fe27  1  0.17019219  0.17047653  0.50300992  1
  Cr  Cr28  1  1.00201557  1.00154477  0.66930991  1
  Fe  Fe29  1  0.17046846  0.16994205  0.83536515  1
  Ni  Ni30  1  0.16952417  0.50189749  0.50332890  1
  Fe  Fe31  1  0.00434423  0.33716431  0.67046518  1
  Ni  Ni32  1  0.16989843  0.50394056  0.83497386  1
  Fe  Fe33  1  0.16888449  0.83463704  0.50368134  1
  Ni  Ni34  1  0.00391271  0.66840097  0.67079003  1
  Ni  Ni35  1  0.16927611  0.83362076  0.83535687  1
  Ni  Ni36  1  0.50266734  0.16849976  0.50373598  1
  Ni  Ni37  1  0.33827245  1.00227335  0.66928403  1
  Ni  Ni38  1  0.50371732  0.16984762  0.83478221  1
  Fe  Fe39  1  0.50166768  0.50204830  0.50379385  1
  Ni  Ni40  1  0.33667492  0.33682136  0.66904072  1
  Ni  Ni41  1  0.50154966  0.50104204  0.83593565  1
  Ni  Ni42  1  0.50416317  0.83869001  0.50396216  1
  Ni  Ni43  1  0.33527176  0.66884243  0.66957680  1
  Ni  Ni44  1  0.50269212  0.83704665  0.83519857  1
  Fe  Fe45  1  0.83407842  0.16793844  0.50152750  1
  Ni  Ni46  1  0.66767383  0.00303736  0.66971912  1
  Ni  Ni47  1  0.83305809  0.16922468  0.83584730  1
  Cr  Cr48  1  0.83791671  0.50393078  0.50315211  1
  Fe  Fe49  1  0.66776398  0.33483835  0.67069250  1
  Ni  Ni50  1  0.83648659  0.50291640  0.83509290  1
  Ni  Ni51  1  0.83481239  0.83661289  0.50112063  1
  Fe  Fe52  1  0.66789145  0.67119753  0.67043316  1
  Ni  Ni53  1  0.83597070  0.83579803  0.83703285  1
" 