4389,Ni52Fe35Cr11_3,-236.337572933924, 207.405816088045,Ni52Fe35Cr11,"# generated using pymatgen
 data_Cr7Fe19Ni28
_symmetry_space_group_name_H-M   'P 1'
_cell_length_a   7.42690055
_cell_length_b   7.42690055
_cell_length_c   10.50322348
_cell_angle_alpha   90.00000000
_cell_angle_beta   90.00000000
_cell_angle_gamma   90.00000000
_symmetry_Int_Tables_number   1
_chemical_formula_structural   Cr7Fe19Ni28
_chemical_formula_sum   'Cr7 Fe19 Ni28'
_cell_volume   579.34574679
_cell_formula_units_Z   1
loop_
 _symmetry_equiv_pos_site_id
 _symmetry_equiv_pos_as_xyz
  1  'x, y, z'
loop_
 _atom_site_type_symbol
 _atom_site_label
 _atom_site_symmetry_multiplicity
 _atom_site_fract_x
 _atom_site_fract_y
 _atom_site_fract_z
 _atom_site_occupancy
  Ni  Ni0  1  0.00392692  1.00248088  1.00191923  1
  Ni  Ni1  1  0.17075138  0.16932685  0.16861359  1
  Cr  Cr2  1  0.00323795  0.00462919  0.33705199  1
  Fe  Fe3  1  1.00107003  0.33445089  0.00393775  1
  Fe  Fe4  1  0.16983372  0.50145556  0.16949812  1
  Ni  Ni5  1  0.00313034  0.33554966  0.33466699  1
  Fe  Fe6  1  1.00098981  0.67161674  0.00348498  1
  Ni  Ni7  1  0.17096335  0.83685915  0.16729986  1
  Cr  Cr8  1  0.00363011  0.66838323  0.33637229  1
  Ni  Ni9  1  0.33383839  0.00323900  0.00298936  1
  Ni  Ni10  1  0.50254052  0.16869215  0.16907861  1
  Ni  Ni11  1  0.33670348  0.00293087  0.33547942  1
  Fe  Fe12  1  0.33804042  0.33416630  0.00302732  1
  Fe  Fe13  1  0.50299803  0.50263803  0.16943743  1
  Fe  Fe14  1  0.33693679  0.33581022  0.33673971  1
  Fe  Fe15  1  0.33665708  0.67043474  0.00372195  1
  Fe  Fe16  1  0.50236170  0.83672513  0.16962679  1
  Ni  Ni17  1  0.33715756  0.66866091  0.33584243  1
  Ni  Ni18  1  0.67034425  0.00302932  0.00363482  1
  Fe  Fe19  1  0.83553557  0.17030992  0.16866488  1
  Ni  Ni20  1  0.66823761  0.00348698  0.33512362  1
  Ni  Ni21  1  0.66961710  0.33746852  1.00107420  1
  Ni  Ni22  1  0.83528151  0.50188426  0.16800936  1
  Ni  Ni23  1  0.66904297  0.33599900  0.33644909  1
  Ni  Ni24  1  0.67037704  0.66761320  0.00360497  1
  Fe  Fe25  1  0.83435327  0.83663064  0.16768839  1
  Ni  Ni26  1  0.66727218  0.66862464  0.33437215  1
  Fe  Fe27  1  0.17054138  0.17047112  0.50327278  1
  Fe  Fe28  1  0.00336201  1.00190831  0.66979156  1
  Fe  Fe29  1  0.16960674  0.16727934  0.83632131  1
  Ni  Ni30  1  0.17097299  0.50214032  0.50264191  1
  Ni  Ni31  1  0.00363854  0.33476497  0.66932048  1
  Cr  Cr32  1  0.16964151  0.50326536  0.83637332  1
  Ni  Ni33  1  0.16914437  0.83566420  0.50532347  1
  Fe  Fe34  1  0.00524835  0.67157748  0.66901475  1
  Ni  Ni35  1  0.16739067  0.83763619  0.83549027  1
  Ni  Ni36  1  0.50296687  0.17059474  0.50320775  1
  Ni  Ni37  1  0.33398957  0.00400025  0.66963860  1
  Fe  Fe38  1  0.50259850  0.16992762  0.83600071  1
  Ni  Ni39  1  0.50034828  0.49951511  0.50167114  1
  Ni  Ni40  1  0.33560963  0.33584019  0.66820044  1
  Ni  Ni41  1  0.50381647  0.49973359  0.83651597  1
  Cr  Cr42  1  0.50199303  0.83768958  0.50106391  1
  Ni  Ni43  1  0.33369634  0.66826732  0.66849070  1
  Cr  Cr44  1  0.50185713  0.83752508  0.83684095  1
  Fe  Fe45  1  0.83500000  0.16879911  0.50327034  1
  Ni  Ni46  1  0.67100411  0.00484202  0.66934838  1
  Fe  Fe47  1  0.83590365  0.16877803  0.83617090  1
  Cr  Cr48  1  0.83635168  0.50164548  0.50335026  1
  Fe  Fe49  1  0.66689802  0.33371587  0.66997117  1
  Fe  Fe50  1  0.83502683  0.50280906  0.83744725  1
  Ni  Ni51  1  0.83708016  0.83828347  0.50316631  1
  Cr  Cr52  1  0.66922283  0.66882621  0.66966390  1
  Ni  Ni53  1  0.83821321  0.83735594  0.83697411  1
" 