3784,Ni52Fe46Cr1_17,-239.540981405252, 220.554267335942,Ni52Fe46Cr1,"# generated using pymatgen
 data_Cr(Fe6Ni7)2
_symmetry_space_group_name_H-M   'P 1'
_cell_length_a   7.40076302
_cell_length_b   7.40076302
_cell_length_c   10.46625943
_cell_angle_alpha   90.00000000
_cell_angle_beta   90.00000000
_cell_angle_gamma   90.00000000
_symmetry_Int_Tables_number   1
_chemical_formula_structural   Cr(Fe6Ni7)2
_chemical_formula_sum   'Cr2 Fe24 Ni28'
_cell_volume   573.25056461
_cell_formula_units_Z   2
loop_
 _symmetry_equiv_pos_site_id
 _symmetry_equiv_pos_as_xyz
  1  'x, y, z'
loop_
 _atom_site_type_symbol
 _atom_site_label
 _atom_site_symmetry_multiplicity
 _atom_site_fract_x
 _atom_site_fract_y
 _atom_site_fract_z
 _atom_site_occupancy
  Ni  Ni0  1  0.00531684  1.00424196  1.00431143  1
  Fe  Fe1  1  0.17141861  0.17224594  0.17160495  1
  Fe  Fe2  1  1.00338008  0.00521291  0.33594465  1
  Fe  Fe3  1  1.00364826  0.33854534  0.00506524  1
  Ni  Ni4  1  0.17035218  0.50449009  0.17122599  1
  Ni  Ni5  1  1.00373331  0.33961542  0.33704810  1
  Ni  Ni6  1  0.00465439  0.67046778  0.00482713  1
  Fe  Fe7  1  0.17129214  0.83733046  0.17048745  1
  Fe  Fe8  1  0.00487427  0.66979687  0.33676925  1
  Fe  Fe9  1  0.33807677  1.00358467  1.00407871  1
  Ni  Ni10  1  0.50479638  0.17049741  0.17248897  1
  Ni  Ni11  1  0.33883451  1.00369255  0.33671347  1
  Fe  Fe12  1  0.33814477  0.33820676  0.00454659  1
  Ni  Ni13  1  0.50472568  0.50398217  0.17073572  1
  Fe  Fe14  1  0.33957464  0.33888562  0.33659475  1
  Fe  Fe15  1  0.33760026  0.67164212  1.00414576  1
  Fe  Fe16  1  0.50511141  0.83717818  0.17157770  1
  Fe  Fe17  1  0.33875560  0.67052650  0.33813698  1
  Ni  Ni18  1  0.67046462  1.00425645  1.00431333  1
  Fe  Fe19  1  0.83737990  0.17220981  0.17199103  1
  Ni  Ni20  1  0.66860742  0.00571024  0.33746511  1
  Fe  Fe21  1  0.67164246  0.33806893  1.00447819  1
  Ni  Ni22  1  0.83835916  0.50500277  0.17230696  1
  Ni  Ni23  1  0.67195481  0.33811561  0.33811948  1
  Ni  Ni24  1  0.67146603  0.67078890  1.00398476  1
  Fe  Fe25  1  0.83703038  0.83689190  0.17079552  1
  Ni  Ni26  1  0.67034828  0.66960741  0.33709075  1
  Cr  Cr27  1  0.17021857  0.17162084  0.50461339  1
  Fe  Fe28  1  1.00357829  1.00414907  0.67314047  1
  Fe  Fe29  1  0.17213531  0.17113338  0.83769072  1
  Ni  Ni30  1  0.17161590  0.50543496  0.50431271  1
  Fe  Fe31  1  1.00279500  0.33889677  0.67126621  1
  Ni  Ni32  1  0.17016353  0.50505473  0.83789587  1
  Fe  Fe33  1  0.17335017  0.83614477  0.50512391  1
  Ni  Ni34  1  0.00583924  0.66926106  0.67170487  1
  Ni  Ni35  1  0.17066289  0.83802892  0.83675060  1
  Fe  Fe36  1  0.50648170  0.17086494  0.50447579  1
  Ni  Ni37  1  0.33883940  1.00389086  0.67241192  1
  Ni  Ni38  1  0.50498178  0.17003004  0.83672252  1
  Ni  Ni39  1  0.50397106  0.50523279  0.50431394  1
  Fe  Fe40  1  0.33959407  0.33933564  0.67229436  1
  Ni  Ni41  1  0.50490911  0.50453818  0.83838431  1
  Ni  Ni42  1  0.50408272  0.83767235  0.50421527  1
  Fe  Fe43  1  0.33874263  0.67137601  0.67115095  1
  Ni  Ni44  1  0.50473065  0.83886737  0.83808272  1
  Ni  Ni45  1  0.83655729  0.17150686  0.50398342  1
  Ni  Ni46  1  0.66851512  0.00591186  0.67165772  1
  Fe  Fe47  1  0.83711297  0.17111649  0.83723478  1
  Fe  Fe48  1  0.83729655  0.50273035  0.50447674  1
  Ni  Ni49  1  0.67111014  0.33792867  0.67058478  1
  Ni  Ni50  1  0.83836366  0.50480179  0.83714116  1
  Cr  Cr51  1  0.83631388  0.83921740  0.50495323  1
  Ni  Ni52  1  0.67101809  0.66959382  0.67236121  1
  Fe  Fe53  1  0.83730138  0.83668957  0.83803270  1
" 