5082,Ni52Fe48_9,-240.583727184791, 225.596747146894,Ni52Fe48,"# generated using pymatgen
 data_Fe14Ni13
_symmetry_space_group_name_H-M   'P 1'
_cell_length_a   7.39760506
_cell_length_b   7.39760506
_cell_length_c   10.46179340
_cell_angle_alpha   90.00000000
_cell_angle_beta   90.00000000
_cell_angle_gamma   90.00000000
_symmetry_Int_Tables_number   1
_chemical_formula_structural   Fe14Ni13
_chemical_formula_sum   'Fe28 Ni26'
_cell_volume   572.51704658
_cell_formula_units_Z   2
loop_
 _symmetry_equiv_pos_site_id
 _symmetry_equiv_pos_as_xyz
  1  'x, y, z'
loop_
 _atom_site_type_symbol
 _atom_site_label
 _atom_site_symmetry_multiplicity
 _atom_site_fract_x
 _atom_site_fract_y
 _atom_site_fract_z
 _atom_site_occupancy
  Fe  Fe0  1  0.00606264  0.00642168  0.00550564  1
  Fe  Fe1  1  0.17171141  0.17177608  0.17101460  1
  Ni  Ni2  1  0.00478140  1.00449453  0.33767777  1
  Ni  Ni3  1  1.00408106  0.33893848  1.00438348  1
  Fe  Fe4  1  0.17065341  0.50484623  0.17155513  1
  Ni  Ni5  1  0.00479114  0.33852052  0.33899232  1
  Fe  Fe6  1  1.00454939  0.67133353  0.00485862  1
  Fe  Fe7  1  0.17247526  0.83748147  0.17292881  1
  Ni  Ni8  1  1.00227619  0.67165705  0.33881198  1
  Ni  Ni9  1  0.33928625  1.00394670  1.00391351  1
  Fe  Fe10  1  0.50494682  0.17080236  0.17069004  1
  Ni  Ni11  1  0.33939243  0.00507667  0.33889325  1
  Ni  Ni12  1  0.33787418  0.33815007  1.00430282  1
  Ni  Ni13  1  0.50414328  0.50370000  0.17026328  1
  Ni  Ni14  1  0.33820493  0.33728766  0.33764500  1
  Ni  Ni15  1  0.33712380  0.67158990  1.00464151  1
  Fe  Fe16  1  0.50526570  0.83780708  0.16990505  1
  Fe  Fe17  1  0.33621100  0.67079565  0.33825615  1
  Ni  Ni18  1  0.67191964  1.00419802  1.00423638  1
  Fe  Fe19  1  0.83768870  0.17234827  0.17179766  1
  Fe  Fe20  1  0.67328569  0.00485616  0.33741368  1
  Ni  Ni21  1  0.67182458  0.33669229  1.00456467  1
  Fe  Fe22  1  0.83787175  0.50512913  0.17124951  1
  Fe  Fe23  1  0.67145613  0.33782677  0.33754870  1
  Fe  Fe24  1  0.66990826  0.67042849  1.00439178  1
  Ni  Ni25  1  0.83911713  0.83890317  0.17050798  1
  Fe  Fe26  1  0.67118076  0.67148251  0.33842046  1
  Fe  Fe27  1  0.17099988  0.17253847  0.50472302  1
  Fe  Fe28  1  0.00583091  1.00405197  0.67045055  1
  Ni  Ni29  1  0.17070449  0.16984943  0.83831721  1
  Fe  Fe30  1  0.16963632  0.50569263  0.50477042  1
  Fe  Fe31  1  1.00431018  0.34041122  0.67201662  1
  Fe  Fe32  1  0.17219518  0.50463062  0.83795919  1
  Ni  Ni33  1  0.17155891  0.83976914  0.50397406  1
  Ni  Ni34  1  1.00309476  0.67118166  0.67118220  1
  Fe  Fe35  1  0.17230143  0.83595053  0.83692997  1
  Fe  Fe36  1  0.50592596  0.17136392  0.50454683  1
  Fe  Fe37  1  0.33771731  1.00279488  0.67196161  1
  Fe  Fe38  1  0.50440057  0.17196321  0.83871752  1
  Ni  Ni39  1  0.50402714  0.50404665  0.50456640  1
  Ni  Ni40  1  0.33842559  0.33735945  0.67218496  1
  Ni  Ni41  1  0.50500102  0.50548273  0.83870646  1
  Fe  Fe42  1  0.50655638  0.83742993  0.50585568  1
  Ni  Ni43  1  0.33826289  0.66994715  0.66973412  1
  Ni  Ni44  1  0.50391834  0.83639697  0.83837029  1
  Ni  Ni45  1  0.83929114  0.17115148  0.50497783  1
  Fe  Fe46  1  0.67102515  1.00368905  0.67203889  1
  Fe  Fe47  1  0.83696363  0.17190134  0.83785676  1
  Ni  Ni48  1  0.83575395  0.50442910  0.50361965  1
  Fe  Fe49  1  0.67123353  0.34143657  0.67139438  1
  Ni  Ni50  1  0.83654896  0.50488500  0.83933816  1
  Ni  Ni51  1  0.83985396  0.83876739  0.50506081  1
  Ni  Ni52  1  0.67252409  0.67221148  0.67160592  1
  Fe  Fe53  1  0.83730890  0.83763106  0.83822425  1
" 