488,Ni52Fe11Cr35_19,-225.86891696821, 164.183867224876,Ni52Fe11Cr35,"# generated using pymatgen
 data_Cr10Fe3Ni14
_symmetry_space_group_name_H-M   'P 1'
_cell_length_a   7.48055391
_cell_length_b   7.48055391
_cell_length_c   10.57910080
_cell_angle_alpha   90.00000000
_cell_angle_beta   90.00000000
_cell_angle_gamma   90.00000000
_symmetry_Int_Tables_number   1
_chemical_formula_structural   Cr10Fe3Ni14
_chemical_formula_sum   'Cr20 Fe6 Ni28'
_cell_volume   591.99258906
_cell_formula_units_Z   2
loop_
 _symmetry_equiv_pos_site_id
 _symmetry_equiv_pos_as_xyz
  1  'x, y, z'
loop_
 _atom_site_type_symbol
 _atom_site_label
 _atom_site_symmetry_multiplicity
 _atom_site_fract_x
 _atom_site_fract_y
 _atom_site_fract_z
 _atom_site_occupancy
  Fe  Fe0  1  0.99665091  -0.00034761  0.99865497  1
  Ni  Ni1  1  0.16642214  0.16833722  0.16285385  1
  Cr  Cr2  1  0.99750878  -0.00084618  0.33190057  1
  Ni  Ni3  1  0.99892023  0.33240274  0.99873524  1
  Ni  Ni4  1  0.16478945  0.49585324  0.16179402  1
  Cr  Cr5  1  0.99817931  0.33509193  0.33331865  1
  Cr  Cr6  1  0.99807065  0.66441062  0.00069326  1
  Cr  Cr7  1  0.16623459  0.83275608  0.16577299  1
  Cr  Cr8  1  0.99863292  0.66293462  0.33213825  1
  Cr  Cr9  1  0.33541484  0.99859156  0.00012092  1
  Ni  Ni10  1  0.49998286  0.16551649  0.16589087  1
  Cr  Cr11  1  0.33527996  0.00062922  0.33335467  1
  Ni  Ni12  1  0.33246665  0.33424988  0.00008195  1
  Cr  Cr13  1  0.50228721  0.49924039  0.16358999  1
  Cr  Cr14  1  0.33440599  0.33326405  0.33081600  1
  Ni  Ni15  1  0.33478433  0.66357325  0.99768617  1
  Ni  Ni16  1  0.50353711  0.83274485  0.16482155  1
  Cr  Cr17  1  0.33207921  0.66316478  0.33180717  1
  Fe  Fe18  1  0.66593165  0.99797618  0.99903511  1
  Cr  Cr19  1  0.83123790  0.16743092  0.16414046  1
  Ni  Ni20  1  0.66503299  0.00074074  0.33081575  1
  Ni  Ni21  1  0.66567835  0.33250394  0.99888434  1
  Ni  Ni22  1  0.83072297  0.49964793  0.16596162  1
  Ni  Ni23  1  0.66568042  0.33185899  0.33469524  1
  Ni  Ni24  1  0.66487787  0.66694613  0.99801278  1
  Ni  Ni25  1  0.82752681  0.83132558  0.16503285  1
  Ni  Ni26  1  0.66661801  0.66442046  0.33205931  1
  Cr  Cr27  1  0.16694102  0.16586817  0.50149165  1
  Cr  Cr28  1  0.99608688  0.99809828  0.66651690  1
  Cr  Cr29  1  0.16470530  0.16976857  0.83292706  1
  Ni  Ni30  1  0.16578379  0.50010174  0.50290125  1
  Fe  Fe31  1  0.99862661  0.33580996  0.66511242  1
  Ni  Ni32  1  0.16743353  0.49796638  0.83230877  1
  Ni  Ni33  1  0.16649476  0.82996178  0.50210524  1
  Ni  Ni34  1  0.00053193  0.66442820  0.66449848  1
  Cr  Cr35  1  0.16668069  0.83041487  0.83050714  1
  Ni  Ni36  1  0.50160300  0.16832385  0.49906550  1
  Fe  Fe37  1  0.33423748  0.99885137  0.66558346  1
  Cr  Cr38  1  0.49855986  0.16947082  0.83281053  1
  Ni  Ni39  1  0.50100827  0.49744949  0.50095174  1
  Ni  Ni40  1  0.33493182  0.33665584  0.66538871  1
  Ni  Ni41  1  0.49841210  0.49985785  0.83260310  1
  Cr  Cr42  1  0.49860769  0.83071771  0.49951741  1
  Ni  Ni43  1  0.33174327  0.66238571  0.66683921  1
  Ni  Ni44  1  0.50117957  0.82900461  0.83267151  1
  Ni  Ni45  1  0.82931623  0.16880125  0.50006087  1
  Cr  Cr46  1  0.66555454  0.00109100  0.66769960  1
  Fe  Fe47  1  0.83131337  0.16728626  0.83375221  1
  Ni  Ni48  1  0.83032452  0.49761752  0.50023912  1
  Ni  Ni49  1  0.66420515  0.33287354  0.66378205  1
  Cr  Cr50  1  0.83110637  0.49856223  0.83116869  1
  Cr  Cr51  1  0.83164182  0.83000181  0.49732700  1
  Fe  Fe52  1  0.66482323  0.66341504  0.66663814  1
  Ni  Ni53  1  0.83044396  0.83204908  0.83411463  1
" 