3275,Ni52Fe46Cr1_11,-240.341538919994, 223.068487382777,Ni52Fe46Cr1,"# generated using pymatgen
 data_Cr(Fe6Ni7)2
_symmetry_space_group_name_H-M   'P 1'
_cell_length_a   7.40980711
_cell_length_b   7.40980711
_cell_length_c   10.47904971
_cell_angle_alpha   90.00000000
_cell_angle_beta   90.00000000
_cell_angle_gamma   90.00000000
_symmetry_Int_Tables_number   1
_chemical_formula_structural   Cr(Fe6Ni7)2
_chemical_formula_sum   'Cr2 Fe24 Ni28'
_cell_volume   575.35475407
_cell_formula_units_Z   2
loop_
 _symmetry_equiv_pos_site_id
 _symmetry_equiv_pos_as_xyz
  1  'x, y, z'
loop_
 _atom_site_type_symbol
 _atom_site_label
 _atom_site_symmetry_multiplicity
 _atom_site_fract_x
 _atom_site_fract_y
 _atom_site_fract_z
 _atom_site_occupancy
  Ni  Ni0  1  0.00433164  0.00475718  1.00349589  1
  Fe  Fe1  1  0.17089839  0.17132502  0.17095367  1
  Fe  Fe2  1  0.00448885  0.00460884  0.33703225  1
  Ni  Ni3  1  1.00296837  0.33728956  1.00345826  1
  Ni  Ni4  1  0.16956109  0.50507135  0.17151626  1
  Ni  Ni5  1  1.00261981  0.33773325  0.33746656  1
  Ni  Ni6  1  0.00458203  0.66967261  1.00379986  1
  Ni  Ni7  1  0.16952639  0.83725040  0.17013991  1
  Fe  Fe8  1  0.00387532  0.66993494  0.33700260  1
  Ni  Ni9  1  0.33696181  1.00219938  1.00360474  1
  Ni  Ni10  1  0.50447027  0.17075896  0.17081147  1
  Ni  Ni11  1  0.33802935  1.00316413  0.33796379  1
  Fe  Fe12  1  0.33499633  0.33874639  0.00489698  1
  Ni  Ni13  1  0.50447112  0.50207629  0.17047654  1
  Fe  Fe14  1  0.33769562  0.33650864  0.33729318  1
  Ni  Ni15  1  0.33746238  0.67133678  1.00373004  1
  Fe  Fe16  1  0.50267749  0.83638879  0.17041736  1
  Fe  Fe17  1  0.33716173  0.66992899  0.33714100  1
  Fe  Fe18  1  0.67200168  1.00264673  0.00390034  1
  Fe  Fe19  1  0.83766928  0.17206255  0.16994479  1
  Fe  Fe20  1  0.67000403  0.00513590  0.33762739  1
  Fe  Fe21  1  0.67138626  0.33798889  0.00544671  1
  Ni  Ni22  1  0.83755637  0.50359313  0.16939978  1
  Ni  Ni23  1  0.67162915  0.33709165  0.33809449  1
  Fe  Fe24  1  0.67083842  0.67081521  1.00318887  1
  Fe  Fe25  1  0.83746664  0.83612871  0.16956298  1
  Fe  Fe26  1  0.67048834  0.66925912  0.33796164  1
  Ni  Ni27  1  0.17074784  0.16892345  0.50427051  1
  Fe  Fe28  1  0.00538126  1.00217695  0.67132532  1
  Fe  Fe29  1  0.16878520  0.16997056  0.83719938  1
  Fe  Fe30  1  0.17118917  0.50392864  0.50414162  1
  Fe  Fe31  1  1.00370616  0.33825374  0.67048256  1
  Ni  Ni32  1  0.17030282  0.50534937  0.83709437  1
  Ni  Ni33  1  0.17003948  0.83815040  0.50437735  1
  Ni  Ni34  1  0.00434858  0.66964262  0.67050097  1
  Ni  Ni35  1  0.16949305  0.83647515  0.83694963  1
  Ni  Ni36  1  0.50291219  0.17157307  0.50304807  1
  Fe  Fe37  1  0.33493463  1.00121758  0.66907370  1
  Cr  Cr38  1  0.50369840  0.17158805  0.83751136  1
  Ni  Ni39  1  0.50572570  0.50320710  0.50390374  1
  Fe  Fe40  1  0.33684844  0.33954757  0.66947985  1
  Ni  Ni41  1  0.50369192  0.50513907  0.83726352  1
  Ni  Ni42  1  0.50225875  0.83684329  0.50291591  1
  Ni  Ni43  1  0.33753998  0.67072413  0.67035367  1
  Ni  Ni44  1  0.50273729  0.83498687  0.83845417  1
  Fe  Fe45  1  0.83768543  0.17174698  0.50321157  1
  Cr  Cr46  1  0.66994583  1.00276984  0.66897294  1
  Ni  Ni47  1  0.83907635  0.17090337  0.83789176  1
  Ni  Ni48  1  0.83664680  0.50385041  0.50472153  1
  Fe  Fe49  1  0.67108578  0.34095691  0.66908549  1
  Fe  Fe50  1  0.83737853  0.50496037  0.83705459  1
  Fe  Fe51  1  0.83745535  0.83579893  0.50403513  1
  Ni  Ni52  1  0.66971225  0.66940781  0.67090429  1
  Ni  Ni53  1  0.83942875  0.83700844  0.83802368  1
" 