6255,Ni52Fe10Cr37_16,-224.75511206117, 161.364007496301,Ni52Fe10Cr37,"# generated using pymatgen
 data_Cr21Fe5Ni28
_symmetry_space_group_name_H-M   'P 1'
_cell_length_a   7.49179307
_cell_length_b   7.49179307
_cell_length_c   10.59499537
_cell_angle_alpha   90.00000000
_cell_angle_beta   90.00000000
_cell_angle_gamma   90.00000000
_symmetry_Int_Tables_number   1
_chemical_formula_structural   Cr21Fe5Ni28
_chemical_formula_sum   'Cr21 Fe5 Ni28'
_cell_volume   594.66491781
_cell_formula_units_Z   1
loop_
 _symmetry_equiv_pos_site_id
 _symmetry_equiv_pos_as_xyz
  1  'x, y, z'
loop_
 _atom_site_type_symbol
 _atom_site_label
 _atom_site_symmetry_multiplicity
 _atom_site_fract_x
 _atom_site_fract_y
 _atom_site_fract_z
 _atom_site_occupancy
  Cr  Cr0  1  0.99651856  -0.00084046  -0.00102526  1
  Ni  Ni1  1  0.16482526  0.16553127  0.16511723  1
  Cr  Cr2  1  0.99633783  0.00083053  0.33202068  1
  Ni  Ni3  1  0.99806276  0.33401796  -0.00052703  1
  Ni  Ni4  1  0.16509115  0.49859871  0.16315493  1
  Cr  Cr5  1  -0.00148214  0.33097062  0.33178533  1
  Ni  Ni6  1  0.00010281  0.66289101  0.99553147  1
  Cr  Cr7  1  0.16663776  0.83117364  0.16355301  1
  Fe  Fe8  1  0.99699433  0.66357120  0.33310144  1
  Fe  Fe9  1  0.33429651  0.99584746  0.99801657  1
  Cr  Cr10  1  0.50036449  0.16392653  0.16450681  1
  Ni  Ni11  1  0.33389877  0.99707074  0.33170405  1
  Cr  Cr12  1  0.33029707  0.33424595  0.00060272  1
  Ni  Ni13  1  0.49933666  0.50037024  0.16429410  1
  Cr  Cr14  1  0.32962467  0.33257800  0.33015449  1
  Ni  Ni15  1  0.33202069  0.66591461  -0.00143832  1
  Ni  Ni16  1  0.49858789  0.83110983  0.16503289  1
  Cr  Cr17  1  0.33239592  0.66415015  0.33011868  1
  Ni  Ni18  1  0.66337800  0.99685832  0.99772934  1
  Ni  Ni19  1  0.83025541  0.16627732  0.16450898  1
  Ni  Ni20  1  0.66497856  0.99714332  0.33261871  1
  Ni  Ni21  1  0.66635282  0.33113825  -0.00144027  1
  Cr  Cr22  1  0.83031999  0.49778892  0.16344963  1
  Ni  Ni23  1  0.66698397  0.33083264  0.33148382  1
  Ni  Ni24  1  0.66301028  0.66704914  0.99757380  1
  Cr  Cr25  1  0.82967691  0.83110759  0.16511171  1
  Fe  Fe26  1  0.66516321  0.66594592  0.33194316  1
  Ni  Ni27  1  0.16444133  0.16515880  0.50103123  1
  Ni  Ni28  1  -0.00160885  -0.00042439  0.66342752  1
  Cr  Cr29  1  0.16686983  0.16460419  0.82860444  1
  Ni  Ni30  1  0.16231337  0.49622536  0.49954932  1
  Ni  Ni31  1  0.00138292  0.33084270  0.66277117  1
  Ni  Ni32  1  0.16239664  0.49980440  0.83227416  1
  Cr  Cr33  1  0.16425495  0.83394254  0.49850987  1
  Cr  Cr34  1  0.99770151  0.66473438  0.66620724  1
  Ni  Ni35  1  0.16572268  0.83063213  0.83266758  1
  Cr  Cr36  1  0.49670327  0.16415966  0.49886433  1
  Fe  Fe37  1  0.33029966  -0.00039140  0.66587373  1
  Ni  Ni38  1  0.49742107  0.16220727  0.83234715  1
  Cr  Cr39  1  0.49978626  0.49741737  0.49724359  1
  Ni  Ni40  1  0.32725543  0.33096853  0.66411757  1
  Cr  Cr41  1  0.49953739  0.49676724  0.83340408  1
  Fe  Fe42  1  0.50011303  0.83324469  0.49622740  1
  Cr  Cr43  1  0.33157242  0.66411701  0.66663437  1
  Ni  Ni44  1  0.49733330  0.83415899  0.83410288  1
  Ni  Ni45  1  0.83290871  0.16475219  0.49796264  1
  Cr  Cr46  1  0.66701592  0.99605103  0.66564265  1
  Cr  Cr47  1  0.83068060  0.16695446  0.83309372  1
  Ni  Ni48  1  0.83302722  0.49880305  0.49682851  1
  Cr  Cr49  1  0.66663979  0.33126692  0.66575774  1
  Ni  Ni50  1  0.83413494  0.50002425  0.83413889  1
  Ni  Ni51  1  0.83105100  0.83143613  0.49655590  1
  Cr  Cr52  1  0.66586506  0.66776904  0.66505687  1
  Ni  Ni53  1  0.83196916  0.82949281  0.83324155  1
" 