6008,Ni52Fe11Cr35_10,-225.813931652782, 166.298917880092,Ni52Fe11Cr35,"# generated using pymatgen
 data_Cr10Fe3Ni14
_symmetry_space_group_name_H-M   'P 1'
_cell_length_a   7.47623316
_cell_length_b   7.47623316
_cell_length_c   10.57299032
_cell_angle_alpha   90.00000000
_cell_angle_beta   90.00000000
_cell_angle_gamma   90.00000000
_symmetry_Int_Tables_number   1
_chemical_formula_structural   Cr10Fe3Ni14
_chemical_formula_sum   'Cr20 Fe6 Ni28'
_cell_volume   590.96737873
_cell_formula_units_Z   2
loop_
 _symmetry_equiv_pos_site_id
 _symmetry_equiv_pos_as_xyz
  1  'x, y, z'
loop_
 _atom_site_type_symbol
 _atom_site_label
 _atom_site_symmetry_multiplicity
 _atom_site_fract_x
 _atom_site_fract_y
 _atom_site_fract_z
 _atom_site_occupancy
  Cr  Cr0  1  -0.00049117  0.00170943  0.00010424  1
  Ni  Ni1  1  0.16592723  0.16956035  0.16617285  1
  Ni  Ni2  1  0.99730571  0.00371249  0.33233723  1
  Fe  Fe3  1  0.00188128  0.33099977  -0.00008094  1
  Ni  Ni4  1  0.16899111  0.49322225  0.16623671  1
  Ni  Ni5  1  0.99926729  0.32950633  0.33167368  1
  Cr  Cr6  1  -0.00029681  0.66503057  0.99878045  1
  Cr  Cr7  1  0.16678177  0.83486135  0.16801690  1
  Cr  Cr8  1  0.99876084  0.66524859  0.33234464  1
  Ni  Ni9  1  0.33371148  0.00303120  0.99701856  1
  Fe  Fe10  1  0.49911256  0.16802198  0.16661884  1
  Cr  Cr11  1  0.33296936  0.00396858  0.33360416  1
  Ni  Ni12  1  0.33219953  0.33119252  0.99904838  1
  Ni  Ni13  1  0.49718325  0.49653866  0.16702960  1
  Ni  Ni14  1  0.33401939  0.33287246  0.33235122  1
  Cr  Cr15  1  0.33401766  0.66374020  0.99916712  1
  Cr  Cr16  1  0.50150548  0.83444154  0.16484370  1
  Fe  Fe17  1  0.33399104  0.66186344  0.33182341  1
  Ni  Ni18  1  0.66480625  0.00050204  -0.00037505  1
  Ni  Ni19  1  0.83298744  0.16466918  0.16750548  1
  Ni  Ni20  1  0.66877468  0.00371378  0.33170988  1
  Cr  Cr21  1  0.66322967  0.33191568  -0.00026843  1
  Cr  Cr22  1  0.83255543  0.49632099  0.16506403  1
  Ni  Ni23  1  0.66517434  0.33077411  0.33443708  1
  Ni  Ni24  1  0.66437087  0.66656054  -0.00056054  1
  Ni  Ni25  1  0.83020386  0.83675442  0.16586850  1
  Cr  Cr26  1  0.66509716  0.66270204  0.33155814  1
  Ni  Ni27  1  0.16616003  0.16851816  0.49739203  1
  Cr  Cr28  1  0.00002896  0.00116812  0.66535414  1
  Ni  Ni29  1  0.16822999  0.16839606  0.83455681  1
  Cr  Cr30  1  0.16707337  0.49576156  0.49835961  1
  Cr  Cr31  1  0.99936846  0.33100230  0.66638038  1
  Ni  Ni32  1  0.16828798  0.49532527  0.83357830  1
  Cr  Cr33  1  0.16599387  0.83421746  0.49842345  1
  Fe  Fe34  1  0.99871982  0.66448187  0.66704635  1
  Ni  Ni35  1  0.16814799  0.83401340  0.83251233  1
  Ni  Ni36  1  0.50097139  0.16940673  0.49978718  1
  Cr  Cr37  1  0.33310077  0.00330049  0.66801466  1
  Fe  Fe38  1  0.49905425  0.16714919  0.83220348  1
  Ni  Ni39  1  0.50112564  0.49510358  0.49955444  1
  Ni  Ni40  1  0.33499662  0.33259979  0.66672765  1
  Ni  Ni41  1  0.49903219  0.49843419  0.83180371  1
  Cr  Cr42  1  0.50096630  0.83362165  0.49941789  1
  Cr  Cr43  1  0.33364744  0.66400343  0.66735839  1
  Ni  Ni44  1  0.50061221  0.83389140  0.83389641  1
  Ni  Ni45  1  0.83091999  0.16806453  0.49798331  1
  Ni  Ni46  1  0.66565318  0.00207612  0.66678691  1
  Fe  Fe47  1  0.83068747  0.16595978  0.83243873  1
  Ni  Ni48  1  0.83007821  0.49575487  0.50063586  1
  Ni  Ni49  1  0.66378565  0.33288875  0.66409669  1
  Cr  Cr50  1  0.83112217  0.49749668  0.83171201  1
  Cr  Cr51  1  0.83114062  0.83394218  0.50006875  1
  Ni  Ni52  1  0.66479480  0.66373267  0.66646081  1
  Cr  Cr53  1  0.82909082  0.83308217  0.83224681  1
" 