3552,Ni52Fe46Cr1_19,-240.638104503445, 221.527697684145,Ni52Fe46Cr1,"# generated using pymatgen
 data_Cr(Fe6Ni7)2
_symmetry_space_group_name_H-M   'P 1'
_cell_length_a   7.41158441
_cell_length_b   7.41158441
_cell_length_c   10.48156320
_cell_angle_alpha   90.00000000
_cell_angle_beta   90.00000000
_cell_angle_gamma   90.00000000
_symmetry_Int_Tables_number   1
_chemical_formula_structural   Cr(Fe6Ni7)2
_chemical_formula_sum   'Cr2 Fe24 Ni28'
_cell_volume   575.76886420
_cell_formula_units_Z   2
loop_
 _symmetry_equiv_pos_site_id
 _symmetry_equiv_pos_as_xyz
  1  'x, y, z'
loop_
 _atom_site_type_symbol
 _atom_site_label
 _atom_site_symmetry_multiplicity
 _atom_site_fract_x
 _atom_site_fract_y
 _atom_site_fract_z
 _atom_site_occupancy
  Fe  Fe0  1  1.00352104  1.00245751  0.00413557  1
  Fe  Fe1  1  0.16944825  0.16928851  0.17055534  1
  Ni  Ni2  1  0.00514610  0.00448890  0.33713156  1
  Fe  Fe3  1  1.00353439  0.33773310  1.00282463  1
  Fe  Fe4  1  0.16935154  0.50467721  0.17059751  1
  Ni  Ni5  1  0.00417060  0.33620976  0.33636717  1
  Ni  Ni6  1  0.00414370  0.67086178  1.00215588  1
  Ni  Ni7  1  0.17021617  0.83690518  0.17107137  1
  Ni  Ni8  1  0.00451921  0.67052634  0.33769140  1
  Ni  Ni9  1  0.33586400  0.00417953  0.00427552  1
  Fe  Fe10  1  0.50339477  0.17054856  0.17006029  1
  Fe  Fe11  1  0.33485275  0.00387933  0.33658409  1
  Fe  Fe12  1  0.33754349  0.33823075  1.00350192  1
  Fe  Fe13  1  0.50456430  0.50448918  0.17071524  1
  Ni  Ni14  1  0.33654783  0.33738912  0.33703725  1
  Ni  Ni15  1  0.33562223  0.67078748  0.00391885  1
  Fe  Fe16  1  0.50311512  0.83618728  0.16908867  1
  Ni  Ni17  1  0.33684296  0.66998720  0.33667679  1
  Fe  Fe18  1  0.67162125  1.00371222  0.00433314  1
  Ni  Ni19  1  0.83765234  0.17090660  0.17080978  1
  Cr  Cr20  1  0.67090683  0.00381602  0.33599970  1
  Ni  Ni21  1  0.67091720  0.33648157  1.00241911  1
  Fe  Fe22  1  0.83731116  0.50439254  0.17025625  1
  Ni  Ni23  1  0.67050472  0.33801328  0.33823080  1
  Ni  Ni24  1  0.67146081  0.66936839  0.00425573  1
  Ni  Ni25  1  0.83860092  0.83683917  0.16979714  1
  Ni  Ni26  1  0.66986308  0.66901213  0.33692807  1
  Fe  Fe27  1  0.17096144  0.17141164  0.50373298  1
  Fe  Fe28  1  1.00318008  1.00319672  0.67077758  1
  Ni  Ni29  1  0.16965779  0.17046137  0.83722259  1
  Fe  Fe30  1  0.17143197  0.50310797  0.50369038  1
  Ni  Ni31  1  0.00409560  0.33620291  0.67113773  1
  Ni  Ni32  1  0.17115007  0.50373250  0.83696939  1
  Fe  Fe33  1  0.17163139  0.83670464  0.50313170  1
  Fe  Fe34  1  1.00325026  0.67058764  0.67137501  1
  Ni  Ni35  1  0.16872193  0.83703479  0.83696088  1
  Ni  Ni36  1  0.50307294  0.17231483  0.50442041  1
  Fe  Fe37  1  0.33652053  0.00438994  0.67022915  1
  Fe  Fe38  1  0.50390279  0.17211743  0.83688679  1
  Ni  Ni39  1  0.50392535  0.50327858  0.50297591  1
  Fe  Fe40  1  0.33784762  0.33771153  0.66997941  1
  Ni  Ni41  1  0.50357725  0.50244380  0.83679455  1
  Fe  Fe42  1  0.50315899  0.83563204  0.50519485  1
  Ni  Ni43  1  0.33672394  0.66968352  0.67062790  1
  Cr  Cr44  1  0.50380223  0.83531112  0.83742972  1
  Fe  Fe45  1  0.83717171  0.17194955  0.50431573  1
  Ni  Ni46  1  0.67125376  0.00449175  0.67099650  1
  Ni  Ni47  1  0.83766280  0.17047984  0.83666131  1
  Fe  Fe48  1  0.83609793  0.50317641  0.50366399  1
  Fe  Fe49  1  0.67005877  0.33764107  0.67057792  1
  Ni  Ni50  1  0.83649867  0.50338390  0.83715367  1
  Fe  Fe51  1  0.83643719  0.83609932  0.50434228  1
  Ni  Ni52  1  0.67007284  0.67077471  0.67004087  1
  Ni  Ni53  1  0.83894682  0.83736122  0.83734142  1
" 