8909,Ni52Fe35Cr11_17,-236.951912669454, 210.683586291491,Ni52Fe35Cr11,"# generated using pymatgen
 data_Cr7Fe19Ni28
_symmetry_space_group_name_H-M   'P 1'
_cell_length_a   7.42712432
_cell_length_b   7.42712432
_cell_length_c   10.50353995
_cell_angle_alpha   90.00000000
_cell_angle_beta   90.00000000
_cell_angle_gamma   90.00000000
_symmetry_Int_Tables_number   1
_chemical_formula_structural   Cr7Fe19Ni28
_chemical_formula_sum   'Cr7 Fe19 Ni28'
_cell_volume   579.39811628
_cell_formula_units_Z   1
loop_
 _symmetry_equiv_pos_site_id
 _symmetry_equiv_pos_as_xyz
  1  'x, y, z'
loop_
 _atom_site_type_symbol
 _atom_site_label
 _atom_site_symmetry_multiplicity
 _atom_site_fract_x
 _atom_site_fract_y
 _atom_site_fract_z
 _atom_site_occupancy
  Ni  Ni0  1  0.00396119  0.00364555  1.00160903  1
  Ni  Ni1  1  0.17051551  0.16994064  0.16907547  1
  Ni  Ni2  1  0.00346504  0.00305304  0.33712428  1
  Ni  Ni3  1  0.00479513  0.33596000  1.00095809  1
  Ni  Ni4  1  0.17023264  0.50165985  0.16942018  1
  Ni  Ni5  1  0.00400706  0.33597261  0.33693404  1
  Fe  Fe6  1  0.00438463  0.66949322  1.00126468  1
  Ni  Ni7  1  0.17183621  0.83646303  0.17019943  1
  Ni  Ni8  1  0.00363697  0.66903615  0.33757503  1
  Ni  Ni9  1  0.33654136  1.00210074  1.00210810  1
  Ni  Ni10  1  0.50063103  0.16726919  0.17058169  1
  Ni  Ni11  1  0.33574439  0.00408506  0.33519586  1
  Fe  Fe12  1  0.33310819  0.33362937  0.00375153  1
  Fe  Fe13  1  0.49943938  0.50361907  0.17044425  1
  Ni  Ni14  1  0.33593726  0.33567587  0.33557327  1
  Fe  Fe15  1  0.33483713  0.67102889  0.00358363  1
  Ni  Ni16  1  0.50145054  0.83699404  0.16902947  1
  Fe  Fe17  1  0.33472730  0.66929278  0.33451235  1
  Ni  Ni18  1  0.66756258  1.00223344  1.00134958  1
  Fe  Fe19  1  0.83755620  0.16777950  0.16986786  1
  Ni  Ni20  1  0.66885222  0.00371944  0.33554942  1
  Cr  Cr21  1  0.66965621  0.33397901  0.00289360  1
  Cr  Cr22  1  0.83788664  0.50222897  0.17022764  1
  Fe  Fe23  1  0.66928850  0.33470922  0.33705571  1
  Fe  Fe24  1  0.66884836  0.67250565  1.00169232  1
  Cr  Cr25  1  0.83512976  0.83723519  0.16987761  1
  Ni  Ni26  1  0.66914863  0.66884248  0.33727723  1
  Ni  Ni27  1  0.16896532  0.16993764  0.50287342  1
  Fe  Fe28  1  0.00326319  1.00256655  0.66899106  1
  Ni  Ni29  1  0.16908794  0.17000086  0.83611012  1
  Fe  Fe30  1  0.16780691  0.50233110  0.50237365  1
  Fe  Fe31  1  0.00318513  0.33664162  0.66973027  1
  Ni  Ni32  1  0.16671279  0.50152362  0.83595585  1
  Fe  Fe33  1  0.16609351  0.83655954  0.50196447  1
  Ni  Ni34  1  0.00288864  0.66875353  0.66981253  1
  Fe  Fe35  1  0.16937195  0.83648027  0.83655171  1
  Fe  Fe36  1  0.50192534  0.17060821  0.50073300  1
  Fe  Fe37  1  0.33423055  0.00298352  0.67054776  1
  Ni  Ni38  1  0.50014254  0.16557359  0.83588771  1
  Fe  Fe39  1  0.50321545  0.50173685  0.50206701  1
  Fe  Fe40  1  0.33380439  0.33571410  0.66862413  1
  Cr  Cr41  1  0.50221204  0.50500014  0.83621954  1
  Cr  Cr42  1  0.50320577  0.83522705  0.50135584  1
  Fe  Fe43  1  0.33506525  0.66936410  0.66996664  1
  Ni  Ni44  1  0.50300664  0.83708717  0.83734525  1
  Ni  Ni45  1  0.83865844  0.16990073  0.49993592  1
  Cr  Cr46  1  0.66962228  0.00269128  0.67113892  1
  Ni  Ni47  1  0.83882492  0.16897216  0.83744213  1
  Ni  Ni48  1  0.83665447  0.50397846  0.50242513  1
  Cr  Cr49  1  0.66992548  0.33636613  0.66817990  1
  Ni  Ni50  1  0.83937292  0.50438498  0.83538483  1
  Ni  Ni51  1  0.83684058  0.83418342  0.50211062  1
  Ni  Ni52  1  0.67146263  0.66888356  0.67035157  1
  Fe  Fe53  1  0.83640891  0.83553188  0.83632372  1
" 