8474,Ni52Fe35Cr11_11,-236.348754535278, 210.431947654201,Ni52Fe35Cr11,"# generated using pymatgen
 data_Cr7Fe19Ni28
_symmetry_space_group_name_H-M   'P 1'
_cell_length_a   7.42446955
_cell_length_b   7.42446955
_cell_length_c   10.49978553
_cell_angle_alpha   90.00000000
_cell_angle_beta   90.00000000
_cell_angle_gamma   90.00000000
_symmetry_Int_Tables_number   1
_chemical_formula_structural   Cr7Fe19Ni28
_chemical_formula_sum   'Cr7 Fe19 Ni28'
_cell_volume   578.77703192
_cell_formula_units_Z   1
loop_
 _symmetry_equiv_pos_site_id
 _symmetry_equiv_pos_as_xyz
  1  'x, y, z'
loop_
 _atom_site_type_symbol
 _atom_site_label
 _atom_site_symmetry_multiplicity
 _atom_site_fract_x
 _atom_site_fract_y
 _atom_site_fract_z
 _atom_site_occupancy
  Ni  Ni0  1  0.00289740  0.00378345  0.00310985  1
  Fe  Fe1  1  0.16803343  0.16920843  0.16862204  1
  Ni  Ni2  1  1.00112398  0.00424521  0.33523561  1
  Fe  Fe3  1  0.00356740  0.33467632  0.00498655  1
  Ni  Ni4  1  0.16954143  0.50256562  0.16937718  1
  Ni  Ni5  1  1.00056724  0.33484084  0.33530005  1
  Cr  Cr6  1  1.00155075  0.67084653  0.00298527  1
  Fe  Fe7  1  0.17064219  0.83739762  0.16934095  1
  Cr  Cr8  1  1.00271992  0.66927067  0.33762187  1
  Ni  Ni9  1  0.33585305  0.00368357  0.00349703  1
  Ni  Ni10  1  0.50349662  0.16790386  0.16873245  1
  Fe  Fe11  1  0.33659591  1.00047644  0.33579787  1
  Ni  Ni12  1  0.33717021  0.33602289  0.00349128  1
  Fe  Fe13  1  0.50347521  0.50407129  0.16880591  1
  Cr  Cr14  1  0.33680488  0.33764286  0.33659650  1
  Ni  Ni15  1  0.33880248  0.66889544  0.00352101  1
  Fe  Fe16  1  0.50323959  0.83545383  0.16886383  1
  Ni  Ni17  1  0.33828437  0.66979675  0.33658506  1
  Ni  Ni18  1  0.66985212  1.00214404  0.00388643  1
  Fe  Fe19  1  0.83679445  0.16943905  0.16982050  1
  Fe  Fe20  1  0.66991772  0.00299876  0.33560627  1
  Fe  Fe21  1  0.66873301  0.33715150  0.00412710  1
  Ni  Ni22  1  0.83608691  0.50173089  0.16939490  1
  Fe  Fe23  1  0.67151484  0.33669501  0.33678539  1
  Fe  Fe24  1  0.66763841  0.67018801  1.00259943  1
  Ni  Ni25  1  0.83511794  0.83768287  0.16896071  1
  Ni  Ni26  1  0.66813079  0.66923490  0.33579465  1
  Cr  Cr27  1  0.16873226  0.16820920  0.50419831  1
  Ni  Ni28  1  0.00319762  1.00155588  0.67025485  1
  Fe  Fe29  1  0.17007102  0.16749881  0.83638626  1
  Ni  Ni30  1  0.16919844  0.50588394  0.50423261  1
  Fe  Fe31  1  1.00202444  0.33785693  0.66794957  1
  Cr  Cr32  1  0.17005623  0.50382034  0.83440448  1
  Ni  Ni33  1  0.17051781  0.83483120  0.50287400  1
  Ni  Ni34  1  1.00140048  0.67034273  0.66812601  1
  Ni  Ni35  1  0.17096358  0.83808536  0.83605142  1
  Ni  Ni36  1  0.50592019  0.16846341  0.50397078  1
  Ni  Ni37  1  0.33562750  1.00243980  0.66987265  1
  Cr  Cr38  1  0.50159862  0.16837810  0.83542316  1
  Ni  Ni39  1  0.50365650  0.50358510  0.50331068  1
  Fe  Fe40  1  0.33701396  0.33764545  0.66868836  1
  Ni  Ni41  1  0.50420109  0.50507417  0.83733777  1
  Fe  Fe42  1  0.50244761  0.83519732  0.50345805  1
  Ni  Ni43  1  0.33728305  0.66960093  0.66849663  1
  Ni  Ni44  1  0.50156498  0.83519746  0.83686511  1
  Ni  Ni45  1  0.83403294  0.16978256  0.50131027  1
  Fe  Fe46  1  0.66925547  1.00056514  0.66836495  1
  Cr  Cr47  1  0.83715878  0.16942198  0.83700173  1
  Ni  Ni48  1  0.83574936  0.50172143  0.50344498  1
  Fe  Fe49  1  0.66956343  0.33840592  0.66769238  1
  Ni  Ni50  1  0.83444255  0.50355712  0.83576220  1
  Fe  Fe51  1  0.83586114  0.83658035  0.50323431  1
  Ni  Ni52  1  0.66991755  0.66818948  0.67083144  1
  Fe  Fe53  1  0.83523157  0.83490360  0.83585173  1
" 