4860,Ni52Fe10Cr37_11,-224.575410230973, 158.641952788606,Ni52Fe10Cr37,"# generated using pymatgen
 data_Cr21Fe5Ni28
_symmetry_space_group_name_H-M   'P 1'
_cell_length_a   7.48661727
_cell_length_b   7.48661727
_cell_length_c   10.58767569
_cell_angle_alpha   90.00000000
_cell_angle_beta   90.00000000
_cell_angle_gamma   90.00000000
_symmetry_Int_Tables_number   1
_chemical_formula_structural   Cr21Fe5Ni28
_chemical_formula_sum   'Cr21 Fe5 Ni28'
_cell_volume   593.43327418
_cell_formula_units_Z   1
loop_
 _symmetry_equiv_pos_site_id
 _symmetry_equiv_pos_as_xyz
  1  'x, y, z'
loop_
 _atom_site_type_symbol
 _atom_site_label
 _atom_site_symmetry_multiplicity
 _atom_site_fract_x
 _atom_site_fract_y
 _atom_site_fract_z
 _atom_site_occupancy
  Cr  Cr0  1  0.99747898  -0.00113648  0.99850708  1
  Ni  Ni1  1  0.16561497  0.16422514  0.16470810  1
  Cr  Cr2  1  0.00067974  0.99606522  0.33435676  1
  Ni  Ni3  1  0.99797356  0.33280077  0.99663225  1
  Cr  Cr4  1  0.16335750  0.50023457  0.16238408  1
  Cr  Cr5  1  -0.00069104  0.33247354  0.33273298  1
  Ni  Ni6  1  0.99657829  0.66503578  -0.00039872  1
  Ni  Ni7  1  0.16424645  0.83063123  0.16460235  1
  Ni  Ni8  1  0.99678098  0.66678908  0.33169223  1
  Cr  Cr9  1  0.33399797  -0.00037304  0.00091291  1
  Ni  Ni10  1  0.50033000  0.16561587  0.16488948  1
  Cr  Cr11  1  0.33013878  0.00100246  0.33013445  1
  Cr  Cr12  1  0.33201770  0.32982882  0.00013852  1
  Ni  Ni13  1  0.50047395  0.49903817  0.16730604  1
  Cr  Cr14  1  0.33418554  0.33007773  0.33243346  1
  Ni  Ni15  1  0.33296807  0.66672362  -0.00069653  1
  Fe  Fe16  1  0.50005575  0.83087711  0.16442745  1
  Cr  Cr17  1  0.33165006  0.66488273  0.33329711  1
  Ni  Ni18  1  0.66487250  0.99766961  0.99666973  1
  Cr  Cr19  1  0.83123809  0.16623467  0.16541935  1
  Cr  Cr20  1  0.66532047  -0.00130453  0.33213214  1
  Cr  Cr21  1  0.66643140  0.33198932  0.99842261  1
  Ni  Ni22  1  0.83090101  0.50080469  0.16600956  1
  Ni  Ni23  1  0.66320166  0.33404020  0.33238569  1
  Cr  Cr24  1  0.66770791  0.66628354  0.99859577  1
  Ni  Ni25  1  0.83272916  0.82988684  0.16572990  1
  Ni  Ni26  1  0.66776083  0.66323863  0.33068535  1
  Fe  Fe27  1  0.16437818  0.16645804  0.50109832  1
  Ni  Ni28  1  0.99698514  -0.00019667  0.66390108  1
  Ni  Ni29  1  0.16256010  0.16648074  0.83017672  1
  Ni  Ni30  1  0.16711656  0.49951467  0.50121595  1
  Fe  Fe31  1  0.99705757  0.32940690  0.66585549  1
  Cr  Cr32  1  0.16486856  0.49792114  0.83271522  1
  Ni  Ni33  1  0.16334225  0.83036992  0.49932081  1
  Cr  Cr34  1  0.99664535  0.66676166  0.66482036  1
  Cr  Cr35  1  0.16667262  0.83116172  0.83273721  1
  Ni  Ni36  1  0.50191542  0.16807419  0.50048419  1
  Cr  Cr37  1  0.33116788  0.00077813  0.66499695  1
  Fe  Fe38  1  0.50052622  0.16429244  0.83045923  1
  Ni  Ni39  1  0.49745323  0.49539381  0.49921588  1
  Ni  Ni40  1  0.33200415  0.33124803  0.66321134  1
  Cr  Cr41  1  0.49663436  0.49942743  0.82940214  1
  Cr  Cr42  1  0.50048879  0.83192892  0.49950326  1
  Fe  Fe43  1  0.33257641  0.66499226  0.66397989  1
  Ni  Ni44  1  0.50042110  0.83437880  0.83292021  1
  Ni  Ni45  1  0.82970578  0.16418922  0.50127887  1
  Ni  Ni46  1  0.66771738  0.00075579  0.66711008  1
  Ni  Ni47  1  0.83179412  0.16464710  0.83016380  1
  Cr  Cr48  1  0.83042211  0.49663498  0.49629664  1
  Ni  Ni49  1  0.66394414  0.32998250  0.66495221  1
  Ni  Ni50  1  0.83316872  0.49569170  0.83296563  1
  Ni  Ni51  1  0.83373936  0.83473187  0.49854109  1
  Cr  Cr52  1  0.66748588  0.66543844  0.66622989  1
  Ni  Ni53  1  0.83063163  0.83532426  0.83176072  1
" 