141,Ni52Fe35Cr11_15,-236.376901552158, 202.285375011344,Ni52Fe35Cr11,"# generated using pymatgen
 data_Cr7Fe19Ni28
_symmetry_space_group_name_H-M   'P 1'
_cell_length_a   7.42672368
_cell_length_b   7.42672368
_cell_length_c   10.50297335
_cell_angle_alpha   90.00000000
_cell_angle_beta   90.00000000
_cell_angle_gamma   90.00000000
_symmetry_Int_Tables_number   1
_chemical_formula_structural   Cr7Fe19Ni28
_chemical_formula_sum   'Cr7 Fe19 Ni28'
_cell_volume   579.30435678
_cell_formula_units_Z   1
loop_
 _symmetry_equiv_pos_site_id
 _symmetry_equiv_pos_as_xyz
  1  'x, y, z'
loop_
 _atom_site_type_symbol
 _atom_site_label
 _atom_site_symmetry_multiplicity
 _atom_site_fract_x
 _atom_site_fract_y
 _atom_site_fract_z
 _atom_site_occupancy
  Ni  Ni0  1  0.00296088  1.00143910  1.00140569  1
  Cr  Cr1  1  0.16772744  0.16822260  0.16937591  1
  Fe  Fe2  1  1.00101119  1.00176199  0.33526496  1
  Fe  Fe3  1  1.00045521  0.33538869  1.00208259  1
  Cr  Cr4  1  0.16989800  0.50368325  0.16922761  1
  Ni  Ni5  1  1.00010179  0.33734845  0.33721622  1
  Ni  Ni6  1  0.00349919  0.67040633  1.00215032  1
  Ni  Ni7  1  0.16961418  0.83567014  0.16928964  1
  Fe  Fe8  1  0.00341552  0.67019377  0.33558449  1
  Ni  Ni9  1  0.33486102  0.00283981  1.00233154  1
  Fe  Fe10  1  0.50424314  0.16961118  0.16983792  1
  Ni  Ni11  1  0.33657614  1.00191462  0.33574213  1
  Fe  Fe12  1  0.33801390  0.33551462  1.00090420  1
  Ni  Ni13  1  0.50253941  0.50156948  0.16905178  1
  Ni  Ni14  1  0.33804850  0.33686200  0.33750700  1
  Ni  Ni15  1  0.33382466  0.66974296  1.00184792  1
  Fe  Fe16  1  0.50118758  0.83771716  0.16913010  1
  Ni  Ni17  1  0.33471573  0.66935060  0.33698424  1
  Ni  Ni18  1  0.67053574  0.00573047  0.00305114  1
  Ni  Ni19  1  0.83426322  0.16957929  0.16908214  1
  Ni  Ni20  1  0.67042300  0.00496472  0.33549564  1
  Ni  Ni21  1  0.66988388  0.33484656  0.00280145  1
  Ni  Ni22  1  0.83561434  0.50028637  0.16946693  1
  Ni  Ni23  1  0.67011666  0.33502296  0.33704269  1
  Cr  Cr24  1  0.67091698  0.66827316  0.00441074  1
  Ni  Ni25  1  0.83775716  0.83835453  0.16840410  1
  Cr  Cr26  1  0.67029124  0.66809794  0.33407724  1
  Cr  Cr27  1  0.16909592  0.16921593  0.50115668  1
  Fe  Fe28  1  0.00351810  0.00311523  0.67089074  1
  Ni  Ni29  1  0.16861441  0.16914395  0.83655181  1
  Ni  Ni30  1  0.16979184  0.50438977  0.50230413  1
  Fe  Fe31  1  0.00328874  0.33549635  0.66929083  1
  Fe  Fe32  1  0.16956235  0.50155328  0.83575202  1
  Ni  Ni33  1  0.16809372  0.83408455  0.50219680  1
  Fe  Fe34  1  0.00486575  0.66965655  0.66997020  1
  Ni  Ni35  1  0.16906520  0.83547485  0.83640929  1
  Ni  Ni36  1  0.50518628  0.17087980  0.50230615  1
  Ni  Ni37  1  0.33447499  0.00462209  0.66990369  1
  Ni  Ni38  1  0.50354052  0.16988148  0.83638243  1
  Ni  Ni39  1  0.50214446  0.50138941  0.50400322  1
  Ni  Ni40  1  0.33644235  0.33527004  0.66968752  1
  Fe  Fe41  1  0.50141449  0.49977571  0.83598684  1
  Cr  Cr42  1  0.50115544  0.83695100  0.50315297  1
  Fe  Fe43  1  0.33328194  0.66794548  0.66918647  1
  Cr  Cr44  1  0.50192244  0.83618604  0.83625502  1
  Ni  Ni45  1  0.83456672  0.16951325  0.50241415  1
  Fe  Fe46  1  0.66987810  0.00650798  0.66953778  1
  Ni  Ni47  1  0.83613792  0.17055921  0.83685823  1
  Fe  Fe48  1  0.83694459  0.50118366  0.50306883  1
  Fe  Fe49  1  0.66844938  0.33456473  0.66960111  1
  Fe  Fe50  1  0.83739828  0.50121877  0.83630010  1
  Fe  Fe51  1  0.83754454  0.83745864  0.50288617  1
  Fe  Fe52  1  0.66977652  0.66724194  0.66932988  1
  Fe  Fe53  1  0.83794778  0.83892601  0.83644902  1
" 