6360,Ni52Fe46Cr1_7,-240.047260351132, 218.91682025017,Ni52Fe46Cr1,"# generated using pymatgen
 data_Cr(Fe6Ni7)2
_symmetry_space_group_name_H-M   'P 1'
_cell_length_a   7.40636540
_cell_length_b   7.40636540
_cell_length_c   10.47418239
_cell_angle_alpha   90.00000000
_cell_angle_beta   90.00000000
_cell_angle_gamma   90.00000000
_symmetry_Int_Tables_number   1
_chemical_formula_structural   Cr(Fe6Ni7)2
_chemical_formula_sum   'Cr2 Fe24 Ni28'
_cell_volume   574.55340232
_cell_formula_units_Z   2
loop_
 _symmetry_equiv_pos_site_id
 _symmetry_equiv_pos_as_xyz
  1  'x, y, z'
loop_
 _atom_site_type_symbol
 _atom_site_label
 _atom_site_symmetry_multiplicity
 _atom_site_fract_x
 _atom_site_fract_y
 _atom_site_fract_z
 _atom_site_occupancy
  Cr  Cr0  1  1.00351850  1.00379150  1.00352383  1
  Fe  Fe1  1  0.16911999  0.17084081  0.17148620  1
  Ni  Ni2  1  0.00481139  0.00441952  0.33932401  1
  Fe  Fe3  1  1.00192837  0.33893723  1.00356443  1
  Fe  Fe4  1  0.16784106  0.50360582  0.17256495  1
  Ni  Ni5  1  1.00331373  0.33750430  0.33744717  1
  Fe  Fe6  1  0.99980865  0.66994619  0.00487604  1
  Ni  Ni7  1  0.17163321  0.83755591  0.17306138  1
  Ni  Ni8  1  0.00420414  0.67039944  0.33635805  1
  Fe  Fe9  1  0.33994307  0.00593088  0.00440135  1
  Fe  Fe10  1  0.50592933  0.17040727  0.17112854  1
  Ni  Ni11  1  0.33729436  1.00374422  0.33593200  1
  Fe  Fe12  1  0.33925681  0.33583375  1.00336622  1
  Fe  Fe13  1  0.50718249  0.50371504  0.17035954  1
  Fe  Fe14  1  0.33765430  0.33695061  0.33771764  1
  Cr  Cr15  1  0.33573073  0.67160449  1.00375656  1
  Fe  Fe16  1  0.50731298  0.83799222  0.17211411  1
  Fe  Fe17  1  0.33805662  0.67062020  0.33771222  1
  Ni  Ni18  1  0.67009634  0.00470523  0.00421389  1
  Ni  Ni19  1  0.83652487  0.17133868  0.17190331  1
  Ni  Ni20  1  0.67046183  0.00475915  0.33678787  1
  Ni  Ni21  1  0.67110053  0.33754611  1.00328464  1
  Ni  Ni22  1  0.83614624  0.50368152  0.17081277  1
  Ni  Ni23  1  0.67140192  0.33786591  0.33815856  1
  Ni  Ni24  1  0.66997610  0.67015784  1.00293829  1
  Ni  Ni25  1  0.83712056  0.83733402  0.17224954  1
  Ni  Ni26  1  0.67101663  0.66966319  0.33772172  1
  Fe  Fe27  1  0.17066783  0.16962871  0.50520904  1
  Fe  Fe28  1  1.00191450  0.00506099  0.67107037  1
  Ni  Ni29  1  0.17260584  0.17177940  0.83682191  1
  Ni  Ni30  1  0.17241341  0.50325740  0.50387428  1
  Ni  Ni31  1  1.00275439  0.33878166  0.67116438  1
  Fe  Fe32  1  0.16830131  0.50249764  0.83560164  1
  Fe  Fe33  1  0.17001458  0.83702060  0.50377491  1
  Ni  Ni34  1  0.00521394  0.67023294  0.67172326  1
  Fe  Fe35  1  0.16921447  0.83735909  0.83598033  1
  Fe  Fe36  1  0.50464531  0.16877006  0.50397430  1
  Ni  Ni37  1  0.33758339  1.00265703  0.67272261  1
  Fe  Fe38  1  0.50660845  0.17167269  0.83721207  1
  Fe  Fe39  1  0.50637124  0.50405463  0.50472186  1
  Fe  Fe40  1  0.33740649  0.33669841  0.67079684  1
  Ni  Ni41  1  0.50371681  0.50371934  0.83556577  1
  Ni  Ni42  1  0.50380446  0.83744481  0.50347678  1
  Fe  Fe43  1  0.33836652  0.67007842  0.67036654  1
  Fe  Fe44  1  0.50680717  0.83859470  0.83607368  1
  Ni  Ni45  1  0.83747112  0.17040703  0.50400631  1
  Ni  Ni46  1  0.66923848  0.00559236  0.67119191  1
  Ni  Ni47  1  0.83786928  0.17132867  0.83678214  1
  Fe  Fe48  1  0.83909493  0.50517147  0.50389594  1
  Ni  Ni49  1  0.67187857  0.33706578  0.67053707  1
  Ni  Ni50  1  0.83513479  0.50423267  0.83729020  1
  Ni  Ni51  1  0.83604796  0.83873458  0.50322939  1
  Fe  Fe52  1  0.67216457  0.67156143  0.67052873  1
  Ni  Ni53  1  0.83552322  0.83696422  0.83686070  1
" 