8733,Ni52Fe35Cr11_6,-236.646277345966, 206.529861915661,Ni52Fe35Cr11,"# generated using pymatgen
 data_Cr7Fe19Ni28
_symmetry_space_group_name_H-M   'P 1'
_cell_length_a   7.42678832
_cell_length_b   7.42678832
_cell_length_c   10.50306477
_cell_angle_alpha   90.00000000
_cell_angle_beta   90.00000000
_cell_angle_gamma   90.00000000
_symmetry_Int_Tables_number   1
_chemical_formula_structural   Cr7Fe19Ni28
_chemical_formula_sum   'Cr7 Fe19 Ni28'
_cell_volume   579.31948496
_cell_formula_units_Z   1
loop_
 _symmetry_equiv_pos_site_id
 _symmetry_equiv_pos_as_xyz
  1  'x, y, z'
loop_
 _atom_site_type_symbol
 _atom_site_label
 _atom_site_symmetry_multiplicity
 _atom_site_fract_x
 _atom_site_fract_y
 _atom_site_fract_z
 _atom_site_occupancy
  Ni  Ni0  1  0.00575983  0.00370094  0.00333638  1
  Fe  Fe1  1  0.17212896  0.16831429  0.16884731  1
  Ni  Ni2  1  1.00248126  0.00427033  0.33553419  1
  Ni  Ni3  1  0.00343622  0.33552588  0.00482857  1
  Ni  Ni4  1  0.17143598  0.50600026  0.16795455  1
  Cr  Cr5  1  1.00206376  0.33771628  0.33354295  1
  Ni  Ni6  1  0.00382151  0.67002363  0.00437898  1
  Ni  Ni7  1  0.16769723  0.83744096  0.17035752  1
  Fe  Fe8  1  0.00365839  0.67388326  0.33492361  1
  Ni  Ni9  1  0.33595820  1.00189537  1.00223412  1
  Ni  Ni10  1  0.50338982  0.16889000  0.16818764  1
  Ni  Ni11  1  0.33749155  1.00060471  0.33604998  1
  Fe  Fe12  1  0.33565787  0.33757136  0.00361508  1
  Ni  Ni13  1  0.50268225  0.50027429  0.16926221  1
  Fe  Fe14  1  0.33626941  0.33555874  0.33367429  1
  Ni  Ni15  1  0.33660527  0.67103115  0.00344307  1
  Fe  Fe16  1  0.50136918  0.83489787  0.16910697  1
  Ni  Ni17  1  0.33641326  0.67036849  0.33487704  1
  Fe  Fe18  1  0.66932753  1.00050661  0.00340470  1
  Fe  Fe19  1  0.83630919  0.16825874  0.16703733  1
  Fe  Fe20  1  0.66972983  1.00067512  0.33586994  1
  Ni  Ni21  1  0.66911539  0.33623762  0.00503283  1
  Fe  Fe22  1  0.83511380  0.50584284  0.16754070  1
  Fe  Fe23  1  0.66668635  0.33326036  0.33388554  1
  Ni  Ni24  1  0.66656107  0.66844966  0.00280013  1
  Ni  Ni25  1  0.83770743  0.83706727  0.16696109  1
  Ni  Ni26  1  0.66754327  0.67042513  0.33398226  1
  Cr  Cr27  1  0.17359195  0.16727441  0.50417407  1
  Ni  Ni28  1  0.00392972  1.00263745  0.66945496  1
  Fe  Fe29  1  0.17033098  0.17033866  0.83666751  1
  Ni  Ni30  1  0.16982938  0.50534043  0.50399917  1
  Ni  Ni31  1  0.00417035  0.33611793  0.66936212  1
  Fe  Fe32  1  0.16946650  0.50511165  0.83688392  1
  Ni  Ni33  1  0.16777003  0.83587196  0.50182734  1
  Ni  Ni34  1  0.00524160  0.67051295  0.66850519  1
  Ni  Ni35  1  0.16877708  0.83754181  0.83635178  1
  Ni  Ni36  1  0.50420288  0.16780177  0.50271618  1
  Fe  Fe37  1  0.33534062  1.00047717  0.67094487  1
  Fe  Fe38  1  0.50091702  0.16989710  0.83782704  1
  Cr  Cr39  1  0.50057210  0.49991243  0.50190190  1
  Fe  Fe40  1  0.33606586  0.33750706  0.67145411  1
  Ni  Ni41  1  0.50146227  0.50096102  0.83649998  1
  Fe  Fe42  1  0.50092362  0.83440285  0.50118063  1
  Ni  Ni43  1  0.33556253  0.67035231  0.66972174  1
  Fe  Fe44  1  0.50119269  0.83297064  0.83780923  1
  Fe  Fe45  1  0.83755539  0.16911571  0.50340926  1
  Cr  Cr46  1  0.66804366  1.00027670  0.66870476  1
  Cr  Cr47  1  0.83601101  0.16808772  0.83699194  1
  Cr  Cr48  1  0.83465925  0.50648907  0.50366874  1
  Ni  Ni49  1  0.66857742  0.33460181  0.66796797  1
  Cr  Cr50  1  0.83391123  0.50406795  0.83621527  1
  Ni  Ni51  1  0.83783644  0.83725248  0.50354919  1
  Ni  Ni52  1  0.66637742  0.66875079  0.67057912  1
  Fe  Fe53  1  0.83762929  0.83399914  0.83732521  1
" 