1666,Ni52Fe46Cr1_13,-239.470841135315, 218.892823643871,Ni52Fe46Cr1,"# generated using pymatgen
 data_Cr(Fe6Ni7)2
_symmetry_space_group_name_H-M   'P 1'
_cell_length_a   7.40272777
_cell_length_b   7.40272777
_cell_length_c   10.46903801
_cell_angle_alpha   90.00000000
_cell_angle_beta   90.00000000
_cell_angle_gamma   90.00000000
_symmetry_Int_Tables_number   1
_chemical_formula_structural   Cr(Fe6Ni7)2
_chemical_formula_sum   'Cr2 Fe24 Ni28'
_cell_volume   573.70724439
_cell_formula_units_Z   2
loop_
 _symmetry_equiv_pos_site_id
 _symmetry_equiv_pos_as_xyz
  1  'x, y, z'
loop_
 _atom_site_type_symbol
 _atom_site_label
 _atom_site_symmetry_multiplicity
 _atom_site_fract_x
 _atom_site_fract_y
 _atom_site_fract_z
 _atom_site_occupancy
  Cr  Cr0  1  0.00581931  1.00411865  1.00376961  1
  Fe  Fe1  1  0.17138110  0.17143745  0.17117396  1
  Ni  Ni2  1  0.00475548  1.00293382  0.33908585  1
  Ni  Ni3  1  1.00395782  0.33772386  0.00438659  1
  Fe  Fe4  1  0.17102504  0.50400998  0.17024951  1
  Fe  Fe5  1  0.00548594  0.33665159  0.33671758  1
  Fe  Fe6  1  0.00551446  0.66891961  0.00441214  1
  Ni  Ni7  1  0.17284798  0.83627795  0.17136657  1
  Ni  Ni8  1  1.00222145  0.67145031  0.33665649  1
  Ni  Ni9  1  0.33772636  0.00499901  0.00445876  1
  Fe  Fe10  1  0.50456992  0.17089394  0.17067458  1
  Ni  Ni11  1  0.33661838  0.00654873  0.33636717  1
  Ni  Ni12  1  0.33831997  0.33695793  1.00410803  1
  Fe  Fe13  1  0.50505081  0.50441995  0.17038685  1
  Ni  Ni14  1  0.33962745  0.33708457  0.33753430  1
  Ni  Ni15  1  0.33902967  0.67117415  1.00428499  1
  Ni  Ni16  1  0.50274454  0.83770533  0.17029425  1
  Fe  Fe17  1  0.33542160  0.67039902  0.33601409  1
  Fe  Fe18  1  0.66918688  0.00556970  1.00383852  1
  Ni  Ni19  1  0.83760085  0.17216221  0.17143130  1
  Fe  Fe20  1  0.67177712  0.00570511  0.33752561  1
  Ni  Ni21  1  0.67069326  0.33908930  1.00386177  1
  Ni  Ni22  1  0.83855780  0.50264785  0.17033560  1
  Fe  Fe23  1  0.67203612  0.33697759  0.33797038  1
  Ni  Ni24  1  0.67144510  0.66975800  1.00382494  1
  Fe  Fe25  1  0.83686786  0.83682252  0.17117990  1
  Fe  Fe26  1  0.67062080  0.67039910  0.33610124  1
  Fe  Fe27  1  0.17310890  0.17113077  0.50456814  1
  Fe  Fe28  1  1.00227881  1.00413712  0.67128865  1
  Ni  Ni29  1  0.17125323  0.17336216  0.83690221  1
  Fe  Fe30  1  0.17070605  0.50390244  0.50462229  1
  Fe  Fe31  1  1.00317430  0.33757638  0.67238373  1
  Ni  Ni32  1  0.17156195  0.50445655  0.83889986  1
  Fe  Fe33  1  0.16983161  0.83825633  0.50368903  1
  Ni  Ni34  1  1.00390916  0.67073567  0.67215600  1
  Fe  Fe35  1  0.17268140  0.83774734  0.83715253  1
  Ni  Ni36  1  0.50574376  0.17176561  0.50419324  1
  Ni  Ni37  1  0.33622460  0.00684618  0.67196671  1
  Ni  Ni38  1  0.50452762  0.17208557  0.83803069  1
  Ni  Ni39  1  0.50312692  0.50416628  0.50315668  1
  Fe  Fe40  1  0.33952028  0.33864382  0.67130391  1
  Ni  Ni41  1  0.50318755  0.50480222  0.83772507  1
  Cr  Cr42  1  0.50319689  0.83737114  0.50532775  1
  Fe  Fe43  1  0.33830791  0.67003163  0.67276604  1
  Fe  Fe44  1  0.50441594  0.83837637  0.83788335  1
  Ni  Ni45  1  0.83900063  0.17109623  0.50496204  1
  Ni  Ni46  1  0.66998248  0.00576622  0.67229255  1
  Ni  Ni47  1  0.83680681  0.17103231  0.83729856  1
  Fe  Fe48  1  0.83643540  0.50417021  0.50349136  1
  Ni  Ni49  1  0.67009347  0.33854056  0.67059540  1
  Fe  Fe50  1  0.83734209  0.50274312  0.83842117  1
  Fe  Fe51  1  0.83771947  0.83758296  0.50596562  1
  Ni  Ni52  1  0.67311367  0.66843170  0.67154730  1
  Ni  Ni53  1  0.83644000  0.83699994  0.83799355  1
" 