8678,Ni52Fe48_1,-240.634245277319, 222.343463279944,Ni52Fe48,"# generated using pymatgen
 data_Fe14Ni13
_symmetry_space_group_name_H-M   'P 1'
_cell_length_a   7.39624271
_cell_length_b   7.39624271
_cell_length_c   10.45986675
_cell_angle_alpha   90.00000000
_cell_angle_beta   90.00000000
_cell_angle_gamma   90.00000000
_symmetry_Int_Tables_number   1
_chemical_formula_structural   Fe14Ni13
_chemical_formula_sum   'Fe28 Ni26'
_cell_volume   572.20079942
_cell_formula_units_Z   2
loop_
 _symmetry_equiv_pos_site_id
 _symmetry_equiv_pos_as_xyz
  1  'x, y, z'
loop_
 _atom_site_type_symbol
 _atom_site_label
 _atom_site_symmetry_multiplicity
 _atom_site_fract_x
 _atom_site_fract_y
 _atom_site_fract_z
 _atom_site_occupancy
  Fe  Fe0  1  0.00573327  1.00438424  1.00478156  1
  Fe  Fe1  1  0.17258465  0.17113604  0.17186118  1
  Ni  Ni2  1  1.00379062  0.00504108  0.33781633  1
  Fe  Fe3  1  0.00550477  0.33820474  0.00541403  1
  Ni  Ni4  1  0.17089659  0.50550348  0.17227141  1
  Ni  Ni5  1  0.00487345  0.33802335  0.33893007  1
  Fe  Fe6  1  0.00558424  0.67176888  1.00423673  1
  Ni  Ni7  1  0.17208203  0.83766740  0.17089450  1
  Fe  Fe8  1  0.00653811  0.67138544  0.33851737  1
  Ni  Ni9  1  0.33953939  1.00470812  1.00432622  1
  Ni  Ni10  1  0.50481266  0.17076116  0.17201149  1
  Ni  Ni11  1  0.33820547  1.00460277  0.33822843  1
  Ni  Ni12  1  0.33836097  0.33917960  0.00561557  1
  Fe  Fe13  1  0.50302609  0.50534056  0.17160814  1
  Ni  Ni14  1  0.33785359  0.33918598  0.33740831  1
  Ni  Ni15  1  0.33837396  0.67047474  1.00422889  1
  Ni  Ni16  1  0.50328101  0.83962293  0.17155108  1
  Ni  Ni17  1  0.33866853  0.67057557  0.33821937  1
  Ni  Ni18  1  0.67174855  1.00433812  0.00487902  1
  Fe  Fe19  1  0.83846451  0.17070754  0.17227885  1
  Fe  Fe20  1  0.67078306  0.00561175  0.33777059  1
  Fe  Fe21  1  0.66985877  0.33770452  1.00438640  1
  Fe  Fe22  1  0.83840343  0.50505591  0.17165648  1
  Fe  Fe23  1  0.67121217  0.33772210  0.33867488  1
  Fe  Fe24  1  0.67005958  0.67199016  1.00410192  1
  Fe  Fe25  1  0.83803997  0.83859539  0.17082713  1
  Fe  Fe26  1  0.67085280  0.67102612  0.33839506  1
  Fe  Fe27  1  0.17089541  0.17205930  0.50446182  1
  Ni  Ni28  1  1.00239385  1.00363893  0.67201687  1
  Fe  Fe29  1  0.17226126  0.17168865  0.83804040  1
  Fe  Fe30  1  0.17126830  0.50444995  0.50411662  1
  Fe  Fe31  1  1.00397131  0.33785091  0.67078636  1
  Fe  Fe32  1  0.17232655  0.50510097  0.83873770  1
  Ni  Ni33  1  0.17147199  0.83867138  0.50462865  1
  Ni  Ni34  1  1.00391204  0.67178772  0.67098868  1
  Fe  Fe35  1  0.17169216  0.83757157  0.83796196  1
  Fe  Fe36  1  0.50485878  0.17200921  0.50486488  1
  Fe  Fe37  1  0.33769107  1.00452707  0.67165070  1
  Ni  Ni38  1  0.50432325  0.17126988  0.83766065  1
  Ni  Ni39  1  0.50523182  0.50417157  0.50423930  1
  Ni  Ni40  1  0.33874922  0.33929589  0.67134317  1
  Ni  Ni41  1  0.50513802  0.50407195  0.83912487  1
  Fe  Fe42  1  0.50527589  0.83776270  0.50442945  1
  Fe  Fe43  1  0.33804539  0.67206366  0.67129664  1
  Ni  Ni44  1  0.50441535  0.83901904  0.83790724  1
  Ni  Ni45  1  0.83846813  0.17232743  0.50524597  1
  Ni  Ni46  1  0.67284636  1.00442737  0.67124410  1
  Fe  Fe47  1  0.83656727  0.17069206  0.83745323  1
  Ni  Ni48  1  0.83802192  0.50337170  0.50469056  1
  Fe  Fe49  1  0.67205717  0.33819628  0.67130415  1
  Ni  Ni50  1  0.83832309  0.50486437  0.83786381  1
  Fe  Fe51  1  0.83845978  0.83812831  0.50588265  1
  Fe  Fe52  1  0.67200244  0.67129106  0.67186158  1
  Ni  Ni53  1  0.83867337  0.83784682  0.83778044  1
" 