7316,Ni52Fe46Cr1_2,-240.112917849434, 217.705764653333,Ni52Fe46Cr1,"# generated using pymatgen
 data_Cr(Fe6Ni7)2
_symmetry_space_group_name_H-M   'P 1'
_cell_length_a   7.40851239
_cell_length_b   7.40851239
_cell_length_c   10.47721870
_cell_angle_alpha   90.00000000
_cell_angle_beta   90.00000000
_cell_angle_gamma   90.00000000
_symmetry_Int_Tables_number   1
_chemical_formula_structural   Cr(Fe6Ni7)2
_chemical_formula_sum   'Cr2 Fe24 Ni28'
_cell_volume   575.05321111
_cell_formula_units_Z   2
loop_
 _symmetry_equiv_pos_site_id
 _symmetry_equiv_pos_as_xyz
  1  'x, y, z'
loop_
 _atom_site_type_symbol
 _atom_site_label
 _atom_site_symmetry_multiplicity
 _atom_site_fract_x
 _atom_site_fract_y
 _atom_site_fract_z
 _atom_site_occupancy
  Ni  Ni0  1  1.00356819  1.00328199  0.00415058  1
  Fe  Fe1  1  0.17015837  0.17164473  0.17051207  1
  Fe  Fe2  1  1.00333543  0.00421857  0.33711119  1
  Fe  Fe3  1  0.00490962  0.33742721  0.00413169  1
  Ni  Ni4  1  0.17119507  0.50395145  0.17052765  1
  Ni  Ni5  1  0.00396689  0.33803273  0.33621828  1
  Ni  Ni6  1  1.00334258  0.67108542  0.00400491  1
  Fe  Fe7  1  0.16964610  0.83665973  0.17060848  1
  Ni  Ni8  1  1.00365110  0.66962784  0.33768553  1
  Fe  Fe9  1  0.33788024  0.00414335  1.00316472  1
  Ni  Ni10  1  0.50322902  0.16975802  0.17174095  1
  Fe  Fe11  1  0.33639027  0.00436067  0.33785941  1
  Ni  Ni12  1  0.33618269  0.33684881  0.00424209  1
  Ni  Ni13  1  0.50186590  0.50461858  0.17101295  1
  Fe  Fe14  1  0.33624034  0.33799836  0.33654046  1
  Fe  Fe15  1  0.33755545  0.67042491  1.00360786  1
  Fe  Fe16  1  0.50517990  0.83684249  0.16993150  1
  Fe  Fe17  1  0.33630649  0.66949324  0.33768370  1
  Ni  Ni18  1  0.67085930  1.00245049  1.00387661  1
  Ni  Ni19  1  0.83740718  0.16868531  0.17124999  1
  Fe  Fe20  1  0.67212267  0.00415189  0.33720842  1
  Cr  Cr21  1  0.66998016  0.33713047  1.00358455  1
  Ni  Ni22  1  0.83878858  0.50570829  0.17206734  1
  Fe  Fe23  1  0.67161861  0.33754749  0.33657123  1
  Ni  Ni24  1  0.67149576  0.67232263  0.00436104  1
  Ni  Ni25  1  0.83673995  0.83745737  0.17019207  1
  Fe  Fe26  1  0.67175798  0.67015063  0.33658975  1
  Ni  Ni27  1  0.17079885  0.17175936  0.50366432  1
  Fe  Fe28  1  1.00379921  1.00337983  0.67086347  1
  Ni  Ni29  1  0.17145381  0.17194489  0.83766707  1
  Ni  Ni30  1  0.17153232  0.50398793  0.50412466  1
  Fe  Fe31  1  0.00445643  0.33723042  0.67020471  1
  Ni  Ni32  1  0.17069704  0.50371739  0.83719538  1
  Fe  Fe33  1  0.16988467  0.83729118  0.50425933  1
  Ni  Ni34  1  0.00577506  0.66995827  0.67016099  1
  Fe  Fe35  1  0.17002705  0.83749594  0.83698455  1
  Fe  Fe36  1  0.50397703  0.17014306  0.50432258  1
  Ni  Ni37  1  0.33792580  0.00478615  0.67079081  1
  Ni  Ni38  1  0.50294386  0.16838463  0.83557456  1
  Fe  Fe39  1  0.50302296  0.50295676  0.50282626  1
  Fe  Fe40  1  0.33687859  0.33733451  0.67122711  1
  Fe  Fe41  1  0.50267044  0.50364917  0.83786848  1
  Fe  Fe42  1  0.50282692  0.83875723  0.50432221  1
  Ni  Ni43  1  0.33489900  0.67071733  0.67055384  1
  Ni  Ni44  1  0.50432324  0.83869851  0.83860071  1
  Ni  Ni45  1  0.83722427  0.16902368  0.50443508  1
  Ni  Ni46  1  0.66981402  0.00634814  0.67091730  1
  Ni  Ni47  1  0.83745403  0.16881030  0.83616203  1
  Fe  Fe48  1  0.83952451  0.50288762  0.50292185  1
  Fe  Fe49  1  0.67052139  0.33539970  0.67101874  1
  Ni  Ni50  1  0.83996844  0.50509535  0.83708984  1
  Ni  Ni51  1  0.83728280  0.83859988  0.50340951  1
  Cr  Cr52  1  0.67186951  0.67100704  0.67147696  1
  Ni  Ni53  1  0.83640395  0.83794209  0.83825163  1
" 