4647,Ni52Fe46Cr1_0,-239.849967816905, 220.690600600967,Ni52Fe46Cr1,"# generated using pymatgen
 data_Cr(Fe6Ni7)2
_symmetry_space_group_name_H-M   'P 1'
_cell_length_a   7.40615941
_cell_length_b   7.40615941
_cell_length_c   10.47389109
_cell_angle_alpha   90.00000000
_cell_angle_beta   90.00000000
_cell_angle_gamma   90.00000000
_symmetry_Int_Tables_number   1
_chemical_formula_structural   Cr(Fe6Ni7)2
_chemical_formula_sum   'Cr2 Fe24 Ni28'
_cell_volume   574.50546644
_cell_formula_units_Z   2
loop_
 _symmetry_equiv_pos_site_id
 _symmetry_equiv_pos_as_xyz
  1  'x, y, z'
loop_
 _atom_site_type_symbol
 _atom_site_label
 _atom_site_symmetry_multiplicity
 _atom_site_fract_x
 _atom_site_fract_y
 _atom_site_fract_z
 _atom_site_occupancy
  Fe  Fe0  1  0.00488694  0.00449811  0.00435842  1
  Ni  Ni1  1  0.17134013  0.17113764  0.16983398  1
  Fe  Fe2  1  0.00423647  1.00336262  0.33691263  1
  Fe  Fe3  1  1.00379841  0.33694208  0.00544781  1
  Ni  Ni4  1  0.16989944  0.50311188  0.17214208  1
  Ni  Ni5  1  0.00431016  0.33802818  0.33707404  1
  Ni  Ni6  1  1.00210484  0.67140893  0.00519699  1
  Ni  Ni7  1  0.17052428  0.83808347  0.17134798  1
  Ni  Ni8  1  0.00452279  0.66954160  0.33683004  1
  Fe  Fe9  1  0.33651574  0.00558345  0.00432640  1
  Fe  Fe10  1  0.50395593  0.17057123  0.17119962  1
  Ni  Ni11  1  0.33848825  1.00410150  0.33663498  1
  Ni  Ni12  1  0.33791463  0.33457389  0.00509693  1
  Fe  Fe13  1  0.50451554  0.50342316  0.17189538  1
  Fe  Fe14  1  0.33721456  0.33764119  0.33718184  1
  Cr  Cr15  1  0.33627322  0.67089335  0.00523975  1
  Fe  Fe16  1  0.50487567  0.83833625  0.17221542  1
  Ni  Ni17  1  0.33683223  0.67133780  0.33759047  1
  Fe  Fe18  1  0.67093153  1.00392702  1.00404606  1
  Ni  Ni19  1  0.83789802  0.17088869  0.17154159  1
  Ni  Ni20  1  0.66984322  0.00431635  0.33769085  1
  Fe  Fe21  1  0.67137554  0.33815854  1.00351623  1
  Ni  Ni22  1  0.83784492  0.50485372  0.17014887  1
  Fe  Fe23  1  0.67094881  0.33815334  0.33802509  1
  Fe  Fe24  1  0.67245648  0.67024713  1.00395212  1
  Ni  Ni25  1  0.83696803  0.83658995  0.17005401  1
  Ni  Ni26  1  0.67097808  0.67164883  0.33706788  1
  Ni  Ni27  1  0.17165327  0.17105158  0.50414818  1
  Fe  Fe28  1  1.00298363  0.00424473  0.67105979  1
  Ni  Ni29  1  0.17089967  0.16971943  0.83834741  1
  Fe  Fe30  1  0.17087359  0.50454635  0.50352064  1
  Fe  Fe31  1  1.00186257  0.33675278  0.66990341  1
  Cr  Cr32  1  0.16903795  0.50236777  0.83632377  1
  Fe  Fe33  1  0.17128040  0.83691620  0.50342270  1
  Ni  Ni34  1  1.00349296  0.67122433  0.67030037  1
  Fe  Fe35  1  0.16914047  0.83965097  0.83718580  1
  Ni  Ni36  1  0.50284068  0.17017264  0.50454198  1
  Fe  Fe37  1  0.33832979  1.00384195  0.67032076  1
  Fe  Fe38  1  0.50454015  0.17119720  0.83696056  1
  Ni  Ni39  1  0.50471709  0.50489828  0.50478592  1
  Fe  Fe40  1  0.33897632  0.33668201  0.67021131  1
  Fe  Fe41  1  0.50685163  0.50254643  0.83617502  1
  Ni  Ni42  1  0.50495315  0.83726365  0.50349526  1
  Fe  Fe43  1  0.33981865  0.67180575  0.66975956  1
  Ni  Ni44  1  0.50523069  0.83818096  0.83639519  1
  Fe  Fe45  1  0.83602853  0.17077606  0.50423563  1
  Ni  Ni46  1  0.67022722  0.00494456  0.67093229  1
  Ni  Ni47  1  0.83794599  0.17137011  0.83678547  1
  Ni  Ni48  1  0.83703433  0.50532782  0.50424940  1
  Ni  Ni49  1  0.67055902  0.33664979  0.67109511  1
  Ni  Ni50  1  0.83599681  0.50422111  0.83793526  1
  Ni  Ni51  1  0.83615367  0.83618990  0.50442447  1
  Ni  Ni52  1  0.67136450  0.67073708  0.67182485  1
  Fe  Fe53  1  0.83772829  0.83733551  0.83706729  1
" 