1223,Ni52Fe35Cr11_9,-236.381664046682, 207.719194650311,Ni52Fe35Cr11,"# generated using pymatgen
 data_Cr7Fe19Ni28
_symmetry_space_group_name_H-M   'P 1'
_cell_length_a   7.42647219
_cell_length_b   7.42647219
_cell_length_c   10.50261769
_cell_angle_alpha   90.00000000
_cell_angle_beta   90.00000000
_cell_angle_gamma   90.00000000
_symmetry_Int_Tables_number   1
_chemical_formula_structural   Cr7Fe19Ni28
_chemical_formula_sum   'Cr7 Fe19 Ni28'
_cell_volume   579.24550810
_cell_formula_units_Z   1
loop_
 _symmetry_equiv_pos_site_id
 _symmetry_equiv_pos_as_xyz
  1  'x, y, z'
loop_
 _atom_site_type_symbol
 _atom_site_label
 _atom_site_symmetry_multiplicity
 _atom_site_fract_x
 _atom_site_fract_y
 _atom_site_fract_z
 _atom_site_occupancy
  Ni  Ni0  1  0.00310787  1.00075763  0.99969624  1
  Cr  Cr1  1  0.17037254  0.16833060  0.17057282  1
  Ni  Ni2  1  0.00363032  1.00163196  0.34016915  1
  Fe  Fe3  1  0.00368635  0.33704207  0.00352491  1
  Ni  Ni4  1  0.17059175  0.50292298  0.16979347  1
  Ni  Ni5  1  0.00386371  0.33730360  0.33833980  1
  Fe  Fe6  1  0.00360976  0.66948554  0.00298569  1
  Fe  Fe7  1  0.17161574  0.83541779  0.16969154  1
  Ni  Ni8  1  0.00420659  0.66926428  0.33618144  1
  Fe  Fe9  1  0.33950982  1.00239720  1.00188676  1
  Ni  Ni10  1  0.50245794  0.16866594  0.17021493  1
  Fe  Fe11  1  0.33873023  1.00267400  0.33762983  1
  Ni  Ni12  1  0.33672494  0.33734999  1.00256064  1
  Ni  Ni13  1  0.50177108  0.50339335  0.17001670  1
  Ni  Ni14  1  0.33731502  0.33690733  0.33683308  1
  Ni  Ni15  1  0.33501620  0.66771316  0.00339460  1
  Ni  Ni16  1  0.50287898  0.83577849  0.16805597  1
  Fe  Fe17  1  0.33742238  0.66936353  0.33521810  1
  Ni  Ni18  1  0.67063002  0.00274154  1.00006223  1
  Cr  Cr19  1  0.83541600  0.16963646  0.17088609  1
  Ni  Ni20  1  0.66802105  1.00272885  0.33871647  1
  Ni  Ni21  1  0.66612562  0.33530858  0.00548356  1
  Fe  Fe22  1  0.83427113  0.50280927  0.17131857  1
  Ni  Ni23  1  0.66662582  0.33624692  0.33585715  1
  Ni  Ni24  1  0.66789540  0.67014884  0.00345548  1
  Cr  Cr25  1  0.83543342  0.83632857  0.17175765  1
  Ni  Ni26  1  0.66825021  0.66903055  0.33742144  1
  Ni  Ni27  1  0.17009423  0.16946975  0.50247229  1
  Cr  Cr28  1  1.00172561  1.00248081  0.66773736  1
  Fe  Fe29  1  0.17020317  0.17042760  0.83597995  1
  Fe  Fe30  1  0.17043794  0.50251719  0.50156616  1
  Fe  Fe31  1  0.00569156  0.33677515  0.66715656  1
  Ni  Ni32  1  0.17024918  0.50193895  0.83495852  1
  Ni  Ni33  1  0.17369842  0.83705585  0.49941545  1
  Cr  Cr34  1  0.00368553  0.67088689  0.66776105  1
  Ni  Ni35  1  0.17086931  0.83615523  0.83866255  1
  Fe  Fe36  1  0.50184382  0.16863957  0.50232037  1
  Ni  Ni37  1  0.33580039  0.00300533  0.67077199  1
  Fe  Fe38  1  0.50191045  0.16891254  0.83688456  1
  Fe  Fe39  1  0.50191037  0.50226707  0.50261634  1
  Ni  Ni40  1  0.33715531  0.33532937  0.66807903  1
  Cr  Cr41  1  0.50109875  0.50360991  0.83398409  1
  Ni  Ni42  1  0.50149556  0.83487220  0.50453269  1
  Ni  Ni43  1  0.33517698  0.66935880  0.66793036  1
  Fe  Fe44  1  0.50150406  0.83534512  0.83577626  1
  Ni  Ni45  1  0.83588432  0.17190197  0.50197574  1
  Fe  Fe46  1  0.66583188  0.00293287  0.66880108  1
  Fe  Fe47  1  0.83614936  0.16950177  0.83692489  1
  Ni  Ni48  1  0.83417150  0.50117284  0.50083978  1
  Fe  Fe49  1  0.66907120  0.33437286  0.66747247  1
  Cr  Cr50  1  0.83535827  0.50249305  0.83850927  1
  Fe  Fe51  1  0.83523458  0.83611154  0.50016230  1
  Fe  Fe52  1  0.66788101  0.67114990  0.66724108  1
  Ni  Ni53  1  0.83420510  0.83745457  0.83526124  1
" 