7085,Ni52Fe10Cr37_8,-224.834841068882, 160.772087359995,Ni52Fe10Cr37,"# generated using pymatgen
 data_Cr21Fe5Ni28
_symmetry_space_group_name_H-M   'P 1'
_cell_length_a   7.48574771
_cell_length_b   7.48574771
_cell_length_c   10.58644594
_cell_angle_alpha   90.00000000
_cell_angle_beta   90.00000000
_cell_angle_gamma   90.00000000
_symmetry_Int_Tables_number   1
_chemical_formula_structural   Cr21Fe5Ni28
_chemical_formula_sum   'Cr21 Fe5 Ni28'
_cell_volume   593.22651798
_cell_formula_units_Z   1
loop_
 _symmetry_equiv_pos_site_id
 _symmetry_equiv_pos_as_xyz
  1  'x, y, z'
loop_
 _atom_site_type_symbol
 _atom_site_label
 _atom_site_symmetry_multiplicity
 _atom_site_fract_x
 _atom_site_fract_y
 _atom_site_fract_z
 _atom_site_occupancy
  Ni  Ni0  1  0.99773058  0.00109332  0.99776941  1
  Cr  Cr1  1  0.16567009  0.16643223  0.16572475  1
  Cr  Cr2  1  0.99826830  0.99871975  0.33336413  1
  Ni  Ni3  1  0.99683953  0.33207115  0.99804954  1
  Fe  Fe4  1  0.16455573  0.49835980  0.16481227  1
  Ni  Ni5  1  -0.00062406  0.33445505  0.33157088  1
  Ni  Ni6  1  -0.00078246  0.66280576  0.00108847  1
  Ni  Ni7  1  0.16435492  0.82993456  0.16507170  1
  Ni  Ni8  1  0.00093338  0.66296969  0.33193219  1
  Cr  Cr9  1  0.33112784  -0.00001652  0.99871444  1
  Ni  Ni10  1  0.49965302  0.16742610  0.16643421  1
  Ni  Ni11  1  0.33332554  0.99838437  0.33176997  1
  Ni  Ni12  1  0.33219613  0.33385661  -0.00000842  1
  Ni  Ni13  1  0.49821687  0.49650485  0.16291179  1
  Ni  Ni14  1  0.33149552  0.33333778  0.33169297  1
  Ni  Ni15  1  0.33219670  0.66367840  -0.00068922  1
  Cr  Cr16  1  0.49922297  0.83339834  0.16323502  1
  Cr  Cr17  1  0.33124088  0.66373811  0.33177883  1
  Ni  Ni18  1  0.66654574  0.00158309  0.99841935  1
  Ni  Ni19  1  0.83142730  0.16704239  0.16408702  1
  Ni  Ni20  1  0.66446112  -0.00010034  0.33346766  1
  Ni  Ni21  1  0.66696493  0.33256797  -0.00002216  1
  Ni  Ni22  1  0.83403009  0.49777073  0.16326324  1
  Cr  Cr23  1  0.66566283  0.33212709  0.32938433  1
  Ni  Ni24  1  0.66504009  0.66213345  0.99812428  1
  Cr  Cr25  1  0.83331201  0.83124826  0.16413051  1
  Cr  Cr26  1  0.66574865  0.66359849  0.33274458  1
  Cr  Cr27  1  0.16482677  0.16924982  0.49866404  1
  Cr  Cr28  1  -0.00120270  0.00136854  0.66641648  1
  Ni  Ni29  1  0.16259597  0.16815485  0.83254297  1
  Ni  Ni30  1  0.16621146  0.49877437  0.49795060  1
  Ni  Ni31  1  0.99759327  0.33219101  0.66634987  1
  Cr  Cr32  1  0.16423854  0.49644152  0.83287184  1
  Fe  Fe33  1  0.16676923  0.83079560  0.49712002  1
  Cr  Cr34  1  -0.00011491  0.66412045  0.66348075  1
  Cr  Cr35  1  0.16564532  0.83104438  0.83485835  1
  Cr  Cr36  1  0.49910686  0.16684385  0.49617137  1
  Cr  Cr37  1  0.33130440  0.99646941  0.66675187  1
  Cr  Cr38  1  0.49917480  0.16726297  0.83329239  1
  Ni  Ni39  1  0.49538193  0.49955753  0.50092848  1
  Fe  Fe40  1  0.33126508  0.33362863  0.66466016  1
  Cr  Cr41  1  0.49993893  0.49938799  0.83170828  1
  Ni  Ni42  1  0.49755107  0.83153021  0.49835312  1
  Fe  Fe43  1  0.33201007  0.66417836  0.66406043  1
  Ni  Ni44  1  0.49900439  0.83044941  0.83402257  1
  Ni  Ni45  1  0.83280996  0.16603695  0.49882496  1
  Cr  Cr46  1  0.66607441  -0.00023448  0.66507230  1
  Ni  Ni47  1  0.83378842  0.16897377  0.83335962  1
  Cr  Cr48  1  0.83389956  0.49609636  0.49867797  1
  Ni  Ni49  1  0.66773113  0.33269252  0.66536976  1
  Ni  Ni50  1  0.83243583  0.49560014  0.83360580  1
  Fe  Fe51  1  0.83114858  0.83255743  0.49714447  1
  Cr  Cr52  1  0.66385677  0.66410443  0.66489386  1
  Cr  Cr53  1  0.83069209  0.83015496  0.83657742  1
" 