3409,Ni52Fe48_2,-240.454107258752, 218.950073675,Ni52Fe48,"# generated using pymatgen
 data_Fe14Ni13
_symmetry_space_group_name_H-M   'P 1'
_cell_length_a   7.39958944
_cell_length_b   7.39958944
_cell_length_c   10.46459974
_cell_angle_alpha   90.00000000
_cell_angle_beta   90.00000000
_cell_angle_gamma   90.00000000
_symmetry_Int_Tables_number   1
_chemical_formula_structural   Fe14Ni13
_chemical_formula_sum   'Fe28 Ni26'
_cell_volume   572.97789694
_cell_formula_units_Z   2
loop_
 _symmetry_equiv_pos_site_id
 _symmetry_equiv_pos_as_xyz
  1  'x, y, z'
loop_
 _atom_site_type_symbol
 _atom_site_label
 _atom_site_symmetry_multiplicity
 _atom_site_fract_x
 _atom_site_fract_y
 _atom_site_fract_z
 _atom_site_occupancy
  Fe  Fe0  1  0.00518428  0.00532037  1.00436365  1
  Fe  Fe1  1  0.17092660  0.17127311  0.17094927  1
  Ni  Ni2  1  0.00497597  1.00349529  0.33731039  1
  Fe  Fe3  1  0.00486766  0.33771649  1.00436702  1
  Fe  Fe4  1  0.17033735  0.50405684  0.17108945  1
  Fe  Fe5  1  1.00378568  0.33708572  0.33755056  1
  Fe  Fe6  1  0.00556202  0.67063511  0.00481622  1
  Fe  Fe7  1  0.17021998  0.83834329  0.17153922  1
  Ni  Ni8  1  1.00433195  0.67153245  0.33845710  1
  Ni  Ni9  1  0.33724471  0.00511952  1.00431372  1
  Fe  Fe10  1  0.50504717  0.17160284  0.17171606  1
  Ni  Ni11  1  0.33741358  0.00456438  0.33799413  1
  Ni  Ni12  1  0.33821174  0.33748509  1.00399141  1
  Fe  Fe13  1  0.50551569  0.50360362  0.17152358  1
  Fe  Fe14  1  0.33796685  0.33739923  0.33782684  1
  Fe  Fe15  1  0.33770196  0.67142147  1.00354924  1
  Fe  Fe16  1  0.50530211  0.83847140  0.17107354  1
  Fe  Fe17  1  0.33780493  0.67197879  0.33902222  1
  Fe  Fe18  1  0.67045738  0.00518493  0.00493733  1
  Ni  Ni19  1  0.83756883  0.17193961  0.17131547  1
  Ni  Ni20  1  0.67128578  0.00563058  0.33845465  1
  Fe  Fe21  1  0.67124517  0.33738946  0.00469574  1
  Ni  Ni22  1  0.83822054  0.50303543  0.17181831  1
  Ni  Ni23  1  0.67127577  0.33822989  0.33731160  1
  Fe  Fe24  1  0.67041349  0.67109856  1.00399699  1
  Fe  Fe25  1  0.83815180  0.83787587  0.17223741  1
  Fe  Fe26  1  0.67160975  0.67216334  0.33836844  1
  Fe  Fe27  1  0.17179454  0.16994771  0.50448675  1
  Ni  Ni28  1  0.00570691  1.00424878  0.67141382  1
  Fe  Fe29  1  0.17122132  0.17076951  0.83823629  1
  Ni  Ni30  1  0.17193632  0.50561066  0.50406703  1
  Fe  Fe31  1  1.00434785  0.33813174  0.67175875  1
  Ni  Ni32  1  0.17107169  0.50552143  0.83870490  1
  Ni  Ni33  1  0.17184095  0.83690797  0.50429768  1
  Fe  Fe34  1  0.00508702  0.67147313  0.67092898  1
  Ni  Ni35  1  0.17319566  0.83700558  0.83815638  1
  Ni  Ni36  1  0.50587931  0.17084256  0.50425085  1
  Ni  Ni37  1  0.33641067  1.00382574  0.67136584  1
  Fe  Fe38  1  0.50398683  0.17134127  0.83779733  1
  Ni  Ni39  1  0.50342597  0.50454236  0.50448073  1
  Fe  Fe40  1  0.33820778  0.33848255  0.67127527  1
  Fe  Fe41  1  0.50469706  0.50494565  0.83721080  1
  Ni  Ni42  1  0.50383779  0.83829195  0.50397939  1
  Ni  Ni43  1  0.33821160  0.67179723  0.67177893  1
  Ni  Ni44  1  0.50285388  0.83838901  0.83774155  1
  Ni  Ni45  1  0.83692868  0.17074652  0.50374741  1
  Fe  Fe46  1  0.67085635  1.00419522  0.67054563  1
  Ni  Ni47  1  0.83730910  0.17220513  0.83861163  1
  Fe  Fe48  1  0.83693243  0.50505711  0.50448491  1
  Ni  Ni49  1  0.67155617  0.33942362  0.67196065  1
  Ni  Ni50  1  0.83869506  0.50275605  0.83770070  1
  Ni  Ni51  1  0.83799610  0.83936402  0.50447931  1
  Ni  Ni52  1  0.67113245  0.66935308  0.67081570  1
  Fe  Fe53  1  0.83839661  0.83731656  0.83727807  1
" 