5039,Ni52Fe10Cr37_14,-224.746777265215, 157.689258267743,Ni52Fe10Cr37,"# generated using pymatgen
 data_Cr21Fe5Ni28
_symmetry_space_group_name_H-M   'P 1'
_cell_length_a   7.48843480
_cell_length_b   7.48843480
_cell_length_c   10.59024606
_cell_angle_alpha   90.00000000
_cell_angle_beta   90.00000000
_cell_angle_gamma   90.00000000
_symmetry_Int_Tables_number   1
_chemical_formula_structural   Cr21Fe5Ni28
_chemical_formula_sum   'Cr21 Fe5 Ni28'
_cell_volume   593.86558300
_cell_formula_units_Z   1
loop_
 _symmetry_equiv_pos_site_id
 _symmetry_equiv_pos_as_xyz
  1  'x, y, z'
loop_
 _atom_site_type_symbol
 _atom_site_label
 _atom_site_symmetry_multiplicity
 _atom_site_fract_x
 _atom_site_fract_y
 _atom_site_fract_z
 _atom_site_occupancy
  Cr  Cr0  1  0.99775503  -0.00071248  -0.00120951  1
  Ni  Ni1  1  0.16474756  0.16359184  0.16784515  1
  Fe  Fe2  1  0.99848447  0.99707462  0.33152303  1
  Cr  Cr3  1  0.99825363  0.32949103  0.99658646  1
  Cr  Cr4  1  0.16494014  0.49906343  0.16500692  1
  Cr  Cr5  1  -0.00072294  0.33368290  0.33411149  1
  Fe  Fe6  1  0.99415372  0.66733044  -0.00031764  1
  Ni  Ni7  1  0.15924729  0.83244707  0.16613088  1
  Ni  Ni8  1  0.99678654  0.66485244  0.32971433  1
  Cr  Cr9  1  0.33039995  0.00104323  0.99738927  1
  Cr  Cr10  1  0.49973120  0.16725878  0.16774919  1
  Cr  Cr11  1  0.33054045  0.00004191  0.33394239  1
  Cr  Cr12  1  0.33200279  0.33027661  0.99853407  1
  Ni  Ni13  1  0.50201407  0.49703701  0.16600457  1
  Ni  Ni14  1  0.33292721  0.33157849  0.33308314  1
  Cr  Cr15  1  0.33525197  0.66446864  -0.00063270  1
  Cr  Cr16  1  0.50178309  0.83340441  0.16415499  1
  Cr  Cr17  1  0.33251344  0.66286963  0.33496592  1
  Ni  Ni18  1  0.66898641  0.99566086  0.99585481  1
  Cr  Cr19  1  0.82873060  0.16445076  0.16828383  1
  Ni  Ni20  1  0.66585887  0.99839635  0.33289573  1
  Cr  Cr21  1  0.66539215  0.33384415  0.99711176  1
  Ni  Ni22  1  0.83007998  0.50214095  0.16530508  1
  Ni  Ni23  1  0.66327399  0.33412938  0.33363612  1
  Ni  Ni24  1  0.66867750  0.66589374  -0.00037565  1
  Ni  Ni25  1  0.83369511  0.83026354  0.16480177  1
  Cr  Cr26  1  0.66667232  0.66335705  0.33358985  1
  Ni  Ni27  1  0.16789763  0.16790561  0.50061080  1
  Ni  Ni28  1  0.99789471  0.00099641  0.66680277  1
  Ni  Ni29  1  0.16637444  0.16560718  0.82730107  1
  Ni  Ni30  1  0.16481667  0.49656524  0.50111630  1
  Fe  Fe31  1  0.00026842  0.33106587  0.66321615  1
  Cr  Cr32  1  0.16643680  0.49867977  0.82838439  1
  Cr  Cr33  1  0.16458253  0.83085566  0.50168876  1
  Ni  Ni34  1  0.99560894  0.66455373  0.66444750  1
  Cr  Cr35  1  0.16295469  0.83044678  0.82835875  1
  Ni  Ni36  1  0.49800000  0.16635823  0.49877646  1
  Ni  Ni37  1  0.33273237  0.00310783  0.66436899  1
  Ni  Ni38  1  0.49935815  0.16609313  0.82928025  1
  Ni  Ni39  1  0.49834264  0.49488104  0.50070389  1
  Ni  Ni40  1  0.33239140  0.33057146  0.66428080  1
  Ni  Ni41  1  0.50019929  0.49644211  0.82956359  1
  Ni  Ni42  1  0.49996800  0.83440701  0.50325811  1
  Ni  Ni43  1  0.33491865  0.66179617  0.66259227  1
  Cr  Cr44  1  0.50155214  0.83182893  0.82915628  1
  Cr  Cr45  1  0.82914617  0.16547428  0.49953490  1
  Ni  Ni46  1  0.66527173  -0.00118165  0.66683228  1
  Fe  Fe47  1  0.82973510  0.16240707  0.82879929  1
  Ni  Ni48  1  0.83235018  0.49853890  0.49999402  1
  Fe  Fe49  1  0.66138948  0.33244908  0.66385797  1
  Cr  Cr50  1  0.83130774  0.50174209  0.82967722  1
  Cr  Cr51  1  0.83142096  0.83181659  0.49883396  1
  Ni  Ni52  1  0.66511422  0.66426462  0.66414407  1
  Ni  Ni53  1  0.83067760  0.83227731  0.83162113  1
" 