6931,Ni52Fe10Cr37_7,-224.851375201102, 159.26008699641,Ni52Fe10Cr37,"# generated using pymatgen
 data_Cr21Fe5Ni28
_symmetry_space_group_name_H-M   'P 1'
_cell_length_a   7.48700379
_cell_length_b   7.48700379
_cell_length_c   10.58822231
_cell_angle_alpha   90.00000000
_cell_angle_beta   90.00000000
_cell_angle_gamma   90.00000000
_symmetry_Int_Tables_number   1
_chemical_formula_structural   Cr21Fe5Ni28
_chemical_formula_sum   'Cr21 Fe5 Ni28'
_cell_volume   593.52519214
_cell_formula_units_Z   1
loop_
 _symmetry_equiv_pos_site_id
 _symmetry_equiv_pos_as_xyz
  1  'x, y, z'
loop_
 _atom_site_type_symbol
 _atom_site_label
 _atom_site_symmetry_multiplicity
 _atom_site_fract_x
 _atom_site_fract_y
 _atom_site_fract_z
 _atom_site_occupancy
  Ni  Ni0  1  0.00092480  0.00096968  0.99737000  1
  Ni  Ni1  1  0.16655451  0.16815664  0.16352757  1
  Cr  Cr2  1  -0.00075180  0.00178502  0.33261923  1
  Ni  Ni3  1  0.00111920  0.33042255  0.00015887  1
  Ni  Ni4  1  0.16615831  0.49462998  0.16684406  1
  Ni  Ni5  1  0.00003875  0.33326494  0.33260391  1
  Cr  Cr6  1  -0.00084880  0.66603518  0.99866140  1
  Cr  Cr7  1  0.16889322  0.83467543  0.16533432  1
  Cr  Cr8  1  0.99802865  0.66377906  0.33338148  1
  Ni  Ni9  1  0.33191881  0.00085086  0.99602662  1
  Cr  Cr10  1  0.49593643  0.16307808  0.16469309  1
  Ni  Ni11  1  0.33126975  -0.00132081  0.33326991  1
  Ni  Ni12  1  0.33237475  0.33017543  -0.00047707  1
  Ni  Ni13  1  0.49715818  0.49902826  0.16546595  1
  Fe  Fe14  1  0.33054112  0.33267192  0.33076224  1
  Cr  Cr15  1  0.33359273  0.66387832  0.99794856  1
  Ni  Ni16  1  0.49685255  0.83168432  0.16618457  1
  Ni  Ni17  1  0.33172069  0.66435600  0.33108143  1
  Ni  Ni18  1  0.66344942  -0.00095345  0.99682340  1
  Cr  Cr19  1  0.83455362  0.16676717  0.16134690  1
  Cr  Cr20  1  0.66606236  -0.00084343  0.33420057  1
  Ni  Ni21  1  0.66261949  0.33160186  0.99796685  1
  Ni  Ni22  1  0.83249168  0.49620385  0.16478771  1
  Cr  Cr23  1  0.66712914  0.33280224  0.33302740  1
  Cr  Cr24  1  0.66314415  0.66438876  -0.00051133  1
  Cr  Cr25  1  0.82869628  0.83260560  0.16385853  1
  Ni  Ni26  1  0.66409225  0.66326034  0.33074144  1
  Cr  Cr27  1  0.16745940  0.16666344  0.49753979  1
  Cr  Cr28  1  -0.00131238  0.99708132  0.66465348  1
  Fe  Fe29  1  0.16693123  0.16408741  0.83456986  1
  Ni  Ni30  1  0.16269835  0.49970608  0.49787712  1
  Fe  Fe31  1  0.99666623  0.33298849  0.66295891  1
  Cr  Cr32  1  0.16362424  0.49610953  0.83149656  1
  Ni  Ni33  1  0.16580710  0.83040267  0.49947688  1
  Ni  Ni34  1  -0.00066223  0.66683598  0.66312724  1
  Fe  Fe35  1  0.16539970  0.83469522  0.83198646  1
  Ni  Ni36  1  0.49945675  0.16384503  0.50042764  1
  Fe  Fe37  1  0.33429926  0.99850315  0.66610099  1
  Ni  Ni38  1  0.49817211  0.16382037  0.83206985  1
  Cr  Cr39  1  0.49744402  0.49826498  0.49746088  1
  Cr  Cr40  1  0.33433130  0.33017153  0.66608753  1
  Ni  Ni41  1  0.49825476  0.49557256  0.83360378  1
  Cr  Cr42  1  0.49722170  0.83341321  0.49668899  1
  Cr  Cr43  1  0.32956605  0.66610836  0.66749420  1
  Ni  Ni44  1  0.49922825  0.83648563  0.83252735  1
  Ni  Ni45  1  0.83123713  0.16738286  0.50087233  1
  Ni  Ni46  1  0.66553012  0.00136753  0.66486977  1
  Cr  Cr47  1  0.83131065  0.16574256  0.83397384  1
  Ni  Ni48  1  0.83441774  0.49788445  0.50031302  1
  Ni  Ni49  1  0.66449481  0.32855705  0.66480772  1
  Cr  Cr50  1  0.83222578  0.49718313  0.83096805  1
  Ni  Ni51  1  0.83227382  0.83095484  0.49975980  1
  Cr  Cr52  1  0.66651938  0.66566611  0.66655260  1
  Ni  Ni53  1  0.83171753  0.83458575  0.83207083  1
" 