4657,Ni52Fe35Cr11_0,-236.756474739866, 210.252722569156,Ni52Fe35Cr11,"# generated using pymatgen
 data_Cr7Fe19Ni28
_symmetry_space_group_name_H-M   'P 1'
_cell_length_a   7.42589284
_cell_length_b   7.42589284
_cell_length_c   10.50179836
_cell_angle_alpha   90.00000000
_cell_angle_beta   90.00000000
_cell_angle_gamma   90.00000000
_symmetry_Int_Tables_number   1
_chemical_formula_structural   Cr7Fe19Ni28
_chemical_formula_sum   'Cr7 Fe19 Ni28'
_cell_volume   579.10995528
_cell_formula_units_Z   1
loop_
 _symmetry_equiv_pos_site_id
 _symmetry_equiv_pos_as_xyz
  1  'x, y, z'
loop_
 _atom_site_type_symbol
 _atom_site_label
 _atom_site_symmetry_multiplicity
 _atom_site_fract_x
 _atom_site_fract_y
 _atom_site_fract_z
 _atom_site_occupancy
  Ni  Ni0  1  0.00355784  1.00236230  0.00365002  1
  Fe  Fe1  1  0.16995806  0.16813398  0.16933704  1
  Fe  Fe2  1  1.00055344  1.00164417  0.33582189  1
  Cr  Cr3  1  1.00137845  0.33511137  1.00170397  1
  Fe  Fe4  1  0.17071204  0.50442404  0.17048478  1
  Fe  Fe5  1  0.00454114  0.33565423  0.33590863  1
  Fe  Fe6  1  0.00351641  0.67247109  0.00291636  1
  Ni  Ni7  1  0.16827400  0.83491868  0.16815337  1
  Ni  Ni8  1  0.00366950  0.66989135  0.33494086  1
  Ni  Ni9  1  0.33510110  1.00205561  1.00164006  1
  Ni  Ni10  1  0.50395183  0.17042908  0.16766572  1
  Cr  Cr11  1  0.33601189  1.00171947  0.33688866  1
  Fe  Fe12  1  0.33799890  0.33660736  1.00266991  1
  Ni  Ni13  1  0.50148337  0.50328553  0.16906911  1
  Fe  Fe14  1  0.33539399  0.33877879  0.33652727  1
  Ni  Ni15  1  0.33744611  0.67039518  1.00274767  1
  Ni  Ni16  1  0.50339456  0.83460052  0.16854933  1
  Ni  Ni17  1  0.33567426  0.66800808  0.33676005  1
  Fe  Fe18  1  0.66956875  1.00200623  0.00346038  1
  Ni  Ni19  1  0.83591889  0.16747395  0.17007554  1
  Ni  Ni20  1  0.67148424  1.00217423  0.33683079  1
  Fe  Fe21  1  0.66733146  0.33582869  0.00291977  1
  Fe  Fe22  1  0.83495678  0.50526379  0.16989880  1
  Cr  Cr23  1  0.66875219  0.33564377  0.33486970  1
  Ni  Ni24  1  0.66850111  0.66835656  0.00285927  1
  Ni  Ni25  1  0.83664436  0.83738594  0.17031092  1
  Ni  Ni26  1  0.66896817  0.67071237  0.33605645  1
  Ni  Ni27  1  0.16737719  0.17053328  0.50200137  1
  Cr  Cr28  1  0.00402935  1.00272247  0.66882135  1
  Fe  Fe29  1  0.17030427  0.16765824  0.83656184  1
  Ni  Ni30  1  0.17092146  0.50307867  0.50173672  1
  Fe  Fe31  1  0.00454006  0.33645059  0.67002337  1
  Ni  Ni32  1  0.17019223  0.50442613  0.83518128  1
  Ni  Ni33  1  0.17087591  0.83470218  0.50326355  1
  Fe  Fe34  1  0.00514424  0.66899621  0.66994354  1
  Ni  Ni35  1  0.17045067  0.83471967  0.83689482  1
  Fe  Fe36  1  0.50197975  0.16772819  0.50238980  1
  Ni  Ni37  1  0.33635928  1.00046129  0.66975824  1
  Fe  Fe38  1  0.50230696  0.16716710  0.83791252  1
  Ni  Ni39  1  0.49977898  0.50598444  0.50156067  1
  Cr  Cr40  1  0.33523319  0.33644751  0.66881759  1
  Ni  Ni41  1  0.50177981  0.50446326  0.83768662  1
  Ni  Ni42  1  0.50277350  0.83475139  0.50373385  1
  Ni  Ni43  1  0.33610128  0.67121239  0.66880398  1
  Ni  Ni44  1  0.50226748  0.83542804  0.83603686  1
  Ni  Ni45  1  0.83756602  0.16753408  0.50160374  1
  Fe  Fe46  1  0.66729110  1.00105233  0.66908479  1
  Ni  Ni47  1  0.83563028  0.16867918  0.83663503  1
  Cr  Cr48  1  0.83733033  0.50302349  0.50345392  1
  Cr  Cr49  1  0.67050698  0.33625286  0.67068330  1
  Fe  Fe50  1  0.83589929  0.50525249  0.83605636  1
  Fe  Fe51  1  0.83559432  0.83654160  0.50130386  1
  Fe  Fe52  1  0.66706602  0.67215873  0.67047127  1
  Ni  Ni53  1  0.83559293  0.83687356  0.83649919  1
" 