3425,Ni52Fe11Cr35_2,-225.377319679643, 152.941691746201,Ni52Fe11Cr35,"# generated using pymatgen
 data_Cr10Fe3Ni14
_symmetry_space_group_name_H-M   'P 1'
_cell_length_a   7.48883049
_cell_length_b   7.48883049
_cell_length_c   10.59080565
_cell_angle_alpha   90.00000000
_cell_angle_beta   90.00000000
_cell_angle_gamma   90.00000000
_symmetry_Int_Tables_number   1
_chemical_formula_structural   Cr10Fe3Ni14
_chemical_formula_sum   'Cr20 Fe6 Ni28'
_cell_volume   593.95972785
_cell_formula_units_Z   2
loop_
 _symmetry_equiv_pos_site_id
 _symmetry_equiv_pos_as_xyz
  1  'x, y, z'
loop_
 _atom_site_type_symbol
 _atom_site_label
 _atom_site_symmetry_multiplicity
 _atom_site_fract_x
 _atom_site_fract_y
 _atom_site_fract_z
 _atom_site_occupancy
  Cr  Cr0  1  -0.00046458  0.99724722  0.00104955  1
  Ni  Ni1  1  0.16640903  0.16276932  0.16804313  1
  Fe  Fe2  1  0.99812512  0.99796864  0.33175401  1
  Cr  Cr3  1  -0.00104253  0.33233440  0.99844656  1
  Cr  Cr4  1  0.16385874  0.50028746  0.16850209  1
  Ni  Ni5  1  -0.00101701  0.32816626  0.33149518  1
  Ni  Ni6  1  -0.00101713  0.66839560  0.99741480  1
  Ni  Ni7  1  0.16567850  0.83308331  0.16660486  1
  Fe  Fe8  1  -0.00067827  0.66897582  0.33255903  1
  Ni  Ni9  1  0.33308229  0.99765245  0.00133827  1
  Ni  Ni10  1  0.49826118  0.16048180  0.16729067  1
  Ni  Ni11  1  0.33024391  0.99686459  0.32821125  1
  Cr  Cr12  1  0.33221458  0.32805036  -0.00033561  1
  Cr  Cr13  1  0.49758137  0.49904109  0.16969472  1
  Ni  Ni14  1  0.33086357  0.33093269  0.33197033  1
  Cr  Cr15  1  0.33060972  0.66655317  0.99804754  1
  Ni  Ni16  1  0.49706865  0.83682784  0.16631145  1
  Ni  Ni17  1  0.32864444  0.66690898  0.33486143  1
  Ni  Ni18  1  0.66450652  0.99834219  0.00028034  1
  Ni  Ni19  1  0.83104122  0.16308452  0.16909187  1
  Ni  Ni20  1  0.66810180  -0.00067176  0.33112069  1
  Cr  Cr21  1  0.66430587  0.32990949  -0.00048607  1
  Cr  Cr22  1  0.83457657  0.49861906  0.16651548  1
  Ni  Ni23  1  0.66526068  0.32785525  0.33216056  1
  Cr  Cr24  1  0.66785583  0.66766841  -0.00028369  1
  Ni  Ni25  1  0.83342603  0.83472081  0.16541073  1
  Cr  Cr26  1  0.66419510  0.66904096  0.33120054  1
  Cr  Cr27  1  0.16417315  0.16581953  0.49634910  1
  Cr  Cr28  1  0.99685363  0.99529756  0.66199513  1
  Cr  Cr29  1  0.16743455  0.16298979  0.83155864  1
  Fe  Fe30  1  0.16510967  0.49866160  0.49736765  1
  Ni  Ni31  1  -0.00066209  0.33606804  0.66458095  1
  Fe  Fe32  1  0.16344531  0.49995563  0.83011844  1
  Ni  Ni33  1  0.16359467  0.82816268  0.49642760  1
  Ni  Ni34  1  0.00080250  0.66426184  0.66493896  1
  Ni  Ni35  1  0.16410925  0.82712687  0.83196333  1
  Cr  Cr36  1  0.50023600  0.16582695  0.49868300  1
  Cr  Cr37  1  0.32961493  0.99840130  0.66524542  1
  Ni  Ni38  1  0.49849325  0.16648275  0.83069995  1
  Ni  Ni39  1  0.49548805  0.49656266  0.49819576  1
  Ni  Ni40  1  0.33174192  0.33639572  0.66600753  1
  Fe  Fe41  1  0.49967029  0.49831858  0.82932240  1
  Cr  Cr42  1  0.49663882  0.83294635  0.49742857  1
  Fe  Fe43  1  0.32928163  0.66322956  0.66348123  1
  Cr  Cr44  1  0.49839200  0.83704196  0.83234701  1
  Ni  Ni45  1  0.83183346  0.16576059  0.49880297  1
  Ni  Ni46  1  0.66699508  -0.00062288  0.66449242  1
  Cr  Cr47  1  0.82921599  0.16490527  0.82781683  1
  Cr  Cr48  1  0.83256964  0.49545865  0.49572097  1
  Ni  Ni49  1  0.66407715  0.33311558  0.66504612  1
  Ni  Ni50  1  0.83444790  0.50049125  0.83073318  1
  Ni  Ni51  1  0.83485220  0.83301575  0.49806295  1
  Cr  Cr52  1  0.66721434  0.66638329  0.66411622  1
  Ni  Ni53  1  0.83415014  0.82829789  0.83169262  1
" 