905,Ni52Fe10Cr37_2,-224.945933788372, 164.0255330717,Ni52Fe10Cr37,"# generated using pymatgen
 data_Cr21Fe5Ni28
_symmetry_space_group_name_H-M   'P 1'
_cell_length_a   7.48785037
_cell_length_b   7.48785037
_cell_length_c   10.58941954
_cell_angle_alpha   90.00000000
_cell_angle_beta   90.00000000
_cell_angle_gamma   90.00000000
_symmetry_Int_Tables_number   1
_chemical_formula_structural   Cr21Fe5Ni28
_chemical_formula_sum   'Cr21 Fe5 Ni28'
_cell_volume   593.72654882
_cell_formula_units_Z   1
loop_
 _symmetry_equiv_pos_site_id
 _symmetry_equiv_pos_as_xyz
  1  'x, y, z'
loop_
 _atom_site_type_symbol
 _atom_site_label
 _atom_site_symmetry_multiplicity
 _atom_site_fract_x
 _atom_site_fract_y
 _atom_site_fract_z
 _atom_site_occupancy
  Ni  Ni0  1  0.00143299  0.00322086  0.00076069  1
  Fe  Fe1  1  0.16554912  0.16695899  0.16579118  1
  Cr  Cr2  1  0.00181896  0.00219260  0.33134657  1
  Ni  Ni3  1  -0.00092961  0.32936415  0.99828764  1
  Ni  Ni4  1  0.16532372  0.49579234  0.16619649  1
  Ni  Ni5  1  0.00074213  0.33205020  0.33169065  1
  Cr  Cr6  1  -0.00020697  0.66110102  0.99856482  1
  Fe  Fe7  1  0.16792275  0.83425598  0.16510463  1
  Cr  Cr8  1  -0.00004974  0.66152520  0.33374131  1
  Fe  Fe9  1  0.33017838  0.00024662  0.00093153  1
  Ni  Ni10  1  0.49728207  0.16438410  0.16636733  1
  Ni  Ni11  1  0.33132361  0.00002679  0.32938468  1
  Cr  Cr12  1  0.32832144  0.33066470  -0.00130208  1
  Cr  Cr13  1  0.49860050  0.49642989  0.16700522  1
  Ni  Ni14  1  0.32956276  0.33035527  0.33252403  1
  Cr  Cr15  1  0.33243647  0.66607283  0.99851505  1
  Ni  Ni16  1  0.49640364  0.83414755  0.16486432  1
  Cr  Cr17  1  0.33156918  0.66525278  0.33375037  1
  Cr  Cr18  1  0.66387977  -0.00042827  -0.00126847  1
  Ni  Ni19  1  0.83231241  0.16710385  0.16419422  1
  Cr  Cr20  1  0.66266048  -0.00109001  0.33214430  1
  Ni  Ni21  1  0.66797641  0.33152605  -0.00017930  1
  Cr  Cr22  1  0.83160768  0.49603033  0.16540612  1
  Ni  Ni23  1  0.66549658  0.33285041  0.33135945  1
  Ni  Ni24  1  0.66385380  0.66537502  0.99813819  1
  Cr  Cr25  1  0.83269438  0.83152135  0.16485232  1
  Ni  Ni26  1  0.66270670  0.66361615  0.33306835  1
  Ni  Ni27  1  0.16663723  0.16641924  0.49826007  1
  Ni  Ni28  1  0.00052400  0.00036150  0.66426706  1
  Ni  Ni29  1  0.16403042  0.16632974  0.83216904  1
  Ni  Ni30  1  0.16650393  0.49730876  0.50104779  1
  Ni  Ni31  1  0.00107260  0.33392963  0.66583613  1
  Ni  Ni32  1  0.16340776  0.49679798  0.82847346  1
  Ni  Ni33  1  0.16653887  0.83210804  0.49964948  1
  Ni  Ni34  1  0.00125465  0.66155842  0.66435802  1
  Cr  Cr35  1  0.16407036  0.83284729  0.83140179  1
  Cr  Cr36  1  0.49635408  0.16975990  0.49856170  1
  Cr  Cr37  1  0.33195871  -0.00128908  0.66479098  1
  Cr  Cr38  1  0.49709305  0.16692601  0.83033397  1
  Ni  Ni39  1  0.49765142  0.49729954  0.49786577  1
  Ni  Ni40  1  0.32822187  0.33452881  0.66420543  1
  Cr  Cr41  1  0.49840245  0.49700649  0.83162250  1
  Fe  Fe42  1  0.49590866  0.83029849  0.49801640  1
  Ni  Ni43  1  0.32984553  0.66305399  0.66340343  1
  Fe  Fe44  1  0.49805259  0.83113614  0.83185946  1
  Cr  Cr45  1  0.83342019  0.16804654  0.50114557  1
  Ni  Ni46  1  0.66498010  0.99839992  0.66534516  1
  Cr  Cr47  1  0.83411443  0.16666303  0.82959176  1
  Ni  Ni48  1  0.83158609  0.49744198  0.49819121  1
  Ni  Ni49  1  0.66655691  0.33336287  0.66459919  1
  Ni  Ni50  1  0.83342037  0.49747458  0.83276699  1
  Cr  Cr51  1  0.83482005  0.83083815  0.50065552  1
  Cr  Cr52  1  0.66408709  0.66432223  0.66459551  1
  Cr  Cr53  1  0.83400556  0.83151167  0.83073555  1
" 