5662,Ni52Fe10Cr37_3,-224.841351347192, 160.328434913827,Ni52Fe10Cr37,"# generated using pymatgen
 data_Cr21Fe5Ni28
_symmetry_space_group_name_H-M   'P 1'
_cell_length_a   7.49026197
_cell_length_b   7.49026197
_cell_length_c   10.59283006
_cell_angle_alpha   90.00000000
_cell_angle_beta   90.00000000
_cell_angle_gamma   90.00000000
_symmetry_Int_Tables_number   1
_chemical_formula_structural   Cr21Fe5Ni28
_chemical_formula_sum   'Cr21 Fe5 Ni28'
_cell_volume   594.30039598
_cell_formula_units_Z   1
loop_
 _symmetry_equiv_pos_site_id
 _symmetry_equiv_pos_as_xyz
  1  'x, y, z'
loop_
 _atom_site_type_symbol
 _atom_site_label
 _atom_site_symmetry_multiplicity
 _atom_site_fract_x
 _atom_site_fract_y
 _atom_site_fract_z
 _atom_site_occupancy
  Ni  Ni0  1  0.99608805  -0.00007334  0.99749850  1
  Ni  Ni1  1  0.16297170  0.16708711  0.16102496  1
  Cr  Cr2  1  0.99528495  0.00106714  0.32800340  1
  Ni  Ni3  1  -0.00127349  0.32952723  0.99407453  1
  Cr  Cr4  1  0.16388557  0.49688640  0.16069462  1
  Ni  Ni5  1  0.99630452  0.33049196  0.33244344  1
  Ni  Ni6  1  0.99787850  0.66640981  0.99274593  1
  Cr  Cr7  1  0.16248497  0.83127180  0.16052939  1
  Cr  Cr8  1  0.99615440  0.66400913  0.33286136  1
  Cr  Cr9  1  0.33229932  0.00254461  0.99468897  1
  Ni  Ni10  1  0.50277896  0.16697154  0.16315861  1
  Cr  Cr11  1  0.33273187  0.00115439  0.33086856  1
  Ni  Ni12  1  0.33370825  0.33201072  0.99707335  1
  Ni  Ni13  1  0.49931485  0.49312023  0.16285511  1
  Cr  Cr14  1  0.33169626  0.33168752  0.32927407  1
  Ni  Ni15  1  0.33237251  0.66164313  0.99633102  1
  Cr  Cr16  1  0.49819470  0.83376947  0.16339411  1
  Fe  Fe17  1  0.33236268  0.66302303  0.32986743  1
  Ni  Ni18  1  0.66796862  0.00138168  0.99715689  1
  Fe  Fe19  1  0.83083454  0.16654507  0.16172450  1
  Ni  Ni20  1  0.66652849  0.00239567  0.32946059  1
  Ni  Ni21  1  0.66282190  0.33023161  0.99687495  1
  Cr  Cr22  1  0.83294088  0.49348079  0.16007359  1
  Ni  Ni23  1  0.66675761  0.32849369  0.32904103  1
  Cr  Cr24  1  0.66479654  0.66355504  0.99557632  1
  Fe  Fe25  1  0.83082303  0.83482461  0.15984764  1
  Cr  Cr26  1  0.66478798  0.66478106  0.32748900  1
  Cr  Cr27  1  0.16384088  0.16617675  0.49972057  1
  Cr  Cr28  1  -0.00108836  -0.00016801  0.66899711  1
  Ni  Ni29  1  0.16476905  0.16434848  0.83571024  1
  Ni  Ni30  1  0.16479966  0.50097202  0.49860997  1
  Cr  Cr31  1  0.99746162  0.33243822  0.66750860  1
  Ni  Ni32  1  0.16494574  0.50151692  0.83484512  1
  Cr  Cr33  1  0.16765890  0.82911431  0.50087098  1
  Ni  Ni34  1  0.99826186  0.66525807  0.66918883  1
  Ni  Ni35  1  0.16461982  0.82967778  0.83240321  1
  Cr  Cr36  1  0.50457697  0.16363798  0.50298468  1
  Ni  Ni37  1  0.33363746  0.99617943  0.67189084  1
  Ni  Ni38  1  0.50182675  0.16576241  0.83237309  1
  Cr  Cr39  1  0.49927103  0.49819927  0.49818863  1
  Cr  Cr40  1  0.33173168  0.33146502  0.67093669  1
  Ni  Ni41  1  0.49890191  0.49650231  0.83349175  1
  Cr  Cr42  1  0.49868391  0.83377900  0.50287577  1
  Ni  Ni43  1  0.33224968  0.66469234  0.66799791  1
  Fe  Fe44  1  0.49854115  0.83103754  0.83138233  1
  Ni  Ni45  1  0.82769559  0.16646184  0.49618980  1
  Fe  Fe46  1  0.66674183  -0.00093165  0.67166287  1
  Ni  Ni47  1  0.82873221  0.16612590  0.83497219  1
  Cr  Cr48  1  0.83122721  0.49472502  0.50220952  1
  Ni  Ni49  1  0.66589988  0.33211601  0.66905754  1
  Ni  Ni50  1  0.83133492  0.49772075  0.83168635  1
  Cr  Cr51  1  0.82847746  0.83465412  0.50124230  1
  Ni  Ni52  1  0.66472751  0.66424628  0.67089686  1
  Ni  Ni53  1  0.83329517  0.83232044  0.83379400  1
" 