8328,Ni52Fe35Cr11_14,-236.623170247711, 211.071017821167,Ni52Fe35Cr11,"# generated using pymatgen
 data_Cr7Fe19Ni28
_symmetry_space_group_name_H-M   'P 1'
_cell_length_a   7.42312266
_cell_length_b   7.42312266
_cell_length_c   10.49788074
_cell_angle_alpha   90.00000000
_cell_angle_beta   90.00000000
_cell_angle_gamma   90.00000000
_symmetry_Int_Tables_number   1
_chemical_formula_structural   Cr7Fe19Ni28
_chemical_formula_sum   'Cr7 Fe19 Ni28'
_cell_volume   578.46209871
_cell_formula_units_Z   1
loop_
 _symmetry_equiv_pos_site_id
 _symmetry_equiv_pos_as_xyz
  1  'x, y, z'
loop_
 _atom_site_type_symbol
 _atom_site_label
 _atom_site_symmetry_multiplicity
 _atom_site_fract_x
 _atom_site_fract_y
 _atom_site_fract_z
 _atom_site_occupancy
  Fe  Fe0  1  1.00226897  0.00370070  1.00096134  1
  Ni  Ni1  1  0.16960904  0.17027403  0.16851868  1
  Fe  Fe2  1  1.00158617  0.00448863  0.33803455  1
  Ni  Ni3  1  0.00537444  0.33465493  1.00242681  1
  Ni  Ni4  1  0.16788403  0.50062316  0.17010161  1
  Ni  Ni5  1  0.00354949  0.33586151  0.33612747  1
  Fe  Fe6  1  1.00223950  0.66923841  0.00314962  1
  Fe  Fe7  1  0.17028354  0.83599849  0.17007493  1
  Ni  Ni8  1  0.00471551  0.66896502  0.33543278  1
  Fe  Fe9  1  0.33706222  0.00476093  0.00339045  1
  Ni  Ni10  1  0.50113560  0.16910732  0.16938391  1
  Cr  Cr11  1  0.33716878  1.00237944  0.33607556  1
  Fe  Fe12  1  0.33611810  0.33466574  0.00400513  1
  Ni  Ni13  1  0.50318014  0.50229081  0.17310752  1
  Ni  Ni14  1  0.33567631  0.33643611  0.33520992  1
  Cr  Cr15  1  0.33642220  0.66962170  0.00487095  1
  Ni  Ni16  1  0.50423899  0.83773879  0.16917474  1
  Fe  Fe17  1  0.33725748  0.66800312  0.33644709  1
  Ni  Ni18  1  0.66924645  1.00244741  1.00121894  1
  Fe  Fe19  1  0.83687384  0.17018649  0.17025924  1
  Ni  Ni20  1  0.66927853  0.00354299  0.33738133  1
  Cr  Cr21  1  0.67095478  0.33521472  0.00618500  1
  Ni  Ni22  1  0.83781564  0.50349246  0.16967765  1
  Ni  Ni23  1  0.66949414  0.33473450  0.33538318  1
  Ni  Ni24  1  0.66897549  0.67248869  0.00343953  1
  Cr  Cr25  1  0.83671323  0.83612866  0.17038763  1
  Ni  Ni26  1  0.66869444  0.67049593  0.33577355  1
  Fe  Fe27  1  0.16935390  0.16973302  0.50291311  1
  Ni  Ni28  1  1.00271246  0.00298847  0.66881924  1
  Fe  Fe29  1  0.16867257  0.16904603  0.83636673  1
  Fe  Fe30  1  0.17154783  0.50388299  0.50236353  1
  Fe  Fe31  1  0.00480201  0.33605698  0.66982766  1
  Fe  Fe32  1  0.16948327  0.50227437  0.83567771  1
  Ni  Ni33  1  0.16806879  0.83544687  0.50189437  1
  Ni  Ni34  1  0.00508575  0.67246667  0.67125376  1
  Ni  Ni35  1  0.16883928  0.83750637  0.83634913  1
  Ni  Ni36  1  0.50190737  0.17137773  0.50383980  1
  Fe  Fe37  1  0.33499826  1.00119479  0.66889263  1
  Ni  Ni38  1  0.50082060  0.16777664  0.83577921  1
  Fe  Fe39  1  0.50181260  0.50413122  0.50274111  1
  Ni  Ni40  1  0.33465898  0.33503456  0.66970913  1
  Cr  Cr41  1  0.50235943  0.50128436  0.83449708  1
  Ni  Ni42  1  0.50324268  0.83704671  0.50446828  1
  Ni  Ni43  1  0.33492292  0.67000470  0.66777030  1
  Fe  Fe44  1  0.50414163  0.83815942  0.83556380  1
  Fe  Fe45  1  0.83555379  0.16696545  0.50295449  1
  Fe  Fe46  1  0.66939834  1.00241266  0.66960870  1
  Ni  Ni47  1  0.83591879  0.16769776  0.83477084  1
  Cr  Cr48  1  0.83663681  0.50430304  0.50345247  1
  Fe  Fe49  1  0.66911475  0.33426664  0.66872418  1
  Cr  Cr50  1  0.83724828  0.50497222  0.83627016  1
  Ni  Ni51  1  0.83736775  0.83539221  0.50370153  1
  Ni  Ni52  1  0.66910320  0.67328264  0.67003135  1
  Ni  Ni53  1  0.83817835  0.83752231  0.83532807  1
" 