164,Ni52Fe35Cr11_18,-236.612086831333, 210.682350693443,Ni52Fe35Cr11,"# generated using pymatgen
 data_Cr7Fe19Ni28
_symmetry_space_group_name_H-M   'P 1'
_cell_length_a   7.42491464
_cell_length_b   7.42491464
_cell_length_c   10.50041499
_cell_angle_alpha   90.00000000
_cell_angle_beta   90.00000000
_cell_angle_gamma   90.00000000
_symmetry_Int_Tables_number   1
_chemical_formula_structural   Cr7Fe19Ni28
_chemical_formula_sum   'Cr7 Fe19 Ni28'
_cell_volume   578.88113167
_cell_formula_units_Z   1
loop_
 _symmetry_equiv_pos_site_id
 _symmetry_equiv_pos_as_xyz
  1  'x, y, z'
loop_
 _atom_site_type_symbol
 _atom_site_label
 _atom_site_symmetry_multiplicity
 _atom_site_fract_x
 _atom_site_fract_y
 _atom_site_fract_z
 _atom_site_occupancy
  Ni  Ni0  1  1.00051947  1.00111917  1.00251506  1
  Cr  Cr1  1  0.16575713  0.16874274  0.17196031  1
  Ni  Ni2  1  1.00205793  1.00257466  0.33553532  1
  Ni  Ni3  1  0.99902121  0.33698867  1.00068936  1
  Cr  Cr4  1  0.16639953  0.50285464  0.16980006  1
  Ni  Ni5  1  0.99951058  0.33578723  0.33746624  1
  Ni  Ni6  1  1.00140912  0.67041140  1.00251772  1
  Fe  Fe7  1  0.16567405  0.83671430  0.16939231  1
  Fe  Fe8  1  0.99923736  0.67154818  0.33637028  1
  Cr  Cr9  1  0.33375761  1.00089968  1.00248791  1
  Cr  Cr10  1  0.50547258  0.16872537  0.17339398  1
  Ni  Ni11  1  0.33569302  1.00141166  0.33801006  1
  Cr  Cr12  1  0.33710417  0.33841835  1.00059419  1
  Fe  Fe13  1  0.50792598  0.50412838  0.17040898  1
  Fe  Fe14  1  0.33696983  0.33390200  0.33972209  1
  Fe  Fe15  1  0.33378595  0.66951435  1.00273093  1
  Fe  Fe16  1  0.50588536  0.83494451  0.17027277  1
  Cr  Cr17  1  0.33708696  0.67137659  0.33596550  1
  Fe  Fe18  1  0.67422974  0.00337476  0.00314695  1
  Ni  Ni19  1  0.83584851  0.16936474  0.16828568  1
  Ni  Ni20  1  0.67075535  1.00262722  0.33687179  1
  Fe  Fe21  1  0.67384730  0.33677418  1.00206795  1
  Ni  Ni22  1  0.83489792  0.50375114  0.17054779  1
  Ni  Ni23  1  0.67160484  0.33747327  0.33609248  1
  Fe  Fe24  1  0.67231395  0.66832000  0.00341668  1
  Ni  Ni25  1  0.83508504  0.83551828  0.16912163  1
  Fe  Fe26  1  0.67193019  0.67036028  0.33706108  1
  Ni  Ni27  1  0.16938982  0.16939503  0.50199281  1
  Ni  Ni28  1  0.00379051  1.00170142  0.67040474  1
  Ni  Ni29  1  0.16871635  0.17010633  0.83497964  1
  Fe  Fe30  1  0.16865838  0.50217470  0.50379244  1
  Fe  Fe31  1  1.00241915  0.33467345  0.66977219  1
  Ni  Ni32  1  0.16742063  0.50316788  0.83498351  1
  Ni  Ni33  1  0.16902657  0.83806134  0.50318841  1
  Fe  Fe34  1  1.00243998  0.67038107  0.67049841  1
  Ni  Ni35  1  0.16787810  0.83518683  0.83641245  1
  Fe  Fe36  1  0.50326514  0.16811801  0.50346562  1
  Ni  Ni37  1  0.33440446  0.00393523  0.66816400  1
  Ni  Ni38  1  0.50400436  0.17041026  0.83313634  1
  Ni  Ni39  1  0.50393287  0.50252056  0.50377688  1
  Ni  Ni40  1  0.33691961  0.33632335  0.66896908  1
  Fe  Fe41  1  0.50273876  0.50135524  0.83379497  1
  Ni  Ni42  1  0.50415542  0.83640012  0.50315411  1
  Fe  Fe43  1  0.33621263  0.66952665  0.66799763  1
  Cr  Cr44  1  0.50378494  0.83680675  0.83421723  1
  Ni  Ni45  1  0.83672816  0.16912765  0.50225205  1
  Ni  Ni46  1  0.67049006  0.00301884  0.66881747  1
  Fe  Fe47  1  0.83724376  0.16950871  0.83592274  1
  Fe  Fe48  1  0.83562939  0.50289363  0.50290032  1
  Ni  Ni49  1  0.66824011  0.33757925  0.67062753  1
  Ni  Ni50  1  0.83709148  0.50259342  0.83643695  1
  Ni  Ni51  1  0.83529623  0.83650917  0.50340107  1
  Ni  Ni52  1  0.67042493  0.66787968  0.66784957  1
  Fe  Fe53  1  0.83913005  0.83623221  0.83585930  1
" 