8522,Ni52Fe10Cr37_18,-224.96434591363, 159.2339277128,Ni52Fe10Cr37,"# generated using pymatgen
 data_Cr21Fe5Ni28
_symmetry_space_group_name_H-M   'P 1'
_cell_length_a   7.48665146
_cell_length_b   7.48665146
_cell_length_c   10.58772404
_cell_angle_alpha   90.00000000
_cell_angle_beta   90.00000000
_cell_angle_gamma   90.00000000
_symmetry_Int_Tables_number   1
_chemical_formula_structural   Cr21Fe5Ni28
_chemical_formula_sum   'Cr21 Fe5 Ni28'
_cell_volume   593.44140408
_cell_formula_units_Z   1
loop_
 _symmetry_equiv_pos_site_id
 _symmetry_equiv_pos_as_xyz
  1  'x, y, z'
loop_
 _atom_site_type_symbol
 _atom_site_label
 _atom_site_symmetry_multiplicity
 _atom_site_fract_x
 _atom_site_fract_y
 _atom_site_fract_z
 _atom_site_occupancy
  Ni  Ni0  1  0.99644113  0.99676653  0.99855011  1
  Cr  Cr1  1  0.16263808  0.16447534  0.16629015  1
  Ni  Ni2  1  0.99696201  0.00103034  0.33464937  1
  Ni  Ni3  1  -0.00026882  0.33345321  -0.00067018  1
  Ni  Ni4  1  0.16165192  0.49709451  0.16261273  1
  Ni  Ni5  1  0.99652642  0.32994235  0.33350592  1
  Ni  Ni6  1  0.99763626  0.66563398  0.99526285  1
  Cr  Cr7  1  0.16369031  0.83496643  0.16367632  1
  Cr  Cr8  1  0.99766379  0.66657025  0.33207572  1
  Ni  Ni9  1  0.33309804  -0.00109488  0.99469341  1
  Cr  Cr10  1  0.49841249  0.16418972  0.15999380  1
  Ni  Ni11  1  0.33246617  -0.00015083  0.33687884  1
  Ni  Ni12  1  0.32820605  0.33083012  0.99663444  1
  Cr  Cr13  1  0.49689972  0.49841715  0.16587399  1
  Cr  Cr14  1  0.32961564  0.32995944  0.33263485  1
  Cr  Cr15  1  0.32830723  0.66549601  0.99571792  1
  Cr  Cr16  1  0.50064102  0.83326944  0.16679310  1
  Cr  Cr17  1  0.33225388  0.66805482  0.33112582  1
  Ni  Ni18  1  0.66638436  0.99683643  0.99734910  1
  Ni  Ni19  1  0.83519324  0.16273423  0.16365923  1
  Cr  Cr20  1  0.66628152  0.99853963  0.33220189  1
  Cr  Cr21  1  0.66646995  0.32897117  0.99487823  1
  Cr  Cr22  1  0.83262685  0.49835270  0.16612546  1
  Cr  Cr23  1  0.66754954  0.32899963  0.33518177  1
  Cr  Cr24  1  0.66796826  0.66907344  0.99825912  1
  Ni  Ni25  1  0.83454203  0.83525686  0.16497156  1
  Fe  Fe26  1  0.66789279  0.66755162  0.33491118  1
  Fe  Fe27  1  0.16568401  0.16272281  0.50022403  1
  Ni  Ni28  1  0.99605846  0.99598545  0.66383812  1
  Cr  Cr29  1  0.16512797  0.16364399  0.83110144  1
  Cr  Cr30  1  0.16493827  0.49873035  0.50061706  1
  Cr  Cr31  1  0.99786610  0.33168124  0.66362253  1
  Ni  Ni32  1  0.16381146  0.49922245  0.83199772  1
  Cr  Cr33  1  0.16499025  0.83407797  0.50329818  1
  Ni  Ni34  1  0.99658144  0.66646248  0.66862119  1
  Fe  Fe35  1  0.16405283  0.83264015  0.82953861  1
  Ni  Ni36  1  0.50020118  0.16402247  0.50374092  1
  Ni  Ni37  1  0.33526776  0.99844683  0.66470104  1
  Ni  Ni38  1  0.49701885  0.16133385  0.83072933  1
  Cr  Cr39  1  0.49999554  0.50113296  0.50194234  1
  Ni  Ni40  1  0.33298713  0.33049575  0.66599290  1
  Cr  Cr41  1  0.49968529  0.49782736  0.82828688  1
  Ni  Ni42  1  0.50086147  0.83449616  0.50032338  1
  Ni  Ni43  1  0.33269971  0.66674637  0.66829240  1
  Ni  Ni44  1  0.50048909  0.83433144  0.82898812  1
  Ni  Ni45  1  0.83295154  0.16304464  0.50017660  1
  Ni  Ni46  1  0.66498624  0.99757590  0.66560088  1
  Cr  Cr47  1  0.83180847  0.16145084  0.83312514  1
  Fe  Fe48  1  0.83127231  0.50063440  0.50116412  1
  Fe  Fe49  1  0.66543105  0.33001683  0.66569602  1
  Ni  Ni50  1  0.83545437  0.50157323  0.82898215  1
  Ni  Ni51  1  0.83116002  0.83455350  0.50023975  1
  Ni  Ni52  1  0.66746255  0.66992706  0.66365274  1
  Ni  Ni53  1  0.83270707  0.83130414  0.83097004  1
" 