5366,Ni52Fe10Cr37_9,-224.543883860513, 154.743281806133,Ni52Fe10Cr37,"# generated using pymatgen
 data_Cr21Fe5Ni28
_symmetry_space_group_name_H-M   'P 1'
_cell_length_a   7.49313292
_cell_length_b   7.49313292
_cell_length_c   10.59689021
_cell_angle_alpha   90.00000000
_cell_angle_beta   90.00000000
_cell_angle_gamma   90.00000000
_symmetry_Int_Tables_number   1
_chemical_formula_structural   Cr21Fe5Ni28
_chemical_formula_sum   'Cr21 Fe5 Ni28'
_cell_volume   594.98402914
_cell_formula_units_Z   1
loop_
 _symmetry_equiv_pos_site_id
 _symmetry_equiv_pos_as_xyz
  1  'x, y, z'
loop_
 _atom_site_type_symbol
 _atom_site_label
 _atom_site_symmetry_multiplicity
 _atom_site_fract_x
 _atom_site_fract_y
 _atom_site_fract_z
 _atom_site_occupancy
  Ni  Ni0  1  0.99650690  -0.00014909  -0.00106585  1
  Cr  Cr1  1  0.16542074  0.16415840  0.16145324  1
  Fe  Fe2  1  0.99600101  0.99741031  0.33087240  1
  Ni  Ni3  1  0.99813913  0.32953931  0.99659553  1
  Cr  Cr4  1  0.16760224  0.49899527  0.16631133  1
  Cr  Cr5  1  0.99692857  0.32983396  0.33086624  1
  Cr  Cr6  1  0.99785526  0.66540876  0.99651703  1
  Cr  Cr7  1  0.16657581  0.83208561  0.16597286  1
  Ni  Ni8  1  0.99422572  0.66926395  0.33130277  1
  Ni  Ni9  1  0.33266539  -0.00071978  0.99461006  1
  Cr  Cr10  1  0.50005401  0.16524679  0.16284331  1
  Ni  Ni11  1  0.33239580  -0.00094944  0.33238695  1
  Ni  Ni12  1  0.33323735  0.33252415  0.99540597  1
  Ni  Ni13  1  0.49761479  0.49882962  0.16554913  1
  Ni  Ni14  1  0.33488408  0.33043744  0.33361986  1
  Ni  Ni15  1  0.33322521  0.66360046  0.99690980  1
  Cr  Cr16  1  0.49725132  0.83146773  0.16301694  1
  Ni  Ni17  1  0.33409023  0.66519399  0.33092486  1
  Ni  Ni18  1  0.66557526  -0.00067582  0.99762552  1
  Ni  Ni19  1  0.83124431  0.16088515  0.16238965  1
  Fe  Fe20  1  0.66526535  0.99706659  0.33153885  1
  Ni  Ni21  1  0.66389434  0.33036498  0.99798926  1
  Cr  Cr22  1  0.82911181  0.49504293  0.16190663  1
  Cr  Cr23  1  0.66406568  0.33110001  0.33231677  1
  Cr  Cr24  1  0.66326613  0.66509570  0.99538725  1
  Fe  Fe25  1  0.83037964  0.83275796  0.16422057  1
  Ni  Ni26  1  0.66522992  0.66674725  0.33133571  1
  Cr  Cr27  1  0.16568114  0.16335215  0.49933955  1
  Ni  Ni28  1  0.99435041  0.99627153  0.66384466  1
  Fe  Fe29  1  0.16591848  0.16671768  0.83374979  1
  Cr  Cr30  1  0.16614462  0.50060247  0.49688840  1
  Cr  Cr31  1  0.00035175  0.33085112  0.66729863  1
  Ni  Ni32  1  0.16555653  0.49695083  0.83256119  1
  Cr  Cr33  1  0.16325072  0.83063220  0.49727408  1
  Ni  Ni34  1  0.99500474  0.66737715  0.66768362  1
  Cr  Cr35  1  0.16466418  0.83301512  0.83219936  1
  Ni  Ni36  1  0.50033729  0.16395424  0.49753039  1
  Cr  Cr37  1  0.33394249  0.00235180  0.66846912  1
  Ni  Ni38  1  0.49835912  0.16491204  0.83332115  1
  Ni  Ni39  1  0.49866404  0.49820071  0.49669314  1
  Ni  Ni40  1  0.33422655  0.33185136  0.66525667  1
  Ni  Ni41  1  0.49812964  0.49664028  0.83281036  1
  Cr  Cr42  1  0.49946426  0.83103178  0.49899159  1
  Cr  Cr43  1  0.33406394  0.66260100  0.66878948  1
  Ni  Ni44  1  0.50097481  0.83372059  0.83322038  1
  Ni  Ni45  1  0.82932603  0.15992037  0.49801076  1
  Ni  Ni46  1  0.66619938  0.99686810  0.66445050  1
  Cr  Cr47  1  0.82930882  0.16457407  0.83350404  1
  Cr  Cr48  1  0.83036281  0.50055248  0.50231314  1
  Cr  Cr49  1  0.66111754  0.33095252  0.66399603  1
  Ni  Ni50  1  0.83169618  0.49915730  0.83135957  1
  Fe  Fe51  1  0.82975117  0.83184051  0.50013167  1
  Ni  Ni52  1  0.66625995  0.66697052  0.66830150  1
  Ni  Ni53  1  0.83019421  0.83357470  0.82921538  1
" 