4142,Ni52Fe46Cr1_16,-240.504655683152, 214.300025567578,Ni52Fe46Cr1,"# generated using pymatgen
 data_Cr(Fe6Ni7)2
_symmetry_space_group_name_H-M   'P 1'
_cell_length_a   7.41302663
_cell_length_b   7.41302663
_cell_length_c   10.48360280
_cell_angle_alpha   90.00000000
_cell_angle_beta   90.00000000
_cell_angle_gamma   90.00000000
_symmetry_Int_Tables_number   1
_chemical_formula_structural   Cr(Fe6Ni7)2
_chemical_formula_sum   'Cr2 Fe24 Ni28'
_cell_volume   576.10504535
_cell_formula_units_Z   2
loop_
 _symmetry_equiv_pos_site_id
 _symmetry_equiv_pos_as_xyz
  1  'x, y, z'
loop_
 _atom_site_type_symbol
 _atom_site_label
 _atom_site_symmetry_multiplicity
 _atom_site_fract_x
 _atom_site_fract_y
 _atom_site_fract_z
 _atom_site_occupancy
  Ni  Ni0  1  1.00315271  1.00259730  1.00281382  1
  Fe  Fe1  1  0.17076845  0.16915692  0.16969874  1
  Ni  Ni2  1  0.00464644  1.00159384  0.33707998  1
  Fe  Fe3  1  0.00509540  0.33604886  0.00419619  1
  Fe  Fe4  1  0.17139352  0.50475541  0.17071720  1
  Fe  Fe5  1  0.00702450  0.33786688  0.33643650  1
  Ni  Ni6  1  1.00186926  0.67218592  0.00463749  1
  Ni  Ni7  1  0.17082677  0.83648183  0.16958264  1
  Ni  Ni8  1  1.00269054  0.67120530  0.33718638  1
  Ni  Ni9  1  0.33638004  0.00424416  0.00393983  1
  Fe  Fe10  1  0.50237329  0.16953897  0.17045306  1
  Ni  Ni11  1  0.33587564  0.00446585  0.33681589  1
  Ni  Ni12  1  0.33974385  0.33615608  0.00406197  1
  Fe  Fe13  1  0.50192140  0.50452246  0.17101693  1
  Ni  Ni14  1  0.33907509  0.33672104  0.33780483  1
  Ni  Ni15  1  0.33744866  0.67039411  0.00409891  1
  Fe  Fe16  1  0.50175691  0.83683310  0.17102549  1
  Ni  Ni17  1  0.33625008  0.66971003  0.33764054  1
  Fe  Fe18  1  0.66930252  1.00289647  1.00310719  1
  Fe  Fe19  1  0.83823367  0.16855969  0.17084680  1
  Fe  Fe20  1  0.66848693  1.00160463  0.33710478  1
  Fe  Fe21  1  0.67044890  0.33693475  1.00284136  1
  Fe  Fe22  1  0.83789371  0.50489625  0.17009994  1
  Fe  Fe23  1  0.66917598  0.33837011  0.33705436  1
  Fe  Fe24  1  0.66953748  0.67099129  1.00275011  1
  Fe  Fe25  1  0.83820927  0.83743092  0.17110108  1
  Fe  Fe26  1  0.66893873  0.67085807  0.33856656  1
  Fe  Fe27  1  0.17181776  0.16956680  0.50388322  1
  Ni  Ni28  1  0.00553223  1.00111795  0.67101691  1
  Ni  Ni29  1  0.17217187  0.16827249  0.83772989  1
  Ni  Ni30  1  0.17007643  0.50514868  0.50303771  1
  Fe  Fe31  1  1.00232366  0.33708537  0.67068017  1
  Cr  Cr32  1  0.16910022  0.50621833  0.83729175  1
  Ni  Ni33  1  0.17053397  0.83621528  0.50331451  1
  Ni  Ni34  1  1.00161588  0.67142394  0.66868523  1
  Ni  Ni35  1  0.17086805  0.83801473  0.83796728  1
  Ni  Ni36  1  0.50349482  0.16995043  0.50272374  1
  Ni  Ni37  1  0.33677030  0.00540919  0.66981557  1
  Ni  Ni38  1  0.50437889  0.16939712  0.83778120  1
  Ni  Ni39  1  0.50365337  0.50309608  0.50429136  1
  Fe  Fe40  1  0.33793729  0.33546055  0.66960065  1
  Fe  Fe41  1  0.50345987  0.50326333  0.83687335  1
  Ni  Ni42  1  0.50305836  0.83807474  0.50314037  1
  Fe  Fe43  1  0.33793892  0.67328010  0.66874424  1
  Fe  Fe44  1  0.50214251  0.83710812  0.83594996  1
  Cr  Cr45  1  0.83530078  0.16955416  0.50482249  1
  Ni  Ni46  1  0.66909659  1.00338818  0.67083619  1
  Fe  Fe47  1  0.83834534  0.17008900  0.83607104  1
  Ni  Ni48  1  0.83741798  0.50429467  0.50248733  1
  Ni  Ni49  1  0.66820067  0.33863816  0.67119091  1
  Ni  Ni50  1  0.83559852  0.50377976  0.83778524  1
  Ni  Ni51  1  0.83714119  0.83621932  0.50318652  1
  Ni  Ni52  1  0.67206791  0.66861564  0.66952972  1
  Fe  Fe53  1  0.83819411  0.83705484  0.83564209  1
" 