3,Ni52Fe11Cr35_7,-225.523811644796, 161.884828562404,Ni52Fe11Cr35,"# generated using pymatgen
 data_Cr10Fe3Ni14
_symmetry_space_group_name_H-M   'P 1'
_cell_length_a   7.48255636
_cell_length_b   7.48255636
_cell_length_c   10.58193269
_cell_angle_alpha   90.00000000
_cell_angle_beta   90.00000000
_cell_angle_gamma   90.00000000
_symmetry_Int_Tables_number   1
_chemical_formula_structural   Cr10Fe3Ni14
_chemical_formula_sum   'Cr20 Fe6 Ni28'
_cell_volume   592.46812252
_cell_formula_units_Z   2
loop_
 _symmetry_equiv_pos_site_id
 _symmetry_equiv_pos_as_xyz
  1  'x, y, z'
loop_
 _atom_site_type_symbol
 _atom_site_label
 _atom_site_symmetry_multiplicity
 _atom_site_fract_x
 _atom_site_fract_y
 _atom_site_fract_z
 _atom_site_occupancy
  Ni  Ni0  1  0.00040909  0.00213184  0.99890716  1
  Fe  Fe1  1  0.16343707  0.16592537  0.16462024  1
  Ni  Ni2  1  0.99659377  -0.00039899  0.33243152  1
  Ni  Ni3  1  0.00112491  0.32927763  -0.00037915  1
  Ni  Ni4  1  0.16790063  0.49863753  0.16459565  1
  Cr  Cr5  1  0.99874136  0.33352784  0.33273409  1
  Cr  Cr6  1  0.00268428  0.66483714  0.00000308  1
  Ni  Ni7  1  0.16574228  0.83243085  0.16540709  1
  Ni  Ni8  1  0.99705636  0.66607980  0.33308188  1
  Cr  Cr9  1  0.33336916  0.99750158  -0.00037060  1
  Fe  Fe10  1  0.50104815  0.16673908  0.16528812  1
  Cr  Cr11  1  0.33431308  0.00043520  0.32967020  1
  Ni  Ni12  1  0.33038205  0.33278910  -0.00081646  1
  Cr  Cr13  1  0.49820260  0.49759889  0.16535724  1
  Ni  Ni14  1  0.33204692  0.33146751  0.33013907  1
  Ni  Ni15  1  0.33169617  0.66522410  0.99688194  1
  Ni  Ni16  1  0.49833676  0.83272797  0.16563180  1
  Cr  Cr17  1  0.33153109  0.66605680  0.33233611  1
  Ni  Ni18  1  0.66491987  0.00095968  0.00133948  1
  Ni  Ni19  1  0.83184538  0.16487420  0.16406233  1
  Fe  Fe20  1  0.66809225  -0.00072300  0.33240779  1
  Ni  Ni21  1  0.66521460  0.32923966  0.99887383  1
  Cr  Cr22  1  0.83176316  0.49667241  0.16547555  1
  Ni  Ni23  1  0.66732474  0.33031004  0.33321013  1
  Cr  Cr24  1  0.66166306  0.66814933  0.99752899  1
  Cr  Cr25  1  0.83405926  0.83536070  0.16639561  1
  Ni  Ni26  1  0.66768670  0.66737290  0.33470172  1
  Cr  Cr27  1  0.16383241  0.16533100  0.49902053  1
  Fe  Fe28  1  0.99811399  0.99843266  0.66553221  1
  Ni  Ni29  1  0.16376188  0.16586556  0.83360658  1
  Ni  Ni30  1  0.16474612  0.49913033  0.49878122  1
  Ni  Ni31  1  0.99714479  0.33140595  0.66476862  1
  Fe  Fe32  1  0.16689251  0.49816213  0.83318914  1
  Cr  Cr33  1  0.16471600  0.83150115  0.49882152  1
  Cr  Cr34  1  0.99754324  0.66189961  0.66439582  1
  Ni  Ni35  1  0.16731449  0.83304810  0.83279870  1
  Cr  Cr36  1  0.50114016  0.16592572  0.49711819  1
  Cr  Cr37  1  0.33484532  0.99673667  0.66750541  1
  Cr  Cr38  1  0.50077076  0.16790107  0.83315702  1
  Cr  Cr39  1  0.49831068  0.49991767  0.49888491  1
  Cr  Cr40  1  0.32849271  0.33372704  0.66635305  1
  Ni  Ni41  1  0.49631282  0.50045903  0.83259131  1
  Ni  Ni42  1  0.50244624  0.83118909  0.49995250  1
  Ni  Ni43  1  0.33430202  0.66576466  0.66801121  1
  Ni  Ni44  1  0.49779614  0.83004190  0.83135693  1
  Ni  Ni45  1  0.83194593  0.16479080  0.50098841  1
  Ni  Ni46  1  0.66677721  0.99620310  0.66320505  1
  Cr  Cr47  1  0.83390171  0.16499833  0.83186405  1
  Ni  Ni48  1  0.83141790  0.49889215  0.49834750  1
  Fe  Fe49  1  0.66694125  0.33434830  0.66467464  1
  Cr  Cr50  1  0.82911915  0.49595587  0.83411993  1
  Ni  Ni51  1  0.83070012  0.83333599  0.49733014  1
  Ni  Ni52  1  0.66475687  0.66805393  0.66477073  1
  Cr  Cr53  1  0.83281117  0.83581539  0.83337861  1
" 