2852,Ni52Fe10Cr37_17,-224.684925272114, 157.839466708078,Ni52Fe10Cr37,"# generated using pymatgen
 data_Cr21Fe5Ni28
_symmetry_space_group_name_H-M   'P 1'
_cell_length_a   7.48423387
_cell_length_b   7.48423387
_cell_length_c   10.58430505
_cell_angle_alpha   90.00000000
_cell_angle_beta   90.00000000
_cell_angle_gamma   90.00000000
_symmetry_Int_Tables_number   1
_chemical_formula_structural   Cr21Fe5Ni28
_chemical_formula_sum   'Cr21 Fe5 Ni28'
_cell_volume   592.86668708
_cell_formula_units_Z   1
loop_
 _symmetry_equiv_pos_site_id
 _symmetry_equiv_pos_as_xyz
  1  'x, y, z'
loop_
 _atom_site_type_symbol
 _atom_site_label
 _atom_site_symmetry_multiplicity
 _atom_site_fract_x
 _atom_site_fract_y
 _atom_site_fract_z
 _atom_site_occupancy
  Ni  Ni0  1  0.99671155  0.00089245  0.00050872  1
  Ni  Ni1  1  0.16493679  0.16671092  0.16476085  1
  Cr  Cr2  1  0.99826468  0.00208278  0.33346250  1
  Ni  Ni3  1  0.99750576  0.33181755  0.00205852  1
  Ni  Ni4  1  0.16327011  0.49771189  0.16580626  1
  Fe  Fe5  1  0.99670447  0.33252576  0.33195359  1
  Ni  Ni6  1  0.99723010  0.66389114  0.00022395  1
  Cr  Cr7  1  0.16511664  0.83354806  0.16413520  1
  Cr  Cr8  1  0.99826747  0.66422106  0.33375905  1
  Ni  Ni9  1  0.33374420  0.00141013  0.00168759  1
  Ni  Ni10  1  0.49971857  0.16388036  0.16607532  1
  Fe  Fe11  1  0.33241815  -0.00010945  0.33097348  1
  Cr  Cr12  1  0.33166049  0.33016024  -0.00106356  1
  Fe  Fe13  1  0.49936235  0.49596982  0.16736708  1
  Cr  Cr14  1  0.32947113  0.33076931  0.33172307  1
  Cr  Cr15  1  0.33197345  0.66380380  0.00012730  1
  Fe  Fe16  1  0.49942247  0.83483795  0.16576888  1
  Ni  Ni17  1  0.33137703  0.66338249  0.33043999  1
  Ni  Ni18  1  0.66615779  0.00105063  0.00010627  1
  Ni  Ni19  1  0.83172755  0.16679078  0.16459812  1
  Cr  Cr20  1  0.66820999  0.00096101  0.33276985  1
  Cr  Cr21  1  0.66631964  0.33068138  0.99835051  1
  Ni  Ni22  1  0.83391037  0.49644091  0.16585008  1
  Ni  Ni23  1  0.66662011  0.33078170  0.33156246  1
  Cr  Cr24  1  0.66798653  0.66493899  0.00167075  1
  Ni  Ni25  1  0.83170734  0.83347837  0.16301876  1
  Cr  Cr26  1  0.66815328  0.66462697  0.32965462  1
  Ni  Ni27  1  0.16355652  0.16841265  0.49880346  1
  Ni  Ni28  1  0.99569172  0.00108818  0.66380905  1
  Cr  Cr29  1  0.16188980  0.16546447  0.83398406  1
  Ni  Ni30  1  0.16465427  0.49646960  0.50046936  1
  Ni  Ni31  1  0.99777912  0.33155408  0.66302318  1
  Cr  Cr32  1  0.16185776  0.49815885  0.83018364  1
  Cr  Cr33  1  0.16570784  0.83156962  0.50042055  1
  Ni  Ni34  1  0.99848648  0.66382829  0.66354092  1
  Cr  Cr35  1  0.16375881  0.83251805  0.83227416  1
  Fe  Fe36  1  0.50093757  0.16772983  0.49944159  1
  Cr  Cr37  1  0.33181674  0.00287380  0.66437772  1
  Ni  Ni38  1  0.50165390  0.16440785  0.83032087  1
  Cr  Cr39  1  0.49950685  0.49732510  0.49962294  1
  Ni  Ni40  1  0.33153283  0.33137948  0.66432351  1
  Cr  Cr41  1  0.50004676  0.49603556  0.82859352  1
  Cr  Cr42  1  0.49904661  0.83275078  0.49780471  1
  Ni  Ni43  1  0.32917832  0.66285250  0.66410613  1
  Cr  Cr44  1  0.49888821  0.83509484  0.83289898  1
  Ni  Ni45  1  0.83239742  0.16807181  0.50015292  1
  Ni  Ni46  1  0.66858513  0.00361911  0.66456011  1
  Ni  Ni47  1  0.83126101  0.16689458  0.83208111  1
  Ni  Ni48  1  0.83352207  0.49483257  0.49949794  1
  Ni  Ni49  1  0.66759787  0.32840530  0.66535172  1
  Ni  Ni50  1  0.83475778  0.49529534  0.83139937  1
  Ni  Ni51  1  0.83231345  0.83375985  0.50186021  1
  Cr  Cr52  1  0.66919689  0.66537116  0.66532555  1
  Cr  Cr53  1  0.83442937  0.83497886  0.83242264  1
" 