6414,Ni52Fe48_6,-240.908441934558, 224.698691078224,Ni52Fe48,"# generated using pymatgen
 data_Fe14Ni13
_symmetry_space_group_name_H-M   'P 1'
_cell_length_a   7.39850391
_cell_length_b   7.39850391
_cell_length_c   10.46306457
_cell_angle_alpha   90.00000000
_cell_angle_beta   90.00000000
_cell_angle_gamma   90.00000000
_symmetry_Int_Tables_number   1
_chemical_formula_structural   Fe14Ni13
_chemical_formula_sum   'Fe28 Ni26'
_cell_volume   572.72576441
_cell_formula_units_Z   2
loop_
 _symmetry_equiv_pos_site_id
 _symmetry_equiv_pos_as_xyz
  1  'x, y, z'
loop_
 _atom_site_type_symbol
 _atom_site_label
 _atom_site_symmetry_multiplicity
 _atom_site_fract_x
 _atom_site_fract_y
 _atom_site_fract_z
 _atom_site_occupancy
  Fe  Fe0  1  0.00522008  0.00614901  1.00444802  1
  Ni  Ni1  1  0.17133159  0.17126455  0.17288540  1
  Ni  Ni2  1  1.00410638  1.00383087  0.33641964  1
  Ni  Ni3  1  0.00601048  0.33891190  1.00446092  1
  Fe  Fe4  1  0.17122627  0.50452222  0.17055303  1
  Fe  Fe5  1  1.00382350  0.33551494  0.33706650  1
  Ni  Ni6  1  1.00385108  0.67198813  1.00423604  1
  Ni  Ni7  1  0.17187389  0.83747416  0.16970832  1
  Fe  Fe8  1  0.00520764  0.67382547  0.33704323  1
  Fe  Fe9  1  0.33681335  0.00541356  0.00566285  1
  Ni  Ni10  1  0.50488264  0.17161956  0.17084929  1
  Ni  Ni11  1  0.33828136  0.00464203  0.33884814  1
  Ni  Ni12  1  0.33827173  0.33798586  0.00482179  1
  Fe  Fe13  1  0.50431935  0.50427436  0.17236980  1
  Fe  Fe14  1  0.33885207  0.33574138  0.33827131  1
  Fe  Fe15  1  0.33753654  0.67097373  1.00370376  1
  Ni  Ni16  1  0.50385686  0.83719737  0.17254455  1
  Fe  Fe17  1  0.33753227  0.67375003  0.33954846  1
  Fe  Fe18  1  0.67179153  1.00417862  0.00477310  1
  Ni  Ni19  1  0.83800643  0.17217636  0.17004029  1
  Ni  Ni20  1  0.67160664  0.00516837  0.33755188  1
  Fe  Fe21  1  0.67266906  0.33860561  1.00377485  1
  Fe  Fe22  1  0.83838474  0.50474418  0.17008697  1
  Fe  Fe23  1  0.67131620  0.33532330  0.33918394  1
  Fe  Fe24  1  0.67162004  0.67079713  1.00423842  1
  Ni  Ni25  1  0.83801368  0.83784644  0.17082698  1
  Fe  Fe26  1  0.67118649  0.67269314  0.33783514  1
  Fe  Fe27  1  0.17146997  0.17031855  0.50490323  1
  Ni  Ni28  1  1.00264880  1.00367858  0.67166453  1
  Ni  Ni29  1  0.17199823  0.17227386  0.83643127  1
  Fe  Fe30  1  0.17206094  0.50362633  0.50490297  1
  Fe  Fe31  1  1.00421090  0.33666095  0.67231771  1
  Fe  Fe32  1  0.17026371  0.50450761  0.83870194  1
  Ni  Ni33  1  0.17070039  0.83742666  0.50598648  1
  Fe  Fe34  1  1.00416950  0.67101555  0.67191583  1
  Fe  Fe35  1  0.16932984  0.83855125  0.83728797  1
  Ni  Ni36  1  0.50562655  0.17269219  0.50591815  1
  Fe  Fe37  1  0.33854147  0.00534072  0.67063543  1
  Fe  Fe38  1  0.50582285  0.17044021  0.83775572  1
  Ni  Ni39  1  0.50497553  0.50504674  0.50470254  1
  Ni  Ni40  1  0.33861426  0.33987732  0.67131988  1
  Fe  Fe41  1  0.50519894  0.50353841  0.83695488  1
  Fe  Fe42  1  0.50469828  0.83923940  0.50524860  1
  Ni  Ni43  1  0.33705989  0.66980221  0.67196285  1
  Ni  Ni44  1  0.50360280  0.83671652  0.83668926  1
  Ni  Ni45  1  0.83842505  0.17198078  0.50515790  1
  Ni  Ni46  1  0.67316022  0.00526725  0.67109254  1
  Ni  Ni47  1  0.83962541  0.17214888  0.83866078  1
  Fe  Fe48  1  0.83728055  0.50402594  0.50555243  1
  Ni  Ni49  1  0.67070757  0.33707948  0.67219991  1
  Ni  Ni50  1  0.83787009  0.50437358  0.83686970  1
  Fe  Fe51  1  0.83755474  0.83964396  0.50427671  1
  Fe  Fe52  1  0.67026603  0.67100616  0.67160894  1
  Ni  Ni53  1  0.83666810  0.83725109  0.83767167  1
" 