4446,Ni52Fe11Cr35_1,-225.671986815671, 163.673831345872,Ni52Fe11Cr35,"# generated using pymatgen
 data_Cr10Fe3Ni14
_symmetry_space_group_name_H-M   'P 1'
_cell_length_a   7.48391672
_cell_length_b   7.48391672
_cell_length_c   10.58385653
_cell_angle_alpha   90.00000000
_cell_angle_beta   90.00000000
_cell_angle_gamma   90.00000000
_symmetry_Int_Tables_number   1
_chemical_formula_structural   Cr10Fe3Ni14
_chemical_formula_sum   'Cr20 Fe6 Ni28'
_cell_volume   592.79132085
_cell_formula_units_Z   2
loop_
 _symmetry_equiv_pos_site_id
 _symmetry_equiv_pos_as_xyz
  1  'x, y, z'
loop_
 _atom_site_type_symbol
 _atom_site_label
 _atom_site_symmetry_multiplicity
 _atom_site_fract_x
 _atom_site_fract_y
 _atom_site_fract_z
 _atom_site_occupancy
  Ni  Ni0  1  0.99593865  -0.00098341  0.99788114  1
  Cr  Cr1  1  0.16485629  0.16656374  0.16548879  1
  Fe  Fe2  1  0.99868459  0.00003106  0.33211972  1
  Ni  Ni3  1  0.99548362  0.33133587  0.00033755  1
  Ni  Ni4  1  0.16467385  0.49799831  0.16706762  1
  Ni  Ni5  1  -0.00062611  0.33112807  0.33085524  1
  Ni  Ni6  1  -0.00088948  0.66674811  0.99835740  1
  Cr  Cr7  1  0.16876152  0.83362239  0.16611096  1
  Ni  Ni8  1  0.00037013  0.66493291  0.33158973  1
  Ni  Ni9  1  0.33449100  -0.00059517  -0.00102289  1
  Fe  Fe10  1  0.50038676  0.16386558  0.16599030  1
  Ni  Ni11  1  0.33526363  -0.00049866  0.33484870  1
  Cr  Cr12  1  0.33673537  0.33179826  -0.00091163  1
  Cr  Cr13  1  0.49837648  0.50061249  0.16854684  1
  Ni  Ni14  1  0.33316623  0.33088088  0.33342770  1
  Cr  Cr15  1  0.33171765  0.66550787  -0.00045432  1
  Ni  Ni16  1  0.49881689  0.83648016  0.16749190  1
  Ni  Ni17  1  0.33287073  0.66638931  0.33296017  1
  Ni  Ni18  1  0.66604880  0.00311102  -0.00051066  1
  Ni  Ni19  1  0.83113115  0.16507435  0.16510666  1
  Ni  Ni20  1  0.66220795  0.00071553  0.33090177  1
  Ni  Ni21  1  0.66767319  0.32709819  0.99777669  1
  Cr  Cr22  1  0.83365953  0.49581827  0.16821640  1
  Ni  Ni23  1  0.66426781  0.32957638  0.33191825  1
  Cr  Cr24  1  0.66707680  0.66479906  -0.00032379  1
  Cr  Cr25  1  0.82871445  0.83561344  0.16683432  1
  Ni  Ni26  1  0.66325188  0.66661181  0.33331138  1
  Ni  Ni27  1  0.16631302  0.16421414  0.49595205  1
  Cr  Cr28  1  0.99815843  0.99802897  0.66458880  1
  Cr  Cr29  1  0.16417086  0.16465055  0.83402196  1
  Cr  Cr30  1  0.16439384  0.49537939  0.49712998  1
  Ni  Ni31  1  0.99707001  0.33140729  0.66537281  1
  Cr  Cr32  1  0.16395275  0.49790874  0.83359779  1
  Fe  Fe33  1  0.16535899  0.83130244  0.49554776  1
  Ni  Ni34  1  0.99738395  0.66709508  0.66701500  1
  Fe  Fe35  1  0.16359934  0.83348861  0.83423057  1
  Fe  Fe36  1  0.50119169  0.16643180  0.49748450  1
  Cr  Cr37  1  0.33313644  -0.00051871  0.66251982  1
  Ni  Ni38  1  0.50314609  0.16408498  0.83281850  1
  Ni  Ni39  1  0.49986207  0.50121273  0.49812828  1
  Cr  Cr40  1  0.33526477  0.33070083  0.66430936  1
  Ni  Ni41  1  0.50231613  0.49752697  0.83014632  1
  Ni  Ni42  1  0.49911233  0.83252809  0.49673127  1
  Cr  Cr43  1  0.33188291  0.66637489  0.66488041  1
  Cr  Cr44  1  0.50062460  0.83428468  0.83339428  1
  Cr  Cr45  1  0.83312742  0.16671287  0.49807313  1
  Ni  Ni46  1  0.66529788  0.00005507  0.66649349  1
  Ni  Ni47  1  0.83053058  0.16404873  0.83291851  1
  Cr  Cr48  1  0.82945462  0.49844488  0.49922173  1
  Ni  Ni49  1  0.66488721  0.33055030  0.66659691  1
  Cr  Cr50  1  0.83123648  0.49682492  0.82955965  1
  Cr  Cr51  1  0.82748614  0.83198431  0.49743905  1
  Ni  Ni52  1  0.66531813  0.66634872  0.66474401  1
  Fe  Fe53  1  0.83175463  0.83383357  0.83230883  1
" 