8268,Ni52Fe35Cr11_10,-236.786233351423, 205.887135912831,Ni52Fe35Cr11,"# generated using pymatgen
 data_Cr7Fe19Ni28
_symmetry_space_group_name_H-M   'P 1'
_cell_length_a   7.43086666
_cell_length_b   7.43086666
_cell_length_c   10.50883241
_cell_angle_alpha   90.00000000
_cell_angle_beta   90.00000000
_cell_angle_gamma   90.00000000
_symmetry_Int_Tables_number   1
_chemical_formula_structural   Cr7Fe19Ni28
_chemical_formula_sum   'Cr7 Fe19 Ni28'
_cell_volume   580.27438820
_cell_formula_units_Z   1
loop_
 _symmetry_equiv_pos_site_id
 _symmetry_equiv_pos_as_xyz
  1  'x, y, z'
loop_
 _atom_site_type_symbol
 _atom_site_label
 _atom_site_symmetry_multiplicity
 _atom_site_fract_x
 _atom_site_fract_y
 _atom_site_fract_z
 _atom_site_occupancy
  Fe  Fe0  1  0.00298553  1.00207667  1.00224959  1
  Ni  Ni1  1  0.16822592  0.16850529  0.17062561  1
  Ni  Ni2  1  0.00361953  0.00397399  0.33537280  1
  Fe  Fe3  1  1.00149146  0.33565314  0.00328403  1
  Ni  Ni4  1  0.16781446  0.50190854  0.16876950  1
  Ni  Ni5  1  0.00246997  0.33452671  0.33413986  1
  Ni  Ni6  1  1.00192562  0.66896484  1.00189979  1
  Ni  Ni7  1  0.16974706  0.83692751  0.16867766  1
  Cr  Cr8  1  1.00105057  0.66926830  0.33612445  1
  Ni  Ni9  1  0.33644268  1.00143203  0.00260953  1
  Ni  Ni10  1  0.50230543  0.16909969  0.17003686  1
  Ni  Ni11  1  0.33403575  0.00499090  0.33443714  1
  Cr  Cr12  1  0.33580940  0.33492029  0.00261083  1
  Ni  Ni13  1  0.50401208  0.50262173  0.17038133  1
  Ni  Ni14  1  0.33586921  0.33420978  0.33606290  1
  Fe  Fe15  1  0.33502250  0.67099100  0.00260795  1
  Ni  Ni16  1  0.50142573  0.83557372  0.16787060  1
  Cr  Cr17  1  0.33658396  0.66865696  0.33261638  1
  Fe  Fe18  1  0.66872154  0.00252902  1.00201603  1
  Ni  Ni19  1  0.83683153  0.17109847  0.16928639  1
  Cr  Cr20  1  0.66932593  0.00264425  0.33449127  1
  Fe  Fe21  1  0.67027063  0.33509916  0.00274110  1
  Ni  Ni22  1  0.83547526  0.50108089  0.16904581  1
  Ni  Ni23  1  0.66898147  0.33689760  0.33542658  1
  Fe  Fe24  1  0.66868133  0.66971075  0.00273703  1
  Fe  Fe25  1  0.83604095  0.83544125  0.16804222  1
  Ni  Ni26  1  0.66998602  0.66697129  0.33446329  1
  Fe  Fe27  1  0.16967500  0.16734602  0.50100401  1
  Ni  Ni28  1  0.00384774  1.00120607  0.66954198  1
  Fe  Fe29  1  0.16925951  0.16567247  0.83601044  1
  Fe  Fe30  1  0.17018615  0.50173061  0.50253903  1
  Cr  Cr31  1  1.00163133  0.33505085  0.67016987  1
  Fe  Fe32  1  0.16900550  0.50439597  0.83625850  1
  Fe  Fe33  1  0.16833551  0.83816626  0.50390947  1
  Fe  Fe34  1  1.00211048  0.67129681  0.66958959  1
  Ni  Ni35  1  0.16918830  0.83499864  0.83424534  1
  Ni  Ni36  1  0.50065691  0.17228299  0.50250363  1
  Ni  Ni37  1  0.33390861  1.00232556  0.67020323  1
  Ni  Ni38  1  0.50289452  0.16928443  0.83474384  1
  Fe  Fe39  1  0.50398411  0.50096224  0.50271729  1
  Fe  Fe40  1  0.33788456  0.33532612  0.66883520  1
  Fe  Fe41  1  0.50383137  0.50365796  0.83486551  1
  Cr  Cr42  1  0.50209590  0.83577697  0.50304352  1
  Ni  Ni43  1  0.33549068  0.66886713  0.67119286  1
  Ni  Ni44  1  0.50107024  0.83538911  0.83588109  1
  Fe  Fe45  1  0.83607888  0.16932253  0.50171598  1
  Cr  Cr46  1  0.66978723  0.00306852  0.67032992  1
  Ni  Ni47  1  0.83540425  0.16976046  0.83628030  1
  Fe  Fe48  1  0.83309728  0.50223024  0.50184443  1
  Ni  Ni49  1  0.66809847  0.33736167  0.66960126  1
  Fe  Fe50  1  0.83433901  0.50365375  0.83676493  1
  Ni  Ni51  1  0.83824188  0.83428104  0.50333678  1
  Ni  Ni52  1  0.66920573  0.66715721  0.67001066  1
  Ni  Ni53  1  0.83700257  0.83511785  0.83569804  1
" 