5050,Ni52Fe48_15,-240.86045435322, 225.153261479666,Ni52Fe48,"# generated using pymatgen
 data_Fe14Ni13
_symmetry_space_group_name_H-M   'P 1'
_cell_length_a   7.39599305
_cell_length_b   7.39599305
_cell_length_c   10.45951368
_cell_angle_alpha   90.00000000
_cell_angle_beta   90.00000000
_cell_angle_gamma   90.00000000
_symmetry_Int_Tables_number   1
_chemical_formula_structural   Fe14Ni13
_chemical_formula_sum   'Fe28 Ni26'
_cell_volume   572.14285811
_cell_formula_units_Z   2
loop_
 _symmetry_equiv_pos_site_id
 _symmetry_equiv_pos_as_xyz
  1  'x, y, z'
loop_
 _atom_site_type_symbol
 _atom_site_label
 _atom_site_symmetry_multiplicity
 _atom_site_fract_x
 _atom_site_fract_y
 _atom_site_fract_z
 _atom_site_occupancy
  Ni  Ni0  1  0.00602285  1.00431981  1.00339847  1
  Fe  Fe1  1  0.17080903  0.17180847  0.17130435  1
  Fe  Fe2  1  1.00437267  0.00516405  0.33722312  1
  Fe  Fe3  1  0.00508400  0.33724714  1.00442993  1
  Fe  Fe4  1  0.17110917  0.50525606  0.17220435  1
  Ni  Ni5  1  1.00479310  0.33866769  0.33734338  1
  Fe  Fe6  1  1.00472395  0.67214681  1.00479891  1
  Fe  Fe7  1  0.17109304  0.83734130  0.17042498  1
  Fe  Fe8  1  1.00377414  0.67017565  0.33797211  1
  Ni  Ni9  1  0.33710999  1.00356142  1.00464831  1
  Fe  Fe10  1  0.50619249  0.17213927  0.17203294  1
  Fe  Fe11  1  0.33921274  0.00561544  0.33878438  1
  Fe  Fe12  1  0.33817032  0.33754198  0.00487579  1
  Ni  Ni13  1  0.50589829  0.50449259  0.17235136  1
  Ni  Ni14  1  0.33737005  0.33953350  0.33853133  1
  Fe  Fe15  1  0.33836269  0.67167149  1.00448626  1
  Fe  Fe16  1  0.50573703  0.83719121  0.17190771  1
  Ni  Ni17  1  0.33858160  0.67112892  0.33842801  1
  Fe  Fe18  1  0.67163366  0.00482065  0.00480585  1
  Fe  Fe19  1  0.83741306  0.17212122  0.17143297  1
  Ni  Ni20  1  0.67149969  1.00415149  0.33734953  1
  Ni  Ni21  1  0.67203309  0.33930084  1.00440217  1
  Ni  Ni22  1  0.83718670  0.50536934  0.17137540  1
  Ni  Ni23  1  0.67223980  0.33867087  0.33940118  1
  Fe  Fe24  1  0.67132661  0.67174078  0.00552927  1
  Ni  Ni25  1  0.83806809  0.83815099  0.17136775  1
  Ni  Ni26  1  0.67063508  0.67159204  0.33831865  1
  Ni  Ni27  1  0.17152423  0.17154499  0.50459908  1
  Fe  Fe28  1  0.00537410  0.00547879  0.67243102  1
  Ni  Ni29  1  0.17061036  0.17081428  0.83842650  1
  Ni  Ni30  1  0.17068658  0.50329996  0.50412144  1
  Ni  Ni31  1  0.00509322  0.33920350  0.67242461  1
  Ni  Ni32  1  0.17146846  0.50376204  0.83892769  1
  Fe  Fe33  1  0.17293591  0.83754158  0.50530465  1
  Fe  Fe34  1  0.00508904  0.67160307  0.67163245  1
  Ni  Ni35  1  0.17146678  0.83982653  0.83810188  1
  Ni  Ni36  1  0.50405223  0.17069363  0.50470405  1
  Ni  Ni37  1  0.33881116  1.00374419  0.67135592  1
  Fe  Fe38  1  0.50341434  0.17095690  0.83780630  1
  Ni  Ni39  1  0.50565312  0.50492213  0.50433931  1
  Fe  Fe40  1  0.33780755  0.33732662  0.67082791  1
  Ni  Ni41  1  0.50512479  0.50536406  0.83772777  1
  Ni  Ni42  1  0.50567868  0.83879384  0.50373490  1
  Fe  Fe43  1  0.33835933  0.67176073  0.67143153  1
  Ni  Ni44  1  0.50512124  0.83822487  0.83931123  1
  Fe  Fe45  1  0.83741507  0.17263018  0.50475664  1
  Ni  Ni46  1  0.67012721  1.00413040  0.67281192  1
  Fe  Fe47  1  0.83856337  0.17155607  0.83822075  1
  Ni  Ni48  1  0.83806304  0.50493173  0.50406554  1
  Fe  Fe49  1  0.67112770  0.33762976  0.67135322  1
  Fe  Fe50  1  0.83872051  0.50480020  0.83813823  1
  Fe  Fe51  1  0.83696409  0.83801482  0.50407856  1
  Fe  Fe52  1  0.67097035  0.67185627  0.67090554  1
  Fe  Fe53  1  0.83871820  0.83806137  0.83872643  1
" 