8318,Ni52Fe11Cr35_11,-225.899104270333, 165.151307904851,Ni52Fe11Cr35,"# generated using pymatgen
 data_Cr10Fe3Ni14
_symmetry_space_group_name_H-M   'P 1'
_cell_length_a   7.47897738
_cell_length_b   7.47897738
_cell_length_c   10.57687124
_cell_angle_alpha   90.00000000
_cell_angle_beta   90.00000000
_cell_angle_gamma   90.00000000
_symmetry_Int_Tables_number   1
_chemical_formula_structural   Cr10Fe3Ni14
_chemical_formula_sum   'Cr20 Fe6 Ni28'
_cell_volume   591.61837859
_cell_formula_units_Z   2
loop_
 _symmetry_equiv_pos_site_id
 _symmetry_equiv_pos_as_xyz
  1  'x, y, z'
loop_
 _atom_site_type_symbol
 _atom_site_label
 _atom_site_symmetry_multiplicity
 _atom_site_fract_x
 _atom_site_fract_y
 _atom_site_fract_z
 _atom_site_occupancy
  Cr  Cr0  1  0.99792989  0.99723517  0.00148930  1
  Ni  Ni1  1  0.16616666  0.16798596  0.16780614  1
  Cr  Cr2  1  0.99780225  0.99816153  0.33038698  1
  Ni  Ni3  1  0.99710263  0.33453260  0.00331706  1
  Ni  Ni4  1  0.16447124  0.49950033  0.16620303  1
  Ni  Ni5  1  0.99831018  0.33526067  0.32990241  1
  Ni  Ni6  1  0.99819345  0.66550107  0.00000372  1
  Fe  Fe7  1  0.16609959  0.83025682  0.16710198  1
  Ni  Ni8  1  0.99892463  0.66492995  0.33106149  1
  Cr  Cr9  1  0.33431833  0.99781597  0.00023834  1
  Ni  Ni10  1  0.49929088  0.16466732  0.16586941  1
  Ni  Ni11  1  0.33382289  0.99626250  0.33095198  1
  Cr  Cr12  1  0.33389652  0.33391645  -0.00023866  1
  Ni  Ni13  1  0.49959771  0.50088687  0.16605605  1
  Ni  Ni14  1  0.33254527  0.33310801  0.32869928  1
  Cr  Cr15  1  0.33249638  0.66580782  0.99894935  1
  Ni  Ni16  1  0.50122511  0.83182612  0.16677927  1
  Ni  Ni17  1  0.33239709  0.66795013  0.33084534  1
  Ni  Ni18  1  0.66536326  0.99883203  0.00107988  1
  Ni  Ni19  1  0.83197707  0.16639204  0.16395214  1
  Fe  Fe20  1  0.66512920  0.99723534  0.32942645  1
  Ni  Ni21  1  0.66567130  0.33295244  0.00054128  1
  Ni  Ni22  1  0.83350721  0.50119764  0.16511655  1
  Cr  Cr23  1  0.66885508  0.33346633  0.33059049  1
  Ni  Ni24  1  0.66620865  0.66588078  0.00077732  1
  Ni  Ni25  1  0.83046134  0.82990127  0.16402254  1
  Fe  Fe26  1  0.66660820  0.66667094  0.33023542  1
  Cr  Cr27  1  0.16659484  0.16411554  0.49768464  1
  Ni  Ni28  1  -0.00072247  0.99414448  0.66637131  1
  Cr  Cr29  1  0.16454485  0.16474299  0.83252232  1
  Cr  Cr30  1  0.16466276  0.50143920  0.49742376  1
  Cr  Cr31  1  0.99713383  0.33465022  0.66436881  1
  Fe  Fe32  1  0.16394347  0.50022993  0.83443213  1
  Ni  Ni33  1  0.16634598  0.83122929  0.49823090  1
  Ni  Ni34  1  0.99817442  0.66869582  0.66676473  1
  Ni  Ni35  1  0.16251087  0.83001969  0.83193201  1
  Cr  Cr36  1  0.49811664  0.16460212  0.49741871  1
  Cr  Cr37  1  0.33219501  0.99637025  0.66657641  1
  Ni  Ni38  1  0.50174182  0.16708671  0.83373354  1
  Cr  Cr39  1  0.50121377  0.50203209  0.49781331  1
  Cr  Cr40  1  0.33571612  0.33447061  0.66851685  1
  Ni  Ni41  1  0.50291595  0.50032679  0.83291100  1
  Ni  Ni42  1  0.49853190  0.83093760  0.49732486  1
  Cr  Cr43  1  0.33281575  0.66677019  0.66815165  1
  Fe  Fe44  1  0.50277356  0.83166679  0.83419456  1
  Cr  Cr45  1  0.83272584  0.16702364  0.50004682  1
  Cr  Cr46  1  0.66566167  0.99832959  0.66659036  1
  Cr  Cr47  1  0.83135384  0.16538229  0.83397124  1
  Ni  Ni48  1  0.83245457  0.50227605  0.49903708  1
  Ni  Ni49  1  0.66560492  0.33519685  0.66654632  1
  Cr  Cr50  1  0.83134830  0.50184539  0.83383098  1
  Cr  Cr51  1  0.83216487  0.82895090  0.49981539  1
  Ni  Ni52  1  0.66664200  0.66499684  0.66564250  1
  Fe  Fe53  1  0.83139500  0.83126617  0.83391540  1
" 