6830,Ni52Fe11Cr35_0,-225.30373316766, 156.133669738206,Ni52Fe11Cr35,"# generated using pymatgen
 data_Cr10Fe3Ni14
_symmetry_space_group_name_H-M   'P 1'
_cell_length_a   7.48418833
_cell_length_b   7.48418833
_cell_length_c   10.58424064
_cell_angle_alpha   90.00000000
_cell_angle_beta   90.00000000
_cell_angle_gamma   90.00000000
_symmetry_Int_Tables_number   1
_chemical_formula_structural   Cr10Fe3Ni14
_chemical_formula_sum   'Cr20 Fe6 Ni28'
_cell_volume   592.85586514
_cell_formula_units_Z   2
loop_
 _symmetry_equiv_pos_site_id
 _symmetry_equiv_pos_as_xyz
  1  'x, y, z'
loop_
 _atom_site_type_symbol
 _atom_site_label
 _atom_site_symmetry_multiplicity
 _atom_site_fract_x
 _atom_site_fract_y
 _atom_site_fract_z
 _atom_site_occupancy
  Ni  Ni0  1  0.99826106  -0.00041920  -0.00022210  1
  Fe  Fe1  1  0.16351142  0.16456133  0.16593275  1
  Ni  Ni2  1  0.99815401  -0.00105649  0.33463802  1
  Ni  Ni3  1  0.99436419  0.33048643  -0.00112789  1
  Cr  Cr4  1  0.16008205  0.49713765  0.16698614  1
  Ni  Ni5  1  0.99812359  0.33205069  0.33444800  1
  Cr  Cr6  1  0.99318036  0.66643937  0.99592696  1
  Cr  Cr7  1  0.16260133  0.83325085  0.16747405  1
  Ni  Ni8  1  0.99474981  0.66565424  0.33474254  1
  Ni  Ni9  1  0.33196765  0.00080574  0.00190543  1
  Ni  Ni10  1  0.49957201  0.16385515  0.16202226  1
  Cr  Cr11  1  0.33272791  0.00028055  0.33330957  1
  Cr  Cr12  1  0.33417781  0.33165857  0.00205504  1
  Ni  Ni13  1  0.50359837  0.49993266  0.16580747  1
  Cr  Cr14  1  0.33437770  0.33082809  0.33235289  1
  Cr  Cr15  1  0.33605898  0.66649139  0.00078187  1
  Ni  Ni16  1  0.50252325  0.83275145  0.16344602  1
  Cr  Cr17  1  0.33592549  0.66524439  0.33354598  1
  Fe  Fe18  1  0.66745293  0.99749276  0.00036031  1
  Cr  Cr19  1  0.83387796  0.16592212  0.16576862  1
  Cr  Cr20  1  0.66646458  0.99780008  0.33404159  1
  Ni  Ni21  1  0.66755902  0.33505254  0.00046176  1
  Ni  Ni22  1  0.83101430  0.50007154  0.16566499  1
  Cr  Cr23  1  0.66616658  0.33410344  0.33294691  1
  Ni  Ni24  1  0.66834595  0.66378161  0.00063063  1
  Ni  Ni25  1  0.83025474  0.83058334  0.16597711  1
  Ni  Ni26  1  0.66848874  0.66528053  0.33174699  1
  Ni  Ni27  1  0.16484928  0.16841818  0.49821223  1
  Cr  Cr28  1  0.99665979  0.99684320  0.66291215  1
  Cr  Cr29  1  0.16588738  0.16619829  0.83321996  1
  Ni  Ni30  1  0.16203702  0.49775733  0.49958703  1
  Fe  Fe31  1  0.99554196  0.33326729  0.66266327  1
  Cr  Cr32  1  0.16143585  0.49648778  0.83000554  1
  Fe  Fe33  1  0.16246151  0.83248535  0.49822791  1
  Ni  Ni34  1  0.99446731  0.66378097  0.66456854  1
  Cr  Cr35  1  0.16553122  0.83345975  0.83141277  1
  Ni  Ni36  1  0.49880181  0.16350624  0.50368412  1
  Ni  Ni37  1  0.33261040  0.00113578  0.66164180  1
  Cr  Cr38  1  0.50039908  0.16396283  0.83033954  1
  Fe  Fe39  1  0.50286939  0.49884910  0.49996754  1
  Fe  Fe40  1  0.33282000  0.33120164  0.66137259  1
  Cr  Cr41  1  0.50292765  0.49787365  0.83008306  1
  Ni  Ni42  1  0.50175394  0.83265900  0.50091401  1
  Cr  Cr43  1  0.33082255  0.66624658  0.66244521  1
  Cr  Cr44  1  0.50251971  0.83455547  0.83263084  1
  Ni  Ni45  1  0.83250823  0.16634593  0.49960357  1
  Ni  Ni46  1  0.66533450  0.99881656  0.66348227  1
  Cr  Cr47  1  0.82981733  0.16677329  0.83210245  1
  Ni  Ni48  1  0.83502890  0.50030840  0.49912620  1
  Ni  Ni49  1  0.66713722  0.33301441  0.66254915  1
  Ni  Ni50  1  0.83112210  0.49907670  0.83122092  1
  Ni  Ni51  1  0.82994732  0.82994651  0.49846992  1
  Ni  Ni52  1  0.66965639  0.66449639  0.66409046  1
  Ni  Ni53  1  0.82963342  0.83065562  0.83200606  1
" 