7777,Ni52Fe35Cr11_13,-236.758638346013, 208.289058058656,Ni52Fe35Cr11,"# generated using pymatgen
 data_Cr7Fe19Ni28
_symmetry_space_group_name_H-M   'P 1'
_cell_length_a   7.42580622
_cell_length_b   7.42580622
_cell_length_c   10.50167587
_cell_angle_alpha   90.00000000
_cell_angle_beta   90.00000000
_cell_angle_gamma   90.00000000
_symmetry_Int_Tables_number   1
_chemical_formula_structural   Cr7Fe19Ni28
_chemical_formula_sum   'Cr7 Fe19 Ni28'
_cell_volume   579.08969185
_cell_formula_units_Z   1
loop_
 _symmetry_equiv_pos_site_id
 _symmetry_equiv_pos_as_xyz
  1  'x, y, z'
loop_
 _atom_site_type_symbol
 _atom_site_label
 _atom_site_symmetry_multiplicity
 _atom_site_fract_x
 _atom_site_fract_y
 _atom_site_fract_z
 _atom_site_occupancy
  Ni  Ni0  1  1.00057139  1.00235004  0.00416643  1
  Fe  Fe1  1  0.16901911  0.16957669  0.16945415  1
  Ni  Ni2  1  1.00092254  0.00410605  0.33530341  1
  Ni  Ni3  1  0.00429830  0.33527233  0.00430979  1
  Fe  Fe4  1  0.16877325  0.50224973  0.16990867  1
  Ni  Ni5  1  0.00598579  0.33530099  0.33732591  1
  Ni  Ni6  1  0.00536211  0.67123925  0.00328308  1
  Fe  Fe7  1  0.16830942  0.83689185  0.17007006  1
  Ni  Ni8  1  1.00080944  0.66916501  0.33536949  1
  Fe  Fe9  1  0.33522254  1.00018662  0.00402479  1
  Cr  Cr10  1  0.50536627  0.16852154  0.16798664  1
  Fe  Fe11  1  0.33518215  0.00415012  0.33529801  1
  Ni  Ni12  1  0.33484356  0.33968219  0.00312888  1
  Fe  Fe13  1  0.50265174  0.50270108  0.17054208  1
  Ni  Ni14  1  0.33560034  0.33704495  0.33763082  1
  Ni  Ni15  1  0.33487110  0.66777574  0.00342748  1
  Ni  Ni16  1  0.50132611  0.83569092  0.17075614  1
  Fe  Fe17  1  0.33480412  0.66749951  0.33481048  1
  Ni  Ni18  1  0.67295490  1.00166666  1.00185877  1
  Ni  Ni19  1  0.83790206  0.17046203  0.16838081  1
  Ni  Ni20  1  0.67178677  1.00175986  0.33666377  1
  Ni  Ni21  1  0.66969869  0.33549151  0.00412305  1
  Fe  Fe22  1  0.83697291  0.50214302  0.16988855  1
  Fe  Fe23  1  0.67263576  0.33605436  0.33666227  1
  Cr  Cr24  1  0.66821649  0.67101106  1.00277227  1
  Fe  Fe25  1  0.83548035  0.83768568  0.17144602  1
  Ni  Ni26  1  0.66901182  0.67026249  0.33559108  1
  Fe  Fe27  1  0.17049730  0.17000485  0.50307323  1
  Ni  Ni28  1  1.00078790  0.00348934  0.66863086  1
  Cr  Cr29  1  0.16771981  0.17115725  0.83713586  1
  Ni  Ni30  1  0.16793108  0.50191499  0.50334148  1
  Fe  Fe31  1  1.00152305  0.33600355  0.66796395  1
  Ni  Ni32  1  0.16975808  0.50571643  0.83657936  1
  Cr  Cr33  1  0.16747731  0.83400809  0.50199046  1
  Fe  Fe34  1  1.00159530  0.66890529  0.66899714  1
  Fe  Fe35  1  0.16879126  0.83525120  0.83555221  1
  Ni  Ni36  1  0.50396990  0.17076883  0.50198287  1
  Fe  Fe37  1  0.33804645  0.00347237  0.66912985  1
  Cr  Cr38  1  0.50589296  0.17035072  0.83804798  1
  Ni  Ni39  1  0.50173074  0.50115519  0.50110336  1
  Ni  Ni40  1  0.33549627  0.33901309  0.66803360  1
  Ni  Ni41  1  0.50099859  0.50312162  0.83652063  1
  Cr  Cr42  1  0.50434776  0.83673134  0.50233029  1
  Ni  Ni43  1  0.33655467  0.66510717  0.67077877  1
  Fe  Fe44  1  0.50162180  0.83527316  0.83526693  1
  Fe  Fe45  1  0.83606074  0.16923785  0.50247930  1
  Ni  Ni46  1  0.67360761  1.00277252  0.66967380  1
  Ni  Ni47  1  0.83611597  0.16800840  0.83706201  1
  Fe  Fe48  1  0.83460960  0.50448621  0.50211159  1
  Ni  Ni49  1  0.66671094  0.33609111  0.66674787  1
  Cr  Cr50  1  0.83738090  0.49965227  0.83579114  1
  Ni  Ni51  1  0.83683499  0.83597752  0.50206260  1
  Ni  Ni52  1  0.66736220  0.66955505  0.66918069  1
  Fe  Fe53  1  0.83795019  0.83678568  0.83420162  1
" 