4668,Ni52Fe10Cr37_12,-225.00851516281, 158.503050096602,Ni52Fe10Cr37,"# generated using pymatgen
 data_Cr21Fe5Ni28
_symmetry_space_group_name_H-M   'P 1'
_cell_length_a   7.48722245
_cell_length_b   7.48722245
_cell_length_c   10.58853153
_cell_angle_alpha   90.00000000
_cell_angle_beta   90.00000000
_cell_angle_gamma   90.00000000
_symmetry_Int_Tables_number   1
_chemical_formula_structural   Cr21Fe5Ni28
_chemical_formula_sum   'Cr21 Fe5 Ni28'
_cell_volume   593.57719458
_cell_formula_units_Z   1
loop_
 _symmetry_equiv_pos_site_id
 _symmetry_equiv_pos_as_xyz
  1  'x, y, z'
loop_
 _atom_site_type_symbol
 _atom_site_label
 _atom_site_symmetry_multiplicity
 _atom_site_fract_x
 _atom_site_fract_y
 _atom_site_fract_z
 _atom_site_occupancy
  Cr  Cr0  1  0.99817788  0.99790140  0.99676914  1
  Cr  Cr1  1  0.16261867  0.16651665  0.16630879  1
  Ni  Ni2  1  0.99590639  0.99555068  0.33173343  1
  Cr  Cr3  1  0.99502205  0.33269380  0.00262216  1
  Ni  Ni4  1  0.16401328  0.50172093  0.16792848  1
  Fe  Fe5  1  0.99601786  0.33630199  0.33141368  1
  Cr  Cr6  1  0.99492144  0.66576559  0.99734171  1
  Cr  Cr7  1  0.16691229  0.82936844  0.16476159  1
  Ni  Ni8  1  0.99697849  0.66638017  0.33323969  1
  Fe  Fe9  1  0.33276786  0.99798680  0.99729085  1
  Cr  Cr10  1  0.50126259  0.16500438  0.16565593  1
  Cr  Cr11  1  0.33236709  0.99747445  0.33197516  1
  Cr  Cr12  1  0.33255985  0.33163848  0.99666130  1
  Cr  Cr13  1  0.49915260  0.50118542  0.16415114  1
  Cr  Cr14  1  0.33316751  0.33436745  0.33558601  1
  Ni  Ni15  1  0.33323339  0.66574758  -0.00021724  1
  Fe  Fe16  1  0.50129345  0.82895467  0.16624079  1
  Ni  Ni17  1  0.33125160  0.66443889  0.33278184  1
  Cr  Cr18  1  0.66755248  0.99785494  0.00103760  1
  Ni  Ni19  1  0.83057565  0.16569110  0.16867971  1
  Fe  Fe20  1  0.66770897  0.99678073  0.33202169  1
  Ni  Ni21  1  0.66537011  0.33365587  0.99709132  1
  Ni  Ni22  1  0.83081381  0.49971832  0.16615753  1
  Ni  Ni23  1  0.66704696  0.33350726  0.33262247  1
  Ni  Ni24  1  0.66576084  0.66417376  -0.00089236  1
  Ni  Ni25  1  0.83084939  0.83065885  0.16788500  1
  Ni  Ni26  1  0.66788533  0.66364764  0.33133296  1
  Cr  Cr27  1  0.16305360  0.16503137  0.49889440  1
  Ni  Ni28  1  0.99782117  0.99459775  0.66633824  1
  Ni  Ni29  1  0.16728605  0.16347383  0.83156486  1
  Ni  Ni30  1  0.16404661  0.50213360  0.49682892  1
  Cr  Cr31  1  0.99841945  0.33585164  0.66474645  1
  Cr  Cr32  1  0.16599482  0.49961941  0.83168876  1
  Ni  Ni33  1  0.16123362  0.82961763  0.49869710  1
  Ni  Ni34  1  0.99709452  0.66817324  0.66425043  1
  Fe  Fe35  1  0.16477850  0.83133909  0.83081030  1
  Ni  Ni36  1  0.50133159  0.16789753  0.50069887  1
  Cr  Cr37  1  0.33228006  0.00023666  0.66605730  1
  Ni  Ni38  1  0.49849958  0.16676825  0.83049492  1
  Ni  Ni39  1  0.50020971  0.49680399  0.49845789  1
  Ni  Ni40  1  0.33537247  0.33196549  0.66464487  1
  Ni  Ni41  1  0.50040082  0.49696106  0.83266735  1
  Cr  Cr42  1  0.50184876  0.83111469  0.49484911  1
  Cr  Cr43  1  0.33092303  0.66233226  0.66194087  1
  Cr  Cr44  1  0.50029228  0.82983964  0.83519827  1
  Cr  Cr45  1  0.83010243  0.16404688  0.49754464  1
  Ni  Ni46  1  0.66688790  -0.00042995  0.66376031  1
  Cr  Cr47  1  0.83067862  0.16605459  0.82970833  1
  Ni  Ni48  1  0.83151319  0.50063956  0.49751741  1
  Ni  Ni49  1  0.66170664  0.33264681  0.66591399  1
  Ni  Ni50  1  0.82856260  0.50093993  0.83273780  1
  Ni  Ni51  1  0.83481750  0.83101964  0.49838780  1
  Cr  Cr52  1  0.66864907  0.66309540  0.66523052  1
  Ni  Ni53  1  0.83225422  0.83079038  0.82943651  1
" 