2300,Ni52Fe35Cr11_8,-236.046015115044, 206.305263043117,Ni52Fe35Cr11,"# generated using pymatgen
 data_Cr7Fe19Ni28
_symmetry_space_group_name_H-M   'P 1'
_cell_length_a   7.42414965
_cell_length_b   7.42414965
_cell_length_c   10.49933312
_cell_angle_alpha   90.00000000
_cell_angle_beta   90.00000000
_cell_angle_gamma   90.00000000
_symmetry_Int_Tables_number   1
_chemical_formula_structural   Cr7Fe19Ni28
_chemical_formula_sum   'Cr7 Fe19 Ni28'
_cell_volume   578.70222191
_cell_formula_units_Z   1
loop_
 _symmetry_equiv_pos_site_id
 _symmetry_equiv_pos_as_xyz
  1  'x, y, z'
loop_
 _atom_site_type_symbol
 _atom_site_label
 _atom_site_symmetry_multiplicity
 _atom_site_fract_x
 _atom_site_fract_y
 _atom_site_fract_z
 _atom_site_occupancy
  Fe  Fe0  1  0.00408400  0.00313678  0.00341615  1
  Fe  Fe1  1  0.16978530  0.17080363  0.16924194  1
  Fe  Fe2  1  1.00248628  0.00319703  0.33598884  1
  Ni  Ni3  1  1.00280552  0.33788268  0.00415746  1
  Ni  Ni4  1  0.16940654  0.50223872  0.17072289  1
  Fe  Fe5  1  1.00277682  0.33664797  0.33620881  1
  Fe  Fe6  1  1.00210108  0.66819356  1.00252409  1
  Fe  Fe7  1  0.16887527  0.83601159  0.17035902  1
  Ni  Ni8  1  0.00408776  0.66856268  0.33494467  1
  Ni  Ni9  1  0.33669932  0.00423645  1.00226202  1
  Fe  Fe10  1  0.50258372  0.16967761  0.16812441  1
  Fe  Fe11  1  0.33675987  1.00184572  0.33670877  1
  Ni  Ni12  1  0.33520625  0.33342080  0.00367842  1
  Ni  Ni13  1  0.50245962  0.50353333  0.16930034  1
  Fe  Fe14  1  0.33555210  0.33708165  0.33651595  1
  Cr  Cr15  1  0.33486864  0.67053777  1.00269120  1
  Ni  Ni16  1  0.50347412  0.83658751  0.17063202  1
  Fe  Fe17  1  0.33702592  0.66974136  0.33585478  1
  Fe  Fe18  1  0.66816248  0.00358906  0.00367406  1
  Ni  Ni19  1  0.83699934  0.16862675  0.16934531  1
  Ni  Ni20  1  0.66842568  1.00211324  0.33494759  1
  Ni  Ni21  1  0.67065410  0.33591436  0.00421898  1
  Ni  Ni22  1  0.83680271  0.50306784  0.16791058  1
  Cr  Cr23  1  0.67035992  0.33550062  0.33703950  1
  Fe  Fe24  1  0.67143746  0.66903396  0.00380535  1
  Fe  Fe25  1  0.83538265  0.83505811  0.17006952  1
  Ni  Ni26  1  0.66954161  0.67077785  0.33530509  1
  Ni  Ni27  1  0.16986635  0.16853219  0.50384940  1
  Fe  Fe28  1  0.00480773  0.00425162  0.66926204  1
  Fe  Fe29  1  0.17124843  0.17021029  0.83579981  1
  Fe  Fe30  1  0.16915811  0.50026328  0.50160934  1
  Ni  Ni31  1  0.00352962  0.33615552  0.66803447  1
  Ni  Ni32  1  0.16785335  0.50171441  0.83663868  1
  Ni  Ni33  1  0.17093875  0.83851603  0.50088430  1
  Cr  Cr34  1  1.00190784  0.66723400  0.67144746  1
  Ni  Ni35  1  0.16829226  0.83830563  0.83727665  1
  Ni  Ni36  1  0.50173786  0.16973697  0.50379181  1
  Ni  Ni37  1  0.33753416  0.00488378  0.66987127  1
  Ni  Ni38  1  0.50083073  0.16828154  0.83679921  1
  Ni  Ni39  1  0.50313144  0.50249059  0.50280927  1
  Ni  Ni40  1  0.33456800  0.33276085  0.66939117  1
  Cr  Cr41  1  0.50374304  0.49999402  0.83649357  1
  Fe  Fe42  1  0.50296002  0.83766379  0.50182969  1
  Cr  Cr43  1  0.33635783  0.67097818  0.66832425  1
  Fe  Fe44  1  0.50465902  0.83932759  0.83624607  1
  Ni  Ni45  1  0.83706230  0.17012479  0.50415917  1
  Ni  Ni46  1  0.66700951  0.00290301  0.66951238  1
  Cr  Cr47  1  0.83550947  0.16958582  0.83441717  1
  Ni  Ni48  1  0.83498771  0.50142296  0.50362410  1
  Fe  Fe49  1  0.66905328  0.33611420  0.66784384  1
  Ni  Ni50  1  0.83714534  0.50448474  0.83713515  1
  Cr  Cr51  1  0.83612950  0.83715993  0.50206614  1
  Ni  Ni52  1  0.67040850  0.67043509  0.66957098  1
  Ni  Ni53  1  0.83677625  0.83546099  0.83767531  1
" 