4021,Ni52Fe48_7,-241.095939718326, 225.557360542943,Ni52Fe48,"# generated using pymatgen
 data_Fe14Ni13
_symmetry_space_group_name_H-M   'P 1'
_cell_length_a   7.40288693
_cell_length_b   7.40288693
_cell_length_c   10.46926310
_cell_angle_alpha   90.00000000
_cell_angle_beta   90.00000000
_cell_angle_gamma   90.00000000
_symmetry_Int_Tables_number   1
_chemical_formula_structural   Fe14Ni13
_chemical_formula_sum   'Fe28 Ni26'
_cell_volume   573.74425097
_cell_formula_units_Z   2
loop_
 _symmetry_equiv_pos_site_id
 _symmetry_equiv_pos_as_xyz
  1  'x, y, z'
loop_
 _atom_site_type_symbol
 _atom_site_label
 _atom_site_symmetry_multiplicity
 _atom_site_fract_x
 _atom_site_fract_y
 _atom_site_fract_z
 _atom_site_occupancy
  Ni  Ni0  1  1.00407992  1.00301933  1.00429736  1
  Fe  Fe1  1  0.17078559  0.17063936  0.17135856  1
  Ni  Ni2  1  1.00418779  1.00371002  0.33778616  1
  Fe  Fe3  1  0.00437323  0.33900387  0.00466240  1
  Ni  Ni4  1  0.17019398  0.50518162  0.17137377  1
  Ni  Ni5  1  1.00301953  0.33731844  0.33733423  1
  Ni  Ni6  1  0.00557276  0.67266215  0.00459190  1
  Ni  Ni7  1  0.16985589  0.83700704  0.17102845  1
  Ni  Ni8  1  0.00488516  0.67196950  0.33723805  1
  Fe  Fe9  1  0.33759727  1.00384848  0.00454334  1
  Ni  Ni10  1  0.50451762  0.17118235  0.17220655  1
  Fe  Fe11  1  0.33718725  0.00487968  0.33731770  1
  Fe  Fe12  1  0.33742106  0.33808124  1.00392062  1
  Ni  Ni13  1  0.50417540  0.50298855  0.17062427  1
  Fe  Fe14  1  0.33727157  0.33773766  0.33814833  1
  Ni  Ni15  1  0.33703681  0.67117547  1.00411703  1
  Ni  Ni16  1  0.50415924  0.83882841  0.17108077  1
  Fe  Fe17  1  0.33698916  0.67038238  0.33710181  1
  Fe  Fe18  1  0.67106603  1.00367157  1.00432202  1
  Fe  Fe19  1  0.83744617  0.17121349  0.17182908  1
  Fe  Fe20  1  0.67216494  0.00496747  0.33775122  1
  Ni  Ni21  1  0.67003259  0.33695535  1.00404511  1
  Ni  Ni22  1  0.83862798  0.50482190  0.17171804  1
  Ni  Ni23  1  0.67025033  0.33698188  0.33822251  1
  Fe  Fe24  1  0.67198863  0.67111077  0.00476393  1
  Ni  Ni25  1  0.83899477  0.83735006  0.17137634  1
  Fe  Fe26  1  0.67222700  0.67042379  0.33717411  1
  Fe  Fe27  1  0.17118918  0.17161563  0.50412311  1
  Fe  Fe28  1  0.00507305  1.00362927  0.67113370  1
  Fe  Fe29  1  0.17040583  0.17093106  0.83751721  1
  Fe  Fe30  1  0.17134957  0.50352809  0.50476478  1
  Fe  Fe31  1  0.00517617  0.33885800  0.67065794  1
  Ni  Ni32  1  0.17014815  0.50556047  0.83719851  1
  Fe  Fe33  1  0.17112791  0.83786013  0.50440599  1
  Ni  Ni34  1  0.00508827  0.67197681  0.67116819  1
  Ni  Ni35  1  0.16980447  0.83661879  0.83745705  1
  Ni  Ni36  1  0.50493523  0.17185815  0.50407636  1
  Fe  Fe37  1  0.33755081  1.00414297  0.67113881  1
  Ni  Ni38  1  0.50424367  0.17116997  0.83671789  1
  Ni  Ni39  1  0.50378437  0.50298384  0.50471349  1
  Ni  Ni40  1  0.33932713  0.33798356  0.67108416  1
  Fe  Fe41  1  0.50391156  0.50478492  0.83745036  1
  Fe  Fe42  1  0.50459173  0.83792217  0.50421284  1
  Ni  Ni43  1  0.33713351  0.67047501  0.67106630  1
  Fe  Fe44  1  0.50390864  0.83679058  0.83792004  1
  Ni  Ni45  1  0.83700220  0.17071490  0.50466954  1
  Fe  Fe46  1  0.67037799  1.00420548  0.67093064  1
  Fe  Fe47  1  0.83818896  0.17093050  0.83753950  1
  Fe  Fe48  1  0.83705077  0.50329439  0.50390821  1
  Fe  Fe49  1  0.67022877  0.33833038  0.67071861  1
  Ni  Ni50  1  0.83896807  0.50521334  0.83686898  1
  Fe  Fe51  1  0.83728439  0.83809000  0.50427188  1
  Fe  Fe52  1  0.67074171  0.67046084  0.67106220  1
  Ni  Ni53  1  0.83930867  0.83696736  0.83729849  1
" 