3263,Ni52Fe46Cr1_4,-240.073367194983, 222.051807366321,Ni52Fe46Cr1,"# generated using pymatgen
 data_Cr(Fe6Ni7)2
_symmetry_space_group_name_H-M   'P 1'
_cell_length_a   7.40562899
_cell_length_b   7.40562899
_cell_length_c   10.47314096
_cell_angle_alpha   90.00000000
_cell_angle_beta   90.00000000
_cell_angle_gamma   90.00000000
_symmetry_Int_Tables_number   1
_chemical_formula_structural   Cr(Fe6Ni7)2
_chemical_formula_sum   'Cr2 Fe24 Ni28'
_cell_volume   574.38203916
_cell_formula_units_Z   2
loop_
 _symmetry_equiv_pos_site_id
 _symmetry_equiv_pos_as_xyz
  1  'x, y, z'
loop_
 _atom_site_type_symbol
 _atom_site_label
 _atom_site_symmetry_multiplicity
 _atom_site_fract_x
 _atom_site_fract_y
 _atom_site_fract_z
 _atom_site_occupancy
  Ni  Ni0  1  0.00423739  1.00253138  0.00414706  1
  Fe  Fe1  1  0.17178095  0.17123429  0.17051806  1
  Ni  Ni2  1  1.00320142  1.00371351  0.33736006  1
  Fe  Fe3  1  0.00697363  0.33605468  1.00272240  1
  Ni  Ni4  1  0.17235632  0.50462347  0.16932532  1
  Fe  Fe5  1  0.00589201  0.33653612  0.33894686  1
  Ni  Ni6  1  0.00461939  0.67310266  1.00374828  1
  Fe  Fe7  1  0.17107342  0.83746982  0.17003750  1
  Fe  Fe8  1  0.00632349  0.67114553  0.33768415  1
  Ni  Ni9  1  0.33654968  0.00465544  0.00501399  1
  Ni  Ni10  1  0.50380769  0.16883771  0.17147739  1
  Fe  Fe11  1  0.33767887  1.00408172  0.33724670  1
  Ni  Ni12  1  0.33701892  0.33751335  0.00467315  1
  Ni  Ni13  1  0.50105968  0.50606028  0.17191464  1
  Ni  Ni14  1  0.33849451  0.33876465  0.33693115  1
  Fe  Fe15  1  0.33695434  0.67104293  0.00494898  1
  Ni  Ni16  1  0.50356340  0.83754381  0.16995253  1
  Ni  Ni17  1  0.33794156  0.66935008  0.33685080  1
  Fe  Fe18  1  0.67084153  1.00300871  0.00439844  1
  Ni  Ni19  1  0.83860591  0.16818955  0.17119425  1
  Fe  Fe20  1  0.67008050  0.00451312  0.33780728  1
  Cr  Cr21  1  0.66849410  0.33705297  1.00279673  1
  Cr  Cr22  1  0.83902580  0.50367424  0.17194516  1
  Fe  Fe23  1  0.66942134  0.33622708  0.33825092  1
  Fe  Fe24  1  0.66959396  0.67317052  1.00292893  1
  Fe  Fe25  1  0.83720433  0.83912072  0.17064908  1
  Fe  Fe26  1  0.66874952  0.67169681  0.33860742  1
  Ni  Ni27  1  0.16968869  0.17095600  0.50391168  1
  Fe  Fe28  1  1.00343745  0.00567417  0.67101108  1
  Ni  Ni29  1  0.16943150  0.16970499  0.83808300  1
  Ni  Ni30  1  0.17084591  0.50423548  0.50498877  1
  Ni  Ni31  1  0.00439105  0.33730804  0.67124944  1
  Fe  Fe32  1  0.17021203  0.50333101  0.83760299  1
  Fe  Fe33  1  0.17153867  0.83792671  0.50405389  1
  Fe  Fe34  1  1.00343806  0.66969653  0.67159120  1
  Ni  Ni35  1  0.17111083  0.83828021  0.83723331  1
  Ni  Ni36  1  0.50468818  0.17019651  0.50470798  1
  Fe  Fe37  1  0.33819174  0.00500740  0.67118356  1
  Fe  Fe38  1  0.50303047  0.17065002  0.83662892  1
  Ni  Ni39  1  0.50385198  0.50531504  0.50340474  1
  Ni  Ni40  1  0.33769771  0.33763916  0.67083653  1
  Ni  Ni41  1  0.50440806  0.50590336  0.83711472  1
  Ni  Ni42  1  0.50406868  0.83692761  0.50461589  1
  Fe  Fe43  1  0.33866728  0.66989148  0.67002866  1
  Fe  Fe44  1  0.50447806  0.83773065  0.83723823  1
  Ni  Ni45  1  0.83806380  0.17073708  0.50435509  1
  Ni  Ni46  1  0.67129758  1.00389460  0.67123541  1
  Ni  Ni47  1  0.83929606  0.17063553  0.83689028  1
  Fe  Fe48  1  0.83689676  0.50328638  0.50514662  1
  Ni  Ni49  1  0.67034938  0.33764583  0.66987075  1
  Ni  Ni50  1  0.83747704  0.50421879  0.83621993  1
  Fe  Fe51  1  0.83686787  0.83806134  0.50419073  1
  Ni  Ni52  1  0.67096478  0.67090107  0.67085272  1
  Fe  Fe53  1  0.83799134  0.83725453  0.83760127  1
" 