1331,Ni52Fe46Cr1_3,-240.035318315627, 222.83159669859,Ni52Fe46Cr1,"# generated using pymatgen
 data_Cr(Fe6Ni7)2
_symmetry_space_group_name_H-M   'P 1'
_cell_length_a   7.40400942
_cell_length_b   7.40400942
_cell_length_c   10.47085054
_cell_angle_alpha   90.00000000
_cell_angle_beta   90.00000000
_cell_angle_gamma   90.00000000
_symmetry_Int_Tables_number   1
_chemical_formula_structural   Cr(Fe6Ni7)2
_chemical_formula_sum   'Cr2 Fe24 Ni28'
_cell_volume   574.00527789
_cell_formula_units_Z   2
loop_
 _symmetry_equiv_pos_site_id
 _symmetry_equiv_pos_as_xyz
  1  'x, y, z'
loop_
 _atom_site_type_symbol
 _atom_site_label
 _atom_site_symmetry_multiplicity
 _atom_site_fract_x
 _atom_site_fract_y
 _atom_site_fract_z
 _atom_site_occupancy
  Cr  Cr0  1  1.00312465  1.00417047  1.00352414  1
  Fe  Fe1  1  0.17237181  0.17272471  0.17112250  1
  Ni  Ni2  1  0.00469041  0.00468128  0.33857002  1
  Fe  Fe3  1  1.00403469  0.33830129  1.00289400  1
  Ni  Ni4  1  0.17014440  0.50329391  0.17033362  1
  Fe  Fe5  1  1.00383632  0.33800862  0.33853306  1
  Ni  Ni6  1  1.00395560  0.66871283  1.00269758  1
  Fe  Fe7  1  0.17119471  0.83468040  0.17173536  1
  Ni  Ni8  1  0.00448627  0.67034017  0.34023928  1
  Ni  Ni9  1  0.33862147  0.00689811  0.00475617  1
  Fe  Fe10  1  0.50445490  0.17299692  0.17060368  1
  Fe  Fe11  1  0.33823245  1.00334795  0.33719587  1
  Ni  Ni12  1  0.33811043  0.33953853  1.00233270  1
  Fe  Fe13  1  0.50445473  0.50595779  0.17201123  1
  Ni  Ni14  1  0.33781342  0.33829314  0.33926690  1
  Fe  Fe15  1  0.33789380  0.67278395  1.00375966  1
  Ni  Ni16  1  0.50313108  0.83927501  0.17008606  1
  Fe  Fe17  1  0.33800527  0.67191655  0.33896614  1
  Ni  Ni18  1  0.66956072  0.00451688  1.00248520  1
  Fe  Fe19  1  0.83602505  0.17180756  0.17315983  1
  Ni  Ni20  1  0.67034455  0.00433011  0.33870935  1
  Fe  Fe21  1  0.67129907  0.33754159  1.00271508  1
  Ni  Ni22  1  0.83857273  0.50258515  0.17160371  1
  Fe  Fe23  1  0.67170456  0.33811354  0.33945018  1
  Ni  Ni24  1  0.67043755  0.66988817  1.00240069  1
  Cr  Cr25  1  0.83536622  0.83474497  0.17256829  1
  Ni  Ni26  1  0.66965210  0.67089830  0.34057794  1
  Fe  Fe27  1  0.17213437  0.16993154  0.50499048  1
  Ni  Ni28  1  1.00415539  1.00409408  0.67049038  1
  Ni  Ni29  1  0.17325009  0.17104083  0.83577884  1
  Fe  Fe30  1  0.17263012  0.50375322  0.50421273  1
  Ni  Ni31  1  0.00534660  0.33738815  0.67057081  1
  Fe  Fe32  1  0.17058800  0.50408300  0.83744986  1
  Ni  Ni33  1  0.17051251  0.83735209  0.50364750  1
  Fe  Fe34  1  0.00459761  0.67122220  0.67118931  1
  Ni  Ni35  1  0.17128028  0.83784511  0.83849263  1
  Ni  Ni36  1  0.50515221  0.17052261  0.50403603  1
  Fe  Fe37  1  0.33739990  1.00348841  0.67155793  1
  Ni  Ni38  1  0.50374475  0.17117749  0.83699055  1
  Ni  Ni39  1  0.50446379  0.50367008  0.50438728  1
  Fe  Fe40  1  0.33867183  0.33618099  0.67010623  1
  Fe  Fe41  1  0.50410947  0.50442651  0.83578610  1
  Ni  Ni42  1  0.50268826  0.83806776  0.50584669  1
  Ni  Ni43  1  0.33704088  0.66936343  0.67124764  1
  Fe  Fe44  1  0.50428979  0.83849571  0.83747013  1
  Ni  Ni45  1  0.83765572  0.17189812  0.50478396  1
  Ni  Ni46  1  0.67136566  0.00460776  0.67120918  1
  Fe  Fe47  1  0.83770843  0.17034056  0.83421264  1
  Fe  Fe48  1  0.83689177  0.50457573  0.50531442  1
  Ni  Ni49  1  0.67052118  0.33706914  0.67039226  1
  Ni  Ni50  1  0.83772445  0.50408846  0.83711878  1
  Fe  Fe51  1  0.83585065  0.83959955  0.50432090  1
  Fe  Fe52  1  0.67101181  0.67021316  0.67048147  1
  Ni  Ni53  1  0.83757516  0.83503605  0.83549666  1
" 