2376,Ni52Fe10Cr37_15,-224.699539205879, 159.626341320233,Ni52Fe10Cr37,"# generated using pymatgen
 data_Cr21Fe5Ni28
_symmetry_space_group_name_H-M   'P 1'
_cell_length_a   7.48579008
_cell_length_b   7.48579008
_cell_length_c   10.58650585
_cell_angle_alpha   90.00000000
_cell_angle_beta   90.00000000
_cell_angle_gamma   90.00000000
_symmetry_Int_Tables_number   1
_chemical_formula_structural   Cr21Fe5Ni28
_chemical_formula_sum   'Cr21 Fe5 Ni28'
_cell_volume   593.23658994
_cell_formula_units_Z   1
loop_
 _symmetry_equiv_pos_site_id
 _symmetry_equiv_pos_as_xyz
  1  'x, y, z'
loop_
 _atom_site_type_symbol
 _atom_site_label
 _atom_site_symmetry_multiplicity
 _atom_site_fract_x
 _atom_site_fract_y
 _atom_site_fract_z
 _atom_site_occupancy
  Cr  Cr0  1  0.99868718  -0.00107191  0.00067819  1
  Ni  Ni1  1  0.16624382  0.16886997  0.16658414  1
  Cr  Cr2  1  0.99733975  0.99858262  0.33214831  1
  Cr  Cr3  1  -0.00037255  0.33308069  0.99822625  1
  Ni  Ni4  1  0.16513935  0.49823603  0.16801586  1
  Ni  Ni5  1  0.00093717  0.33388582  0.33316755  1
  Ni  Ni6  1  0.99713410  0.66479583  -0.00009116  1
  Ni  Ni7  1  0.16239868  0.82924278  0.16649711  1
  Ni  Ni8  1  -0.00000719  0.66503917  0.33192615  1
  Cr  Cr9  1  0.33201077  0.00316332  0.00068161  1
  Ni  Ni10  1  0.49950326  0.16673077  0.16419377  1
  Cr  Cr11  1  0.33138606  -0.00047221  0.32948737  1
  Ni  Ni12  1  0.33399763  0.33113926  0.99845817  1
  Cr  Cr13  1  0.49721157  0.49649011  0.16608520  1
  Ni  Ni14  1  0.32955878  0.33441423  0.33107650  1
  Cr  Cr15  1  0.32991682  0.66215709  0.99746191  1
  Cr  Cr16  1  0.50152119  0.83204686  0.16668268  1
  Ni  Ni17  1  0.32870166  0.66306528  0.33455801  1
  Fe  Fe18  1  0.66662486  0.00197781  0.00041773  1
  Ni  Ni19  1  0.83070499  0.16409158  0.16639520  1
  Ni  Ni20  1  0.66789979  0.99779782  0.33000418  1
  Ni  Ni21  1  0.66356921  0.33121401  0.99533331  1
  Cr  Cr22  1  0.83448199  0.50004337  0.16463820  1
  Cr  Cr23  1  0.66659366  0.33100112  0.33392527  1
  Ni  Ni24  1  0.66793521  0.66341257  0.99825071  1
  Ni  Ni25  1  0.83276433  0.83193257  0.16552126  1
  Fe  Fe26  1  0.66772360  0.66590877  0.33351497  1
  Ni  Ni27  1  0.16285998  0.16591898  0.49799238  1
  Ni  Ni28  1  -0.00090255  -0.00020404  0.66316570  1
  Ni  Ni29  1  0.16536580  0.16766159  0.83173163  1
  Fe  Fe30  1  0.16554278  0.49943848  0.49570479  1
  Cr  Cr31  1  0.99593771  0.33121481  0.66519773  1
  Ni  Ni32  1  0.16597972  0.49693561  0.83286600  1
  Ni  Ni33  1  0.16264363  0.83141996  0.49944814  1
  Cr  Cr34  1  -0.00103760  0.66471288  0.66519967  1
  Cr  Cr35  1  0.16381629  0.83203569  0.83010660  1
  Cr  Cr36  1  0.49787509  0.16798727  0.49742628  1
  Cr  Cr37  1  0.32878059  -0.00088878  0.66601829  1
  Ni  Ni38  1  0.50033756  0.16994279  0.83449987  1
  Ni  Ni39  1  0.49899377  0.49887962  0.49832342  1
  Cr  Cr40  1  0.33397015  0.33412703  0.66706838  1
  Ni  Ni41  1  0.50015733  0.49520222  0.83226976  1
  Cr  Cr42  1  0.49826472  0.82969480  0.49720920  1
  Fe  Fe43  1  0.33147295  0.66241179  0.66416537  1
  Cr  Cr44  1  0.49948194  0.83158025  0.83224740  1
  Fe  Fe45  1  0.83360666  0.16537166  0.49859109  1
  Cr  Cr46  1  0.66847251  0.00197588  0.66536666  1
  Ni  Ni47  1  0.83068044  0.16802059  0.83035632  1
  Ni  Ni48  1  0.83192325  0.49923050  0.49723828  1
  Ni  Ni49  1  0.66563480  0.33391249  0.66685895  1
  Ni  Ni50  1  0.83019091  0.49655302  0.83410261  1
  Ni  Ni51  1  0.83480149  0.83067405  0.49643913  1
  Cr  Cr52  1  0.66515923  0.65987712  0.66423814  1
  Cr  Cr53  1  0.83278421  0.83193749  0.83472880  1
" 