4298,Ni52Fe10Cr37_5,-224.538408267552, 154.61603978648,Ni52Fe10Cr37,"# generated using pymatgen
 data_Cr21Fe5Ni28
_symmetry_space_group_name_H-M   'P 1'
_cell_length_a   7.49339888
_cell_length_b   7.49339888
_cell_length_c   10.59726633
_cell_angle_alpha   90.00000000
_cell_angle_beta   90.00000000
_cell_angle_gamma   90.00000000
_symmetry_Int_Tables_number   1
_chemical_formula_structural   Cr21Fe5Ni28
_chemical_formula_sum   'Cr21 Fe5 Ni28'
_cell_volume   595.04738581
_cell_formula_units_Z   1
loop_
 _symmetry_equiv_pos_site_id
 _symmetry_equiv_pos_as_xyz
  1  'x, y, z'
loop_
 _atom_site_type_symbol
 _atom_site_label
 _atom_site_symmetry_multiplicity
 _atom_site_fract_x
 _atom_site_fract_y
 _atom_site_fract_z
 _atom_site_occupancy
  Ni  Ni0  1  -0.00051110  0.00102191  0.99799112  1
  Fe  Fe1  1  0.16718407  0.16369856  0.16168480  1
  Cr  Cr2  1  0.00037825  0.00087792  0.33101797  1
  Ni  Ni3  1  0.00065416  0.32746163  -0.00130165  1
  Cr  Cr4  1  0.16517257  0.50159813  0.16117260  1
  Cr  Cr5  1  0.99754190  0.32965501  0.32785204  1
  Ni  Ni6  1  0.00156483  0.66608609  0.99445641  1
  Cr  Cr7  1  0.16726382  0.83190745  0.16184456  1
  Ni  Ni8  1  0.99563319  0.66731579  0.33277527  1
  Ni  Ni9  1  0.33212806  -0.00144391  -0.00172617  1
  Ni  Ni10  1  0.49926697  0.16421025  0.16447652  1
  Ni  Ni11  1  0.33490251  0.99714061  0.33019005  1
  Ni  Ni12  1  0.33112959  0.33028938  0.00020640  1
  Ni  Ni13  1  0.49883750  0.49682250  0.16493742  1
  Cr  Cr14  1  0.33207922  0.32723089  0.33101242  1
  Ni  Ni15  1  0.33213467  0.66569762  0.99620848  1
  Ni  Ni16  1  0.49807919  0.83482299  0.16447385  1
  Cr  Cr17  1  0.33480776  0.66464085  0.33093978  1
  Ni  Ni18  1  0.66318392  0.00016764  0.00066851  1
  Ni  Ni19  1  0.82780295  0.16526366  0.16221581  1
  Fe  Fe20  1  0.66368485  0.00059352  0.33051862  1
  Ni  Ni21  1  0.66347554  0.32817098  0.00187390  1
  Cr  Cr22  1  0.83270509  0.49788352  0.16164214  1
  Ni  Ni23  1  0.66347751  0.33272708  0.32921530  1
  Cr  Cr24  1  0.66090332  0.66651967  0.99713699  1
  Cr  Cr25  1  0.83315313  0.83334406  0.16492179  1
  Fe  Fe26  1  0.66423076  0.66606063  0.33066298  1
  Ni  Ni27  1  0.16502824  0.16297395  0.50012718  1
  Ni  Ni28  1  0.00036438  -0.00032685  0.66539199  1
  Ni  Ni29  1  0.16510887  0.16444219  0.83142332  1
  Cr  Cr30  1  0.16289539  0.49713877  0.49989779  1
  Ni  Ni31  1  0.00042920  0.33014166  0.66662057  1
  Ni  Ni32  1  0.16419845  0.49726140  0.83330383  1
  Cr  Cr33  1  0.16731886  0.83248651  0.49858377  1
  Ni  Ni34  1  -0.00107645  0.66619570  0.66738154  1
  Ni  Ni35  1  0.16610809  0.83275876  0.83307665  1
  Cr  Cr36  1  0.49573628  0.16313441  0.50184511  1
  Ni  Ni37  1  0.33021095  0.99777493  0.66544487  1
  Cr  Cr38  1  0.49645777  0.16073706  0.82981869  1
  Fe  Fe39  1  0.49821726  0.49689759  0.49847193  1
  Ni  Ni40  1  0.32781249  0.32883094  0.66437104  1
  Cr  Cr41  1  0.49575998  0.49045771  0.83292649  1
  Ni  Ni42  1  0.50104268  0.83357641  0.49646754  1
  Cr  Cr43  1  0.33273433  0.66468569  0.66881524  1
  Ni  Ni44  1  0.49492084  0.83405058  0.83328540  1
  Cr  Cr45  1  0.82972679  0.16668072  0.50170840  1
  Ni  Ni46  1  0.66376532  0.99664843  0.66385757  1
  Cr  Cr47  1  0.82814251  0.16607000  0.83136457  1
  Cr  Cr48  1  0.83177399  0.50002679  0.49832171  1
  Ni  Ni49  1  0.66380749  0.33158437  0.66433166  1
  Cr  Cr50  1  0.83463767  0.49531420  0.83409999  1
  Fe  Fe51  1  0.83274039  0.83359359  0.49971765  1
  Cr  Cr52  1  0.66362472  0.66616611  0.66568085  1
  Cr  Cr53  1  0.83270113  0.83598583  0.83164860  1
" 