3531,Ni52Fe48_5,-240.835879175202, 222.560471408501,Ni52Fe48,"# generated using pymatgen
 data_Fe14Ni13
_symmetry_space_group_name_H-M   'P 1'
_cell_length_a   7.39950686
_cell_length_b   7.39950686
_cell_length_c   10.46448296
_cell_angle_alpha   90.00000000
_cell_angle_beta   90.00000000
_cell_angle_gamma   90.00000000
_symmetry_Int_Tables_number   1
_chemical_formula_structural   Fe14Ni13
_chemical_formula_sum   'Fe28 Ni26'
_cell_volume   572.95871506
_cell_formula_units_Z   2
loop_
 _symmetry_equiv_pos_site_id
 _symmetry_equiv_pos_as_xyz
  1  'x, y, z'
loop_
 _atom_site_type_symbol
 _atom_site_label
 _atom_site_symmetry_multiplicity
 _atom_site_fract_x
 _atom_site_fract_y
 _atom_site_fract_z
 _atom_site_occupancy
  Ni  Ni0  1  0.00484304  1.00416325  0.00494583  1
  Fe  Fe1  1  0.17153136  0.17164397  0.17074081  1
  Fe  Fe2  1  0.00521104  1.00348707  0.33795563  1
  Fe  Fe3  1  0.00462213  0.33819105  1.00427227  1
  Ni  Ni4  1  0.16959394  0.50565499  0.17126151  1
  Fe  Fe5  1  0.00491748  0.33891222  0.33739335  1
  Fe  Fe6  1  0.00477461  0.66996428  0.00501079  1
  Ni  Ni7  1  0.17078708  0.83717389  0.17095312  1
  Ni  Ni8  1  1.00299682  0.67152104  0.33770313  1
  Fe  Fe9  1  0.33811441  0.00590989  0.00472234  1
  Ni  Ni10  1  0.50485118  0.17086133  0.17131274  1
  Ni  Ni11  1  0.33762456  0.00630108  0.33743903  1
  Ni  Ni12  1  0.33889730  0.33783059  1.00453789  1
  Fe  Fe13  1  0.50415017  0.50418724  0.17164163  1
  Ni  Ni14  1  0.33835559  0.33659839  0.33764517  1
  Fe  Fe15  1  0.33717419  0.67066341  1.00428990  1
  Fe  Fe16  1  0.50420952  0.83727588  0.17199325  1
  Fe  Fe17  1  0.33752064  0.67144917  0.33844508  1
  Fe  Fe18  1  0.67066298  0.00606610  1.00415323  1
  Fe  Fe19  1  0.83851611  0.17158496  0.17064605  1
  Fe  Fe20  1  0.67029272  1.00429079  0.33873567  1
  Ni  Ni21  1  0.66995184  0.33855594  0.00500025  1
  Ni  Ni22  1  0.83888555  0.50482135  0.17151652  1
  Fe  Fe23  1  0.67044873  0.33824448  0.33725111  1
  Fe  Fe24  1  0.67173980  0.67037266  0.00464148  1
  Fe  Fe25  1  0.83861699  0.83725422  0.17185451  1
  Ni  Ni26  1  0.67270487  0.67078980  0.33770001  1
  Fe  Fe27  1  0.17250306  0.16988623  0.50497453  1
  Ni  Ni28  1  0.00474732  1.00415432  0.67058083  1
  Ni  Ni29  1  0.17260418  0.17120570  0.83835370  1
  Fe  Fe30  1  0.17221870  0.50575419  0.50448349  1
  Fe  Fe31  1  0.00470197  0.33818926  0.67202638  1
  Ni  Ni32  1  0.16950122  0.50459013  0.83778457  1
  Ni  Ni33  1  0.17038762  0.83770765  0.50531592  1
  Ni  Ni34  1  1.00401890  0.67165133  0.67160832  1
  Fe  Fe35  1  0.17093753  0.83818923  0.83740690  1
  Ni  Ni36  1  0.50464545  0.17107405  0.50511496  1
  Ni  Ni37  1  0.33762885  0.00523467  0.67187039  1
  Ni  Ni38  1  0.50412283  0.17037413  0.83726692  1
  Ni  Ni39  1  0.50501405  0.50381506  0.50464575  1
  Fe  Fe40  1  0.33803384  0.33767970  0.67152348  1
  Fe  Fe41  1  0.50407551  0.50364190  0.83756421  1
  Ni  Ni42  1  0.50464740  0.83880155  0.50438935  1
  Ni  Ni43  1  0.33799755  0.67092446  0.67032011  1
  Fe  Fe44  1  0.50415367  0.83768140  0.83662812  1
  Fe  Fe45  1  0.83705792  0.16980981  0.50499220  1
  Ni  Ni46  1  0.67131792  1.00450236  0.67130332  1
  Fe  Fe47  1  0.83853898  0.17172114  0.83805381  1
  Fe  Fe48  1  0.83683090  0.50633882  0.50441153  1
  Fe  Fe49  1  0.67095676  0.33781851  0.67179841  1
  Ni  Ni50  1  0.83888219  0.50541442  0.83742520  1
  Ni  Ni51  1  0.83865534  0.83734087  0.50449265  1
  Ni  Ni52  1  0.67167420  0.67092883  0.67150774  1
  Fe  Fe53  1  0.83860039  0.83825010  0.83684379  1
" 