8857,Ni52Fe11Cr35_12,-225.774488756257, 167.035036674222,Ni52Fe11Cr35,"# generated using pymatgen
 data_Cr10Fe3Ni14
_symmetry_space_group_name_H-M   'P 1'
_cell_length_a   7.48034452
_cell_length_b   7.48034452
_cell_length_c   10.57880467
_cell_angle_alpha   90.00000000
_cell_angle_beta   90.00000000
_cell_angle_gamma   90.00000000
_symmetry_Int_Tables_number   1
_chemical_formula_structural   Cr10Fe3Ni14
_chemical_formula_sum   'Cr20 Fe6 Ni28'
_cell_volume   591.94287701
_cell_formula_units_Z   2
loop_
 _symmetry_equiv_pos_site_id
 _symmetry_equiv_pos_as_xyz
  1  'x, y, z'
loop_
 _atom_site_type_symbol
 _atom_site_label
 _atom_site_symmetry_multiplicity
 _atom_site_fract_x
 _atom_site_fract_y
 _atom_site_fract_z
 _atom_site_occupancy
  Fe  Fe0  1  0.00069124  0.99841271  0.00162378  1
  Ni  Ni1  1  0.16608863  0.16707818  0.16476734  1
  Cr  Cr2  1  0.00033217  0.00123222  0.33072095  1
  Ni  Ni3  1  0.00026689  0.33407197  0.99904511  1
  Ni  Ni4  1  0.16543675  0.49857769  0.16617949  1
  Ni  Ni5  1  0.99787177  0.33603050  0.33385909  1
  Ni  Ni6  1  -0.00055574  0.66160644  0.00285222  1
  Ni  Ni7  1  0.16521497  0.83069680  0.16746856  1
  Fe  Fe8  1  0.00100882  0.66370796  0.33192799  1
  Cr  Cr9  1  0.33560175  0.99897771  0.00374888  1
  Ni  Ni10  1  0.49809396  0.16896359  0.16767550  1
  Ni  Ni11  1  0.33268156  0.99623725  0.33108956  1
  Ni  Ni12  1  0.32866946  0.33289983  0.00225461  1
  Ni  Ni13  1  0.49918486  0.49865612  0.16579219  1
  Cr  Cr14  1  0.33017579  0.33267724  0.33030001  1
  Cr  Cr15  1  0.33030187  0.66335836  0.99877972  1
  Ni  Ni16  1  0.49920070  0.83009979  0.16952624  1
  Ni  Ni17  1  0.33182147  0.66644483  0.33131828  1
  Cr  Cr18  1  0.66621555  0.00022514  0.00018877  1
  Cr  Cr19  1  0.83439959  0.16824295  0.16419670  1
  Cr  Cr20  1  0.66345892  0.00117054  0.33333631  1
  Fe  Fe21  1  0.66468297  0.33353372  0.00108223  1
  Fe  Fe22  1  0.83365130  0.50011760  0.16753047  1
  Ni  Ni23  1  0.66831097  0.33485216  0.33102853  1
  Cr  Cr24  1  0.66530683  0.66791726  0.00004509  1
  Ni  Ni25  1  0.83396785  0.83007119  0.16602955  1
  Ni  Ni26  1  0.66564000  0.66467765  0.33063729  1
  Cr  Cr27  1  0.16510872  0.16456540  0.49979373  1
  Ni  Ni28  1  -0.00072446  0.00096853  0.66609280  1
  Cr  Cr29  1  0.16424400  0.16654654  0.83310419  1
  Ni  Ni30  1  0.16500926  0.49871021  0.49832849  1
  Fe  Fe31  1  0.99857052  0.33194990  0.66442658  1
  Ni  Ni32  1  0.16414136  0.49584490  0.83293398  1
  Ni  Ni33  1  0.16861476  0.83221501  0.49734843  1
  Cr  Cr34  1  -0.00007794  0.66264525  0.66275195  1
  Cr  Cr35  1  0.16533903  0.83324670  0.83316424  1
  Fe  Fe36  1  0.49879928  0.16704290  0.49835995  1
  Ni  Ni37  1  0.33229054  -0.00028934  0.66282757  1
  Cr  Cr38  1  0.49810378  0.16833712  0.83180822  1
  Cr  Cr39  1  0.50069119  0.49985750  0.49865577  1
  Ni  Ni40  1  0.33097009  0.33199535  0.66542198  1
  Cr  Cr41  1  0.49771309  0.49831533  0.83235980  1
  Ni  Ni42  1  0.49670010  0.83106167  0.49825392  1
  Cr  Cr43  1  0.33139667  0.66500419  0.66717795  1
  Ni  Ni44  1  0.49973350  0.83301705  0.82921586  1
  Ni  Ni45  1  0.83291572  0.16982304  0.50075314  1
  Cr  Cr46  1  0.66603109  -0.00034170  0.66433463  1
  Ni  Ni47  1  0.83397735  0.16796065  0.83278155  1
  Ni  Ni48  1  0.83173066  0.49564081  0.49632429  1
  Ni  Ni49  1  0.66753594  0.33166908  0.66447967  1
  Cr  Cr50  1  0.83192174  0.49765070  0.83255926  1
  Cr  Cr51  1  0.83297201  0.83027124  0.49725162  1
  Ni  Ni52  1  0.66627039  0.66417055  0.66500817  1
  Cr  Cr53  1  0.83430604  0.83358941  0.83348311  1
" 