3229,Ni52Fe11Cr35_13,-225.292851433537, 157.642813051261,Ni52Fe11Cr35,"# generated using pymatgen
 data_Cr10Fe3Ni14
_symmetry_space_group_name_H-M   'P 1'
_cell_length_a   7.48286097
_cell_length_b   7.48286097
_cell_length_c   10.58236347
_cell_angle_alpha   90.00000000
_cell_angle_beta   90.00000000
_cell_angle_gamma   90.00000000
_symmetry_Int_Tables_number   1
_chemical_formula_structural   Cr10Fe3Ni14
_chemical_formula_sum   'Cr20 Fe6 Ni28'
_cell_volume   592.54048258
_cell_formula_units_Z   2
loop_
 _symmetry_equiv_pos_site_id
 _symmetry_equiv_pos_as_xyz
  1  'x, y, z'
loop_
 _atom_site_type_symbol
 _atom_site_label
 _atom_site_symmetry_multiplicity
 _atom_site_fract_x
 _atom_site_fract_y
 _atom_site_fract_z
 _atom_site_occupancy
  Ni  Ni0  1  0.00012581  0.99696903  0.00012164  1
  Ni  Ni1  1  0.16457826  0.16576558  0.16665904  1
  Ni  Ni2  1  -0.00043340  0.00016450  0.33208633  1
  Cr  Cr3  1  -0.00010949  0.33287328  0.00089353  1
  Ni  Ni4  1  0.16759523  0.49812462  0.16760460  1
  Ni  Ni5  1  0.00018224  0.33239093  0.33126414  1
  Cr  Cr6  1  0.00190775  0.66693791  0.99692380  1
  Ni  Ni7  1  0.16912016  0.83300806  0.16457751  1
  Cr  Cr8  1  0.00044889  0.66597851  0.33371439  1
  Ni  Ni9  1  0.33294046  0.99708960  0.00011769  1
  Ni  Ni10  1  0.49809933  0.16445970  0.16470785  1
  Cr  Cr11  1  0.33195477  0.99804251  0.33219630  1
  Cr  Cr12  1  0.33226804  0.33128163  0.99865141  1
  Fe  Fe13  1  0.49572907  0.49926646  0.16644128  1
  Ni  Ni14  1  0.33031115  0.33328069  0.33050200  1
  Ni  Ni15  1  0.33017490  0.66826600  0.00143879  1
  Ni  Ni16  1  0.49553810  0.83215612  0.16379535  1
  Fe  Fe17  1  0.33024859  0.66534045  0.33178149  1
  Ni  Ni18  1  0.66383966  -0.00024150  -0.00063633  1
  Ni  Ni19  1  0.83412198  0.16626469  0.16556884  1
  Cr  Cr20  1  0.66531450  -0.00099857  0.33342567  1
  Cr  Cr21  1  0.66454016  0.32976462  0.00150784  1
  Ni  Ni22  1  0.83344033  0.49550120  0.16736952  1
  Cr  Cr23  1  0.66621783  0.33104338  0.33081823  1
  Cr  Cr24  1  0.66551468  0.66703449  0.00135658  1
  Cr  Cr25  1  0.83262171  0.83581427  0.16356881  1
  Cr  Cr26  1  0.66531787  0.66684895  0.33142172  1
  Cr  Cr27  1  0.16297347  0.16535246  0.49691852  1
  Ni  Ni28  1  0.99829817  0.99296979  0.66467739  1
  Cr  Cr29  1  0.16636274  0.16192320  0.83324074  1
  Ni  Ni30  1  0.16606860  0.50097723  0.49832213  1
  Cr  Cr31  1  0.99783157  0.33516979  0.66480324  1
  Ni  Ni32  1  0.16728290  0.50371830  0.83094027  1
  Ni  Ni33  1  0.16559859  0.83066484  0.50100088  1
  Ni  Ni34  1  -0.00011216  0.66912137  0.66534630  1
  Ni  Ni35  1  0.16509499  0.83123031  0.83129590  1
  Fe  Fe36  1  0.49960719  0.16350608  0.50066017  1
  Ni  Ni37  1  0.33368318  0.99539727  0.66514635  1
  Ni  Ni38  1  0.50017575  0.16329278  0.83033739  1
  Cr  Cr39  1  0.49689693  0.50060876  0.49900259  1
  Cr  Cr40  1  0.33404703  0.33068893  0.66723058  1
  Cr  Cr41  1  0.49706832  0.49977321  0.83185381  1
  Ni  Ni42  1  0.49878321  0.83137410  0.50144177  1
  Ni  Ni43  1  0.32884350  0.66888720  0.66431239  1
  Cr  Cr44  1  0.49812250  0.83350517  0.83241398  1
  Ni  Ni45  1  0.83221600  0.16422007  0.49913345  1
  Fe  Fe46  1  0.66587193  0.99858355  0.66425008  1
  Cr  Cr47  1  0.83104734  0.16140953  0.83317608  1
  Fe  Fe48  1  0.83440320  0.49970891  0.49997180  1
  Ni  Ni49  1  0.66523434  0.33021825  0.66382700  1
  Cr  Cr50  1  0.83231332  0.50107779  0.82925099  1
  Ni  Ni51  1  0.83248663  0.83470744  0.50209032  1
  Fe  Fe52  1  0.66706940  0.66807738  0.66380267  1
  Ni  Ni53  1  0.83406428  0.83435069  0.83061670  1
" 