2729,Ni52Fe46Cr1_12,-239.978389773079, 224.372303679211,Ni52Fe46Cr1,"# generated using pymatgen
 data_Cr(Fe6Ni7)2
_symmetry_space_group_name_H-M   'P 1'
_cell_length_a   7.40428409
_cell_length_b   7.40428409
_cell_length_c   10.47123898
_cell_angle_alpha   90.00000000
_cell_angle_beta   90.00000000
_cell_angle_gamma   90.00000000
_symmetry_Int_Tables_number   1
_chemical_formula_structural   Cr(Fe6Ni7)2
_chemical_formula_sum   'Cr2 Fe24 Ni28'
_cell_volume   574.06916301
_cell_formula_units_Z   2
loop_
 _symmetry_equiv_pos_site_id
 _symmetry_equiv_pos_as_xyz
  1  'x, y, z'
loop_
 _atom_site_type_symbol
 _atom_site_label
 _atom_site_symmetry_multiplicity
 _atom_site_fract_x
 _atom_site_fract_y
 _atom_site_fract_z
 _atom_site_occupancy
  Fe  Fe0  1  1.00401819  1.00308205  1.00414407  1
  Fe  Fe1  1  0.16977743  0.16970338  0.17144568  1
  Ni  Ni2  1  1.00380412  0.00522745  0.33777926  1
  Fe  Fe3  1  1.00260191  0.33840669  1.00415970  1
  Fe  Fe4  1  0.17008377  0.50532931  0.17193568  1
  Ni  Ni5  1  1.00405253  0.33624025  0.33705429  1
  Ni  Ni6  1  1.00376338  0.67165927  0.00434382  1
  Ni  Ni7  1  0.17035303  0.83664589  0.17001447  1
  Fe  Fe8  1  1.00367819  0.67150197  0.33735924  1
  Fe  Fe9  1  0.33757519  1.00136445  1.00365728  1
  Ni  Ni10  1  0.50593202  0.17203041  0.17154030  1
  Fe  Fe11  1  0.33801680  1.00388694  0.33785546  1
  Cr  Cr12  1  0.33759126  0.33746396  1.00414377  1
  Ni  Ni13  1  0.50419212  0.50436649  0.17148515  1
  Fe  Fe14  1  0.33840620  0.33807848  0.33772385  1
  Ni  Ni15  1  0.33793566  0.67250271  1.00353338  1
  Fe  Fe16  1  0.50473263  0.83747284  0.17087985  1
  Ni  Ni17  1  0.33849629  0.67089658  0.33704559  1
  Fe  Fe18  1  0.67112295  1.00304895  0.00462428  1
  Ni  Ni19  1  0.83716431  0.17069873  0.17000038  1
  Ni  Ni20  1  0.67182054  1.00392569  0.33795421  1
  Fe  Fe21  1  0.67243239  0.33854572  0.00461861  1
  Fe  Fe22  1  0.83695089  0.50428509  0.17081141  1
  Ni  Ni23  1  0.67147008  0.33764504  0.33720930  1
  Ni  Ni24  1  0.67101369  0.67158105  0.00456705  1
  Ni  Ni25  1  0.83867794  0.83838370  0.17098314  1
  Ni  Ni26  1  0.66962113  0.67114705  0.33728896  1
  Fe  Fe27  1  0.17151925  0.16945837  0.50437714  1
  Ni  Ni28  1  0.00475826  1.00258396  0.67123473  1
  Ni  Ni29  1  0.17002978  0.17035058  0.83763166  1
  Ni  Ni30  1  0.17334088  0.50507788  0.50329262  1
  Cr  Cr31  1  1.00405741  0.33632119  0.67103945  1
  Fe  Fe32  1  0.17052628  0.50592245  0.83745897  1
  Ni  Ni33  1  0.17046646  0.83669140  0.50551256  1
  Fe  Fe34  1  0.00475048  0.67276645  0.67107947  1
  Fe  Fe35  1  0.17045291  0.83856456  0.83770713  1
  Fe  Fe36  1  0.50434186  0.17075174  0.50415324  1
  Ni  Ni37  1  0.33680066  1.00418604  0.67120521  1
  Fe  Fe38  1  0.50513412  0.16948718  0.83659670  1
  Ni  Ni39  1  0.50276480  0.50392922  0.50486817  1
  Ni  Ni40  1  0.33955996  0.33719424  0.67028899  1
  Fe  Fe41  1  0.50560694  0.50488837  0.83682988  1
  Ni  Ni42  1  0.50414844  0.83635032  0.50324630  1
  Fe  Fe43  1  0.33758991  0.67075610  0.67018822  1
  Ni  Ni44  1  0.50420120  0.83630652  0.83861596  1
  Ni  Ni45  1  0.83694964  0.16955863  0.50360705  1
  Fe  Fe46  1  0.67105740  0.00494189  0.67065721  1
  Ni  Ni47  1  0.83778552  0.17010390  0.83911034  1
  Fe  Fe48  1  0.83637446  0.50550978  0.50317699  1
  Ni  Ni49  1  0.66889316  0.33794877  0.67147351  1
  Fe  Fe50  1  0.83658111  0.50520343  0.83872703  1
  Ni  Ni51  1  0.83809965  0.83917870  0.50458816  1
  Fe  Fe52  1  0.67037500  0.67137616  0.67089821  1
  Ni  Ni53  1  0.83741934  0.83834156  0.83714642  1
" 