4028,Ni52Fe46Cr1_15,-239.801919073528, 216.91551525111,Ni52Fe46Cr1,"# generated using pymatgen
 data_Cr(Fe6Ni7)2
_symmetry_space_group_name_H-M   'P 1'
_cell_length_a   7.40648688
_cell_length_b   7.40648688
_cell_length_c   10.47435419
_cell_angle_alpha   90.00000000
_cell_angle_beta   90.00000000
_cell_angle_gamma   90.00000000
_symmetry_Int_Tables_number   1
_chemical_formula_structural   Cr(Fe6Ni7)2
_chemical_formula_sum   'Cr2 Fe24 Ni28'
_cell_volume   574.58167490
_cell_formula_units_Z   2
loop_
 _symmetry_equiv_pos_site_id
 _symmetry_equiv_pos_as_xyz
  1  'x, y, z'
loop_
 _atom_site_type_symbol
 _atom_site_label
 _atom_site_symmetry_multiplicity
 _atom_site_fract_x
 _atom_site_fract_y
 _atom_site_fract_z
 _atom_site_occupancy
  Fe  Fe0  1  0.00459369  0.00485902  1.00382832  1
  Fe  Fe1  1  0.17152925  0.17121088  0.17127430  1
  Fe  Fe2  1  0.00412017  0.00449837  0.33783793  1
  Ni  Ni3  1  1.00266435  0.33741630  1.00308074  1
  Fe  Fe4  1  0.17130655  0.50369566  0.17073896  1
  Ni  Ni5  1  0.00591179  0.33665022  0.33747443  1
  Fe  Fe6  1  0.00485912  0.67025265  1.00359190  1
  Ni  Ni7  1  0.17160386  0.83746224  0.17108942  1
  Fe  Fe8  1  0.00489684  0.67162510  0.33696434  1
  Ni  Ni9  1  0.33760722  1.00313705  1.00377091  1
  Ni  Ni10  1  0.50312638  0.17047102  0.17043263  1
  Ni  Ni11  1  0.33774530  1.00307381  0.33769808  1
  Ni  Ni12  1  0.33786836  0.33711712  0.00415131  1
  Ni  Ni13  1  0.50336133  0.50494626  0.17017895  1
  Ni  Ni14  1  0.33536372  0.33746433  0.33759057  1
  Ni  Ni15  1  0.33729243  0.67201259  1.00354480  1
  Ni  Ni16  1  0.50244762  0.83684718  0.17027115  1
  Ni  Ni17  1  0.33745249  0.67172657  0.33826701  1
  Fe  Fe18  1  0.67004735  0.00542076  0.00435263  1
  Ni  Ni19  1  0.83860460  0.17116414  0.17017869  1
  Ni  Ni20  1  0.67073267  1.00205381  0.33808916  1
  Ni  Ni21  1  0.67173074  0.33710246  0.00410070  1
  Ni  Ni22  1  0.83798855  0.50387678  0.16929886  1
  Cr  Cr23  1  0.67055276  0.33627225  0.33653410  1
  Fe  Fe24  1  0.66971484  0.66962713  0.00468081  1
  Fe  Fe25  1  0.83612486  0.83726714  0.17120506  1
  Ni  Ni26  1  0.66991650  0.67385041  0.33720196  1
  Ni  Ni27  1  0.17009471  0.17075640  0.50366764  1
  Fe  Fe28  1  1.00296841  0.00419268  0.67059795  1
  Fe  Fe29  1  0.17102451  0.17088853  0.83745790  1
  Fe  Fe30  1  0.17208899  0.50403559  0.50386008  1
  Fe  Fe31  1  0.00428619  0.33640218  0.67115769  1
  Fe  Fe32  1  0.17056475  0.50378046  0.83766576  1
  Fe  Fe33  1  0.17077181  0.83743868  0.50371297  1
  Ni  Ni34  1  0.00483597  0.67207524  0.67148793  1
  Fe  Fe35  1  0.17093310  0.83759751  0.83805905  1
  Fe  Fe36  1  0.50382307  0.16961628  0.50470381  1
  Fe  Fe37  1  0.33742742  0.00428788  0.67062206  1
  Ni  Ni38  1  0.50388166  0.17208003  0.83721128  1
  Ni  Ni39  1  0.50138878  0.50582276  0.50439648  1
  Fe  Fe40  1  0.33781184  0.33801250  0.67069993  1
  Ni  Ni41  1  0.50337647  0.50359786  0.83769198  1
  Ni  Ni42  1  0.50383949  0.83618963  0.50415173  1
  Fe  Fe43  1  0.33799135  0.66996618  0.67059992  1
  Fe  Fe44  1  0.50446438  0.83799007  0.83775749  1
  Ni  Ni45  1  0.83988372  0.16830819  0.50509915  1
  Fe  Fe46  1  0.67187345  1.00401242  0.67033372  1
  Ni  Ni47  1  0.83789271  0.17053365  0.83698775  1
  Cr  Cr48  1  0.83696251  0.50453211  0.50494376  1
  Ni  Ni49  1  0.67049669  0.33608707  0.67142355  1
  Fe  Fe50  1  0.83670623  0.50331706  0.83760575  1
  Ni  Ni51  1  0.83729701  0.83917034  0.50288475  1
  Fe  Fe52  1  0.67026207  0.67128502  0.67079047  1
  Ni  Ni53  1  0.83866065  0.83769374  0.83777305  1
" 