6759,Ni52Fe48_17,-240.757400311319, 222.999339113294,Ni52Fe48,"# generated using pymatgen
 data_Fe14Ni13
_symmetry_space_group_name_H-M   'P 1'
_cell_length_a   7.39929684
_cell_length_b   7.39929684
_cell_length_c   10.46418594
_cell_angle_alpha   90.00000000
_cell_angle_beta   90.00000000
_cell_angle_gamma   90.00000000
_symmetry_Int_Tables_number   1
_chemical_formula_structural   Fe14Ni13
_chemical_formula_sum   'Fe28 Ni26'
_cell_volume   572.90992899
_cell_formula_units_Z   2
loop_
 _symmetry_equiv_pos_site_id
 _symmetry_equiv_pos_as_xyz
  1  'x, y, z'
loop_
 _atom_site_type_symbol
 _atom_site_label
 _atom_site_symmetry_multiplicity
 _atom_site_fract_x
 _atom_site_fract_y
 _atom_site_fract_z
 _atom_site_occupancy
  Ni  Ni0  1  1.00322190  1.00287844  0.00502363  1
  Fe  Fe1  1  0.17104497  0.17129978  0.17134094  1
  Ni  Ni2  1  1.00376087  1.00392886  0.33817041  1
  Fe  Fe3  1  0.00464026  0.33842885  0.00484755  1
  Fe  Fe4  1  0.17159029  0.50438708  0.17087590  1
  Ni  Ni5  1  0.00563666  0.33849002  0.33826974  1
  Ni  Ni6  1  0.00593200  0.67242756  0.00466740  1
  Ni  Ni7  1  0.17071719  0.83808817  0.17016037  1
  Fe  Fe8  1  0.00520006  0.67144296  0.33764073  1
  Fe  Fe9  1  0.33799177  0.00485987  0.00513919  1
  Ni  Ni10  1  0.50492236  0.17070979  0.17072402  1
  Ni  Ni11  1  0.33810986  0.00464984  0.33826990  1
  Ni  Ni12  1  0.33899820  0.33995979  0.00466500  1
  Fe  Fe13  1  0.50409407  0.50435268  0.17114943  1
  Ni  Ni14  1  0.33765954  0.33919816  0.33827235  1
  Ni  Ni15  1  0.33664334  0.66935769  0.00466666  1
  Fe  Fe16  1  0.50478315  0.83813465  0.17124208  1
  Fe  Fe17  1  0.33692118  0.67203662  0.33793449  1
  Ni  Ni18  1  0.67268931  0.00523329  1.00440997  1
  Fe  Fe19  1  0.83796347  0.17061126  0.17124458  1
  Ni  Ni20  1  0.67186379  1.00382644  0.33852652  1
  Ni  Ni21  1  0.66961645  0.33724610  0.00477260  1
  Ni  Ni22  1  0.83809962  0.50493435  0.17066934  1
  Fe  Fe23  1  0.67118158  0.33680008  0.33804904  1
  Fe  Fe24  1  0.67161310  0.67095423  0.00486511  1
  Fe  Fe25  1  0.83799474  0.83868252  0.17087666  1
  Fe  Fe26  1  0.67161216  0.67094899  0.33820310  1
  Fe  Fe27  1  0.17153015  0.17229061  0.50455798  1
  Ni  Ni28  1  1.00351565  1.00329898  0.67054150  1
  Ni  Ni29  1  0.17241351  0.17107702  0.83826991  1
  Ni  Ni30  1  0.17016093  0.50592771  0.50392879  1
  Fe  Fe31  1  1.00437550  0.33757837  0.67076150  1
  Ni  Ni32  1  0.17015740  0.50487098  0.83847566  1
  Ni  Ni33  1  0.17051630  0.83786005  0.50530376  1
  Fe  Fe34  1  1.00437165  0.67075729  0.67130336  1
  Fe  Fe35  1  0.17114765  0.83831784  0.83841745  1
  Ni  Ni36  1  0.50521323  0.17113074  0.50484208  1
  Fe  Fe37  1  0.33847510  0.00585231  0.67075876  1
  Ni  Ni38  1  0.50469671  0.17061410  0.83816781  1
  Ni  Ni39  1  0.50557165  0.50285185  0.50448497  1
  Ni  Ni40  1  0.33879326  0.33973740  0.67079622  1
  Fe  Fe41  1  0.50322224  0.50309342  0.83764297  1
  Fe  Fe42  1  0.50451204  0.83728219  0.50436473  1
  Fe  Fe43  1  0.33796341  0.67102240  0.67129806  1
  Fe  Fe44  1  0.50397876  0.83840341  0.83812866  1
  Fe  Fe45  1  0.83804081  0.17157872  0.50465381  1
  Ni  Ni46  1  0.67259736  0.00483394  0.67079829  1
  Fe  Fe47  1  0.83803844  0.17099932  0.83783530  1
  Ni  Ni48  1  0.83800195  0.50474621  0.50514673  1
  Ni  Ni49  1  0.66951997  0.33783031  0.67033741  1
  Fe  Fe50  1  0.83812072  0.50347138  0.83820596  1
  Fe  Fe51  1  0.83778024  0.83785140  0.50480581  1
  Fe  Fe52  1  0.67139608  0.67081565  0.67066608  1
  Fe  Fe53  1  0.83860964  0.83926057  0.83805197  1
" 