1368,Ni52Fe11Cr35_8,-225.683495554893, 164.847288412638,Ni52Fe11Cr35,"# generated using pymatgen
 data_Cr10Fe3Ni14
_symmetry_space_group_name_H-M   'P 1'
_cell_length_a   7.48312804
_cell_length_b   7.48312804
_cell_length_c   10.58274116
_cell_angle_alpha   90.00000000
_cell_angle_beta   90.00000000
_cell_angle_gamma   90.00000000
_symmetry_Int_Tables_number   1
_chemical_formula_structural   Cr10Fe3Ni14
_chemical_formula_sum   'Cr20 Fe6 Ni28'
_cell_volume   592.60392818
_cell_formula_units_Z   2
loop_
 _symmetry_equiv_pos_site_id
 _symmetry_equiv_pos_as_xyz
  1  'x, y, z'
loop_
 _atom_site_type_symbol
 _atom_site_label
 _atom_site_symmetry_multiplicity
 _atom_site_fract_x
 _atom_site_fract_y
 _atom_site_fract_z
 _atom_site_occupancy
  Cr  Cr0  1  -0.00032531  -0.00095129  -0.00011036  1
  Ni  Ni1  1  0.16657285  0.16594026  0.16754791  1
  Ni  Ni2  1  -0.00064658  -0.00052193  0.33351346  1
  Fe  Fe3  1  -0.00053251  0.33063209  0.00095249  1
  Ni  Ni4  1  0.16231944  0.49722965  0.16589074  1
  Fe  Fe5  1  -0.00047795  0.32754426  0.33125641  1
  Ni  Ni6  1  0.00087448  0.66573243  0.00087782  1
  Ni  Ni7  1  0.16484905  0.83342104  0.16546951  1
  Fe  Fe8  1  -0.00058069  0.66876565  0.33230773  1
  Ni  Ni9  1  0.33235792  0.99755984  0.00048745  1
  Ni  Ni10  1  0.49790819  0.16299722  0.16716303  1
  Ni  Ni11  1  0.32743952  0.00193407  0.33000596  1
  Cr  Cr12  1  0.33276366  0.33169850  0.00182637  1
  Cr  Cr13  1  0.49934132  0.49779241  0.16815753  1
  Ni  Ni14  1  0.33254261  0.33071958  0.33099885  1
  Cr  Cr15  1  0.33012821  0.66736922  0.99743347  1
  Cr  Cr16  1  0.50001130  0.83775214  0.16522516  1
  Cr  Cr17  1  0.33006387  0.66511948  0.33281174  1
  Ni  Ni18  1  0.66569444  0.00103809  0.99877572  1
  Ni  Ni19  1  0.83245691  0.16570338  0.16660687  1
  Ni  Ni20  1  0.66992588  0.00209684  0.33194880  1
  Cr  Cr21  1  0.66646879  0.32977361  0.99815398  1
  Cr  Cr22  1  0.83568672  0.49963399  0.16555153  1
  Ni  Ni23  1  0.66524160  0.33083362  0.33222884  1
  Fe  Fe24  1  0.66458927  0.66812162  0.99741762  1
  Cr  Cr25  1  0.83114603  0.83195164  0.16717470  1
  Ni  Ni26  1  0.66744165  0.66391946  0.33375468  1
  Ni  Ni27  1  0.16431122  0.16378523  0.49913866  1
  Ni  Ni28  1  0.99883121  0.99821982  0.66356726  1
  Cr  Cr29  1  0.16494917  0.16523352  0.82945116  1
  Cr  Cr30  1  0.16629673  0.49673537  0.50034445  1
  Fe  Fe31  1  -0.00018359  0.32868750  0.66442977  1
  Cr  Cr32  1  0.16424192  0.49868514  0.83028450  1
  Ni  Ni33  1  0.16272534  0.83499299  0.50106665  1
  Ni  Ni34  1  0.00248189  0.67003330  0.66423414  1
  Fe  Fe35  1  0.16721710  0.83246852  0.83033874  1
  Cr  Cr36  1  0.49635280  0.16489536  0.49745026  1
  Ni  Ni37  1  0.32836585  0.99696286  0.66617926  1
  Cr  Cr38  1  0.49787116  0.16067733  0.83147746  1
  Ni  Ni39  1  0.49784805  0.49824173  0.49861764  1
  Ni  Ni40  1  0.33241216  0.33432966  0.66433289  1
  Ni  Ni41  1  0.49746291  0.50246909  0.83049117  1
  Cr  Cr42  1  0.49978886  0.83390436  0.49851444  1
  Ni  Ni43  1  0.33016402  0.66540565  0.66720058  1
  Ni  Ni44  1  0.49808926  0.83291002  0.83274684  1
  Ni  Ni45  1  0.83499655  0.16223434  0.49895390  1
  Ni  Ni46  1  0.66950465  0.00005967  0.66600888  1
  Ni  Ni47  1  0.83315534  0.16407861  0.83115136  1
  Cr  Cr48  1  0.83298435  0.50019128  0.49671121  1
  Cr  Cr49  1  0.66476529  0.33065239  0.66545555  1
  Cr  Cr50  1  0.83541782  0.49891132  0.83451494  1
  Ni  Ni51  1  0.83461541  0.83461287  0.49780298  1
  Cr  Cr52  1  0.66328049  0.66544604  0.66552814  1
  Cr  Cr53  1  0.83077329  0.83334908  0.83255908  1
" 