7985,Ni52Fe10Cr37_0,-224.745241799221, 158.141130601795,Ni52Fe10Cr37,"# generated using pymatgen
 data_Cr21Fe5Ni28
_symmetry_space_group_name_H-M   'P 1'
_cell_length_a   7.48583856
_cell_length_b   7.48583856
_cell_length_c   10.58657442
_cell_angle_alpha   90.00000000
_cell_angle_beta   90.00000000
_cell_angle_gamma   90.00000000
_symmetry_Int_Tables_number   1
_chemical_formula_structural   Cr21Fe5Ni28
_chemical_formula_sum   'Cr21 Fe5 Ni28'
_cell_volume   593.24811817
_cell_formula_units_Z   1
loop_
 _symmetry_equiv_pos_site_id
 _symmetry_equiv_pos_as_xyz
  1  'x, y, z'
loop_
 _atom_site_type_symbol
 _atom_site_label
 _atom_site_symmetry_multiplicity
 _atom_site_fract_x
 _atom_site_fract_y
 _atom_site_fract_z
 _atom_site_occupancy
  Cr  Cr0  1  0.00060102  0.99580881  0.99816990  1
  Ni  Ni1  1  0.16829950  0.16603696  0.16500627  1
  Cr  Cr2  1  0.00202420  0.00147848  0.33125372  1
  Cr  Cr3  1  -0.00005953  0.33727870  0.00129922  1
  Ni  Ni4  1  0.16564071  0.50180682  0.16587269  1
  Ni  Ni5  1  0.99768323  0.33768570  0.33283329  1
  Ni  Ni6  1  0.00020501  0.66465073  0.99856229  1
  Ni  Ni7  1  0.16926244  0.82866634  0.16520634  1
  Ni  Ni8  1  -0.00072101  0.65958910  0.33058836  1
  Ni  Ni9  1  0.33477070  0.99656711  -0.00089611  1
  Cr  Cr10  1  0.49886218  0.16542693  0.16196919  1
  Ni  Ni11  1  0.33427885  0.99699342  0.33124221  1
  Ni  Ni12  1  0.33368372  0.33287870  0.00061239  1
  Fe  Fe13  1  0.49728507  0.50112615  0.16485475  1
  Cr  Cr14  1  0.32966176  0.33332701  0.33038004  1
  Ni  Ni15  1  0.33122465  0.66675345  0.00017977  1
  Ni  Ni16  1  0.49522871  0.83052384  0.16672802  1
  Ni  Ni17  1  0.33278382  0.66630946  0.33082385  1
  Ni  Ni18  1  0.66044045  0.99753277  0.99555787  1
  Cr  Cr19  1  0.83056403  0.16769752  0.16595386  1
  Cr  Cr20  1  0.66128352  0.99684907  0.33511782  1
  Ni  Ni21  1  0.66323601  0.33361321  -0.00029818  1
  Ni  Ni22  1  0.83202965  0.49946382  0.16699790  1
  Fe  Fe23  1  0.66600410  0.33528812  0.33272147  1
  Cr  Cr24  1  0.66485598  0.66603028  -0.00048802  1
  Cr  Cr25  1  0.83197875  0.82990900  0.16589738  1
  Ni  Ni26  1  0.66423997  0.66264161  0.33084408  1
  Cr  Cr27  1  0.16653218  0.16731490  0.49775930  1
  Cr  Cr28  1  0.99816677  0.99692038  0.66725765  1
  Cr  Cr29  1  0.17098752  0.16617553  0.83440188  1
  Ni  Ni30  1  0.16470125  0.50110444  0.49957988  1
  Cr  Cr31  1  0.99831136  0.33473678  0.66287215  1
  Cr  Cr32  1  0.16770645  0.50153958  0.82990090  1
  Cr  Cr33  1  0.16658904  0.82659837  0.49761413  1
  Ni  Ni34  1  0.99645935  0.66334124  0.66695488  1
  Ni  Ni35  1  0.16608900  0.82785677  0.83344332  1
  Ni  Ni36  1  0.50028360  0.16770818  0.49958880  1
  Cr  Cr37  1  0.33465690  0.99834253  0.66519645  1
  Ni  Ni38  1  0.49975616  0.16578774  0.83358564  1
  Cr  Cr39  1  0.49782499  0.50001220  0.49903515  1
  Ni  Ni40  1  0.33498075  0.33256718  0.66458250  1
  Cr  Cr41  1  0.49836635  0.49602869  0.83249582  1
  Fe  Fe42  1  0.49857873  0.82985998  0.49750371  1
  Fe  Fe43  1  0.33317178  0.66505836  0.66589768  1
  Ni  Ni44  1  0.49819329  0.83109713  0.83187231  1
  Ni  Ni45  1  0.82780943  0.16991572  0.49678889  1
  Cr  Cr46  1  0.66382501  0.99688676  0.66495981  1
  Cr  Cr47  1  0.82733609  0.16652753  0.83409457  1
  Ni  Ni48  1  0.83130793  0.49922801  0.49845501  1
  Ni  Ni49  1  0.66363594  0.33408524  0.66384623  1
  Fe  Fe50  1  0.83058610  0.50097391  0.83166843  1
  Cr  Cr51  1  0.83273009  0.82849853  0.49703974  1
  Ni  Ni52  1  0.66650940  0.66394030  0.66626630  1
  Ni  Ni53  1  0.83178164  0.82818548  0.83257309  1
" 