6603,Ni52Fe48_16,-241.23882661752, 224.72346830289,Ni52Fe48,"# generated using pymatgen
 data_Fe14Ni13
_symmetry_space_group_name_H-M   'P 1'
_cell_length_a   7.40324837
_cell_length_b   7.40324837
_cell_length_c   10.46977425
_cell_angle_alpha   90.00000000
_cell_angle_beta   90.00000000
_cell_angle_gamma   90.00000000
_symmetry_Int_Tables_number   1
_chemical_formula_structural   Fe14Ni13
_chemical_formula_sum   'Fe28 Ni26'
_cell_volume   573.82829225
_cell_formula_units_Z   2
loop_
 _symmetry_equiv_pos_site_id
 _symmetry_equiv_pos_as_xyz
  1  'x, y, z'
loop_
 _atom_site_type_symbol
 _atom_site_label
 _atom_site_symmetry_multiplicity
 _atom_site_fract_x
 _atom_site_fract_y
 _atom_site_fract_z
 _atom_site_occupancy
  Fe  Fe0  1  1.00389539  1.00346158  1.00424759  1
  Ni  Ni1  1  0.17169196  0.17197101  0.17204762  1
  Ni  Ni2  1  0.00462471  0.00504426  0.33678178  1
  Fe  Fe3  1  1.00421052  0.33862229  1.00418480  1
  Ni  Ni4  1  0.17026453  0.50399111  0.17157413  1
  Ni  Ni5  1  0.00622147  0.33641411  0.33686973  1
  Ni  Ni6  1  1.00337717  0.67135809  0.00460735  1
  Ni  Ni7  1  0.17126984  0.83696262  0.17049489  1
  Fe  Fe8  1  0.00485124  0.67049741  0.33678648  1
  Fe  Fe9  1  0.33782876  1.00341606  0.00480737  1
  Ni  Ni10  1  0.50430833  0.17037107  0.17105559  1
  Fe  Fe11  1  0.33720602  0.00442270  0.33688953  1
  Fe  Fe12  1  0.33713919  0.33828818  0.00443522  1
  Fe  Fe13  1  0.50420371  0.50485271  0.17122755  1
  Ni  Ni14  1  0.33652055  0.33742035  0.33686357  1
  Fe  Fe15  1  0.33739116  0.67122751  0.00436359  1
  Ni  Ni16  1  0.50501004  0.83827065  0.17167500  1
  Fe  Fe17  1  0.33655721  0.67085286  0.33770903  1
  Fe  Fe18  1  0.67119967  1.00320449  1.00376933  1
  Fe  Fe19  1  0.83843862  0.17055341  0.17147047  1
  Fe  Fe20  1  0.67122287  0.00496587  0.33775507  1
  Fe  Fe21  1  0.67158095  0.33818314  0.00456971  1
  Ni  Ni22  1  0.83825121  0.50469338  0.17128315  1
  Fe  Fe23  1  0.67158298  0.33729327  0.33744820  1
  Ni  Ni24  1  0.67120324  0.67167166  0.00439325  1
  Ni  Ni25  1  0.83664296  0.83685253  0.17167614  1
  Ni  Ni26  1  0.67049732  0.67175119  0.33673869  1
  Fe  Fe27  1  0.17021833  0.17134076  0.50430891  1
  Ni  Ni28  1  1.00398437  0.00515677  0.67175830  1
  Ni  Ni29  1  0.17044216  0.17260721  0.83633564  1
  Ni  Ni30  1  0.17115030  0.50460400  0.50415027  1
  Ni  Ni31  1  0.00630487  0.33650387  0.67136704  1
  Ni  Ni32  1  0.17114843  0.50346995  0.83719605  1
  Ni  Ni33  1  0.17144155  0.83650436  0.50501744  1
  Fe  Fe34  1  0.00449178  0.67090228  0.67140193  1
  Fe  Fe35  1  0.17017842  0.83819275  0.83764526  1
  Fe  Fe36  1  0.50358451  0.17129176  0.50401881  1
  Fe  Fe37  1  0.33765274  0.00437091  0.67123106  1
  Fe  Fe38  1  0.50417503  0.17066168  0.83774946  1
  Fe  Fe39  1  0.50393841  0.50436953  0.50437437  1
  Ni  Ni40  1  0.33634083  0.33752489  0.67136784  1
  Fe  Fe41  1  0.50454041  0.50445052  0.83732302  1
  Fe  Fe42  1  0.50456854  0.83726199  0.50462250  1
  Fe  Fe43  1  0.33722690  0.67101232  0.67085644  1
  Ni  Ni44  1  0.50560949  0.83746691  0.83701758  1
  Ni  Ni45  1  0.83678387  0.17119551  0.50406515  1
  Ni  Ni46  1  0.67159382  1.00253913  0.67127530  1
  Ni  Ni47  1  0.83756721  0.17058871  0.83788449  1
  Fe  Fe48  1  0.83824869  0.50441678  0.50376201  1
  Fe  Fe49  1  0.67177468  0.33665448  0.67091165  1
  Fe  Fe50  1  0.83789403  0.50474857  0.83824627  1
  Fe  Fe51  1  0.83819439  0.83778713  0.50455673  1
  Ni  Ni52  1  0.67057483  0.67226875  0.67179790  1
  Ni  Ni53  1  0.83585861  0.83817383  0.83671262  1
" 