6416,Ni52Fe11Cr35_4,-225.642749419381, 162.185618523434,Ni52Fe11Cr35,"# generated using pymatgen
 data_Cr10Fe3Ni14
_symmetry_space_group_name_H-M   'P 1'
_cell_length_a   7.48153603
_cell_length_b   7.48153603
_cell_length_c   10.58048973
_cell_angle_alpha   90.00000000
_cell_angle_beta   90.00000000
_cell_angle_gamma   90.00000000
_symmetry_Int_Tables_number   1
_chemical_formula_structural   Cr10Fe3Ni14
_chemical_formula_sum   'Cr20 Fe6 Ni28'
_cell_volume   592.22578701
_cell_formula_units_Z   2
loop_
 _symmetry_equiv_pos_site_id
 _symmetry_equiv_pos_as_xyz
  1  'x, y, z'
loop_
 _atom_site_type_symbol
 _atom_site_label
 _atom_site_symmetry_multiplicity
 _atom_site_fract_x
 _atom_site_fract_y
 _atom_site_fract_z
 _atom_site_occupancy
  Ni  Ni0  1  0.00034123  -0.00068665  0.00017873  1
  Ni  Ni1  1  0.16827425  0.16538457  0.16591899  1
  Cr  Cr2  1  0.00023102  0.99893608  0.33288984  1
  Cr  Cr3  1  0.00001625  0.33341339  -0.00014876  1
  Ni  Ni4  1  0.16496185  0.49800114  0.16724205  1
  Fe  Fe5  1  0.00122526  0.33253678  0.33152156  1
  Cr  Cr6  1  0.00107081  0.66570722  0.00098997  1
  Ni  Ni7  1  0.16642595  0.83383086  0.16356169  1
  Ni  Ni8  1  0.99647046  0.66642093  0.32963533  1
  Ni  Ni9  1  0.33191775  0.00097097  0.00142236  1
  Ni  Ni10  1  0.49595893  0.16421995  0.16539893  1
  Ni  Ni11  1  0.33279321  0.00315753  0.33183674  1
  Ni  Ni12  1  0.33390668  0.33215054  -0.00019969  1
  Cr  Cr13  1  0.49933830  0.49706824  0.16526411  1
  Ni  Ni14  1  0.33076599  0.32689311  0.33168472  1
  Ni  Ni15  1  0.33153911  0.66392984  -0.00040053  1
  Ni  Ni16  1  0.49766078  0.83414843  0.16661478  1
  Cr  Cr17  1  0.33038863  0.66604551  0.32927210  1
  Cr  Cr18  1  0.66461152  0.00123899  0.00169592  1
  Cr  Cr19  1  0.83250898  0.16709902  0.16433014  1
  Fe  Fe20  1  0.66345266  0.99834164  0.33201704  1
  Ni  Ni21  1  0.66319089  0.33164611  0.99556079  1
  Ni  Ni22  1  0.83346737  0.50003916  0.16685112  1
  Cr  Cr23  1  0.66350311  0.32976780  0.33249088  1
  Cr  Cr24  1  0.66550223  0.66351473  -0.00041028  1
  Ni  Ni25  1  0.83260232  0.83135449  0.16852098  1
  Ni  Ni26  1  0.66933142  0.66815011  0.33103335  1
  Ni  Ni27  1  0.16557842  0.16589684  0.50001670  1
  Ni  Ni28  1  0.99750512  0.00315583  0.66452976  1
  Cr  Cr29  1  0.16485724  0.16521676  0.83253432  1
  Cr  Cr30  1  0.16593901  0.49614427  0.49739503  1
  Ni  Ni31  1  0.00006560  0.32944528  0.66500767  1
  Ni  Ni32  1  0.16938425  0.49749493  0.83140030  1
  Cr  Cr33  1  0.16630219  0.83380963  0.50262091  1
  Cr  Cr34  1  -0.00084356  0.66460686  0.66682347  1
  Cr  Cr35  1  0.16740422  0.83371445  0.83249744  1
  Ni  Ni36  1  0.49780455  0.16534133  0.49902304  1
  Fe  Fe37  1  0.33224346  0.00214921  0.66517251  1
  Ni  Ni38  1  0.49947721  0.16976377  0.83256721  1
  Cr  Cr39  1  0.49891100  0.49844977  0.50037680  1
  Ni  Ni40  1  0.33275848  0.33117469  0.66553919  1
  Ni  Ni41  1  0.49784766  0.49677570  0.83076917  1
  Cr  Cr42  1  0.49922075  0.83144153  0.49854588  1
  Ni  Ni43  1  0.33412077  0.66163601  0.66790401  1
  Cr  Cr44  1  0.49629966  0.83174310  0.83257477  1
  Ni  Ni45  1  0.83350273  0.16585344  0.50015440  1
  Cr  Cr46  1  0.66592701  0.00150565  0.66345814  1
  Ni  Ni47  1  0.83189728  0.16840609  0.83142491  1
  Cr  Cr48  1  0.83214348  0.49837001  0.49799029  1
  Fe  Fe49  1  0.66595538  0.33241415  0.66703571  1
  Fe  Fe50  1  0.83134237  0.49591937  0.83116225  1
  Fe  Fe51  1  0.83225762  0.83338825  0.49818098  1
  Ni  Ni52  1  0.66469474  0.66452019  0.66626181  1
  Cr  Cr53  1  0.83365936  0.83609538  0.83197341  1
" 