386,Ni52Fe10Cr37_1,-224.853480303284, 158.94016908635,Ni52Fe10Cr37,"# generated using pymatgen
 data_Cr21Fe5Ni28
_symmetry_space_group_name_H-M   'P 1'
_cell_length_a   7.49007220
_cell_length_b   7.49007220
_cell_length_c   10.59256169
_cell_angle_alpha   90.00000000
_cell_angle_beta   90.00000000
_cell_angle_gamma   90.00000000
_symmetry_Int_Tables_number   1
_chemical_formula_structural   Cr21Fe5Ni28
_chemical_formula_sum   'Cr21 Fe5 Ni28'
_cell_volume   594.25522658
_cell_formula_units_Z   1
loop_
 _symmetry_equiv_pos_site_id
 _symmetry_equiv_pos_as_xyz
  1  'x, y, z'
loop_
 _atom_site_type_symbol
 _atom_site_label
 _atom_site_symmetry_multiplicity
 _atom_site_fract_x
 _atom_site_fract_y
 _atom_site_fract_z
 _atom_site_occupancy
  Cr  Cr0  1  -0.00068951  -0.00116127  0.00087085  1
  Ni  Ni1  1  0.16789534  0.16433698  0.16765845  1
  Ni  Ni2  1  0.00084045  0.00031404  0.33008387  1
  Ni  Ni3  1  -0.00124300  0.33245791  0.99662501  1
  Cr  Cr4  1  0.16879551  0.49747034  0.16341120  1
  Ni  Ni5  1  0.00358316  0.32834440  0.33366701  1
  Ni  Ni6  1  -0.00138283  0.66462929  -0.00135016  1
  Ni  Ni7  1  0.16558036  0.83235471  0.16614972  1
  Cr  Cr8  1  0.00028344  0.66522698  0.33050219  1
  Cr  Cr9  1  0.33280192  -0.00086377  -0.00025343  1
  Ni  Ni10  1  0.49652443  0.16597540  0.16555252  1
  Ni  Ni11  1  0.33181912  -0.00013599  0.33181093  1
  Ni  Ni12  1  0.33431952  0.33334045  0.99802307  1
  Ni  Ni13  1  0.49629391  0.49784576  0.16317042  1
  Ni  Ni14  1  0.32971677  0.32935222  0.33211383  1
  Ni  Ni15  1  0.33399597  0.66335877  0.99780574  1
  Fe  Fe16  1  0.49713587  0.83185131  0.16614561  1
  Ni  Ni17  1  0.33240882  0.66619591  0.33135844  1
  Fe  Fe18  1  0.66358742  -0.00077140  -0.00104798  1
  Cr  Cr19  1  0.83122885  0.16424352  0.16497984  1
  Ni  Ni20  1  0.66243160  0.99762089  0.33111470  1
  Ni  Ni21  1  0.66240812  0.33230613  0.99683950  1
  Cr  Cr22  1  0.83011676  0.49878097  0.16270295  1
  Cr  Cr23  1  0.66262760  0.33097770  0.33201575  1
  Ni  Ni24  1  0.66276356  0.66465061  -0.00059801  1
  Ni  Ni25  1  0.83138554  0.83292452  0.16449004  1
  Cr  Cr26  1  0.66268769  0.66691439  0.33096270  1
  Ni  Ni27  1  0.16677706  0.16729655  0.49710416  1
  Ni  Ni28  1  -0.00125233  0.00082412  0.66483675  1
  Cr  Cr29  1  0.16539175  0.16850672  0.83142266  1
  Ni  Ni30  1  0.16746674  0.49610924  0.50010672  1
  Fe  Fe31  1  0.00254490  0.33134563  0.66523936  1
  Ni  Ni32  1  0.16868731  0.49909973  0.83168491  1
  Cr  Cr33  1  0.16714561  0.83208176  0.49889490  1
  Fe  Fe34  1  0.00243280  0.66320847  0.66555406  1
  Cr  Cr35  1  0.16580044  0.82744895  0.83062095  1
  Ni  Ni36  1  0.49465804  0.16325485  0.49671067  1
  Cr  Cr37  1  0.33217333  0.00014288  0.66458663  1
  Ni  Ni38  1  0.50048689  0.16839403  0.83343932  1
  Cr  Cr39  1  0.49296599  0.49812014  0.49725255  1
  Ni  Ni40  1  0.32981924  0.33391339  0.66518661  1
  Ni  Ni41  1  0.49508621  0.49748345  0.83379433  1
  Ni  Ni42  1  0.49630518  0.83369261  0.49686955  1
  Ni  Ni43  1  0.33082476  0.66180042  0.66613340  1
  Fe  Fe44  1  0.49790518  0.82938290  0.83269154  1
  Cr  Cr45  1  0.83330573  0.16362300  0.49755303  1
  Cr  Cr46  1  0.66378730  -0.00027215  0.66664336  1
  Ni  Ni47  1  0.82966373  0.16518957  0.83271618  1
  Cr  Cr48  1  0.83553232  0.49764372  0.49861215  1
  Cr  Cr49  1  0.66271329  0.33092832  0.66603124  1
  Cr  Cr50  1  0.83278145  0.49729893  0.83379701  1
  Cr  Cr51  1  0.83178813  0.83401109  0.49831091  1
  Cr  Cr52  1  0.66209233  0.66469933  0.66409197  1
  Cr  Cr53  1  0.83220183  0.83323318  0.83231192  1
" 