7059,Ni52Fe46Cr1_6,-239.962811614499, 222.480326447161,Ni52Fe46Cr1,"# generated using pymatgen
 data_Cr(Fe6Ni7)2
_symmetry_space_group_name_H-M   'P 1'
_cell_length_a   7.40722192
_cell_length_b   7.40722192
_cell_length_c   10.47539370
_cell_angle_alpha   90.00000000
_cell_angle_beta   90.00000000
_cell_angle_gamma   90.00000000
_symmetry_Int_Tables_number   1
_chemical_formula_structural   Cr(Fe6Ni7)2
_chemical_formula_sum   'Cr2 Fe24 Ni28'
_cell_volume   574.75276108
_cell_formula_units_Z   2
loop_
 _symmetry_equiv_pos_site_id
 _symmetry_equiv_pos_as_xyz
  1  'x, y, z'
loop_
 _atom_site_type_symbol
 _atom_site_label
 _atom_site_symmetry_multiplicity
 _atom_site_fract_x
 _atom_site_fract_y
 _atom_site_fract_z
 _atom_site_occupancy
  Ni  Ni0  1  1.00324168  1.00376552  0.00489996  1
  Ni  Ni1  1  0.17064733  0.16905716  0.17141064  1
  Ni  Ni2  1  0.00567521  0.00557249  0.33712516  1
  Ni  Ni3  1  0.00629739  0.33761810  1.00334467  1
  Fe  Fe4  1  0.17142109  0.50218051  0.16963287  1
  Ni  Ni5  1  1.00369658  0.33625386  0.33801176  1
  Ni  Ni6  1  1.00389093  0.67066251  1.00392557  1
  Fe  Fe7  1  0.17158465  0.83766119  0.16976124  1
  Cr  Cr8  1  0.00413695  0.67048163  0.33662065  1
  Fe  Fe9  1  0.33626632  0.00450078  0.00419518  1
  Fe  Fe10  1  0.50317624  0.17264517  0.16987442  1
  Ni  Ni11  1  0.33632098  1.00359436  0.33748299  1
  Ni  Ni12  1  0.33708525  0.33744725  0.00516165  1
  Ni  Ni13  1  0.50542828  0.50501099  0.17173934  1
  Fe  Fe14  1  0.33699572  0.33647972  0.33701839  1
  Fe  Fe15  1  0.33690489  0.67074263  0.00477235  1
  Fe  Fe16  1  0.50309383  0.83596549  0.16998701  1
  Ni  Ni17  1  0.33848809  0.67030265  0.33751613  1
  Ni  Ni18  1  0.67065558  1.00357022  1.00360030  1
  Fe  Fe19  1  0.83887793  0.17285876  0.16985535  1
  Cr  Cr20  1  0.67160501  0.00514709  0.33784268  1
  Fe  Fe21  1  0.67189456  0.33759638  0.00420196  1
  Ni  Ni22  1  0.83525116  0.50399776  0.17007134  1
  Ni  Ni23  1  0.67030206  0.33839020  0.33685482  1
  Ni  Ni24  1  0.67098544  0.67190890  0.00469637  1
  Fe  Fe25  1  0.83745914  0.83725296  0.16864344  1
  Fe  Fe26  1  0.66951909  0.66877856  0.33726909  1
  Fe  Fe27  1  0.16928388  0.17043582  0.50354924  1
  Ni  Ni28  1  1.00322126  1.00286753  0.66998118  1
  Ni  Ni29  1  0.17099226  0.16921245  0.83652028  1
  Fe  Fe30  1  0.17050444  0.50277989  0.50507325  1
  Fe  Fe31  1  1.00230747  0.33707988  0.67068395  1
  Fe  Fe32  1  0.17081862  0.50253883  0.83741542  1
  Fe  Fe33  1  0.17039446  0.83888448  0.50501701  1
  Ni  Ni34  1  0.00404266  0.67165365  0.67128372  1
  Ni  Ni35  1  0.17064004  0.83736523  0.83779054  1
  Ni  Ni36  1  0.50279214  0.17163994  0.50429977  1
  Fe  Fe37  1  0.33807862  0.00446737  0.67066090  1
  Ni  Ni38  1  0.50380761  0.17108555  0.83843625  1
  Fe  Fe39  1  0.50582372  0.50334489  0.50362601  1
  Ni  Ni40  1  0.33814352  0.33725141  0.66963823  1
  Fe  Fe41  1  0.50342693  0.50292208  0.83778523  1
  Fe  Fe42  1  0.50478135  0.83698551  0.50462870  1
  Fe  Fe43  1  0.33764303  0.67100023  0.67033198  1
  Fe  Fe44  1  0.50459300  0.83891355  0.83750571  1
  Ni  Ni45  1  0.83770667  0.17174959  0.50424986  1
  Ni  Ni46  1  0.67114411  0.00451899  0.67069479  1
  Ni  Ni47  1  0.83725817  0.17101633  0.83755613  1
  Ni  Ni48  1  0.83593690  0.50390752  0.50469734  1
  Ni  Ni49  1  0.66852352  0.33658054  0.67163306  1
  Fe  Fe50  1  0.83788922  0.50381730  0.83743765  1
  Ni  Ni51  1  0.83810989  0.83643404  0.50565622  1
  Ni  Ni52  1  0.67143061  0.67109693  0.66946294  1
  Fe  Fe53  1  0.83787467  0.83907775  0.83693939  1
" 