8145,Ni52Fe10Cr37_4,-224.649069685841, 155.297815332338,Ni52Fe10Cr37,"# generated using pymatgen
 data_Cr21Fe5Ni28
_symmetry_space_group_name_H-M   'P 1'
_cell_length_a   7.48977161
_cell_length_b   7.48977161
_cell_length_c   10.59213660
_cell_angle_alpha   90.00000000
_cell_angle_beta   90.00000000
_cell_angle_gamma   90.00000000
_symmetry_Int_Tables_number   1
_chemical_formula_structural   Cr21Fe5Ni28
_chemical_formula_sum   'Cr21 Fe5 Ni28'
_cell_volume   594.18368495
_cell_formula_units_Z   1
loop_
 _symmetry_equiv_pos_site_id
 _symmetry_equiv_pos_as_xyz
  1  'x, y, z'
loop_
 _atom_site_type_symbol
 _atom_site_label
 _atom_site_symmetry_multiplicity
 _atom_site_fract_x
 _atom_site_fract_y
 _atom_site_fract_z
 _atom_site_occupancy
  Ni  Ni0  1  -0.00137891  0.99403304  0.99820987  1
  Cr  Cr1  1  0.16222828  0.16249078  0.16926552  1
  Ni  Ni2  1  0.99790836  0.99517166  0.33168972  1
  Cr  Cr3  1  0.99829920  0.33545837  0.00017285  1
  Ni  Ni4  1  0.16418565  0.50213415  0.16733590  1
  Ni  Ni5  1  -0.00037203  0.33389597  0.32861190  1
  Ni  Ni6  1  -0.00085042  0.66534609  0.99717497  1
  Ni  Ni7  1  0.16524140  0.82926652  0.16545833  1
  Ni  Ni8  1  0.00078524  0.66663757  0.33137474  1
  Cr  Cr9  1  0.33194732  0.99717550  0.00118932  1
  Ni  Ni10  1  0.49855449  0.16548457  0.16580054  1
  Fe  Fe11  1  0.33066252  0.99707984  0.33180404  1
  Cr  Cr12  1  0.33166761  0.33155898  -0.00115085  1
  Cr  Cr13  1  0.49877116  0.50149437  0.16417828  1
  Ni  Ni14  1  0.33196448  0.33242147  0.33101154  1
  Fe  Fe15  1  0.32883904  0.66594072  -0.00054661  1
  Ni  Ni16  1  0.49613493  0.83036772  0.16709080  1
  Ni  Ni17  1  0.32981132  0.66763871  0.33069593  1
  Cr  Cr18  1  0.66369031  -0.00050281  0.00007735  1
  Ni  Ni19  1  0.83213035  0.16591371  0.16485626  1
  Cr  Cr20  1  0.66222555  0.99694309  0.33161673  1
  Ni  Ni21  1  0.66554961  0.33273328  -0.00140237  1
  Ni  Ni22  1  0.83301307  0.49924134  0.16528821  1
  Cr  Cr23  1  0.66498696  0.32938599  0.32995449  1
  Ni  Ni24  1  0.66823728  0.66465691  0.00000164  1
  Cr  Cr25  1  0.83389888  0.83081789  0.16422195  1
  Fe  Fe26  1  0.66607828  0.66599557  0.33099780  1
  Cr  Cr27  1  0.16576207  0.16282890  0.49726619  1
  Ni  Ni28  1  0.99805714  0.99424435  0.66526067  1
  Cr  Cr29  1  0.16635208  0.16101976  0.82891127  1
  Cr  Cr30  1  0.16747644  0.49972425  0.49653015  1
  Cr  Cr31  1  -0.00025738  0.33549461  0.66650695  1
  Ni  Ni32  1  0.16627490  0.50199939  0.83178378  1
  Ni  Ni33  1  0.16528239  0.83262101  0.49819886  1
  Cr  Cr34  1  -0.00014651  0.66651351  0.66657483  1
  Ni  Ni35  1  0.16383316  0.83056046  0.83190974  1
  Ni  Ni36  1  0.49680169  0.16437688  0.50076439  1
  Ni  Ni37  1  0.33362138  0.99741554  0.66324563  1
  Ni  Ni38  1  0.49922403  0.16582436  0.82881977  1
  Cr  Cr39  1  0.49658033  0.49888685  0.49908330  1
  Ni  Ni40  1  0.33375108  0.33114443  0.66585754  1
  Cr  Cr41  1  0.49900899  0.49875121  0.83173947  1
  Fe  Fe42  1  0.49583567  0.83301856  0.49820977  1
  Ni  Ni43  1  0.33044799  0.66695319  0.66609780  1
  Cr  Cr44  1  0.49805287  0.83139997  0.83232796  1
  Cr  Cr45  1  0.83331611  0.16275177  0.49978046  1
  Ni  Ni46  1  0.66359623  0.99824691  0.66455274  1
  Cr  Cr47  1  0.83079489  0.16248862  0.83155024  1
  Cr  Cr48  1  0.83148416  0.50002110  0.49514817  1
  Fe  Fe49  1  0.66375801  0.33011681  0.66588338  1
  Ni  Ni50  1  0.83056081  0.50060038  0.83412893  1
  Ni  Ni51  1  0.83348654  0.83313640  0.49786740  1
  Cr  Cr52  1  0.66747767  0.66842987  0.66279491  1
  Ni  Ni53  1  0.83343918  0.83073174  0.83230868  1
" 