5118,Ni52Fe48_18,-240.915883982421, 224.117705782114,Ni52Fe48,"# generated using pymatgen
 data_Fe14Ni13
_symmetry_space_group_name_H-M   'P 1'
_cell_length_a   7.39752168
_cell_length_b   7.39752168
_cell_length_c   10.46167549
_cell_angle_alpha   90.00000000
_cell_angle_beta   90.00000000
_cell_angle_gamma   90.00000000
_symmetry_Int_Tables_number   1
_chemical_formula_structural   Fe14Ni13
_chemical_formula_sum   'Fe28 Ni26'
_cell_volume   572.49768855
_cell_formula_units_Z   2
loop_
 _symmetry_equiv_pos_site_id
 _symmetry_equiv_pos_as_xyz
  1  'x, y, z'
loop_
 _atom_site_type_symbol
 _atom_site_label
 _atom_site_symmetry_multiplicity
 _atom_site_fract_x
 _atom_site_fract_y
 _atom_site_fract_z
 _atom_site_occupancy
  Ni  Ni0  1  0.00523127  1.00328391  1.00453532  1
  Fe  Fe1  1  0.17372687  0.17081198  0.17228435  1
  Fe  Fe2  1  0.00521019  1.00446127  0.33790737  1
  Fe  Fe3  1  0.00475001  0.33924836  1.00389301  1
  Ni  Ni4  1  0.16997868  0.50484034  0.17212712  1
  Fe  Fe5  1  0.00543701  0.33978106  0.33902351  1
  Ni  Ni6  1  0.00584299  0.67337382  0.00548503  1
  Ni  Ni7  1  0.17050051  0.83737126  0.17191136  1
  Ni  Ni8  1  1.00448637  0.67267348  0.33769611  1
  Fe  Fe9  1  0.33811692  1.00334765  0.00470042  1
  Ni  Ni10  1  0.50722732  0.17082991  0.17164361  1
  Fe  Fe11  1  0.33740935  1.00309608  0.33798398  1
  Fe  Fe12  1  0.33656107  0.33836690  0.00485295  1
  Ni  Ni13  1  0.50440993  0.50409933  0.16974443  1
  Ni  Ni14  1  0.33921541  0.33687475  0.33725974  1
  Ni  Ni15  1  0.33710697  0.67187579  0.00570407  1
  Ni  Ni16  1  0.50514430  0.83887957  0.17169131  1
  Fe  Fe17  1  0.33854142  0.66958044  0.33703507  1
  Fe  Fe18  1  0.67135117  1.00337257  1.00384472  1
  Fe  Fe19  1  0.83855472  0.17124404  0.17007486  1
  Fe  Fe20  1  0.67128004  1.00418079  0.33915692  1
  Ni  Ni21  1  0.66945277  0.33678267  0.00475602  1
  Fe  Fe22  1  0.83720111  0.50583419  0.17079302  1
  Fe  Fe23  1  0.67105404  0.34034346  0.33751930  1
  Fe  Fe24  1  0.67128412  0.67189092  0.00565395  1
  Fe  Fe25  1  0.83760539  0.83749175  0.17231859  1
  Ni  Ni26  1  0.67192502  0.67182366  0.33807660  1
  Ni  Ni27  1  0.17079702  0.17194120  0.50538110  1
  Fe  Fe28  1  1.00420622  0.00644977  0.67162773  1
  Fe  Fe29  1  0.17284750  0.17044313  0.83716110  1
  Ni  Ni30  1  0.17285550  0.50469684  0.50447494  1
  Ni  Ni31  1  0.00529659  0.33992620  0.67150041  1
  Ni  Ni32  1  0.16951836  0.50525237  0.83806284  1
  Ni  Ni33  1  0.16938069  0.83768610  0.50534957  1
  Ni  Ni34  1  0.00564798  0.67230390  0.67109984  1
  Ni  Ni35  1  0.17097223  0.83661881  0.83703218  1
  Fe  Fe36  1  0.50231895  0.17098967  0.50477660  1
  Fe  Fe37  1  0.33734896  0.00526141  0.67174535  1
  Ni  Ni38  1  0.50699312  0.17165144  0.83805076  1
  Ni  Ni39  1  0.50471283  0.50323955  0.50512513  1
  Ni  Ni40  1  0.33839542  0.33759524  0.67277270  1
  Fe  Fe41  1  0.50341290  0.50514956  0.83840367  1
  Fe  Fe42  1  0.50323191  0.83677459  0.50475070  1
  Fe  Fe43  1  0.33808208  0.67000884  0.67239380  1
  Ni  Ni44  1  0.50533342  0.83910468  0.83762015  1
  Fe  Fe45  1  0.83912279  0.17197713  0.50552651  1
  Ni  Ni46  1  0.67059300  0.00473471  0.67082662  1
  Fe  Fe47  1  0.83835239  0.17147777  0.83788742  1
  Fe  Fe48  1  0.83997222  0.50645838  0.50486997  1
  Ni  Ni49  1  0.67051390  0.33610595  0.66967557  1
  Fe  Fe50  1  0.83705629  0.50501349  0.83785064  1
  Ni  Ni51  1  0.83804673  0.83942466  0.50553416  1
  Fe  Fe52  1  0.67174183  0.66998868  0.66988189  1
  Fe  Fe53  1  0.83840491  0.83772665  0.83670660  1
" 