6298,Ni52Fe11Cr35_9,-225.868975195676, 166.279327800572,Ni52Fe11Cr35,"# generated using pymatgen
 data_Cr10Fe3Ni14
_symmetry_space_group_name_H-M   'P 1'
_cell_length_a   7.47964997
_cell_length_b   7.47964997
_cell_length_c   10.57782242
_cell_angle_alpha   90.00000000
_cell_angle_beta   90.00000000
_cell_angle_gamma   90.00000000
_symmetry_Int_Tables_number   1
_chemical_formula_structural   Cr10Fe3Ni14
_chemical_formula_sum   'Cr20 Fe6 Ni28'
_cell_volume   591.77800631
_cell_formula_units_Z   2
loop_
 _symmetry_equiv_pos_site_id
 _symmetry_equiv_pos_as_xyz
  1  'x, y, z'
loop_
 _atom_site_type_symbol
 _atom_site_label
 _atom_site_symmetry_multiplicity
 _atom_site_fract_x
 _atom_site_fract_y
 _atom_site_fract_z
 _atom_site_occupancy
  Ni  Ni0  1  0.00023804  -0.00070642  0.00114313  1
  Ni  Ni1  1  0.16511380  0.16557608  0.16575337  1
  Ni  Ni2  1  0.99832894  0.00160233  0.33336255  1
  Ni  Ni3  1  0.00035210  0.33198148  0.00235403  1
  Fe  Fe4  1  0.16682098  0.49728668  0.16506257  1
  Fe  Fe5  1  0.00209322  0.32685638  0.33196699  1
  Ni  Ni6  1  0.99894263  0.66600021  0.99770633  1
  Ni  Ni7  1  0.16540301  0.83641135  0.16303142  1
  Cr  Cr8  1  0.00233390  0.67052972  0.33373714  1
  Ni  Ni9  1  0.33132203  0.00100905  0.00227352  1
  Ni  Ni10  1  0.49704468  0.16586716  0.16572598  1
  Cr  Cr11  1  0.32995761  0.00166744  0.33056151  1
  Cr  Cr12  1  0.33279822  0.33090644  0.99829111  1
  Ni  Ni13  1  0.50032229  0.49721296  0.16453323  1
  Ni  Ni14  1  0.33225287  0.33136107  0.33239404  1
  Cr  Cr15  1  0.33206507  0.66581613  0.00223762  1
  Ni  Ni16  1  0.49829136  0.83429087  0.16503769  1
  Cr  Cr17  1  0.33203158  0.66340311  0.32924139  1
  Cr  Cr18  1  0.66499871  0.00012775  -0.00043279  1
  Fe  Fe19  1  0.83370831  0.16417327  0.16663771  1
  Ni  Ni20  1  0.66889237  0.00212462  0.33349590  1
  Fe  Fe21  1  0.66463758  0.33229471  0.00004873  1
  Cr  Cr22  1  0.83384401  0.49668399  0.16388039  1
  Cr  Cr23  1  0.66265997  0.32869824  0.33306549  1
  Ni  Ni24  1  0.66592666  0.66444779  -0.00061427  1
  Cr  Cr25  1  0.83237562  0.83240976  0.16483388  1
  Cr  Cr26  1  0.66379810  0.66791291  0.33366696  1
  Ni  Ni27  1  0.16575922  0.16497331  0.50030876  1
  Ni  Ni28  1  0.99752891  0.99889539  0.66290097  1
  Cr  Cr29  1  0.16774545  0.16596416  0.83076080  1
  Cr  Cr30  1  0.16719423  0.49626634  0.49999063  1
  Ni  Ni31  1  0.00201205  0.32988576  0.66400607  1
  Ni  Ni32  1  0.16419174  0.49848154  0.83131696  1
  Ni  Ni33  1  0.16354565  0.83573919  0.50240000  1
  Fe  Fe34  1  0.00149105  0.66796599  0.66611090  1
  Cr  Cr35  1  0.16479479  0.83358297  0.83185176  1
  Ni  Ni36  1  0.49751610  0.16629351  0.50065159  1
  Ni  Ni37  1  0.33153412  0.00154295  0.66404179  1
  Ni  Ni38  1  0.49752409  0.16572670  0.83110817  1
  Ni  Ni39  1  0.49630643  0.49582701  0.50056826  1
  Ni  Ni40  1  0.33172463  0.33293309  0.66545203  1
  Fe  Fe41  1  0.49678420  0.49888356  0.83203538  1
  Cr  Cr42  1  0.49784310  0.83554344  0.49914126  1
  Ni  Ni43  1  0.33051799  0.66315274  0.66535030  1
  Cr  Cr44  1  0.49861076  0.83632329  0.83245899  1
  Ni  Ni45  1  0.83454856  0.16232712  0.49792542  1
  Ni  Ni46  1  0.66849811  0.00017150  0.66392852  1
  Cr  Cr47  1  0.83377327  0.16501447  0.83427938  1
  Cr  Cr48  1  0.83390266  0.49764619  0.49928952  1
  Cr  Cr49  1  0.66384498  0.32896318  0.66632064  1
  Cr  Cr50  1  0.83568542  0.50001225  0.83510795  1
  Ni  Ni51  1  0.83509794  0.83750640  0.50093659  1
  Cr  Cr52  1  0.66642665  0.66748129  0.66506060  1
  Ni  Ni53  1  0.83355231  0.83145963  0.83220917  1
" 