5796,Ni52Fe10Cr37_6,-224.735540073256, 156.776885771311,Ni52Fe10Cr37,"# generated using pymatgen
 data_Cr21Fe5Ni28
_symmetry_space_group_name_H-M   'P 1'
_cell_length_a   7.48971554
_cell_length_b   7.48971554
_cell_length_c   10.59205730
_cell_angle_alpha   90.00000000
_cell_angle_beta   90.00000000
_cell_angle_gamma   90.00000000
_symmetry_Int_Tables_number   1
_chemical_formula_structural   Cr21Fe5Ni28
_chemical_formula_sum   'Cr21 Fe5 Ni28'
_cell_volume   594.17033938
_cell_formula_units_Z   1
loop_
 _symmetry_equiv_pos_site_id
 _symmetry_equiv_pos_as_xyz
  1  'x, y, z'
loop_
 _atom_site_type_symbol
 _atom_site_label
 _atom_site_symmetry_multiplicity
 _atom_site_fract_x
 _atom_site_fract_y
 _atom_site_fract_z
 _atom_site_occupancy
  Cr  Cr0  1  0.99788372  0.99808787  0.99775507  1
  Cr  Cr1  1  0.16419446  0.16556350  0.16695885  1
  Ni  Ni2  1  -0.00009116  0.00003090  0.33370474  1
  Ni  Ni3  1  0.99597533  0.33183543  0.99689822  1
  Cr  Cr4  1  0.16626507  0.49662312  0.16370084  1
  Ni  Ni5  1  -0.00150128  0.32803089  0.33386115  1
  Cr  Cr6  1  0.00056019  0.66550252  0.99511687  1
  Ni  Ni7  1  0.16665990  0.83246154  0.16685991  1
  Cr  Cr8  1  0.00121954  0.66542649  0.33279762  1
  Cr  Cr9  1  0.33395344  0.99813571  -0.00046439  1
  Ni  Ni10  1  0.50016754  0.16451834  0.16362610  1
  Ni  Ni11  1  0.33201189  0.99638503  0.33223326  1
  Ni  Ni12  1  0.33358014  0.33167616  0.99685995  1
  Cr  Cr13  1  0.49869033  0.49857059  0.16286087  1
  Cr  Cr14  1  0.33311968  0.33032853  0.33485445  1
  Ni  Ni15  1  0.33043129  0.66535744  0.99754627  1
  Cr  Cr16  1  0.49912884  0.83136341  0.16632260  1
  Fe  Fe17  1  0.33254422  0.66715989  0.33404688  1
  Ni  Ni18  1  0.66471228  0.00280794  0.99822323  1
  Ni  Ni19  1  0.83136032  0.16470772  0.16537325  1
  Ni  Ni20  1  0.66380366  -0.00073909  0.33245258  1
  Ni  Ni21  1  0.66566519  0.32841188  0.99756524  1
  Cr  Cr22  1  0.83139967  0.49699440  0.16415473  1
  Cr  Cr23  1  0.66486113  0.32960015  0.33182998  1
  Ni  Ni24  1  0.66468355  0.66469991  0.99736500  1
  Cr  Cr25  1  0.83063591  0.83372380  0.16698694  1
  Ni  Ni26  1  0.66184154  0.66693378  0.33435944  1
  Ni  Ni27  1  0.16409207  0.16298822  0.49835252  1
  Fe  Fe28  1  0.00122298  -0.00112497  0.66353327  1
  Cr  Cr29  1  0.16827975  0.16640735  0.83058134  1
  Fe  Fe30  1  0.16769067  0.49782974  0.49998812  1
  Cr  Cr31  1  0.99709239  0.33226851  0.66422356  1
  Ni  Ni32  1  0.16643486  0.49754705  0.83202186  1
  Ni  Ni33  1  0.16791520  0.83570069  0.49855964  1
  Cr  Cr34  1  0.00061805  0.66565524  0.66757456  1
  Ni  Ni35  1  0.16715641  0.83145912  0.82994636  1
  Cr  Cr36  1  0.49697033  0.16357167  0.50100551  1
  Ni  Ni37  1  0.33144251  0.99765512  0.66438557  1
  Ni  Ni38  1  0.49981679  0.16622561  0.83111124  1
  Ni  Ni39  1  0.49710670  0.50154129  0.50110525  1
  Ni  Ni40  1  0.33313001  0.33151558  0.66447877  1
  Cr  Cr41  1  0.49802699  0.49712895  0.83179823  1
  Ni  Ni42  1  0.49628632  0.83034578  0.49833492  1
  Ni  Ni43  1  0.33172174  0.66668728  0.66289927  1
  Cr  Cr44  1  0.49812757  0.83248722  0.83027078  1
  Ni  Ni45  1  0.83427078  0.16378074  0.49868541  1
  Fe  Fe46  1  0.66248088  0.00044077  0.66457381  1
  Fe  Fe47  1  0.82971721  0.16739717  0.83197668  1
  Cr  Cr48  1  0.82860520  0.49794541  0.49737202  1
  Ni  Ni49  1  0.66456329  0.33097408  0.66601910  1
  Ni  Ni50  1  0.83005890  0.49662255  0.83329791  1
  Cr  Cr51  1  0.82944036  0.83497511  0.49878564  1
  Ni  Ni52  1  0.66338650  0.66347528  0.66398286  1
  Cr  Cr53  1  0.82887254  0.83258499  0.82956956  1
" 