2172,Ni52Fe48_12,-240.783882066687, 223.461202963114,Ni52Fe48,"# generated using pymatgen
 data_Fe14Ni13
_symmetry_space_group_name_H-M   'P 1'
_cell_length_a   7.39580023
_cell_length_b   7.39580023
_cell_length_c   10.45924099
_cell_angle_alpha   90.00000000
_cell_angle_beta   90.00000000
_cell_angle_gamma   90.00000000
_symmetry_Int_Tables_number   1
_chemical_formula_structural   Fe14Ni13
_chemical_formula_sum   'Fe28 Ni26'
_cell_volume   572.09811109
_cell_formula_units_Z   2
loop_
 _symmetry_equiv_pos_site_id
 _symmetry_equiv_pos_as_xyz
  1  'x, y, z'
loop_
 _atom_site_type_symbol
 _atom_site_label
 _atom_site_symmetry_multiplicity
 _atom_site_fract_x
 _atom_site_fract_y
 _atom_site_fract_z
 _atom_site_occupancy
  Fe  Fe0  1  0.00554580  1.00419654  0.00578807  1
  Fe  Fe1  1  0.17208542  0.17203018  0.17110776  1
  Ni  Ni2  1  0.00540720  0.00627688  0.33804568  1
  Ni  Ni3  1  1.00465348  0.33773579  1.00463633  1
  Ni  Ni4  1  0.17152127  0.50558231  0.17231545  1
  Ni  Ni5  1  0.00492698  0.33672097  0.33773743  1
  Ni  Ni6  1  0.00713285  0.67125745  0.00659094  1
  Ni  Ni7  1  0.17171396  0.83804649  0.17221323  1
  Fe  Fe8  1  0.00506228  0.67172660  0.33840423  1
  Fe  Fe9  1  0.33714868  0.00500498  1.00457992  1
  Fe  Fe10  1  0.50373210  0.17150820  0.17104329  1
  Fe  Fe11  1  0.33720097  1.00421624  0.33847402  1
  Fe  Fe12  1  0.33693483  0.34043547  1.00449463  1
  Ni  Ni13  1  0.50473648  0.50425209  0.17078481  1
  Fe  Fe14  1  0.33771037  0.33930996  0.33792270  1
  Ni  Ni15  1  0.33808606  0.67314520  1.00446590  1
  Ni  Ni16  1  0.50415891  0.83907236  0.17164260  1
  Ni  Ni17  1  0.33896892  0.67244038  0.33859022  1
  Fe  Fe18  1  0.67200252  1.00384409  1.00432967  1
  Fe  Fe19  1  0.83864421  0.17164124  0.17149418  1
  Fe  Fe20  1  0.67228847  1.00421707  0.33904524  1
  Ni  Ni21  1  0.67218532  0.33647275  0.00509363  1
  Fe  Fe22  1  0.83834413  0.50544033  0.17149939  1
  Fe  Fe23  1  0.67188054  0.33908883  0.33790562  1
  Fe  Fe24  1  0.67238136  0.66984861  0.00558382  1
  Fe  Fe25  1  0.83812579  0.83695028  0.17305552  1
  Ni  Ni26  1  0.66894545  0.67205284  0.33695339  1
  Fe  Fe27  1  0.17007710  0.17139349  0.50538850  1
  Fe  Fe28  1  1.00326754  1.00384661  0.67064628  1
  Ni  Ni29  1  0.17287007  0.17093511  0.83798728  1
  Fe  Fe30  1  0.17064338  0.50470566  0.50435228  1
  Ni  Ni31  1  0.00484038  0.33783989  0.67186716  1
  Ni  Ni32  1  0.16876701  0.50536785  0.83771528  1
  Ni  Ni33  1  0.17102801  0.83837419  0.50452416  1
  Ni  Ni34  1  0.00528969  0.67018515  0.67017796  1
  Ni  Ni35  1  0.17011903  0.83808808  0.83799771  1
  Ni  Ni36  1  0.50478419  0.17218405  0.50312908  1
  Fe  Fe37  1  0.33849365  0.00535436  0.67156412  1
  Ni  Ni38  1  0.50594506  0.17152143  0.83942973  1
  Fe  Fe39  1  0.50613085  0.50637094  0.50417826  1
  Fe  Fe40  1  0.33966161  0.33796820  0.67184828  1
  Fe  Fe41  1  0.50379914  0.50382972  0.83917184  1
  Fe  Fe42  1  0.50617468  0.83791996  0.50446419  1
  Fe  Fe43  1  0.33777197  0.67125556  0.67166974  1
  Fe  Fe44  1  0.50369610  0.83802610  0.83888020  1
  Fe  Fe45  1  0.83854924  0.17083343  0.50471501  1
  Ni  Ni46  1  0.66976810  0.00517021  0.67100088  1
  Fe  Fe47  1  0.83970750  0.17241887  0.83804069  1
  Ni  Ni48  1  0.83758693  0.50516777  0.50361582  1
  Ni  Ni49  1  0.67230514  0.33761813  0.67077663  1
  Ni  Ni50  1  0.83794592  0.50551311  0.83891977  1
  Ni  Ni51  1  0.83881144  0.83619265  0.50442108  1
  Ni  Ni52  1  0.67077814  0.67172453  0.67297138  1
  Fe  Fe53  1  0.83976803  0.83778506  0.83685326  1
" 