1175,Ni52Fe11Cr35_6,-225.98769649622, 168.619114031038,Ni52Fe11Cr35,"# generated using pymatgen
 data_Cr10Fe3Ni14
_symmetry_space_group_name_H-M   'P 1'
_cell_length_a   7.48122528
_cell_length_b   7.48122528
_cell_length_c   10.58005025
_cell_angle_alpha   90.00000000
_cell_angle_beta   90.00000000
_cell_angle_gamma   90.00000000
_symmetry_Int_Tables_number   1
_chemical_formula_structural   Cr10Fe3Ni14
_chemical_formula_sum   'Cr20 Fe6 Ni28'
_cell_volume   592.15199319
_cell_formula_units_Z   2
loop_
 _symmetry_equiv_pos_site_id
 _symmetry_equiv_pos_as_xyz
  1  'x, y, z'
loop_
 _atom_site_type_symbol
 _atom_site_label
 _atom_site_symmetry_multiplicity
 _atom_site_fract_x
 _atom_site_fract_y
 _atom_site_fract_z
 _atom_site_occupancy
  Ni  Ni0  1  0.00080661  0.99826379  -0.00074118  1
  Cr  Cr1  1  0.16587903  0.16445080  0.16809187  1
  Ni  Ni2  1  0.99883724  0.99870025  0.33156418  1
  Cr  Cr3  1  0.99787392  0.33361874  0.99609491  1
  Cr  Cr4  1  0.17056635  0.49863087  0.16686561  1
  Ni  Ni5  1  0.99807172  0.33279876  0.33433374  1
  Cr  Cr6  1  0.00010673  0.66666924  0.00021516  1
  Ni  Ni7  1  0.16609682  0.83286074  0.16428632  1
  Cr  Cr8  1  0.99845215  0.66644225  0.33001995  1
  Ni  Ni9  1  0.33235328  0.99788210  0.99800652  1
  Fe  Fe10  1  0.49756616  0.16713348  0.16540559  1
  Cr  Cr11  1  0.33292146  0.99851293  0.33459808  1
  Fe  Fe12  1  0.33367184  0.33179197  0.99847527  1
  Fe  Fe13  1  0.49977794  0.49801214  0.16565655  1
  Ni  Ni14  1  0.33510028  0.33278634  0.33361651  1
  Ni  Ni15  1  0.33307849  0.66697793  0.99808845  1
  Cr  Cr16  1  0.49745345  0.82956974  0.16455592  1
  Ni  Ni17  1  0.33380712  0.66410291  0.33231709  1
  Cr  Cr18  1  0.66413699  -0.00012557  0.99707838  1
  Cr  Cr19  1  0.83216213  0.16560457  0.16619725  1
  Cr  Cr20  1  0.66484346  -0.00075236  0.33548341  1
  Fe  Fe21  1  0.66327835  0.33294908  -0.00046584  1
  Fe  Fe22  1  0.83081303  0.49948097  0.16607013  1
  Ni  Ni23  1  0.66402903  0.33395792  0.33072394  1
  Ni  Ni24  1  0.66397437  0.66444826  0.00032720  1
  Ni  Ni25  1  0.83264490  0.83316120  0.16500937  1
  Cr  Cr26  1  0.66617355  0.66469798  0.33441071  1
  Ni  Ni27  1  0.16571745  0.16797816  0.49813798  1
  Ni  Ni28  1  0.99802603  0.99855672  0.66627428  1
  Cr  Cr29  1  0.16452967  0.16579159  0.83101890  1
  Cr  Cr30  1  0.16737111  0.49664205  0.50062251  1
  Ni  Ni31  1  -0.00022109  0.33365657  0.66570301  1
  Ni  Ni32  1  0.16796516  0.50073174  0.83015159  1
  Cr  Cr33  1  0.16481341  0.83291920  0.49838360  1
  Ni  Ni34  1  0.00006277  0.66507236  0.66632389  1
  Ni  Ni35  1  0.16764079  0.83087155  0.83426336  1
  Ni  Ni36  1  0.49846429  0.16846612  0.49779769  1
  Cr  Cr37  1  0.33596493  0.00000741  0.66534803  1
  Ni  Ni38  1  0.49950809  0.16556819  0.83449351  1
  Ni  Ni39  1  0.49854649  0.49926621  0.49779147  1
  Ni  Ni40  1  0.33247414  0.33334179  0.66541373  1
  Cr  Cr41  1  0.49656791  0.50173172  0.83329999  1
  Ni  Ni42  1  0.50086074  0.82957430  0.50173976  1
  Ni  Ni43  1  0.33229853  0.66556785  0.66675621  1
  Ni  Ni44  1  0.49764028  0.83212202  0.83205516  1
  Cr  Cr45  1  0.83568858  0.16489481  0.49958156  1
  Ni  Ni46  1  0.66457211  0.99852025  0.66578279  1
  Ni  Ni47  1  0.83153132  0.16468445  0.83151610  1
  Ni  Ni48  1  0.83102388  0.49910296  0.49882089  1
  Cr  Cr49  1  0.66394847  0.32975218  0.66522092  1
  Cr  Cr50  1  0.83198204  0.49902596  0.83083042  1
  Ni  Ni51  1  0.83135692  0.83188207  0.50152830  1
  Fe  Fe52  1  0.66485794  0.66641392  0.66350275  1
  Cr  Cr53  1  0.83116396  0.83406314  0.83018879  1
" 