6483,Ni52Fe35Cr11_19,-236.864826755355, 208.037340737529,Ni52Fe35Cr11,"# generated using pymatgen
 data_Cr7Fe19Ni28
_symmetry_space_group_name_H-M   'P 1'
_cell_length_a   7.42846929
_cell_length_b   7.42846929
_cell_length_c   10.50544202
_cell_angle_alpha   90.00000000
_cell_angle_beta   90.00000000
_cell_angle_gamma   90.00000000
_symmetry_Int_Tables_number   1
_chemical_formula_structural   Cr7Fe19Ni28
_chemical_formula_sum   'Cr7 Fe19 Ni28'
_cell_volume   579.71294000
_cell_formula_units_Z   1
loop_
 _symmetry_equiv_pos_site_id
 _symmetry_equiv_pos_as_xyz
  1  'x, y, z'
loop_
 _atom_site_type_symbol
 _atom_site_label
 _atom_site_symmetry_multiplicity
 _atom_site_fract_x
 _atom_site_fract_y
 _atom_site_fract_z
 _atom_site_occupancy
  Ni  Ni0  1  0.00449609  0.00317671  0.00279260  1
  Ni  Ni1  1  0.16815356  0.16726958  0.16887629  1
  Ni  Ni2  1  0.00457258  0.00446469  0.33566525  1
  Ni  Ni3  1  1.00229869  0.33447402  1.00155220  1
  Cr  Cr4  1  0.17008602  0.50071306  0.16931775  1
  Ni  Ni5  1  0.00261956  0.33337700  0.33800601  1
  Fe  Fe6  1  1.00102150  0.67272611  1.00133471  1
  Ni  Ni7  1  0.17043330  0.84023330  0.16770594  1
  Cr  Cr8  1  1.00152049  0.67027832  0.33617625  1
  Ni  Ni9  1  0.33565430  1.00255930  0.00287101  1
  Fe  Fe10  1  0.50278066  0.16611067  0.16936097  1
  Ni  Ni11  1  0.33568984  0.00273070  0.33479753  1
  Fe  Fe12  1  0.33557957  0.33186412  0.00264291  1
  Cr  Cr13  1  0.50321863  0.50361393  0.16901270  1
  Fe  Fe14  1  0.33598525  0.33351085  0.33769634  1
  Fe  Fe15  1  0.33615479  0.67374549  0.00284501  1
  Ni  Ni16  1  0.50283657  0.83736089  0.16937978  1
  Fe  Fe17  1  0.33815768  0.67181892  0.33757299  1
  Ni  Ni18  1  0.66763865  1.00141590  1.00221148  1
  Ni  Ni19  1  0.83742874  0.16706275  0.16964101  1
  Ni  Ni20  1  0.66752662  1.00239785  0.33601736  1
  Fe  Fe21  1  0.67088931  0.33282638  1.00168290  1
  Cr  Cr22  1  0.83448942  0.50152747  0.16771300  1
  Ni  Ni23  1  0.66943511  0.33548123  0.33673273  1
  Ni  Ni24  1  0.67007361  0.67098800  1.00163133  1
  Ni  Ni25  1  0.83452010  0.83981674  0.16849785  1
  Ni  Ni26  1  0.66770098  0.66990446  0.33786094  1
  Ni  Ni27  1  0.16802239  0.17009529  0.50152857  1
  Fe  Fe28  1  1.00034967  1.00161019  0.66878271  1
  Fe  Fe29  1  0.16813653  0.16813317  0.83738741  1
  Fe  Fe30  1  0.16961148  0.50282989  0.50351034  1
  Fe  Fe31  1  1.00097626  0.33631268  0.66847314  1
  Cr  Cr32  1  0.16802820  0.50170872  0.83571414  1
  Ni  Ni33  1  0.16941172  0.83748650  0.50299037  1
  Ni  Ni34  1  1.00094441  0.66901194  0.66943252  1
  Fe  Fe35  1  0.16807161  0.83615683  0.83678984  1
  Fe  Fe36  1  0.50366550  0.16965920  0.50164049  1
  Cr  Cr37  1  0.33604667  1.00216190  0.67005584  1
  Fe  Fe38  1  0.50426198  0.16808488  0.83679034  1
  Ni  Ni39  1  0.50321210  0.50299848  0.50293277  1
  Fe  Fe40  1  0.33641884  0.33686287  0.66744655  1
  Cr  Cr41  1  0.50437305  0.50357147  0.83630944  1
  Ni  Ni42  1  0.50366024  0.83384560  0.50170115  1
  Fe  Fe43  1  0.33681407  0.66916486  0.66736762  1
  Ni  Ni44  1  0.50437670  0.83686121  0.83670895  1
  Fe  Fe45  1  0.83571161  0.16913476  0.50137803  1
  Fe  Fe46  1  0.67108891  1.00121380  0.66952655  1
  Fe  Fe47  1  0.83539334  0.16927148  0.83694508  1
  Ni  Ni48  1  0.83387137  0.50161154  0.50381910  1
  Ni  Ni49  1  0.67016838  0.33723879  0.66932382  1
  Ni  Ni50  1  0.83575669  0.50248567  0.83648284  1
  Ni  Ni51  1  0.83472095  0.83653095  0.50335547  1
  Ni  Ni52  1  0.67121313  0.66820268  0.66829955  1
  Ni  Ni53  1  0.83495185  0.83652546  0.83593181  1
" 