6598,Ni53Fe44Cr1_10,-241.565882262735, 220.922536768999,Ni53Fe44Cr1,"# generated using pymatgen
 data_CrFe24Ni29
_symmetry_space_group_name_H-M   'P 1'
_cell_length_a   7.40709996
_cell_length_b   7.40709996
_cell_length_c   10.47522122
_cell_angle_alpha   90.00000000
_cell_angle_beta   90.00000000
_cell_angle_gamma   90.00000000
_symmetry_Int_Tables_number   1
_chemical_formula_structural   CrFe24Ni29
_chemical_formula_sum   'Cr1 Fe24 Ni29'
_cell_volume   574.72437212
_cell_formula_units_Z   1
loop_
 _symmetry_equiv_pos_site_id
 _symmetry_equiv_pos_as_xyz
  1  'x, y, z'
loop_
 _atom_site_type_symbol
 _atom_site_label
 _atom_site_symmetry_multiplicity
 _atom_site_fract_x
 _atom_site_fract_y
 _atom_site_fract_z
 _atom_site_occupancy
  Ni  Ni0  1  1.00348176  0.00409503  0.00445190  1
  Fe  Fe1  1  0.17043585  0.17064882  0.17077866  1
  Ni  Ni2  1  0.00435536  0.00420988  0.33595342  1
  Ni  Ni3  1  1.00347919  0.33636158  0.00487851  1
  Ni  Ni4  1  0.17149138  0.50474059  0.17058150  1
  Fe  Fe5  1  1.00339794  0.33710496  0.33726478  1
  Ni  Ni6  1  1.00380573  0.67168285  0.00457337  1
  Ni  Ni7  1  0.17059093  0.83713613  0.17074528  1
  Fe  Fe8  1  0.00468754  0.66930452  0.33611152  1
  Fe  Fe9  1  0.33678575  1.00290898  0.00466755  1
  Ni  Ni10  1  0.50392752  0.17091814  0.17069504  1
  Fe  Fe11  1  0.33768808  0.00467537  0.33685565  1
  Fe  Fe12  1  0.33686389  0.33859233  0.00446103  1
  Ni  Ni13  1  0.50284904  0.50365865  0.17059820  1
  Ni  Ni14  1  0.33927634  0.33789120  0.33694667  1
  Ni  Ni15  1  0.33856029  0.67072139  0.00498036  1
  Ni  Ni16  1  0.50309511  0.83756530  0.17091461  1
  Fe  Fe17  1  0.33758642  0.67025497  0.33692200  1
  Fe  Fe18  1  0.67186028  1.00311876  0.00439618  1
  Ni  Ni19  1  0.83736969  0.17001666  0.17093213  1
  Fe  Fe20  1  0.66997317  0.00596557  0.33604413  1
  Fe  Fe21  1  0.67178401  0.33838470  0.00418811  1
  Ni  Ni22  1  0.83780026  0.50390658  0.17082896  1
  Ni  Ni23  1  0.66966755  0.33756397  0.33699867  1
  Ni  Ni24  1  0.66977348  0.67072250  0.00445458  1
  Ni  Ni25  1  0.83845254  0.83821508  0.17034554  1
  Fe  Fe26  1  0.66986606  0.66917060  0.33586668  1
  Fe  Fe27  1  0.16997304  0.17149459  0.50432145  1
  Ni  Ni28  1  1.00400521  0.00449292  0.67173419  1
  Fe  Fe29  1  0.16929870  0.17130893  0.83703796  1
  Fe  Fe30  1  0.17041744  0.50364829  0.50428488  1
  Ni  Ni31  1  1.00284785  0.33653650  0.66943692  1
  Fe  Fe32  1  0.16974310  0.50418410  0.83755696  1
  Fe  Fe33  1  0.17141106  0.83699786  0.50407636  1
  Ni  Ni34  1  0.00508668  0.67110912  0.67185801  1
  Fe  Fe35  1  0.16948163  0.83664821  0.83760330  1
  Fe  Fe36  1  0.50503843  0.17221586  0.50353202  1
  Fe  Fe37  1  0.33651415  0.00440302  0.67061703  1
  Fe  Fe38  1  0.50529539  0.17147819  0.83728562  1
  Ni  Ni39  1  0.50298703  0.50342792  0.50429978  1
  Ni  Ni40  1  0.33888973  0.33827622  0.67073389  1
  Ni  Ni41  1  0.50313764  0.50393561  0.83724068  1
  Fe  Fe42  1  0.50311810  0.83675652  0.50387034  1
  Ni  Ni43  1  0.33781437  0.67053295  0.67006854  1
  Fe  Fe44  1  0.50518307  0.83640941  0.83793857  1
  Ni  Ni45  1  0.83812305  0.17209028  0.50484681  1
  Fe  Fe46  1  0.67082933  0.00544803  0.67170169  1
  Ni  Ni47  1  0.83830566  0.16991903  0.83635781  1
  Ni  Ni48  1  0.83702682  0.50173924  0.50494157  1
  Ni  Ni49  1  0.67040065  0.33719272  0.67045626  1
  Ni  Ni50  1  0.83721313  0.50416541  0.83636844  1
  Cr  Cr51  1  0.83840251  0.83800568  0.50464857  1
  Fe  Fe52  1  0.67045108  0.66851223  0.67208378  1
  Ni  Ni53  1  0.83861825  0.83805427  0.83718179  1
" 