235,Ni53Fe17Cr28_9,-229.226148803741, 176.797350846888,Ni53Fe17Cr28,"# generated using pymatgen
 data_Cr16Fe9Ni29
_symmetry_space_group_name_H-M   'P 1'
_cell_length_a   7.46665481
_cell_length_b   7.46665481
_cell_length_c   10.55944450
_cell_angle_alpha   90.00000000
_cell_angle_beta   90.00000000
_cell_angle_gamma   90.00000000
_symmetry_Int_Tables_number   1
_chemical_formula_structural   Cr16Fe9Ni29
_chemical_formula_sum   'Cr16 Fe9 Ni29'
_cell_volume   588.69889356
_cell_formula_units_Z   1
loop_
 _symmetry_equiv_pos_site_id
 _symmetry_equiv_pos_as_xyz
  1  'x, y, z'
loop_
 _atom_site_type_symbol
 _atom_site_label
 _atom_site_symmetry_multiplicity
 _atom_site_fract_x
 _atom_site_fract_y
 _atom_site_fract_z
 _atom_site_occupancy
  Ni  Ni0  1  0.99974879  0.99964661  0.00290696  1
  Fe  Fe1  1  0.16593429  0.16575328  0.16673793  1
  Ni  Ni2  1  0.99677687  0.99888166  0.33166489  1
  Cr  Cr3  1  0.99915568  0.33215409  0.00144146  1
  Ni  Ni4  1  0.16880985  0.50159751  0.16715014  1
  Cr  Cr5  1  0.99955654  0.33223945  0.33166651  1
  Cr  Cr6  1  0.99994038  0.66750128  0.00087354  1
  Fe  Fe7  1  0.16814131  0.83352855  0.16625650  1
  Cr  Cr8  1  0.00189445  0.66920956  0.33392956  1
  Ni  Ni9  1  0.33248967  0.99695469  0.00037456  1
  Cr  Cr10  1  0.50001722  0.16629001  0.16842924  1
  Cr  Cr11  1  0.33327736  0.99805527  0.33467034  1
  Cr  Cr12  1  0.33421689  0.33590674  0.00052571  1
  Ni  Ni13  1  0.50003913  0.50434125  0.16864934  1
  Ni  Ni14  1  0.33656210  0.33739382  0.33376187  1
  Ni  Ni15  1  0.33559896  0.66743549  0.00123003  1
  Ni  Ni16  1  0.49890771  0.82989773  0.16521126  1
  Ni  Ni17  1  0.33481560  0.66483050  0.33330028  1
  Cr  Cr18  1  0.66779861  0.99885681  0.99773948  1
  Ni  Ni19  1  0.83564925  0.16513555  0.16807044  1
  Fe  Fe20  1  0.66804305  0.00014316  0.33476629  1
  Cr  Cr21  1  0.66667209  0.33495947  0.99978238  1
  Ni  Ni22  1  0.83116727  0.50006199  0.16655289  1
  Ni  Ni23  1  0.66491365  0.33293305  0.33303015  1
  Ni  Ni24  1  0.66395581  0.66768192  0.00115967  1
  Fe  Fe25  1  0.83172908  0.83311541  0.16642834  1
  Fe  Fe26  1  0.66341798  0.66656955  0.33233344  1
  Cr  Cr27  1  0.16765767  0.16706325  0.50040285  1
  Cr  Cr28  1  0.99734384  0.99769538  0.66504040  1
  Cr  Cr29  1  0.16740235  0.16627869  0.83352975  1
  Ni  Ni30  1  0.16899417  0.50173888  0.50179812  1
  Fe  Fe31  1  0.99978091  0.33451830  0.66682543  1
  Ni  Ni32  1  0.16890803  0.50014173  0.83107830  1
  Ni  Ni33  1  0.16763429  0.83226537  0.49961766  1
  Ni  Ni34  1  0.99949653  0.66629473  0.66577678  1
  Cr  Cr35  1  0.16792208  0.83331425  0.83494207  1
  Ni  Ni36  1  0.50265100  0.16672231  0.50170101  1
  Ni  Ni37  1  0.33752632  0.00142457  0.66613014  1
  Fe  Fe38  1  0.50066489  0.16652241  0.83013993  1
  Ni  Ni39  1  0.49951268  0.49979767  0.49781269  1
  Ni  Ni40  1  0.33628869  0.33397574  0.66603704  1
  Ni  Ni41  1  0.49983973  0.50151597  0.83359682  1
  Ni  Ni42  1  0.50057372  0.83364545  0.50069922  1
  Cr  Cr43  1  0.33287546  0.66554007  0.66515772  1
  Fe  Fe44  1  0.50188949  0.83249851  0.83330523  1
  Ni  Ni45  1  0.82990338  0.16505101  0.49970437  1
  Ni  Ni46  1  0.66586583  0.00120156  0.66621515  1
  Ni  Ni47  1  0.83207145  0.16457864  0.83198885  1
  Cr  Cr48  1  0.83142742  0.49930866  0.50262081  1
  Ni  Ni49  1  0.66425825  0.33120698  0.66695309  1
  Cr  Cr50  1  0.83200062  0.50124874  0.83097873  1
  Fe  Fe51  1  0.83159370  0.83450943  0.50117179  1
  Ni  Ni52  1  0.66719967  0.66779519  0.66685935  1
  Ni  Ni53  1  0.83090863  0.83449249  0.83269394  1
" 