1717,Ni53Fe32Cr14_2,-235.165930856688, 201.361150455905,Ni53Fe32Cr14,"# generated using pymatgen
 data_Cr9Fe17Ni28
_symmetry_space_group_name_H-M   'P 1'
_cell_length_a   7.44097835
_cell_length_b   7.44097835
_cell_length_c   10.52313249
_cell_angle_alpha   90.00000000
_cell_angle_beta   90.00000000
_cell_angle_gamma   90.00000000
_symmetry_Int_Tables_number   1
_chemical_formula_structural   Cr9Fe17Ni28
_chemical_formula_sum   'Cr9 Fe17 Ni28'
_cell_volume   582.64647035
_cell_formula_units_Z   1
loop_
 _symmetry_equiv_pos_site_id
 _symmetry_equiv_pos_as_xyz
  1  'x, y, z'
loop_
 _atom_site_type_symbol
 _atom_site_label
 _atom_site_symmetry_multiplicity
 _atom_site_fract_x
 _atom_site_fract_y
 _atom_site_fract_z
 _atom_site_occupancy
  Ni  Ni0  1  1.00116335  0.00494191  1.00167129  1
  Fe  Fe1  1  0.16869945  0.16850878  0.16824737  1
  Fe  Fe2  1  0.00347667  0.00352563  0.33474651  1
  Ni  Ni3  1  0.00257661  0.33234618  1.00116065  1
  Ni  Ni4  1  0.16936225  0.50039407  0.16802255  1
  Ni  Ni5  1  1.00148433  0.33415449  0.33566688  1
  Cr  Cr6  1  0.00306482  0.66774037  1.00052351  1
  Ni  Ni7  1  0.16969500  0.83592591  0.16855164  1
  Fe  Fe8  1  0.00303337  0.66609472  0.33561786  1
  Ni  Ni9  1  0.33526769  0.00241727  0.00308635  1
  Ni  Ni10  1  0.50112711  0.16810028  0.16828286  1
  Ni  Ni11  1  0.33494981  0.00218784  0.33603947  1
  Ni  Ni12  1  0.33472466  0.33574300  0.00194649  1
  Fe  Fe13  1  0.50060195  0.50111158  0.16737196  1
  Ni  Ni14  1  0.33435328  0.33364068  0.33528081  1
  Ni  Ni15  1  0.33709830  0.66709426  0.00416805  1
  Fe  Fe16  1  0.50015771  0.83546207  0.16759836  1
  Cr  Cr17  1  0.33595355  0.66884321  0.33449546  1
  Ni  Ni18  1  0.66882438  0.00257194  0.00230242  1
  Fe  Fe19  1  0.83576147  0.16894937  0.16788916  1
  Fe  Fe20  1  0.66546671  0.00433662  0.33508008  1
  Ni  Ni21  1  0.66795460  0.33417686  1.00039834  1
  Cr  Cr22  1  0.83574790  0.50031791  0.16929859  1
  Ni  Ni23  1  0.66941936  0.33490530  0.33697323  1
  Ni  Ni24  1  0.66542515  0.66850656  1.00058383  1
  Cr  Cr25  1  0.83449672  0.83607522  0.16859926  1
  Ni  Ni26  1  0.66761584  0.66770783  0.33620391  1
  Fe  Fe27  1  0.16896339  0.16889881  0.50216437  1
  Ni  Ni28  1  0.00302789  0.00391758  0.66856419  1
  Fe  Fe29  1  0.16849547  0.16959923  0.83484356  1
  Ni  Ni30  1  0.16536603  0.49949938  0.50146563  1
  Ni  Ni31  1  0.00228367  0.33472163  0.66842960  1
  Ni  Ni32  1  0.16722397  0.49807557  0.83576492  1
  Fe  Fe33  1  0.16926805  0.83696772  0.50166318  1
  Fe  Fe34  1  1.00071312  0.66668392  0.66853723  1
  Cr  Cr35  1  0.16635591  0.83594896  0.83437167  1
  Ni  Ni36  1  0.49984797  0.16821674  0.50141535  1
  Ni  Ni37  1  0.33316376  0.00434424  0.66613026  1
  Ni  Ni38  1  0.50103506  0.17065111  0.83555815  1
  Fe  Fe39  1  0.50384440  0.50051145  0.50149478  1
  Ni  Ni40  1  0.33357348  0.33396408  0.66802762  1
  Fe  Fe41  1  0.50235136  0.49999106  0.83638768  1
  Ni  Ni42  1  0.50159654  0.83823431  0.50055631  1
  Cr  Cr43  1  0.33647462  0.66737670  0.66639056  1
  Cr  Cr44  1  0.50376741  0.83750559  0.83792505  1
  Fe  Fe45  1  0.83599041  0.17161799  0.50096348  1
  Cr  Cr46  1  0.66845453  0.00180684  0.66839336  1
  Fe  Fe47  1  0.83650542  0.16862816  0.83640577  1
  Ni  Ni48  1  0.83664066  0.50123997  0.50220827  1
  Fe  Fe49  1  0.66796185  0.33575288  0.66808867  1
  Fe  Fe50  1  0.83398126  0.50130169  0.83419747  1
  Cr  Cr51  1  0.83535676  0.83258852  0.50114747  1
  Ni  Ni52  1  0.66982136  0.66620602  0.66847224  1
  Ni  Ni53  1  0.83502736  0.83456375  0.83522003  1
" 