5070,Ni53Fe17Cr28_4,-229.43013722676, 177.67386579415,Ni53Fe17Cr28,"# generated using pymatgen
 data_Cr16Fe9Ni29
_symmetry_space_group_name_H-M   'P 1'
_cell_length_a   7.46247488
_cell_length_b   7.46247488
_cell_length_c   10.55353319
_cell_angle_alpha   90.00000000
_cell_angle_beta   90.00000000
_cell_angle_gamma   90.00000000
_symmetry_Int_Tables_number   1
_chemical_formula_structural   Cr16Fe9Ni29
_chemical_formula_sum   'Cr16 Fe9 Ni29'
_cell_volume   587.71076421
_cell_formula_units_Z   1
loop_
 _symmetry_equiv_pos_site_id
 _symmetry_equiv_pos_as_xyz
  1  'x, y, z'
loop_
 _atom_site_type_symbol
 _atom_site_label
 _atom_site_symmetry_multiplicity
 _atom_site_fract_x
 _atom_site_fract_y
 _atom_site_fract_z
 _atom_site_occupancy
  Fe  Fe0  1  0.99986026  0.99978453  0.99935596  1
  Cr  Cr1  1  0.16493154  0.16567767  0.16618843  1
  Ni  Ni2  1  0.99777825  0.00238647  0.33619678  1
  Ni  Ni3  1  0.00270554  0.33490264  0.00081023  1
  Fe  Fe4  1  0.16651746  0.49899923  0.16624101  1
  Ni  Ni5  1  0.99863858  0.33135839  0.33430487  1
  Ni  Ni6  1  0.99893698  0.66667281  0.99866183  1
  Cr  Cr7  1  0.16849250  0.83576138  0.16935457  1
  Cr  Cr8  1  0.99920352  0.66671660  0.33437841  1
  Ni  Ni9  1  0.33642489  0.00364830  0.99918047  1
  Ni  Ni10  1  0.50238454  0.16428002  0.16545527  1
  Ni  Ni11  1  0.33561573  0.00049784  0.33478640  1
  Ni  Ni12  1  0.33222057  0.33028310  0.99887100  1
  Cr  Cr13  1  0.50217751  0.50170904  0.16721360  1
  Cr  Cr14  1  0.33268896  0.33255932  0.33257780  1
  Cr  Cr15  1  0.33159155  0.66666403  0.00058387  1
  Ni  Ni16  1  0.50126512  0.83554783  0.16809798  1
  Ni  Ni17  1  0.33600354  0.66803229  0.33451930  1
  Ni  Ni18  1  0.66618351  1.00027468  0.00210490  1
  Ni  Ni19  1  0.83296146  0.16708369  0.16752641  1
  Ni  Ni20  1  0.66741887  1.00000131  0.33203222  1
  Ni  Ni21  1  0.66600132  0.32997797  0.00055772  1
  Cr  Cr22  1  0.83344612  0.49813957  0.16597894  1
  Fe  Fe23  1  0.66816413  0.33159567  0.33440727  1
  Ni  Ni24  1  0.67034551  0.67084778  0.00145415  1
  Fe  Fe25  1  0.83072911  0.83685154  0.16653389  1
  Ni  Ni26  1  0.66648743  0.66936870  0.33412705  1
  Ni  Ni27  1  0.16616699  0.16291132  0.50006351  1
  Ni  Ni28  1  0.00261994  0.99746491  0.66627363  1
  Ni  Ni29  1  0.16902933  0.16450853  0.83468434  1
  Cr  Cr30  1  0.16787619  0.50144676  0.49995916  1
  Cr  Cr31  1  0.00250671  0.33330337  0.66569541  1
  Fe  Fe32  1  0.16659931  0.49988744  0.83371561  1
  Ni  Ni33  1  0.16585255  0.83810878  0.50158842  1
  Ni  Ni34  1  0.00055705  0.66970531  0.66722905  1
  Ni  Ni35  1  0.16449638  0.83623099  0.83107689  1
  Fe  Fe36  1  0.49923711  0.16770613  0.50043059  1
  Ni  Ni37  1  0.33098840  0.00434712  0.66692356  1
  Ni  Ni38  1  0.49675142  0.16824690  0.83469005  1
  Ni  Ni39  1  0.50355270  0.49862662  0.50045194  1
  Ni  Ni40  1  0.33450179  0.33100211  0.66797412  1
  Cr  Cr41  1  0.50122234  0.49745858  0.83280787  1
  Cr  Cr42  1  0.49657620  0.83247370  0.49805136  1
  Fe  Fe43  1  0.32991959  0.66781689  0.66624339  1
  Cr  Cr44  1  0.49868613  0.83554384  0.83496466  1
  Fe  Fe45  1  0.83484062  0.16609422  0.49792529  1
  Cr  Cr46  1  0.66789883  0.00105076  0.66717814  1
  Cr  Cr47  1  0.83444008  0.16653818  0.83565150  1
  Ni  Ni48  1  0.82993548  0.49887405  0.49948908  1
  Fe  Fe49  1  0.66509849  0.33199954  0.66524310  1
  Cr  Cr50  1  0.83310011  0.50089734  0.83497765  1
  Ni  Ni51  1  0.83614728  0.83372949  0.49911672  1
  Cr  Cr52  1  0.67051248  0.66779783  0.66611612  1
  Ni  Ni53  1  0.83825660  0.83315148  0.83652309  1
" 