5749,Ni53Fe17Cr28_6,-229.265598498208, 179.6760192459,Ni53Fe17Cr28,"# generated using pymatgen
 data_Cr16Fe9Ni29
_symmetry_space_group_name_H-M   'P 1'
_cell_length_a   7.46380978
_cell_length_b   7.46380978
_cell_length_c   10.55542101
_cell_angle_alpha   90.00000000
_cell_angle_beta   90.00000000
_cell_angle_gamma   90.00000000
_symmetry_Int_Tables_number   1
_chemical_formula_structural   Cr16Fe9Ni29
_chemical_formula_sum   'Cr16 Fe9 Ni29'
_cell_volume   588.02621128
_cell_formula_units_Z   1
loop_
 _symmetry_equiv_pos_site_id
 _symmetry_equiv_pos_as_xyz
  1  'x, y, z'
loop_
 _atom_site_type_symbol
 _atom_site_label
 _atom_site_symmetry_multiplicity
 _atom_site_fract_x
 _atom_site_fract_y
 _atom_site_fract_z
 _atom_site_occupancy
  Cr  Cr0  1  0.99892999  0.99794061  0.00169852  1
  Cr  Cr1  1  0.16557187  0.16853239  0.16656740  1
  Cr  Cr2  1  0.00137303  0.99879745  0.33302072  1
  Ni  Ni3  1  0.99968732  0.33675895  0.00159805  1
  Ni  Ni4  1  0.16481990  0.50267867  0.16596868  1
  Ni  Ni5  1  0.99929559  0.33505350  0.33252398  1
  Ni  Ni6  1  0.00101571  0.66555003  1.00004291  1
  Ni  Ni7  1  0.16815105  0.82960533  0.16787818  1
  Ni  Ni8  1  0.00150355  0.66640660  0.33298717  1
  Fe  Fe9  1  0.33536444  0.99801199  0.99982491  1
  Cr  Cr10  1  0.50219842  0.16592203  0.16479414  1
  Fe  Fe11  1  0.33173558  0.99752649  0.33502510  1
  Fe  Fe12  1  0.33495412  0.33711095  0.99921322  1
  Ni  Ni13  1  0.50087888  0.50222578  0.16609868  1
  Cr  Cr14  1  0.33389421  0.33502016  0.33503902  1
  Ni  Ni15  1  0.33340384  0.66524352  0.00161701  1
  Ni  Ni16  1  0.49952916  0.83204201  0.16541991  1
  Ni  Ni17  1  0.33236851  0.66717265  0.33175739  1
  Ni  Ni18  1  0.66635719  0.99985031  0.00057501  1
  Fe  Fe19  1  0.83293258  0.16944424  0.16568205  1
  Cr  Cr20  1  0.66744566  0.99996653  0.33247621  1
  Ni  Ni21  1  0.66605274  0.33460940  0.00088364  1
  Ni  Ni22  1  0.83495333  0.49974350  0.16662494  1
  Fe  Fe23  1  0.66840897  0.33598010  0.33306149  1
  Ni  Ni24  1  0.66623187  0.66619256  0.00143100  1
  Ni  Ni25  1  0.83297062  0.83119176  0.16539249  1
  Cr  Cr26  1  0.66672639  0.66549214  0.33251608  1
  Ni  Ni27  1  0.16749056  0.16554061  0.50146960  1
  Ni  Ni28  1  0.00119460  0.99816127  0.66541556  1
  Cr  Cr29  1  0.16790084  0.16806194  0.83264693  1
  Cr  Cr30  1  0.16479784  0.50174788  0.49992267  1
  Ni  Ni31  1  0.00114108  0.33327267  0.66652766  1
  Ni  Ni32  1  0.16626797  0.50233914  0.83471650  1
  Ni  Ni33  1  0.16635223  0.83382622  0.50105496  1
  Fe  Fe34  1  0.00160163  0.66922842  0.66775240  1
  Ni  Ni35  1  0.16585853  0.82994425  0.83171512  1
  Ni  Ni36  1  0.49944859  0.16640922  0.50105257  1
  Ni  Ni37  1  0.33174149  0.99967534  0.66500990  1
  Ni  Ni38  1  0.50127695  0.16722513  0.83436132  1
  Fe  Fe39  1  0.49996806  0.49999060  0.49957751  1
  Cr  Cr40  1  0.33371942  0.33360289  0.66784917  1
  Ni  Ni41  1  0.49878890  0.49927354  0.83552006  1
  Cr  Cr42  1  0.49815856  0.83474910  0.50087434  1
  Ni  Ni43  1  0.33147899  0.66781598  0.66727735  1
  Cr  Cr44  1  0.50050630  0.83471638  0.83458680  1
  Cr  Cr45  1  0.83405042  0.16780031  0.50039143  1
  Ni  Ni46  1  0.66771469  0.99988074  0.66722743  1
  Cr  Cr47  1  0.83156942  0.16635702  0.83398168  1
  Fe  Fe48  1  0.83538441  0.50057835  0.49869046  1
  Cr  Cr49  1  0.66550367  0.33368755  0.66589712  1
  Fe  Fe50  1  0.83515662  0.50152922  0.83610077  1
  Ni  Ni51  1  0.83593597  0.83257985  0.50252878  1
  Cr  Cr52  1  0.66749805  0.66721866  0.66711743  1
  Ni  Ni53  1  0.83445242  0.83243080  0.83272926  1
" 