2910,Ni53Fe32Cr14_15,-234.911592702711, 203.224586414471,Ni53Fe32Cr14,"# generated using pymatgen
 data_Cr9Fe17Ni28
_symmetry_space_group_name_H-M   'P 1'
_cell_length_a   7.43257270
_cell_length_b   7.43257270
_cell_length_c   10.51124511
_cell_angle_alpha   90.00000000
_cell_angle_beta   90.00000000
_cell_angle_gamma   90.00000000
_symmetry_Int_Tables_number   1
_chemical_formula_structural   Cr9Fe17Ni28
_chemical_formula_sum   'Cr9 Fe17 Ni28'
_cell_volume   580.67415314
_cell_formula_units_Z   1
loop_
 _symmetry_equiv_pos_site_id
 _symmetry_equiv_pos_as_xyz
  1  'x, y, z'
loop_
 _atom_site_type_symbol
 _atom_site_label
 _atom_site_symmetry_multiplicity
 _atom_site_fract_x
 _atom_site_fract_y
 _atom_site_fract_z
 _atom_site_occupancy
  Cr  Cr0  1  1.00181300  1.00195478  1.00116673  1
  Ni  Ni1  1  0.17072500  0.16808806  0.16877042  1
  Fe  Fe2  1  0.00336492  1.00070201  0.33673338  1
  Ni  Ni3  1  0.00427656  0.33733294  1.00115244  1
  Fe  Fe4  1  0.16769929  0.50376011  0.16743336  1
  Fe  Fe5  1  0.00253939  0.33451789  0.33579440  1
  Ni  Ni6  1  1.00230832  0.66743973  0.00286061  1
  Ni  Ni7  1  0.17088965  0.83526889  0.17092722  1
  Ni  Ni8  1  1.00229214  0.67221806  0.33397891  1
  Fe  Fe9  1  0.33654967  0.00328051  0.00289212  1
  Fe  Fe10  1  0.50121636  0.16652715  0.16817096  1
  Ni  Ni11  1  0.33456047  1.00179762  0.33378433  1
  Ni  Ni12  1  0.33510075  0.33523282  1.00133327  1
  Cr  Cr13  1  0.50226141  0.50372726  0.16882420  1
  Cr  Cr14  1  0.33636908  0.33398968  0.33632555  1
  Ni  Ni15  1  0.33560408  0.66807915  0.00305367  1
  Fe  Fe16  1  0.50172418  0.83700698  0.16909373  1
  Ni  Ni17  1  0.33458010  0.67149069  0.33488187  1
  Fe  Fe18  1  0.66705244  1.00155075  1.00079092  1
  Cr  Cr19  1  0.83558950  0.16996200  0.17029900  1
  Fe  Fe20  1  0.66907534  1.00132492  0.33612962  1
  Fe  Fe21  1  0.66866465  0.33553681  0.99981661  1
  Cr  Cr22  1  0.83684662  0.50297749  0.16955716  1
  Ni  Ni23  1  0.66859553  0.33445294  0.33727320  1
  Fe  Fe24  1  0.66935597  0.66987336  1.00133491  1
  Ni  Ni25  1  0.83514343  0.83426745  0.16991221  1
  Ni  Ni26  1  0.67008537  0.66992763  0.33570138  1
  Ni  Ni27  1  0.16797444  0.16647570  0.50340934  1
  Ni  Ni28  1  1.00168363  0.00249487  0.66727515  1
  Ni  Ni29  1  0.16964895  0.17173147  0.83477332  1
  Cr  Cr30  1  0.16928507  0.50338235  0.50228185  1
  Ni  Ni31  1  1.00186324  0.33422850  0.67082298  1
  Ni  Ni32  1  0.16786534  0.50081067  0.83702145  1
  Ni  Ni33  1  0.16890134  0.83744447  0.50186490  1
  Ni  Ni34  1  1.00168573  0.67023521  0.67011706  1
  Cr  Cr35  1  0.17092723  0.83528908  0.83357018  1
  Fe  Fe36  1  0.50326641  0.16891460  0.50349736  1
  Ni  Ni37  1  0.33558247  0.00389877  0.66944951  1
  Ni  Ni38  1  0.50288534  0.16819159  0.83619596  1
  Fe  Fe39  1  0.50350071  0.50163266  0.50201363  1
  Fe  Fe40  1  0.33540389  0.33367255  0.67034354  1
  Fe  Fe41  1  0.50193993  0.50140205  0.83611397  1
  Cr  Cr42  1  0.50132160  0.83514227  0.50160603  1
  Fe  Fe43  1  0.33572740  0.66899189  0.66982251  1
  Ni  Ni44  1  0.50318376  0.83598556  0.83685321  1
  Ni  Ni45  1  0.83562355  0.16852666  0.50189314  1
  Ni  Ni46  1  0.66969360  0.00371787  0.66966924  1
  Ni  Ni47  1  0.83442052  0.17165636  0.83474200  1
  Cr  Cr48  1  0.83400564  0.50137916  0.50102048  1
  Ni  Ni49  1  0.66809566  0.33441550  0.66953090  1
  Ni  Ni50  1  0.83598530  0.50110319  0.83628213  1
  Ni  Ni51  1  0.83644036  0.83713671  0.50235594  1
  Fe  Fe52  1  0.67005706  0.66970876  0.67006700  1
  Fe  Fe53  1  0.83398418  0.83537940  0.83465059  1
" 