4164,Ni53Fe17Cr28_19,-229.456330991168, 181.593031264355,Ni53Fe17Cr28,"# generated using pymatgen
 data_Cr16Fe9Ni29
_symmetry_space_group_name_H-M   'P 1'
_cell_length_a   7.46574604
_cell_length_b   7.46574604
_cell_length_c   10.55815931
_cell_angle_alpha   90.00000000
_cell_angle_beta   90.00000000
_cell_angle_gamma   90.00000000
_symmetry_Int_Tables_number   1
_chemical_formula_structural   Cr16Fe9Ni29
_chemical_formula_sum   'Cr16 Fe9 Ni29'
_cell_volume   588.48396821
_cell_formula_units_Z   1
loop_
 _symmetry_equiv_pos_site_id
 _symmetry_equiv_pos_as_xyz
  1  'x, y, z'
loop_
 _atom_site_type_symbol
 _atom_site_label
 _atom_site_symmetry_multiplicity
 _atom_site_fract_x
 _atom_site_fract_y
 _atom_site_fract_z
 _atom_site_occupancy
  Ni  Ni0  1  0.99981379  0.00267118  0.99931206  1
  Ni  Ni1  1  0.16592534  0.16833100  0.16716585  1
  Ni  Ni2  1  0.00295757  0.99918965  0.33080101  1
  Ni  Ni3  1  0.99851304  0.32897695  0.00079534  1
  Ni  Ni4  1  0.17005590  0.49844917  0.16707131  1
  Fe  Fe5  1  0.00246127  0.33391891  0.33150909  1
  Cr  Cr6  1  0.00214823  0.66932796  0.99877650  1
  Ni  Ni7  1  0.16857989  0.83351502  0.16809693  1
  Ni  Ni8  1  0.00085728  0.66882903  0.33441917  1
  Cr  Cr9  1  0.32996496  1.00004549  0.00180208  1
  Ni  Ni10  1  0.49933792  0.16621824  0.16629332  1
  Ni  Ni11  1  0.33254311  0.99929371  0.33351762  1
  Ni  Ni12  1  0.33598694  0.33356561  0.00095304  1
  Ni  Ni13  1  0.49518536  0.50035528  0.16567621  1
  Ni  Ni14  1  0.33557620  0.33238858  0.33180183  1
  Ni  Ni15  1  0.33450095  0.66555712  0.00272575  1
  Ni  Ni16  1  0.49827057  0.83361247  0.16860902  1
  Ni  Ni17  1  0.33477930  0.66853626  0.33178535  1
  Fe  Fe18  1  0.66810189  0.00354933  0.00061701  1
  Ni  Ni19  1  0.83503576  0.16505653  0.16495173  1
  Fe  Fe20  1  0.66312490  0.99895090  0.33247503  1
  Ni  Ni21  1  0.66586778  0.33206353  0.99890397  1
  Cr  Cr22  1  0.83546668  0.49830102  0.16786225  1
  Cr  Cr23  1  0.66459761  0.33494254  0.33391033  1
  Cr  Cr24  1  0.66429400  0.66326426  0.99986938  1
  Cr  Cr25  1  0.83172544  0.83695999  0.16801977  1
  Ni  Ni26  1  0.66464095  0.66582441  0.33502033  1
  Cr  Cr27  1  0.16943834  0.16840674  0.49957500  1
  Cr  Cr28  1  0.00301985  0.99823502  0.66964612  1
  Fe  Fe29  1  0.16655285  0.16776653  0.83370105  1
  Cr  Cr30  1  0.16566032  0.49898847  0.49948986  1
  Ni  Ni31  1  0.99865923  0.33428070  0.66764377  1
  Cr  Cr32  1  0.16743471  0.49695603  0.83367953  1
  Fe  Fe33  1  0.16885175  0.83320018  0.49767488  1
  Ni  Ni34  1  0.99805764  0.66704926  0.66748083  1
  Fe  Fe35  1  0.16526252  0.83332645  0.83397964  1
  Ni  Ni36  1  0.49747337  0.16391789  0.50174785  1
  Ni  Ni37  1  0.33373790  0.00211009  0.66580831  1
  Fe  Fe38  1  0.50022390  0.16926408  0.83335233  1
  Ni  Ni39  1  0.49895436  0.50075630  0.49916026  1
  Ni  Ni40  1  0.33571721  0.32957483  0.66759575  1
  Ni  Ni41  1  0.49914121  0.49726649  0.83536602  1
  Ni  Ni42  1  0.49951401  0.83551224  0.49852678  1
  Cr  Cr43  1  0.33325161  0.66853012  0.66564881  1
  Cr  Cr44  1  0.50134157  0.83493634  0.83396015  1
  Cr  Cr45  1  0.83353624  0.16679660  0.49853550  1
  Fe  Fe46  1  0.66437317  0.00075670  0.66705973  1
  Fe  Fe47  1  0.83340802  0.16797739  0.83581614  1
  Ni  Ni48  1  0.83538433  0.50194428  0.50061365  1
  Cr  Cr49  1  0.66563199  0.33501568  0.66667343  1
  Ni  Ni50  1  0.83493110  0.49911035  0.83203430  1
  Cr  Cr51  1  0.83175104  0.83192597  0.49831498  1
  Cr  Cr52  1  0.66881509  0.66374664  0.66573870  1
  Ni  Ni53  1  0.83427117  0.83566160  0.83314248  1
" 