3522,Ni53Fe44Cr1_11,-241.740503544453, 225.322484169717,Ni53Fe44Cr1,"# generated using pymatgen
 data_CrFe24Ni29
_symmetry_space_group_name_H-M   'P 1'
_cell_length_a   7.40899156
_cell_length_b   7.40899156
_cell_length_c   10.47789635
_cell_angle_alpha   90.00000000
_cell_angle_beta   90.00000000
_cell_angle_gamma   90.00000000
_symmetry_Int_Tables_number   1
_chemical_formula_structural   CrFe24Ni29
_chemical_formula_sum   'Cr1 Fe24 Ni29'
_cell_volume   575.16479792
_cell_formula_units_Z   1
loop_
 _symmetry_equiv_pos_site_id
 _symmetry_equiv_pos_as_xyz
  1  'x, y, z'
loop_
 _atom_site_type_symbol
 _atom_site_label
 _atom_site_symmetry_multiplicity
 _atom_site_fract_x
 _atom_site_fract_y
 _atom_site_fract_z
 _atom_site_occupancy
  Ni  Ni0  1  0.00566295  0.00417525  0.00499150  1
  Fe  Fe1  1  0.16854236  0.17037820  0.17063018  1
  Fe  Fe2  1  0.00402816  1.00383505  0.33749139  1
  Ni  Ni3  1  1.00262282  0.33668597  1.00364023  1
  Ni  Ni4  1  0.16908444  0.50484995  0.17058892  1
  Ni  Ni5  1  1.00253348  0.33728350  0.33723336  1
  Fe  Fe6  1  0.00445616  0.67052296  0.00426155  1
  Ni  Ni7  1  0.17184171  0.83639951  0.17057864  1
  Ni  Ni8  1  1.00362050  0.67030730  0.33658500  1
  Ni  Ni9  1  0.33555709  1.00229357  1.00291765  1
  Cr  Cr10  1  0.50516018  0.16972709  0.17090322  1
  Ni  Ni11  1  0.33595756  1.00226507  0.33785961  1
  Fe  Fe12  1  0.33599495  0.33762244  1.00247310  1
  Fe  Fe13  1  0.50439286  0.50575774  0.17042328  1
  Fe  Fe14  1  0.33602591  0.33901190  0.33850439  1
  Fe  Fe15  1  0.33683683  0.67096056  0.00438301  1
  Ni  Ni16  1  0.50246460  0.83623550  0.16997655  1
  Ni  Ni17  1  0.33767335  0.67246826  0.33733753  1
  Fe  Fe18  1  0.67163729  0.00394165  1.00343459  1
  Ni  Ni19  1  0.83835335  0.17251796  0.17058870  1
  Fe  Fe20  1  0.67123877  1.00272416  0.33787627  1
  Ni  Ni21  1  0.67190877  0.33915172  1.00331098  1
  Ni  Ni22  1  0.83818708  0.50211237  0.17009054  1
  Ni  Ni23  1  0.67235902  0.33899714  0.33784872  1
  Fe  Fe24  1  0.67046209  0.67068245  1.00375529  1
  Fe  Fe25  1  0.83771166  0.83672608  0.17059547  1
  Ni  Ni26  1  0.67046105  0.66940859  0.33647376  1
  Ni  Ni27  1  0.16977621  0.16993740  0.50344241  1
  Ni  Ni28  1  0.00567998  1.00279680  0.67031373  1
  Fe  Fe29  1  0.17167958  0.16969743  0.83683680  1
  Fe  Fe30  1  0.16989867  0.50400207  0.50321103  1
  Fe  Fe31  1  1.00371263  0.33698165  0.66990915  1
  Fe  Fe32  1  0.17135565  0.50456743  0.83761122  1
  Ni  Ni33  1  0.17223621  0.83770139  0.50427862  1
  Ni  Ni34  1  1.00294898  0.67172210  0.67078157  1
  Ni  Ni35  1  0.17158869  0.83765829  0.83690044  1
  Fe  Fe36  1  0.50358465  0.17043971  0.50400128  1
  Ni  Ni37  1  0.33611530  0.00425834  0.67097528  1
  Fe  Fe38  1  0.50314853  0.17053967  0.83729690  1
  Fe  Fe39  1  0.50442819  0.50367246  0.50452398  1
  Ni  Ni40  1  0.33854059  0.33588847  0.67060520  1
  Ni  Ni41  1  0.50466500  0.50399333  0.83773543  1
  Ni  Ni42  1  0.50248406  0.83718264  0.50441378  1
  Fe  Fe43  1  0.33752090  0.67113528  0.67060866  1
  Ni  Ni44  1  0.50266590  0.83712183  0.83736246  1
  Ni  Ni45  1  0.83753010  0.17268691  0.50400664  1
  Fe  Fe46  1  0.67044299  1.00371401  0.67044395  1
  Fe  Fe47  1  0.83692593  0.17028211  0.83773509  1
  Ni  Ni48  1  0.83701401  0.50215403  0.50445529  1
  Ni  Ni49  1  0.66984481  0.33861958  0.67059839  1
  Fe  Fe50  1  0.83644874  0.50478756  0.83704197  1
  Fe  Fe51  1  0.83796251  0.83700431  0.50438113  1
  Ni  Ni52  1  0.67130452  0.66929630  0.67056858  1
  Fe  Fe53  1  0.83729074  0.83668599  0.83677662  1
" 