3998,Ni53Fe32Cr14_13,-235.237544287599, 204.770457093062,Ni53Fe32Cr14,"# generated using pymatgen
 data_Cr9Fe17Ni28
_symmetry_space_group_name_H-M   'P 1'
_cell_length_a   7.43226227
_cell_length_b   7.43226227
_cell_length_c   10.51080610
_cell_angle_alpha   90.00000000
_cell_angle_beta   90.00000000
_cell_angle_gamma   90.00000000
_symmetry_Int_Tables_number   1
_chemical_formula_structural   Cr9Fe17Ni28
_chemical_formula_sum   'Cr9 Fe17 Ni28'
_cell_volume   580.60139795
_cell_formula_units_Z   1
loop_
 _symmetry_equiv_pos_site_id
 _symmetry_equiv_pos_as_xyz
  1  'x, y, z'
loop_
 _atom_site_type_symbol
 _atom_site_label
 _atom_site_symmetry_multiplicity
 _atom_site_fract_x
 _atom_site_fract_y
 _atom_site_fract_z
 _atom_site_occupancy
  Cr  Cr0  1  0.00443757  0.00246317  0.00279651  1
  Fe  Fe1  1  0.17335212  0.16681948  0.17098039  1
  Fe  Fe2  1  0.00453914  1.00116788  0.33711607  1
  Cr  Cr3  1  1.00087498  0.33418105  0.99954646  1
  Cr  Cr4  1  0.16898313  0.50265641  0.16991667  1
  Ni  Ni5  1  1.00204002  0.33177976  0.33604904  1
  Ni  Ni6  1  0.99777271  0.67136784  0.00242183  1
  Ni  Ni7  1  0.16907295  0.83514959  0.17132100  1
  Fe  Fe8  1  0.00566281  0.67022431  0.33519826  1
  Ni  Ni9  1  0.33535654  0.00270100  0.00423372  1
  Ni  Ni10  1  0.50041831  0.16904969  0.16872982  1
  Ni  Ni11  1  0.33551025  1.00151348  0.33449351  1
  Ni  Ni12  1  0.33814960  0.33324063  0.00284356  1
  Ni  Ni13  1  0.50154731  0.49980133  0.17023689  1
  Ni  Ni14  1  0.33505913  0.33350810  0.33664002  1
  Cr  Cr15  1  0.33923837  0.67092866  1.00090672  1
  Ni  Ni16  1  0.50214361  0.83815063  0.16727342  1
  Ni  Ni17  1  0.33822554  0.67141903  0.33727383  1
  Fe  Fe18  1  0.66869426  1.00090163  1.00231573  1
  Cr  Cr19  1  0.83239966  0.16885558  0.17127046  1
  Fe  Fe20  1  0.66462616  0.00350718  0.33647114  1
  Ni  Ni21  1  0.66820807  0.33971057  0.00380287  1
  Fe  Fe22  1  0.83358414  0.50461435  0.16867102  1
  Fe  Fe23  1  0.66397779  0.33363906  0.33668367  1
  Ni  Ni24  1  0.66979496  0.66871776  0.00288353  1
  Ni  Ni25  1  0.83663976  0.83441655  0.17027310  1
  Cr  Cr26  1  0.66558321  0.67048387  0.33375960  1
  Ni  Ni27  1  0.17002912  0.16915870  0.50153488  1
  Ni  Ni28  1  0.00308940  0.00409637  0.66771803  1
  Ni  Ni29  1  0.17093532  0.16811171  0.83481622  1
  Fe  Fe30  1  0.17176583  0.49954590  0.50050240  1
  Ni  Ni31  1  1.00218478  0.33206659  0.67086114  1
  Fe  Fe32  1  0.16836724  0.50028030  0.83514347  1
  Fe  Fe33  1  0.16987801  0.83821711  0.50081200  1
  Fe  Fe34  1  0.00260147  0.66866004  0.67138593  1
  Fe  Fe35  1  0.16753576  0.83736773  0.83532240  1
  Ni  Ni36  1  0.49965566  0.16727285  0.50295769  1
  Ni  Ni37  1  0.33214831  0.00247484  0.66855603  1
  Cr  Cr38  1  0.50161496  0.16949669  0.83579857  1
  Fe  Fe39  1  0.50074204  0.49980169  0.50253150  1
  Ni  Ni40  1  0.33402892  0.33401956  0.66764739  1
  Ni  Ni41  1  0.50488700  0.50085335  0.83427687  1
  Ni  Ni42  1  0.50202341  0.83912562  0.50348887  1
  Cr  Cr43  1  0.33950473  0.66962440  0.66833948  1
  Fe  Fe44  1  0.50635478  0.83724254  0.83523971  1
  Fe  Fe45  1  0.83524963  0.16732020  0.50296168  1
  Fe  Fe46  1  0.66868398  0.00321036  0.66748188  1
  Ni  Ni47  1  0.83520134  0.16884941  0.83119848  1
  Cr  Cr48  1  0.83883344  0.50321946  0.50212247  1
  Ni  Ni49  1  0.67041988  0.33801469  0.66732145  1
  Ni  Ni50  1  0.83421770  0.50454190  0.83675610  1
  Fe  Fe51  1  0.83499307  0.83933385  0.50378490  1
  Ni  Ni52  1  0.66957370  0.66955103  0.67016740  1
  Ni  Ni53  1  0.83595698  0.83394308  0.83353277  1
" 