4340,Ni53Fe32Cr14_9,-234.919780718305, 199.262830769417,Ni53Fe32Cr14,"# generated using pymatgen
 data_Cr9Fe17Ni28
_symmetry_space_group_name_H-M   'P 1'
_cell_length_a   7.43621763
_cell_length_b   7.43621763
_cell_length_c   10.51639983
_cell_angle_alpha   90.00000000
_cell_angle_beta   90.00000000
_cell_angle_gamma   90.00000000
_symmetry_Int_Tables_number   1
_chemical_formula_structural   Cr9Fe17Ni28
_chemical_formula_sum   'Cr9 Fe17 Ni28'
_cell_volume   581.52885978
_cell_formula_units_Z   1
loop_
 _symmetry_equiv_pos_site_id
 _symmetry_equiv_pos_as_xyz
  1  'x, y, z'
loop_
 _atom_site_type_symbol
 _atom_site_label
 _atom_site_symmetry_multiplicity
 _atom_site_fract_x
 _atom_site_fract_y
 _atom_site_fract_z
 _atom_site_occupancy
  Cr  Cr0  1  0.00377922  0.00243897  0.00290326  1
  Ni  Ni1  1  0.17072347  0.16982059  0.16894330  1
  Cr  Cr2  1  0.00332904  1.00172488  0.33505665  1
  Ni  Ni3  1  1.00032166  0.33513291  0.00269286  1
  Cr  Cr4  1  0.16599735  0.49937918  0.16793521  1
  Fe  Fe5  1  1.00149021  0.33607756  0.33556117  1
  Ni  Ni6  1  1.00074386  0.66830995  0.00372165  1
  Fe  Fe7  1  0.16932790  0.83712456  0.16921199  1
  Fe  Fe8  1  1.00090523  0.66765309  0.33616152  1
  Ni  Ni9  1  0.33612403  0.00389954  0.00253392  1
  Ni  Ni10  1  0.50142430  0.16531531  0.16789099  1
  Ni  Ni11  1  0.33482798  0.00334901  0.33357706  1
  Ni  Ni12  1  0.33625610  0.33058117  1.00139699  1
  Cr  Cr13  1  0.50242344  0.50048145  0.17024368  1
  Ni  Ni14  1  0.33654106  0.33296576  0.33712587  1
  Cr  Cr15  1  0.33530490  0.67125809  1.00105850  1
  Ni  Ni16  1  0.50362132  0.84006740  0.17026333  1
  Fe  Fe17  1  0.33553821  0.66913923  0.33602631  1
  Ni  Ni18  1  0.66620754  0.00431361  0.00420206  1
  Ni  Ni19  1  0.83406753  0.16919432  0.16817500  1
  Fe  Fe20  1  0.66707064  0.00312493  0.33379273  1
  Ni  Ni21  1  0.66964098  0.33372816  1.00090882  1
  Ni  Ni22  1  0.83783008  0.50228980  0.16898669  1
  Ni  Ni23  1  0.66822239  0.33651440  0.33622150  1
  Cr  Cr24  1  0.67052096  0.66745321  1.00197346  1
  Ni  Ni25  1  0.83332290  0.83473694  0.16959835  1
  Ni  Ni26  1  0.67055981  0.66782518  0.33510810  1
  Fe  Fe27  1  0.17021356  0.16971400  0.50282069  1
  Fe  Fe28  1  0.00224740  0.00323687  0.66787159  1
  Ni  Ni29  1  0.17008178  0.16961451  0.83448402  1
  Ni  Ni30  1  0.16811501  0.50080354  0.50215141  1
  Ni  Ni31  1  1.00150320  0.33447065  0.66756287  1
  Cr  Cr32  1  0.16725994  0.49938257  0.83652153  1
  Fe  Fe33  1  0.16790399  0.83463893  0.50278530  1
  Ni  Ni34  1  1.00110858  0.67001779  0.66688990  1
  Fe  Fe35  1  0.17043700  0.83604931  0.83421659  1
  Ni  Ni36  1  0.50150997  0.16975058  0.50190105  1
  Fe  Fe37  1  0.33485678  0.00343084  0.66973468  1
  Fe  Fe38  1  0.50199237  0.16965194  0.83584970  1
  Fe  Fe39  1  0.50244525  0.50010467  0.50237394  1
  Ni  Ni40  1  0.33651254  0.33396479  0.66769534  1
  Ni  Ni41  1  0.50306610  0.50105385  0.83285641  1
  Cr  Cr42  1  0.50444546  0.83650056  0.50162575  1
  Fe  Fe43  1  0.33568034  0.66702307  0.66920533  1
  Ni  Ni44  1  0.50185843  0.83715412  0.83406032  1
  Fe  Fe45  1  0.83423388  0.16983834  0.50267038  1
  Fe  Fe46  1  0.66911753  0.00356351  0.66885819  1
  Fe  Fe47  1  0.83418178  0.17226481  0.83534860  1
  Fe  Fe48  1  0.83484223  0.50241891  0.50262328  1
  Ni  Ni49  1  0.66820163  0.33673813  0.66908447  1
  Ni  Ni50  1  0.83542891  0.50060505  0.83509009  1
  Ni  Ni51  1  0.83538941  0.83445617  0.50293277  1
  Ni  Ni52  1  0.66940669  0.66693928  0.66917543  1
  Cr  Cr53  1  0.83377804  0.83465387  0.83427926  1
" 