2546,Ni53Fe44Cr1_5,-241.340649533916, 226.265267667334,Ni53Fe44Cr1,"# generated using pymatgen
 data_CrFe24Ni29
_symmetry_space_group_name_H-M   'P 1'
_cell_length_a   7.40406580
_cell_length_b   7.40406580
_cell_length_c   10.47093027
_cell_angle_alpha   90.00000000
_cell_angle_beta   90.00000000
_cell_angle_gamma   90.00000000
_symmetry_Int_Tables_number   1
_chemical_formula_structural   CrFe24Ni29
_chemical_formula_sum   'Cr1 Fe24 Ni29'
_cell_volume   574.01839034
_cell_formula_units_Z   1
loop_
 _symmetry_equiv_pos_site_id
 _symmetry_equiv_pos_as_xyz
  1  'x, y, z'
loop_
 _atom_site_type_symbol
 _atom_site_label
 _atom_site_symmetry_multiplicity
 _atom_site_fract_x
 _atom_site_fract_y
 _atom_site_fract_z
 _atom_site_occupancy
  Fe  Fe0  1  0.00443625  1.00415977  0.00437021  1
  Fe  Fe1  1  0.17088246  0.17032577  0.17105756  1
  Ni  Ni2  1  1.00401876  1.00337608  0.33737814  1
  Fe  Fe3  1  0.00499210  0.33874117  1.00390927  1
  Ni  Ni4  1  0.16989158  0.50441761  0.17183055  1
  Fe  Fe5  1  1.00313178  0.33779204  0.33751334  1
  Ni  Ni6  1  0.00455393  0.67194510  1.00345867  1
  Ni  Ni7  1  0.16999836  0.83657987  0.17108948  1
  Ni  Ni8  1  1.00375786  0.67215915  0.33821714  1
  Fe  Fe9  1  0.33807146  0.00432612  1.00393718  1
  Ni  Ni10  1  0.50411050  0.17068162  0.17109172  1
  Fe  Fe11  1  0.33825090  1.00414699  0.33783332  1
  Ni  Ni12  1  0.33862590  0.33760633  1.00375313  1
  Fe  Fe13  1  0.50446029  0.50488357  0.17077903  1
  Fe  Fe14  1  0.33813682  0.33723614  0.33799140  1
  Ni  Ni15  1  0.33667618  0.67052799  1.00360310  1
  Ni  Ni16  1  0.50507301  0.83847430  0.17193926  1
  Fe  Fe17  1  0.33806935  0.67137674  0.33719737  1
  Fe  Fe18  1  0.67025301  1.00397707  0.00433680  1
  Fe  Fe19  1  0.83713534  0.17053166  0.17088129  1
  Ni  Ni20  1  0.67172063  0.00456210  0.33812469  1
  Ni  Ni21  1  0.67010165  0.33706380  1.00335019  1
  Ni  Ni22  1  0.83877015  0.50538045  0.17109482  1
  Ni  Ni23  1  0.67028631  0.33746312  0.33831816  1
  Fe  Fe24  1  0.67053249  0.67053124  0.00438182  1
  Ni  Ni25  1  0.83768991  0.83659442  0.17119812  1
  Ni  Ni26  1  0.67174422  0.67073474  0.33637740  1
  Ni  Ni27  1  0.17174033  0.17140144  0.50374580  1
  Fe  Fe28  1  0.00517863  0.00433357  0.67060140  1
  Ni  Ni29  1  0.17122826  0.17243613  0.83801252  1
  Fe  Fe30  1  0.17154118  0.50407370  0.50462552  1
  Fe  Fe31  1  0.00600742  0.33729766  0.67133445  1
  Ni  Ni32  1  0.17167596  0.50371665  0.83661644  1
  Fe  Fe33  1  0.17135102  0.83804714  0.50382260  1
  Fe  Fe34  1  0.00688400  0.67113122  0.67105948  1
  Fe  Fe35  1  0.17172340  0.83760498  0.83794528  1
  Ni  Ni36  1  0.50351877  0.17185299  0.50527934  1
  Ni  Ni37  1  0.33693734  0.00524737  0.67140943  1
  Ni  Ni38  1  0.50395875  0.17133767  0.83639399  1
  Ni  Ni39  1  0.50313523  0.50263227  0.50261978  1
  Ni  Ni40  1  0.33759549  0.33670208  0.67153635  1
  Ni  Ni41  1  0.50200495  0.50330749  0.83914429  1
  Fe  Fe42  1  0.50335510  0.83876917  0.50359267  1
  Ni  Ni43  1  0.33601443  0.67081480  0.67113241  1
  Ni  Ni44  1  0.50453325  0.83811369  0.83777167  1
  Fe  Fe45  1  0.83696191  0.17081748  0.50411681  1
  Fe  Fe46  1  0.66966197  0.00563149  0.67101149  1
  Ni  Ni47  1  0.83757251  0.16990586  0.83680843  1
  Fe  Fe48  1  0.83768747  0.50310227  0.50223958  1
  Fe  Fe49  1  0.66896272  0.33586281  0.67106130  1
  Fe  Fe50  1  0.83792642  0.50286119  0.83925627  1
  Ni  Ni51  1  0.83866087  0.83794706  0.50261239  1
  Cr  Cr52  1  0.67049861  0.67056963  0.67196061  1
  Ni  Ni53  1  0.83798513  0.83855955  0.83894889  1
" 