6182,Ni53Fe32Cr14_14,-235.321115700467, 203.903456185555,Ni53Fe32Cr14,"# generated using pymatgen
 data_Cr9Fe17Ni28
_symmetry_space_group_name_H-M   'P 1'
_cell_length_a   7.43570837
_cell_length_b   7.43570837
_cell_length_c   10.51567962
_cell_angle_alpha   90.00000000
_cell_angle_beta   90.00000000
_cell_angle_gamma   90.00000000
_symmetry_Int_Tables_number   1
_chemical_formula_structural   Cr9Fe17Ni28
_chemical_formula_sum   'Cr9 Fe17 Ni28'
_cell_volume   581.40939133
_cell_formula_units_Z   1
loop_
 _symmetry_equiv_pos_site_id
 _symmetry_equiv_pos_as_xyz
  1  'x, y, z'
loop_
 _atom_site_type_symbol
 _atom_site_label
 _atom_site_symmetry_multiplicity
 _atom_site_fract_x
 _atom_site_fract_y
 _atom_site_fract_z
 _atom_site_occupancy
  Fe  Fe0  1  0.99767089  1.00070964  0.00291295  1
  Cr  Cr1  1  0.16977260  0.17068663  0.16982892  1
  Fe  Fe2  1  1.00093616  0.00273778  0.33431780  1
  Fe  Fe3  1  1.00191501  0.33816256  1.00192804  1
  Ni  Ni4  1  0.16874445  0.50411217  0.16831204  1
  Ni  Ni5  1  1.00096285  0.33675406  0.33654754  1
  Ni  Ni6  1  1.00173163  0.66795950  1.00178468  1
  Fe  Fe7  1  0.16728773  0.83274471  0.16964213  1
  Ni  Ni8  1  0.00223100  0.66632029  0.33430515  1
  Cr  Cr9  1  0.33728027  0.00285539  0.00425716  1
  Ni  Ni10  1  0.50337496  0.16770414  0.16954220  1
  Ni  Ni11  1  0.33647116  1.00118466  0.33476397  1
  Ni  Ni12  1  0.33491220  0.33779745  1.00062365  1
  Fe  Fe13  1  0.50187443  0.50234548  0.16963634  1
  Ni  Ni14  1  0.33445594  0.33587277  0.33600431  1
  Ni  Ni15  1  0.33355208  0.66611091  0.00307843  1
  Fe  Fe16  1  0.50390077  0.83476716  0.16955590  1
  Ni  Ni17  1  0.33524892  0.66926217  0.33494947  1
  Ni  Ni18  1  0.67098289  1.00187239  1.00150278  1
  Ni  Ni19  1  0.83309743  0.16718361  0.17033486  1
  Ni  Ni20  1  0.66795401  0.00245186  0.33405666  1
  Cr  Cr21  1  0.66904939  0.33459472  1.00203612  1
  Ni  Ni22  1  0.83676706  0.50436101  0.17037651  1
  Ni  Ni23  1  0.67090649  0.33553172  0.33496010  1
  Ni  Ni24  1  0.67103799  0.66997508  0.00254094  1
  Ni  Ni25  1  0.83446545  0.83477416  0.16760010  1
  Ni  Ni26  1  0.66884393  0.66833753  0.33467847  1
  Fe  Fe27  1  0.16700349  0.17099322  0.50204063  1
  Fe  Fe28  1  1.00010721  0.00422099  0.66908880  1
  Cr  Cr29  1  0.16960122  0.17165763  0.83500095  1
  Ni  Ni30  1  0.16808244  0.50107250  0.50220200  1
  Ni  Ni31  1  1.00072233  0.33615970  0.66829786  1
  Ni  Ni32  1  0.16804354  0.50238273  0.83580361  1
  Cr  Cr33  1  0.17021070  0.83457978  0.50124668  1
  Fe  Fe34  1  1.00099870  0.66528704  0.66948397  1
  Cr  Cr35  1  0.16716869  0.83224862  0.83559036  1
  Cr  Cr36  1  0.50211205  0.16849764  0.50178794  1
  Ni  Ni37  1  0.33565971  0.00252033  0.66798573  1
  Ni  Ni38  1  0.50402072  0.16933054  0.83453162  1
  Fe  Fe39  1  0.50267730  0.50401301  0.50173172  1
  Fe  Fe40  1  0.33567840  0.33691580  0.66918243  1
  Fe  Fe41  1  0.50177785  0.50074169  0.83495093  1
  Fe  Fe42  1  0.50198611  0.83307122  0.50197586  1
  Fe  Fe43  1  0.33607161  0.66596290  0.66808047  1
  Cr  Cr44  1  0.50446808  0.83596356  0.83425322  1
  Fe  Fe45  1  0.83740769  0.17167638  0.50201808  1
  Fe  Fe46  1  0.66936325  0.00382806  0.67011195  1
  Ni  Ni47  1  0.83315250  0.16860550  0.83446606  1
  Ni  Ni48  1  0.83613740  0.50128849  0.50146995  1
  Ni  Ni49  1  0.67115172  0.33655392  0.66988546  1
  Ni  Ni50  1  0.83671198  0.50290074  0.83447806  1
  Cr  Cr51  1  0.83363822  0.83398066  0.50265208  1
  Ni  Ni52  1  0.66928914  0.66698664  0.66910402  1
  Fe  Fe53  1  0.83512701  0.83518794  0.83629906  1
" 