342,Ni53Fe44Cr1_15,-241.252392842444, 226.384559244887,Ni53Fe44Cr1,"# generated using pymatgen
 data_CrFe24Ni29
_symmetry_space_group_name_H-M   'P 1'
_cell_length_a   7.40492560
_cell_length_b   7.40492560
_cell_length_c   10.47214621
_cell_angle_alpha   90.00000000
_cell_angle_beta   90.00000000
_cell_angle_gamma   90.00000000
_symmetry_Int_Tables_number   1
_chemical_formula_structural   CrFe24Ni29
_chemical_formula_sum   'Cr1 Fe24 Ni29'
_cell_volume   574.21838808
_cell_formula_units_Z   1
loop_
 _symmetry_equiv_pos_site_id
 _symmetry_equiv_pos_as_xyz
  1  'x, y, z'
loop_
 _atom_site_type_symbol
 _atom_site_label
 _atom_site_symmetry_multiplicity
 _atom_site_fract_x
 _atom_site_fract_y
 _atom_site_fract_z
 _atom_site_occupancy
  Fe  Fe0  1  1.00369383  1.00371137  1.00388819  1
  Ni  Ni1  1  0.17249477  0.17050706  0.17151488  1
  Fe  Fe2  1  0.00457699  0.00502294  0.33746108  1
  Ni  Ni3  1  0.00495391  0.33845627  1.00390015  1
  Ni  Ni4  1  0.17013442  0.50439105  0.17178545  1
  Ni  Ni5  1  0.00510329  0.33757320  0.33794632  1
  Ni  Ni6  1  1.00390546  0.66943033  0.00482061  1
  Ni  Ni7  1  0.17147670  0.83767894  0.17003829  1
  Fe  Fe8  1  1.00410504  0.66961536  0.33653247  1
  Fe  Fe9  1  0.33741680  1.00402631  0.00443758  1
  Ni  Ni10  1  0.50342722  0.17043070  0.17105355  1
  Ni  Ni11  1  0.33858655  0.00508093  0.33636364  1
  Fe  Fe12  1  0.33705852  0.33770562  0.00481876  1
  Fe  Fe13  1  0.50329218  0.50418037  0.17143336  1
  Ni  Ni14  1  0.33585484  0.33696156  0.33786030  1
  Fe  Fe15  1  0.33720505  0.67084862  0.00454101  1
  Fe  Fe16  1  0.50350132  0.83735256  0.17064271  1
  Ni  Ni17  1  0.33899035  0.67053233  0.33616824  1
  Ni  Ni18  1  0.66979769  1.00335328  0.00430065  1
  Fe  Fe19  1  0.83851723  0.17145307  0.17102611  1
  Fe  Fe20  1  0.67012648  0.00434822  0.33767217  1
  Fe  Fe21  1  0.67181081  0.33814842  1.00402919  1
  Ni  Ni22  1  0.83736742  0.50479266  0.17088947  1
  Fe  Fe23  1  0.67019944  0.33805216  0.33801082  1
  Ni  Ni24  1  0.67114360  0.67180642  1.00362728  1
  Fe  Fe25  1  0.83791772  0.83725769  0.17037739  1
  Ni  Ni26  1  0.67058832  0.67161664  0.33781647  1
  Ni  Ni27  1  0.17159953  0.17202167  0.50375476  1
  Ni  Ni28  1  1.00368389  0.00507989  0.67221468  1
  Ni  Ni29  1  0.17165632  0.17123159  0.83732860  1
  Fe  Fe30  1  0.16949520  0.50222136  0.50400089  1
  Ni  Ni31  1  1.00406986  0.33817497  0.67073158  1
  Ni  Ni32  1  0.17000081  0.50325729  0.83692550  1
  Cr  Cr33  1  0.17078449  0.83868028  0.50511789  1
  Ni  Ni34  1  1.00338246  0.66931886  0.67142727  1
  Fe  Fe35  1  0.17023769  0.83695671  0.83732750  1
  Fe  Fe36  1  0.50479669  0.17048955  0.50395785  1
  Ni  Ni37  1  0.33884858  0.00476708  0.67180275  1
  Fe  Fe38  1  0.50463647  0.17046875  0.83764897  1
  Fe  Fe39  1  0.50486995  0.50401530  0.50368497  1
  Fe  Fe40  1  0.33657674  0.33646162  0.67072319  1
  Fe  Fe41  1  0.50444528  0.50464351  0.83746449  1
  Fe  Fe42  1  0.50627485  0.83808256  0.50435893  1
  Fe  Fe43  1  0.33796641  0.67048507  0.67163573  1
  Ni  Ni44  1  0.50510169  0.83809760  0.83710570  1
  Ni  Ni45  1  0.83734120  0.17145832  0.50436803  1
  Ni  Ni46  1  0.67006024  1.00408146  0.67024859  1
  Fe  Fe47  1  0.83778370  0.17086337  0.83673199  1
  Ni  Ni48  1  0.83659331  0.50430276  0.50457347  1
  Ni  Ni49  1  0.67168350  0.33717284  0.67116804  1
  Ni  Ni50  1  0.83764938  0.50507153  0.83712722  1
  Ni  Ni51  1  0.83542493  0.83682389  0.50418077  1
  Fe  Fe52  1  0.67216637  0.67149588  0.67095940  1
  Ni  Ni53  1  0.83613512  0.83645284  0.83698568  1
" 