4365,Ni53Fe17Cr28_13,-229.313956664466, 177.620134477016,Ni53Fe17Cr28,"# generated using pymatgen
 data_Cr16Fe9Ni29
_symmetry_space_group_name_H-M   'P 1'
_cell_length_a   7.46554335
_cell_length_b   7.46554335
_cell_length_c   10.55787266
_cell_angle_alpha   90.00000000
_cell_angle_beta   90.00000000
_cell_angle_gamma   90.00000000
_symmetry_Int_Tables_number   1
_chemical_formula_structural   Cr16Fe9Ni29
_chemical_formula_sum   'Cr16 Fe9 Ni29'
_cell_volume   588.43603897
_cell_formula_units_Z   1
loop_
 _symmetry_equiv_pos_site_id
 _symmetry_equiv_pos_as_xyz
  1  'x, y, z'
loop_
 _atom_site_type_symbol
 _atom_site_label
 _atom_site_symmetry_multiplicity
 _atom_site_fract_x
 _atom_site_fract_y
 _atom_site_fract_z
 _atom_site_occupancy
  Ni  Ni0  1  0.00053830  0.99953959  0.00096696  1
  Fe  Fe1  1  0.16577792  0.16647071  0.16714975  1
  Cr  Cr2  1  0.00131704  0.00054124  0.33265333  1
  Fe  Fe3  1  0.99785398  0.33413775  0.00144926  1
  Cr  Cr4  1  0.16667109  0.50102048  0.16693014  1
  Ni  Ni5  1  0.00016867  0.33446137  0.33275410  1
  Fe  Fe6  1  0.99875155  0.66800829  0.99922285  1
  Ni  Ni7  1  0.16826353  0.83336209  0.16668980  1
  Ni  Ni8  1  0.00015045  0.66520341  0.33376057  1
  Cr  Cr9  1  0.33150380  0.99760342  0.00026903  1
  Cr  Cr10  1  0.50134914  0.16701058  0.16804826  1
  Ni  Ni11  1  0.33379062  0.99958677  0.33177151  1
  Fe  Fe12  1  0.33615472  0.33544058  0.00012858  1
  Ni  Ni13  1  0.50127112  0.50049230  0.16715830  1
  Ni  Ni14  1  0.33284410  0.33384363  0.33342892  1
  Ni  Ni15  1  0.33619243  0.66758530  0.99965859  1
  Ni  Ni16  1  0.49867459  0.83239872  0.16866188  1
  Ni  Ni17  1  0.33391730  0.66687162  0.33178502  1
  Fe  Fe18  1  0.66693721  0.99839253  0.99942550  1
  Fe  Fe19  1  0.83345874  0.16921156  0.16643954  1
  Ni  Ni20  1  0.66561998  0.99956863  0.33280688  1
  Ni  Ni21  1  0.66732449  0.33692902  0.99954339  1
  Ni  Ni22  1  0.83261833  0.49782327  0.16736738  1
  Ni  Ni23  1  0.66728781  0.33459086  0.33099081  1
  Ni  Ni24  1  0.66538597  0.66369021  0.99986605  1
  Cr  Cr25  1  0.83297757  0.83296651  0.16690711  1
  Fe  Fe26  1  0.66649308  0.66653192  0.33123070  1
  Fe  Fe27  1  0.16638793  0.16832088  0.50026105  1
  Ni  Ni28  1  0.00091695  0.99831158  0.66670983  1
  Cr  Cr29  1  0.16704722  0.16548813  0.83281594  1
  Ni  Ni30  1  0.16523957  0.49964469  0.49925384  1
  Ni  Ni31  1  0.99853833  0.33344938  0.66553155  1
  Cr  Cr32  1  0.16594216  0.50333031  0.83346971  1
  Cr  Cr33  1  0.16610047  0.83106396  0.50144673  1
  Ni  Ni34  1  0.00028365  0.66854239  0.66811353  1
  Ni  Ni35  1  0.16625010  0.83227761  0.83238466  1
  Cr  Cr36  1  0.50028539  0.16568077  0.50029229  1
  Ni  Ni37  1  0.33224455  0.99856752  0.66836753  1
  Ni  Ni38  1  0.50234863  0.16670830  0.83231414  1
  Cr  Cr39  1  0.49747160  0.49929249  0.49763233  1
  Cr  Cr40  1  0.33444599  0.33325725  0.66690056  1
  Ni  Ni41  1  0.50156685  0.49962270  0.83529161  1
  Cr  Cr42  1  0.50040288  0.83533031  0.49812344  1
  Ni  Ni43  1  0.33203277  0.66913177  0.66885581  1
  Ni  Ni44  1  0.49964125  0.83396975  0.83320780  1
  Cr  Cr45  1  0.83283775  0.16605222  0.50118039  1
  Fe  Fe46  1  0.66710451  0.99976455  0.66789851  1
  Cr  Cr47  1  0.83098775  0.16676317  0.83321786  1
  Cr  Cr48  1  0.83710123  0.50037005  0.49925603  1
  Ni  Ni49  1  0.66772946  0.33323499  0.66977047  1
  Ni  Ni50  1  0.83248585  0.50053739  0.83380412  1
  Ni  Ni51  1  0.83473929  0.83435211  0.50027767  1
  Cr  Cr52  1  0.66760350  0.66604161  0.66873867  1
  Ni  Ni53  1  0.83441116  0.83305208  0.83326007  1
" 