6592,Ni53Fe44Cr1_19,-241.029186843154, 221.93457784109,Ni53Fe44Cr1,"# generated using pymatgen
 data_CrFe24Ni29
_symmetry_space_group_name_H-M   'P 1'
_cell_length_a   7.40436063
_cell_length_b   7.40436063
_cell_length_c   10.47134723
_cell_angle_alpha   90.00000000
_cell_angle_beta   90.00000000
_cell_angle_gamma   90.00000000
_symmetry_Int_Tables_number   1
_chemical_formula_structural   CrFe24Ni29
_chemical_formula_sum   'Cr1 Fe24 Ni29'
_cell_volume   574.08696649
_cell_formula_units_Z   1
loop_
 _symmetry_equiv_pos_site_id
 _symmetry_equiv_pos_as_xyz
  1  'x, y, z'
loop_
 _atom_site_type_symbol
 _atom_site_label
 _atom_site_symmetry_multiplicity
 _atom_site_fract_x
 _atom_site_fract_y
 _atom_site_fract_z
 _atom_site_occupancy
  Fe  Fe0  1  1.00385275  1.00344519  0.00494958  1
  Ni  Ni1  1  0.17188495  0.17218531  0.16950830  1
  Ni  Ni2  1  1.00312529  0.00561427  0.33668914  1
  Ni  Ni3  1  1.00240504  0.33758514  0.00565722  1
  Ni  Ni4  1  0.17156888  0.50325018  0.17167749  1
  Fe  Fe5  1  0.00475535  0.33807809  0.33707056  1
  Ni  Ni6  1  0.00524919  0.66818002  1.00336105  1
  Fe  Fe7  1  0.16825850  0.83682782  0.17092816  1
  Ni  Ni8  1  0.00509373  0.67053356  0.33857739  1
  Ni  Ni9  1  0.33984818  1.00344458  0.00474581  1
  Fe  Fe10  1  0.50519208  0.17146866  0.17005142  1
  Fe  Fe11  1  0.33557536  1.00358515  0.33780513  1
  Fe  Fe12  1  0.33659393  0.33744114  1.00387451  1
  Fe  Fe13  1  0.50507141  0.50400498  0.17054997  1
  Fe  Fe14  1  0.33571256  0.33741963  0.33750135  1
  Ni  Ni15  1  0.33738905  0.67093466  0.00521477  1
  Fe  Fe16  1  0.50377882  0.83732394  0.17076104  1
  Ni  Ni17  1  0.33808396  0.67007192  0.33720964  1
  Ni  Ni18  1  0.67049033  0.00613995  0.00486079  1
  Ni  Ni19  1  0.83834846  0.17005685  0.17187870  1
  Fe  Fe20  1  0.67175821  1.00257313  0.33715741  1
  Fe  Fe21  1  0.67103642  0.33717162  1.00410333  1
  Ni  Ni22  1  0.83887215  0.50587178  0.17020548  1
  Fe  Fe23  1  0.67283124  0.33894605  0.33700235  1
  Fe  Fe24  1  0.67156052  0.67197732  1.00314251  1
  Ni  Ni25  1  0.83577846  0.83684899  0.17059534  1
  Fe  Fe26  1  0.67281704  0.67141569  0.33860542  1
  Ni  Ni27  1  0.17186207  0.17196586  0.50488974  1
  Ni  Ni28  1  1.00355184  0.00675064  0.67169181  1
  Fe  Fe29  1  0.17103657  0.17044947  0.83755498  1
  Ni  Ni30  1  0.17021043  0.50143594  0.50328200  1
  Ni  Ni31  1  1.00315272  0.33757960  0.67008020  1
  Ni  Ni32  1  0.17039538  0.50187048  0.83784207  1
  Fe  Fe33  1  0.16888528  0.83876979  0.50290277  1
  Fe  Fe34  1  1.00242272  0.67227854  0.67096747  1
  Fe  Fe35  1  0.17136026  0.83889180  0.83908604  1
  Fe  Fe36  1  0.50479891  0.17117059  0.50472635  1
  Ni  Ni37  1  0.33851799  0.00438356  0.67008194  1
  Ni  Ni38  1  0.50397748  0.16978555  0.83696865  1
  Fe  Fe39  1  0.50556028  0.50441210  0.50346451  1
  Fe  Fe40  1  0.33719776  0.33557408  0.67116936  1
  Ni  Ni41  1  0.50234491  0.50364996  0.83829416  1
  Ni  Ni42  1  0.50628544  0.83914960  0.50329719  1
  Cr  Cr43  1  0.33816081  0.67202576  0.67046320  1
  Ni  Ni44  1  0.50664680  0.83894054  0.83853326  1
  Fe  Fe45  1  0.83901774  0.17062909  0.50422356  1
  Ni  Ni46  1  0.67068114  0.00427847  0.66993861  1
  Ni  Ni47  1  0.83718487  0.16906848  0.83771750  1
  Ni  Ni48  1  0.83884347  0.50567431  0.50533005  1
  Fe  Fe49  1  0.67095462  0.33689747  0.67158034  1
  Fe  Fe50  1  0.83649484  0.50338461  0.83731901  1
  Ni  Ni51  1  0.83570806  0.83781174  0.50483180  1
  Ni  Ni52  1  0.67036628  0.67066653  0.67138325  1
  Ni  Ni53  1  0.83603752  0.83869789  0.83728438  1
" 