1738,Ni53Fe17Cr28_0,-229.282494480982, 176.670528091199,Ni53Fe17Cr28,"# generated using pymatgen
 data_Cr16Fe9Ni29
_symmetry_space_group_name_H-M   'P 1'
_cell_length_a   7.46879187
_cell_length_b   7.46879187
_cell_length_c   10.56246675
_cell_angle_alpha   90.00000000
_cell_angle_beta   90.00000000
_cell_angle_gamma   90.00000000
_symmetry_Int_Tables_number   1
_chemical_formula_structural   Cr16Fe9Ni29
_chemical_formula_sum   'Cr16 Fe9 Ni29'
_cell_volume   589.20451901
_cell_formula_units_Z   1
loop_
 _symmetry_equiv_pos_site_id
 _symmetry_equiv_pos_as_xyz
  1  'x, y, z'
loop_
 _atom_site_type_symbol
 _atom_site_label
 _atom_site_symmetry_multiplicity
 _atom_site_fract_x
 _atom_site_fract_y
 _atom_site_fract_z
 _atom_site_occupancy
  Ni  Ni0  1  0.00149630  0.00087432  0.00029603  1
  Fe  Fe1  1  0.16690561  0.16826748  0.16396015  1
  Cr  Cr2  1  0.99789301  0.00123786  0.33266406  1
  Fe  Fe3  1  0.99928571  0.32853497  0.99979368  1
  Ni  Ni4  1  0.16975329  0.49487081  0.16588948  1
  Ni  Ni5  1  0.99883570  0.33243435  0.33035630  1
  Cr  Cr6  1  0.00001782  0.66486082  0.99880286  1
  Cr  Cr7  1  0.16747942  0.83218646  0.16507509  1
  Cr  Cr8  1  0.99840840  0.66643456  0.33587856  1
  Ni  Ni9  1  0.33423534  0.00028082  0.99759554  1
  Fe  Fe10  1  0.50112567  0.16861232  0.16391580  1
  Cr  Cr11  1  0.33533688  0.00047829  0.33364065  1
  Fe  Fe12  1  0.33508954  0.33017790  0.99939115  1
  Ni  Ni13  1  0.49778256  0.49801842  0.16503829  1
  Ni  Ni14  1  0.33477561  0.33417804  0.32922062  1
  Fe  Fe15  1  0.33708584  0.66737515  0.99913994  1
  Ni  Ni16  1  0.50140303  0.83301179  0.16268961  1
  Cr  Cr17  1  0.33512173  0.66654505  0.33358747  1
  Ni  Ni18  1  0.66413694  0.00240721  0.00209070  1
  Ni  Ni19  1  0.83271993  0.16690968  0.16494489  1
  Cr  Cr20  1  0.66689933  0.00140823  0.33136664  1
  Ni  Ni21  1  0.66473518  0.33362337  0.99863043  1
  Cr  Cr22  1  0.83210467  0.49771562  0.16566664  1
  Ni  Ni23  1  0.66689405  0.33364498  0.33390515  1
  Fe  Fe24  1  0.66328041  0.66721701  0.99915601  1
  Ni  Ni25  1  0.83042315  0.83716947  0.16323323  1
  Cr  Cr26  1  0.66583246  0.66687149  0.33369210  1
  Cr  Cr27  1  0.16628170  0.16792576  0.50117084  1
  Fe  Fe28  1  0.99956623  0.00098040  0.66683469  1
  Ni  Ni29  1  0.16808337  0.16477779  0.83336287  1
  Cr  Cr30  1  0.16835535  0.49743899  0.49880418  1
  Ni  Ni31  1  0.99792167  0.33355080  0.66810359  1
  Cr  Cr32  1  0.16701928  0.49780173  0.83414388  1
  Ni  Ni33  1  0.16495355  0.83391299  0.50377994  1
  Fe  Fe34  1  0.99781976  0.66655922  0.66679068  1
  Ni  Ni35  1  0.16797498  0.83653036  0.83248224  1
  Cr  Cr36  1  0.50168227  0.16964745  0.50200740  1
  Ni  Ni37  1  0.33323788  0.99966480  0.66912630  1
  Ni  Ni38  1  0.49891296  0.16640640  0.83261197  1
  Ni  Ni39  1  0.50173585  0.49869625  0.50027376  1
  Ni  Ni40  1  0.33456762  0.33150273  0.66994188  1
  Ni  Ni41  1  0.50218890  0.49860555  0.83419153  1
  Ni  Ni42  1  0.50186741  0.83227573  0.50270671  1
  Cr  Cr43  1  0.33553503  0.66818312  0.66741547  1
  Ni  Ni44  1  0.49934010  0.83460923  0.83436700  1
  Ni  Ni45  1  0.83315586  0.16785823  0.50089474  1
  Ni  Ni46  1  0.66424873  0.99910486  0.66607490  1
  Cr  Cr47  1  0.83126682  0.16670811  0.83268822  1
  Fe  Fe48  1  0.83149220  0.49793519  0.50242644  1
  Ni  Ni49  1  0.66712090  0.33495927  0.66675204  1
  Ni  Ni50  1  0.83017374  0.49849640  0.83184091  1
  Ni  Ni51  1  0.83205302  0.83500751  0.50346586  1
  Ni  Ni52  1  0.66727050  0.66526836  0.66732450  1
  Cr  Cr53  1  0.83081116  0.83394072  0.83449086  1
" 