314,Ni53Fe44Cr1_8,-241.133564501571, 222.290811739721,Ni53Fe44Cr1,"# generated using pymatgen
 data_CrFe24Ni29
_symmetry_space_group_name_H-M   'P 1'
_cell_length_a   7.40685503
_cell_length_b   7.40685503
_cell_length_c   10.47487484
_cell_angle_alpha   90.00000000
_cell_angle_beta   90.00000000
_cell_angle_gamma   90.00000000
_symmetry_Int_Tables_number   1
_chemical_formula_structural   CrFe24Ni29
_chemical_formula_sum   'Cr1 Fe24 Ni29'
_cell_volume   574.66736060
_cell_formula_units_Z   1
loop_
 _symmetry_equiv_pos_site_id
 _symmetry_equiv_pos_as_xyz
  1  'x, y, z'
loop_
 _atom_site_type_symbol
 _atom_site_label
 _atom_site_symmetry_multiplicity
 _atom_site_fract_x
 _atom_site_fract_y
 _atom_site_fract_z
 _atom_site_occupancy
  Ni  Ni0  1  1.00307542  1.00379472  0.00427363  1
  Fe  Fe1  1  0.16965424  0.17047536  0.17035263  1
  Ni  Ni2  1  1.00315461  1.00315914  0.33763511  1
  Fe  Fe3  1  1.00373723  0.33683513  0.00410299  1
  Ni  Ni4  1  0.17008067  0.50318304  0.17037275  1
  Fe  Fe5  1  1.00366875  0.33749453  0.33732778  1
  Fe  Fe6  1  1.00318187  0.67014116  0.00420456  1
  Fe  Fe7  1  0.16915865  0.83703728  0.17140463  1
  Ni  Ni8  1  0.00491385  0.67116676  0.33767154  1
  Fe  Fe9  1  0.33713012  0.00429907  0.00492694  1
  Fe  Fe10  1  0.50550554  0.17090547  0.17057536  1
  Fe  Fe11  1  0.33728730  1.00344933  0.33809813  1
  Ni  Ni12  1  0.33740406  0.33964623  0.00501136  1
  Fe  Fe13  1  0.50485190  0.50398919  0.16962180  1
  Fe  Fe14  1  0.33637383  0.33680795  0.33735781  1
  Fe  Fe15  1  0.33801095  0.67035232  1.00371157  1
  Ni  Ni16  1  0.50502063  0.83894791  0.16992084  1
  Fe  Fe17  1  0.33676709  0.67193354  0.33786834  1
  Ni  Ni18  1  0.67279007  1.00404880  0.00504483  1
  Ni  Ni19  1  0.83685738  0.17030385  0.17010937  1
  Ni  Ni20  1  0.67149234  0.00458016  0.33730045  1
  Ni  Ni21  1  0.66993954  0.33789849  0.00502486  1
  Ni  Ni22  1  0.83854154  0.50415355  0.17005165  1
  Fe  Fe23  1  0.67214926  0.33697941  0.33687164  1
  Fe  Fe24  1  0.67099476  0.67074239  1.00357946  1
  Ni  Ni25  1  0.83602110  0.83773103  0.17110928  1
  Fe  Fe26  1  0.67204032  0.67204939  0.33771899  1
  Ni  Ni27  1  0.17235765  0.17099912  0.50397899  1
  Ni  Ni28  1  1.00334041  1.00398973  0.67027832  1
  Ni  Ni29  1  0.17039492  0.17135338  0.83778549  1
  Ni  Ni30  1  0.16959261  0.50360501  0.50465526  1
  Fe  Fe31  1  0.00408988  0.33832024  0.67075802  1
  Ni  Ni32  1  0.17039573  0.50311189  0.83716623  1
  Ni  Ni33  1  0.17067076  0.83758143  0.50402267  1
  Ni  Ni34  1  0.00504788  0.67103339  0.67059923  1
  Fe  Fe35  1  0.16999891  0.83667028  0.83657759  1
  Ni  Ni36  1  0.50309225  0.16926650  0.50365494  1
  Fe  Fe37  1  0.33645935  1.00220142  0.66917081  1
  Cr  Cr38  1  0.50316418  0.16995132  0.83775466  1
  Fe  Fe39  1  0.50346598  0.50471461  0.50504076  1
  Fe  Fe40  1  0.33611911  0.33846105  0.67046822  1
  Ni  Ni41  1  0.50396784  0.50513580  0.83749084  1
  Ni  Ni42  1  0.50483165  0.83927141  0.50512020  1
  Ni  Ni43  1  0.33726838  0.66894378  0.67068327  1
  Fe  Fe44  1  0.50438835  0.83480916  0.83703939  1
  Fe  Fe45  1  0.83769845  0.16942201  0.50349169  1
  Ni  Ni46  1  0.67242268  1.00346840  0.66983972  1
  Fe  Fe47  1  0.83917868  0.17094843  0.83827553  1
  Ni  Ni48  1  0.83843259  0.50535748  0.50401973  1
  Fe  Fe49  1  0.67198179  0.33920183  0.67040090  1
  Ni  Ni50  1  0.83782595  0.50564654  0.83812009  1
  Ni  Ni51  1  0.83669079  0.83649815  0.50338059  1
  Ni  Ni52  1  0.66986819  0.67071293  0.67069593  1
  Ni  Ni53  1  0.83687039  0.83663779  0.83770097  1
" 