762,Ni53Fe32Cr14_19,-234.631489732855, 204.693438489549,Ni53Fe32Cr14,"# generated using pymatgen
 data_Cr9Fe17Ni28
_symmetry_space_group_name_H-M   'P 1'
_cell_length_a   7.43166180
_cell_length_b   7.43166180
_cell_length_c   10.50995690
_cell_angle_alpha   90.00000000
_cell_angle_beta   90.00000000
_cell_angle_gamma   90.00000000
_symmetry_Int_Tables_number   1
_chemical_formula_structural   Cr9Fe17Ni28
_chemical_formula_sum   'Cr9 Fe17 Ni28'
_cell_volume   580.46068481
_cell_formula_units_Z   1
loop_
 _symmetry_equiv_pos_site_id
 _symmetry_equiv_pos_as_xyz
  1  'x, y, z'
loop_
 _atom_site_type_symbol
 _atom_site_label
 _atom_site_symmetry_multiplicity
 _atom_site_fract_x
 _atom_site_fract_y
 _atom_site_fract_z
 _atom_site_occupancy
  Ni  Ni0  1  1.00109808  0.00295115  1.00202819  1
  Ni  Ni1  1  0.16900625  0.16801263  0.16995541  1
  Fe  Fe2  1  1.00195883  1.00200438  0.33575291  1
  Cr  Cr3  1  0.00276288  0.33490270  0.00266164  1
  Ni  Ni4  1  0.16924688  0.50255496  0.16915181  1
  Ni  Ni5  1  1.00079840  0.33661528  0.33644390  1
  Cr  Cr6  1  0.00320176  0.66946035  0.00244889  1
  Ni  Ni7  1  0.16701900  0.83657245  0.16900063  1
  Ni  Ni8  1  1.00106190  0.66756135  0.33583064  1
  Cr  Cr9  1  0.33575089  0.00241550  0.00389568  1
  Ni  Ni10  1  0.50337652  0.16997948  0.16887341  1
  Ni  Ni11  1  0.33610777  1.00153991  0.33562012  1
  Fe  Fe12  1  0.33750543  0.33743495  0.00254341  1
  Ni  Ni13  1  0.50387148  0.50132495  0.16607772  1
  Cr  Cr14  1  0.33364776  0.33393647  0.33385654  1
  Ni  Ni15  1  0.33686107  0.66664146  0.00332212  1
  Fe  Fe16  1  0.50363454  0.83526078  0.16929955  1
  Cr  Cr17  1  0.33507499  0.67223426  0.33391026  1
  Ni  Ni18  1  0.67016731  0.00307892  0.00296188  1
  Fe  Fe19  1  0.83538418  0.16871232  0.17025865  1
  Ni  Ni20  1  0.66847248  1.00179979  0.33513059  1
  Fe  Fe21  1  0.66694919  0.33593872  1.00237299  1
  Ni  Ni22  1  0.83402367  0.50331381  0.17127931  1
  Ni  Ni23  1  0.67287797  0.33513384  0.33396470  1
  Ni  Ni24  1  0.66716760  0.66843844  0.00295431  1
  Ni  Ni25  1  0.83598797  0.83607664  0.16927788  1
  Ni  Ni26  1  0.67145473  0.67020982  0.33551008  1
  Fe  Fe27  1  0.16724391  0.16629587  0.50175381  1
  Ni  Ni28  1  0.00249053  1.00065395  0.66951327  1
  Fe  Fe29  1  0.17030662  0.16877178  0.83550029  1
  Fe  Fe30  1  0.16607827  0.50404391  0.50301769  1
  Cr  Cr31  1  1.00186119  0.33638039  0.66805025  1
  Ni  Ni32  1  0.17136503  0.50313355  0.83510732  1
  Ni  Ni33  1  0.16707503  0.83621895  0.50383846  1
  Ni  Ni34  1  0.00358540  0.67007143  0.66927852  1
  Fe  Fe35  1  0.16819042  0.83520556  0.83431553  1
  Cr  Cr36  1  0.50399182  0.16766439  0.50333009  1
  Fe  Fe37  1  0.33444080  1.00237449  0.66838399  1
  Ni  Ni38  1  0.50374441  0.17214708  0.83440852  1
  Cr  Cr39  1  0.50409871  0.50291569  0.50416417  1
  Fe  Fe40  1  0.33594074  0.33554708  0.67117204  1
  Ni  Ni41  1  0.50165529  0.49982174  0.83624931  1
  Ni  Ni42  1  0.50307222  0.83657415  0.50249432  1
  Fe  Fe43  1  0.33411803  0.66921983  0.66942922  1
  Cr  Cr44  1  0.50385655  0.83514880  0.83492482  1
  Ni  Ni45  1  0.83640183  0.16780939  0.50121169  1
  Ni  Ni46  1  0.66927257  0.00298529  0.66904515  1
  Fe  Fe47  1  0.83356570  0.16780416  0.83490134  1
  Fe  Fe48  1  0.83626129  0.50368760  0.50080142  1
  Ni  Ni49  1  0.66841553  0.33490224  0.67100446  1
  Fe  Fe50  1  0.83291472  0.50288915  0.83514979  1
  Ni  Ni51  1  0.83699474  0.83623502  0.50313254  1
  Fe  Fe52  1  0.67118376  0.66950285  0.66885827  1
  Fe  Fe53  1  0.83596566  0.83645069  0.83514086  1
" 