6620,Ni53Fe32Cr14_11,-235.313146907648, 206.10442499856,Ni53Fe32Cr14,"# generated using pymatgen
 data_Cr9Fe17Ni28
_symmetry_space_group_name_H-M   'P 1'
_cell_length_a   7.43113011
_cell_length_b   7.43113011
_cell_length_c   10.50920499
_cell_angle_alpha   90.00000000
_cell_angle_beta   90.00000000
_cell_angle_gamma   90.00000000
_symmetry_Int_Tables_number   1
_chemical_formula_structural   Cr9Fe17Ni28
_chemical_formula_sum   'Cr9 Fe17 Ni28'
_cell_volume   580.33610946
_cell_formula_units_Z   1
loop_
 _symmetry_equiv_pos_site_id
 _symmetry_equiv_pos_as_xyz
  1  'x, y, z'
loop_
 _atom_site_type_symbol
 _atom_site_label
 _atom_site_symmetry_multiplicity
 _atom_site_fract_x
 _atom_site_fract_y
 _atom_site_fract_z
 _atom_site_occupancy
  Ni  Ni0  1  1.00075744  0.00299464  1.00211084  1
  Ni  Ni1  1  0.16950429  0.17139010  0.16786093  1
  Cr  Cr2  1  0.00384646  1.00037243  0.33584916  1
  Fe  Fe3  1  0.00331405  0.33352503  1.00230129  1
  Ni  Ni4  1  0.16973270  0.50038569  0.17084845  1
  Fe  Fe5  1  0.00379952  0.33678780  0.33540894  1
  Cr  Cr6  1  1.00122579  0.67021647  0.00271662  1
  Ni  Ni7  1  0.16690714  0.83547176  0.17122771  1
  Ni  Ni8  1  0.00266776  0.66960531  0.33532081  1
  Cr  Cr9  1  0.33434529  0.00509928  1.00145175  1
  Ni  Ni10  1  0.50293031  0.17200676  0.17020696  1
  Ni  Ni11  1  0.33437790  0.00491564  0.33503805  1
  Ni  Ni12  1  0.33583638  0.33486604  0.00293987  1
  Ni  Ni13  1  0.50263857  0.49970700  0.17032900  1
  Ni  Ni14  1  0.33726877  0.33526830  0.33605845  1
  Cr  Cr15  1  0.33499678  0.66749429  0.00312277  1
  Cr  Cr16  1  0.50412532  0.83588902  0.16948414  1
  Fe  Fe17  1  0.33394036  0.66716383  0.33539662  1
  Ni  Ni18  1  0.67173074  0.00387069  1.00135615  1
  Fe  Fe19  1  0.83514365  0.16938324  0.16798862  1
  Fe  Fe20  1  0.66902472  0.00378804  0.33572081  1
  Fe  Fe21  1  0.66902029  0.33373754  0.00305897  1
  Fe  Fe22  1  0.83501234  0.50229646  0.17073705  1
  Ni  Ni23  1  0.66642483  0.33650681  0.33485670  1
  Fe  Fe24  1  0.67051942  0.67001762  0.00269975  1
  Ni  Ni25  1  0.83549746  0.83576442  0.16935626  1
  Ni  Ni26  1  0.67097497  0.66671751  0.33416052  1
  Ni  Ni27  1  0.16884031  0.17116907  0.50303228  1
  Ni  Ni28  1  1.00135798  1.00144803  0.66938850  1
  Fe  Fe29  1  0.16719289  0.16998740  0.83608237  1
  Ni  Ni30  1  0.17090851  0.50196051  0.50240315  1
  Fe  Fe31  1  1.00205386  0.33425214  0.66954133  1
  Ni  Ni32  1  0.16882781  0.50154361  0.83400023  1
  Ni  Ni33  1  0.16786702  0.83411990  0.50179849  1
  Fe  Fe34  1  0.00248336  0.67084869  0.66952702  1
  Ni  Ni35  1  0.16676275  0.83499262  0.83422579  1
  Fe  Fe36  1  0.50293999  0.17105543  0.50148224  1
  Cr  Cr37  1  0.33385416  0.00363646  0.67091270  1
  Ni  Ni38  1  0.50509310  0.16948124  0.83574870  1
  Fe  Fe39  1  0.50139887  0.50089823  0.50195579  1
  Fe  Fe40  1  0.33561228  0.33615599  0.66851354  1
  Cr  Cr41  1  0.50205046  0.50144628  0.83502919  1
  Cr  Cr42  1  0.50409998  0.83524554  0.50149333  1
  Fe  Fe43  1  0.33436057  0.66812934  0.66944346  1
  Fe  Fe44  1  0.50517549  0.83700925  0.83473945  1
  Ni  Ni45  1  0.83474190  0.16801193  0.50323138  1
  Ni  Ni46  1  0.67204996  0.00332836  0.66920484  1
  Ni  Ni47  1  0.83472483  0.16741847  0.83591297  1
  Cr  Cr48  1  0.83596807  0.50223024  0.50295825  1
  Ni  Ni49  1  0.66876549  0.33526888  0.66911499  1
  Fe  Fe50  1  0.83637620  0.50175287  0.83438876  1
  Ni  Ni51  1  0.83568538  0.83723891  0.50351433  1
  Ni  Ni52  1  0.67066360  0.66865471  0.67087233  1
  Ni  Ni53  1  0.83508331  0.83797551  0.83437875  1
" 