258,Ni53Fe32Cr14_4,-234.890151804957, 204.349691850578,Ni53Fe32Cr14,"# generated using pymatgen
 data_Cr9Fe17Ni28
_symmetry_space_group_name_H-M   'P 1'
_cell_length_a   7.43112936
_cell_length_b   7.43112936
_cell_length_c   10.50920392
_cell_angle_alpha   90.00000000
_cell_angle_beta   90.00000000
_cell_angle_gamma   90.00000000
_symmetry_Int_Tables_number   1
_chemical_formula_structural   Cr9Fe17Ni28
_chemical_formula_sum   'Cr9 Fe17 Ni28'
_cell_volume   580.33593316
_cell_formula_units_Z   1
loop_
 _symmetry_equiv_pos_site_id
 _symmetry_equiv_pos_as_xyz
  1  'x, y, z'
loop_
 _atom_site_type_symbol
 _atom_site_label
 _atom_site_symmetry_multiplicity
 _atom_site_fract_x
 _atom_site_fract_y
 _atom_site_fract_z
 _atom_site_occupancy
  Ni  Ni0  1  1.00105057  1.00237515  0.99892067  1
  Cr  Cr1  1  0.16942597  0.16891900  0.16897157  1
  Ni  Ni2  1  0.99993395  1.00178091  0.33774981  1
  Fe  Fe3  1  1.00238173  0.33420851  1.00223394  1
  Fe  Fe4  1  0.16906526  0.50346586  0.16913399  1
  Fe  Fe5  1  1.00065546  0.33678391  0.33808686  1
  Cr  Cr6  1  1.00151190  0.67110091  0.00296934  1
  Cr  Cr7  1  0.17183837  0.83620427  0.16868654  1
  Fe  Fe8  1  1.00078239  0.66789262  0.33543148  1
  Ni  Ni9  1  0.33602006  0.00359235  1.00200852  1
  Fe  Fe10  1  0.50409031  0.16754708  0.16855424  1
  Ni  Ni11  1  0.33775881  1.00109771  0.33673318  1
  Ni  Ni12  1  0.33811185  0.33665898  1.00187474  1
  Fe  Fe13  1  0.50385693  0.50388347  0.16762713  1
  Cr  Cr14  1  0.33709542  0.33716109  0.33755278  1
  Ni  Ni15  1  0.33768440  0.66699903  0.00350625  1
  Ni  Ni16  1  0.50290693  0.83548379  0.16905272  1
  Ni  Ni17  1  0.33644218  0.66847501  0.33521904  1
  Ni  Ni18  1  0.67018175  0.00279906  0.00290545  1
  Cr  Cr19  1  0.83471814  0.16980564  0.16812612  1
  Ni  Ni20  1  0.66955762  1.00197959  0.33639725  1
  Ni  Ni21  1  0.66678869  0.33614972  1.00198598  1
  Ni  Ni22  1  0.83478397  0.50227929  0.16940794  1
  Ni  Ni23  1  0.67021618  0.33633737  0.33701094  1
  Ni  Ni24  1  0.66800801  0.66830095  0.00437725  1
  Ni  Ni25  1  0.83275094  0.83477509  0.16973393  1
  Fe  Fe26  1  0.66857624  0.66985795  0.33515201  1
  Fe  Fe27  1  0.16848747  0.17002586  0.50319441  1
  Ni  Ni28  1  1.00090259  0.00341988  0.67057864  1
  Fe  Fe29  1  0.16893198  0.16720677  0.83607422  1
  Ni  Ni30  1  0.16791076  0.50184278  0.50256018  1
  Ni  Ni31  1  1.00219638  0.33464601  0.66685618  1
  Cr  Cr32  1  0.17150682  0.50182960  0.83584858  1
  Cr  Cr33  1  0.17118785  0.83621465  0.50263980  1
  Fe  Fe34  1  1.00197686  0.67041701  0.66840824  1
  Fe  Fe35  1  0.16865355  0.83764910  0.83502259  1
  Ni  Ni36  1  0.50383725  0.16746522  0.50285530  1
  Ni  Ni37  1  0.33559718  0.00304102  0.66850816  1
  Fe  Fe38  1  0.50288362  0.17043318  0.83591437  1
  Ni  Ni39  1  0.50296740  0.50315945  0.50404775  1
  Fe  Fe40  1  0.33626744  0.33464046  0.66838547  1
  Ni  Ni41  1  0.50185427  0.50126956  0.83624994  1
  Ni  Ni42  1  0.50222817  0.83662398  0.50190364  1
  Ni  Ni43  1  0.33642871  0.66735320  0.66852402  1
  Cr  Cr44  1  0.50197945  0.83539070  0.83629265  1
  Ni  Ni45  1  0.83558449  0.17030861  0.50243934  1
  Ni  Ni46  1  0.67074886  0.00312236  0.66794512  1
  Fe  Fe47  1  0.83543443  0.16724248  0.83539490  1
  Ni  Ni48  1  0.83636836  0.50023481  0.50243992  1
  Fe  Fe49  1  0.66819247  0.33438664  0.66764320  1
  Cr  Cr50  1  0.83323614  0.50135990  0.83529085  1
  Fe  Fe51  1  0.83351956  0.83629711  0.50253587  1
  Fe  Fe52  1  0.66895485  0.66984848  0.66812814  1
  Ni  Ni53  1  0.83647315  0.83916095  0.83541293  1
" 