6853,Ni53Fe44Cr1_6,-241.044115638758, 220.97370405489,Ni53Fe44Cr1,"# generated using pymatgen
 data_CrFe24Ni29
_symmetry_space_group_name_H-M   'P 1'
_cell_length_a   7.40442423
_cell_length_b   7.40442423
_cell_length_c   10.47143716
_cell_angle_alpha   90.00000000
_cell_angle_beta   90.00000000
_cell_angle_gamma   90.00000000
_symmetry_Int_Tables_number   1
_chemical_formula_structural   CrFe24Ni29
_chemical_formula_sum   'Cr1 Fe24 Ni29'
_cell_volume   574.10175878
_cell_formula_units_Z   1
loop_
 _symmetry_equiv_pos_site_id
 _symmetry_equiv_pos_as_xyz
  1  'x, y, z'
loop_
 _atom_site_type_symbol
 _atom_site_label
 _atom_site_symmetry_multiplicity
 _atom_site_fract_x
 _atom_site_fract_y
 _atom_site_fract_z
 _atom_site_occupancy
  Fe  Fe0  1  1.00391526  1.00371562  1.00370389  1
  Fe  Fe1  1  0.17004598  0.17167988  0.17038072  1
  Fe  Fe2  1  1.00252671  1.00416331  0.33768438  1
  Ni  Ni3  1  0.00472457  0.33734589  1.00322593  1
  Fe  Fe4  1  0.16961828  0.50326591  0.17103331  1
  Ni  Ni5  1  0.00426591  0.33752296  0.33815593  1
  Ni  Ni6  1  1.00397202  0.67083805  1.00345730  1
  Fe  Fe7  1  0.17018188  0.83773966  0.17044942  1
  Ni  Ni8  1  0.00427584  0.67084783  0.33760389  1
  Fe  Fe9  1  0.33722338  1.00398180  1.00380411  1
  Ni  Ni10  1  0.50469160  0.17061656  0.17146432  1
  Fe  Fe11  1  0.33853040  0.00442932  0.33751494  1
  Fe  Fe12  1  0.33737351  0.33812306  1.00332218  1
  Fe  Fe13  1  0.50568850  0.50358205  0.17109614  1
  Fe  Fe14  1  0.33841080  0.33794103  0.33833682  1
  Fe  Fe15  1  0.33711757  0.67058040  1.00311492  1
  Fe  Fe16  1  0.50558811  0.83789764  0.17109651  1
  Fe  Fe17  1  0.33814090  0.67031323  0.33860718  1
  Fe  Fe18  1  0.67154627  1.00396985  0.00458324  1
  Ni  Ni19  1  0.83707260  0.17139191  0.17114947  1
  Ni  Ni20  1  0.66983658  0.00432285  0.33751405  1
  Fe  Fe21  1  0.67168182  0.33842181  0.00443658  1
  Ni  Ni22  1  0.83848217  0.50425718  0.17197961  1
  Ni  Ni23  1  0.67067426  0.33668533  0.33683067  1
  Ni  Ni24  1  0.67076089  0.67166978  1.00392328  1
  Fe  Fe25  1  0.83691276  0.83746760  0.17116849  1
  Ni  Ni26  1  0.67067277  0.67167972  0.33786770  1
  Fe  Fe27  1  0.17233868  0.17217745  0.50401518  1
  Cr  Cr28  1  0.00453731  1.00373855  0.67150188  1
  Ni  Ni29  1  0.17226367  0.17209600  0.83858589  1
  Ni  Ni30  1  0.17026609  0.50396284  0.50425829  1
  Ni  Ni31  1  0.00454706  0.33904074  0.67130501  1
  Ni  Ni32  1  0.16970354  0.50404266  0.83770113  1
  Fe  Fe33  1  0.17245567  0.83575945  0.50387529  1
  Ni  Ni34  1  0.00529075  0.66977612  0.67162310  1
  Ni  Ni35  1  0.17086265  0.83654807  0.83780141  1
  Ni  Ni36  1  0.50415440  0.17061499  0.50402305  1
  Fe  Fe37  1  0.33903349  0.00481397  0.67136762  1
  Ni  Ni38  1  0.50341084  0.17061059  0.83719822  1
  Ni  Ni39  1  0.50338576  0.50363105  0.50347486  1
  Ni  Ni40  1  0.33836990  0.33778183  0.67130393  1
  Ni  Ni41  1  0.50416651  0.50372309  0.83775091  1
  Ni  Ni42  1  0.50522876  0.83844057  0.50415530  1
  Ni  Ni43  1  0.33762636  0.67102646  0.67162621  1
  Ni  Ni44  1  0.50449058  0.83835520  0.83706862  1
  Fe  Fe45  1  0.83571321  0.17220201  0.50264956  1
  Fe  Fe46  1  0.66898876  0.00429048  0.67031363  1
  Fe  Fe47  1  0.83703025  0.17222193  0.83860506  1
  Fe  Fe48  1  0.83695894  0.50442735  0.50384762  1
  Ni  Ni49  1  0.66976394  0.33700966  0.67140556  1
  Ni  Ni50  1  0.83881870  0.50512457  0.83669011  1
  Ni  Ni51  1  0.83679503  0.83663751  0.50225654  1
  Fe  Fe52  1  0.67088766  0.67006014  0.67116309  1
  Ni  Ni53  1  0.83733433  0.83579068  0.83928214  1
" 