2596,Ni53Fe32Cr14_16,-235.209285389734, 208.628449148375,Ni53Fe32Cr14,"# generated using pymatgen
 data_Cr9Fe17Ni28
_symmetry_space_group_name_H-M   'P 1'
_cell_length_a   7.43128579
_cell_length_b   7.43128579
_cell_length_c   10.50942515
_cell_angle_alpha   90.00000000
_cell_angle_beta   90.00000000
_cell_angle_gamma   90.00000000
_symmetry_Int_Tables_number   1
_chemical_formula_structural   Cr9Fe17Ni28
_chemical_formula_sum   'Cr9 Fe17 Ni28'
_cell_volume   580.37258295
_cell_formula_units_Z   1
loop_
 _symmetry_equiv_pos_site_id
 _symmetry_equiv_pos_as_xyz
  1  'x, y, z'
loop_
 _atom_site_type_symbol
 _atom_site_label
 _atom_site_symmetry_multiplicity
 _atom_site_fract_x
 _atom_site_fract_y
 _atom_site_fract_z
 _atom_site_occupancy
  Fe  Fe0  1  0.00267784  0.00279488  1.00178814  1
  Fe  Fe1  1  0.16884183  0.17008679  0.16972553  1
  Ni  Ni2  1  0.00355068  0.00392648  0.33629103  1
  Ni  Ni3  1  1.00157759  0.33562125  0.00425087  1
  Ni  Ni4  1  0.16872514  0.50146326  0.16940401  1
  Fe  Fe5  1  0.00452769  0.33638400  0.33595670  1
  Ni  Ni6  1  0.00294779  0.66832538  1.00203940  1
  Cr  Cr7  1  0.16858716  0.83579258  0.16861820  1
  Fe  Fe8  1  0.00270052  0.66768161  0.33562592  1
  Ni  Ni9  1  0.33533407  1.00088193  1.00217428  1
  Ni  Ni10  1  0.50107013  0.17022481  0.16815785  1
  Fe  Fe11  1  0.33544510  0.00308619  0.33709544  1
  Cr  Cr12  1  0.33510780  0.33648265  1.00095874  1
  Ni  Ni13  1  0.50278812  0.50253116  0.16841069  1
  Ni  Ni14  1  0.33334907  0.33717670  0.33705972  1
  Ni  Ni15  1  0.33565890  0.66997195  1.00171402  1
  Fe  Fe16  1  0.50220581  0.83335900  0.16875917  1
  Ni  Ni17  1  0.33599643  0.66773220  0.33643797  1
  Cr  Cr18  1  0.66902705  0.00251280  0.00296930  1
  Fe  Fe19  1  0.83759579  0.17019667  0.16775858  1
  Cr  Cr20  1  0.66876472  1.00139896  0.33528170  1
  Ni  Ni21  1  0.67100386  0.33594727  0.00301762  1
  Fe  Fe22  1  0.83579763  0.50340241  0.16792362  1
  Cr  Cr23  1  0.66914314  0.33674238  0.33594379  1
  Ni  Ni24  1  0.66861151  0.66901991  0.00322778  1
  Ni  Ni25  1  0.83593853  0.83404955  0.16822344  1
  Ni  Ni26  1  0.66754129  0.66889821  0.33545299  1
  Ni  Ni27  1  0.17104801  0.16842588  0.50048769  1
  Fe  Fe28  1  0.00290086  1.00231611  0.66951794  1
  Ni  Ni29  1  0.16942552  0.16736845  0.83689096  1
  Ni  Ni30  1  0.16892069  0.50163684  0.50076560  1
  Cr  Cr31  1  1.00239905  0.33536764  0.66701454  1
  Fe  Fe32  1  0.16889179  0.50331386  0.83717080  1
  Ni  Ni33  1  0.16936042  0.83715863  0.50219524  1
  Fe  Fe34  1  1.00193279  0.67071455  0.66905866  1
  Fe  Fe35  1  0.16832259  0.83715943  0.83655711  1
  Ni  Ni36  1  0.49981838  0.16964555  0.50510391  1
  Ni  Ni37  1  0.33659394  0.00252469  0.66794929  1
  Fe  Fe38  1  0.50326006  0.16805066  0.83415996  1
  Ni  Ni39  1  0.50296391  0.50143260  0.50273464  1
  Fe  Fe40  1  0.33761938  0.33333990  0.66803505  1
  Fe  Fe41  1  0.50340606  0.50245325  0.83623977  1
  Ni  Ni42  1  0.50130144  0.83613892  0.50091667  1
  Cr  Cr43  1  0.33485261  0.66955901  0.66910700  1
  Ni  Ni44  1  0.50261691  0.83591536  0.83698249  1
  Fe  Fe45  1  0.83620279  0.17004816  0.50376934  1
  Ni  Ni46  1  0.66837584  0.00392943  0.66938391  1
  Ni  Ni47  1  0.83635998  0.16766173  0.83604148  1
  Ni  Ni48  1  0.83533374  0.50311823  0.50170421  1
  Ni  Ni49  1  0.66843075  0.33360498  0.66812465  1
  Cr  Cr50  1  0.83418797  0.50357116  0.83754058  1
  Cr  Cr51  1  0.83617412  0.83402763  0.50426034  1
  Fe  Fe52  1  0.66862174  0.66963428  0.66883034  1
  Ni  Ni53  1  0.83609648  0.83612511  0.83512436  1
" 