2397,Ni53Fe17Cr28_5,-229.282484099639, 174.518822885411,Ni53Fe17Cr28,"# generated using pymatgen
 data_Cr16Fe9Ni29
_symmetry_space_group_name_H-M   'P 1'
_cell_length_a   7.46377446
_cell_length_b   7.46377446
_cell_length_c   10.55537107
_cell_angle_alpha   90.00000000
_cell_angle_beta   90.00000000
_cell_angle_gamma   90.00000000
_symmetry_Int_Tables_number   1
_chemical_formula_structural   Cr16Fe9Ni29
_chemical_formula_sum   'Cr16 Fe9 Ni29'
_cell_volume   588.01786504
_cell_formula_units_Z   1
loop_
 _symmetry_equiv_pos_site_id
 _symmetry_equiv_pos_as_xyz
  1  'x, y, z'
loop_
 _atom_site_type_symbol
 _atom_site_label
 _atom_site_symmetry_multiplicity
 _atom_site_fract_x
 _atom_site_fract_y
 _atom_site_fract_z
 _atom_site_occupancy
  Ni  Ni0  1  0.00252595  0.00151452  0.00111641  1
  Ni  Ni1  1  0.16609911  0.16623628  0.16829402  1
  Ni  Ni2  1  0.99893330  0.00281668  0.33606562  1
  Ni  Ni3  1  0.00124096  0.33075904  0.00279650  1
  Fe  Fe4  1  0.16538594  0.49922856  0.16973731  1
  Ni  Ni5  1  0.00174013  0.32977524  0.33454220  1
  Ni  Ni6  1  0.99857984  0.66917327  0.00279493  1
  Cr  Cr7  1  0.16775768  0.83597553  0.16899872  1
  Cr  Cr8  1  0.99995314  0.66888069  0.33498260  1
  Ni  Ni9  1  0.33273141  0.99972428  0.00116578  1
  Fe  Fe10  1  0.50227947  0.16382713  0.16960377  1
  Fe  Fe11  1  0.33427988  0.00108401  0.33451079  1
  Cr  Cr12  1  0.33367634  0.33050379  0.00519781  1
  Cr  Cr13  1  0.50105449  0.50143331  0.17109229  1
  Ni  Ni14  1  0.33229674  0.33190652  0.33305407  1
  Cr  Cr15  1  0.33308497  0.66772157  1.00015781  1
  Ni  Ni16  1  0.50148697  0.83477355  0.16748336  1
  Ni  Ni17  1  0.33525765  0.66676626  0.33618553  1
  Fe  Fe18  1  0.66673956  0.00106968  0.00463001  1
  Ni  Ni19  1  0.83537593  0.16579542  0.16680628  1
  Ni  Ni20  1  0.66775652  0.99969668  0.33299210  1
  Ni  Ni21  1  0.66753829  0.33329858  0.00191618  1
  Cr  Cr22  1  0.83356353  0.49954908  0.16649570  1
  Ni  Ni23  1  0.66658606  0.33047733  0.33572357  1
  Ni  Ni24  1  0.66538901  0.66852656  0.00098296  1
  Ni  Ni25  1  0.83099075  0.83600939  0.16644497  1
  Ni  Ni26  1  0.66500372  0.66947951  0.33571016  1
  Ni  Ni27  1  0.16938536  0.16827216  0.50033386  1
  Cr  Cr28  1  0.00185627  0.00232626  0.66301620  1
  Ni  Ni29  1  0.16980276  0.16642165  0.83301931  1
  Ni  Ni30  1  0.16861900  0.49817897  0.49786654  1
  Ni  Ni31  1  0.00431315  0.33387903  0.66321455  1
  Cr  Cr32  1  0.16558973  0.49869804  0.83375770  1
  Ni  Ni33  1  0.17102039  0.83470047  0.49989174  1
  Cr  Cr34  1  0.99956875  0.66853051  0.66189320  1
  Fe  Fe35  1  0.16708060  0.83707581  0.83345598  1
  Ni  Ni36  1  0.49759490  0.16545595  0.49690643  1
  Ni  Ni37  1  0.33304519  0.00058744  0.66580894  1
  Cr  Cr38  1  0.49901426  0.16489464  0.83514878  1
  Fe  Fe39  1  0.49825705  0.49858786  0.49599380  1
  Ni  Ni40  1  0.33298676  0.33283003  0.66488782  1
  Fe  Fe41  1  0.50018712  0.49890440  0.83401931  1
  Ni  Ni42  1  0.49770428  0.83416086  0.49836752  1
  Fe  Fe43  1  0.33255492  0.66630386  0.66386477  1
  Fe  Fe44  1  0.49691978  0.83330100  0.83333341  1
  Ni  Ni45  1  0.83423360  0.16884445  0.49746670  1
  Cr  Cr46  1  0.66624923  0.99952464  0.66262582  1
  Cr  Cr47  1  0.83755503  0.16853705  0.83460863  1
  Ni  Ni48  1  0.83416398  0.49791436  0.49756030  1
  Cr  Cr49  1  0.66570723  0.33334071  0.66265073  1
  Cr  Cr50  1  0.83336030  0.49960708  0.83615570  1
  Ni  Ni51  1  0.83151244  0.83422403  0.49536549  1
  Cr  Cr52  1  0.66413124  0.66646804  0.66317816  1
  Cr  Cr53  1  0.83211991  0.83426877  0.83796768  1
" 