2346,Ni53Fe32Cr14_8,-235.214568765505, 203.546276386296,Ni53Fe32Cr14,"# generated using pymatgen
 data_Cr9Fe17Ni28
_symmetry_space_group_name_H-M   'P 1'
_cell_length_a   7.43503620
_cell_length_b   7.43503620
_cell_length_c   10.51472903
_cell_angle_alpha   90.00000000
_cell_angle_beta   90.00000000
_cell_angle_gamma   90.00000000
_symmetry_Int_Tables_number   1
_chemical_formula_structural   Cr9Fe17Ni28
_chemical_formula_sum   'Cr9 Fe17 Ni28'
_cell_volume   581.25173106
_cell_formula_units_Z   1
loop_
 _symmetry_equiv_pos_site_id
 _symmetry_equiv_pos_as_xyz
  1  'x, y, z'
loop_
 _atom_site_type_symbol
 _atom_site_label
 _atom_site_symmetry_multiplicity
 _atom_site_fract_x
 _atom_site_fract_y
 _atom_site_fract_z
 _atom_site_occupancy
  Fe  Fe0  1  1.00138077  0.00403804  0.99899375  1
  Cr  Cr1  1  0.16673716  0.16993531  0.16754335  1
  Fe  Fe2  1  1.00095540  0.00478644  0.33877965  1
  Ni  Ni3  1  1.00079838  0.33588551  1.00012613  1
  Cr  Cr4  1  0.17083117  0.50231450  0.16976876  1
  Ni  Ni5  1  1.00148510  0.33653318  0.33702370  1
  Cr  Cr6  1  1.00107628  0.66550160  0.99874167  1
  Cr  Cr7  1  0.16755010  0.83437906  0.17017984  1
  Fe  Fe8  1  1.00109485  0.66710840  0.33830820  1
  Cr  Cr9  1  0.33773275  0.00393624  0.99898398  1
  Ni  Ni10  1  0.50537310  0.17264086  0.16831784  1
  Cr  Cr11  1  0.33699170  0.00445547  0.33819376  1
  Ni  Ni12  1  0.33527624  0.33689161  1.00116722  1
  Fe  Fe13  1  0.50405195  0.50001766  0.16882585  1
  Ni  Ni14  1  0.33498752  0.33609475  0.33641123  1
  Ni  Ni15  1  0.33621877  0.66658900  1.00061135  1
  Cr  Cr16  1  0.50244076  0.83274283  0.16706498  1
  Fe  Fe17  1  0.33742084  0.66726069  0.33829403  1
  Ni  Ni18  1  0.66975346  0.00251834  1.00057302  1
  Ni  Ni19  1  0.83408437  0.17042714  0.16826113  1
  Cr  Cr20  1  0.66808957  0.00224589  0.33878328  1
  Fe  Fe21  1  0.66839466  0.33504458  1.00047791  1
  Fe  Fe22  1  0.83434671  0.49923914  0.16968519  1
  Fe  Fe23  1  0.66832101  0.33639705  0.33665953  1
  Fe  Fe24  1  0.66790632  0.66665096  0.99955193  1
  Cr  Cr25  1  0.83647678  0.83705710  0.16838072  1
  Ni  Ni26  1  0.66999986  0.66739539  0.33574838  1
  Ni  Ni27  1  0.16773525  0.17038313  0.50304971  1
  Ni  Ni28  1  0.00230504  0.00225996  0.66908647  1
  Ni  Ni29  1  0.16790226  0.17064538  0.83485293  1
  Ni  Ni30  1  0.16898610  0.50184574  0.50283861  1
  Ni  Ni31  1  0.00350369  0.33583759  0.66963581  1
  Ni  Ni32  1  0.17103902  0.50125766  0.83420984  1
  Ni  Ni33  1  0.16731465  0.83400410  0.50221883  1
  Fe  Fe34  1  1.00165172  0.66809151  0.66953991  1
  Ni  Ni35  1  0.16749444  0.83464188  0.83415703  1
  Ni  Ni36  1  0.50301428  0.17153763  0.50429485  1
  Fe  Fe37  1  0.33513087  0.00382967  0.66818049  1
  Ni  Ni38  1  0.50411031  0.17157872  0.83373968  1
  Ni  Ni39  1  0.50256675  0.50181477  0.50127416  1
  Ni  Ni40  1  0.33478418  0.33588466  0.66865253  1
  Ni  Ni41  1  0.50162676  0.50148832  0.83583106  1
  Ni  Ni42  1  0.50278112  0.83292863  0.50484732  1
  Fe  Fe43  1  0.33567247  0.66769981  0.66889175  1
  Fe  Fe44  1  0.50264691  0.83556597  0.83407267  1
  Fe  Fe45  1  0.83662175  0.17042368  0.50458959  1
  Ni  Ni46  1  0.66871124  1.00144748  0.66844629  1
  Ni  Ni47  1  0.83432237  0.16786654  0.83496179  1
  Fe  Fe48  1  0.83499383  0.50186199  0.50313957  1
  Ni  Ni49  1  0.66851807  0.33625127  0.66802623  1
  Fe  Fe50  1  0.83479625  0.49952127  0.83286213  1
  Fe  Fe51  1  0.83541550  0.83399888  0.50444118  1
  Ni  Ni52  1  0.66871093  0.66880734  0.67016863  1
  Ni  Ni53  1  0.83411665  0.83668770  0.83478259  1
" 