8846,Ni53Fe44Cr1_3,-240.498524797368, 221.93368511967,Ni53Fe44Cr1,"# generated using pymatgen
 data_CrFe24Ni29
_symmetry_space_group_name_H-M   'P 1'
_cell_length_a   7.39945835
_cell_length_b   7.39945835
_cell_length_c   10.46441436
_cell_angle_alpha   90.00000000
_cell_angle_beta   90.00000000
_cell_angle_gamma   90.00000000
_symmetry_Int_Tables_number   1
_chemical_formula_structural   CrFe24Ni29
_chemical_formula_sum   'Cr1 Fe24 Ni29'
_cell_volume   572.94744641
_cell_formula_units_Z   1
loop_
 _symmetry_equiv_pos_site_id
 _symmetry_equiv_pos_as_xyz
  1  'x, y, z'
loop_
 _atom_site_type_symbol
 _atom_site_label
 _atom_site_symmetry_multiplicity
 _atom_site_fract_x
 _atom_site_fract_y
 _atom_site_fract_z
 _atom_site_occupancy
  Fe  Fe0  1  0.00477920  0.00463109  0.00470194  1
  Ni  Ni1  1  0.17128785  0.17057262  0.17142110  1
  Ni  Ni2  1  0.00750023  0.00472209  0.33798524  1
  Fe  Fe3  1  0.00481277  0.33778298  1.00438472  1
  Fe  Fe4  1  0.17194513  0.50504317  0.17087007  1
  Fe  Fe5  1  1.00445451  0.33728919  0.33802513  1
  Fe  Fe6  1  0.00475140  0.67128812  1.00438621  1
  Ni  Ni7  1  0.17198518  0.83926869  0.17219999  1
  Fe  Fe8  1  1.00389613  0.67177769  0.33802683  1
  Ni  Ni9  1  0.33700667  1.00440479  0.00466658  1
  Fe  Fe10  1  0.50345401  0.17210620  0.16984359  1
  Ni  Ni11  1  0.33444498  1.00442001  0.33768260  1
  Ni  Ni12  1  0.33738519  0.33771290  1.00400521  1
  Ni  Ni13  1  0.50622594  0.50516830  0.17163370  1
  Fe  Fe14  1  0.33795741  0.33728941  0.33767697  1
  Ni  Ni15  1  0.33738274  0.67158575  1.00447933  1
  Ni  Ni16  1  0.50405878  0.83648745  0.17081406  1
  Fe  Fe17  1  0.33844843  0.67171144  0.33760105  1
  Ni  Ni18  1  0.67148017  0.00471668  1.00429235  1
  Fe  Fe19  1  0.83830231  0.17212246  0.17020905  1
  Cr  Cr20  1  0.67129463  0.00463613  0.33760497  1
  Ni  Ni21  1  0.67179332  0.33808641  0.00475806  1
  Ni  Ni22  1  0.83618911  0.50447388  0.17202424  1
  Ni  Ni23  1  0.67205732  0.34054026  0.33768026  1
  Ni  Ni24  1  0.67148281  0.67089777  1.00445953  1
  Fe  Fe25  1  0.83841278  0.83666091  0.17074986  1
  Ni  Ni26  1  0.67175421  0.66844778  0.33789843  1
  Ni  Ni27  1  0.17155122  0.17195926  0.50467832  1
  Fe  Fe28  1  1.00429412  1.00415629  0.67096749  1
  Ni  Ni29  1  0.17161621  0.17202440  0.83760117  1
  Ni  Ni30  1  0.17155253  0.50341993  0.50333642  1
  Fe  Fe31  1  0.00529718  0.33826182  0.67129070  1
  Ni  Ni32  1  0.17161806  0.50412142  0.83859639  1
  Fe  Fe33  1  0.17116631  0.83835619  0.50441043  1
  Fe  Fe34  1  0.00475075  0.67128255  0.67128977  1
  Ni  Ni35  1  0.17161955  0.83755684  0.83712746  1
  Fe  Fe36  1  0.50345772  0.17210399  0.50572234  1
  Ni  Ni37  1  0.33632250  1.00397156  0.67135419  1
  Ni  Ni38  1  0.50480583  0.17102044  0.83820709  1
  Fe  Fe39  1  0.50490454  0.50468668  0.50424753  1
  Fe  Fe40  1  0.33800449  0.33826257  0.67157361  1
  Fe  Fe41  1  0.50444953  0.50468823  0.83836540  1
  Fe  Fe42  1  0.50311502  0.83690968  0.50549001  1
  Ni  Ni43  1  0.33738560  0.67226348  0.67132688  1
  Ni  Ni44  1  0.50540458  0.83795570  0.83773221  1
  Fe  Fe45  1  0.83930643  0.17233303  0.50547536  1
  Fe  Fe46  1  0.67069742  1.00390624  0.67201326  1
  Ni  Ni47  1  0.83727872  0.17102545  0.83760129  1
  Fe  Fe48  1  0.83786083  0.50445511  0.50400000  1
  Ni  Ni49  1  0.67247884  0.33852558  0.67126637  1
  Fe  Fe50  1  0.83760345  0.50443842  0.83824909  1
  Ni  Ni51  1  0.83739375  0.83693677  0.50467698  1
  Ni  Ni52  1  0.67147725  0.67020777  0.67134957  1
  Ni  Ni53  1  0.83667188  0.83795392  0.83859710  1
" 