5617,Ni53Fe32Cr14_1,-234.914671387056, 204.497685689812,Ni53Fe32Cr14,"# generated using pymatgen
 data_Cr9Fe17Ni28
_symmetry_space_group_name_H-M   'P 1'
_cell_length_a   7.43229454
_cell_length_b   7.43229454
_cell_length_c   10.51085174
_cell_angle_alpha   90.00000000
_cell_angle_beta   90.00000000
_cell_angle_gamma   90.00000000
_symmetry_Int_Tables_number   1
_chemical_formula_structural   Cr9Fe17Ni28
_chemical_formula_sum   'Cr9 Fe17 Ni28'
_cell_volume   580.60896155
_cell_formula_units_Z   1
loop_
 _symmetry_equiv_pos_site_id
 _symmetry_equiv_pos_as_xyz
  1  'x, y, z'
loop_
 _atom_site_type_symbol
 _atom_site_label
 _atom_site_symmetry_multiplicity
 _atom_site_fract_x
 _atom_site_fract_y
 _atom_site_fract_z
 _atom_site_occupancy
  Fe  Fe0  1  1.00084459  0.00295153  0.00267998  1
  Ni  Ni1  1  0.16933726  0.17119821  0.16910719  1
  Cr  Cr2  1  0.00349171  0.00263051  0.33541086  1
  Ni  Ni3  1  0.00381050  0.33370787  0.00365870  1
  Ni  Ni4  1  0.16842120  0.50149852  0.16802189  1
  Ni  Ni5  1  1.00139095  0.33617133  0.33630241  1
  Fe  Fe6  1  0.00239187  0.66996875  0.00482590  1
  Ni  Ni7  1  0.16865783  0.83431925  0.16770131  1
  Ni  Ni8  1  1.00061613  0.66835341  0.33558743  1
  Cr  Cr9  1  0.33460831  0.00245655  0.00287704  1
  Fe  Fe10  1  0.50249303  0.16909860  0.17067638  1
  Fe  Fe11  1  0.33624068  0.00377727  0.33633112  1
  Ni  Ni12  1  0.33409491  0.33667558  0.00334538  1
  Fe  Fe13  1  0.50249148  0.50261814  0.16830068  1
  Fe  Fe14  1  0.33523753  0.33468962  0.33562901  1
  Ni  Ni15  1  0.33667785  0.66881432  1.00173869  1
  Fe  Fe16  1  0.50406553  0.83529870  0.16797755  1
  Cr  Cr17  1  0.33537518  0.67021181  0.33615593  1
  Ni  Ni18  1  0.67100114  1.00001335  1.00180246  1
  Ni  Ni19  1  0.83549838  0.16920981  0.16890501  1
  Fe  Fe20  1  0.66910995  0.00240190  0.33546129  1
  Cr  Cr21  1  0.66876604  0.33577406  0.00240234  1
  Ni  Ni22  1  0.83641685  0.50348141  0.17032660  1
  Ni  Ni23  1  0.66969103  0.33610036  0.33577380  1
  Ni  Ni24  1  0.66803980  0.67133190  0.00341496  1
  Ni  Ni25  1  0.83419103  0.83432227  0.16751177  1
  Ni  Ni26  1  0.67045332  0.66843947  0.33522079  1
  Ni  Ni27  1  0.17081792  0.17056351  0.50249111  1
  Cr  Cr28  1  0.00354771  0.00408071  0.66990332  1
  Ni  Ni29  1  0.16856823  0.16950179  0.83542053  1
  Fe  Fe30  1  0.16803233  0.50030374  0.50214998  1
  Ni  Ni31  1  1.00226133  0.33316311  0.66705317  1
  Cr  Cr32  1  0.17162932  0.50069403  0.83638581  1
  Ni  Ni33  1  0.17034970  0.83505630  0.50309841  1
  Cr  Cr34  1  0.00309723  0.66967433  0.66673477  1
  Fe  Fe35  1  0.17048233  0.83652812  0.83613816  1
  Ni  Ni36  1  0.50238233  0.16915820  0.50305823  1
  Ni  Ni37  1  0.33599051  0.00282356  0.66850410  1
  Fe  Fe38  1  0.50212495  0.16942816  0.83361367  1
  Fe  Fe39  1  0.50283189  0.50019074  0.50286811  1
  Ni  Ni40  1  0.33687615  0.33369828  0.66864744  1
  Ni  Ni41  1  0.50057704  0.50380331  0.83579840  1
  Fe  Fe42  1  0.50228286  0.83837725  0.50283123  1
  Fe  Fe43  1  0.33637627  0.66916967  0.66899302  1
  Ni  Ni44  1  0.50257150  0.83495562  0.83503842  1
  Ni  Ni45  1  0.83381436  0.17064474  0.50294235  1
  Fe  Fe46  1  0.66775142  0.00499110  0.66930093  1
  Ni  Ni47  1  0.83591081  0.16750385  0.83516780  1
  Fe  Fe48  1  0.83614714  0.50030039  0.50034286  1
  Ni  Ni49  1  0.66787560  0.33415331  0.66873860  1
  Cr  Cr50  1  0.83488234  0.50064963  0.83647197  1
  Ni  Ni51  1  0.83428996  0.83498299  0.50101560  1
  Cr  Cr52  1  0.66723239  0.66850846  0.66833181  1
  Fe  Fe53  1  0.83413308  0.83783134  0.83806450  1
" 