3502,Ni53Fe17Cr28_7,-229.100731643318, 173.668418561467,Ni53Fe17Cr28,"# generated using pymatgen
 data_Cr16Fe9Ni29
_symmetry_space_group_name_H-M   'P 1'
_cell_length_a   7.46446762
_cell_length_b   7.46446762
_cell_length_c   10.55635134
_cell_angle_alpha   90.00000000
_cell_angle_beta   90.00000000
_cell_angle_gamma   90.00000000
_symmetry_Int_Tables_number   1
_chemical_formula_structural   Cr16Fe9Ni29
_chemical_formula_sum   'Cr16 Fe9 Ni29'
_cell_volume   588.18170598
_cell_formula_units_Z   1
loop_
 _symmetry_equiv_pos_site_id
 _symmetry_equiv_pos_as_xyz
  1  'x, y, z'
loop_
 _atom_site_type_symbol
 _atom_site_label
 _atom_site_symmetry_multiplicity
 _atom_site_fract_x
 _atom_site_fract_y
 _atom_site_fract_z
 _atom_site_occupancy
  Cr  Cr0  1  0.99871632  0.00365659  0.00048921  1
  Fe  Fe1  1  0.16685059  0.16913746  0.16871334  1
  Ni  Ni2  1  0.00033415  0.00389834  0.33530263  1
  Ni  Ni3  1  0.00031174  0.33478829  0.99983742  1
  Ni  Ni4  1  0.16602056  0.49616550  0.16492160  1
  Ni  Ni5  1  0.99919894  0.33023263  0.33319222  1
  Ni  Ni6  1  0.99789914  0.66366107  0.99871867  1
  Ni  Ni7  1  0.16517026  0.83488468  0.16805999  1
  Cr  Cr8  1  0.99949247  0.66475095  0.33649267  1
  Cr  Cr9  1  0.33450596  0.00515966  0.00104415  1
  Ni  Ni10  1  0.49954473  0.16995755  0.16827064  1
  Ni  Ni11  1  0.33371131  0.00336712  0.33339331  1
  Ni  Ni12  1  0.33237963  0.33293508  0.99891875  1
  Cr  Cr13  1  0.50220536  0.49793464  0.16825578  1
  Fe  Fe14  1  0.33417981  0.33085083  0.33390219  1
  Cr  Cr15  1  0.33145410  0.66372274  0.99939181  1
  Cr  Cr16  1  0.50165556  0.83464974  0.16821898  1
  Cr  Cr17  1  0.33295485  0.66708258  0.33637115  1
  Cr  Cr18  1  0.66791808  0.00492104  0.99978223  1
  Fe  Fe19  1  0.83330161  0.16791947  0.16961672  1
  Ni  Ni20  1  0.66639854  0.00370747  0.33465380  1
  Fe  Fe21  1  0.66725938  0.33394900  0.99969928  1
  Cr  Cr22  1  0.83338483  0.49772102  0.16765124  1
  Ni  Ni23  1  0.66839366  0.33043017  0.33560842  1
  Ni  Ni24  1  0.67007060  0.66522725  0.99715095  1
  Cr  Cr25  1  0.83370978  0.83320965  0.16820309  1
  Ni  Ni26  1  0.66710154  0.66632410  0.33889886  1
  Ni  Ni27  1  0.16595013  0.16581487  0.49925359  1
  Fe  Fe28  1  0.99799083  0.00284657  0.66516513  1
  Ni  Ni29  1  0.16565908  0.17222090  0.83268761  1
  Cr  Cr30  1  0.16649100  0.49264589  0.50132440  1
  Ni  Ni31  1  0.99875197  0.33028500  0.66721642  1
  Fe  Fe32  1  0.16412545  0.49678081  0.83304274  1
  Ni  Ni33  1  0.16640276  0.83896069  0.49965313  1
  Cr  Cr34  1  0.99519136  0.66300267  0.66489913  1
  Cr  Cr35  1  0.16295211  0.83718091  0.83177280  1
  Fe  Fe36  1  0.50142367  0.16710258  0.49868971  1
  Cr  Cr37  1  0.33686485  0.00355207  0.66597515  1
  Fe  Fe38  1  0.50287853  0.17006539  0.83259428  1
  Ni  Ni39  1  0.50384854  0.49732888  0.49976023  1
  Ni  Ni40  1  0.33382641  0.33096629  0.66732250  1
  Ni  Ni41  1  0.50268913  0.49485952  0.83336123  1
  Ni  Ni42  1  0.50301488  0.83470390  0.49847494  1
  Cr  Cr43  1  0.33627524  0.66340656  0.66460074  1
  Cr  Cr44  1  0.50306817  0.83126820  0.83373703  1
  Ni  Ni45  1  0.83505481  0.16765612  0.49976417  1
  Ni  Ni46  1  0.66962549  0.00249635  0.66610353  1
  Ni  Ni47  1  0.83544657  0.16994191  0.83215919  1
  Ni  Ni48  1  0.82942922  0.49654270  0.49983837  1
  Fe  Fe49  1  0.66730455  0.33397756  0.66559591  1
  Ni  Ni50  1  0.83034592  0.49753068  0.83392720  1
  Ni  Ni51  1  0.83077166  0.83702172  0.50059287  1
  Ni  Ni52  1  0.66769857  0.66713212  0.66498001  1
  Ni  Ni53  1  0.83212781  0.83379670  0.83208105  1
" 