2763,Ni53Fe44Cr1_17,-240.393019512249, 221.9894535904,Ni53Fe44Cr1,"# generated using pymatgen
 data_CrFe24Ni29
_symmetry_space_group_name_H-M   'P 1'
_cell_length_a   7.40348617
_cell_length_b   7.40348617
_cell_length_c   10.47011055
_cell_angle_alpha   90.00000000
_cell_angle_beta   90.00000000
_cell_angle_gamma   90.00000000
_symmetry_Int_Tables_number   1
_chemical_formula_structural   CrFe24Ni29
_chemical_formula_sum   'Cr1 Fe24 Ni29'
_cell_volume   573.88358986
_cell_formula_units_Z   1
loop_
 _symmetry_equiv_pos_site_id
 _symmetry_equiv_pos_as_xyz
  1  'x, y, z'
loop_
 _atom_site_type_symbol
 _atom_site_label
 _atom_site_symmetry_multiplicity
 _atom_site_fract_x
 _atom_site_fract_y
 _atom_site_fract_z
 _atom_site_occupancy
  Ni  Ni0  1  0.00459829  0.00475152  1.00366588  1
  Fe  Fe1  1  0.17043738  0.17280364  0.17122531  1
  Ni  Ni2  1  1.00342019  1.00392919  0.33848938  1
  Fe  Fe3  1  1.00339601  0.33762278  1.00388674  1
  Ni  Ni4  1  0.17140132  0.50355711  0.17162221  1
  Fe  Fe5  1  1.00413242  0.33693499  0.33783724  1
  Fe  Fe6  1  1.00332297  0.67012234  1.00366531  1
  Cr  Cr7  1  0.17166407  0.83725340  0.17136235  1
  Ni  Ni8  1  1.00246158  0.67063271  0.33820881  1
  Ni  Ni9  1  0.33732193  0.00571194  1.00356757  1
  Fe  Fe10  1  0.50453671  0.17167173  0.17077326  1
  Ni  Ni11  1  0.33842212  0.00637288  0.33857800  1
  Fe  Fe12  1  0.33805184  0.33769924  0.00444481  1
  Ni  Ni13  1  0.50407060  0.50383702  0.17088506  1
  Ni  Ni14  1  0.33793424  0.33726818  0.33653205  1
  Fe  Fe15  1  0.33859814  0.67051610  1.00332625  1
  Fe  Fe16  1  0.50678678  0.83705452  0.17095467  1
  Fe  Fe17  1  0.33793342  0.67112629  0.33840023  1
  Fe  Fe18  1  0.67102506  0.00460487  0.00456099  1
  Ni  Ni19  1  0.83676906  0.17128544  0.17118590  1
  Ni  Ni20  1  0.67103923  1.00354641  0.33641220  1
  Ni  Ni21  1  0.67031777  0.33949207  1.00398492  1
  Ni  Ni22  1  0.83740281  0.50288909  0.17119851  1
  Fe  Fe23  1  0.67158696  0.33678340  0.33691907  1
  Ni  Ni24  1  0.67128561  0.66975935  0.00507944  1
  Ni  Ni25  1  0.83651245  0.83869779  0.17142328  1
  Fe  Fe26  1  0.67090096  0.67167670  0.33740158  1
  Fe  Fe27  1  0.17076498  0.17054286  0.50420185  1
  Ni  Ni28  1  0.00453690  1.00389941  0.67072322  1
  Fe  Fe29  1  0.17095682  0.17067153  0.83745125  1
  Fe  Fe30  1  0.17050175  0.50438348  0.50446462  1
  Ni  Ni31  1  0.00527969  0.33760310  0.67104324  1
  Ni  Ni32  1  0.17013541  0.50578335  0.83747085  1
  Ni  Ni33  1  0.17272750  0.83753474  0.50440156  1
  Ni  Ni34  1  1.00283205  0.67137032  0.67176607  1
  Ni  Ni35  1  0.17255779  0.83673443  0.83719158  1
  Fe  Fe36  1  0.50410130  0.17064671  0.50420950  1
  Fe  Fe37  1  0.33712608  1.00345964  0.67122413  1
  Ni  Ni38  1  0.50555726  0.16987599  0.83719649  1
  Fe  Fe39  1  0.50449381  0.50441503  0.50398630  1
  Ni  Ni40  1  0.33774101  0.33727464  0.67187082  1
  Fe  Fe41  1  0.50469553  0.50423363  0.83812373  1
  Ni  Ni42  1  0.50191547  0.83818600  0.50342141  1
  Fe  Fe43  1  0.33649057  0.67121241  0.67115579  1
  Ni  Ni44  1  0.50226124  0.83882497  0.83826128  1
  Ni  Ni45  1  0.83734268  0.17238576  0.50425677  1
  Fe  Fe46  1  0.67146241  0.00465123  0.67057455  1
  Ni  Ni47  1  0.83645768  0.17229941  0.83742220  1
  Ni  Ni48  1  0.83798732  0.50230144  0.50372385  1
  Fe  Fe49  1  0.67263404  0.33776642  0.67159558  1
  Ni  Ni50  1  0.83855144  0.50248005  0.83796025  1
  Fe  Fe51  1  0.83797160  0.83755385  0.50369557  1
  Ni  Ni52  1  0.67155218  0.67075358  0.67085093  1
  Fe  Fe53  1  0.83783974  0.83735948  0.83796973  1
" 