1410,Ni53Fe17Cr28_17,-229.14401440661, 177.494931708867,Ni53Fe17Cr28,"# generated using pymatgen
 data_Cr16Fe9Ni29
_symmetry_space_group_name_H-M   'P 1'
_cell_length_a   7.46608759
_cell_length_b   7.46608759
_cell_length_c   10.55864232
_cell_angle_alpha   90.00000000
_cell_angle_beta   90.00000000
_cell_angle_gamma   90.00000000
_symmetry_Int_Tables_number   1
_chemical_formula_structural   Cr16Fe9Ni29
_chemical_formula_sum   'Cr16 Fe9 Ni29'
_cell_volume   588.56473813
_cell_formula_units_Z   1
loop_
 _symmetry_equiv_pos_site_id
 _symmetry_equiv_pos_as_xyz
  1  'x, y, z'
loop_
 _atom_site_type_symbol
 _atom_site_label
 _atom_site_symmetry_multiplicity
 _atom_site_fract_x
 _atom_site_fract_y
 _atom_site_fract_z
 _atom_site_occupancy
  Fe  Fe0  1  0.99960298  0.99978135  0.00082901  1
  Ni  Ni1  1  0.16492819  0.16882420  0.16555590  1
  Ni  Ni2  1  0.99918476  0.00041953  0.33210615  1
  Ni  Ni3  1  0.00200614  0.33512027  0.00131469  1
  Ni  Ni4  1  0.16461864  0.49854192  0.16805613  1
  Ni  Ni5  1  0.00028141  0.33511600  0.33250020  1
  Ni  Ni6  1  0.99820372  0.66438293  0.99910013  1
  Cr  Cr7  1  0.16495309  0.83200317  0.16732486  1
  Ni  Ni8  1  0.99854718  0.66440796  0.33269286  1
  Ni  Ni9  1  0.33317468  0.00172887  0.00172541  1
  Ni  Ni10  1  0.49969720  0.16729978  0.16493206  1
  Cr  Cr11  1  0.33460086  0.00213618  0.33158743  1
  Fe  Fe12  1  0.33104895  0.33296099  0.00066313  1
  Cr  Cr13  1  0.49979437  0.50077011  0.16793906  1
  Ni  Ni14  1  0.33257947  0.33350792  0.33309916  1
  Cr  Cr15  1  0.33166992  0.66806391  0.99953634  1
  Ni  Ni16  1  0.50194939  0.83253837  0.16645574  1
  Ni  Ni17  1  0.33330654  0.66469368  0.33530026  1
  Ni  Ni18  1  0.66550059  0.99833398  0.00263565  1
  Ni  Ni19  1  0.83511961  0.16709933  0.16735349  1
  Cr  Cr20  1  0.66618834  0.00046689  0.33245124  1
  Cr  Cr21  1  0.66947769  0.33403544  0.00145316  1
  Ni  Ni22  1  0.83519711  0.50074527  0.16740466  1
  Ni  Ni23  1  0.66697811  0.33417619  0.33349029  1
  Ni  Ni24  1  0.66991590  0.66840646  0.00068167  1
  Ni  Ni25  1  0.83352943  0.83231606  0.16518763  1
  Fe  Fe26  1  0.66834432  0.66596602  0.33325099  1
  Ni  Ni27  1  0.16733396  0.16763288  0.49941280  1
  Ni  Ni28  1  0.00069937  0.99838403  0.66812861  1
  Ni  Ni29  1  0.16559391  0.16545461  0.83495379  1
  Fe  Fe30  1  0.16702641  0.49788140  0.49701323  1
  Cr  Cr31  1  0.00324461  0.33510285  0.66588875  1
  Fe  Fe32  1  0.16849861  0.49806914  0.83551150  1
  Cr  Cr33  1  0.16427355  0.83288388  0.49848723  1
  Cr  Cr34  1  0.00092155  0.66521420  0.66896862  1
  Ni  Ni35  1  0.16394047  0.83405828  0.83419490  1
  Ni  Ni36  1  0.49877303  0.17135706  0.50099352  1
  Cr  Cr37  1  0.33309495  0.00129292  0.66448101  1
  Cr  Cr38  1  0.49920833  0.16881380  0.83412556  1
  Ni  Ni39  1  0.49842509  0.49970336  0.49944718  1
  Ni  Ni40  1  0.33193220  0.33499469  0.66713288  1
  Ni  Ni41  1  0.49904244  0.50110543  0.83319028  1
  Fe  Fe42  1  0.50191411  0.83259001  0.49883405  1
  Fe  Fe43  1  0.33289437  0.66433999  0.66639283  1
  Cr  Cr44  1  0.49982387  0.83231471  0.83358439  1
  Cr  Cr45  1  0.83580479  0.16588413  0.50015135  1
  Ni  Ni46  1  0.66706347  0.99796539  0.66477838  1
  Cr  Cr47  1  0.83518231  0.16432510  0.83241619  1
  Ni  Ni48  1  0.83152999  0.50198062  0.49671684  1
  Cr  Cr49  1  0.66587013  0.33442192  0.66579673  1
  Fe  Fe50  1  0.83398704  0.50091579  0.83607844  1
  Ni  Ni51  1  0.83489341  0.83220159  0.50056319  1
  Cr  Cr52  1  0.66817990  0.66652089  0.66633189  1
  Fe  Fe53  1  0.83392130  0.83422032  0.83527033  1
" 