5636,Ni53Fe32Cr14_12,-235.374711170405, 203.4528391269,Ni53Fe32Cr14,"# generated using pymatgen
 data_Cr9Fe17Ni28
_symmetry_space_group_name_H-M   'P 1'
_cell_length_a   7.43486440
_cell_length_b   7.43486440
_cell_length_c   10.51448606
_cell_angle_alpha   90.00000000
_cell_angle_beta   90.00000000
_cell_angle_gamma   90.00000000
_symmetry_Int_Tables_number   1
_chemical_formula_structural   Cr9Fe17Ni28
_chemical_formula_sum   'Cr9 Fe17 Ni28'
_cell_volume   581.21143925
_cell_formula_units_Z   1
loop_
 _symmetry_equiv_pos_site_id
 _symmetry_equiv_pos_as_xyz
  1  'x, y, z'
loop_
 _atom_site_type_symbol
 _atom_site_label
 _atom_site_symmetry_multiplicity
 _atom_site_fract_x
 _atom_site_fract_y
 _atom_site_fract_z
 _atom_site_occupancy
  Cr  Cr0  1  1.00169104  1.00124921  0.99981809  1
  Fe  Fe1  1  0.16952079  0.16654399  0.16969415  1
  Ni  Ni2  1  0.00224660  1.00170564  0.33713885  1
  Cr  Cr3  1  0.00400623  0.33480932  0.00331727  1
  Fe  Fe4  1  0.16935021  0.50587787  0.16837592  1
  Cr  Cr5  1  1.00209662  0.33422443  0.33500541  1
  Fe  Fe6  1  0.00417259  0.67004577  0.00275303  1
  Ni  Ni7  1  0.16993888  0.83539294  0.16967235  1
  Fe  Fe8  1  0.00232493  0.67086839  0.33650020  1
  Fe  Fe9  1  0.33614591  1.00077994  0.00274962  1
  Fe  Fe10  1  0.50138825  0.16561370  0.16828008  1
  Ni  Ni11  1  0.33482729  0.99986045  0.33471450  1
  Ni  Ni12  1  0.33431888  0.33796113  1.00184062  1
  Ni  Ni13  1  0.50070675  0.50300561  0.16877583  1
  Cr  Cr14  1  0.33485390  0.33624566  0.33764458  1
  Ni  Ni15  1  0.33495200  0.66897027  1.00151731  1
  Fe  Fe16  1  0.50280632  0.83522611  0.16998937  1
  Ni  Ni17  1  0.33630764  0.67052475  0.33586128  1
  Ni  Ni18  1  0.66952399  1.00040030  0.00268351  1
  Ni  Ni19  1  0.83429771  0.16614816  0.16901012  1
  Ni  Ni20  1  0.66970570  1.00032758  0.33560776  1
  Cr  Cr21  1  0.66831308  0.33502069  0.00469887  1
  Ni  Ni22  1  0.83549138  0.50469605  0.16985085  1
  Cr  Cr23  1  0.66929104  0.33586034  0.33480855  1
  Cr  Cr24  1  0.66631211  0.67141186  1.00146327  1
  Ni  Ni25  1  0.83701424  0.83601114  0.17060330  1
  Ni  Ni26  1  0.66785966  0.67022340  0.33638230  1
  Ni  Ni27  1  0.16852396  0.16672336  0.50370698  1
  Fe  Fe28  1  0.00353797  1.00117897  0.66803660  1
  Fe  Fe29  1  0.17034448  0.16966190  0.83296540  1
  Ni  Ni30  1  0.16732001  0.50422112  0.50332097  1
  Ni  Ni31  1  1.00197776  0.33505671  0.66850443  1
  Ni  Ni32  1  0.16997544  0.50400555  0.83572831  1
  Ni  Ni33  1  0.17081783  0.83569971  0.50163907  1
  Ni  Ni34  1  0.00413133  0.66928825  0.66857732  1
  Ni  Ni35  1  0.17033286  0.83467021  0.83465326  1
  Fe  Fe36  1  0.50147231  0.16640218  0.50367178  1
  Ni  Ni37  1  0.33471229  0.99923754  0.66865358  1
  Cr  Cr38  1  0.50255401  0.16862145  0.83543435  1
  Fe  Fe39  1  0.50157795  0.50442732  0.50350243  1
  Fe  Fe40  1  0.33348018  0.33714112  0.66831034  1
  Ni  Ni41  1  0.49974988  0.50287887  0.83299480  1
  Ni  Ni42  1  0.50093223  0.83652911  0.50123126  1
  Ni  Ni43  1  0.33540317  0.67052653  0.66910805  1
  Ni  Ni44  1  0.50007252  0.83619606  0.83616279  1
  Ni  Ni45  1  0.83501328  0.16858546  0.50361210  1
  Fe  Fe46  1  0.66882193  1.00013713  0.66801267  1
  Fe  Fe47  1  0.83544177  0.16690810  0.83301056  1
  Ni  Ni48  1  0.83572885  0.50230150  0.50247817  1
  Ni  Ni49  1  0.66980723  0.33565872  0.66713298  1
  Cr  Cr50  1  0.83636030  0.50163741  0.83477199  1
  Fe  Fe51  1  0.83689751  0.83511704  0.50130242  1
  Fe  Fe52  1  0.66750223  0.66949816  0.66754899  1
  Fe  Fe53  1  0.83492159  0.83556042  0.83404599  1
" 