3723,Ni53Fe44Cr1_16,-240.827642738429, 212.915342687,Ni53Fe44Cr1,"# generated using pymatgen
 data_CrFe24Ni29
_symmetry_space_group_name_H-M   'P 1'
_cell_length_a   7.40893292
_cell_length_b   7.40893292
_cell_length_c   10.47781342
_cell_angle_alpha   90.00000000
_cell_angle_beta   90.00000000
_cell_angle_gamma   90.00000000
_symmetry_Int_Tables_number   1
_chemical_formula_structural   CrFe24Ni29
_chemical_formula_sum   'Cr1 Fe24 Ni29'
_cell_volume   575.15114127
_cell_formula_units_Z   1
loop_
 _symmetry_equiv_pos_site_id
 _symmetry_equiv_pos_as_xyz
  1  'x, y, z'
loop_
 _atom_site_type_symbol
 _atom_site_label
 _atom_site_symmetry_multiplicity
 _atom_site_fract_x
 _atom_site_fract_y
 _atom_site_fract_z
 _atom_site_occupancy
  Ni  Ni0  1  1.00379913  0.00500064  1.00334663  1
  Fe  Fe1  1  0.16955092  0.16749702  0.17167426  1
  Ni  Ni2  1  0.00394996  0.00441786  0.33759631  1
  Fe  Fe3  1  1.00299057  0.33636070  1.00280780  1
  Cr  Cr4  1  0.17168521  0.50414050  0.17415863  1
  Ni  Ni5  1  1.00221484  0.33366238  0.33674167  1
  Fe  Fe6  1  1.00313155  0.67252096  1.00299779  1
  Ni  Ni7  1  0.16964729  0.83591762  0.17026708  1
  Fe  Fe8  1  1.00347412  0.67163397  0.33915099  1
  Fe  Fe9  1  0.33777071  0.00475942  0.00516349  1
  Ni  Ni10  1  0.50497332  0.17122233  0.17207570  1
  Ni  Ni11  1  0.33500120  1.00289497  0.33695174  1
  Fe  Fe12  1  0.33780851  0.33527077  1.00284960  1
  Fe  Fe13  1  0.50641289  0.50406858  0.17179322  1
  Ni  Ni14  1  0.33806778  0.33626021  0.33781990  1
  Fe  Fe15  1  0.33677784  0.67220598  1.00294820  1
  Fe  Fe16  1  0.50411349  0.83846419  0.17175569  1
  Ni  Ni17  1  0.34042002  0.67218795  0.33811829  1
  Fe  Fe18  1  0.67105439  0.00431612  1.00282095  1
  Ni  Ni19  1  0.83468294  0.16901602  0.17014815  1
  Fe  Fe20  1  0.66994328  0.00500733  0.33828660  1
  Fe  Fe21  1  0.67079409  0.33531312  0.00474630  1
  Fe  Fe22  1  0.83580586  0.50382409  0.17176433  1
  Ni  Ni23  1  0.67134849  0.33897282  0.33861534  1
  Fe  Fe24  1  0.67230460  0.67221454  0.00394294  1
  Ni  Ni25  1  0.83769250  0.83899958  0.17144266  1
  Ni  Ni26  1  0.67021633  0.67092869  0.33699946  1
  Ni  Ni27  1  0.17021811  0.17169731  0.50331414  1
  Fe  Fe28  1  1.00379341  1.00345388  0.66976911  1
  Fe  Fe29  1  0.16965885  0.17057035  0.83614133  1
  Ni  Ni30  1  0.17152858  0.50383531  0.50311007  1
  Ni  Ni31  1  0.00425342  0.33555471  0.67152888  1
  Ni  Ni32  1  0.17188892  0.50523845  0.83673330  1
  Ni  Ni33  1  0.17129127  0.83584879  0.50442948  1
  Fe  Fe34  1  1.00388678  0.66962597  0.67031435  1
  Fe  Fe35  1  0.17038409  0.83874722  0.83748978  1
  Fe  Fe36  1  0.50345057  0.17042142  0.50387755  1
  Fe  Fe37  1  0.33824584  0.00424230  0.66900103  1
  Ni  Ni38  1  0.50452870  0.17067542  0.83544754  1
  Ni  Ni39  1  0.50276387  0.50422470  0.50416112  1
  Ni  Ni40  1  0.33534346  0.33814956  0.67045122  1
  Fe  Fe41  1  0.50516443  0.50333693  0.83628657  1
  Ni  Ni42  1  0.50434127  0.83672691  0.50354735  1
  Ni  Ni43  1  0.33861301  0.67036522  0.67114488  1
  Fe  Fe44  1  0.50459130  0.83826054  0.83582495  1
  Ni  Ni45  1  0.83661317  0.17023004  0.50444899  1
  Ni  Ni46  1  0.67190170  1.00236485  0.67010995  1
  Ni  Ni47  1  0.83487983  0.16907516  0.83688286  1
  Ni  Ni48  1  0.83753525  0.50380361  0.50430747  1
  Fe  Fe49  1  0.67004746  0.33747488  0.66940123  1
  Fe  Fe50  1  0.83720547  0.50299765  0.83602666  1
  Ni  Ni51  1  0.83639265  0.83771160  0.50319646  1
  Ni  Ni52  1  0.67008966  0.67187764  0.67100080  1
  Ni  Ni53  1  0.83754155  0.83819562  0.83685366  1
" 