2160,Ni53Fe32Cr14_10,-235.375395676291, 208.004711181494,Ni53Fe32Cr14,"# generated using pymatgen
 data_Cr9Fe17Ni28
_symmetry_space_group_name_H-M   'P 1'
_cell_length_a   7.43143341
_cell_length_b   7.43143341
_cell_length_c   10.50963391
_cell_angle_alpha   90.00000000
_cell_angle_beta   90.00000000
_cell_angle_gamma   90.00000000
_symmetry_Int_Tables_number   1
_chemical_formula_structural   Cr9Fe17Ni28
_chemical_formula_sum   'Cr9 Fe17 Ni28'
_cell_volume   580.40717066
_cell_formula_units_Z   1
loop_
 _symmetry_equiv_pos_site_id
 _symmetry_equiv_pos_as_xyz
  1  'x, y, z'
loop_
 _atom_site_type_symbol
 _atom_site_label
 _atom_site_symmetry_multiplicity
 _atom_site_fract_x
 _atom_site_fract_y
 _atom_site_fract_z
 _atom_site_occupancy
  Cr  Cr0  1  0.00255739  1.00158182  0.00319748  1
  Ni  Ni1  1  0.17049515  0.17020261  0.16987047  1
  Fe  Fe2  1  1.00136919  1.00200452  0.33327577  1
  Cr  Cr3  1  1.00233896  0.33773782  0.00315646  1
  Ni  Ni4  1  0.17023068  0.50381435  0.16952477  1
  Ni  Ni5  1  1.00217575  0.33735367  0.33422666  1
  Ni  Ni6  1  0.00258060  0.66824239  1.00237711  1
  Ni  Ni7  1  0.16668251  0.83349545  0.16878106  1
  Ni  Ni8  1  0.00351403  0.66555663  0.33280689  1
  Fe  Fe9  1  0.33660489  1.00044631  1.00182723  1
  Ni  Ni10  1  0.50253740  0.17083685  0.16614200  1
  Cr  Cr11  1  0.33880587  0.99954118  0.33256814  1
  Fe  Fe12  1  0.33775799  0.33646940  1.00219793  1
  Ni  Ni13  1  0.50163313  0.50166011  0.16776596  1
  Fe  Fe14  1  0.33482139  0.33976951  0.33460832  1
  Fe  Fe15  1  0.33564505  0.67024842  1.00186977  1
  Fe  Fe16  1  0.50312489  0.83381737  0.16695585  1
  Ni  Ni17  1  0.33680536  0.66861658  0.33469371  1
  Ni  Ni18  1  0.66589778  1.00205130  0.00387533  1
  Ni  Ni19  1  0.83452037  0.16758268  0.17033815  1
  Fe  Fe20  1  0.67046960  1.00024884  0.33364093  1
  Fe  Fe21  1  0.66879225  0.33641729  0.00280156  1
  Ni  Ni22  1  0.83525470  0.50504919  0.16859510  1
  Cr  Cr23  1  0.67041560  0.33624786  0.33436159  1
  Ni  Ni24  1  0.66772080  0.66953310  0.00389939  1
  Ni  Ni25  1  0.83631016  0.83413175  0.16870513  1
  Fe  Fe26  1  0.66791875  0.66893299  0.33456842  1
  Cr  Cr27  1  0.16921994  0.16970972  0.50239885  1
  Ni  Ni28  1  1.00142770  0.00299394  0.67170339  1
  Fe  Fe29  1  0.17374164  0.16809051  0.83500322  1
  Ni  Ni30  1  0.17065358  0.50393134  0.50202401  1
  Cr  Cr31  1  1.00121798  0.33778893  0.67033468  1
  Fe  Fe32  1  0.17330417  0.50511489  0.83554059  1
  Cr  Cr33  1  0.16693806  0.83336918  0.50451091  1
  Ni  Ni34  1  0.00241203  0.66792941  0.67199730  1
  Ni  Ni35  1  0.16708782  0.83455845  0.83376231  1
  Cr  Cr36  1  0.50325251  0.17081846  0.50547221  1
  Ni  Ni37  1  0.33719269  1.00092832  0.67234602  1
  Ni  Ni38  1  0.50351959  0.17038510  0.83562199  1
  Ni  Ni39  1  0.50191990  0.50293611  0.50401787  1
  Ni  Ni40  1  0.33673028  0.33781186  0.66966510  1
  Ni  Ni41  1  0.50375257  0.50138795  0.83501815  1
  Fe  Fe42  1  0.50134338  0.83306395  0.50420858  1
  Ni  Ni43  1  0.33712207  0.66856873  0.66950545  1
  Ni  Ni44  1  0.50243300  0.83534585  0.83438028  1
  Fe  Fe45  1  0.83598040  0.16994453  0.50257899  1
  Ni  Ni46  1  0.66813498  1.00233834  0.66948231  1
  Fe  Fe47  1  0.83152338  0.16658174  0.83593048  1
  Fe  Fe48  1  0.83668875  0.50323695  0.50217834  1
  Ni  Ni49  1  0.66920052  0.33672382  0.67105809  1
  Fe  Fe50  1  0.83219740  0.50637815  0.83680524  1
  Cr  Cr51  1  0.83616666  0.83570171  0.50313825  1
  Ni  Ni52  1  0.66722198  0.66786055  0.66825242  1
  Fe  Fe53  1  0.83203086  0.83430557  0.83582787  1
" 