4034,Ni53Fe32Cr14_6,-235.267345192408, 203.283969539295,Ni53Fe32Cr14,"# generated using pymatgen
 data_Cr9Fe17Ni28
_symmetry_space_group_name_H-M   'P 1'
_cell_length_a   7.43491725
_cell_length_b   7.43491725
_cell_length_c   10.51456082
_cell_angle_alpha   90.00000000
_cell_angle_beta   90.00000000
_cell_angle_gamma   90.00000000
_symmetry_Int_Tables_number   1
_chemical_formula_structural   Cr9Fe17Ni28
_chemical_formula_sum   'Cr9 Fe17 Ni28'
_cell_volume   581.22383572
_cell_formula_units_Z   1
loop_
 _symmetry_equiv_pos_site_id
 _symmetry_equiv_pos_as_xyz
  1  'x, y, z'
loop_
 _atom_site_type_symbol
 _atom_site_label
 _atom_site_symmetry_multiplicity
 _atom_site_fract_x
 _atom_site_fract_y
 _atom_site_fract_z
 _atom_site_occupancy
  Ni  Ni0  1  1.00179153  0.00227549  1.00110580  1
  Cr  Cr1  1  0.16853003  0.17014827  0.16714394  1
  Cr  Cr2  1  1.00077072  1.00104706  0.33736993  1
  Ni  Ni3  1  1.00186102  0.33468338  1.00062234  1
  Ni  Ni4  1  0.17007848  0.50352892  0.16867029  1
  Ni  Ni5  1  1.00129160  0.33864025  0.33668813  1
  Fe  Fe6  1  0.00565976  0.66869698  1.00184334  1
  Fe  Fe7  1  0.16829045  0.83323351  0.16821640  1
  Ni  Ni8  1  0.00242455  0.66702511  0.33568903  1
  Ni  Ni9  1  0.33498825  1.00215745  1.00049033  1
  Fe  Fe10  1  0.50331275  0.17093360  0.16854744  1
  Ni  Ni11  1  0.33886410  1.00146218  0.33686571  1
  Ni  Ni12  1  0.33646593  0.33635092  1.00147336  1
  Ni  Ni13  1  0.49950577  0.50140614  0.16851316  1
  Fe  Fe14  1  0.33691809  0.33732854  0.33520524  1
  Ni  Ni15  1  0.33390814  0.66797884  1.00203898  1
  Cr  Cr16  1  0.50147949  0.83612891  0.16954153  1
  Fe  Fe17  1  0.33457883  0.66833591  0.33657036  1
  Fe  Fe18  1  0.66933910  0.00583081  1.00148308  1
  Ni  Ni19  1  0.83399819  0.16796965  0.16748846  1
  Ni  Ni20  1  0.66712379  0.00259533  0.33567446  1
  Ni  Ni21  1  0.66815596  0.33360022  1.00200123  1
  Cr  Cr22  1  0.83698777  0.50072208  0.16914465  1
  Fe  Fe23  1  0.66874581  0.33453067  0.33609587  1
  Cr  Cr24  1  0.66827221  0.66752450  0.99990557  1
  Fe  Fe25  1  0.83691450  0.83642640  0.16969173  1
  Ni  Ni26  1  0.66878974  0.66884123  0.33864779  1
  Cr  Cr27  1  0.16767273  0.16981359  0.50402117  1
  Ni  Ni28  1  1.00109081  0.00381975  0.66871575  1
  Fe  Fe29  1  0.16761981  0.16984710  0.83664088  1
  Ni  Ni30  1  0.16916647  0.50338658  0.50072075  1
  Ni  Ni31  1  1.00087892  0.33498548  0.66917896  1
  Ni  Ni32  1  0.16968216  0.50196015  0.83708845  1
  Ni  Ni33  1  0.16993031  0.83328303  0.50123476  1
  Cr  Cr34  1  0.00241291  0.66824955  0.66775621  1
  Fe  Fe35  1  0.16913586  0.83629292  0.83666106  1
  Ni  Ni36  1  0.50393653  0.16898387  0.49940615  1
  Cr  Cr37  1  0.33483063  1.00112480  0.66857815  1
  Ni  Ni38  1  0.50286816  0.16928418  0.83866565  1
  Ni  Ni39  1  0.50222386  0.50357063  0.50296832  1
  Fe  Fe40  1  0.33551862  0.33783698  0.66975592  1
  Fe  Fe41  1  0.50112596  0.50071832  0.83539583  1
  Ni  Ni42  1  0.50229181  0.83393038  0.50144232  1
  Ni  Ni43  1  0.33728099  0.66718763  0.66796801  1
  Fe  Fe44  1  0.50078996  0.83499789  0.83613785  1
  Ni  Ni45  1  0.83444371  0.16974723  0.50246474  1
  Cr  Cr46  1  0.67000820  0.00232539  0.66770729  1
  Ni  Ni47  1  0.83615733  0.16894114  0.83652743  1
  Ni  Ni48  1  0.83509076  0.50173921  0.50195157  1
  Fe  Fe49  1  0.66924226  0.33622034  0.66896907  1
  Fe  Fe50  1  0.83563997  0.49919793  0.83542554  1
  Ni  Ni51  1  0.83426058  0.83499621  0.50115087  1
  Fe  Fe52  1  0.66777879  0.66774169  0.66765540  1
  Fe  Fe53  1  0.83655714  0.83709748  0.83576554  1
" 