5096,Ni53Fe44Cr1_13,-240.854906245855, 224.953879433927,Ni53Fe44Cr1,"# generated using pymatgen
 data_CrFe24Ni29
_symmetry_space_group_name_H-M   'P 1'
_cell_length_a   7.40370838
_cell_length_b   7.40370838
_cell_length_c   10.47042481
_cell_angle_alpha   90.00000000
_cell_angle_beta   90.00000000
_cell_angle_gamma   90.00000000
_symmetry_Int_Tables_number   1
_chemical_formula_structural   CrFe24Ni29
_chemical_formula_sum   'Cr1 Fe24 Ni29'
_cell_volume   573.93526560
_cell_formula_units_Z   1
loop_
 _symmetry_equiv_pos_site_id
 _symmetry_equiv_pos_as_xyz
  1  'x, y, z'
loop_
 _atom_site_type_symbol
 _atom_site_label
 _atom_site_symmetry_multiplicity
 _atom_site_fract_x
 _atom_site_fract_y
 _atom_site_fract_z
 _atom_site_occupancy
  Fe  Fe0  1  1.00265715  0.00580873  1.00373627  1
  Ni  Ni1  1  0.16964891  0.16965859  0.17095981  1
  Fe  Fe2  1  0.00549165  0.00520627  0.33861520  1
  Ni  Ni3  1  1.00372781  0.34059135  0.00512643  1
  Ni  Ni4  1  0.17075114  0.50396987  0.17067215  1
  Fe  Fe5  1  0.00454942  0.33757705  0.33697189  1
  Ni  Ni6  1  0.00500730  0.67087459  1.00419268  1
  Ni  Ni7  1  0.17152931  0.83935955  0.17028707  1
  Ni  Ni8  1  1.00397412  0.67095665  0.33699961  1
  Fe  Fe9  1  0.33760613  0.00465795  0.00485836  1
  Fe  Fe10  1  0.50303093  0.17165986  0.17187405  1
  Ni  Ni11  1  0.33928274  0.00495666  0.33794697  1
  Fe  Fe12  1  0.33786060  0.33793758  0.00504517  1
  Ni  Ni13  1  0.50606572  0.50440983  0.16977724  1
  Ni  Ni14  1  0.33942536  0.33661041  0.33618321  1
  Fe  Fe15  1  0.33893081  0.67075350  0.00442579  1
  Ni  Ni16  1  0.50334899  0.83749122  0.17181311  1
  Fe  Fe17  1  0.33761947  0.66986044  0.33673508  1
  Ni  Ni18  1  0.66771871  1.00401493  0.00577983  1
  Fe  Fe19  1  0.83725245  0.17160321  0.17069291  1
  Fe  Fe20  1  0.67080257  0.00498791  0.33824243  1
  Ni  Ni21  1  0.66997307  0.33549558  1.00409190  1
  Ni  Ni22  1  0.83629349  0.50252794  0.17132943  1
  Ni  Ni23  1  0.66968134  0.33682328  0.33760073  1
  Fe  Fe24  1  0.67160886  0.67007898  1.00397153  1
  Fe  Fe25  1  0.83840901  0.83577598  0.17135274  1
  Fe  Fe26  1  0.66995002  0.66955993  0.33800957  1
  Fe  Fe27  1  0.17158859  0.17157912  0.50434902  1
  Ni  Ni28  1  1.00426455  0.00445164  0.67166844  1
  Fe  Fe29  1  0.17115045  0.17278288  0.83742553  1
  Fe  Fe30  1  0.17133468  0.50310419  0.50213021  1
  Ni  Ni31  1  0.00531471  0.33800609  0.66995908  1
  Fe  Fe32  1  0.17251239  0.50445459  0.83924084  1
  Ni  Ni33  1  0.17248149  0.84027348  0.50356929  1
  Cr  Cr34  1  1.00361352  0.66993337  0.67173757  1
  Ni  Ni35  1  0.17212015  0.84145773  0.83943601  1
  Ni  Ni36  1  0.50446307  0.17226672  0.50460553  1
  Ni  Ni37  1  0.33889523  0.00539459  0.67051967  1
  Fe  Fe38  1  0.50482542  0.17035404  0.83677775  1
  Ni  Ni39  1  0.50466281  0.50291024  0.50522695  1
  Ni  Ni40  1  0.33837926  0.33758271  0.67137470  1
  Ni  Ni41  1  0.50647579  0.50365925  0.83760317  1
  Fe  Fe42  1  0.50588388  0.83832854  0.50422758  1
  Fe  Fe43  1  0.33809109  0.67192207  0.67126800  1
  Ni  Ni44  1  0.50244207  0.83771328  0.83631923  1
  Ni  Ni45  1  0.83773792  0.17149818  0.50487643  1
  Ni  Ni46  1  0.66978090  1.00377453  0.66972395  1
  Fe  Fe47  1  0.83677512  0.17019567  0.83714519  1
  Ni  Ni48  1  0.83524668  0.50243466  0.50337607  1
  Fe  Fe49  1  0.67153365  0.33615335  0.67050879  1
  Ni  Ni50  1  0.83577059  0.50057203  0.83777366  1
  Ni  Ni51  1  0.83914050  0.83871016  0.50401171  1
  Fe  Fe52  1  0.66934297  0.67063784  0.67059762  1
  Fe  Fe53  1  0.83496233  0.83762803  0.83824367  1
" 