7163,Ni53Fe44Cr1_12,-240.927659139934, 227.834879791861,Ni53Fe44Cr1,"# generated using pymatgen
 data_CrFe24Ni29
_symmetry_space_group_name_H-M   'P 1'
_cell_length_a   7.39903736
_cell_length_b   7.39903736
_cell_length_c   10.46381898
_cell_angle_alpha   90.00000000
_cell_angle_beta   90.00000000
_cell_angle_gamma   90.00000000
_symmetry_Int_Tables_number   1
_chemical_formula_structural   CrFe24Ni29
_chemical_formula_sum   'Cr1 Fe24 Ni29'
_cell_volume   572.84965858
_cell_formula_units_Z   1
loop_
 _symmetry_equiv_pos_site_id
 _symmetry_equiv_pos_as_xyz
  1  'x, y, z'
loop_
 _atom_site_type_symbol
 _atom_site_label
 _atom_site_symmetry_multiplicity
 _atom_site_fract_x
 _atom_site_fract_y
 _atom_site_fract_z
 _atom_site_occupancy
  Ni  Ni0  1  1.00401491  1.00450289  1.00401306  1
  Ni  Ni1  1  0.17087734  0.17099473  0.17147377  1
  Ni  Ni2  1  1.00405303  0.00544639  0.33888129  1
  Fe  Fe3  1  0.00480591  0.33823295  0.00476305  1
  Fe  Fe4  1  0.17030019  0.50348814  0.17028469  1
  Fe  Fe5  1  1.00405743  0.33698694  0.33859316  1
  Ni  Ni6  1  0.00461497  0.67222855  0.00567852  1
  Fe  Fe7  1  0.16964915  0.83938052  0.16970363  1
  Fe  Fe8  1  1.00233370  0.67184128  0.33827825  1
  Fe  Fe9  1  0.33715818  1.00371022  0.00502096  1
  Fe  Fe10  1  0.50475812  0.17124799  0.17110414  1
  Ni  Ni11  1  0.33766403  0.00672596  0.33767927  1
  Ni  Ni12  1  0.33812555  0.33844392  0.00500509  1
  Fe  Fe13  1  0.50584355  0.50359558  0.16934987  1
  Fe  Fe14  1  0.33763553  0.33513626  0.33806259  1
  Ni  Ni15  1  0.33811664  0.66996770  1.00410283  1
  Ni  Ni16  1  0.50496782  0.83778415  0.16907366  1
  Cr  Cr17  1  0.33814120  0.67058275  0.33773212  1
  Fe  Fe18  1  0.67142551  1.00387014  1.00431107  1
  Ni  Ni19  1  0.83914531  0.17211895  0.17118229  1
  Ni  Ni20  1  0.67206741  0.00463944  0.33738866  1
  Fe  Fe21  1  0.67152792  0.33880853  1.00399142  1
  Ni  Ni22  1  0.83766513  0.50473858  0.17118961  1
  Fe  Fe23  1  0.67209924  0.33728063  0.33824807  1
  Ni  Ni24  1  0.67105461  0.67142871  1.00418357  1
  Fe  Fe25  1  0.83797388  0.83830008  0.17076254  1
  Ni  Ni26  1  0.67271024  0.67147349  0.33854526  1
  Ni  Ni27  1  0.17079543  0.17177139  0.50456490  1
  Fe  Fe28  1  1.00417786  0.00600788  0.67189455  1
  Ni  Ni29  1  0.17101969  0.17085637  0.83775820  1
  Ni  Ni30  1  0.16992418  0.50317059  0.50533391  1
  Ni  Ni31  1  0.00515921  0.33832784  0.67207368  1
  Fe  Fe32  1  0.17142890  0.50427603  0.83740113  1
  Fe  Fe33  1  0.16972501  0.83875257  0.50560659  1
  Ni  Ni34  1  0.00509010  0.67095635  0.67076244  1
  Ni  Ni35  1  0.17122802  0.83806094  0.83794158  1
  Fe  Fe36  1  0.50470669  0.17155822  0.50529780  1
  Fe  Fe37  1  0.33774113  0.00557716  0.67083611  1
  Ni  Ni38  1  0.50433548  0.17209237  0.83818008  1
  Fe  Fe39  1  0.50548707  0.50305248  0.50608717  1
  Ni  Ni40  1  0.33784271  0.33814257  0.67043193  1
  Ni  Ni41  1  0.50467367  0.50508653  0.83774901  1
  Ni  Ni42  1  0.50533563  0.83817744  0.50643661  1
  Fe  Fe43  1  0.33798070  0.67039068  0.67138359  1
  Fe  Fe44  1  0.50487416  0.83872502  0.83813131  1
  Ni  Ni45  1  0.83885119  0.17211159  0.50452505  1
  Ni  Ni46  1  0.67146547  0.00529786  0.67127314  1
  Ni  Ni47  1  0.83843000  0.17118299  0.83808715  1
  Ni  Ni48  1  0.83818465  0.50436799  0.50476585  1
  Ni  Ni49  1  0.67078776  0.33675157  0.67122800  1
  Fe  Fe50  1  0.83811660  0.50455958  0.83772426  1
  Fe  Fe51  1  0.83823093  0.83797227  0.50482746  1
  Fe  Fe52  1  0.67157974  0.67026547  0.67109489  1
  Ni  Ni53  1  0.83821932  0.83773056  0.83817896  1
" 