7187,Ni53Fe44Cr1_14,-241.240498132951, 225.471204199057,Ni53Fe44Cr1,"# generated using pymatgen
 data_CrFe24Ni29
_symmetry_space_group_name_H-M   'P 1'
_cell_length_a   7.40374198
_cell_length_b   7.40374198
_cell_length_c   10.47047233
_cell_angle_alpha   90.00000000
_cell_angle_beta   90.00000000
_cell_angle_gamma   90.00000000
_symmetry_Int_Tables_number   1
_chemical_formula_structural   CrFe24Ni29
_chemical_formula_sum   'Cr1 Fe24 Ni29'
_cell_volume   573.94308020
_cell_formula_units_Z   1
loop_
 _symmetry_equiv_pos_site_id
 _symmetry_equiv_pos_as_xyz
  1  'x, y, z'
loop_
 _atom_site_type_symbol
 _atom_site_label
 _atom_site_symmetry_multiplicity
 _atom_site_fract_x
 _atom_site_fract_y
 _atom_site_fract_z
 _atom_site_occupancy
  Fe  Fe0  1  0.00503111  1.00395946  0.00438096  1
  Ni  Ni1  1  0.17048882  0.17029137  0.16986431  1
  Fe  Fe2  1  1.00359109  0.00492962  0.33743670  1
  Ni  Ni3  1  0.00450970  0.33879335  0.00454719  1
  Fe  Fe4  1  0.17125842  0.50409650  0.17118433  1
  Ni  Ni5  1  0.00443215  0.33888145  0.33797287  1
  Ni  Ni6  1  0.00530256  0.66941207  0.00430959  1
  Ni  Ni7  1  0.17125620  0.83757538  0.17173908  1
  Ni  Ni8  1  0.00517489  0.66977164  0.33766070  1
  Ni  Ni9  1  0.34009868  1.00384657  1.00416810  1
  Ni  Ni10  1  0.50455631  0.17103162  0.17070155  1
  Fe  Fe11  1  0.33772920  0.00492614  0.33704817  1
  Fe  Fe12  1  0.33773821  0.33727348  1.00417343  1
  Ni  Ni13  1  0.50486003  0.50462355  0.17101840  1
  Fe  Fe14  1  0.33766653  0.33720235  0.33825182  1
  Ni  Ni15  1  0.33674969  0.67188551  1.00401284  1
  Ni  Ni16  1  0.50345587  0.83716884  0.17017781  1
  Fe  Fe17  1  0.33791833  0.67069461  0.33675738  1
  Ni  Ni18  1  0.66907439  0.00464417  0.00479510  1
  Ni  Ni19  1  0.83778014  0.17169406  0.17129987  1
  Ni  Ni20  1  0.66935232  0.00490672  0.33740620  1
  Fe  Fe21  1  0.67090911  0.33728083  0.00463178  1
  Fe  Fe22  1  0.83788066  0.50359840  0.17114854  1
  Ni  Ni23  1  0.67107961  0.33553378  0.33860492  1
  Fe  Fe24  1  0.67060980  0.67104415  1.00386737  1
  Fe  Fe25  1  0.83709265  0.83853068  0.17152210  1
  Fe  Fe26  1  0.67159470  0.67065860  0.33848699  1
  Ni  Ni27  1  0.17153830  0.17151694  0.50523057  1
  Fe  Fe28  1  0.00595684  1.00420681  0.67100520  1
  Fe  Fe29  1  0.17049496  0.17142440  0.83738366  1
  Ni  Ni30  1  0.16937964  0.50391402  0.50453085  1
  Ni  Ni31  1  0.00572910  0.33895186  0.67030280  1
  Fe  Fe32  1  0.17005855  0.50378965  0.83709594  1
  Fe  Fe33  1  0.17053510  0.83715857  0.50437121  1
  Ni  Ni34  1  1.00421309  0.66952589  0.67085737  1
  Ni  Ni35  1  0.17113569  0.83720983  0.83651605  1
  Ni  Ni36  1  0.50289055  0.17113061  0.50302367  1
  Fe  Fe37  1  0.33574742  0.00450637  0.67118679  1
  Ni  Ni38  1  0.50397070  0.17171639  0.83910576  1
  Fe  Fe39  1  0.50436772  0.50413587  0.50413065  1
  Ni  Ni40  1  0.33634182  0.33721030  0.67093405  1
  Fe  Fe41  1  0.50450544  0.50407485  0.83782290  1
  Ni  Ni42  1  0.50409689  0.83734412  0.50384520  1
  Fe  Fe43  1  0.33721570  0.67047800  0.67124920  1
  Fe  Fe44  1  0.50405188  0.83730401  0.83879447  1
  Fe  Fe45  1  0.83838885  0.17199055  0.50295924  1
  Cr  Cr46  1  0.67011255  1.00386578  0.67053788  1
  Ni  Ni47  1  0.83771969  0.17312596  0.83756587  1
  Ni  Ni48  1  0.83833511  0.50511580  0.50461122  1
  Fe  Fe49  1  0.67145528  0.33994671  0.67096023  1
  Ni  Ni50  1  0.83766394  0.50396069  0.83742232  1
  Ni  Ni51  1  0.83795425  0.83517974  0.50388711  1
  Ni  Ni52  1  0.67152801  0.67095348  0.67062078  1
  Fe  Fe53  1  0.83828500  0.83687117  0.83774414  1
" 