4378,Ni53Fe17Cr28_15,-229.27495966613, 177.50733486955,Ni53Fe17Cr28,"# generated using pymatgen
 data_Cr16Fe9Ni29
_symmetry_space_group_name_H-M   'P 1'
_cell_length_a   7.46579775
_cell_length_b   7.46579775
_cell_length_c   10.55823243
_cell_angle_alpha   90.00000000
_cell_angle_beta   90.00000000
_cell_angle_gamma   90.00000000
_symmetry_Int_Tables_number   1
_chemical_formula_structural   Cr16Fe9Ni29
_chemical_formula_sum   'Cr16 Fe9 Ni29'
_cell_volume   588.49619593
_cell_formula_units_Z   1
loop_
 _symmetry_equiv_pos_site_id
 _symmetry_equiv_pos_as_xyz
  1  'x, y, z'
loop_
 _atom_site_type_symbol
 _atom_site_label
 _atom_site_symmetry_multiplicity
 _atom_site_fract_x
 _atom_site_fract_y
 _atom_site_fract_z
 _atom_site_occupancy
  Cr  Cr0  1  0.00380757  0.00201309  0.00130852  1
  Ni  Ni1  1  0.16786470  0.16773185  0.16789519  1
  Ni  Ni2  1  0.00221717  0.00019839  0.33259276  1
  Fe  Fe3  1  0.00037320  0.33436959  0.99914026  1
  Cr  Cr4  1  0.16644570  0.49771271  0.16926672  1
  Ni  Ni5  1  0.99948510  0.33189458  0.33323932  1
  Ni  Ni6  1  1.00003985  0.66526731  0.99901613  1
  Ni  Ni7  1  0.16480683  0.83455165  0.16868800  1
  Fe  Fe8  1  0.00163026  0.66522301  0.33522136  1
  Cr  Cr9  1  0.33056555  0.00284066  0.99741984  1
  Ni  Ni10  1  0.49679507  0.16985622  0.16746840  1
  Ni  Ni11  1  0.33080157  1.00004691  0.33345437  1
  Ni  Ni12  1  0.33434243  0.33195863  0.00085736  1
  Ni  Ni13  1  0.50105680  0.49658347  0.16537260  1
  Ni  Ni14  1  0.33407854  0.33233653  0.33363943  1
  Cr  Cr15  1  0.33171144  0.66696727  0.00105754  1
  Cr  Cr16  1  0.50003915  0.83351725  0.16796321  1
  Fe  Fe17  1  0.33133081  0.66640775  0.33518520  1
  Cr  Cr18  1  0.66647273  0.00443470  0.00103086  1
  Fe  Fe19  1  0.83487950  0.16983296  0.16801994  1
  Fe  Fe20  1  0.66591164  0.00303557  0.33641426  1
  Ni  Ni21  1  0.66709670  0.33435498  0.00163188  1
  Ni  Ni22  1  0.83409751  0.49943016  0.16257491  1
  Cr  Cr23  1  0.66684266  0.33437245  0.33402749  1
  Ni  Ni24  1  0.66857922  0.66244756  0.99979949  1
  Cr  Cr25  1  0.83474996  0.83180402  0.16881254  1
  Cr  Cr26  1  0.66600223  0.66357362  0.33584363  1
  Cr  Cr27  1  0.16761674  0.16928784  0.50022442  1
  Cr  Cr28  1  0.99994020  0.00071848  0.66757782  1
  Ni  Ni29  1  0.16789386  0.17262216  0.83270392  1
  Fe  Fe30  1  0.16573411  0.49930605  0.49985814  1
  Ni  Ni31  1  0.00078070  0.33481536  0.66800184  1
  Ni  Ni32  1  0.16344178  0.49686727  0.83234421  1
  Ni  Ni33  1  0.16565123  0.83248295  0.49818112  1
  Ni  Ni34  1  0.00176093  0.66516504  0.66509386  1
  Fe  Fe35  1  0.16701641  0.83249396  0.83215788  1
  Ni  Ni36  1  0.49857501  0.16556760  0.50080194  1
  Fe  Fe37  1  0.33478927  0.00119406  0.66670163  1
  Ni  Ni38  1  0.49895595  0.16640117  0.83149197  1
  Ni  Ni39  1  0.49714878  0.49883749  0.49856890  1
  Ni  Ni40  1  0.33256661  0.33288682  0.66640024  1
  Cr  Cr41  1  0.49913144  0.49842227  0.83662327  1
  Ni  Ni42  1  0.49966915  0.83615333  0.49944561  1
  Cr  Cr43  1  0.33177102  0.66707537  0.66491098  1
  Ni  Ni44  1  0.50136783  0.83617865  0.83217347  1
  Ni  Ni45  1  0.83450425  0.16600695  0.49868711  1
  Ni  Ni46  1  0.66559847  0.00129064  0.66396475  1
  Ni  Ni47  1  0.83390367  0.16867676  0.83398106  1
  Ni  Ni48  1  0.83800155  0.50046195  0.50190603  1
  Cr  Cr49  1  0.66764335  0.33096616  0.66413853  1
  Fe  Fe50  1  0.83577695  0.49678829  0.83438480  1
  Ni  Ni51  1  0.83471669  0.83387881  0.49892995  1
  Cr  Cr52  1  0.66731143  0.66659051  0.66492763  1
  Cr  Cr53  1  0.83122886  0.83062123  0.83339779  1
" 