4892,Ni53Fe17Cr28_8,-229.154939787519, 180.288968597839,Ni53Fe17Cr28,"# generated using pymatgen
 data_Cr16Fe9Ni29
_symmetry_space_group_name_H-M   'P 1'
_cell_length_a   7.46172459
_cell_length_b   7.46172459
_cell_length_c   10.55247211
_cell_angle_alpha   90.00000000
_cell_angle_beta   90.00000000
_cell_angle_gamma   90.00000000
_symmetry_Int_Tables_number   1
_chemical_formula_structural   Cr16Fe9Ni29
_chemical_formula_sum   'Cr16 Fe9 Ni29'
_cell_volume   587.53351184
_cell_formula_units_Z   1
loop_
 _symmetry_equiv_pos_site_id
 _symmetry_equiv_pos_as_xyz
  1  'x, y, z'
loop_
 _atom_site_type_symbol
 _atom_site_label
 _atom_site_symmetry_multiplicity
 _atom_site_fract_x
 _atom_site_fract_y
 _atom_site_fract_z
 _atom_site_occupancy
  Ni  Ni0  1  0.99933062  0.00052386  1.00016129  1
  Ni  Ni1  1  0.16536977  0.16563766  0.16847475  1
  Ni  Ni2  1  0.00317140  0.00230882  0.33527258  1
  Cr  Cr3  1  0.99883662  0.33334997  0.00059876  1
  Ni  Ni4  1  0.16634989  0.50291304  0.16720918  1
  Ni  Ni5  1  0.99838753  0.33088754  0.33234035  1
  Ni  Ni6  1  0.00191542  0.66765755  1.00025604  1
  Ni  Ni7  1  0.16891023  0.83252085  0.16778282  1
  Fe  Fe8  1  0.00120407  0.66787520  0.33283015  1
  Cr  Cr9  1  0.33356083  0.99904162  0.00163692  1
  Fe  Fe10  1  0.50149349  0.16705985  0.16687894  1
  Ni  Ni11  1  0.33036360  0.99724323  0.33332388  1
  Cr  Cr12  1  0.33475851  0.33533949  0.99963649  1
  Fe  Fe13  1  0.50099733  0.50143413  0.16798663  1
  Cr  Cr14  1  0.33292738  0.33392956  0.33254885  1
  Ni  Ni15  1  0.33339161  0.66725796  0.00133487  1
  Ni  Ni16  1  0.49706368  0.83294094  0.16803252  1
  Ni  Ni17  1  0.33543246  0.66984189  0.33244531  1
  Fe  Fe18  1  0.66787746  0.00233822  0.99923875  1
  Ni  Ni19  1  0.83337279  0.16950055  0.16736319  1
  Cr  Cr20  1  0.66778516  1.00011195  0.33438198  1
  Ni  Ni21  1  0.66740870  0.33235155  0.00094980  1
  Ni  Ni22  1  0.83379512  0.49765126  0.16843773  1
  Ni  Ni23  1  0.66950423  0.33595786  0.33180070  1
  Cr  Cr24  1  0.66583275  0.66583802  0.99871447  1
  Cr  Cr25  1  0.83553929  0.83403257  0.16587111  1
  Ni  Ni26  1  0.66443811  0.66505779  0.33517406  1
  Ni  Ni27  1  0.16495423  0.16515796  0.50078708  1
  Cr  Cr28  1  1.00003844  0.00206081  0.66532616  1
  Fe  Fe29  1  0.16697257  0.16932711  0.83293046  1
  Cr  Cr30  1  0.16714586  0.50061481  0.50116216  1
  Ni  Ni31  1  0.00175939  0.33341124  0.66855186  1
  Ni  Ni32  1  0.16672026  0.50058154  0.83264647  1
  Ni  Ni33  1  0.16592568  0.83492102  0.49721852  1
  Ni  Ni34  1  0.99827537  0.66551736  0.66786147  1
  Cr  Cr35  1  0.16549307  0.83081306  0.83653850  1
  Cr  Cr36  1  0.50001284  0.16827748  0.49985245  1
  Cr  Cr37  1  0.33336405  0.00149784  0.66577444  1
  Ni  Ni38  1  0.50280838  0.16800896  0.83499191  1
  Ni  Ni39  1  0.50145794  0.50245271  0.49970980  1
  Fe  Fe40  1  0.33218618  0.33463425  0.66857793  1
  Ni  Ni41  1  0.49977134  0.49991633  0.83356194  1
  Fe  Fe42  1  0.50035763  0.83088642  0.49865066  1
  Cr  Cr43  1  0.33612059  0.66597027  0.66693924  1
  Ni  Ni44  1  0.50238777  0.83314595  0.83359763  1
  Ni  Ni45  1  0.83624458  0.16625669  0.49835141  1
  Cr  Cr46  1  0.66766692  0.99757488  0.66776746  1
  Ni  Ni47  1  0.83224489  0.16705931  0.83535574  1
  Cr  Cr48  1  0.83259615  0.50095635  0.49961091  1
  Cr  Cr49  1  0.66756295  0.33569179  0.66775034  1
  Fe  Fe50  1  0.83374754  0.50082515  0.83308684  1
  Ni  Ni51  1  0.83478578  0.83333470  0.50092579  1
  Ni  Ni52  1  0.66703224  0.66711905  0.66723753  1
  Fe  Fe53  1  0.83261051  0.83264522  0.83381435  1
" 