1795,Ni53Fe17Cr28_10,-229.547436441317, 180.909117150205,Ni53Fe17Cr28,"# generated using pymatgen
 data_Cr16Fe9Ni29
_symmetry_space_group_name_H-M   'P 1'
_cell_length_a   7.46416990
_cell_length_b   7.46416990
_cell_length_c   10.55593030
_cell_angle_alpha   90.00000000
_cell_angle_beta   90.00000000
_cell_angle_gamma   90.00000000
_symmetry_Int_Tables_number   1
_chemical_formula_structural   Cr16Fe9Ni29
_chemical_formula_sum   'Cr16 Fe9 Ni29'
_cell_volume   588.11133077
_cell_formula_units_Z   1
loop_
 _symmetry_equiv_pos_site_id
 _symmetry_equiv_pos_as_xyz
  1  'x, y, z'
loop_
 _atom_site_type_symbol
 _atom_site_label
 _atom_site_symmetry_multiplicity
 _atom_site_fract_x
 _atom_site_fract_y
 _atom_site_fract_z
 _atom_site_occupancy
  Ni  Ni0  1  0.99737791  0.99859258  0.00027522  1
  Cr  Cr1  1  0.16494144  0.16662978  0.16886665  1
  Ni  Ni2  1  0.99938075  0.00165559  0.33508653  1
  Fe  Fe3  1  0.99673991  0.33304091  0.00127784  1
  Ni  Ni4  1  0.16590910  0.50023442  0.16533376  1
  Ni  Ni5  1  0.99883173  0.33235037  0.33286902  1
  Ni  Ni6  1  0.99819405  0.66764502  0.00116860  1
  Fe  Fe7  1  0.16554513  0.83518193  0.16482319  1
  Cr  Cr8  1  0.00027854  0.66811658  0.33206409  1
  Ni  Ni9  1  0.33432628  0.99935495  0.99944219  1
  Ni  Ni10  1  0.50264520  0.16688694  0.16736975  1
  Ni  Ni11  1  0.33217490  0.00124347  0.33422836  1
  Cr  Cr12  1  0.33552386  0.33246629  0.00094929  1
  Ni  Ni13  1  0.50008448  0.49894758  0.16773333  1
  Ni  Ni14  1  0.33339395  0.33258421  0.33354580  1
  Ni  Ni15  1  0.33269240  0.66753746  0.00208057  1
  Cr  Cr16  1  0.50298352  0.83575666  0.16465631  1
  Cr  Cr17  1  0.33231914  0.66693404  0.33264106  1
  Ni  Ni18  1  0.66904450  0.00163501  0.99864883  1
  Ni  Ni19  1  0.83219802  0.16522702  0.16763842  1
  Ni  Ni20  1  0.66898777  0.00201073  0.33319499  1
  Ni  Ni21  1  0.66903086  0.33235652  0.00072175  1
  Fe  Fe22  1  0.83217191  0.49828477  0.16559504  1
  Ni  Ni23  1  0.66834495  0.33210774  0.33289151  1
  Ni  Ni24  1  0.66923914  0.66646610  0.99947779  1
  Ni  Ni25  1  0.83374464  0.83590781  0.16594279  1
  Cr  Cr26  1  0.66788672  0.66596185  0.33536889  1
  Ni  Ni27  1  0.16484824  0.16637105  0.50042920  1
  Fe  Fe28  1  0.99966751  0.00176424  0.66592808  1
  Cr  Cr29  1  0.16545616  0.16700477  0.83182405  1
  Cr  Cr30  1  0.16544397  0.49601906  0.50190138  1
  Ni  Ni31  1  0.99852433  0.33243322  0.66710589  1
  Cr  Cr32  1  0.16378305  0.49966637  0.83351604  1
  Fe  Fe33  1  0.16593451  0.83778758  0.50052221  1
  Fe  Fe34  1  0.99811503  0.66698136  0.66724902  1
  Cr  Cr35  1  0.16670483  0.83384710  0.83505272  1
  Cr  Cr36  1  0.49938499  0.16532203  0.49788071  1
  Ni  Ni37  1  0.33255056  0.00084794  0.66666168  1
  Fe  Fe38  1  0.50148255  0.16489040  0.83492660  1
  Fe  Fe39  1  0.50128018  0.49729346  0.49908848  1
  Ni  Ni40  1  0.33172690  0.33052962  0.66576911  1
  Cr  Cr41  1  0.50086537  0.50218860  0.83360709  1
  Ni  Ni42  1  0.49998752  0.83502247  0.49940481  1
  Cr  Cr43  1  0.33445469  0.66873557  0.66508018  1
  Ni  Ni44  1  0.50153271  0.83509592  0.83621441  1
  Ni  Ni45  1  0.83689883  0.16780786  0.49823112  1
  Cr  Cr46  1  0.66784620  1.00007801  0.66896004  1
  Ni  Ni47  1  0.83472675  0.16670266  0.83530556  1
  Ni  Ni48  1  0.83528357  0.49840245  0.49998096  1
  Cr  Cr49  1  0.66895390  0.33245967  0.66758834  1
  Ni  Ni50  1  0.83472937  0.50020035  0.83543541  1
  Fe  Fe51  1  0.83467792  0.83655701  0.49954691  1
  Cr  Cr52  1  0.66916951  0.66776601  0.66514283  1
  Ni  Ni53  1  0.83238956  0.83351835  0.83416513  1
" 