6787,Ni53Fe17Cr28_16,-229.245746806436, 171.403628349141,Ni53Fe17Cr28,"# generated using pymatgen
 data_Cr16Fe9Ni29
_symmetry_space_group_name_H-M   'P 1'
_cell_length_a   7.46480987
_cell_length_b   7.46480987
_cell_length_c   10.55683536
_cell_angle_alpha   90.00000000
_cell_angle_beta   90.00000000
_cell_angle_gamma   90.00000000
_symmetry_Int_Tables_number   1
_chemical_formula_structural   Cr16Fe9Ni29
_chemical_formula_sum   'Cr16 Fe9 Ni29'
_cell_volume   588.26261667
_cell_formula_units_Z   1
loop_
 _symmetry_equiv_pos_site_id
 _symmetry_equiv_pos_as_xyz
  1  'x, y, z'
loop_
 _atom_site_type_symbol
 _atom_site_label
 _atom_site_symmetry_multiplicity
 _atom_site_fract_x
 _atom_site_fract_y
 _atom_site_fract_z
 _atom_site_occupancy
  Ni  Ni0  1  0.00032602  0.00036163  0.99819334  1
  Cr  Cr1  1  0.16757303  0.16619091  0.16457345  1
  Cr  Cr2  1  0.00041787  0.99693166  0.33581756  1
  Ni  Ni3  1  0.00157539  0.33364236  0.99808217  1
  Cr  Cr4  1  0.16540635  0.50096098  0.16474472  1
  Cr  Cr5  1  0.00062179  0.33702562  0.33312506  1
  Ni  Ni6  1  0.99940773  0.66644871  0.99973209  1
  Cr  Cr7  1  0.16574520  0.83332617  0.16530145  1
  Ni  Ni8  1  0.99563905  0.66724374  0.33515377  1
  Fe  Fe9  1  0.33314629  0.99902380  0.99671750  1
  Cr  Cr10  1  0.49891438  0.16435286  0.16739517  1
  Ni  Ni11  1  0.33647168  0.99930357  0.33600322  1
  Ni  Ni12  1  0.33066798  0.33281322  0.99808734  1
  Cr  Cr13  1  0.50099249  0.50276211  0.16534049  1
  Cr  Cr14  1  0.33267892  0.33185934  0.33646872  1
  Ni  Ni15  1  0.33394573  0.66838626  0.99777251  1
  Fe  Fe16  1  0.50328366  0.83351584  0.16643856  1
  Cr  Cr17  1  0.33414790  0.66891425  0.33603744  1
  Fe  Fe18  1  0.66682977  0.99765215  0.99914072  1
  Cr  Cr19  1  0.83397353  0.16456002  0.16575585  1
  Ni  Ni20  1  0.66398752  0.99471209  0.33328361  1
  Cr  Cr21  1  0.66869631  0.33391932  0.99738292  1
  Ni  Ni22  1  0.83347863  0.50542681  0.16592882  1
  Cr  Cr23  1  0.66702591  0.33572821  0.33586973  1
  Ni  Ni24  1  0.66711214  0.66971929  0.00247976  1
  Ni  Ni25  1  0.83126888  0.83044050  0.16739515  1
  Ni  Ni26  1  0.66956456  0.67000773  0.33343806  1
  Ni  Ni27  1  0.16930987  0.16522550  0.50184300  1
  Ni  Ni28  1  0.00392273  0.00124834  0.66662937  1
  Ni  Ni29  1  0.16623582  0.16721010  0.83438155  1
  Fe  Fe30  1  0.16543038  0.50153547  0.50304980  1
  Ni  Ni31  1  0.00208676  0.33374843  0.66847042  1
  Ni  Ni32  1  0.16649042  0.49947768  0.83412003  1
  Ni  Ni33  1  0.16710435  0.83488203  0.50175331  1
  Fe  Fe34  1  0.00152986  0.66681828  0.66567669  1
  Ni  Ni35  1  0.16812934  0.83380424  0.83344228  1
  Fe  Fe36  1  0.49756041  0.16467313  0.50116312  1
  Ni  Ni37  1  0.33148908  0.00083357  0.66701670  1
  Ni  Ni38  1  0.49831301  0.16624083  0.83290972  1
  Ni  Ni39  1  0.50156761  0.50146490  0.50222620  1
  Ni  Ni40  1  0.33151503  0.33222455  0.66560941  1
  Cr  Cr41  1  0.49876901  0.50123957  0.83259386  1
  Ni  Ni42  1  0.49981312  0.83187945  0.49859938  1
  Fe  Fe43  1  0.33260254  0.66857601  0.66666550  1
  Ni  Ni44  1  0.49780160  0.83362273  0.83576802  1
  Cr  Cr45  1  0.83439079  0.16588101  0.50126900  1
  Cr  Cr46  1  0.66520526  0.99836156  0.66752164  1
  Ni  Ni47  1  0.83589423  0.16786990  0.83402034  1
  Ni  Ni48  1  0.83175416  0.50365826  0.50132589  1
  Fe  Fe49  1  0.66693569  0.33413283  0.66689505  1
  Fe  Fe50  1  0.83639275  0.49950723  0.83297640  1
  Ni  Ni51  1  0.83352740  0.82973504  0.49850873  1
  Ni  Ni52  1  0.66642681  0.66550980  0.66449952  1
  Cr  Cr53  1  0.83499710  0.83350422  0.83349974  1
" 