3680,Ni53Fe17Cr28_3,-229.486079835709, 180.46805639675,Ni53Fe17Cr28,"# generated using pymatgen
 data_Cr16Fe9Ni29
_symmetry_space_group_name_H-M   'P 1'
_cell_length_a   7.46162066
_cell_length_b   7.46162066
_cell_length_c   10.55232514
_cell_angle_alpha   90.00000000
_cell_angle_beta   90.00000000
_cell_angle_gamma   90.00000000
_symmetry_Int_Tables_number   1
_chemical_formula_structural   Cr16Fe9Ni29
_chemical_formula_sum   'Cr16 Fe9 Ni29'
_cell_volume   587.50896415
_cell_formula_units_Z   1
loop_
 _symmetry_equiv_pos_site_id
 _symmetry_equiv_pos_as_xyz
  1  'x, y, z'
loop_
 _atom_site_type_symbol
 _atom_site_label
 _atom_site_symmetry_multiplicity
 _atom_site_fract_x
 _atom_site_fract_y
 _atom_site_fract_z
 _atom_site_occupancy
  Ni  Ni0  1  0.00524239  0.00159830  1.00023341  1
  Fe  Fe1  1  0.16764342  0.16482867  0.16666711  1
  Ni  Ni2  1  0.00331748  0.00113986  0.33425580  1
  Ni  Ni3  1  0.00082338  0.33419714  0.99967148  1
  Cr  Cr4  1  0.16512369  0.49846379  0.16689726  1
  Ni  Ni5  1  0.99993584  0.33195917  0.33366370  1
  Fe  Fe6  1  0.00072240  0.66648343  0.99874936  1
  Fe  Fe7  1  0.16811408  0.83678953  0.16710442  1
  Cr  Cr8  1  0.00164542  0.66801895  0.33574565  1
  Ni  Ni9  1  0.33210460  0.99998058  0.00104486  1
  Ni  Ni10  1  0.49778999  0.16379026  0.16817573  1
  Ni  Ni11  1  0.33348996  1.00020555  0.33251746  1
  Fe  Fe12  1  0.33236249  0.33011042  0.99949889  1
  Cr  Cr13  1  0.50148675  0.50078573  0.16761324  1
  Cr  Cr14  1  0.33404555  0.33125166  0.33529112  1
  Cr  Cr15  1  0.33484409  0.66901753  0.99910831  1
  Ni  Ni16  1  0.49945906  0.83652325  0.16826257  1
  Cr  Cr17  1  0.33484258  0.67057073  0.33721653  1
  Cr  Cr18  1  0.66345897  0.00153188  0.99790092  1
  Cr  Cr19  1  0.83478511  0.16714273  0.17000464  1
  Ni  Ni20  1  0.66441155  0.99989960  0.33597774  1
  Cr  Cr21  1  0.66692652  0.33508710  0.99961729  1
  Ni  Ni22  1  0.83513273  0.50066199  0.16676478  1
  Ni  Ni23  1  0.66670866  0.33368972  0.33322335  1
  Fe  Fe24  1  0.66786970  0.66776577  1.00005466  1
  Cr  Cr25  1  0.83336353  0.83326768  0.16715312  1
  Ni  Ni26  1  0.66612030  0.66737805  0.33272141  1
  Ni  Ni27  1  0.16869190  0.16638227  0.49931999  1
  Cr  Cr28  1  0.00477218  0.99988126  0.66643343  1
  Ni  Ni29  1  0.17003022  0.16813316  0.83562173  1
  Fe  Fe30  1  0.16841933  0.49941464  0.50335375  1
  Ni  Ni31  1  0.00106221  0.33522481  0.66759612  1
  Ni  Ni32  1  0.16639214  0.49956069  0.83173133  1
  Ni  Ni33  1  0.16847925  0.83549258  0.50093809  1
  Ni  Ni34  1  0.00364495  0.66566483  0.66788830  1
  Ni  Ni35  1  0.16940847  0.83314798  0.83444133  1
  Ni  Ni36  1  0.49837984  0.16609387  0.50090466  1
  Ni  Ni37  1  0.33400453  0.99925318  0.66773055  1
  Ni  Ni38  1  0.49565418  0.16626498  0.83149730  1
  Ni  Ni39  1  0.49986557  0.49974559  0.50113395  1
  Fe  Fe40  1  0.33254439  0.33309947  0.66637425  1
  Fe  Fe41  1  0.49790055  0.49973961  0.83176809  1
  Ni  Ni42  1  0.49933258  0.83521474  0.49972940  1
  Ni  Ni43  1  0.33244751  0.66882159  0.66619399  1
  Ni  Ni44  1  0.49681656  0.83510546  0.83283558  1
  Cr  Cr45  1  0.83266097  0.16625940  0.49990951  1
  Fe  Fe46  1  0.66354215  1.00019836  0.66574376  1
  Cr  Cr47  1  0.83476764  0.16790376  0.83060138  1
  Cr  Cr48  1  0.83368725  0.49982998  0.49902295  1
  Ni  Ni49  1  0.66527171  0.33387446  0.66792546  1
  Ni  Ni50  1  0.83635155  0.50047629  0.83543609  1
  Ni  Ni51  1  0.83323820  0.83367309  0.49946552  1
  Cr  Cr52  1  0.66554607  0.66653426  0.66769303  1
  Cr  Cr53  1  0.83495535  0.83250815  0.83321317  1
" 