2293,Ni53Fe44Cr1_7,-240.904874324168, 229.211584665911,Ni53Fe44Cr1,"# generated using pymatgen
 data_CrFe24Ni29
_symmetry_space_group_name_H-M   'P 1'
_cell_length_a   7.40122465
_cell_length_b   7.40122465
_cell_length_c   10.46691228
_cell_angle_alpha   90.00000000
_cell_angle_beta   90.00000000
_cell_angle_gamma   90.00000000
_symmetry_Int_Tables_number   1
_chemical_formula_structural   CrFe24Ni29
_chemical_formula_sum   'Cr1 Fe24 Ni29'
_cell_volume   573.35784344
_cell_formula_units_Z   1
loop_
 _symmetry_equiv_pos_site_id
 _symmetry_equiv_pos_as_xyz
  1  'x, y, z'
loop_
 _atom_site_type_symbol
 _atom_site_label
 _atom_site_symmetry_multiplicity
 _atom_site_fract_x
 _atom_site_fract_y
 _atom_site_fract_z
 _atom_site_occupancy
  Ni  Ni0  1  1.00280834  0.00583439  0.00579235  1
  Ni  Ni1  1  0.17096859  0.17117849  0.17130809  1
  Fe  Fe2  1  1.00403924  1.00340191  0.33709647  1
  Ni  Ni3  1  0.00476659  0.33691719  1.00361487  1
  Fe  Fe4  1  0.17047953  0.50420553  0.17147543  1
  Fe  Fe5  1  1.00431642  0.33818808  0.33798253  1
  Fe  Fe6  1  1.00257136  0.67004698  0.00551459  1
  Fe  Fe7  1  0.17039082  0.83850237  0.17125969  1
  Ni  Ni8  1  1.00428827  0.67073214  0.33769336  1
  Fe  Fe9  1  0.33897973  0.00579221  0.00526499  1
  Fe  Fe10  1  0.50504101  0.17053077  0.17150403  1
  Ni  Ni11  1  0.33811424  1.00416528  0.33750185  1
  Ni  Ni12  1  0.33705357  0.33879739  1.00384852  1
  Fe  Fe13  1  0.50476467  0.50432803  0.17005121  1
  Fe  Fe14  1  0.33796165  0.33810420  0.33784432  1
  Ni  Ni15  1  0.33934231  0.66980466  0.00521743  1
  Fe  Fe16  1  0.50495611  0.83848377  0.17149854  1
  Ni  Ni17  1  0.33766983  0.67150725  0.33863932  1
  Ni  Ni18  1  0.67230728  1.00354588  1.00346759  1
  Ni  Ni19  1  0.83847051  0.17065276  0.17071385  1
  Ni  Ni20  1  0.67094785  1.00416942  0.33854702  1
  Ni  Ni21  1  0.67152146  0.33803310  0.00455451  1
  Fe  Fe22  1  0.83809588  0.50412231  0.17105202  1
  Fe  Fe23  1  0.67106532  0.33782690  0.33832420  1
  Ni  Ni24  1  0.67042655  0.67175955  1.00435769  1
  Ni  Ni25  1  0.83761796  0.83808561  0.17093896  1
  Ni  Ni26  1  0.67138155  0.67151158  0.33806833  1
  Fe  Fe27  1  0.17138729  0.17128982  0.50483380  1
  Ni  Ni28  1  1.00396896  0.00545753  0.66911237  1
  Fe  Fe29  1  0.17090909  0.17279869  0.83803179  1
  Ni  Ni30  1  0.17058669  0.50468422  0.50499442  1
  Ni  Ni31  1  1.00437709  0.33748298  0.67137574  1
  Fe  Fe32  1  0.17145407  0.50326587  0.83752833  1
  Fe  Fe33  1  0.17133719  0.83795781  0.50443489  1
  Fe  Fe34  1  1.00374985  0.66937092  0.66970746  1
  Cr  Cr35  1  0.17152370  0.83837191  0.83875525  1
  Ni  Ni36  1  0.50449176  0.16994440  0.50407987  1
  Ni  Ni37  1  0.33802157  0.00512308  0.67057725  1
  Fe  Fe38  1  0.50508716  0.17139786  0.83718896  1
  Fe  Fe39  1  0.50490641  0.50392456  0.50482633  1
  Ni  Ni40  1  0.33759964  0.33780221  0.67095341  1
  Ni  Ni41  1  0.50473833  0.50427131  0.83712912  1
  Ni  Ni42  1  0.50346359  0.83863689  0.50461427  1
  Fe  Fe43  1  0.33840671  0.66991984  0.67037000  1
  Ni  Ni44  1  0.50570487  0.83754640  0.83863781  1
  Ni  Ni45  1  0.83747902  0.17182814  0.50427248  1
  Fe  Fe46  1  0.67083743  0.00559723  0.67079685  1
  Fe  Fe47  1  0.83734415  0.17105157  0.83797976  1
  Ni  Ni48  1  0.83902789  0.50365694  0.50379541  1
  Ni  Ni49  1  0.67136545  0.33857886  0.67099474  1
  Ni  Ni50  1  0.83732121  0.50393677  0.83873034  1
  Fe  Fe51  1  0.83746903  0.83770494  0.50392915  1
  Fe  Fe52  1  0.67118405  0.67073967  0.67175224  1
  Ni  Ni53  1  0.83603623  0.83755692  0.83759129  1
" 