4528,Ni53Fe32Cr14_5,-234.666014361533, 199.49951890599,Ni53Fe32Cr14,"# generated using pymatgen
 data_Cr9Fe17Ni28
_symmetry_space_group_name_H-M   'P 1'
_cell_length_a   7.43709843
_cell_length_b   7.43709843
_cell_length_c   10.51764546
_cell_angle_alpha   90.00000000
_cell_angle_beta   90.00000000
_cell_angle_gamma   90.00000000
_symmetry_Int_Tables_number   1
_chemical_formula_structural   Cr9Fe17Ni28
_chemical_formula_sum   'Cr9 Fe17 Ni28'
_cell_volume   581.73552460
_cell_formula_units_Z   1
loop_
 _symmetry_equiv_pos_site_id
 _symmetry_equiv_pos_as_xyz
  1  'x, y, z'
loop_
 _atom_site_type_symbol
 _atom_site_label
 _atom_site_symmetry_multiplicity
 _atom_site_fract_x
 _atom_site_fract_y
 _atom_site_fract_z
 _atom_site_occupancy
  Ni  Ni0  1  0.00214637  0.00296172  0.00305211  1
  Ni  Ni1  1  0.16870592  0.16752030  0.16949592  1
  Ni  Ni2  1  1.00112713  1.00125653  0.33583943  1
  Fe  Fe3  1  1.00042740  0.33366546  1.00131657  1
  Cr  Cr4  1  0.16800257  0.50292321  0.16615884  1
  Cr  Cr5  1  0.00231426  0.33403185  0.33645105  1
  Ni  Ni6  1  0.00265044  0.66905719  0.00333544  1
  Ni  Ni7  1  0.16793084  0.83553707  0.16990235  1
  Fe  Fe8  1  1.00103628  0.67092629  0.33545482  1
  Cr  Cr9  1  0.33736378  1.00188788  0.00354569  1
  Ni  Ni10  1  0.50293665  0.16929649  0.17011628  1
  Fe  Fe11  1  0.33435397  0.00277612  0.33419486  1
  Ni  Ni12  1  0.33669963  0.33509651  1.00127877  1
  Fe  Fe13  1  0.50146251  0.50025439  0.16937131  1
  Ni  Ni14  1  0.33500883  0.33536522  0.33403129  1
  Ni  Ni15  1  0.33503607  0.66889102  1.00088695  1
  Ni  Ni16  1  0.50145843  0.83568317  0.17167593  1
  Fe  Fe17  1  0.33507238  0.67136420  0.33501984  1
  Ni  Ni18  1  0.66875259  0.00439003  0.00295795  1
  Ni  Ni19  1  0.83445135  0.16882815  0.16810035  1
  Ni  Ni20  1  0.66961015  0.99990212  0.33371917  1
  Ni  Ni21  1  0.66834753  0.33417803  0.00315141  1
  Ni  Ni22  1  0.83434036  0.50235656  0.17016354  1
  Fe  Fe23  1  0.66887184  0.33325524  0.33328613  1
  Cr  Cr24  1  0.66643820  0.66972424  0.00281579  1
  Fe  Fe25  1  0.83696718  0.83786236  0.16938827  1
  Fe  Fe26  1  0.67011760  0.66962870  0.33510655  1
  Fe  Fe27  1  0.16942602  0.16633417  0.50195030  1
  Fe  Fe28  1  0.00282007  0.00226493  0.66843905  1
  Ni  Ni29  1  0.16964636  0.16795483  0.83499850  1
  Fe  Fe30  1  0.17101208  0.50313069  0.50115768  1
  Cr  Cr31  1  0.00226806  0.33422826  0.66814396  1
  Fe  Fe32  1  0.17009704  0.50186936  0.83731881  1
  Fe  Fe33  1  0.17028573  0.83649571  0.50145089  1
  Cr  Cr34  1  0.00232675  0.66813954  0.66798079  1
  Ni  Ni35  1  0.17019036  0.83509877  0.83525482  1
  Cr  Cr36  1  0.50163151  0.16804981  0.50229725  1
  Ni  Ni37  1  0.33534863  1.00144985  0.66804352  1
  Ni  Ni38  1  0.50266382  0.16979955  0.83398606  1
  Cr  Cr39  1  0.50165076  0.50131158  0.50211357  1
  Ni  Ni40  1  0.33433623  0.33502503  0.67018110  1
  Fe  Fe41  1  0.50172663  0.50073302  0.83399498  1
  Fe  Fe42  1  0.50376703  0.83570048  0.50248666  1
  Ni  Ni43  1  0.33582285  0.66962726  0.66943323  1
  Ni  Ni44  1  0.50007815  0.83587551  0.83136112  1
  Fe  Fe45  1  0.83358672  0.16476161  0.50197572  1
  Ni  Ni46  1  0.66832343  1.00148843  0.66910646  1
  Ni  Ni47  1  0.83373999  0.17014365  0.83510970  1
  Fe  Fe48  1  0.83307581  0.50305950  0.50164579  1
  Ni  Ni49  1  0.66928645  0.33492231  0.66903949  1
  Ni  Ni50  1  0.83431800  0.50038996  0.83509934  1
  Ni  Ni51  1  0.83599445  0.83580724  0.50116222  1
  Ni  Ni52  1  0.66789649  0.66952378  0.66792280  1
  Cr  Cr53  1  0.83577926  0.83692407  0.83725856  1
" 