7161,Ni53Fe17Cr28_11,-229.046791342532, 173.844272240637,Ni53Fe17Cr28,"# generated using pymatgen
 data_Cr16Fe9Ni29
_symmetry_space_group_name_H-M   'P 1'
_cell_length_a   7.46489225
_cell_length_b   7.46489225
_cell_length_c   10.55695187
_cell_angle_alpha   90.00000000
_cell_angle_beta   90.00000000
_cell_angle_gamma   90.00000000
_symmetry_Int_Tables_number   1
_chemical_formula_structural   Cr16Fe9Ni29
_chemical_formula_sum   'Cr16 Fe9 Ni29'
_cell_volume   588.28209273
_cell_formula_units_Z   1
loop_
 _symmetry_equiv_pos_site_id
 _symmetry_equiv_pos_as_xyz
  1  'x, y, z'
loop_
 _atom_site_type_symbol
 _atom_site_label
 _atom_site_symmetry_multiplicity
 _atom_site_fract_x
 _atom_site_fract_y
 _atom_site_fract_z
 _atom_site_occupancy
  Cr  Cr0  1  0.00281368  0.99682401  0.00127905  1
  Cr  Cr1  1  0.16852240  0.17042244  0.16534927  1
  Cr  Cr2  1  1.00004037  0.99913856  0.32978402  1
  Cr  Cr3  1  0.00027575  0.33584349  0.99704611  1
  Ni  Ni4  1  0.16953441  0.50360055  0.16658309  1
  Fe  Fe5  1  0.00121274  0.33458275  0.33458707  1
  Ni  Ni6  1  0.00126173  0.66664826  0.99931547  1
  Ni  Ni7  1  0.16863984  0.82946442  0.16741778  1
  Fe  Fe8  1  0.00219731  0.66480143  0.33306344  1
  Ni  Ni9  1  0.33387305  0.99922503  0.99866589  1
  Ni  Ni10  1  0.50017535  0.16947270  0.16590921  1
  Cr  Cr11  1  0.33302733  0.00022903  0.33520193  1
  Fe  Fe12  1  0.33498752  0.33396324  0.99954184  1
  Ni  Ni13  1  0.49798915  0.49990549  0.16569206  1
  Ni  Ni14  1  0.33496994  0.33665226  0.33370278  1
  Fe  Fe15  1  0.33313048  0.66847504  0.00084411  1
  Ni  Ni16  1  0.49779987  0.83125821  0.16497453  1
  Ni  Ni17  1  0.33066843  0.66259957  0.33280386  1
  Cr  Cr18  1  0.66506662  0.99966955  0.00313700  1
  Ni  Ni19  1  0.83148804  0.16821731  0.16813263  1
  Cr  Cr20  1  0.66719902  0.00269574  0.32948769  1
  Ni  Ni21  1  0.66437671  0.33517930  0.00202313  1
  Cr  Cr22  1  0.83461467  0.49879595  0.16727045  1
  Ni  Ni23  1  0.66479930  0.33354557  0.33423935  1
  Ni  Ni24  1  0.66767638  0.66514480  0.99982410  1
  Ni  Ni25  1  0.83412255  0.83072633  0.16445603  1
  Cr  Cr26  1  0.66379748  0.66318644  0.33189895  1
  Ni  Ni27  1  0.16600061  0.17085770  0.50084387  1
  Cr  Cr28  1  0.00396860  0.00055428  0.66948648  1
  Ni  Ni29  1  0.16977700  0.16669710  0.83388222  1
  Ni  Ni30  1  0.16487642  0.49989682  0.49779023  1
  Fe  Fe31  1  0.00103441  0.33691465  0.66687988  1
  Ni  Ni32  1  0.16377109  0.50238105  0.83535775  1
  Fe  Fe33  1  0.16683497  0.83302724  0.50038310  1
  Ni  Ni34  1  0.99902166  0.66555193  0.66747277  1
  Ni  Ni35  1  0.16896595  0.83199829  0.83336157  1
  Ni  Ni36  1  0.50079460  0.16962219  0.50163439  1
  Ni  Ni37  1  0.33279768  0.00178055  0.66713268  1
  Ni  Ni38  1  0.49893513  0.16438748  0.83332193  1
  Ni  Ni39  1  0.49901656  0.49831896  0.49889428  1
  Cr  Cr40  1  0.33408286  0.33249237  0.66817581  1
  Cr  Cr41  1  0.50241309  0.50052458  0.83695321  1
  Cr  Cr42  1  0.49957703  0.83231603  0.50312600  1
  Cr  Cr43  1  0.33187044  0.66533239  0.66655594  1
  Ni  Ni44  1  0.49986459  0.83479489  0.83235447  1
  Ni  Ni45  1  0.83407038  0.16936914  0.50005330  1
  Fe  Fe46  1  0.66476127  0.00105032  0.66738729  1
  Cr  Cr47  1  0.83117529  0.17040694  0.83239721  1
  Fe  Fe48  1  0.83256380  0.49680901  0.50189600  1
  Ni  Ni49  1  0.66737435  0.33449510  0.66462523  1
  Ni  Ni50  1  0.83464695  0.50293396  0.83089709  1
  Cr  Cr51  1  0.83324941  0.83223756  0.50247233  1
  Ni  Ni52  1  0.66893771  0.66286523  0.66856823  1
  Fe  Fe53  1  0.83315379  0.82991254  0.83366169  1
" 