5670,Ni53Fe32Cr14_3,-234.940846272275, 202.405986791461,Ni53Fe32Cr14,"# generated using pymatgen
 data_Cr9Fe17Ni28
_symmetry_space_group_name_H-M   'P 1'
_cell_length_a   7.43511698
_cell_length_b   7.43511698
_cell_length_c   10.51484327
_cell_angle_alpha   90.00000000
_cell_angle_beta   90.00000000
_cell_angle_gamma   90.00000000
_symmetry_Int_Tables_number   1
_chemical_formula_structural   Cr9Fe17Ni28
_chemical_formula_sum   'Cr9 Fe17 Ni28'
_cell_volume   581.27067674
_cell_formula_units_Z   1
loop_
 _symmetry_equiv_pos_site_id
 _symmetry_equiv_pos_as_xyz
  1  'x, y, z'
loop_
 _atom_site_type_symbol
 _atom_site_label
 _atom_site_symmetry_multiplicity
 _atom_site_fract_x
 _atom_site_fract_y
 _atom_site_fract_z
 _atom_site_occupancy
  Ni  Ni0  1  0.00456465  0.00322272  1.00001070  1
  Ni  Ni1  1  0.16867504  0.16901261  0.16772796  1
  Cr  Cr2  1  0.00231242  0.00390658  0.33689767  1
  Fe  Fe3  1  1.00071991  0.33484671  0.00340716  1
  Ni  Ni4  1  0.16918974  0.50286051  0.16992521  1
  Ni  Ni5  1  0.00238700  0.33633822  0.33451307  1
  Ni  Ni6  1  0.00341365  0.66874388  1.00197855  1
  Ni  Ni7  1  0.17143245  0.83456539  0.16749741  1
  Fe  Fe8  1  0.00269917  0.66644843  0.33567824  1
  Ni  Ni9  1  0.33293749  1.00120455  1.00209153  1
  Fe  Fe10  1  0.50129204  0.16896504  0.17016239  1
  Ni  Ni11  1  0.33680137  0.00240388  0.33476407  1
  Cr  Cr12  1  0.33526526  0.33497551  0.00238176  1
  Ni  Ni13  1  0.50140974  0.50214708  0.16945625  1
  Ni  Ni14  1  0.33442420  0.33571762  0.33619655  1
  Ni  Ni15  1  0.33433981  0.67051301  0.00225581  1
  Fe  Fe16  1  0.49832190  0.83542317  0.17056211  1
  Ni  Ni17  1  0.33637670  0.66831992  0.33507908  1
  Cr  Cr18  1  0.66832266  0.00286199  0.00228487  1
  Ni  Ni19  1  0.83543003  0.17156005  0.16847196  1
  Ni  Ni20  1  0.66717971  0.00228478  0.33641423  1
  Fe  Fe21  1  0.67011310  0.33550058  0.00239146  1
  Fe  Fe22  1  0.83697376  0.49977059  0.16970360  1
  Ni  Ni23  1  0.66963393  0.33590946  0.33550651  1
  Cr  Cr24  1  0.66794904  0.66726134  1.00151145  1
  Cr  Cr25  1  0.83599900  0.83552758  0.16993131  1
  Ni  Ni26  1  0.66780013  0.66824693  0.33616891  1
  Ni  Ni27  1  0.16874842  0.16944682  0.50108591  1
  Fe  Fe28  1  1.00067812  1.00026417  0.66865841  1
  Fe  Fe29  1  0.16807582  0.16547184  0.83708137  1
  Fe  Fe30  1  0.16832671  0.50327307  0.50033174  1
  Cr  Cr31  1  1.00125899  0.33419742  0.66804324  1
  Cr  Cr32  1  0.16821138  0.50525433  0.83646083  1
  Fe  Fe33  1  0.16857410  0.83444823  0.50210278  1
  Fe  Fe34  1  1.00089712  0.67101291  0.66876538  1
  Ni  Ni35  1  0.16920764  0.83580567  0.83643610  1
  Fe  Fe36  1  0.50447435  0.16807148  0.50080358  1
  Cr  Cr37  1  0.33555777  1.00120873  0.66914427  1
  Ni  Ni38  1  0.50410694  0.16795362  0.83531364  1
  Fe  Fe39  1  0.50356948  0.50328599  0.50069461  1
  Cr  Cr40  1  0.33616765  0.33633377  0.66750994  1
  Fe  Fe41  1  0.50380491  0.50375489  0.83504379  1
  Ni  Ni42  1  0.50316903  0.83475749  0.50087918  1
  Ni  Ni43  1  0.33723358  0.66927111  0.66910592  1
  Ni  Ni44  1  0.50063949  0.83576204  0.83551848  1
  Ni  Ni45  1  0.83448514  0.16902540  0.50266889  1
  Ni  Ni46  1  0.67085063  1.00061249  0.66862183  1
  Fe  Fe47  1  0.83507723  0.16816970  0.83554438  1
  Ni  Ni48  1  0.83490560  0.50261917  0.50053075  1
  Fe  Fe49  1  0.66871764  0.33582149  0.66875856  1
  Ni  Ni50  1  0.83414354  0.50166290  0.83647627  1
  Ni  Ni51  1  0.83363691  0.83479552  0.50407634  1
  Ni  Ni52  1  0.66899917  0.66982514  0.66939166  1
  Fe  Fe53  1  0.83647212  0.83530986  0.83393573  1
" 