1979,Ni53Fe17Cr28_2,-229.145486845292, 174.825187028422,Ni53Fe17Cr28,"# generated using pymatgen
 data_Cr16Fe9Ni29
_symmetry_space_group_name_H-M   'P 1'
_cell_length_a   7.46381823
_cell_length_b   7.46381823
_cell_length_c   10.55543297
_cell_angle_alpha   90.00000000
_cell_angle_beta   90.00000000
_cell_angle_gamma   90.00000000
_symmetry_Int_Tables_number   1
_chemical_formula_structural   Cr16Fe9Ni29
_chemical_formula_sum   'Cr16 Fe9 Ni29'
_cell_volume   588.02820963
_cell_formula_units_Z   1
loop_
 _symmetry_equiv_pos_site_id
 _symmetry_equiv_pos_as_xyz
  1  'x, y, z'
loop_
 _atom_site_type_symbol
 _atom_site_label
 _atom_site_symmetry_multiplicity
 _atom_site_fract_x
 _atom_site_fract_y
 _atom_site_fract_z
 _atom_site_occupancy
  Ni  Ni0  1  1.00014952  0.00134331  0.99929713  1
  Fe  Fe1  1  0.16470782  0.16626921  0.16697736  1
  Ni  Ni2  1  0.00231713  0.00249441  0.33330674  1
  Fe  Fe3  1  0.99938464  0.33203737  0.00039013  1
  Ni  Ni4  1  0.16546958  0.49900270  0.16637076  1
  Ni  Ni5  1  0.99946109  0.33046407  0.33199336  1
  Cr  Cr6  1  1.00007516  0.66776132  0.99905313  1
  Ni  Ni7  1  0.16787779  0.83477364  0.16874993  1
  Fe  Fe8  1  0.00270507  0.66707668  0.33108351  1
  Cr  Cr9  1  0.33134909  0.00230479  0.00120626  1
  Fe  Fe10  1  0.50219456  0.16531293  0.16665835  1
  Ni  Ni11  1  0.33311250  0.99878320  0.33456426  1
  Ni  Ni12  1  0.33223665  0.33253569  1.00004544  1
  Cr  Cr13  1  0.50028731  0.49975450  0.16447466  1
  Cr  Cr14  1  0.33409761  0.33021669  0.33291554  1
  Fe  Fe15  1  0.33245028  0.66757486  0.00124506  1
  Ni  Ni16  1  0.49937243  0.83644460  0.16691014  1
  Ni  Ni17  1  0.33188533  0.67042616  0.33211900  1
  Ni  Ni18  1  0.66825500  0.00187212  0.99967705  1
  Fe  Fe19  1  0.83373101  0.16706516  0.16748526  1
  Ni  Ni20  1  0.66531598  0.00303667  0.33389835  1
  Ni  Ni21  1  0.66727135  0.33227105  0.00027328  1
  Ni  Ni22  1  0.83497123  0.49633917  0.16723616  1
  Ni  Ni23  1  0.66897749  0.32965719  0.33322021  1
  Ni  Ni24  1  0.66882447  0.66647787  1.00008505  1
  Cr  Cr25  1  0.83338796  0.83698814  0.16719287  1
  Cr  Cr26  1  0.66545374  0.66690602  0.33288175  1
  Ni  Ni27  1  0.16521992  0.16451442  0.49905359  1
  Cr  Cr28  1  0.00161807  0.00175421  0.66849482  1
  Ni  Ni29  1  0.16633902  0.16786392  0.83507686  1
  Cr  Cr30  1  0.16546063  0.50040821  0.49932397  1
  Ni  Ni31  1  0.99889701  0.33090171  0.66908943  1
  Ni  Ni32  1  0.16577592  0.49814464  0.83468453  1
  Ni  Ni33  1  0.17004938  0.83611215  0.49834683  1
  Cr  Cr34  1  0.00115750  0.66751843  0.66833215  1
  Ni  Ni35  1  0.16660491  0.83480883  0.83362337  1
  Ni  Ni36  1  0.50198760  0.16318104  0.49966373  1
  Fe  Fe37  1  0.33363074  0.00076629  0.66617219  1
  Ni  Ni38  1  0.50125851  0.16697498  0.83390432  1
  Cr  Cr39  1  0.49992129  0.49989525  0.50072529  1
  Cr  Cr40  1  0.33285385  0.32996128  0.66686839  1
  Cr  Cr41  1  0.49953732  0.49833302  0.83541760  1
  Ni  Ni42  1  0.49699504  0.83781468  0.49998624  1
  Ni  Ni43  1  0.33191198  0.67015800  0.66783695  1
  Cr  Cr44  1  0.50051042  0.83593695  0.83442442  1
  Ni  Ni45  1  0.83356010  0.16725808  0.49953867  1
  Fe  Fe46  1  0.66594597  0.00313555  0.66669048  1
  Fe  Fe47  1  0.83305564  0.16750111  0.83442855  1
  Cr  Cr48  1  0.83556069  0.49562585  0.49835765  1
  Ni  Ni49  1  0.66852209  0.32977125  0.66709310  1
  Ni  Ni50  1  0.83409996  0.49734204  0.83442334  1
  Cr  Cr51  1  0.83489190  0.83761396  0.49750868  1
  Cr  Cr52  1  0.66763351  0.66740364  0.66758968  1
  Ni  Ni53  1  0.83336136  0.83579316  0.83571658  1
" 