1229,Ni53Fe32Cr14_18,-235.40360556671, 208.460406261767,Ni53Fe32Cr14,"# generated using pymatgen
 data_Cr9Fe17Ni28
_symmetry_space_group_name_H-M   'P 1'
_cell_length_a   7.43350650
_cell_length_b   7.43350650
_cell_length_c   10.51256571
_cell_angle_alpha   90.00000000
_cell_angle_beta   90.00000000
_cell_angle_gamma   90.00000000
_symmetry_Int_Tables_number   1
_chemical_formula_structural   Cr9Fe17Ni28
_chemical_formula_sum   'Cr9 Fe17 Ni28'
_cell_volume   580.89304183
_cell_formula_units_Z   1
loop_
 _symmetry_equiv_pos_site_id
 _symmetry_equiv_pos_as_xyz
  1  'x, y, z'
loop_
 _atom_site_type_symbol
 _atom_site_label
 _atom_site_symmetry_multiplicity
 _atom_site_fract_x
 _atom_site_fract_y
 _atom_site_fract_z
 _atom_site_occupancy
  Fe  Fe0  1  0.00358013  0.00327410  0.00251947  1
  Ni  Ni1  1  0.16853060  0.16745391  0.16852783  1
  Fe  Fe2  1  1.00114964  1.00060581  0.33490367  1
  Ni  Ni3  1  1.00191760  0.33383963  0.00254947  1
  Cr  Cr4  1  0.16948660  0.50170435  0.16904641  1
  Fe  Fe5  1  1.00174659  0.33554686  0.33504232  1
  Fe  Fe6  1  0.00360405  0.66982110  0.00270593  1
  Ni  Ni7  1  0.16956895  0.83751190  0.16915830  1
  Ni  Ni8  1  0.00277431  0.67021559  0.33638873  1
  Ni  Ni9  1  0.33499694  1.00124213  0.00375009  1
  Fe  Fe10  1  0.50169535  0.16768585  0.16854116  1
  Fe  Fe11  1  0.33550153  1.00124981  0.33423448  1
  Ni  Ni12  1  0.33518268  0.33582929  0.00295667  1
  Ni  Ni13  1  0.50312468  0.50396329  0.16738015  1
  Fe  Fe14  1  0.33531752  0.33531205  0.33483099  1
  Ni  Ni15  1  0.33653792  0.66969090  1.00102509  1
  Ni  Ni16  1  0.50244164  0.83464503  0.16919520  1
  Ni  Ni17  1  0.33330590  0.67023124  0.33491151  1
  Fe  Fe18  1  0.66924388  1.00203261  0.00364983  1
  Ni  Ni19  1  0.83692231  0.16814538  0.16782535  1
  Ni  Ni20  1  0.66969944  0.00252641  0.33517428  1
  Fe  Fe21  1  0.66827354  0.33587167  0.00351953  1
  Ni  Ni22  1  0.83405316  0.50291979  0.16862709  1
  Cr  Cr23  1  0.66956140  0.33354097  0.33480031  1
  Fe  Fe24  1  0.66700908  0.66886726  0.00308374  1
  Ni  Ni25  1  0.83475687  0.83570830  0.16917637  1
  Fe  Fe26  1  0.67034385  0.67079714  0.33396854  1
  Cr  Cr27  1  0.16946443  0.16924887  0.50207977  1
  Cr  Cr28  1  0.00266947  1.00159969  0.66994436  1
  Ni  Ni29  1  0.16810852  0.16961786  0.83602146  1
  Fe  Fe30  1  0.16703411  0.50395731  0.50271088  1
  Ni  Ni31  1  1.00212437  0.33762940  0.66831642  1
  Ni  Ni32  1  0.17076154  0.50200850  0.83442958  1
  Ni  Ni33  1  0.16766064  0.83364890  0.50190052  1
  Ni  Ni34  1  0.00284186  0.66781594  0.66780458  1
  Fe  Fe35  1  0.17008189  0.83497732  0.83613707  1
  Ni  Ni36  1  0.50250457  0.16921280  0.50259172  1
  Ni  Ni37  1  0.33538159  1.00206252  0.66904942  1
  Cr  Cr38  1  0.50112371  0.17014578  0.83490704  1
  Cr  Cr39  1  0.50196297  0.50188436  0.50432779  1
  Ni  Ni40  1  0.33536647  0.33616296  0.66955667  1
  Ni  Ni41  1  0.50045949  0.50423109  0.83529467  1
  Cr  Cr42  1  0.50196170  0.83602669  0.50226721  1
  Fe  Fe43  1  0.33414163  0.66810614  0.67043314  1
  Fe  Fe44  1  0.50095987  0.83359157  0.83655285  1
  Ni  Ni45  1  0.83509938  0.16942531  0.50263523  1
  Cr  Cr46  1  0.66869657  0.00328412  0.66832387  1
  Ni  Ni47  1  0.83776012  0.16891421  0.83631078  1
  Fe  Fe48  1  0.83782125  0.50315954  0.50334937  1
  Ni  Ni49  1  0.66927671  0.33615630  0.66829194  1
  Cr  Cr50  1  0.83533453  0.50150988  0.83492788  1
  Ni  Ni51  1  0.83714009  0.83419073  0.50102478  1
  Ni  Ni52  1  0.67002856  0.66783540  0.66886753  1
  Fe  Fe53  1  0.83573586  0.83519254  0.83627904  1
" 