2523,Ni53Fe17Cr28_1,-229.302194524218, 175.912538682863,Ni53Fe17Cr28,"# generated using pymatgen
 data_Cr16Fe9Ni29
_symmetry_space_group_name_H-M   'P 1'
_cell_length_a   7.46536405
_cell_length_b   7.46536405
_cell_length_c   10.55761909
_cell_angle_alpha   90.00000000
_cell_angle_beta   90.00000000
_cell_angle_gamma   90.00000000
_symmetry_Int_Tables_number   1
_chemical_formula_structural   Cr16Fe9Ni29
_chemical_formula_sum   'Cr16 Fe9 Ni29'
_cell_volume   588.39364245
_cell_formula_units_Z   1
loop_
 _symmetry_equiv_pos_site_id
 _symmetry_equiv_pos_as_xyz
  1  'x, y, z'
loop_
 _atom_site_type_symbol
 _atom_site_label
 _atom_site_symmetry_multiplicity
 _atom_site_fract_x
 _atom_site_fract_y
 _atom_site_fract_z
 _atom_site_occupancy
  Cr  Cr0  1  0.00115210  0.00071014  0.00118209  1
  Fe  Fe1  1  0.16814819  0.16853137  0.16648787  1
  Fe  Fe2  1  0.00227727  0.00134150  0.33162987  1
  Ni  Ni3  1  1.00009613  0.33383087  0.00236467  1
  Ni  Ni4  1  0.16754475  0.50120020  0.16620116  1
  Fe  Fe5  1  0.00226434  0.33225940  0.33132952  1
  Ni  Ni6  1  0.99721700  0.66542387  0.00095433  1
  Ni  Ni7  1  0.16701599  0.83240378  0.16706756  1
  Cr  Cr8  1  0.00120298  0.66637668  0.33255980  1
  Ni  Ni9  1  0.33470949  0.00251802  0.99978782  1
  Cr  Cr10  1  0.50151300  0.16731798  0.16582901  1
  Ni  Ni11  1  0.33211912  0.99988488  0.33303471  1
  Ni  Ni12  1  0.33344375  0.33153044  0.99967332  1
  Ni  Ni13  1  0.49849444  0.49885144  0.16942712  1
  Ni  Ni14  1  0.33238338  0.33396348  0.33343842  1
  Cr  Cr15  1  0.33605668  0.66669240  0.00208088  1
  Fe  Fe16  1  0.49829908  0.83349374  0.16884199  1
  Ni  Ni17  1  0.33482057  0.66655862  0.33343104  1
  Fe  Fe18  1  0.66551621  0.00035372  0.99992839  1
  Ni  Ni19  1  0.83312548  0.16689334  0.16832919  1
  Ni  Ni20  1  0.66632885  0.99880273  0.33124031  1
  Fe  Fe21  1  0.66576828  0.33418242  0.00047618  1
  Fe  Fe22  1  0.83329320  0.49808052  0.16653237  1
  Ni  Ni23  1  0.66619352  0.33481429  0.33159217  1
  Cr  Cr24  1  0.66640630  0.66670195  0.00061322  1
  Fe  Fe25  1  0.83267910  0.83349640  0.16719946  1
  Ni  Ni26  1  0.66394719  0.66648580  0.33235843  1
  Fe  Fe27  1  0.17033318  0.16686016  0.49935357  1
  Cr  Cr28  1  0.00244575  0.00088450  0.66568876  1
  Ni  Ni29  1  0.17054896  0.16764550  0.83468074  1
  Ni  Ni30  1  0.17120722  0.50139512  0.49928464  1
  Cr  Cr31  1  0.00246646  0.33296992  0.66593047  1
  Cr  Cr32  1  0.16813721  0.49985399  0.83488820  1
  Ni  Ni33  1  0.17093497  0.83257819  0.49967106  1
  Cr  Cr34  1  0.99990590  0.66645686  0.66843667  1
  Cr  Cr35  1  0.16893939  0.83266949  0.83336442  1
  Cr  Cr36  1  0.50205326  0.16701609  0.50085946  1
  Ni  Ni37  1  0.33558037  0.00086854  0.66733537  1
  Ni  Ni38  1  0.49894308  0.16679213  0.83393607  1
  Ni  Ni39  1  0.49672886  0.49979495  0.49859742  1
  Ni  Ni40  1  0.33548659  0.33279513  0.66721913  1
  Ni  Ni41  1  0.50003795  0.49731613  0.83230947  1
  Ni  Ni42  1  0.49674702  0.83385987  0.49806301  1
  Ni  Ni43  1  0.33648884  0.66677417  0.66437270  1
  Ni  Ni44  1  0.50006763  0.83628752  0.83309933  1
  Cr  Cr45  1  0.83031275  0.16661831  0.49819154  1
  Ni  Ni46  1  0.66315417  0.99942879  0.66915386  1
  Cr  Cr47  1  0.83043813  0.16770995  0.83303763  1
  Cr  Cr48  1  0.83102793  0.49772343  0.49869869  1
  Ni  Ni49  1  0.66330268  0.33406352  0.66898620  1
  Ni  Ni50  1  0.83231923  0.49927053  0.83614642  1
  Cr  Cr51  1  0.83151159  0.83590818  0.49921940  1
  Cr  Cr52  1  0.66350638  0.66640198  0.66719565  1
  Ni  Ni53  1  0.83144703  0.83344597  0.83477813  1
" 