7145,Ni53Fe44Cr1_0,-240.698791216746, 221.543446095131,Ni53Fe44Cr1,"# generated using pymatgen
 data_CrFe24Ni29
_symmetry_space_group_name_H-M   'P 1'
_cell_length_a   7.40255778
_cell_length_b   7.40255778
_cell_length_c   10.46879761
_cell_angle_alpha   90.00000000
_cell_angle_beta   90.00000000
_cell_angle_gamma   90.00000000
_symmetry_Int_Tables_number   1
_chemical_formula_structural   CrFe24Ni29
_chemical_formula_sum   'Cr1 Fe24 Ni29'
_cell_volume   573.66772426
_cell_formula_units_Z   1
loop_
 _symmetry_equiv_pos_site_id
 _symmetry_equiv_pos_as_xyz
  1  'x, y, z'
loop_
 _atom_site_type_symbol
 _atom_site_label
 _atom_site_symmetry_multiplicity
 _atom_site_fract_x
 _atom_site_fract_y
 _atom_site_fract_z
 _atom_site_occupancy
  Fe  Fe0  1  0.00441745  0.00481076  1.00417314  1
  Ni  Ni1  1  0.17006690  0.17119237  0.17062755  1
  Fe  Fe2  1  1.00351191  0.00517707  0.33815004  1
  Fe  Fe3  1  0.00483814  0.33755558  0.00504007  1
  Ni  Ni4  1  0.17149031  0.50387899  0.17187524  1
  Ni  Ni5  1  0.00549086  0.33739119  0.33690009  1
  Fe  Fe6  1  0.00481488  0.67069907  0.00517703  1
  Fe  Fe7  1  0.17026548  0.83706672  0.17099170  1
  Ni  Ni8  1  0.00506612  0.67158209  0.33690415  1
  Ni  Ni9  1  0.33735129  1.00345794  1.00332455  1
  Fe  Fe10  1  0.50491321  0.17196989  0.17150779  1
  Fe  Fe11  1  0.33781579  0.00494049  0.33776625  1
  Fe  Fe12  1  0.33782176  0.33828016  0.00448189  1
  Ni  Ni13  1  0.50431067  0.50524403  0.17114477  1
  Ni  Ni14  1  0.33735269  0.33808976  0.33708836  1
  Ni  Ni15  1  0.33703141  0.67142728  0.00485061  1
  Fe  Fe16  1  0.50473370  0.83744334  0.17074908  1
  Fe  Fe17  1  0.33838556  0.66998113  0.33797794  1
  Fe  Fe18  1  0.67059047  1.00424764  1.00415308  1
  Ni  Ni19  1  0.83863392  0.17072250  0.17186338  1
  Ni  Ni20  1  0.67167032  0.00441532  0.33740297  1
  Ni  Ni21  1  0.67162712  0.33753513  0.00448617  1
  Ni  Ni22  1  0.83726982  0.50429262  0.17003635  1
  Ni  Ni23  1  0.67022618  0.33634767  0.33740334  1
  Fe  Fe24  1  0.66986345  0.67094109  0.00491424  1
  Ni  Ni25  1  0.83727205  0.83805549  0.17137603  1
  Ni  Ni26  1  0.67097072  0.67230860  0.33667488  1
  Ni  Ni27  1  0.17032797  0.16987107  0.50494595  1
  Ni  Ni28  1  1.00284637  1.00419852  0.67058478  1
  Fe  Fe29  1  0.17162776  0.17121479  0.83756156  1
  Fe  Fe30  1  0.17358165  0.50379068  0.50436153  1
  Fe  Fe31  1  0.00552001  0.33599871  0.67163719  1
  Ni  Ni32  1  0.17186025  0.50452581  0.83715583  1
  Ni  Ni33  1  0.17199535  0.83858954  0.50444716  1
  Fe  Fe34  1  0.00597458  0.67225328  0.67149681  1
  Fe  Fe35  1  0.17173365  0.83716448  0.83731939  1
  Ni  Ni36  1  0.50440029  0.17059647  0.50475959  1
  Fe  Fe37  1  0.33775429  1.00402399  0.67087915  1
  Fe  Fe38  1  0.50445021  0.17145717  0.83739114  1
  Ni  Ni39  1  0.50315326  0.50523711  0.50458304  1
  Ni  Ni40  1  0.33769771  0.33920149  0.67171256  1
  Ni  Ni41  1  0.50349442  0.50589190  0.83734427  1
  Ni  Ni42  1  0.50336510  0.83723448  0.50426137  1
  Ni  Ni43  1  0.33737989  0.66968074  0.67040391  1
  Ni  Ni44  1  0.50398031  0.83677744  0.83767825  1
  Ni  Ni45  1  0.83834012  0.16965862  0.50364113  1
  Ni  Ni46  1  0.67252200  0.00451431  0.67131272  1
  Ni  Ni47  1  0.83834830  0.17064496  0.83756642  1
  Cr  Cr48  1  0.83663690  0.50303854  0.50412260  1
  Fe  Fe49  1  0.66979624  0.33632610  0.67187902  1
  Fe  Fe50  1  0.83712740  0.50420370  0.83819683  1
  Fe  Fe51  1  0.83712557  0.84024675  0.50379445  1
  Fe  Fe52  1  0.66901088  0.67225870  0.67150025  1
  Fe  Fe53  1  0.83736676  0.83756610  0.83764182  1
" 