4,Ni53Fe44Cr1_2,-240.845566863555, 223.720366211126,Ni53Fe44Cr1,"# generated using pymatgen
 data_CrFe24Ni29
_symmetry_space_group_name_H-M   'P 1'
_cell_length_a   7.40196696
_cell_length_b   7.40196696
_cell_length_c   10.46796206
_cell_angle_alpha   90.00000000
_cell_angle_beta   90.00000000
_cell_angle_gamma   90.00000000
_symmetry_Int_Tables_number   1
_chemical_formula_structural   CrFe24Ni29
_chemical_formula_sum   'Cr1 Fe24 Ni29'
_cell_volume   573.53037582
_cell_formula_units_Z   1
loop_
 _symmetry_equiv_pos_site_id
 _symmetry_equiv_pos_as_xyz
  1  'x, y, z'
loop_
 _atom_site_type_symbol
 _atom_site_label
 _atom_site_symmetry_multiplicity
 _atom_site_fract_x
 _atom_site_fract_y
 _atom_site_fract_z
 _atom_site_occupancy
  Ni  Ni0  1  1.00431420  1.00384094  1.00377358  1
  Ni  Ni1  1  0.17149926  0.17181930  0.17060065  1
  Cr  Cr2  1  1.00343606  0.00521593  0.33895269  1
  Fe  Fe3  1  0.00461974  0.33813511  0.00488900  1
  Ni  Ni4  1  0.17079031  0.50358796  0.17094021  1
  Ni  Ni5  1  0.00495691  0.33904991  0.33730941  1
  Ni  Ni6  1  1.00420408  0.67184782  0.00549737  1
  Fe  Fe7  1  0.17174139  0.83630802  0.17008434  1
  Fe  Fe8  1  1.00435271  0.66914621  0.33839206  1
  Fe  Fe9  1  0.33677852  1.00398035  1.00435904  1
  Fe  Fe10  1  0.50453026  0.17185319  0.17159793  1
  Fe  Fe11  1  0.33911933  0.00456685  0.33805661  1
  Ni  Ni12  1  0.33788255  0.33808014  0.00451918  1
  Ni  Ni13  1  0.50486924  0.50541522  0.17157079  1
  Fe  Fe14  1  0.33719286  0.33742844  0.33721920  1
  Fe  Fe15  1  0.33749706  0.67077524  0.00497037  1
  Ni  Ni16  1  0.50487453  0.83784394  0.17126011  1
  Ni  Ni17  1  0.33802572  0.67028152  0.33717344  1
  Fe  Fe18  1  0.67168056  1.00367141  0.00475754  1
  Ni  Ni19  1  0.83746328  0.17181933  0.17043046  1
  Ni  Ni20  1  0.66957917  0.00447781  0.33721960  1
  Fe  Fe21  1  0.67160454  0.33885557  1.00415036  1
  Ni  Ni22  1  0.83753097  0.50423940  0.17102466  1
  Fe  Fe23  1  0.67140513  0.33778627  0.33797516  1
  Ni  Ni24  1  0.67109229  0.67117194  1.00411345  1
  Fe  Fe25  1  0.83678663  0.83670925  0.16974744  1
  Fe  Fe26  1  0.67136241  0.67107806  0.33688504  1
  Ni  Ni27  1  0.17309351  0.17154243  0.50526395  1
  Fe  Fe28  1  1.00401566  1.00437155  0.67145022  1
  Ni  Ni29  1  0.17148983  0.17056276  0.83732899  1
  Ni  Ni30  1  0.17012741  0.50399335  0.50442954  1
  Ni  Ni31  1  0.00465543  0.33836670  0.67160601  1
  Ni  Ni32  1  0.17115656  0.50390028  0.83782247  1
  Ni  Ni33  1  0.17129077  0.83765171  0.50498448  1
  Ni  Ni34  1  0.00540304  0.67071109  0.67036552  1
  Ni  Ni35  1  0.17039951  0.83872602  0.83800447  1
  Ni  Ni36  1  0.50384968  0.17037304  0.50338681  1
  Fe  Fe37  1  0.33713363  0.00516512  0.67077016  1
  Fe  Fe38  1  0.50419843  0.17165257  0.83682335  1
  Fe  Fe39  1  0.50381809  0.50443976  0.50439739  1
  Fe  Fe40  1  0.33754463  0.33753096  0.67164136  1
  Ni  Ni41  1  0.50522301  0.50420597  0.83745871  1
  Fe  Fe42  1  0.50408459  0.83810924  0.50345687  1
  Fe  Fe43  1  0.33725637  0.67049054  0.67068734  1
  Fe  Fe44  1  0.50434715  0.83696200  0.83823848  1
  Fe  Fe45  1  0.83741982  0.17198639  0.50480930  1
  Ni  Ni46  1  0.67082059  0.00487203  0.67128056  1
  Fe  Fe47  1  0.83842999  0.17136916  0.83777777  1
  Ni  Ni48  1  0.83784120  0.50536565  0.50412012  1
  Ni  Ni49  1  0.67099823  0.33678782  0.67102159  1
  Ni  Ni50  1  0.83681384  0.50529665  0.83804696  1
  Ni  Ni51  1  0.83667310  0.83628333  0.50476104  1
  Fe  Fe52  1  0.67255790  0.67035615  0.67184045  1
  Ni  Ni53  1  0.83756161  0.83733592  0.83814972  1
" 