8122,Ni53Fe32Cr14_17,-235.192379553289, 204.203391392084,Ni53Fe32Cr14,"# generated using pymatgen
 data_Cr9Fe17Ni28
_symmetry_space_group_name_H-M   'P 1'
_cell_length_a   7.43414899
_cell_length_b   7.43414899
_cell_length_c   10.51347433
_cell_angle_alpha   90.00000000
_cell_angle_beta   90.00000000
_cell_angle_gamma   90.00000000
_symmetry_Int_Tables_number   1
_chemical_formula_structural   Cr9Fe17Ni28
_chemical_formula_sum   'Cr9 Fe17 Ni28'
_cell_volume   581.04367827
_cell_formula_units_Z   1
loop_
 _symmetry_equiv_pos_site_id
 _symmetry_equiv_pos_as_xyz
  1  'x, y, z'
loop_
 _atom_site_type_symbol
 _atom_site_label
 _atom_site_symmetry_multiplicity
 _atom_site_fract_x
 _atom_site_fract_y
 _atom_site_fract_z
 _atom_site_occupancy
  Cr  Cr0  1  1.00216710  1.00212127  0.00417035  1
  Ni  Ni1  1  0.16995648  0.16744013  0.16863795  1
  Ni  Ni2  1  1.00199829  1.00068951  0.33421372  1
  Cr  Cr3  1  1.00045318  0.33713445  1.00009466  1
  Cr  Cr4  1  0.16947808  0.50555716  0.16885753  1
  Cr  Cr5  1  1.00167462  0.33487441  0.33778801  1
  Fe  Fe6  1  1.00124513  0.67086903  1.00138076  1
  Ni  Ni7  1  0.17007719  0.83486082  0.16829562  1
  Ni  Ni8  1  1.00141079  0.67053627  0.33544567  1
  Ni  Ni9  1  0.33720230  0.99901878  0.00331616  1
  Fe  Fe10  1  0.50264976  0.16917233  0.16818559  1
  Cr  Cr11  1  0.33459338  1.00216997  0.33542955  1
  Fe  Fe12  1  0.33776031  0.33629560  1.00178707  1
  Fe  Fe13  1  0.50258905  0.50319227  0.16876770  1
  Fe  Fe14  1  0.33720344  0.33615270  0.33727435  1
  Ni  Ni15  1  0.33745162  0.66996988  1.00073660  1
  Fe  Fe16  1  0.50330836  0.83396574  0.16843769  1
  Ni  Ni17  1  0.33631949  0.66826644  0.33649549  1
  Ni  Ni18  1  0.66788594  1.00064207  0.00236634  1
  Ni  Ni19  1  0.83252830  0.16880645  0.16867089  1
  Ni  Ni20  1  0.66991797  0.00260978  0.33441210  1
  Fe  Fe21  1  0.66685913  0.33631078  0.00301951  1
  Ni  Ni22  1  0.83233365  0.50369674  0.16772051  1
  Ni  Ni23  1  0.66782696  0.33684158  0.33359959  1
  Ni  Ni24  1  0.66734349  0.66830962  1.00154963  1
  Fe  Fe25  1  0.83494318  0.83431948  0.16994529  1
  Ni  Ni26  1  0.66925994  0.66709277  0.33571202  1
  Ni  Ni27  1  0.17003095  0.16658282  0.50415759  1
  Ni  Ni28  1  0.00267853  1.00000411  0.66860483  1
  Cr  Cr29  1  0.17036231  0.16771870  0.83376803  1
  Fe  Fe30  1  0.17005677  0.50391317  0.50353182  1
  Fe  Fe31  1  0.00392957  0.33799040  0.66862098  1
  Ni  Ni32  1  0.17018976  0.50594937  0.83458048  1
  Ni  Ni33  1  0.16684420  0.83461450  0.50265084  1
  Ni  Ni34  1  0.00244602  0.66957464  0.66939670  1
  Ni  Ni35  1  0.16882944  0.83347169  0.83594797  1
  Ni  Ni36  1  0.50274238  0.17089007  0.50241476  1
  Ni  Ni37  1  0.33391489  1.00081364  0.66890119  1
  Cr  Cr38  1  0.50317136  0.16830892  0.83498292  1
  Ni  Ni39  1  0.50443557  0.50145969  0.50135913  1
  Ni  Ni40  1  0.33787999  0.33777113  0.66660805  1
  Ni  Ni41  1  0.50305785  0.50345821  0.83588338  1
  Cr  Cr42  1  0.50224977  0.83435115  0.50467146  1
  Ni  Ni43  1  0.33498549  0.66786791  0.67008911  1
  Fe  Fe44  1  0.50019517  0.83379820  0.83577042  1
  Cr  Cr45  1  0.83394482  0.16828119  0.50393500  1
  Fe  Fe46  1  0.66838257  1.00137496  0.66975097  1
  Fe  Fe47  1  0.83485652  0.16838317  0.83390617  1
  Ni  Ni48  1  0.83371107  0.50458712  0.50330981  1
  Ni  Ni49  1  0.66873748  0.33774924  0.66985310  1
  Fe  Fe50  1  0.83508303  0.50397443  0.83427750  1
  Fe  Fe51  1  0.83693292  0.83424892  0.50146213  1
  Fe  Fe52  1  0.66850486  0.66696526  0.66978001  1
  Fe  Fe53  1  0.83489369  0.83446543  0.83495940  1
" 