644,Ni53Fe32Cr14_7,-235.467025397218, 204.391485916374,Ni53Fe32Cr14,"# generated using pymatgen
 data_Cr9Fe17Ni28
_symmetry_space_group_name_H-M   'P 1'
_cell_length_a   7.43535523
_cell_length_b   7.43535523
_cell_length_c   10.51518021
_cell_angle_alpha   90.00000000
_cell_angle_beta   90.00000000
_cell_angle_gamma   90.00000000
_symmetry_Int_Tables_number   1
_chemical_formula_structural   Cr9Fe17Ni28
_chemical_formula_sum   'Cr9 Fe17 Ni28'
_cell_volume   581.32655902
_cell_formula_units_Z   1
loop_
 _symmetry_equiv_pos_site_id
 _symmetry_equiv_pos_as_xyz
  1  'x, y, z'
loop_
 _atom_site_type_symbol
 _atom_site_label
 _atom_site_symmetry_multiplicity
 _atom_site_fract_x
 _atom_site_fract_y
 _atom_site_fract_z
 _atom_site_occupancy
  Fe  Fe0  1  1.00145587  0.00319661  1.00159469  1
  Ni  Ni1  1  0.16771798  0.16966588  0.16882811  1
  Fe  Fe2  1  0.00249817  0.00463114  0.33664478  1
  Fe  Fe3  1  1.00001720  0.33468823  0.00269372  1
  Fe  Fe4  1  0.16837795  0.49937111  0.17050459  1
  Ni  Ni5  1  1.00209193  0.33446355  0.33365819  1
  Fe  Fe6  1  0.99927434  0.66851491  1.00110609  1
  Cr  Cr7  1  0.16926372  0.83783152  0.16983310  1
  Cr  Cr8  1  1.00100121  0.66884034  0.33560271  1
  Ni  Ni9  1  0.33720265  0.00265112  1.00198507  1
  Ni  Ni10  1  0.50212831  0.16994345  0.16755164  1
  Cr  Cr11  1  0.33494095  0.00342024  0.33476463  1
  Cr  Cr12  1  0.33560906  0.33436228  0.00310796  1
  Ni  Ni13  1  0.50452048  0.50201981  0.17182415  1
  Ni  Ni14  1  0.33539141  0.33683118  0.33360408  1
  Cr  Cr15  1  0.33536536  0.66913288  0.00230475  1
  Ni  Ni16  1  0.50372191  0.83442706  0.16698920  1
  Ni  Ni17  1  0.33680992  0.66573020  0.33435236  1
  Ni  Ni18  1  0.66898464  0.00246920  0.00280325  1
  Ni  Ni19  1  0.83654898  0.17045899  0.16822813  1
  Cr  Cr20  1  0.67124168  0.00245851  0.33406953  1
  Ni  Ni21  1  0.67088032  0.33430975  0.00317124  1
  Ni  Ni22  1  0.83337570  0.50072703  0.16769536  1
  Fe  Fe23  1  0.66841857  0.33770355  0.33471245  1
  Fe  Fe24  1  0.66957955  0.66856108  0.00232229  1
  Ni  Ni25  1  0.83365778  0.83520540  0.16690486  1
  Fe  Fe26  1  0.66794176  0.66597093  0.33469294  1
  Ni  Ni27  1  0.16727519  0.16659644  0.50229505  1
  Ni  Ni28  1  1.00182447  1.00104003  0.66701446  1
  Fe  Fe29  1  0.16746604  0.16745252  0.83504064  1
  Cr  Cr30  1  0.16855771  0.50206597  0.50291716  1
  Ni  Ni31  1  0.99948940  0.33556603  0.66984491  1
  Fe  Fe32  1  0.16652184  0.50367561  0.83400296  1
  Ni  Ni33  1  0.16781196  0.83836978  0.50437636  1
  Ni  Ni34  1  1.00139074  0.66978658  0.66965239  1
  Ni  Ni35  1  0.16919121  0.83723177  0.83299215  1
  Fe  Fe36  1  0.50266159  0.17042863  0.50290113  1
  Ni  Ni37  1  0.33472248  1.00071859  0.66971355  1
  Fe  Fe38  1  0.50401799  0.16743436  0.83598311  1
  Fe  Fe39  1  0.50382692  0.50223165  0.50160227  1
  Cr  Cr40  1  0.33594253  0.33541298  0.66958343  1
  Ni  Ni41  1  0.50557166  0.50255354  0.83332023  1
  Cr  Cr42  1  0.50097640  0.83348248  0.50446775  1
  Ni  Ni43  1  0.33461958  0.67064631  0.66981093  1
  Fe  Fe44  1  0.50256185  0.83567784  0.83465845  1
  Fe  Fe45  1  0.83736254  0.16920466  0.50312133  1
  Ni  Ni46  1  0.66984948  0.00261518  0.66985961  1
  Fe  Fe47  1  0.83491306  0.16944243  0.83548798  1
  Ni  Ni48  1  0.83279874  0.50093305  0.50372933  1
  Ni  Ni49  1  0.67070544  0.33546581  0.66787930  1
  Ni  Ni50  1  0.83429329  0.50125978  0.83496655  1
  Ni  Ni51  1  0.83702891  0.83516528  0.50431340  1
  Ni  Ni52  1  0.67038282  0.66831068  0.66920489  1
  Fe  Fe53  1  0.83530326  0.83473057  0.83479531  1
" 