2535,Ni53Fe17Cr28_12,-229.431118674709, 176.431106484618,Ni53Fe17Cr28,"# generated using pymatgen
 data_Cr16Fe9Ni29
_symmetry_space_group_name_H-M   'P 1'
_cell_length_a   7.46509491
_cell_length_b   7.46509491
_cell_length_c   10.55723846
_cell_angle_alpha   90.00000000
_cell_angle_beta   90.00000000
_cell_angle_gamma   90.00000000
_symmetry_Int_Tables_number   1
_chemical_formula_structural   Cr16Fe9Ni29
_chemical_formula_sum   'Cr16 Fe9 Ni29'
_cell_volume   588.33000482
_cell_formula_units_Z   1
loop_
 _symmetry_equiv_pos_site_id
 _symmetry_equiv_pos_as_xyz
  1  'x, y, z'
loop_
 _atom_site_type_symbol
 _atom_site_label
 _atom_site_symmetry_multiplicity
 _atom_site_fract_x
 _atom_site_fract_y
 _atom_site_fract_z
 _atom_site_occupancy
  Ni  Ni0  1  0.00184992  0.99943057  0.00164889  1
  Fe  Fe1  1  0.16609202  0.16603540  0.16594024  1
  Cr  Cr2  1  0.99934859  0.99794439  0.33292086  1
  Ni  Ni3  1  0.99893120  0.33407832  0.00114881  1
  Ni  Ni4  1  0.16271946  0.50198332  0.16806522  1
  Ni  Ni5  1  0.99946381  0.33546637  0.33248737  1
  Ni  Ni6  1  0.99862352  0.66688298  0.00094809  1
  Ni  Ni7  1  0.16737136  0.83264594  0.16631702  1
  Ni  Ni8  1  0.00149822  0.66690889  0.33341967  1
  Ni  Ni9  1  0.32980416  0.00040558  0.00225147  1
  Ni  Ni10  1  0.50050819  0.16526071  0.16720372  1
  Ni  Ni11  1  0.33384821  0.99786666  0.33173043  1
  Cr  Cr12  1  0.33395687  0.33456107  0.00039100  1
  Fe  Fe13  1  0.50044758  0.50137500  0.16514803  1
  Cr  Cr14  1  0.33205532  0.33509501  0.33162265  1
  Ni  Ni15  1  0.33304665  0.66589367  0.00077382  1
  Cr  Cr16  1  0.49739030  0.83450693  0.16766293  1
  Ni  Ni17  1  0.33067385  0.66798607  0.33367962  1
  Cr  Cr18  1  0.66913020  0.99954727  0.00142536  1
  Fe  Fe19  1  0.83499465  0.16880309  0.16541452  1
  Fe  Fe20  1  0.66715307  0.99918806  0.33269130  1
  Ni  Ni21  1  0.66775062  0.33731847  0.00164243  1
  Ni  Ni22  1  0.83575470  0.49924205  0.16531310  1
  Cr  Cr23  1  0.66788320  0.33264798  0.33105627  1
  Ni  Ni24  1  0.66872353  0.66297633  0.99992026  1
  Fe  Fe25  1  0.83599678  0.83083187  0.16619604  1
  Fe  Fe26  1  0.66886588  0.66828347  0.33215264  1
  Cr  Cr27  1  0.16494986  0.16672270  0.50143320  1
  Ni  Ni28  1  0.99906313  0.99876897  0.66572668  1
  Fe  Fe29  1  0.16436818  0.16702952  0.83324612  1
  Ni  Ni30  1  0.16344238  0.50351906  0.49953536  1
  Ni  Ni31  1  0.99852253  0.33350082  0.66675451  1
  Ni  Ni32  1  0.16421429  0.50044792  0.83279055  1
  Ni  Ni33  1  0.16617877  0.83127247  0.50058382  1
  Ni  Ni34  1  0.99924219  0.66812214  0.66602436  1
  Cr  Cr35  1  0.16615437  0.83320783  0.83399475  1
  Cr  Cr36  1  0.50213001  0.16340610  0.50142088  1
  Ni  Ni37  1  0.33154170  0.99861641  0.66641188  1
  Cr  Cr38  1  0.49959077  0.16665221  0.83210419  1
  Cr  Cr39  1  0.49921265  0.50235173  0.50047023  1
  Cr  Cr40  1  0.33290324  0.33585888  0.66837703  1
  Ni  Ni41  1  0.50244183  0.50119954  0.83431189  1
  Cr  Cr42  1  0.49877035  0.83463579  0.50040300  1
  Ni  Ni43  1  0.33268690  0.66695739  0.66593866  1
  Cr  Cr44  1  0.49967285  0.83192611  0.83232413  1
  Fe  Fe45  1  0.83483993  0.16552969  0.50227980  1
  Fe  Fe46  1  0.66993994  0.99848495  0.66603973  1
  Cr  Cr47  1  0.83553763  0.16920077  0.83188405  1
  Cr  Cr48  1  0.83773625  0.50009636  0.50155693  1
  Ni  Ni49  1  0.66861689  0.33464168  0.66795066  1
  Ni  Ni50  1  0.83373632  0.50069150  0.83371065  1
  Ni  Ni51  1  0.83465528  0.83411065  0.50077079  1
  Ni  Ni52  1  0.66846319  0.66641544  0.66866948  1
  Ni  Ni53  1  0.83456932  0.83053053  0.83317750  1
" 