8358,Ni53Fe44Cr1_18,-241.256414735171, 225.269324916001,Ni53Fe44Cr1,"# generated using pymatgen
 data_CrFe24Ni29
_symmetry_space_group_name_H-M   'P 1'
_cell_length_a   7.40424511
_cell_length_b   7.40424511
_cell_length_c   10.47118385
_cell_angle_alpha   90.00000000
_cell_angle_beta   90.00000000
_cell_angle_gamma   90.00000000
_symmetry_Int_Tables_number   1
_chemical_formula_structural   CrFe24Ni29
_chemical_formula_sum   'Cr1 Fe24 Ni29'
_cell_volume   574.06009570
_cell_formula_units_Z   1
loop_
 _symmetry_equiv_pos_site_id
 _symmetry_equiv_pos_as_xyz
  1  'x, y, z'
loop_
 _atom_site_type_symbol
 _atom_site_label
 _atom_site_symmetry_multiplicity
 _atom_site_fract_x
 _atom_site_fract_y
 _atom_site_fract_z
 _atom_site_occupancy
  Fe  Fe0  1  0.00722074  0.00508608  1.00351088  1
  Ni  Ni1  1  0.17205936  0.17154368  0.16945559  1
  Ni  Ni2  1  0.00478301  0.00583132  0.33685759  1
  Ni  Ni3  1  0.00429648  0.33779811  0.00453430  1
  Ni  Ni4  1  0.16993130  0.50449178  0.17103994  1
  Ni  Ni5  1  0.00582629  0.33628730  0.33714841  1
  Ni  Ni6  1  0.00448239  0.66920555  1.00306558  1
  Ni  Ni7  1  0.17186394  0.83674141  0.17150018  1
  Fe  Fe8  1  1.00406616  0.67052173  0.33767311  1
  Ni  Ni9  1  0.33883158  1.00387524  0.00511241  1
  Ni  Ni10  1  0.50457464  0.17163382  0.17158737  1
  Fe  Fe11  1  0.33729482  0.00597617  0.33645250  1
  Fe  Fe12  1  0.33704651  0.33706098  0.00485064  1
  Fe  Fe13  1  0.50238517  0.50483140  0.17260982  1
  Ni  Ni14  1  0.33607768  0.33733195  0.33717752  1
  Fe  Fe15  1  0.33582284  0.67142283  1.00401309  1
  Ni  Ni16  1  0.50325538  0.83805102  0.17115381  1
  Fe  Fe17  1  0.33701633  0.67082727  0.33837955  1
  Fe  Fe18  1  0.66960255  0.00606408  1.00371415  1
  Fe  Fe19  1  0.83830904  0.17169125  0.17132960  1
  Ni  Ni20  1  0.67073806  1.00268304  0.33844254  1
  Fe  Fe21  1  0.67088178  0.33701798  1.00277834  1
  Fe  Fe22  1  0.83786123  0.50241612  0.17075525  1
  Fe  Fe23  1  0.67092381  0.33648989  0.33892445  1
  Fe  Fe24  1  0.66935385  0.66974323  1.00287577  1
  Cr  Cr25  1  0.83848945  0.83676791  0.16845101  1
  Ni  Ni26  1  0.66946371  0.67180473  0.33767771  1
  Ni  Ni27  1  0.17230223  0.17059468  0.50501759  1
  Fe  Fe28  1  1.00416401  0.00472827  0.67019059  1
  Fe  Fe29  1  0.17069454  0.17029204  0.83801719  1
  Fe  Fe30  1  0.17102106  0.50177906  0.50432577  1
  Ni  Ni31  1  1.00405243  0.33627671  0.67061536  1
  Fe  Fe32  1  0.17108943  0.50328592  0.83811461  1
  Fe  Fe33  1  0.17057696  0.83816301  0.50469670  1
  Fe  Fe34  1  0.00449586  0.66830923  0.67223394  1
  Ni  Ni35  1  0.17095427  0.83662240  0.83811272  1
  Ni  Ni36  1  0.50252971  0.17216126  0.50459756  1
  Fe  Fe37  1  0.33821421  0.00501294  0.67250494  1
  Ni  Ni38  1  0.50422444  0.17129089  0.83689468  1
  Ni  Ni39  1  0.50423062  0.50356753  0.50485889  1
  Ni  Ni40  1  0.33674925  0.33785231  0.67259527  1
  Fe  Fe41  1  0.50501083  0.50409262  0.83549142  1
  Fe  Fe42  1  0.50596348  0.83780569  0.50467919  1
  Ni  Ni43  1  0.33866050  0.67144908  0.67083654  1
  Ni  Ni44  1  0.50280806  0.83839297  0.83783549  1
  Ni  Ni45  1  0.83791367  0.17104692  0.50316364  1
  Fe  Fe46  1  0.67025909  0.00621107  0.67031879  1
  Ni  Ni47  1  0.83720128  0.17268740  0.83726642  1
  Ni  Ni48  1  0.83739502  0.50529977  0.50340090  1
  Ni  Ni49  1  0.67191195  0.33843177  0.66946860  1
  Ni  Ni50  1  0.83828498  0.50382230  0.83705830  1
  Ni  Ni51  1  0.83870973  0.83612862  0.50623588  1
  Ni  Ni52  1  0.67035921  0.67202097  0.67204080  1
  Fe  Fe53  1  0.83677799  0.83849161  0.83736999  1
" 