8998,Ni53Fe44Cr1_9,-241.683246862285, 223.614995468442,Ni53Fe44Cr1,"# generated using pymatgen
 data_CrFe24Ni29
_symmetry_space_group_name_H-M   'P 1'
_cell_length_a   7.40824168
_cell_length_b   7.40824168
_cell_length_c   10.47683586
_cell_angle_alpha   90.00000000
_cell_angle_beta   90.00000000
_cell_angle_gamma   90.00000000
_symmetry_Int_Tables_number   1
_chemical_formula_structural   CrFe24Ni29
_chemical_formula_sum   'Cr1 Fe24 Ni29'
_cell_volume   574.99017450
_cell_formula_units_Z   1
loop_
 _symmetry_equiv_pos_site_id
 _symmetry_equiv_pos_as_xyz
  1  'x, y, z'
loop_
 _atom_site_type_symbol
 _atom_site_label
 _atom_site_symmetry_multiplicity
 _atom_site_fract_x
 _atom_site_fract_y
 _atom_site_fract_z
 _atom_site_occupancy
  Ni  Ni0  1  0.00554459  0.00441648  1.00329760  1
  Ni  Ni1  1  0.17040041  0.17127285  0.17025698  1
  Ni  Ni2  1  1.00293475  0.00520406  0.33664481  1
  Fe  Fe3  1  0.00448084  0.33621562  1.00382894  1
  Fe  Fe4  1  0.17077304  0.50423227  0.17074211  1
  Ni  Ni5  1  0.00451979  0.33607301  0.33684681  1
  Fe  Fe6  1  0.00421500  0.67198734  1.00363033  1
  Fe  Fe7  1  0.17069690  0.83813630  0.16999292  1
  Fe  Fe8  1  1.00307376  0.67054013  0.33705363  1
  Ni  Ni9  1  0.33543075  1.00350784  1.00351631  1
  Fe  Fe10  1  0.50319942  0.17053753  0.17158790  1
  Fe  Fe11  1  0.33775458  0.00493492  0.33658880  1
  Fe  Fe12  1  0.33705290  0.33622725  0.00406496  1
  Fe  Fe13  1  0.50405875  0.50448925  0.17147304  1
  Ni  Ni14  1  0.33668811  0.33875440  0.33726388  1
  Fe  Fe15  1  0.33713185  0.67178532  1.00330336  1
  Ni  Ni16  1  0.50432427  0.83582641  0.17202650  1
  Ni  Ni17  1  0.33834619  0.66957411  0.33668718  1
  Cr  Cr18  1  0.67108024  1.00314308  1.00339766  1
  Fe  Fe19  1  0.83833512  0.17046111  0.17184671  1
  Ni  Ni20  1  0.67175745  1.00354335  0.33710486  1
  Fe  Fe21  1  0.67037372  0.33770944  1.00373836  1
  Fe  Fe22  1  0.83707335  0.50416562  0.17108606  1
  Ni  Ni23  1  0.67069823  0.33720346  0.33734084  1
  Fe  Fe24  1  0.67056022  0.67056355  1.00395477  1
  Ni  Ni25  1  0.83748160  0.83644417  0.17154102  1
  Ni  Ni26  1  0.66907711  0.67115766  0.33683195  1
  Ni  Ni27  1  0.17029524  0.17134047  0.50427873  1
  Ni  Ni28  1  1.00291102  0.00555465  0.67196591  1
  Fe  Fe29  1  0.17060579  0.16984234  0.83758010  1
  Fe  Fe30  1  0.17086823  0.50287528  0.50419918  1
  Ni  Ni31  1  0.00450026  0.33616099  0.67124460  1
  Ni  Ni32  1  0.17148498  0.50429050  0.83730775  1
  Fe  Fe33  1  0.17073056  0.83814012  0.50446382  1
  Fe  Fe34  1  1.00360253  0.67146971  0.67122591  1
  Ni  Ni35  1  0.16985394  0.83667847  0.83818609  1
  Ni  Ni36  1  0.50372659  0.17206338  0.50299468  1
  Fe  Fe37  1  0.33752718  1.00376539  0.67142327  1
  Ni  Ni38  1  0.50372674  0.17201814  0.83668930  1
  Ni  Ni39  1  0.50339540  0.50363397  0.50329607  1
  Fe  Fe40  1  0.33773452  0.33740434  0.67020373  1
  Ni  Ni41  1  0.50304489  0.50387874  0.83806270  1
  Fe  Fe42  1  0.50471018  0.83763712  0.50390284  1
  Ni  Ni43  1  0.33858704  0.66985034  0.67165364  1
  Ni  Ni44  1  0.50358775  0.83601039  0.83607565  1
  Ni  Ni45  1  0.83788699  0.16967511  0.50271009  1
  Ni  Ni46  1  0.67150430  1.00320946  0.67121594  1
  Ni  Ni47  1  0.83804788  0.17039062  0.83674823  1
  Fe  Fe48  1  0.83669388  0.50277743  0.50363945  1
  Fe  Fe49  1  0.67057499  0.33687445  0.67041718  1
  Fe  Fe50  1  0.83684123  0.50427470  0.83718236  1
  Ni  Ni51  1  0.83754845  0.83760135  0.50358497  1
  Ni  Ni52  1  0.66880618  0.67143961  0.67164084  1
  Ni  Ni53  1  0.83846375  0.83735983  0.83678214  1
" 