908,Ni53Fe44Cr1_4,-240.828960993644, 222.3219869555,Ni53Fe44Cr1,"# generated using pymatgen
 data_CrFe24Ni29
_symmetry_space_group_name_H-M   'P 1'
_cell_length_a   7.40378110
_cell_length_b   7.40378110
_cell_length_c   10.47052765
_cell_angle_alpha   90.00000000
_cell_angle_beta   90.00000000
_cell_angle_gamma   90.00000000
_symmetry_Int_Tables_number   1
_chemical_formula_structural   CrFe24Ni29
_chemical_formula_sum   'Cr1 Fe24 Ni29'
_cell_volume   573.95217825
_cell_formula_units_Z   1
loop_
 _symmetry_equiv_pos_site_id
 _symmetry_equiv_pos_as_xyz
  1  'x, y, z'
loop_
 _atom_site_type_symbol
 _atom_site_label
 _atom_site_symmetry_multiplicity
 _atom_site_fract_x
 _atom_site_fract_y
 _atom_site_fract_z
 _atom_site_occupancy
  Fe  Fe0  1  0.00587204  1.00330111  0.00434754  1
  Ni  Ni1  1  0.17259971  0.16967359  0.17094444  1
  Fe  Fe2  1  1.00278081  0.00510085  0.33703185  1
  Ni  Ni3  1  0.00463110  0.33666296  0.00474336  1
  Fe  Fe4  1  0.17057169  0.50346016  0.17135021  1
  Ni  Ni5  1  0.00474465  0.33783732  0.33688658  1
  Fe  Fe6  1  0.00528636  0.66980548  0.00485887  1
  Ni  Ni7  1  0.17253235  0.83878848  0.17330909  1
  Ni  Ni8  1  1.00419068  0.67051910  0.33607812  1
  Fe  Fe9  1  0.33714205  1.00399439  1.00381129  1
  Fe  Fe10  1  0.50351235  0.17173749  0.17054428  1
  Fe  Fe11  1  0.33848524  0.00483402  0.33854328  1
  Ni  Ni12  1  0.33540688  0.33721815  1.00319986  1
  Fe  Fe13  1  0.50299814  0.50446658  0.16977764  1
  Ni  Ni14  1  0.33724320  0.33620092  0.33769284  1
  Ni  Ni15  1  0.33807323  0.67167357  1.00404990  1
  Fe  Fe16  1  0.50439626  0.83679359  0.17184204  1
  Fe  Fe17  1  0.33888751  0.66954991  0.33814304  1
  Fe  Fe18  1  0.67016919  0.00577650  1.00367584  1
  Fe  Fe19  1  0.83970573  0.17125956  0.17037005  1
  Ni  Ni20  1  0.66998746  1.00416632  0.33673977  1
  Fe  Fe21  1  0.66977183  0.34004439  1.00363147  1
  Ni  Ni22  1  0.83561393  0.50406271  0.17091629  1
  Ni  Ni23  1  0.67071675  0.33665489  0.33627502  1
  Ni  Ni24  1  0.67055099  0.67365903  1.00319685  1
  Fe  Fe25  1  0.83843775  0.83733719  0.17110941  1
  Ni  Ni26  1  0.67174377  0.67200224  0.33836673  1
  Fe  Fe27  1  0.17021611  0.17051124  0.50375798  1
  Fe  Fe28  1  1.00278529  1.00414344  0.67174285  1
  Fe  Fe29  1  0.16970017  0.17151095  0.83812909  1
  Ni  Ni30  1  0.17115517  0.50273269  0.50275276  1
  Ni  Ni31  1  0.00481571  0.33579149  0.67105689  1
  Fe  Fe32  1  0.17160729  0.50317084  0.83786782  1
  Fe  Fe33  1  0.17079106  0.83611244  0.50387066  1
  Cr  Cr34  1  1.00279822  0.66838273  0.67286039  1
  Ni  Ni35  1  0.17270922  0.83909594  0.83770718  1
  Fe  Fe36  1  0.50577226  0.17126084  0.50474517  1
  Ni  Ni37  1  0.33819160  0.00479660  0.67193536  1
  Ni  Ni38  1  0.50341058  0.17208444  0.83804169  1
  Fe  Fe39  1  0.50567257  0.50543211  0.50462028  1
  Fe  Fe40  1  0.33890959  0.33827853  0.67054225  1
  Ni  Ni41  1  0.50457953  0.50342976  0.83611023  1
  Ni  Ni42  1  0.50421430  0.83936220  0.50482245  1
  Ni  Ni43  1  0.33843348  0.67250001  0.67085019  1
  Fe  Fe44  1  0.50584936  0.83706065  0.83684380  1
  Fe  Fe45  1  0.83677251  0.17099768  0.50463137  1
  Ni  Ni46  1  0.66995622  1.00405917  0.67223529  1
  Ni  Ni47  1  0.83651578  0.17147703  0.83801342  1
  Ni  Ni48  1  0.83724215  0.50347196  0.50353532  1
  Ni  Ni49  1  0.67297780  0.33663977  0.67123738  1
  Ni  Ni50  1  0.83503064  0.50311826  0.83837164  1
  Ni  Ni51  1  0.83603071  0.83800220  0.50293949  1
  Ni  Ni52  1  0.67005352  0.67234011  0.67091646  1
  Ni  Ni53  1  0.83847686  0.83837578  0.83914629  1
" 