2978,Ni53Fe44Cr1_1,-241.723023575333, 221.5439931955,Ni53Fe44Cr1,"# generated using pymatgen
 data_CrFe24Ni29
_symmetry_space_group_name_H-M   'P 1'
_cell_length_a   7.41062480
_cell_length_b   7.41062480
_cell_length_c   10.48020609
_cell_angle_alpha   90.00000000
_cell_angle_beta   90.00000000
_cell_angle_gamma   90.00000000
_symmetry_Int_Tables_number   1
_chemical_formula_structural   CrFe24Ni29
_chemical_formula_sum   'Cr1 Fe24 Ni29'
_cell_volume   575.54524984
_cell_formula_units_Z   1
loop_
 _symmetry_equiv_pos_site_id
 _symmetry_equiv_pos_as_xyz
  1  'x, y, z'
loop_
 _atom_site_type_symbol
 _atom_site_label
 _atom_site_symmetry_multiplicity
 _atom_site_fract_x
 _atom_site_fract_y
 _atom_site_fract_z
 _atom_site_occupancy
  Ni  Ni0  1  1.00345148  1.00257147  0.00482985  1
  Fe  Fe1  1  0.17034674  0.16964984  0.16986625  1
  Fe  Fe2  1  1.00312495  1.00318967  0.33670245  1
  Fe  Fe3  1  1.00376886  0.33682210  0.00412251  1
  Fe  Fe4  1  0.16839943  0.50356104  0.17016254  1
  Fe  Fe5  1  1.00302203  0.33704949  0.33726383  1
  Ni  Ni6  1  1.00299242  0.67049830  0.00518772  1
  Ni  Ni7  1  0.16891210  0.83655090  0.16978349  1
  Fe  Fe8  1  1.00339122  0.67117728  0.33756455  1
  Ni  Ni9  1  0.33761040  0.00527332  0.00485541  1
  Ni  Ni10  1  0.50484618  0.16999259  0.16988614  1
  Fe  Fe11  1  0.33792148  1.00357976  0.33726491  1
  Ni  Ni12  1  0.33639006  0.33594895  1.00362542  1
  Cr  Cr13  1  0.50349168  0.50207578  0.16976350  1
  Fe  Fe14  1  0.33702416  0.33566269  0.33798620  1
  Fe  Fe15  1  0.33578110  0.67259291  1.00225448  1
  Fe  Fe16  1  0.50482074  0.84004701  0.17023287  1
  Fe  Fe17  1  0.33626984  0.67217589  0.33890875  1
  Ni  Ni18  1  0.67036109  1.00329291  0.00474477  1
  Ni  Ni19  1  0.83580293  0.16981120  0.17014549  1
  Ni  Ni20  1  0.67043417  0.00391393  0.33656659  1
  Fe  Fe21  1  0.67111407  0.33520805  1.00292618  1
  Fe  Fe22  1  0.83872556  0.50419015  0.17065220  1
  Fe  Fe23  1  0.67137290  0.33539875  0.33838782  1
  Ni  Ni24  1  0.67275754  0.67172418  1.00342294  1
  Ni  Ni25  1  0.83880013  0.83805717  0.17020748  1
  Fe  Fe26  1  0.67176103  0.67207500  0.33779061  1
  Fe  Fe27  1  0.17060027  0.16989695  0.50427651  1
  Ni  Ni28  1  1.00334419  1.00219056  0.66956308  1
  Fe  Fe29  1  0.17138531  0.16917700  0.83727604  1
  Ni  Ni30  1  0.16978450  0.50421159  0.50346245  1
  Fe  Fe31  1  0.00445455  0.33747927  0.67003273  1
  Ni  Ni32  1  0.17039843  0.50428862  0.83782284  1
  Ni  Ni33  1  0.17000224  0.83594981  0.50487596  1
  Ni  Ni34  1  0.00451896  0.67096831  0.66954899  1
  Ni  Ni35  1  0.16976898  0.83576508  0.83676374  1
  Ni  Ni36  1  0.50416297  0.17068881  0.50358798  1
  Ni  Ni37  1  0.33725553  0.00406376  0.66965041  1
  Ni  Ni38  1  0.50425596  0.17082033  0.83794537  1
  Fe  Fe39  1  0.50357892  0.50455883  0.50399663  1
  Ni  Ni40  1  0.33804257  0.33786467  0.66922794  1
  Fe  Fe41  1  0.50312168  0.50448059  0.83733133  1
  Ni  Ni42  1  0.50380580  0.83873337  0.50345644  1
  Ni  Ni43  1  0.33568559  0.66949476  0.67044495  1
  Ni  Ni44  1  0.50393024  0.83853380  0.83817019  1
  Fe  Fe45  1  0.83678627  0.16966510  0.50356177  1
  Ni  Ni46  1  0.67082244  0.00455409  0.67010973  1
  Fe  Fe47  1  0.83701827  0.16891285  0.83739899  1
  Ni  Ni48  1  0.83818096  0.50385787  0.50357937  1
  Ni  Ni49  1  0.66934410  0.33668819  0.66976075  1
  Fe  Fe50  1  0.83701080  0.50520521  0.83674826  1
  Ni  Ni51  1  0.83761144  0.83665736  0.50417505  1
  Fe  Fe52  1  0.67028660  0.67150941  0.67065852  1
  Ni  Ni53  1  0.83771997  0.83726534  0.83704089  1
" 