8504,Ni53Fe32Cr14_0,-234.793935888345, 201.549918372617,Ni53Fe32Cr14,"# generated using pymatgen
 data_Cr9Fe17Ni28
_symmetry_space_group_name_H-M   'P 1'
_cell_length_a   7.43129186
_cell_length_b   7.43129186
_cell_length_c   10.50943373
_cell_angle_alpha   90.00000000
_cell_angle_beta   90.00000000
_cell_angle_gamma   90.00000000
_symmetry_Int_Tables_number   1
_chemical_formula_structural   Cr9Fe17Ni28
_chemical_formula_sum   'Cr9 Fe17 Ni28'
_cell_volume   580.37400533
_cell_formula_units_Z   1
loop_
 _symmetry_equiv_pos_site_id
 _symmetry_equiv_pos_as_xyz
  1  'x, y, z'
loop_
 _atom_site_type_symbol
 _atom_site_label
 _atom_site_symmetry_multiplicity
 _atom_site_fract_x
 _atom_site_fract_y
 _atom_site_fract_z
 _atom_site_occupancy
  Cr  Cr0  1  1.00219814  1.00114546  1.00160064  1
  Cr  Cr1  1  0.17076630  0.16969821  0.17040554  1
  Ni  Ni2  1  0.00264228  1.00114923  0.33806107  1
  Ni  Ni3  1  0.00351638  0.33923239  1.00053246  1
  Fe  Fe4  1  0.17010894  0.50284649  0.16934834  1
  Ni  Ni5  1  0.00292870  0.33670044  0.33786076  1
  Ni  Ni6  1  0.00329626  0.66689818  1.00006214  1
  Fe  Fe7  1  0.17109961  0.83432552  0.17130175  1
  Ni  Ni8  1  0.00413384  0.66936660  0.33658466  1
  Fe  Fe9  1  0.33745000  0.00324722  0.00247142  1
  Ni  Ni10  1  0.50098092  0.16873045  0.16808166  1
  Ni  Ni11  1  0.33707221  1.00124431  0.33578094  1
  Fe  Fe12  1  0.33602910  0.33513573  1.00136121  1
  Ni  Ni13  1  0.50125314  0.50209124  0.17053171  1
  Ni  Ni14  1  0.33694835  0.33677024  0.33618983  1
  Cr  Cr15  1  0.33486542  0.66859647  0.00408946  1
  Ni  Ni16  1  0.50128419  0.83639744  0.16982799  1
  Fe  Fe17  1  0.33613548  0.66960159  0.33557239  1
  Ni  Ni18  1  0.66555349  1.00229303  1.00210252  1
  Cr  Cr19  1  0.83441471  0.16975413  0.17076067  1
  Ni  Ni20  1  0.66750387  0.00244735  0.33682738  1
  Fe  Fe21  1  0.66750894  0.33690976  1.00209843  1
  Cr  Cr22  1  0.83591202  0.50263035  0.16804784  1
  Ni  Ni23  1  0.66734076  0.33527932  0.33662858  1
  Fe  Fe24  1  0.66993379  0.66900904  1.00112162  1
  Cr  Cr25  1  0.83491251  0.83483450  0.17076757  1
  Ni  Ni26  1  0.66743518  0.66949110  0.33730208  1
  Fe  Fe27  1  0.16860778  0.16863885  0.50236523  1
  Fe  Fe28  1  0.00292722  0.00242339  0.66798950  1
  Ni  Ni29  1  0.17170299  0.17064403  0.83419087  1
  Fe  Fe30  1  0.16762670  0.50151685  0.50204745  1
  Ni  Ni31  1  0.00487590  0.33645290  0.66882467  1
  Ni  Ni32  1  0.16772345  0.49972151  0.83639232  1
  Ni  Ni33  1  0.16846476  0.83674977  0.50103518  1
  Fe  Fe34  1  1.00047796  0.66849914  0.66924182  1
  Fe  Fe35  1  0.16751594  0.83533750  0.83498010  1
  Ni  Ni36  1  0.50129067  0.16802311  0.50152199  1
  Fe  Fe37  1  0.33586297  0.00484042  0.66825847  1
  Fe  Fe38  1  0.50051578  0.16901490  0.83622988  1
  Fe  Fe39  1  0.50329505  0.50244525  0.50068681  1
  Ni  Ni40  1  0.33371140  0.33524419  0.67032093  1
  Ni  Ni41  1  0.50253931  0.50205395  0.83640226  1
  Ni  Ni42  1  0.50293711  0.83708709  0.50147610  1
  Cr  Cr43  1  0.33561734  0.66826227  0.66818342  1
  Fe  Fe44  1  0.50449962  0.83681622  0.83580641  1
  Ni  Ni45  1  0.83659091  0.16879318  0.50053858  1
  Ni  Ni46  1  0.66883903  1.00012367  0.66828446  1
  Cr  Cr47  1  0.83697232  0.16912276  0.83658464  1
  Ni  Ni48  1  0.83693081  0.50297824  0.50198475  1
  Cr  Cr49  1  0.66890090  0.33543575  0.66796652  1
  Ni  Ni50  1  0.83695590  0.50572083  0.83729981  1
  Ni  Ni51  1  0.83581660  0.83544480  0.50242971  1
  Fe  Fe52  1  0.67076783  0.66991761  0.66881561  1
  Ni  Ni53  1  0.83472004  0.83277688  0.83473270  1
" 