4948,Ni53Fe17Cr28_18,-229.136197585715, 173.853928250289,Ni53Fe17Cr28,"# generated using pymatgen
 data_Cr16Fe9Ni29
_symmetry_space_group_name_H-M   'P 1'
_cell_length_a   7.46780578
_cell_length_b   7.46780578
_cell_length_c   10.56107222
_cell_angle_alpha   90.00000000
_cell_angle_beta   90.00000000
_cell_angle_gamma   90.00000000
_symmetry_Int_Tables_number   1
_chemical_formula_structural   Cr16Fe9Ni29
_chemical_formula_sum   'Cr16 Fe9 Ni29'
_cell_volume   588.97117646
_cell_formula_units_Z   1
loop_
 _symmetry_equiv_pos_site_id
 _symmetry_equiv_pos_as_xyz
  1  'x, y, z'
loop_
 _atom_site_type_symbol
 _atom_site_label
 _atom_site_symmetry_multiplicity
 _atom_site_fract_x
 _atom_site_fract_y
 _atom_site_fract_z
 _atom_site_occupancy
  Ni  Ni0  1  0.99922979  0.00165772  0.00017994  1
  Ni  Ni1  1  0.16666658  0.16647181  0.16509775  1
  Ni  Ni2  1  0.00108660  0.99714043  0.33038758  1
  Ni  Ni3  1  0.00013046  0.33081059  0.00157669  1
  Fe  Fe4  1  0.16710842  0.49894152  0.16720882  1
  Cr  Cr5  1  0.00165474  0.33484518  0.33172356  1
  Cr  Cr6  1  0.00055550  0.66718958  0.00033904  1
  Fe  Fe7  1  0.16503491  0.83374797  0.16697497  1
  Ni  Ni8  1  0.00040492  0.66682211  0.33322106  1
  Ni  Ni9  1  0.33377354  0.00004418  0.00065645  1
  Fe  Fe10  1  0.49984233  0.16805164  0.16448270  1
  Cr  Cr11  1  0.33257015  0.00044246  0.33370916  1
  Ni  Ni12  1  0.33259833  0.33232581  0.00341982  1
  Ni  Ni13  1  0.49812543  0.50034324  0.16724514  1
  Ni  Ni14  1  0.33388554  0.33585484  0.33329804  1
  Fe  Fe15  1  0.33297212  0.66895802  0.00096877  1
  Fe  Fe16  1  0.50062417  0.83241956  0.16600490  1
  Ni  Ni17  1  0.33303164  0.66486919  0.33304461  1
  Ni  Ni18  1  0.66695854  0.00050472  0.99974204  1
  Ni  Ni19  1  0.83565548  0.16501505  0.16341860  1
  Cr  Cr20  1  0.66619713  0.99896275  0.33266549  1
  Fe  Fe21  1  0.66810728  0.33008487  0.00220565  1
  Ni  Ni22  1  0.83178471  0.50056093  0.16706621  1
  Cr  Cr23  1  0.66482627  0.33503653  0.33275102  1
  Cr  Cr24  1  0.66626226  0.66863789  0.99978351  1
  Ni  Ni25  1  0.83391228  0.83411981  0.16823622  1
  Ni  Ni26  1  0.66627571  0.66539606  0.33323454  1
  Cr  Cr27  1  0.16810475  0.16571013  0.50179943  1
  Ni  Ni28  1  0.00241538  0.99799338  0.66912322  1
  Cr  Cr29  1  0.16506120  0.16490872  0.83238213  1
  Ni  Ni30  1  0.16794412  0.50269548  0.49997422  1
  Fe  Fe31  1  0.99899298  0.33446648  0.66605530  1
  Cr  Cr32  1  0.16806429  0.50067249  0.83331023  1
  Ni  Ni33  1  0.16827333  0.83027732  0.50058598  1
  Ni  Ni34  1  0.00317538  0.66698185  0.66567920  1
  Ni  Ni35  1  0.16755499  0.83457487  0.83219867  1
  Ni  Ni36  1  0.49753777  0.16840971  0.50110793  1
  Ni  Ni37  1  0.33217616  0.99729308  0.66587414  1
  Cr  Cr38  1  0.50024697  0.16615724  0.83471465  1
  Fe  Fe39  1  0.49790361  0.50067711  0.49924580  1
  Fe  Fe40  1  0.33403512  0.33403152  0.66405023  1
  Cr  Cr41  1  0.49816311  0.50039805  0.83330301  1
  Ni  Ni42  1  0.49616453  0.83145870  0.49952432  1
  Ni  Ni43  1  0.33062731  0.66867167  0.66610839  1
  Ni  Ni44  1  0.49726189  0.83403289  0.83473683  1
  Cr  Cr45  1  0.83358719  0.16702247  0.50128760  1
  Cr  Cr46  1  0.66486738  0.00083524  0.66786776  1
  Ni  Ni47  1  0.83422999  0.16487308  0.83464097  1
  Ni  Ni48  1  0.83402077  0.50126954  0.50039382  1
  Ni  Ni49  1  0.66687043  0.33314846  0.66557280  1
  Cr  Cr50  1  0.83365014  0.49768557  0.83243132  1
  Cr  Cr51  1  0.83580985  0.83081942  0.49751299  1
  Cr  Cr52  1  0.66624834  0.66596960  0.66586954  1
  Ni  Ni53  1  0.83499702  0.83697030  0.83326606  1
" 