7462,Ni53Fe17Cr28_14,-229.14983160518, 173.634786317145,Ni53Fe17Cr28,"# generated using pymatgen
 data_Cr16Fe9Ni29
_symmetry_space_group_name_H-M   'P 1'
_cell_length_a   7.46794547
_cell_length_b   7.46794547
_cell_length_c   10.56126977
_cell_angle_alpha   90.00000000
_cell_angle_beta   90.00000000
_cell_angle_gamma   90.00000000
_symmetry_Int_Tables_number   1
_chemical_formula_structural   Cr16Fe9Ni29
_chemical_formula_sum   'Cr16 Fe9 Ni29'
_cell_volume   589.00422770
_cell_formula_units_Z   1
loop_
 _symmetry_equiv_pos_site_id
 _symmetry_equiv_pos_as_xyz
  1  'x, y, z'
loop_
 _atom_site_type_symbol
 _atom_site_label
 _atom_site_symmetry_multiplicity
 _atom_site_fract_x
 _atom_site_fract_y
 _atom_site_fract_z
 _atom_site_occupancy
  Ni  Ni0  1  0.00148756  0.99963004  0.00057477  1
  Fe  Fe1  1  0.16789417  0.16574035  0.16326696  1
  Cr  Cr2  1  0.99987872  0.99860674  0.33416740  1
  Ni  Ni3  1  0.99988764  0.33377699  0.00153296  1
  Ni  Ni4  1  0.16466322  0.50312046  0.16547960  1
  Cr  Cr5  1  0.00152360  0.33458096  0.33298002  1
  Ni  Ni6  1  0.99902317  0.66647724  0.00202017  1
  Ni  Ni7  1  0.16681759  0.83093029  0.16533643  1
  Ni  Ni8  1  0.00345169  0.66808458  0.33281649  1
  Ni  Ni9  1  0.33223824  0.99910982  0.00168083  1
  Cr  Cr10  1  0.49957850  0.16472212  0.16580575  1
  Fe  Fe11  1  0.33412391  0.99657116  0.33356732  1
  Ni  Ni12  1  0.33296067  0.33340261  0.99922975  1
  Cr  Cr13  1  0.49891346  0.50125463  0.16416189  1
  Cr  Cr14  1  0.33163654  0.33453167  0.33567584  1
  Ni  Ni15  1  0.33427611  0.66730527  0.00110623  1
  Ni  Ni16  1  0.49745702  0.83342120  0.16717550  1
  Ni  Ni17  1  0.33102467  0.66867830  0.33413688  1
  Cr  Cr18  1  0.66612169  0.99784954  0.99740931  1
  Cr  Cr19  1  0.83299678  0.16677112  0.16532735  1
  Ni  Ni20  1  0.66522612  0.99825256  0.33596784  1
  Ni  Ni21  1  0.66709940  0.33572074  0.99765688  1
  Fe  Fe22  1  0.83565053  0.50295585  0.16408503  1
  Cr  Cr23  1  0.66673918  0.33199520  0.33410008  1
  Ni  Ni24  1  0.66646088  0.66563461  0.99892347  1
  Fe  Fe25  1  0.83414794  0.83076497  0.16576766  1
  Cr  Cr26  1  0.66584211  0.66925716  0.33275090  1
  Fe  Fe27  1  0.16663402  0.16770700  0.50121990  1
  Cr  Cr28  1  0.99720856  -0.00005187  0.66579436  1
  Cr  Cr29  1  0.16693528  0.16769442  0.83581755  1
  Ni  Ni30  1  0.16743614  0.50206055  0.50053865  1
  Ni  Ni31  1  0.99860730  0.33383873  0.66504295  1
  Cr  Cr32  1  0.16608982  0.50020623  0.83317069  1
  Ni  Ni33  1  0.16535724  0.83047175  0.49808478  1
  Ni  Ni34  1  0.99786822  0.66543174  0.66486761  1
  Cr  Cr35  1  0.16484451  0.83188789  0.83609866  1
  Ni  Ni36  1  0.50210669  0.16638092  0.50032261  1
  Cr  Cr37  1  0.33591951  0.00029028  0.66539476  1
  Ni  Ni38  1  0.50248399  0.16869898  0.83369987  1
  Ni  Ni39  1  0.49760656  0.49814394  0.50156748  1
  Fe  Fe40  1  0.33571491  0.33380183  0.66547479  1
  Ni  Ni41  1  0.50275607  0.49827475  0.83436986  1
  Fe  Fe42  1  0.50136712  0.83359731  0.49924975  1
  Cr  Cr43  1  0.33509834  0.66550741  0.66535110  1
  Ni  Ni44  1  0.50357346  0.83286744  0.83412139  1
  Ni  Ni45  1  0.83016923  0.16442598  0.50209326  1
  Ni  Ni46  1  0.66670359  0.00052206  0.66594182  1
  Fe  Fe47  1  0.83104328  0.16792754  0.83292661  1
  Cr  Cr48  1  0.83435588  0.50099724  0.50157421  1
  Ni  Ni49  1  0.66617731  0.33237354  0.66716820  1
  Fe  Fe50  1  0.83100638  0.50063341  0.83310978  1
  Ni  Ni51  1  0.83400336  0.83505039  0.50009130  1
  Ni  Ni52  1  0.66687368  0.66692038  0.66763515  1
  Ni  Ni53  1  0.83169230  0.83194784  0.83332348  1
" 