4383,Ni54Fe46_17,-240.708991900018, 225.469342739724,Ni54Fe46,"# generated using pymatgen
 data_Fe29Ni25
_symmetry_space_group_name_H-M   'P 1'
_cell_length_a   7.39750615
_cell_length_b   7.39750615
_cell_length_c   10.46165353
_cell_angle_alpha   90.00000000
_cell_angle_beta   90.00000000
_cell_angle_gamma   90.00000000
_symmetry_Int_Tables_number   1
_chemical_formula_structural   Fe29Ni25
_chemical_formula_sum   'Fe29 Ni25'
_cell_volume   572.49408413
_cell_formula_units_Z   1
loop_
 _symmetry_equiv_pos_site_id
 _symmetry_equiv_pos_as_xyz
  1  'x, y, z'
loop_
 _atom_site_type_symbol
 _atom_site_label
 _atom_site_symmetry_multiplicity
 _atom_site_fract_x
 _atom_site_fract_y
 _atom_site_fract_z
 _atom_site_occupancy
  Fe  Fe0  1  0.00497809  0.00474064  1.00434944  1
  Fe  Fe1  1  0.17131103  0.17178543  0.17203007  1
  Ni  Ni2  1  0.00534037  1.00379729  0.33791299  1
  Fe  Fe3  1  0.00476060  0.33927460  1.00399495  1
  Ni  Ni4  1  0.17026683  0.50560938  0.17230604  1
  Fe  Fe5  1  0.00505488  0.33846552  0.33860664  1
  Ni  Ni6  1  1.00408445  0.67204977  1.00368131  1
  Ni  Ni7  1  0.17146881  0.83804480  0.17167495  1
  Ni  Ni8  1  1.00294571  0.67208797  0.33906128  1
  Fe  Fe9  1  0.33791630  0.00520190  1.00435194  1
  Fe  Fe10  1  0.50385647  0.17228730  0.17113214  1
  Ni  Ni11  1  0.33739536  0.00618810  0.33800978  1
  Ni  Ni12  1  0.33929691  0.33766313  1.00331669  1
  Fe  Fe13  1  0.50420540  0.50475598  0.17185840  1
  Ni  Ni14  1  0.33896052  0.33702908  0.33879046  1
  Fe  Fe15  1  0.33722283  0.67044757  1.00420899  1
  Fe  Fe16  1  0.50434717  0.83705581  0.17187759  1
  Fe  Fe17  1  0.33740471  0.67180031  0.33823438  1
  Fe  Fe18  1  0.67120929  0.00528600  1.00426820  1
  Fe  Fe19  1  0.83893555  0.17164310  0.17128786  1
  Fe  Fe20  1  0.67107194  1.00440441  0.33808948  1
  Ni  Ni21  1  0.67036170  0.33838107  1.00450914  1
  Ni  Ni22  1  0.83811043  0.50513767  0.17162723  1
  Fe  Fe23  1  0.67143094  0.33839980  0.33796990  1
  Fe  Fe24  1  0.67202848  0.67023091  0.00505493  1
  Fe  Fe25  1  0.83938762  0.83676030  0.17138373  1
  Ni  Ni26  1  0.67255622  0.67052243  0.33738430  1
  Ni  Ni27  1  0.17299368  0.16995137  0.50405725  1
  Ni  Ni28  1  0.00514450  0.00536086  0.67204232  1
  Ni  Ni29  1  0.17340412  0.17065157  0.83878472  1
  Fe  Fe30  1  0.17200994  0.50362026  0.50469977  1
  Ni  Ni31  1  1.00394354  0.33739009  0.67209685  1
  Ni  Ni32  1  0.17026951  0.50487800  0.83763855  1
  Fe  Fe33  1  0.17193290  0.83856022  0.50462095  1
  Fe  Fe34  1  0.00532527  0.67164286  0.67224319  1
  Ni  Ni35  1  0.17064277  0.83857238  0.83790525  1
  Ni  Ni36  1  0.50339761  0.17114830  0.50406017  1
  Ni  Ni37  1  0.33759235  1.00442353  0.67193780  1
  Ni  Ni38  1  0.50370628  0.17101075  0.83757689  1
  Ni  Ni39  1  0.50616638  0.50390729  0.50415561  1
  Fe  Fe40  1  0.33711331  0.33702975  0.67128723  1
  Fe  Fe41  1  0.50399999  0.50462058  0.83783346  1
  Fe  Fe42  1  0.50442763  0.83787874  0.50469255  1
  Ni  Ni43  1  0.33880105  0.67181155  0.67136538  1
  Fe  Fe44  1  0.50386103  0.83797355  0.83752884  1
  Fe  Fe45  1  0.83819238  0.17207285  0.50491309  1
  Fe  Fe46  1  0.67107181  0.00483817  0.67174106  1
  Fe  Fe47  1  0.83914622  0.17142846  0.83790270  1
  Ni  Ni48  1  0.83723902  0.50583632  0.50416174  1
  Fe  Fe49  1  0.67116566  0.33775957  0.67156621  1
  Ni  Ni50  1  0.83819573  0.50606856  0.83831297  1
  Fe  Fe51  1  0.83774012  0.83817788  0.50460524  1
  Fe  Fe52  1  0.67186496  0.67150483  0.67064336  1
  Ni  Ni53  1  0.83856146  0.83664929  0.83847190  1
" 