1677,Ni54Fe21Cr23_8,-230.635877749655, 182.270560181778,Ni54Fe21Cr23,"# generated using pymatgen
 data_Cr14Fe11Ni29
_symmetry_space_group_name_H-M   'P 1'
_cell_length_a   7.45536115
_cell_length_b   7.45536115
_cell_length_c   10.54347285
_cell_angle_alpha   90.00000000
_cell_angle_beta   90.00000000
_cell_angle_gamma   90.00000000
_symmetry_Int_Tables_number   1
_chemical_formula_structural   Cr14Fe11Ni29
_chemical_formula_sum   'Cr14 Fe11 Ni29'
_cell_volume   586.03162865
_cell_formula_units_Z   1
loop_
 _symmetry_equiv_pos_site_id
 _symmetry_equiv_pos_as_xyz
  1  'x, y, z'
loop_
 _atom_site_type_symbol
 _atom_site_label
 _atom_site_symmetry_multiplicity
 _atom_site_fract_x
 _atom_site_fract_y
 _atom_site_fract_z
 _atom_site_occupancy
  Ni  Ni0  1  1.00012025  0.99983272  0.99879918  1
  Ni  Ni1  1  0.16904183  0.16778212  0.16833545  1
  Ni  Ni2  1  0.00184103  0.00172675  0.33530404  1
  Cr  Cr3  1  0.00207812  0.33414506  1.00049900  1
  Ni  Ni4  1  0.16508475  0.49998049  0.16872099  1
  Ni  Ni5  1  0.00293772  0.33404339  0.33522343  1
  Ni  Ni6  1  1.00004144  0.66903340  0.00166771  1
  Cr  Cr7  1  0.16509580  0.83456825  0.16788895  1
  Fe  Fe8  1  1.00056532  0.66550384  0.33410689  1
  Fe  Fe9  1  0.33349868  0.00357809  0.99926746  1
  Ni  Ni10  1  0.49938557  0.16826732  0.16654971  1
  Fe  Fe11  1  0.33296956  0.00292930  0.33580353  1
  Fe  Fe12  1  0.33511048  0.33074680  0.00106076  1
  Cr  Cr13  1  0.50155505  0.49783877  0.16898690  1
  Ni  Ni14  1  0.33279140  0.33481548  0.33369364  1
  Cr  Cr15  1  0.33239386  0.66601619  0.99863836  1
  Cr  Cr16  1  0.50126738  0.83629504  0.16817371  1
  Ni  Ni17  1  0.33407643  0.66535827  0.33658060  1
  Ni  Ni18  1  0.66751681  0.00213573  0.99956885  1
  Cr  Cr19  1  0.83352978  0.16777469  0.16675715  1
  Cr  Cr20  1  0.66803624  1.00076779  0.33503863  1
  Fe  Fe21  1  0.66664545  0.33275358  0.99957306  1
  Ni  Ni22  1  0.83560411  0.50208021  0.16904503  1
  Ni  Ni23  1  0.66662186  0.33545149  0.33488923  1
  Cr  Cr24  1  0.66954621  0.66839785  0.99891863  1
  Fe  Fe25  1  0.83584724  0.83301351  0.16651495  1
  Ni  Ni26  1  0.66707216  0.66645734  0.33578970  1
  Ni  Ni27  1  0.16552697  0.16618304  0.50035294  1
  Ni  Ni28  1  0.00189573  0.00294994  0.66824899  1
  Ni  Ni29  1  0.16768927  0.16334237  0.83366147  1
  Ni  Ni30  1  0.16691838  0.50053406  0.49823268  1
  Ni  Ni31  1  0.00099814  0.33079106  0.66658480  1
  Cr  Cr32  1  0.16616567  0.50084772  0.83484914  1
  Ni  Ni33  1  0.16780418  0.83563467  0.49976054  1
  Cr  Cr34  1  0.99989907  0.66791745  0.66739131  1
  Ni  Ni35  1  0.16546634  0.83824314  0.83489153  1
  Ni  Ni36  1  0.50032430  0.16745399  0.49845787  1
  Fe  Fe37  1  0.33213348  0.00104099  0.66728222  1
  Ni  Ni38  1  0.50027837  0.16710707  0.83734142  1
  Ni  Ni39  1  0.50210310  0.50243129  0.49865473  1
  Cr  Cr40  1  0.33254978  0.33341490  0.66674241  1
  Ni  Ni41  1  0.50440822  0.49978363  0.83472777  1
  Ni  Ni42  1  0.49994555  0.83246715  0.50104853  1
  Cr  Cr43  1  0.33669010  0.66839323  0.66727692  1
  Fe  Fe44  1  0.50119583  0.83504309  0.83383553  1
  Ni  Ni45  1  0.83649775  0.16833872  0.50117669  1
  Cr  Cr46  1  0.66809453  0.99921260  0.66713667  1
  Fe  Fe47  1  0.83540738  0.16644580  0.83434191  1
  Fe  Fe48  1  0.83372975  0.49991016  0.49939137  1
  Cr  Cr49  1  0.66856743  0.33510612  0.66760019  1
  Ni  Ni50  1  0.83160120  0.50200794  0.83367516  1
  Fe  Fe51  1  0.83460813  0.83421087  0.50068754  1
  Ni  Ni52  1  0.66618591  0.66810459  0.66790297  1
  Ni  Ni53  1  0.83536406  0.83411410  0.83567432  1
" 