2644,Ni54Fe21Cr23_2,-231.010539736964, 185.681985682078,Ni54Fe21Cr23,"# generated using pymatgen
 data_Cr14Fe11Ni29
_symmetry_space_group_name_H-M   'P 1'
_cell_length_a   7.45599665
_cell_length_b   7.45599665
_cell_length_c   10.54437159
_cell_angle_alpha   90.00000000
_cell_angle_beta   90.00000000
_cell_angle_gamma   90.00000000
_symmetry_Int_Tables_number   1
_chemical_formula_structural   Cr14Fe11Ni29
_chemical_formula_sum   'Cr14 Fe11 Ni29'
_cell_volume   586.18150418
_cell_formula_units_Z   1
loop_
 _symmetry_equiv_pos_site_id
 _symmetry_equiv_pos_as_xyz
  1  'x, y, z'
loop_
 _atom_site_type_symbol
 _atom_site_label
 _atom_site_symmetry_multiplicity
 _atom_site_fract_x
 _atom_site_fract_y
 _atom_site_fract_z
 _atom_site_occupancy
  Ni  Ni0  1  0.99948466  1.00058610  1.00039043  1
  Cr  Cr1  1  0.16726836  0.16700269  0.16722087  1
  Cr  Cr2  1  0.00162659  0.00116319  0.33311020  1
  Ni  Ni3  1  0.99842815  0.33296704  1.00043105  1
  Cr  Cr4  1  0.16649031  0.50155140  0.16557391  1
  Ni  Ni5  1  1.00021814  0.33529914  0.33528680  1
  Fe  Fe6  1  0.00199363  0.66865120  1.00059066  1
  Ni  Ni7  1  0.16669490  0.83392022  0.16520506  1
  Ni  Ni8  1  0.99862707  0.66566618  0.33376897  1
  Ni  Ni9  1  0.33248082  0.99812149  0.00291130  1
  Cr  Cr10  1  0.50194577  0.16770704  0.16660576  1
  Fe  Fe11  1  0.33414632  0.99966529  0.33482311  1
  Ni  Ni12  1  0.33456710  0.33646256  0.99918824  1
  Ni  Ni13  1  0.50295985  0.50073282  0.16670290  1
  Ni  Ni14  1  0.33340383  0.33429389  0.33649848  1
  Ni  Ni15  1  0.33325273  0.66764165  1.00045897  1
  Ni  Ni16  1  0.50171218  0.83429329  0.16794865  1
  Cr  Cr17  1  0.33555045  0.66822728  0.33449581  1
  Ni  Ni18  1  0.67025986  0.00189819  0.00129414  1
  Ni  Ni19  1  0.83268365  0.16768762  0.16568293  1
  Ni  Ni20  1  0.66675369  0.99882451  0.33236501  1
  Ni  Ni21  1  0.66922987  0.33374111  0.00143890  1
  Ni  Ni22  1  0.83305316  0.50054123  0.16933498  1
  Fe  Fe23  1  0.66853287  0.33689229  0.33266295  1
  Cr  Cr24  1  0.66609359  0.66670106  0.00249692  1
  Ni  Ni25  1  0.83381576  0.83399605  0.16685600  1
  Ni  Ni26  1  0.66775935  0.66719000  0.33372611  1
  Ni  Ni27  1  0.16951044  0.16811734  0.50093945  1
  Fe  Fe28  1  0.00298840  0.99780391  0.66810672  1
  Cr  Cr29  1  0.16781435  0.16685262  0.83472134  1
  Ni  Ni30  1  0.16811373  0.50056623  0.50179115  1
  Cr  Cr31  1  0.00247393  0.33444953  0.66630700  1
  Fe  Fe32  1  0.16931435  0.50301727  0.83433777  1
  Ni  Ni33  1  0.16776903  0.83353891  0.50292877  1
  Ni  Ni34  1  0.00144632  0.66890229  0.66802195  1
  Ni  Ni35  1  0.16485902  0.83255386  0.83408710  1
  Cr  Cr36  1  0.49824851  0.16761229  0.50031523  1
  Ni  Ni37  1  0.33222433  0.99868776  0.66449868  1
  Cr  Cr38  1  0.50104348  0.16907832  0.83530385  1
  Ni  Ni39  1  0.49985123  0.50134546  0.50145527  1
  Ni  Ni40  1  0.33334572  0.33572437  0.66653815  1
  Ni  Ni41  1  0.49991455  0.50006390  0.83406647  1
  Fe  Fe42  1  0.49927171  0.83305482  0.50135456  1
  Ni  Ni43  1  0.33393918  0.66781090  0.66668321  1
  Cr  Cr44  1  0.50007378  0.83329047  0.83244519  1
  Cr  Cr45  1  0.83462363  0.16750971  0.49998282  1
  Fe  Fe46  1  0.66727369  0.99814823  0.66797863  1
  Fe  Fe47  1  0.83384540  0.16602836  0.83670736  1
  Fe  Fe48  1  0.83527741  0.50266648  0.49886179  1
  Cr  Cr49  1  0.66668186  0.33652739  0.66833062  1
  Fe  Fe50  1  0.83449628  0.50165711  0.83498764  1
  Cr  Cr51  1  0.83386283  0.83125754  0.50221648  1
  Ni  Ni52  1  0.66683949  0.66778759  0.66648290  1
  Fe  Fe53  1  0.83588293  0.83454105  0.83349903  1
" 