8631,Ni54Fe21Cr23_10,-231.088052602067, 187.110348907611,Ni54Fe21Cr23,"# generated using pymatgen
 data_Cr14Fe11Ni29
_symmetry_space_group_name_H-M   'P 1'
_cell_length_a   7.45313097
_cell_length_b   7.45313097
_cell_length_c   10.54031890
_cell_angle_alpha   90.00000000
_cell_angle_beta   90.00000000
_cell_angle_gamma   90.00000000
_symmetry_Int_Tables_number   1
_chemical_formula_structural   Cr14Fe11Ni29
_chemical_formula_sum   'Cr14 Fe11 Ni29'
_cell_volume   585.50587399
_cell_formula_units_Z   1
loop_
 _symmetry_equiv_pos_site_id
 _symmetry_equiv_pos_as_xyz
  1  'x, y, z'
loop_
 _atom_site_type_symbol
 _atom_site_label
 _atom_site_symmetry_multiplicity
 _atom_site_fract_x
 _atom_site_fract_y
 _atom_site_fract_z
 _atom_site_occupancy
  Fe  Fe0  1  1.00052836  0.00100635  0.00112821  1
  Ni  Ni1  1  0.16482838  0.16562353  0.16667102  1
  Ni  Ni2  1  0.99935570  0.00289260  0.33199117  1
  Fe  Fe3  1  0.99912060  0.33462581  1.00081820  1
  Cr  Cr4  1  0.16515785  0.50066254  0.16977487  1
  Ni  Ni5  1  0.99652415  0.33416602  0.33370531  1
  Fe  Fe6  1  0.99950888  0.66705580  0.99933626  1
  Ni  Ni7  1  0.16875605  0.83670699  0.16758437  1
  Ni  Ni8  1  0.00213875  0.66576258  0.33409026  1
  Ni  Ni9  1  0.33382662  0.99995157  0.00229869  1
  Fe  Fe10  1  0.50321968  0.16520495  0.16820775  1
  Cr  Cr11  1  0.33496080  0.99877557  0.33265487  1
  Cr  Cr12  1  0.33493778  0.33193344  0.00099938  1
  Fe  Fe13  1  0.50346391  0.50244018  0.16766208  1
  Cr  Cr14  1  0.33521821  0.33432377  0.33284176  1
  Cr  Cr15  1  0.33574275  0.67036652  0.99988804  1
  Ni  Ni16  1  0.50038940  0.83531856  0.16771980  1
  Ni  Ni17  1  0.33324580  0.66925612  0.33360881  1
  Fe  Fe18  1  0.66567118  0.99979192  1.00044278  1
  Ni  Ni19  1  0.83568507  0.16866441  0.16984887  1
  Ni  Ni20  1  0.66785250  0.00470475  0.33452919  1
  Cr  Cr21  1  0.67025988  0.33618400  0.00112086  1
  Ni  Ni22  1  0.83416480  0.49859958  0.16749983  1
  Ni  Ni23  1  0.67154604  0.33176262  0.33354746  1
  Ni  Ni24  1  0.66934509  0.66780865  1.00014918  1
  Cr  Cr25  1  0.83346401  0.83458277  0.16701881  1
  Cr  Cr26  1  0.66728577  0.66614461  0.33263929  1
  Cr  Cr27  1  0.16514526  0.17122443  0.50095750  1
  Ni  Ni28  1  0.99752036  0.00124181  0.66952483  1
  Cr  Cr29  1  0.16631983  0.16921750  0.83473375  1
  Ni  Ni30  1  0.16517788  0.50057229  0.50214838  1
  Ni  Ni31  1  0.99875946  0.33587047  0.66791359  1
  Ni  Ni32  1  0.16696298  0.50075199  0.83107387  1
  Cr  Cr33  1  0.16708507  0.83055590  0.50038904  1
  Ni  Ni34  1  0.99948373  0.66559952  0.66999378  1
  Fe  Fe35  1  0.16522737  0.83201738  0.83409141  1
  Ni  Ni36  1  0.50475710  0.16700922  0.50210198  1
  Cr  Cr37  1  0.33569109  0.99979335  0.66817172  1
  Fe  Fe38  1  0.50404909  0.16776180  0.83306108  1
  Cr  Cr39  1  0.50000196  0.50165343  0.50209145  1
  Ni  Ni40  1  0.33488533  0.33632307  0.66929382  1
  Ni  Ni41  1  0.50127466  0.50321034  0.83200691  1
  Ni  Ni42  1  0.50276965  0.83530259  0.50129658  1
  Ni  Ni43  1  0.33494043  0.66601563  0.66916003  1
  Ni  Ni44  1  0.50392748  0.83351328  0.83390011  1
  Fe  Fe45  1  0.83281707  0.16941388  0.50050077  1
  Fe  Fe46  1  0.66879966  1.00056603  0.66802727  1
  Ni  Ni47  1  0.83451030  0.16609984  0.83258162  1
  Ni  Ni48  1  0.83693835  0.49877374  0.50137219  1
  Fe  Fe49  1  0.66932619  0.33501421  0.66835949  1
  Ni  Ni50  1  0.83470859  0.50209405  0.83400617  1
  Cr  Cr51  1  0.83287988  0.83475906  0.50081609  1
  Ni  Ni52  1  0.66828705  0.66726076  0.67019252  1
  Ni  Ni53  1  0.83197111  0.83448315  0.83487190  1
" 