7096,Ni54Fe25Cr19_6,-232.688603992158, 191.901075448794,Ni54Fe25Cr19,"# generated using pymatgen
 data_Cr12Fe13Ni29
_symmetry_space_group_name_H-M   'P 1'
_cell_length_a   7.45006930
_cell_length_b   7.45006930
_cell_length_c   10.53598905
_cell_angle_alpha   90.00000000
_cell_angle_beta   90.00000000
_cell_angle_gamma   90.00000000
_symmetry_Int_Tables_number   1
_chemical_formula_structural   Cr12Fe13Ni29
_chemical_formula_sum   'Cr12 Fe13 Ni29'
_cell_volume   584.78461180
_cell_formula_units_Z   1
loop_
 _symmetry_equiv_pos_site_id
 _symmetry_equiv_pos_as_xyz
  1  'x, y, z'
loop_
 _atom_site_type_symbol
 _atom_site_label
 _atom_site_symmetry_multiplicity
 _atom_site_fract_x
 _atom_site_fract_y
 _atom_site_fract_z
 _atom_site_occupancy
  Fe  Fe0  1  1.00031427  0.00415752  1.00063720  1
  Ni  Ni1  1  0.16651311  0.16674249  0.16735934  1
  Ni  Ni2  1  0.00278538  0.00280200  0.33485554  1
  Fe  Fe3  1  1.00039170  0.33404731  1.00089872  1
  Cr  Cr4  1  0.16680870  0.50004291  0.16741061  1
  Ni  Ni5  1  0.99889786  0.33277962  0.33446053  1
  Ni  Ni6  1  0.99952223  0.66780786  0.99910409  1
  Cr  Cr7  1  0.16958710  0.83608298  0.16907095  1
  Fe  Fe8  1  0.99994330  0.66668567  0.33683961  1
  Fe  Fe9  1  0.33393230  0.00340475  0.00184027  1
  Cr  Cr10  1  0.50109827  0.16789153  0.16760486  1
  Ni  Ni11  1  0.33110518  0.99993938  0.33522159  1
  Ni  Ni12  1  0.33493564  0.33423841  0.99937134  1
  Fe  Fe13  1  0.50381608  0.50219832  0.16706883  1
  Cr  Cr14  1  0.33384705  0.33375839  0.33487362  1
  Fe  Fe15  1  0.33576166  0.66511820  1.00069766  1
  Fe  Fe16  1  0.50038848  0.83265905  0.16802933  1
  Ni  Ni17  1  0.33483605  0.66952860  0.33353373  1
  Fe  Fe18  1  0.66917276  0.00234821  0.99984593  1
  Ni  Ni19  1  0.83590911  0.17034771  0.16779416  1
  Cr  Cr20  1  0.66959248  0.00208749  0.33585717  1
  Ni  Ni21  1  0.66755003  0.33503132  1.00077494  1
  Ni  Ni22  1  0.83232344  0.49966455  0.16865651  1
  Ni  Ni23  1  0.67122444  0.33651302  0.33427326  1
  Fe  Fe24  1  0.66832084  0.66519577  1.00110458  1
  Cr  Cr25  1  0.83374603  0.83371556  0.16721723  1
  Ni  Ni26  1  0.66835928  0.66563859  0.33242947  1
  Ni  Ni27  1  0.16822191  0.16782432  0.49980207  1
  Cr  Cr28  1  0.99910857  1.00034478  0.66707588  1
  Ni  Ni29  1  0.16865176  0.17052187  0.83625272  1
  Ni  Ni30  1  0.16554528  0.50197825  0.50248738  1
  Fe  Fe31  1  0.00114969  0.33638554  0.66729093  1
  Ni  Ni32  1  0.16841293  0.49967409  0.83398701  1
  Fe  Fe33  1  0.16668941  0.83383187  0.50014317  1
  Ni  Ni34  1  0.00238698  0.66693831  0.66664490  1
  Cr  Cr35  1  0.16728108  0.83302633  0.83426301  1
  Ni  Ni36  1  0.50093563  0.16684927  0.50385043  1
  Fe  Fe37  1  0.33560988  0.00361479  0.66643700  1
  Fe  Fe38  1  0.50175958  0.17061760  0.83390191  1
  Cr  Cr39  1  0.50124775  0.49960434  0.50041993  1
  Ni  Ni40  1  0.33454826  0.33432743  0.66920350  1
  Ni  Ni41  1  0.50003538  0.49929562  0.83572496  1
  Cr  Cr42  1  0.50008000  0.83638999  0.50071823  1
  Ni  Ni43  1  0.33076382  0.66493804  0.66863056  1
  Cr  Cr44  1  0.50216192  0.83482508  0.83484713  1
  Ni  Ni45  1  0.83426151  0.16880091  0.50010234  1
  Ni  Ni46  1  0.66876692  0.00443731  0.66838036  1
  Ni  Ni47  1  0.83343948  0.16845281  0.83552004  1
  Ni  Ni48  1  0.83719071  0.50074959  0.49963997  1
  Ni  Ni49  1  0.66676803  0.33151875  0.66837283  1
  Ni  Ni50  1  0.83496961  0.50044951  0.83511603  1
  Ni  Ni51  1  0.83621692  0.83386715  0.50065886  1
  Cr  Cr52  1  0.67082566  0.66732154  0.66931719  1
  Ni  Ni53  1  0.83382011  0.83451925  0.83591217  1
" 