6068,Ni54Fe7Cr38_9,-223.892144895063, 151.461590726472,Ni54Fe7Cr38,"# generated using pymatgen
 data_Cr22Fe3Ni29
_symmetry_space_group_name_H-M   'P 1'
_cell_length_a   7.49414140
_cell_length_b   7.49414140
_cell_length_c   10.59831641
_cell_angle_alpha   90.00000000
_cell_angle_beta   90.00000000
_cell_angle_gamma   90.00000000
_symmetry_Int_Tables_number   1
_chemical_formula_structural   Cr22Fe3Ni29
_chemical_formula_sum   'Cr22 Fe3 Ni29'
_cell_volume   595.22429274
_cell_formula_units_Z   1
loop_
 _symmetry_equiv_pos_site_id
 _symmetry_equiv_pos_as_xyz
  1  'x, y, z'
loop_
 _atom_site_type_symbol
 _atom_site_label
 _atom_site_symmetry_multiplicity
 _atom_site_fract_x
 _atom_site_fract_y
 _atom_site_fract_z
 _atom_site_occupancy
  Ni  Ni0  1  -0.00171924  0.00155550  0.99515356  1
  Ni  Ni1  1  0.16637492  0.16666844  0.16434024  1
  Ni  Ni2  1  0.00075576  -0.00156229  0.33199103  1
  Fe  Fe3  1  -0.00113558  0.33018083  0.99772048  1
  Ni  Ni4  1  0.16353361  0.49433855  0.16588296  1
  Cr  Cr5  1  -0.00030658  0.33267784  0.33128243  1
  Cr  Cr6  1  0.99727497  0.66347367  0.99687132  1
  Cr  Cr7  1  0.16365971  0.83475803  0.16610573  1
  Ni  Ni8  1  0.00013476  0.66395488  0.33142395  1
  Cr  Cr9  1  0.33108265  0.00212999  -0.00077678  1
  Ni  Ni10  1  0.49542360  0.16657499  0.16652481  1
  Ni  Ni11  1  0.33154737  0.00065528  0.33075357  1
  Ni  Ni12  1  0.33131046  0.32973880  -0.00162329  1
  Cr  Cr13  1  0.49918434  0.49547494  0.16300781  1
  Ni  Ni14  1  0.33208078  0.32888904  0.33046102  1
  Cr  Cr15  1  0.33344082  0.66328229  -0.00177584  1
  Ni  Ni16  1  0.49839465  0.83343539  0.16529368  1
  Cr  Cr17  1  0.33035492  0.66499353  0.33222499  1
  Cr  Cr18  1  0.66396886  -0.00128819  0.99730854  1
  Cr  Cr19  1  0.83309550  0.16571718  0.16549077  1
  Cr  Cr20  1  0.66051201  0.00051618  0.33301578  1
  Fe  Fe21  1  0.66426522  0.33103177  0.99674993  1
  Ni  Ni22  1  0.83221859  0.49691111  0.16396575  1
  Ni  Ni23  1  0.66310621  0.32938224  0.33115831  1
  Ni  Ni24  1  0.66634271  0.66210823  0.99753919  1
  Cr  Cr25  1  0.83209933  0.83092761  0.16456652  1
  Cr  Cr26  1  0.66418032  0.66430181  0.32923396  1
  Cr  Cr27  1  0.16833799  0.16432274  0.49767206  1
  Cr  Cr28  1  0.99751510  -0.00066920  0.66727235  1
  Ni  Ni29  1  0.16610509  0.16411852  0.83310474  1
  Ni  Ni30  1  0.16686344  0.49901187  0.49777472  1
  Cr  Cr31  1  0.99735930  0.33085116  0.66599692  1
  Cr  Cr32  1  0.16879702  0.49624927  0.83021264  1
  Ni  Ni33  1  0.16715265  0.83217503  0.49763676  1
  Cr  Cr34  1  0.00048499  0.66435808  0.66470247  1
  Ni  Ni35  1  0.16385284  0.83454778  0.82979400  1
  Ni  Ni36  1  0.49788869  0.16451061  0.49894815  1
  Ni  Ni37  1  0.33307038  -0.00076366  0.66517585  1
  Ni  Ni38  1  0.49755918  0.16827452  0.82958610  1
  Cr  Cr39  1  0.49640497  0.49398919  0.50084869  1
  Ni  Ni40  1  0.33343727  0.33006990  0.66582356  1
  Ni  Ni41  1  0.50018944  0.49415042  0.83124553  1
  Ni  Ni42  1  0.49470372  0.83554404  0.49975666  1
  Ni  Ni43  1  0.33096299  0.66549725  0.66399881  1
  Cr  Cr44  1  0.49718493  0.83118937  0.83002472  1
  Fe  Fe45  1  0.82924723  0.16484127  0.49881112  1
  Ni  Ni46  1  0.66273061  0.00218815  0.66482846  1
  Ni  Ni47  1  0.83037784  0.16547971  0.83114723  1
  Cr  Cr48  1  0.83077447  0.49624377  0.49668497  1
  Ni  Ni49  1  0.66305090  0.32757569  0.66705353  1
  Ni  Ni50  1  0.82807538  0.49608350  0.83377635  1
  Cr  Cr51  1  0.83278954  0.83385310  0.49686232  1
  Cr  Cr52  1  0.66436822  0.66516866  0.66707066  1
  Ni  Ni53  1  0.83192126  0.83269772  0.83268626  1
" 