6292,Ni54Fe46_5,-240.539651978547, 222.375645625331,Ni54Fe46,"# generated using pymatgen
 data_Fe29Ni25
_symmetry_space_group_name_H-M   'P 1'
_cell_length_a   7.39988248
_cell_length_b   7.39988248
_cell_length_c   10.46501416
_cell_angle_alpha   90.00000000
_cell_angle_beta   90.00000000
_cell_angle_gamma   90.00000000
_symmetry_Int_Tables_number   1
_chemical_formula_structural   Fe29Ni25
_chemical_formula_sum   'Fe29 Ni25'
_cell_volume   573.04597329
_cell_formula_units_Z   1
loop_
 _symmetry_equiv_pos_site_id
 _symmetry_equiv_pos_as_xyz
  1  'x, y, z'
loop_
 _atom_site_type_symbol
 _atom_site_label
 _atom_site_symmetry_multiplicity
 _atom_site_fract_x
 _atom_site_fract_y
 _atom_site_fract_z
 _atom_site_occupancy
  Fe  Fe0  1  1.00412531  1.00419320  1.00440157  1
  Ni  Ni1  1  0.17227391  0.17255035  0.17194209  1
  Ni  Ni2  1  0.00486544  0.00534645  0.33695916  1
  Ni  Ni3  1  0.00519205  0.33705270  1.00451827  1
  Ni  Ni4  1  0.17145740  0.50462603  0.17219929  1
  Ni  Ni5  1  1.00450896  0.33714656  0.33771815  1
  Fe  Fe6  1  1.00446097  0.67105284  0.00509035  1
  Ni  Ni7  1  0.16993516  0.83643729  0.17184549  1
  Ni  Ni8  1  0.00532499  0.67111958  0.33691124  1
  Fe  Fe9  1  0.33788355  0.00490275  1.00392332  1
  Ni  Ni10  1  0.50438303  0.17219526  0.17210018  1
  Fe  Fe11  1  0.33635923  1.00440123  0.33756550  1
  Fe  Fe12  1  0.33758155  0.33800178  0.00468886  1
  Fe  Fe13  1  0.50371463  0.50509200  0.17136007  1
  Fe  Fe14  1  0.33635925  0.33823725  0.33716810  1
  Fe  Fe15  1  0.33717652  0.67071309  0.00487936  1
  Fe  Fe16  1  0.50350541  0.83780350  0.17072895  1
  Ni  Ni17  1  0.33809223  0.67147220  0.33706792  1
  Fe  Fe18  1  0.67160656  0.00459434  1.00386735  1
  Fe  Fe19  1  0.83946230  0.17114064  0.17156794  1
  Fe  Fe20  1  0.67252638  1.00413324  0.33827034  1
  Fe  Fe21  1  0.67126341  0.33765725  1.00400180  1
  Fe  Fe22  1  0.83904610  0.50440401  0.17113190  1
  Fe  Fe23  1  0.67187820  0.33785397  0.33849951  1
  Ni  Ni24  1  0.67021475  0.67141040  0.00482202  1
  Ni  Ni25  1  0.83812939  0.83714570  0.17199809  1
  Fe  Fe26  1  0.67258448  0.67162747  0.33787041  1
  Fe  Fe27  1  0.16980432  0.17030475  0.50446236  1
  Ni  Ni28  1  0.00535413  0.00516209  0.67203622  1
  Ni  Ni29  1  0.17164872  0.17255507  0.83731554  1
  Fe  Fe30  1  0.17011407  0.50475083  0.50367779  1
  Fe  Fe31  1  1.00371210  0.33662526  0.67162652  1
  Ni  Ni32  1  0.17164488  0.50453238  0.83741142  1
  Fe  Fe33  1  0.17024101  0.83856036  0.50417152  1
  Fe  Fe34  1  1.00371183  0.67252594  0.67107251  1
  Ni  Ni35  1  0.17093924  0.83652585  0.83741452  1
  Fe  Fe36  1  0.50572263  0.17066613  0.50509686  1
  Ni  Ni37  1  0.33730252  1.00444239  0.67148140  1
  Ni  Ni38  1  0.50526633  0.17138823  0.83660767  1
  Fe  Fe39  1  0.50585208  0.50482447  0.50467070  1
  Fe  Fe40  1  0.33870915  0.33683957  0.67175837  1
  Fe  Fe41  1  0.50482141  0.50490334  0.83758505  1
  Fe  Fe42  1  0.50535981  0.83812417  0.50543659  1
  Fe  Fe43  1  0.33855857  0.67216317  0.67120674  1
  Ni  Ni44  1  0.50562588  0.83804405  0.83741498  1
  Ni  Ni45  1  0.83716963  0.17038851  0.50400625  1
  Ni  Ni46  1  0.67095617  1.00444742  0.67208479  1
  Ni  Ni47  1  0.83670068  0.17068025  0.83771588  1
  Fe  Fe48  1  0.83764955  0.50438669  0.50446105  1
  Ni  Ni49  1  0.67131201  0.33834728  0.67243555  1
  Fe  Fe50  1  0.83780025  0.50446617  0.83802335  1
  Ni  Ni51  1  0.83753749  0.83824379  0.50481020  1
  Ni  Ni52  1  0.67059364  0.67081996  0.67117773  1
  Ni  Ni53  1  0.83704660  0.83803668  0.83680708  1
" 