5255,Ni54Fe46_4,-240.66415873325, 220.725205801054,Ni54Fe46,"# generated using pymatgen
 data_Fe29Ni25
_symmetry_space_group_name_H-M   'P 1'
_cell_length_a   7.39789543
_cell_length_b   7.39789543
_cell_length_c   10.46220405
_cell_angle_alpha   90.00000000
_cell_angle_beta   90.00000000
_cell_angle_gamma   90.00000000
_symmetry_Int_Tables_number   1
_chemical_formula_structural   Fe29Ni25
_chemical_formula_sum   'Fe29 Ni25'
_cell_volume   572.58446746
_cell_formula_units_Z   1
loop_
 _symmetry_equiv_pos_site_id
 _symmetry_equiv_pos_as_xyz
  1  'x, y, z'
loop_
 _atom_site_type_symbol
 _atom_site_label
 _atom_site_symmetry_multiplicity
 _atom_site_fract_x
 _atom_site_fract_y
 _atom_site_fract_z
 _atom_site_occupancy
  Ni  Ni0  1  0.00474909  0.00541047  0.00497828  1
  Fe  Fe1  1  0.17168975  0.17141969  0.16985465  1
  Fe  Fe2  1  0.00473854  1.00368671  0.33866455  1
  Ni  Ni3  1  0.00547775  0.33799705  0.00477439  1
  Ni  Ni4  1  0.17015132  0.50584566  0.17034856  1
  Fe  Fe5  1  1.00430804  0.33836997  0.33779685  1
  Ni  Ni6  1  1.00464807  0.67061319  0.00512972  1
  Ni  Ni7  1  0.17180242  0.83692391  0.17003977  1
  Fe  Fe8  1  0.00490862  0.67196223  0.33794848  1
  Ni  Ni9  1  0.33828772  0.00504466  0.00528707  1
  Ni  Ni10  1  0.50522345  0.17043379  0.17014273  1
  Fe  Fe11  1  0.33879637  1.00403690  0.33731516  1
  Ni  Ni12  1  0.33755792  0.33836271  0.00539922  1
  Fe  Fe13  1  0.50383920  0.50565954  0.17058709  1
  Fe  Fe14  1  0.33893598  0.33772894  0.33754030  1
  Ni  Ni15  1  0.33875290  0.67061663  0.00483259  1
  Ni  Ni16  1  0.50402867  0.83929564  0.17143108  1
  Ni  Ni17  1  0.33824550  0.67079812  0.33773740  1
  Fe  Fe18  1  0.67084569  1.00424879  0.00517037  1
  Fe  Fe19  1  0.83828272  0.17114574  0.17184660  1
  Ni  Ni20  1  0.67137010  0.00495943  0.33789648  1
  Fe  Fe21  1  0.67113416  0.33871745  0.00496531  1
  Ni  Ni22  1  0.83900729  0.50465530  0.17071194  1
  Fe  Fe23  1  0.67077623  0.33756246  0.33816147  1
  Ni  Ni24  1  0.67061787  0.67134504  0.00550226  1
  Fe  Fe25  1  0.83785263  0.83758398  0.17139990  1
  Fe  Fe26  1  0.67113083  0.67182578  0.33730814  1
  Fe  Fe27  1  0.17035680  0.17050612  0.50573499  1
  Ni  Ni28  1  1.00349485  0.00530216  0.67032214  1
  Ni  Ni29  1  0.17095212  0.17167381  0.83791730  1
  Fe  Fe30  1  0.17072531  0.50482165  0.50480477  1
  Ni  Ni31  1  0.00505666  0.33810552  0.67078070  1
  Ni  Ni32  1  0.17141575  0.50449694  0.83828295  1
  Ni  Ni33  1  0.17026562  0.83733914  0.50559947  1
  Ni  Ni34  1  0.00505327  0.67061023  0.67089002  1
  Fe  Fe35  1  0.17147021  0.83760121  0.83827932  1
  Ni  Ni36  1  0.50593066  0.17155634  0.50586128  1
  Fe  Fe37  1  0.33682470  0.00496007  0.67153429  1
  Fe  Fe38  1  0.50347663  0.17211123  0.83806648  1
  Fe  Fe39  1  0.50486788  0.50494868  0.50502885  1
  Fe  Fe40  1  0.33725558  0.33752529  0.67224806  1
  Ni  Ni41  1  0.50433439  0.50459799  0.83909833  1
  Fe  Fe42  1  0.50544856  0.83913301  0.50390023  1
  Fe  Fe43  1  0.33689048  0.67153488  0.67131998  1
  Fe  Fe44  1  0.50386102  0.83743289  0.83891643  1
  Ni  Ni45  1  0.83663474  0.17072644  0.50513113  1
  Ni  Ni46  1  0.67139811  0.00493452  0.67109734  1
  Fe  Fe47  1  0.83914462  0.17209572  0.83707732  1
  Fe  Fe48  1  0.83843121  0.50459649  0.50453320  1
  Fe  Fe49  1  0.67244610  0.33737506  0.67089810  1
  Fe  Fe50  1  0.83897897  0.50440223  0.83870669  1
  Ni  Ni51  1  0.83900880  0.83853099  0.50431239  1
  Fe  Fe52  1  0.67281390  0.67169184  0.67197971  1
  Fe  Fe53  1  0.83868803  0.83752353  0.83729194  1
" 