1618,Ni54Fe21Cr23_7,-231.225416467089, 189.714755740205,Ni54Fe21Cr23,"# generated using pymatgen
 data_Cr14Fe11Ni29
_symmetry_space_group_name_H-M   'P 1'
_cell_length_a   7.45437013
_cell_length_b   7.45437013
_cell_length_c   10.54207133
_cell_angle_alpha   90.00000000
_cell_angle_beta   90.00000000
_cell_angle_gamma   90.00000000
_symmetry_Int_Tables_number   1
_chemical_formula_structural   Cr14Fe11Ni29
_chemical_formula_sum   'Cr14 Fe11 Ni29'
_cell_volume   585.79796092
_cell_formula_units_Z   1
loop_
 _symmetry_equiv_pos_site_id
 _symmetry_equiv_pos_as_xyz
  1  'x, y, z'
loop_
 _atom_site_type_symbol
 _atom_site_label
 _atom_site_symmetry_multiplicity
 _atom_site_fract_x
 _atom_site_fract_y
 _atom_site_fract_z
 _atom_site_occupancy
  Cr  Cr0  1  0.00170254  1.00018431  0.00152963  1
  Ni  Ni1  1  0.16739728  0.16585140  0.16686782  1
  Cr  Cr2  1  0.00218528  0.00162680  0.33329649  1
  Ni  Ni3  1  0.00172305  0.33433791  0.00094282  1
  Cr  Cr4  1  0.16785609  0.50029373  0.16544623  1
  Fe  Fe5  1  0.00117788  0.33298281  0.33563643  1
  Fe  Fe6  1  0.00287557  0.66678581  0.99893027  1
  Ni  Ni7  1  0.16800266  0.83612515  0.16631998  1
  Fe  Fe8  1  1.00065838  0.66775703  0.33581260  1
  Ni  Ni9  1  0.33378544  0.00139750  0.00122583  1
  Fe  Fe10  1  0.50052798  0.16730573  0.16625743  1
  Ni  Ni11  1  0.33343800  1.00056942  0.33460048  1
  Ni  Ni12  1  0.33398308  0.33349897  0.00165958  1
  Ni  Ni13  1  0.50153998  0.50027414  0.16564375  1
  Cr  Cr14  1  0.33412887  0.33318950  0.33455919  1
  Ni  Ni15  1  0.33212726  0.66765527  1.00045665  1
  Cr  Cr16  1  0.50022728  0.83571037  0.16900804  1
  Cr  Cr17  1  0.33428493  0.66810211  0.33634146  1
  Ni  Ni18  1  0.66678291  0.00247071  0.00141377  1
  Ni  Ni19  1  0.83360106  0.16674409  0.16739446  1
  Ni  Ni20  1  0.66763520  0.00090324  0.33371059  1
  Ni  Ni21  1  0.66684368  0.33268260  0.00245599  1
  Cr  Cr22  1  0.83392016  0.49977873  0.16723153  1
  Cr  Cr23  1  0.66763052  0.33437234  0.33427832  1
  Cr  Cr24  1  0.66775741  0.66693168  0.00086135  1
  Fe  Fe25  1  0.83496675  0.83579344  0.16847729  1
  Fe  Fe26  1  0.66743679  0.66827428  0.33528531  1
  Ni  Ni27  1  0.16841324  0.16889598  0.50038992  1
  Cr  Cr28  1  0.00119599  0.00107365  0.66771997  1
  Ni  Ni29  1  0.16886395  0.16981053  0.83529291  1
  Ni  Ni30  1  0.16592914  0.50041742  0.50283391  1
  Ni  Ni31  1  0.00117353  0.33706899  0.66552794  1
  Ni  Ni32  1  0.16548278  0.50060490  0.83420423  1
  Ni  Ni33  1  0.16925258  0.83323770  0.50076209  1
  Ni  Ni34  1  0.00134939  0.66473022  0.66864428  1
  Fe  Fe35  1  0.16877492  0.83114801  0.83493491  1
  Ni  Ni36  1  0.50110657  0.16637800  0.50184209  1
  Cr  Cr37  1  0.33449068  1.00070135  0.66680827  1
  Fe  Fe38  1  0.50005607  0.16734488  0.83462899  1
  Ni  Ni39  1  0.50193448  0.50127702  0.50314016  1
  Ni  Ni40  1  0.33338888  0.33598957  0.66636528  1
  Cr  Cr41  1  0.49999548  0.50101423  0.83371402  1
  Fe  Fe42  1  0.50014717  0.83409457  0.50138207  1
  Ni  Ni43  1  0.33346018  0.66605716  0.66626529  1
  Ni  Ni44  1  0.50116171  0.83578420  0.83316013  1
  Fe  Fe45  1  0.83339463  0.17038759  0.50155553  1
  Ni  Ni46  1  0.66665736  1.00068054  0.66742725  1
  Cr  Cr47  1  0.83302552  0.16948470  0.83278219  1
  Ni  Ni48  1  0.83468790  0.50043392  0.50201244  1
  Ni  Ni49  1  0.66798849  0.33525488  0.66574238  1
  Ni  Ni50  1  0.83692601  0.50136187  0.83318153  1
  Cr  Cr51  1  0.83199499  0.83283044  0.50077299  1
  Ni  Ni52  1  0.66774068  0.66661631  0.66638229  1
  Fe  Fe53  1  0.83312998  0.83164061  0.83280197  1
" 