4123,Ni54Fe46_19,-240.588186108866, 224.733221767831,Ni54Fe46,"# generated using pymatgen
 data_Fe29Ni25
_symmetry_space_group_name_H-M   'P 1'
_cell_length_a   7.39600586
_cell_length_b   7.39600586
_cell_length_c   10.45953180
_cell_angle_alpha   90.00000000
_cell_angle_beta   90.00000000
_cell_angle_gamma   90.00000000
_symmetry_Int_Tables_number   1
_chemical_formula_structural   Fe29Ni25
_chemical_formula_sum   'Fe29 Ni25'
_cell_volume   572.14583181
_cell_formula_units_Z   1
loop_
 _symmetry_equiv_pos_site_id
 _symmetry_equiv_pos_as_xyz
  1  'x, y, z'
loop_
 _atom_site_type_symbol
 _atom_site_label
 _atom_site_symmetry_multiplicity
 _atom_site_fract_x
 _atom_site_fract_y
 _atom_site_fract_z
 _atom_site_occupancy
  Fe  Fe0  1  0.00498857  1.00460275  0.00522763  1
  Fe  Fe1  1  0.17167956  0.17262854  0.17168107  1
  Ni  Ni2  1  1.00347510  1.00349399  0.33830528  1
  Fe  Fe3  1  0.00514414  0.33855305  1.00425096  1
  Ni  Ni4  1  0.17226453  0.50570140  0.17237350  1
  Fe  Fe5  1  0.00554162  0.33886406  0.33846507  1
  Fe  Fe6  1  0.00541977  0.67125775  0.00547865  1
  Ni  Ni7  1  0.17156680  0.83754705  0.17100431  1
  Ni  Ni8  1  0.00497468  0.67262046  0.33796763  1
  Fe  Fe9  1  0.33891889  1.00452552  1.00404466  1
  Fe  Fe10  1  0.50411888  0.17263062  0.17070913  1
  Fe  Fe11  1  0.33674939  1.00383528  0.33861050  1
  Ni  Ni12  1  0.33819491  0.33946050  1.00409460  1
  Ni  Ni13  1  0.50401426  0.50418308  0.17055457  1
  Ni  Ni14  1  0.33861861  0.33944873  0.33856829  1
  Ni  Ni15  1  0.33785119  0.67039584  1.00460097  1
  Fe  Fe16  1  0.50425487  0.83656402  0.17055788  1
  Ni  Ni17  1  0.33745584  0.67031238  0.33841035  1
  Ni  Ni18  1  0.67263969  1.00454279  1.00438405  1
  Fe  Fe19  1  0.83861085  0.17193800  0.17147011  1
  Fe  Fe20  1  0.67194693  1.00440689  0.33798554  1
  Fe  Fe21  1  0.67066095  0.33803797  1.00455554  1
  Ni  Ni22  1  0.83812805  0.50417641  0.17191312  1
  Fe  Fe23  1  0.67152446  0.33894569  0.33853931  1
  Fe  Fe24  1  0.67058413  0.67156155  1.00479858  1
  Fe  Fe25  1  0.83874882  0.83697762  0.17167000  1
  Fe  Fe26  1  0.67145299  0.67105050  0.33814222  1
  Fe  Fe27  1  0.17125644  0.17152455  0.50500355  1
  Fe  Fe28  1  1.00451809  0.00603606  0.67064262  1
  Fe  Fe29  1  0.17187591  0.17135691  0.83771991  1
  Ni  Ni30  1  0.17315926  0.50541535  0.50347748  1
  Ni  Ni31  1  1.00418371  0.33832815  0.67091982  1
  Ni  Ni32  1  0.17234616  0.50471585  0.83854998  1
  Ni  Ni33  1  0.17085404  0.83724636  0.50535290  1
  Fe  Fe34  1  0.00547957  0.67071490  0.67087131  1
  Fe  Fe35  1  0.17187491  0.83873830  0.83821055  1
  Fe  Fe36  1  0.50432875  0.17181722  0.50568982  1
  Ni  Ni37  1  0.33840135  1.00476302  0.67173152  1
  Ni  Ni38  1  0.50594244  0.17113643  0.83796274  1
  Ni  Ni39  1  0.50303760  0.50389882  0.50520410  1
  Ni  Ni40  1  0.33838990  0.33786347  0.67174037  1
  Fe  Fe41  1  0.50500056  0.50447275  0.83813236  1
  Fe  Fe42  1  0.50446911  0.83771395  0.50535452  1
  Fe  Fe43  1  0.33792741  0.67031005  0.67127374  1
  Ni  Ni44  1  0.50523759  0.83926419  0.83805092  1
  Ni  Ni45  1  0.83749423  0.17024903  0.50478941  1
  Fe  Fe46  1  0.67147420  0.00623466  0.67257864  1
  Ni  Ni47  1  0.83683039  0.17043841  0.83841261  1
  Fe  Fe48  1  0.83866147  0.50515452  0.50461002  1
  Ni  Ni49  1  0.67183393  0.33797123  0.67218552  1
  Fe  Fe50  1  0.83769111  0.50447654  0.83819967  1
  Ni  Ni51  1  0.83901091  0.84026897  0.50435743  1
  Fe  Fe52  1  0.67100417  0.67100634  0.67146546  1
  Ni  Ni53  1  0.83753463  0.83996787  0.83849588  1
" 