2064,Ni54Fe25Cr19_17,-232.474297198713, 189.947394383729,Ni54Fe25Cr19,"# generated using pymatgen
 data_Cr12Fe13Ni29
_symmetry_space_group_name_H-M   'P 1'
_cell_length_a   7.44442891
_cell_length_b   7.44442891
_cell_length_c   10.52801233
_cell_angle_alpha   90.00000000
_cell_angle_beta   90.00000000
_cell_angle_gamma   90.00000000
_symmetry_Int_Tables_number   1
_chemical_formula_structural   Cr12Fe13Ni29
_chemical_formula_sum   'Cr12 Fe13 Ni29'
_cell_volume   583.45740854
_cell_formula_units_Z   1
loop_
 _symmetry_equiv_pos_site_id
 _symmetry_equiv_pos_as_xyz
  1  'x, y, z'
loop_
 _atom_site_type_symbol
 _atom_site_label
 _atom_site_symmetry_multiplicity
 _atom_site_fract_x
 _atom_site_fract_y
 _atom_site_fract_z
 _atom_site_occupancy
  Ni  Ni0  1  0.00311608  0.00210983  0.00427772  1
  Ni  Ni1  1  0.16848201  0.16794346  0.16771049  1
  Fe  Fe2  1  0.99975898  1.00042311  0.33327371  1
  Cr  Cr3  1  0.00404386  0.33507428  1.00019115  1
  Fe  Fe4  1  0.16919600  0.50239142  0.16970089  1
  Ni  Ni5  1  0.00241231  0.33635823  0.33418465  1
  Cr  Cr6  1  1.00018971  0.66861551  0.00240102  1
  Ni  Ni7  1  0.16939592  0.83593351  0.16988476  1
  Ni  Ni8  1  0.00207032  0.66558933  0.33421455  1
  Fe  Fe9  1  0.33444952  1.00041573  0.00257989  1
  Fe  Fe10  1  0.50067179  0.16600011  0.16929439  1
  Ni  Ni11  1  0.33754633  0.00228897  0.33328918  1
  Fe  Fe12  1  0.33500299  0.33563112  1.00104936  1
  Fe  Fe13  1  0.50037806  0.50235356  0.16822841  1
  Fe  Fe14  1  0.33496330  0.33534442  0.33449412  1
  Ni  Ni15  1  0.33639477  0.66768333  0.00342797  1
  Ni  Ni16  1  0.49975648  0.83306661  0.16806767  1
  Fe  Fe17  1  0.33458981  0.66834158  0.33395210  1
  Cr  Cr18  1  0.66733501  0.99783872  0.00240301  1
  Ni  Ni19  1  0.83595116  0.16829915  0.17153053  1
  Ni  Ni20  1  0.66599109  0.00243346  0.33479042  1
  Cr  Cr21  1  0.66794884  0.33616760  0.00259145  1
  Fe  Fe22  1  0.83525358  0.50232039  0.16937632  1
  Fe  Fe23  1  0.66894645  0.33419658  0.33579591  1
  Ni  Ni24  1  0.66549857  0.66880136  1.00108283  1
  Ni  Ni25  1  0.83505392  0.83644364  0.16830389  1
  Cr  Cr26  1  0.66935167  0.67130798  0.33440115  1
  Cr  Cr27  1  0.16690692  0.16658014  0.50171854  1
  Ni  Ni28  1  1.00121858  1.00019956  0.66760100  1
  Fe  Fe29  1  0.17027300  0.16667631  0.83581061  1
  Ni  Ni30  1  0.16947199  0.50284510  0.49936064  1
  Cr  Cr31  1  1.00143632  0.33804140  0.66905171  1
  Ni  Ni32  1  0.17140822  0.50365185  0.83477659  1
  Cr  Cr33  1  0.16832561  0.83367198  0.50118014  1
  Ni  Ni34  1  1.00034150  0.66710086  0.66759137  1
  Cr  Cr35  1  0.16821176  0.83494536  0.83367839  1
  Fe  Fe36  1  0.50232200  0.16895512  0.50063757  1
  Ni  Ni37  1  0.33670977  1.00066977  0.66976431  1
  Ni  Ni38  1  0.49947571  0.16916035  0.83542054  1
  Ni  Ni39  1  0.50210846  0.50160388  0.50163781  1
  Cr  Cr40  1  0.33584537  0.33562079  0.66958156  1
  Ni  Ni41  1  0.50147703  0.50292462  0.83546667  1
  Fe  Fe42  1  0.50174427  0.83381594  0.50115848  1
  Ni  Ni43  1  0.33660802  0.66793120  0.66634257  1
  Ni  Ni44  1  0.50010510  0.83223130  0.83464065  1
  Ni  Ni45  1  0.83343527  0.16834418  0.49920080  1
  Cr  Cr46  1  0.66618655  0.99989289  0.66657754  1
  Cr  Cr47  1  0.83469032  0.16672564  0.83308305  1
  Ni  Ni48  1  0.83339604  0.50120566  0.50177428  1
  Ni  Ni49  1  0.66700434  0.33669674  0.66629653  1
  Ni  Ni50  1  0.83171585  0.50412224  0.83327249  1
  Ni  Ni51  1  0.83547778  0.83487863  0.50173547  1
  Ni  Ni52  1  0.66781618  0.66736970  0.66954664  1
  Ni  Ni53  1  0.83457467  0.83280094  0.83463169  1
" 