3154,Ni54Fe25Cr19_11,-232.811984542816, 193.107280042404,Ni54Fe25Cr19,"# generated using pymatgen
 data_Cr12Fe13Ni29
_symmetry_space_group_name_H-M   'P 1'
_cell_length_a   7.44971176
_cell_length_b   7.44971176
_cell_length_c   10.53548341
_cell_angle_alpha   90.00000000
_cell_angle_beta   90.00000000
_cell_angle_gamma   90.00000000
_symmetry_Int_Tables_number   1
_chemical_formula_structural   Cr12Fe13Ni29
_chemical_formula_sum   'Cr12 Fe13 Ni29'
_cell_volume   584.70042112
_cell_formula_units_Z   1
loop_
 _symmetry_equiv_pos_site_id
 _symmetry_equiv_pos_as_xyz
  1  'x, y, z'
loop_
 _atom_site_type_symbol
 _atom_site_label
 _atom_site_symmetry_multiplicity
 _atom_site_fract_x
 _atom_site_fract_y
 _atom_site_fract_z
 _atom_site_occupancy
  Ni  Ni0  1  0.00257722  0.00202987  0.00312108  1
  Cr  Cr1  1  0.16817181  0.16620699  0.16831576  1
  Fe  Fe2  1  0.99904305  1.00025733  0.33295157  1
  Fe  Fe3  1  1.00052908  0.33382672  1.00035138  1
  Cr  Cr4  1  0.16892432  0.50266343  0.16931997  1
  Ni  Ni5  1  0.99920461  0.33607500  0.33494221  1
  Cr  Cr6  1  0.99886094  0.66726676  0.00279366  1
  Ni  Ni7  1  0.16648034  0.83539333  0.16939819  1
  Ni  Ni8  1  0.99996019  0.66729043  0.33404194  1
  Ni  Ni9  1  0.33465941  0.00366790  1.00039735  1
  Ni  Ni10  1  0.50325064  0.16927069  0.16830548  1
  Ni  Ni11  1  0.33563730  1.00081061  0.33276480  1
  Ni  Ni12  1  0.33678346  0.33265203  0.99872400  1
  Ni  Ni13  1  0.50313269  0.49939266  0.16869061  1
  Ni  Ni14  1  0.33600621  0.33512500  0.33505895  1
  Fe  Fe15  1  0.33632719  0.66721985  1.00085020  1
  Cr  Cr16  1  0.50061289  0.83433357  0.16743382  1
  Ni  Ni17  1  0.33456863  0.66755719  0.33476752  1
  Fe  Fe18  1  0.66688209  0.00219543  0.00219965  1
  Ni  Ni19  1  0.83264707  0.16747501  0.16855600  1
  Ni  Ni20  1  0.66801221  0.00156428  0.33451453  1
  Fe  Fe21  1  0.66648010  0.33510193  0.00234256  1
  Ni  Ni22  1  0.83208072  0.50050456  0.16839185  1
  Ni  Ni23  1  0.66827787  0.33500292  0.33233388  1
  Ni  Ni24  1  0.66746304  0.66547376  1.00073961  1
  Ni  Ni25  1  0.83567207  0.83550977  0.16914286  1
  Ni  Ni26  1  0.66896235  0.66692383  0.33535223  1
  Cr  Cr27  1  0.16579028  0.17064818  0.50091363  1
  Ni  Ni28  1  0.99976192  0.00175896  0.66704344  1
  Fe  Fe29  1  0.16859413  0.17082309  0.83537603  1
  Ni  Ni30  1  0.16707831  0.50135494  0.50187626  1
  Ni  Ni31  1  0.00298726  0.33679481  0.66912413  1
  Ni  Ni32  1  0.16907425  0.49920487  0.83240302  1
  Cr  Cr33  1  0.16717839  0.83171159  0.49914404  1
  Ni  Ni34  1  0.99987755  0.66493948  0.66748320  1
  Cr  Cr35  1  0.16822119  0.83387285  0.83454865  1
  Cr  Cr36  1  0.50310501  0.16733970  0.49852915  1
  Cr  Cr37  1  0.33615618  0.00191228  0.67016678  1
  Ni  Ni38  1  0.49982618  0.16831457  0.83599925  1
  Fe  Fe39  1  0.49980407  0.50395325  0.49972053  1
  Fe  Fe40  1  0.33264969  0.33752536  0.66977965  1
  Ni  Ni41  1  0.49968757  0.50101059  0.83458730  1
  Ni  Ni42  1  0.50419729  0.83277181  0.50172849  1
  Fe  Fe43  1  0.33533956  0.66514840  0.66730800  1
  Fe  Fe44  1  0.50254763  0.83303530  0.83460081  1
  Fe  Fe45  1  0.83539776  0.16696089  0.50039853  1
  Ni  Ni46  1  0.66780889  0.99834585  0.66782929  1
  Cr  Cr47  1  0.83469597  0.16777074  0.83466348  1
  Fe  Fe48  1  0.83572899  0.50235048  0.50038551  1
  Cr  Cr49  1  0.66784366  0.33627894  0.66780731  1
  Ni  Ni50  1  0.83472852  0.50113555  0.83414579  1
  Fe  Fe51  1  0.83280146  0.83417795  0.50142110  1
  Ni  Ni52  1  0.66801392  0.66867423  0.66739666  1
  Cr  Cr53  1  0.83272719  0.83422482  0.83264869  1
" 