3736,Ni54Fe7Cr38_11,-223.665948681782, 147.341227509329,Ni54Fe7Cr38,"# generated using pymatgen
 data_Cr22Fe3Ni29
_symmetry_space_group_name_H-M   'P 1'
_cell_length_a   7.49412628
_cell_length_b   7.49412628
_cell_length_c   10.59829503
_cell_angle_alpha   90.00000000
_cell_angle_beta   90.00000000
_cell_angle_gamma   90.00000000
_symmetry_Int_Tables_number   1
_chemical_formula_structural   Cr22Fe3Ni29
_chemical_formula_sum   'Cr22 Fe3 Ni29'
_cell_volume   595.22069016
_cell_formula_units_Z   1
loop_
 _symmetry_equiv_pos_site_id
 _symmetry_equiv_pos_as_xyz
  1  'x, y, z'
loop_
 _atom_site_type_symbol
 _atom_site_label
 _atom_site_symmetry_multiplicity
 _atom_site_fract_x
 _atom_site_fract_y
 _atom_site_fract_z
 _atom_site_occupancy
  Cr  Cr0  1  0.99729349  -0.00143952  -0.00062087  1
  Fe  Fe1  1  0.16506046  0.16597269  0.16246534  1
  Cr  Cr2  1  -0.00155454  0.99792965  0.33007743  1
  Ni  Ni3  1  -0.00015718  0.33075666  0.00018137  1
  Ni  Ni4  1  0.16607254  0.49917281  0.16253932  1
  Cr  Cr5  1  0.99770709  0.32997281  0.32993552  1
  Ni  Ni6  1  0.00001493  0.66532424  0.00032126  1
  Cr  Cr7  1  0.16616708  0.82801462  0.16560148  1
  Fe  Fe8  1  0.99776880  0.66425835  0.33123486  1
  Ni  Ni9  1  0.33102580  0.99618726  0.99803565  1
  Cr  Cr10  1  0.49849714  0.16345005  0.16541191  1
  Fe  Fe11  1  0.33300190  0.99516299  0.33250386  1
  Ni  Ni12  1  0.32961945  0.33427241  0.00072466  1
  Ni  Ni13  1  0.49662670  0.49934784  0.16469559  1
  Cr  Cr14  1  0.33161595  0.33579401  0.32894942  1
  Ni  Ni15  1  0.33232748  0.66420949  0.99700580  1
  Cr  Cr16  1  0.50042815  0.83113953  0.16472311  1
  Ni  Ni17  1  0.33298975  0.66515183  0.33286624  1
  Ni  Ni18  1  0.66556253  0.99617005  -0.00156808  1
  Ni  Ni19  1  0.82933462  0.16438058  0.16459316  1
  Ni  Ni20  1  0.66761789  0.99710314  0.33128464  1
  Cr  Cr21  1  0.66455610  0.33250214  0.99720169  1
  Cr  Cr22  1  0.83128474  0.50185672  0.16489677  1
  Ni  Ni23  1  0.66569387  0.33290363  0.33306743  1
  Ni  Ni24  1  0.66208025  0.66683810  -0.00133981  1
  Ni  Ni25  1  0.83025541  0.83163687  0.16465768  1
  Ni  Ni26  1  0.66175773  0.66462219  0.33190799  1
  Cr  Cr27  1  0.16545885  0.16212841  0.50043712  1
  Ni  Ni28  1  -0.00034718  0.99746453  0.66493263  1
  Cr  Cr29  1  0.16505531  0.16448649  0.83113788  1
  Cr  Cr30  1  0.16230025  0.50180013  0.49960589  1
  Ni  Ni31  1  0.99583180  0.32988529  0.66383833  1
  Cr  Cr32  1  0.16334115  0.50097935  0.83233873  1
  Ni  Ni33  1  0.16739715  0.83036159  0.49911952  1
  Ni  Ni34  1  0.00047136  0.66712642  0.66283981  1
  Ni  Ni35  1  0.16725223  0.83048952  0.82975392  1
  Cr  Cr36  1  0.49935593  0.16201545  0.49572099  1
  Ni  Ni37  1  0.32947831  0.99173833  0.66388163  1
  Cr  Cr38  1  0.49719281  0.16217465  0.83324596  1
  Ni  Ni39  1  0.49934681  0.50132270  0.49593078  1
  Cr  Cr40  1  0.33400280  0.33620816  0.66511671  1
  Ni  Ni41  1  0.49594621  0.50161690  0.83410075  1
  Ni  Ni42  1  0.49536926  0.83017397  0.49646702  1
  Ni  Ni43  1  0.33171823  0.66869410  0.66498983  1
  Ni  Ni44  1  0.49425655  0.83076833  0.83389249  1
  Ni  Ni45  1  0.83148467  0.16588471  0.49860380  1
  Cr  Cr46  1  0.66557810  0.99647850  0.66627743  1
  Ni  Ni47  1  0.83320737  0.16500988  0.83107951  1
  Ni  Ni48  1  0.83088764  0.49753378  0.49724107  1
  Cr  Cr49  1  0.66557619  0.33343876  0.66305442  1
  Cr  Cr50  1  0.83470506  0.49868734  0.83152828  1
  Cr  Cr51  1  0.83233508  0.82927851  0.49643810  1
  Cr  Cr52  1  0.65945884  0.66396024  0.66509660  1
  Cr  Cr53  1  0.83313143  0.83004317  0.83441775  1
" 