4966,Ni54Fe46_9,-240.43477782156, 219.77212336711,Ni54Fe46,"# generated using pymatgen
 data_Fe29Ni25
_symmetry_space_group_name_H-M   'P 1'
_cell_length_a   7.39722546
_cell_length_b   7.39722546
_cell_length_c   10.46125656
_cell_angle_alpha   90.00000000
_cell_angle_beta   90.00000000
_cell_angle_gamma   90.00000000
_symmetry_Int_Tables_number   1
_chemical_formula_structural   Fe29Ni25
_chemical_formula_sum   'Fe29 Ni25'
_cell_volume   572.42891675
_cell_formula_units_Z   1
loop_
 _symmetry_equiv_pos_site_id
 _symmetry_equiv_pos_as_xyz
  1  'x, y, z'
loop_
 _atom_site_type_symbol
 _atom_site_label
 _atom_site_symmetry_multiplicity
 _atom_site_fract_x
 _atom_site_fract_y
 _atom_site_fract_z
 _atom_site_occupancy
  Fe  Fe0  1  0.00492767  1.00418817  1.00426189  1
  Fe  Fe1  1  0.17198968  0.17063763  0.17184052  1
  Fe  Fe2  1  0.00539259  1.00256461  0.33928092  1
  Fe  Fe3  1  0.00532477  0.33896125  1.00404291  1
  Ni  Ni4  1  0.17060572  0.50443532  0.17218306  1
  Fe  Fe5  1  0.00545270  0.33930391  0.33859636  1
  Ni  Ni6  1  0.00509284  0.67118357  1.00401962  1
  Ni  Ni7  1  0.17185373  0.83736853  0.17098678  1
  Ni  Ni8  1  1.00443589  0.67119947  0.33959967  1
  Ni  Ni9  1  0.33899879  1.00451362  1.00412706  1
  Ni  Ni10  1  0.50413391  0.17072297  0.17147980  1
  Ni  Ni11  1  0.33812041  1.00437727  0.33845223  1
  Ni  Ni12  1  0.33899380  0.33807107  0.00473646  1
  Fe  Fe13  1  0.50457732  0.50572972  0.17148291  1
  Fe  Fe14  1  0.33791545  0.33877724  0.33764488  1
  Ni  Ni15  1  0.33687121  0.67157562  0.00527814  1
  Ni  Ni16  1  0.50489491  0.83989654  0.17205854  1
  Ni  Ni17  1  0.33774571  0.67245631  0.33796224  1
  Ni  Ni18  1  0.67094072  0.00576960  0.00473905  1
  Fe  Fe19  1  0.83751643  0.17103426  0.17094236  1
  Fe  Fe20  1  0.67087126  1.00280255  0.33718107  1
  Ni  Ni21  1  0.67133490  0.33721152  1.00424737  1
  Ni  Ni22  1  0.83903506  0.50519450  0.17129263  1
  Fe  Fe23  1  0.67079323  0.33908681  0.33725431  1
  Fe  Fe24  1  0.67088477  0.67191566  0.00490366  1
  Ni  Ni25  1  0.83740652  0.83698541  0.17118864  1
  Ni  Ni26  1  0.67197286  0.67117408  0.33725607  1
  Ni  Ni27  1  0.17244017  0.17170421  0.50442482  1
  Ni  Ni28  1  1.00453614  0.00526999  0.67130987  1
  Fe  Fe29  1  0.17079785  0.17138711  0.83705026  1
  Fe  Fe30  1  0.17081787  0.50529590  0.50467151  1
  Ni  Ni31  1  1.00415068  0.33757853  0.67155480  1
  Ni  Ni32  1  0.17053778  0.50314465  0.83726835  1
  Ni  Ni33  1  0.17080122  0.83880774  0.50532365  1
  Fe  Fe34  1  1.00432981  0.67153541  0.67169306  1
  Fe  Fe35  1  0.17095341  0.83700100  0.83833016  1
  Fe  Fe36  1  0.50406796  0.17030391  0.50397959  1
  Fe  Fe37  1  0.33687403  0.00525669  0.67092139  1
  Fe  Fe38  1  0.50539099  0.17154520  0.83953297  1
  Fe  Fe39  1  0.50428933  0.50560165  0.50444005  1
  Fe  Fe40  1  0.33657012  0.33745485  0.67173144  1
  Fe  Fe41  1  0.50500676  0.50547855  0.83822876  1
  Fe  Fe42  1  0.50390577  0.83825555  0.50421872  1
  Fe  Fe43  1  0.33696863  0.67145055  0.67161580  1
  Ni  Ni44  1  0.50565731  0.83953040  0.83786264  1
  Fe  Fe45  1  0.83954422  0.17050325  0.50548796  1
  Fe  Fe46  1  0.67264898  1.00456407  0.67219974  1
  Fe  Fe47  1  0.83797702  0.17146138  0.83772648  1
  Fe  Fe48  1  0.83904862  0.50513299  0.50450042  1
  Fe  Fe49  1  0.67255844  0.33776436  0.67195383  1
  Ni  Ni50  1  0.83921509  0.50479687  0.83765927  1
  Ni  Ni51  1  0.83811350  0.83754593  0.50471364  1
  Fe  Fe52  1  0.67285432  0.67183256  0.67115061  1
  Ni  Ni53  1  0.83671321  0.83751156  0.83826313  1
" 