3330,Ni54Fe7Cr38_5,-223.807931886344, 155.429329124494,Ni54Fe7Cr38,"# generated using pymatgen
 data_Cr22Fe3Ni29
_symmetry_space_group_name_H-M   'P 1'
_cell_length_a   7.49371205
_cell_length_b   7.49371205
_cell_length_c   10.59770921
_cell_angle_alpha   90.00000000
_cell_angle_beta   90.00000000
_cell_angle_gamma   90.00000000
_symmetry_Int_Tables_number   1
_chemical_formula_structural   Cr22Fe3Ni29
_chemical_formula_sum   'Cr22 Fe3 Ni29'
_cell_volume   595.12199402
_cell_formula_units_Z   1
loop_
 _symmetry_equiv_pos_site_id
 _symmetry_equiv_pos_as_xyz
  1  'x, y, z'
loop_
 _atom_site_type_symbol
 _atom_site_label
 _atom_site_symmetry_multiplicity
 _atom_site_fract_x
 _atom_site_fract_y
 _atom_site_fract_z
 _atom_site_occupancy
  Cr  Cr0  1  0.99745457  0.00043027  0.99642773  1
  Ni  Ni1  1  0.16819601  0.16534062  0.16327699  1
  Ni  Ni2  1  -0.00051697  -0.00121442  0.33454492  1
  Ni  Ni3  1  0.00183788  0.32957799  -0.00107367  1
  Ni  Ni4  1  0.17010909  0.49652673  0.16296490  1
  Cr  Cr5  1  0.00194991  0.32915333  0.32997849  1
  Cr  Cr6  1  0.00014408  0.66147961  -0.00108691  1
  Ni  Ni7  1  0.16558046  0.83238087  0.16382148  1
  Cr  Cr8  1  0.00127624  0.66525358  0.33228871  1
  Ni  Ni9  1  0.33317695  -0.00111529  0.00049046  1
  Ni  Ni10  1  0.49538427  0.16835324  0.16453261  1
  Cr  Cr11  1  0.32995306  0.00026369  0.33168406  1
  Ni  Ni12  1  0.33107662  0.33171011  -0.00102168  1
  Ni  Ni13  1  0.49650618  0.49637822  0.16581481  1
  Ni  Ni14  1  0.33304370  0.33085735  0.33175845  1
  Ni  Ni15  1  0.33372978  0.66466516  0.00032913  1
  Fe  Fe16  1  0.49567534  0.83325418  0.16390335  1
  Cr  Cr17  1  0.33267179  0.66448019  0.33028220  1
  Ni  Ni18  1  0.66062106  0.99800446  0.99709260  1
  Cr  Cr19  1  0.83040371  0.16336354  0.16538243  1
  Cr  Cr20  1  0.66103006  -0.00018418  0.33325996  1
  Cr  Cr21  1  0.66469531  0.33014137  -0.00085832  1
  Fe  Fe22  1  0.83189728  0.49651846  0.16639300  1
  Ni  Ni23  1  0.66221273  0.33188545  0.33049226  1
  Cr  Cr24  1  0.66128437  0.66553317  -0.00139612  1
  Cr  Cr25  1  0.83128749  0.83200726  0.16684576  1
  Ni  Ni26  1  0.66334629  0.66403768  0.33063304  1
  Ni  Ni27  1  0.16750834  0.16458682  0.49818088  1
  Cr  Cr28  1  -0.00076396  -0.00017315  0.66332758  1
  Ni  Ni29  1  0.16617530  0.16497602  0.83322443  1
  Ni  Ni30  1  0.16707020  0.49592221  0.49824169  1
  Cr  Cr31  1  -0.00170331  0.32879269  0.66529947  1
  Cr  Cr32  1  0.16976103  0.49584429  0.83193334  1
  Ni  Ni33  1  0.16545314  0.83375250  0.49737065  1
  Cr  Cr34  1  0.99774558  0.66618040  0.66247480  1
  Cr  Cr35  1  0.16770063  0.83418865  0.83350522  1
  Ni  Ni36  1  0.49723643  0.16571520  0.49865397  1
  Ni  Ni37  1  0.33231352  -0.00063461  0.66299161  1
  Cr  Cr38  1  0.49482562  0.16550574  0.83162559  1
  Cr  Cr39  1  0.49820501  0.49580492  0.49940770  1
  Fe  Fe40  1  0.33246854  0.32908909  0.66388977  1
  Ni  Ni41  1  0.49807466  0.49881404  0.83022985  1
  Ni  Ni42  1  0.49898359  0.83188916  0.49810323  1
  Cr  Cr43  1  0.33339090  0.66783264  0.66380768  1
  Ni  Ni44  1  0.49823580  0.83108533  0.83382576  1
  Ni  Ni45  1  0.83047418  0.16415642  0.49668441  1
  Cr  Cr46  1  0.66265075  -0.00139879  0.66538432  1
  Ni  Ni47  1  0.83099786  0.16406214  0.83297734  1
  Cr  Cr48  1  0.82907645  0.49827770  0.49594955  1
  Ni  Ni49  1  0.66397516  0.33088941  0.66484187  1
  Cr  Cr50  1  0.83002236  0.49802386  0.83118217  1
  Ni  Ni51  1  0.82984922  0.83285831  0.49715286  1
  Ni  Ni52  1  0.66227584  0.66547865  0.66583347  1
  Ni  Ni53  1  0.82789736  0.83332520  0.83106767  1
" 