3854,Ni54Fe25Cr19_8,-232.592712046637, 191.877688565316,Ni54Fe25Cr19,"# generated using pymatgen
 data_Cr12Fe13Ni29
_symmetry_space_group_name_H-M   'P 1'
_cell_length_a   7.44404699
_cell_length_b   7.44404699
_cell_length_c   10.52747222
_cell_angle_alpha   90.00000000
_cell_angle_beta   90.00000000
_cell_angle_gamma   90.00000000
_symmetry_Int_Tables_number   1
_chemical_formula_structural   Cr12Fe13Ni29
_chemical_formula_sum   'Cr12 Fe13 Ni29'
_cell_volume   583.36761538
_cell_formula_units_Z   1
loop_
 _symmetry_equiv_pos_site_id
 _symmetry_equiv_pos_as_xyz
  1  'x, y, z'
loop_
 _atom_site_type_symbol
 _atom_site_label
 _atom_site_symmetry_multiplicity
 _atom_site_fract_x
 _atom_site_fract_y
 _atom_site_fract_z
 _atom_site_occupancy
  Ni  Ni0  1  1.00089706  0.00429882  0.99884905  1
  Ni  Ni1  1  0.16537480  0.17041483  0.16569969  1
  Ni  Ni2  1  0.99899560  1.00064077  0.33641553  1
  Fe  Fe3  1  1.00064968  0.33535783  1.00027257  1
  Fe  Fe4  1  0.16441172  0.50305900  0.16671371  1
  Fe  Fe5  1  0.00167830  0.33481035  0.33527826  1
  Ni  Ni6  1  0.99936223  0.66768617  0.99914362  1
  Cr  Cr7  1  0.16693234  0.83789754  0.16628675  1
  Ni  Ni8  1  0.99924290  0.66767872  0.33748796  1
  Ni  Ni9  1  0.33491175  0.00421674  0.00250371  1
  Fe  Fe10  1  0.50432481  0.16623037  0.16757752  1
  Cr  Cr11  1  0.33553952  1.00092261  0.33686520  1
  Fe  Fe12  1  0.33366201  0.33483306  0.00237271  1
  Ni  Ni13  1  0.50326591  0.50351785  0.16540322  1
  Cr  Cr14  1  0.33582064  0.33575601  0.33145898  1
  Ni  Ni15  1  0.33541150  0.66769120  0.00356986  1
  Ni  Ni16  1  0.50269104  0.83397782  0.16773103  1
  Cr  Cr17  1  0.33292201  0.66813092  0.33650780  1
  Fe  Fe18  1  0.66892123  1.00045984  1.00073196  1
  Ni  Ni19  1  0.83837355  0.16946064  0.16898801  1
  Ni  Ni20  1  0.67095803  0.00264872  0.33456904  1
  Cr  Cr21  1  0.66910114  0.33316073  0.99860196  1
  Ni  Ni22  1  0.83474094  0.50010246  0.16899060  1
  Cr  Cr23  1  0.66968222  0.33452241  0.33731392  1
  Ni  Ni24  1  0.66906012  0.66489336  0.00163318  1
  Cr  Cr25  1  0.83322128  0.83458007  0.16578012  1
  Fe  Fe26  1  0.66897240  0.66995783  0.33546509  1
  Cr  Cr27  1  0.16747619  0.16939431  0.50334834  1
  Ni  Ni28  1  0.99971004  0.00260736  0.66846480  1
  Ni  Ni29  1  0.16742658  0.16843758  0.83474190  1
  Ni  Ni30  1  0.16551295  0.50131338  0.50287745  1
  Ni  Ni31  1  0.99941013  0.33492810  0.66801783  1
  Cr  Cr32  1  0.16758899  0.50086992  0.83453057  1
  Ni  Ni33  1  0.16615681  0.83454447  0.50478702  1
  Fe  Fe34  1  1.00073050  0.66858326  0.66714263  1
  Cr  Cr35  1  0.16965639  0.83726167  0.83338107  1
  Ni  Ni36  1  0.50351186  0.16566908  0.50494033  1
  Ni  Ni37  1  0.33544152  0.00181135  0.66643674  1
  Fe  Fe38  1  0.49993605  0.16771895  0.83223335  1
  Cr  Cr39  1  0.50310170  0.50048695  0.50656086  1
  Ni  Ni40  1  0.33397062  0.33440295  0.67027964  1
  Fe  Fe41  1  0.50133970  0.50125574  0.83373467  1
  Ni  Ni42  1  0.50470100  0.83638522  0.50218448  1
  Ni  Ni43  1  0.33560772  0.66815856  0.66562437  1
  Cr  Cr44  1  0.50270754  0.83331652  0.83562567  1
  Fe  Fe45  1  0.83419896  0.16622010  0.50308665  1
  Ni  Ni46  1  0.66994381  1.00103364  0.66878657  1
  Ni  Ni47  1  0.83642249  0.16851508  0.83304932  1
  Ni  Ni48  1  0.83683639  0.50195497  0.50262909  1
  Fe  Fe49  1  0.66957316  0.33287505  0.66980863  1
  Ni  Ni50  1  0.83323461  0.50140160  0.83301554  1
  Ni  Ni51  1  0.83364842  0.83440539  0.50265760  1
  Ni  Ni52  1  0.67057728  0.66795657  0.66860530  1
  Fe  Fe53  1  0.83587842  0.83501015  0.83466318  1
" 