6900,Ni54Fe7Cr38_15,-223.520741584237, 147.505450769972,Ni54Fe7Cr38,"# generated using pymatgen
 data_Cr22Fe3Ni29
_symmetry_space_group_name_H-M   'P 1'
_cell_length_a   7.49261845
_cell_length_b   7.49261845
_cell_length_c   10.59616263
_cell_angle_alpha   90.00000000
_cell_angle_beta   90.00000000
_cell_angle_gamma   90.00000000
_symmetry_Int_Tables_number   1
_chemical_formula_structural   Cr22Fe3Ni29
_chemical_formula_sum   'Cr22 Fe3 Ni29'
_cell_volume   594.86148417
_cell_formula_units_Z   1
loop_
 _symmetry_equiv_pos_site_id
 _symmetry_equiv_pos_as_xyz
  1  'x, y, z'
loop_
 _atom_site_type_symbol
 _atom_site_label
 _atom_site_symmetry_multiplicity
 _atom_site_fract_x
 _atom_site_fract_y
 _atom_site_fract_z
 _atom_site_occupancy
  Ni  Ni0  1  0.99697337  0.99590849  0.99795251  1
  Cr  Cr1  1  0.16258172  0.16576881  0.16439897  1
  Ni  Ni2  1  0.99752486  0.00052988  0.32997057  1
  Cr  Cr3  1  -0.00013086  0.33146413  0.99448142  1
  Ni  Ni4  1  0.16845125  0.50083561  0.16510507  1
  Ni  Ni5  1  0.00140076  0.32939034  0.33083545  1
  Ni  Ni6  1  0.00047722  0.66665671  0.99661812  1
  Ni  Ni7  1  0.16274812  0.82924885  0.16384324  1
  Cr  Cr8  1  -0.00052859  0.66644890  0.33203302  1
  Cr  Cr9  1  0.32726098  0.99790833  0.99659327  1
  Cr  Cr10  1  0.49808311  0.16866269  0.16446762  1
  Cr  Cr11  1  0.33016468  0.99765982  0.33396223  1
  Ni  Ni12  1  0.33030080  0.33709258  0.99614732  1
  Ni  Ni13  1  0.49464134  0.49892746  0.16579468  1
  Ni  Ni14  1  0.33078392  0.33252833  0.33217718  1
  Ni  Ni15  1  0.32867337  0.66159490  0.00027915  1
  Fe  Fe16  1  0.49580204  0.82977975  0.16372001  1
  Ni  Ni17  1  0.33196991  0.66218233  0.32714075  1
  Cr  Cr18  1  0.67015517  0.99759006  -0.00052185  1
  Ni  Ni19  1  0.83322099  0.16183274  0.16647692  1
  Cr  Cr20  1  0.66602519  0.99736477  0.33034485  1
  Cr  Cr21  1  0.66519522  0.33269552  0.99710984  1
  Cr  Cr22  1  0.83491321  0.49507933  0.16635318  1
  Fe  Fe23  1  0.66406144  0.33108917  0.33138547  1
  Cr  Cr24  1  0.66573393  0.66416320  0.99798806  1
  Ni  Ni25  1  0.83690726  0.83237587  0.16492321  1
  Cr  Cr26  1  0.66302763  0.66604677  0.33056331  1
  Ni  Ni27  1  0.16635092  0.16586802  0.49845289  1
  Cr  Cr28  1  0.00028209  -0.00072742  0.66590320  1
  Ni  Ni29  1  0.16395098  0.16529590  0.82999106  1
  Cr  Cr30  1  0.16337061  0.49556787  0.49766221  1
  Ni  Ni31  1  -0.00048107  0.33232095  0.66753256  1
  Ni  Ni32  1  0.16421380  0.49921237  0.83181686  1
  Cr  Cr33  1  0.16323536  0.83175987  0.49891083  1
  Ni  Ni34  1  0.99492972  0.66368733  0.66805313  1
  Ni  Ni35  1  0.16165653  0.83069237  0.83313617  1
  Ni  Ni36  1  0.49774290  0.16566052  0.50102500  1
  Ni  Ni37  1  0.33163841  0.00238462  0.66455671  1
  Cr  Cr38  1  0.49804272  0.16627845  0.82872122  1
  Cr  Cr39  1  0.49865735  0.49585547  0.49899335  1
  Ni  Ni40  1  0.32998512  0.32895420  0.66580388  1
  Ni  Ni41  1  0.49742333  0.49785285  0.83053539  1
  Cr  Cr42  1  0.49844436  0.83193397  0.50257423  1
  Cr  Cr43  1  0.32810536  0.66280940  0.66763112  1
  Cr  Cr44  1  0.49730790  0.83115406  0.83044824  1
  Cr  Cr45  1  0.83280163  0.16790369  0.49663449  1
  Ni  Ni46  1  0.66652504  -0.00078654  0.66490305  1
  Ni  Ni47  1  0.83347383  0.16453968  0.83077186  1
  Cr  Cr48  1  0.83215246  0.49911853  0.50144925  1
  Ni  Ni49  1  0.66536288  0.33168452  0.66647172  1
  Ni  Ni50  1  0.83251515  0.49915862  0.82815192  1
  Fe  Fe51  1  0.83141863  0.83322212  0.50049422  1
  Ni  Ni52  1  0.66773989  0.66481701  0.66744667  1
  Ni  Ni53  1  0.83459033  0.83081050  0.82963946  1
" 