1324,Ni54Fe7Cr38_16,-223.415654216139, 144.614607777959,Ni54Fe7Cr38,"# generated using pymatgen
 data_Cr22Fe3Ni29
_symmetry_space_group_name_H-M   'P 1'
_cell_length_a   7.49674298
_cell_length_b   7.49674298
_cell_length_c   10.60199559
_cell_angle_alpha   90.00000000
_cell_angle_beta   90.00000000
_cell_angle_gamma   90.00000000
_symmetry_Int_Tables_number   1
_chemical_formula_structural   Cr22Fe3Ni29
_chemical_formula_sum   'Cr22 Fe3 Ni29'
_cell_volume   595.84440040
_cell_formula_units_Z   1
loop_
 _symmetry_equiv_pos_site_id
 _symmetry_equiv_pos_as_xyz
  1  'x, y, z'
loop_
 _atom_site_type_symbol
 _atom_site_label
 _atom_site_symmetry_multiplicity
 _atom_site_fract_x
 _atom_site_fract_y
 _atom_site_fract_z
 _atom_site_occupancy
  Cr  Cr0  1  0.99734555  0.99658858  -0.00022072  1
  Cr  Cr1  1  0.16225883  0.16272609  0.16469153  1
  Fe  Fe2  1  0.99663806  0.99473035  0.33086030  1
  Cr  Cr3  1  -0.00099783  0.33314557  0.99631838  1
  Ni  Ni4  1  0.16625269  0.50021155  0.16661316  1
  Ni  Ni5  1  0.99719351  0.33375869  0.32978354  1
  Cr  Cr6  1  0.99780154  0.66428212  0.99645639  1
  Ni  Ni7  1  0.16582599  0.83035212  0.16615798  1
  Ni  Ni8  1  0.00005435  0.66542027  0.33109748  1
  Ni  Ni9  1  0.33258884  -0.00089060  -0.00149447  1
  Fe  Fe10  1  0.49920689  0.16422690  0.16478195  1
  Cr  Cr11  1  0.33268444  0.99473427  0.33234109  1
  Cr  Cr12  1  0.33094098  0.33021984  0.99739560  1
  Ni  Ni13  1  0.49758260  0.50001464  0.16726304  1
  Cr  Cr14  1  0.33172972  0.33410984  0.33142732  1
  Cr  Cr15  1  0.32966944  0.66482142  0.00169841  1
  Ni  Ni16  1  0.49654893  0.82909397  0.16475436  1
  Ni  Ni17  1  0.32933726  0.66537217  0.32958615  1
  Cr  Cr18  1  0.66357395  0.99786166  -0.00031893  1
  Ni  Ni19  1  0.83134941  0.16439521  0.16730074  1
  Cr  Cr20  1  0.66527167  0.99761984  0.33092665  1
  Cr  Cr21  1  0.66412130  0.32976699  -0.00028448  1
  Cr  Cr22  1  0.82981631  0.49684989  0.16794213  1
  Ni  Ni23  1  0.66546202  0.33073060  0.32877006  1
  Cr  Cr24  1  0.66657419  0.66641856  -0.00193254  1
  Ni  Ni25  1  0.83172788  0.83241199  0.16655857  1
  Ni  Ni26  1  0.66464497  0.66621930  0.32999651  1
  Cr  Cr27  1  0.16383288  0.16392543  0.50027533  1
  Ni  Ni28  1  0.99750127  0.99608218  0.66431167  1
  Ni  Ni29  1  0.16711773  0.16502182  0.82901110  1
  Ni  Ni30  1  0.16330589  0.49977877  0.49820674  1
  Ni  Ni31  1  -0.00004723  0.33331662  0.66714184  1
  Fe  Fe32  1  0.16217235  0.49549373  0.82843471  1
  Ni  Ni33  1  0.16369518  0.83005848  0.49736304  1
  Ni  Ni34  1  0.99576131  0.66460475  0.66528026  1
  Cr  Cr35  1  0.16414110  0.83516370  0.83115943  1
  Ni  Ni36  1  0.49841507  0.16384971  0.50124691  1
  Ni  Ni37  1  0.33285920  0.00138631  0.66455671  1
  Ni  Ni38  1  0.49452196  0.16476112  0.82939444  1
  Cr  Cr39  1  0.49941674  0.49868346  0.49721422  1
  Ni  Ni40  1  0.33036481  0.32791125  0.66602904  1
  Cr  Cr41  1  0.50063979  0.49686318  0.82935371  1
  Ni  Ni42  1  0.49820494  0.83170620  0.49920523  1
  Cr  Cr43  1  0.32892782  0.66427489  0.66149736  1
  Cr  Cr44  1  0.49872174  0.83353267  0.83024769  1
  Cr  Cr45  1  0.83164572  0.16520553  0.49771406  1
  Ni  Ni46  1  0.66370699  0.99734025  0.66418462  1
  Cr  Cr47  1  0.83254313  0.16527853  0.82852916  1
  Cr  Cr48  1  0.83138652  0.49866216  0.49783391  1
  Ni  Ni49  1  0.66372475  0.32952994  0.66574532  1
  Ni  Ni50  1  0.83214711  0.49920135  0.82799437  1
  Ni  Ni51  1  0.83215338  0.83023165  0.49953686  1
  Ni  Ni52  1  0.66904362  0.66716862  0.66515584  1
  Ni  Ni53  1  0.83194297  0.82882611  0.82795644  1
" 