3094,Ni54Fe25Cr19_5,-232.67613828029, 190.78162977655,Ni54Fe25Cr19,"# generated using pymatgen
 data_Cr12Fe13Ni29
_symmetry_space_group_name_H-M   'P 1'
_cell_length_a   7.44964046
_cell_length_b   7.44964046
_cell_length_c   10.53538257
_cell_angle_alpha   90.00000000
_cell_angle_beta   90.00000000
_cell_angle_gamma   90.00000000
_symmetry_Int_Tables_number   1
_chemical_formula_structural   Cr12Fe13Ni29
_chemical_formula_sum   'Cr12 Fe13 Ni29'
_cell_volume   584.68363212
_cell_formula_units_Z   1
loop_
 _symmetry_equiv_pos_site_id
 _symmetry_equiv_pos_as_xyz
  1  'x, y, z'
loop_
 _atom_site_type_symbol
 _atom_site_label
 _atom_site_symmetry_multiplicity
 _atom_site_fract_x
 _atom_site_fract_y
 _atom_site_fract_z
 _atom_site_occupancy
  Cr  Cr0  1  0.00247912  0.00244217  1.00048057  1
  Ni  Ni1  1  0.16975998  0.16814020  0.16930809  1
  Ni  Ni2  1  1.00030161  0.00470996  0.33339449  1
  Cr  Cr3  1  1.00052167  0.33332140  1.00106721  1
  Fe  Fe4  1  0.16901928  0.49988088  0.16856550  1
  Ni  Ni5  1  0.00151388  0.33356155  0.33503721  1
  Ni  Ni6  1  0.00272976  0.66746839  0.00267635  1
  Ni  Ni7  1  0.16782285  0.83158037  0.16734447  1
  Fe  Fe8  1  1.00047916  0.66701571  0.33203011  1
  Ni  Ni9  1  0.33330576  1.00020847  0.00218126  1
  Ni  Ni10  1  0.50155840  0.16850053  0.16598289  1
  Cr  Cr11  1  0.33507141  1.00065505  0.33520517  1
  Ni  Ni12  1  0.33460974  0.33601660  0.00202716  1
  Fe  Fe13  1  0.49973930  0.50099849  0.16702278  1
  Fe  Fe14  1  0.33439490  0.33465472  0.33445146  1
  Ni  Ni15  1  0.33405916  0.66730916  0.00146194  1
  Fe  Fe16  1  0.50101225  0.83535650  0.16706439  1
  Ni  Ni17  1  0.33580688  0.66620092  0.33363923  1
  Ni  Ni18  1  0.66775073  0.00201594  0.00414815  1
  Ni  Ni19  1  0.83228654  0.16760324  0.16853849  1
  Ni  Ni20  1  0.66871487  1.00053220  0.33406918  1
  Ni  Ni21  1  0.66737449  0.33521485  0.00216448  1
  Fe  Fe22  1  0.83487190  0.50160420  0.16749633  1
  Cr  Cr23  1  0.67006540  0.33397031  0.33442035  1
  Ni  Ni24  1  0.66641864  0.66635804  0.00324935  1
  Fe  Fe25  1  0.83394252  0.83543650  0.16866186  1
  Ni  Ni26  1  0.66546044  0.66766811  0.33454017  1
  Ni  Ni27  1  0.16703981  0.17205403  0.50078824  1
  Ni  Ni28  1  1.00030265  0.00498931  0.66913071  1
  Ni  Ni29  1  0.16896305  0.17016562  0.83322911  1
  Ni  Ni30  1  0.16777311  0.49963926  0.49891571  1
  Ni  Ni31  1  0.00127843  0.33301116  0.66688888  1
  Ni  Ni32  1  0.16879015  0.50111847  0.83547668  1
  Cr  Cr33  1  0.16460427  0.83312642  0.50075646  1
  Fe  Fe34  1  0.00225583  0.66555547  0.66852022  1
  Ni  Ni35  1  0.16706340  0.83216442  0.83561310  1
  Ni  Ni36  1  0.50261730  0.16979835  0.50144009  1
  Cr  Cr37  1  0.33268275  0.00187273  0.66730513  1
  Cr  Cr38  1  0.50230061  0.17026567  0.83663494  1
  Fe  Fe39  1  0.50061245  0.49983035  0.50074726  1
  Ni  Ni40  1  0.33344561  0.33681071  0.66615987  1
  Fe  Fe41  1  0.49983728  0.49956782  0.83592888  1
  Fe  Fe42  1  0.50224095  0.83513300  0.50028349  1
  Cr  Cr43  1  0.33520274  0.66592282  0.66871882  1
  Cr  Cr44  1  0.50227864  0.83495919  0.83653601  1
  Ni  Ni45  1  0.83408462  0.16766967  0.50200718  1
  Ni  Ni46  1  0.66984046  0.00327038  0.66540581  1
  Ni  Ni47  1  0.83242336  0.16828505  0.83281140  1
  Fe  Fe48  1  0.83680280  0.49900481  0.50173406  1
  Ni  Ni49  1  0.66887368  0.33466593  0.66662056  1
  Cr  Cr50  1  0.83373919  0.50033060  0.83377104  1
  Cr  Cr51  1  0.83447517  0.83440069  0.50104445  1
  Fe  Fe52  1  0.66783757  0.66603186  0.66611081  1
  Cr  Cr53  1  0.83465285  0.83502113  0.83428180  1
" 