6570,Ni54Fe25Cr19_2,-232.521424540388, 189.502150097323,Ni54Fe25Cr19,"# generated using pymatgen
 data_Cr12Fe13Ni29
_symmetry_space_group_name_H-M   'P 1'
_cell_length_a   7.44893341
_cell_length_b   7.44893341
_cell_length_c   10.53438265
_cell_angle_alpha   90.00000000
_cell_angle_beta   90.00000000
_cell_angle_gamma   90.00000000
_symmetry_Int_Tables_number   1
_chemical_formula_structural   Cr12Fe13Ni29
_chemical_formula_sum   'Cr12 Fe13 Ni29'
_cell_volume   584.51717081
_cell_formula_units_Z   1
loop_
 _symmetry_equiv_pos_site_id
 _symmetry_equiv_pos_as_xyz
  1  'x, y, z'
loop_
 _atom_site_type_symbol
 _atom_site_label
 _atom_site_symmetry_multiplicity
 _atom_site_fract_x
 _atom_site_fract_y
 _atom_site_fract_z
 _atom_site_occupancy
  Fe  Fe0  1  1.00091966  0.00573861  0.00415634  1
  Ni  Ni1  1  0.17008337  0.16964512  0.16584232  1
  Cr  Cr2  1  0.00246436  1.00109221  0.33358787  1
  Ni  Ni3  1  0.00149285  0.33528198  0.00127507  1
  Ni  Ni4  1  0.16993391  0.49911021  0.16786838  1
  Cr  Cr5  1  0.99992439  0.33727272  0.33590855  1
  Cr  Cr6  1  0.00290361  0.66548946  0.00537709  1
  Fe  Fe7  1  0.17039803  0.83459394  0.16844471  1
  Ni  Ni8  1  0.00187888  0.66731076  0.33261407  1
  Ni  Ni9  1  0.33434983  1.00017098  0.00317422  1
  Fe  Fe10  1  0.50046756  0.16746146  0.16821859  1
  Ni  Ni11  1  0.33704447  0.99922901  0.33297980  1
  Fe  Fe12  1  0.33445457  0.33347693  1.00105624  1
  Fe  Fe13  1  0.50112566  0.50066067  0.16820754  1
  Ni  Ni14  1  0.33513374  0.33377062  0.33062310  1
  Fe  Fe15  1  0.33778630  0.66561883  0.00329622  1
  Ni  Ni16  1  0.50312517  0.83326449  0.16866389  1
  Ni  Ni17  1  0.33357139  0.66986490  0.33307803  1
  Cr  Cr18  1  0.66407285  0.00241192  0.99957608  1
  Fe  Fe19  1  0.83405220  0.16843090  0.16685152  1
  Ni  Ni20  1  0.66550182  0.00137302  0.33335873  1
  Ni  Ni21  1  0.66822233  0.33469652  0.00169615  1
  Fe  Fe22  1  0.83335735  0.50072796  0.16841714  1
  Ni  Ni23  1  0.66835202  0.33360211  0.33202819  1
  Fe  Fe24  1  0.66564239  0.66639711  0.00195557  1
  Ni  Ni25  1  0.83191556  0.83371802  0.16834175  1
  Fe  Fe26  1  0.66711387  0.66809461  0.33343832  1
  Ni  Ni27  1  0.16793454  0.16755394  0.50121155  1
  Fe  Fe28  1  1.00071630  0.00536317  0.66633460  1
  Ni  Ni29  1  0.16769615  0.16971960  0.83687251  1
  Cr  Cr30  1  0.17009227  0.49999314  0.50274157  1
  Ni  Ni31  1  1.00116915  0.33549604  0.66832813  1
  Ni  Ni32  1  0.17158630  0.49945712  0.83430522  1
  Ni  Ni33  1  0.16901984  0.83399814  0.49826410  1
  Ni  Ni34  1  0.00285944  0.66604099  0.66564634  1
  Cr  Cr35  1  0.16629468  0.83487028  0.83641047  1
  Cr  Cr36  1  0.50068383  0.16891901  0.49654910  1
  Cr  Cr37  1  0.33599720  1.00109815  0.66589843  1
  Ni  Ni38  1  0.50035795  0.17054723  0.83617423  1
  Cr  Cr39  1  0.50234790  0.50040348  0.49969226  1
  Ni  Ni40  1  0.33374362  0.33314443  0.67216863  1
  Ni  Ni41  1  0.49974015  0.49988871  0.83623953  1
  Ni  Ni42  1  0.50143356  0.83369409  0.50032049  1
  Fe  Fe43  1  0.33666067  0.66608804  0.66833416  1
  Fe  Fe44  1  0.49925129  0.83371302  0.83459041  1
  Ni  Ni45  1  0.83278437  0.16929217  0.50313401  1
  Ni  Ni46  1  0.66543933  0.00285482  0.66959241  1
  Ni  Ni47  1  0.83487125  0.16905921  0.83440197  1
  Ni  Ni48  1  0.83329113  0.50138541  0.50117739  1
  Ni  Ni49  1  0.66829816  0.33377073  0.66918278  1
  Cr  Cr50  1  0.83408237  0.50104734  0.83336701  1
  Cr  Cr51  1  0.83305561  0.83452238  0.50266807  1
  Ni  Ni52  1  0.66697393  0.66795332  0.66912619  1
  Cr  Cr53  1  0.83398903  0.83727914  0.83289113  1
" 