7195,Ni54Fe21Cr23_0,-231.084619514097, 191.844695492994,Ni54Fe21Cr23,"# generated using pymatgen
 data_Cr14Fe11Ni29
_symmetry_space_group_name_H-M   'P 1'
_cell_length_a   7.45426728
_cell_length_b   7.45426728
_cell_length_c   10.54192589
_cell_angle_alpha   90.00000000
_cell_angle_beta   90.00000000
_cell_angle_gamma   90.00000000
_symmetry_Int_Tables_number   1
_chemical_formula_structural   Cr14Fe11Ni29
_chemical_formula_sum   'Cr14 Fe11 Ni29'
_cell_volume   585.77371581
_cell_formula_units_Z   1
loop_
 _symmetry_equiv_pos_site_id
 _symmetry_equiv_pos_as_xyz
  1  'x, y, z'
loop_
 _atom_site_type_symbol
 _atom_site_label
 _atom_site_symmetry_multiplicity
 _atom_site_fract_x
 _atom_site_fract_y
 _atom_site_fract_z
 _atom_site_occupancy
  Cr  Cr0  1  1.00051309  1.00040908  1.00043017  1
  Fe  Fe1  1  0.16588377  0.16707615  0.16844953  1
  Ni  Ni2  1  0.00205096  0.99995183  0.33400667  1
  Ni  Ni3  1  0.99980784  0.33393012  0.99961017  1
  Fe  Fe4  1  0.16677696  0.50176345  0.16750366  1
  Ni  Ni5  1  0.00228855  0.33422820  0.33454803  1
  Ni  Ni6  1  0.00311552  0.66837286  0.00097873  1
  Ni  Ni7  1  0.16765339  0.83234593  0.16600209  1
  Ni  Ni8  1  0.99989873  0.66839037  0.33464210  1
  Fe  Fe9  1  0.33418324  0.99907611  0.00247678  1
  Ni  Ni10  1  0.50233978  0.16775868  0.16676539  1
  Cr  Cr11  1  0.33223325  0.00267778  0.33392063  1
  Cr  Cr12  1  0.33445615  0.33435152  0.00351534  1
  Fe  Fe13  1  0.50121189  0.50071895  0.16809593  1
  Fe  Fe14  1  0.33382784  0.33393386  0.33522111  1
  Ni  Ni15  1  0.33254694  0.66892851  0.00112071  1
  Ni  Ni16  1  0.50013512  0.83542752  0.16530277  1
  Cr  Cr17  1  0.33448842  0.66685438  0.33517731  1
  Ni  Ni18  1  0.66768015  0.00224966  0.00225338  1
  Ni  Ni19  1  0.83259583  0.16874247  0.16629188  1
  Cr  Cr20  1  0.66837952  0.99959913  0.33367072  1
  Ni  Ni21  1  0.66823382  0.33247181  1.00017394  1
  Cr  Cr22  1  0.83629873  0.49994595  0.16897491  1
  Ni  Ni23  1  0.66619422  0.33612444  0.33392391  1
  Cr  Cr24  1  0.66773401  0.66767840  1.00082986  1
  Ni  Ni25  1  0.83478412  0.83446352  0.16877701  1
  Ni  Ni26  1  0.66872161  0.66636245  0.33536753  1
  Ni  Ni27  1  0.16833574  0.17032385  0.50062860  1
  Ni  Ni28  1  0.00112373  0.00091434  0.66820988  1
  Ni  Ni29  1  0.16550718  0.16786267  0.83314040  1
  Ni  Ni30  1  0.16764267  0.49947617  0.50053924  1
  Fe  Fe31  1  0.00104481  0.33186427  0.66766662  1
  Cr  Cr32  1  0.16618278  0.50139751  0.83496881  1
  Ni  Ni33  1  0.16636465  0.83277191  0.50153895  1
  Cr  Cr34  1  0.00108120  0.66995589  0.66700632  1
  Ni  Ni35  1  0.16662217  0.83383426  0.83503021  1
  Ni  Ni36  1  0.50026357  0.16974303  0.50162953  1
  Cr  Cr37  1  0.33139486  0.00167923  0.66587823  1
  Cr  Cr38  1  0.50291699  0.16774553  0.83407248  1
  Fe  Fe39  1  0.50042557  0.49936391  0.50098283  1
  Ni  Ni40  1  0.33494430  0.33459981  0.66479339  1
  Fe  Fe41  1  0.50149815  0.50015960  0.83349448  1
  Ni  Ni42  1  0.50190754  0.83368306  0.50176942  1
  Fe  Fe43  1  0.33423647  0.66668349  0.66609204  1
  Cr  Cr44  1  0.49986583  0.83484197  0.83541878  1
  Cr  Cr45  1  0.83399580  0.16785982  0.50216888  1
  Ni  Ni46  1  0.66963871  0.00182078  0.66674249  1
  Fe  Fe47  1  0.83529636  0.16772991  0.83392232  1
  Fe  Fe48  1  0.83443443  0.50113736  0.49899823  1
  Ni  Ni49  1  0.66566640  0.33430565  0.66847535  1
  Ni  Ni50  1  0.83455591  0.49833376  0.83501603  1
  Ni  Ni51  1  0.83430184  0.83298663  0.49934442  1
  Cr  Cr52  1  0.66749926  0.66679025  0.66628391  1
  Ni  Ni53  1  0.83551107  0.83459368  0.83444934  1
" 