5097,Ni54Fe46_6,-240.155381251315, 226.087054335836,Ni54Fe46,"# generated using pymatgen
 data_Fe29Ni25
_symmetry_space_group_name_H-M   'P 1'
_cell_length_a   7.39336930
_cell_length_b   7.39336930
_cell_length_c   10.45580314
_cell_angle_alpha   90.00000000
_cell_angle_beta   90.00000000
_cell_angle_gamma   90.00000000
_symmetry_Int_Tables_number   1
_chemical_formula_structural   Fe29Ni25
_chemical_formula_sum   'Fe29 Ni25'
_cell_volume   571.53416659
_cell_formula_units_Z   1
loop_
 _symmetry_equiv_pos_site_id
 _symmetry_equiv_pos_as_xyz
  1  'x, y, z'
loop_
 _atom_site_type_symbol
 _atom_site_label
 _atom_site_symmetry_multiplicity
 _atom_site_fract_x
 _atom_site_fract_y
 _atom_site_fract_z
 _atom_site_occupancy
  Ni  Ni0  1  1.00497448  1.00458667  1.00468876  1
  Ni  Ni1  1  0.17138950  0.17117421  0.17209538  1
  Ni  Ni2  1  0.00527498  0.00632975  0.33833627  1
  Fe  Fe3  1  0.00561348  0.33703584  0.00527301  1
  Ni  Ni4  1  0.17259987  0.50479078  0.17078800  1
  Ni  Ni5  1  0.00527281  0.33697068  0.33838246  1
  Fe  Fe6  1  0.00560476  0.67285420  1.00453458  1
  Ni  Ni7  1  0.17053419  0.83898543  0.17223635  1
  Fe  Fe8  1  0.00532145  0.67164929  0.33830564  1
  Ni  Ni9  1  0.33829418  0.00505060  0.00557956  1
  Fe  Fe10  1  0.50386102  0.17145073  0.17126665  1
  Fe  Fe11  1  0.33763665  1.00490247  0.33807133  1
  Ni  Ni12  1  0.33867574  0.33892982  1.00495396  1
  Ni  Ni13  1  0.50490240  0.50477486  0.17184378  1
  Fe  Fe14  1  0.33755354  0.33889882  0.33774212  1
  Fe  Fe15  1  0.33839875  0.67263395  0.00539233  1
  Fe  Fe16  1  0.50416133  0.83772962  0.17132186  1
  Ni  Ni17  1  0.33988989  0.67127851  0.33773813  1
  Ni  Ni18  1  0.67167701  1.00420583  1.00497409  1
  Fe  Fe19  1  0.83972915  0.17121947  0.17213988  1
  Fe  Fe20  1  0.67228302  1.00460681  0.33819453  1
  Fe  Fe21  1  0.67085540  0.33745928  1.00403571  1
  Fe  Fe22  1  0.83921824  0.50548712  0.17157651  1
  Fe  Fe23  1  0.67177991  0.33860692  0.33918136  1
  Fe  Fe24  1  0.67094582  0.67234393  0.00526747  1
  Ni  Ni25  1  0.83867219  0.83898261  0.17100577  1
  Ni  Ni26  1  0.66978416  0.67127448  0.33860991  1
  Ni  Ni27  1  0.17098532  0.17212357  0.50520139  1
  Ni  Ni28  1  0.00527091  0.00498812  0.67192511  1
  Fe  Fe29  1  0.17201244  0.17143204  0.83869238  1
  Ni  Ni30  1  0.17135520  0.50474461  0.50546298  1
  Ni  Ni31  1  1.00442701  0.33810611  0.67214017  1
  Fe  Fe32  1  0.17193194  0.50585273  0.83794179  1
  Fe  Fe33  1  0.17139571  0.83938541  0.50522448  1
  Ni  Ni34  1  0.00526947  0.67185427  0.67061699  1
  Ni  Ni35  1  0.17182424  0.83928831  0.83832475  1
  Ni  Ni36  1  0.50573285  0.17164916  0.50514125  1
  Fe  Fe37  1  0.33748588  0.00539549  0.67214243  1
  Fe  Fe38  1  0.50506200  0.17165076  0.83832464  1
  Fe  Fe39  1  0.50476989  0.50378802  0.50461140  1
  Fe  Fe40  1  0.33741162  0.33831496  0.67164152  1
  Ni  Ni41  1  0.50627548  0.50522810  0.83745168  1
  Fe  Fe42  1  0.50448866  0.83888793  0.50497721  1
  Fe  Fe43  1  0.33732571  0.67124142  0.67157717  1
  Ni  Ni44  1  0.50459105  0.83807081  0.83889035  1
  Ni  Ni45  1  0.83822919  0.17127503  0.50499011  1
  Fe  Fe46  1  0.67276456  0.00569317  0.67176930  1
  Fe  Fe47  1  0.83787183  0.17144530  0.83753041  1
  Fe  Fe48  1  0.83886387  0.50320103  0.50592953  1
  Ni  Ni49  1  0.67133998  0.33886390  0.67153523  1
  Ni  Ni50  1  0.83731967  0.50438431  0.83833080  1
  Fe  Fe51  1  0.83906564  0.83939223  0.50432320  1
  Fe  Fe52  1  0.67292616  0.67094171  0.67194747  1
  Fe  Fe53  1  0.83816715  0.83765618  0.83888819  1
" 