3503,Ni54Fe7Cr38_19,-223.823273074309, 155.561840661462,Ni54Fe7Cr38,"# generated using pymatgen
 data_Cr22Fe3Ni29
_symmetry_space_group_name_H-M   'P 1'
_cell_length_a   7.49094829
_cell_length_b   7.49094829
_cell_length_c   10.59380067
_cell_angle_alpha   90.00000000
_cell_angle_beta   90.00000000
_cell_angle_gamma   90.00000000
_symmetry_Int_Tables_number   1
_chemical_formula_structural   Cr22Fe3Ni29
_chemical_formula_sum   'Cr22 Fe3 Ni29'
_cell_volume   594.46377647
_cell_formula_units_Z   1
loop_
 _symmetry_equiv_pos_site_id
 _symmetry_equiv_pos_as_xyz
  1  'x, y, z'
loop_
 _atom_site_type_symbol
 _atom_site_label
 _atom_site_symmetry_multiplicity
 _atom_site_fract_x
 _atom_site_fract_y
 _atom_site_fract_z
 _atom_site_occupancy
  Cr  Cr0  1  0.99637429  0.99576243  0.00012788  1
  Cr  Cr1  1  0.16464903  0.16508666  0.16380811  1
  Cr  Cr2  1  -0.00052945  0.99696961  0.33137768  1
  Ni  Ni3  1  0.99540098  0.33292848  -0.00130370  1
  Cr  Cr4  1  0.16402916  0.49724186  0.16470687  1
  Ni  Ni5  1  0.99597864  0.33275208  0.33307461  1
  Ni  Ni6  1  0.99583806  0.66458901  0.00057198  1
  Ni  Ni7  1  0.16643256  0.83070448  0.16681182  1
  Ni  Ni8  1  0.99817685  0.66377356  0.33035210  1
  Ni  Ni9  1  0.33359504  0.99686950  -0.00114509  1
  Cr  Cr10  1  0.49693394  0.16536705  0.16693989  1
  Ni  Ni11  1  0.33076489  0.99717648  0.33221223  1
  Fe  Fe12  1  0.33345153  0.33160518  -0.00081579  1
  Ni  Ni13  1  0.50023239  0.50072755  0.16727690  1
  Ni  Ni14  1  0.33259027  0.33154647  0.33202771  1
  Cr  Cr15  1  0.33308271  0.66775508  -0.00118522  1
  Ni  Ni16  1  0.49803481  0.82930922  0.16583812  1
  Ni  Ni17  1  0.33121846  0.66643135  0.33116383  1
  Cr  Cr18  1  0.66429921  0.99685257  0.99760747  1
  Ni  Ni19  1  0.83278599  0.16804027  0.16593821  1
  Cr  Cr20  1  0.66576320  -0.00017521  0.32997608  1
  Cr  Cr21  1  0.66578244  0.33249166  -0.00030186  1
  Ni  Ni22  1  0.83087348  0.49917041  0.16665962  1
  Ni  Ni23  1  0.66691650  0.33389015  0.33216962  1
  Ni  Ni24  1  0.66621430  0.66591302  0.00004461  1
  Ni  Ni25  1  0.83088350  0.82793495  0.16456678  1
  Ni  Ni26  1  0.66588732  0.66213222  0.32806268  1
  Ni  Ni27  1  0.16324153  0.16491875  0.49724434  1
  Ni  Ni28  1  0.99687102  0.00037851  0.66442472  1
  Cr  Cr29  1  0.16291725  0.16619968  0.83521027  1
  Cr  Cr30  1  0.16416751  0.49806736  0.49747925  1
  Ni  Ni31  1  0.99724535  0.32890175  0.66356355  1
  Cr  Cr32  1  0.16371948  0.49670253  0.83300743  1
  Ni  Ni33  1  0.16587932  0.83373940  0.49673730  1
  Cr  Cr34  1  -0.00129508  0.66536788  0.66373362  1
  Cr  Cr35  1  0.16345160  0.83220935  0.83110577  1
  Fe  Fe36  1  0.49882802  0.16477206  0.49646801  1
  Cr  Cr37  1  0.33160788  -0.00126179  0.66377007  1
  Ni  Ni38  1  0.49892819  0.16214522  0.83208720  1
  Cr  Cr39  1  0.50130124  0.50086733  0.49598305  1
  Cr  Cr40  1  0.33160603  0.33121358  0.66535556  1
  Cr  Cr41  1  0.49901033  0.50079300  0.83185271  1
  Cr  Cr42  1  0.49993271  0.83109395  0.49794182  1
  Fe  Fe43  1  0.33274912  0.66672837  0.66435430  1
  Ni  Ni44  1  0.50137712  0.83290757  0.83074708  1
  Ni  Ni45  1  0.83369278  0.16663898  0.49974446  1
  Ni  Ni46  1  0.66625431  -0.00154198  0.66788780  1
  Ni  Ni47  1  0.83192974  0.16323253  0.82959078  1
  Ni  Ni48  1  0.83141798  0.49679250  0.49632975  1
  Cr  Cr49  1  0.66634293  0.32991805  0.66329954  1
  Cr  Cr50  1  0.83287120  0.49973967  0.83180096  1
  Cr  Cr51  1  0.83026424  0.83097842  0.49968301  1
  Ni  Ni52  1  0.66529320  0.66666875  0.66691407  1
  Ni  Ni53  1  0.82858845  0.83283602  0.83097398  1
" 