5367,Ni54Fe7Cr38_3,-223.793497979906, 150.742262349379,Ni54Fe7Cr38,"# generated using pymatgen
 data_Cr22Fe3Ni29
_symmetry_space_group_name_H-M   'P 1'
_cell_length_a   7.49904138
_cell_length_b   7.49904138
_cell_length_c   10.60524602
_cell_angle_alpha   90.00000000
_cell_angle_beta   90.00000000
_cell_angle_gamma   90.00000000
_symmetry_Int_Tables_number   1
_chemical_formula_structural   Cr22Fe3Ni29
_chemical_formula_sum   'Cr22 Fe3 Ni29'
_cell_volume   596.39260257
_cell_formula_units_Z   1
loop_
 _symmetry_equiv_pos_site_id
 _symmetry_equiv_pos_as_xyz
  1  'x, y, z'
loop_
 _atom_site_type_symbol
 _atom_site_label
 _atom_site_symmetry_multiplicity
 _atom_site_fract_x
 _atom_site_fract_y
 _atom_site_fract_z
 _atom_site_occupancy
  Cr  Cr0  1  0.99401224  -0.00121097  -0.00105236  1
  Cr  Cr1  1  0.16629831  0.16549433  0.16249032  1
  Ni  Ni2  1  0.99763336  0.99770397  0.33038511  1
  Ni  Ni3  1  0.99326924  0.33091647  -0.00180923  1
  Cr  Cr4  1  0.16556293  0.49625248  0.16428821  1
  Cr  Cr5  1  0.99386872  0.33133640  0.33110598  1
  Cr  Cr6  1  0.99233340  0.66417550  0.99763744  1
  Cr  Cr7  1  0.16510812  0.83178615  0.16738123  1
  Ni  Ni8  1  0.99726410  0.66298536  0.33171374  1
  Ni  Ni9  1  0.33721541  -0.00017235  0.99769538  1
  Ni  Ni10  1  0.49898955  0.16516642  0.16261285  1
  Ni  Ni11  1  0.33306514  -0.00087146  0.32981413  1
  Ni  Ni12  1  0.33572743  0.32964216  -0.00133089  1
  Ni  Ni13  1  0.49970379  0.49632046  0.16342239  1
  Fe  Fe14  1  0.33328538  0.33070919  0.33109287  1
  Cr  Cr15  1  0.33620166  0.66665338  0.99710783  1
  Ni  Ni16  1  0.49982905  0.83210140  0.16273547  1
  Fe  Fe17  1  0.33251508  0.66340302  0.33093289  1
  Ni  Ni18  1  0.66265563  -0.00207381  -0.00172719  1
  Ni  Ni19  1  0.82861198  0.16481856  0.16283759  1
  Cr  Cr20  1  0.66452343  0.00085475  0.32912718  1
  Ni  Ni21  1  0.66431211  0.33082065  -0.00185943  1
  Ni  Ni22  1  0.82877625  0.49751028  0.16166419  1
  Cr  Cr23  1  0.66463057  0.33113656  0.33241013  1
  Ni  Ni24  1  0.66403845  0.66475061  -0.00157137  1
  Ni  Ni25  1  0.82874104  0.83105675  0.16477790  1
  Cr  Cr26  1  0.66537494  0.66175006  0.32799417  1
  Cr  Cr27  1  0.16407914  0.16322505  0.49644478  1
  Ni  Ni28  1  0.99348709  0.99781689  0.66476996  1
  Cr  Cr29  1  0.16444620  0.16584580  0.83502825  1
  Ni  Ni30  1  0.16440029  0.49940495  0.49571889  1
  Cr  Cr31  1  0.99425618  0.33153123  0.66443139  1
  Cr  Cr32  1  0.16411940  0.49578335  0.83298323  1
  Cr  Cr33  1  0.16273531  0.83037581  0.49691877  1
  Ni  Ni34  1  0.99578288  0.66369564  0.66396327  1
  Cr  Cr35  1  0.16256180  0.83200540  0.82943247  1
  Ni  Ni36  1  0.50051831  0.16652946  0.49835484  1
  Cr  Cr37  1  0.33499256  -0.00084814  0.66765981  1
  Ni  Ni38  1  0.50355237  0.16600567  0.83289327  1
  Ni  Ni39  1  0.49790334  0.49501370  0.49674614  1
  Cr  Cr40  1  0.33508860  0.33153463  0.66297516  1
  Ni  Ni41  1  0.50173623  0.49499679  0.83300660  1
  Cr  Cr42  1  0.49960528  0.83253693  0.49738041  1
  Cr  Cr43  1  0.33182523  0.66282448  0.66473225  1
  Ni  Ni44  1  0.50427388  0.83274826  0.83350920  1
  Ni  Ni45  1  0.82887272  0.16453722  0.49987873  1
  Ni  Ni46  1  0.66582942  0.00170085  0.66602474  1
  Ni  Ni47  1  0.82642972  0.16383209  0.83108851  1
  Ni  Ni48  1  0.83122169  0.49748158  0.49978005  1
  Ni  Ni49  1  0.66445134  0.32936839  0.66378736  1
  Fe  Fe50  1  0.82668133  0.49598083  0.83227830  1
  Cr  Cr51  1  0.83130971  0.83275597  0.49857682  1
  Cr  Cr52  1  0.66401394  0.66219987  0.66645777  1
  Ni  Ni53  1  0.82708640  0.83290872  0.83011020  1
" 