3192,Ni54Fe25Cr19_13,-233.051779012882, 198.694344146933,Ni54Fe25Cr19,"# generated using pymatgen
 data_Cr12Fe13Ni29
_symmetry_space_group_name_H-M   'P 1'
_cell_length_a   7.44702407
_cell_length_b   7.44702407
_cell_length_c   10.53168244
_cell_angle_alpha   90.00000000
_cell_angle_beta   90.00000000
_cell_angle_gamma   90.00000000
_symmetry_Int_Tables_number   1
_chemical_formula_structural   Cr12Fe13Ni29
_chemical_formula_sum   'Cr12 Fe13 Ni29'
_cell_volume   584.06780895
_cell_formula_units_Z   1
loop_
 _symmetry_equiv_pos_site_id
 _symmetry_equiv_pos_as_xyz
  1  'x, y, z'
loop_
 _atom_site_type_symbol
 _atom_site_label
 _atom_site_symmetry_multiplicity
 _atom_site_fract_x
 _atom_site_fract_y
 _atom_site_fract_z
 _atom_site_occupancy
  Cr  Cr0  1  0.00259848  0.99994387  0.00155914  1
  Ni  Ni1  1  0.16744725  0.17122981  0.16806214  1
  Fe  Fe2  1  1.00044091  1.00038264  0.33415134  1
  Ni  Ni3  1  0.00216015  0.33628731  0.00178289  1
  Ni  Ni4  1  0.16846229  0.50072152  0.16689619  1
  Ni  Ni5  1  0.00344811  0.33443284  0.33367356  1
  Ni  Ni6  1  0.00193900  0.66799172  0.00255190  1
  Ni  Ni7  1  0.16624708  0.83208207  0.16765706  1
  Fe  Fe8  1  0.99968894  0.66849118  0.33345788  1
  Cr  Cr9  1  0.33510434  0.00138396  1.00103746  1
  Fe  Fe10  1  0.50062535  0.16948062  0.16821329  1
  Cr  Cr11  1  0.33490149  0.00287646  0.33510173  1
  Ni  Ni12  1  0.33548608  0.33472066  0.00312529  1
  Ni  Ni13  1  0.49965609  0.50025122  0.16804570  1
  Ni  Ni14  1  0.33412521  0.33392052  0.33431483  1
  Ni  Ni15  1  0.33401590  0.66786851  0.00256804  1
  Ni  Ni16  1  0.50292185  0.83360066  0.16731644  1
  Cr  Cr17  1  0.33601739  0.66655501  0.33377202  1
  Fe  Fe18  1  0.66652169  0.00165655  0.00187828  1
  Cr  Cr19  1  0.83361447  0.16799649  0.16943628  1
  Ni  Ni20  1  0.66866689  0.99895921  0.33385634  1
  Ni  Ni21  1  0.66638655  0.33514439  1.00112587  1
  Fe  Fe22  1  0.83600946  0.50247131  0.16877908  1
  Ni  Ni23  1  0.66645888  0.33517628  0.33415954  1
  Cr  Cr24  1  0.66785599  0.66741918  1.00103313  1
  Ni  Ni25  1  0.83486318  0.83461187  0.16988225  1
  Ni  Ni26  1  0.66918397  0.66989807  0.33449873  1
  Fe  Fe27  1  0.17011722  0.17011401  0.50081827  1
  Cr  Cr28  1  0.00410068  1.00038316  0.66755237  1
  Fe  Fe29  1  0.17095500  0.16959935  0.83443578  1
  Fe  Fe30  1  0.16942576  0.50040765  0.50228889  1
  Ni  Ni31  1  0.00333394  0.33569025  0.66857685  1
  Cr  Cr32  1  0.16875404  0.50292200  0.83524427  1
  Fe  Fe33  1  0.16798917  0.83351031  0.50283615  1
  Ni  Ni34  1  1.00122600  0.66874523  0.66804669  1
  Ni  Ni35  1  0.16827879  0.83261344  0.83390317  1
  Ni  Ni36  1  0.50016180  0.16976818  0.50103552  1
  Fe  Fe37  1  0.33502768  0.00136624  0.66808124  1
  Ni  Ni38  1  0.50185462  0.17019093  0.83514842  1
  Ni  Ni39  1  0.49980581  0.50048927  0.50290992  1
  Ni  Ni40  1  0.33558432  0.33406041  0.66659291  1
  Ni  Ni41  1  0.50141875  0.49990623  0.83307501  1
  Ni  Ni42  1  0.50201237  0.83377676  0.50316612  1
  Ni  Ni43  1  0.33592803  0.66861417  0.66741378  1
  Fe  Fe44  1  0.49980686  0.83337634  0.83375450  1
  Cr  Cr45  1  0.83378401  0.16797816  0.49935110  1
  Cr  Cr46  1  0.66543775  0.99950929  0.66835595  1
  Cr  Cr47  1  0.83318890  0.17057084  0.83524302  1
  Cr  Cr48  1  0.83416236  0.50196688  0.50212919  1
  Ni  Ni49  1  0.66512122  0.33740608  0.66874979  1
  Fe  Fe50  1  0.83382274  0.50161200  0.83349909  1
  Ni  Ni51  1  0.83483536  0.83392936  0.49975588  1
  Ni  Ni52  1  0.66687750  0.66736989  0.66833795  1
  Fe  Fe53  1  0.83473985  0.83116717  0.83435928  1
" 