606,Ni54Fe46_8,-239.671279014055, 221.132431491501,Ni54Fe46,"# generated using pymatgen
 data_Fe29Ni25
_symmetry_space_group_name_H-M   'P 1'
_cell_length_a   7.39218033
_cell_length_b   7.39218033
_cell_length_c   10.45412167
_cell_angle_alpha   90.00000000
_cell_angle_beta   90.00000000
_cell_angle_gamma   90.00000000
_symmetry_Int_Tables_number   1
_chemical_formula_structural   Fe29Ni25
_chemical_formula_sum   'Fe29 Ni25'
_cell_volume   571.25847414
_cell_formula_units_Z   1
loop_
 _symmetry_equiv_pos_site_id
 _symmetry_equiv_pos_as_xyz
  1  'x, y, z'
loop_
 _atom_site_type_symbol
 _atom_site_label
 _atom_site_symmetry_multiplicity
 _atom_site_fract_x
 _atom_site_fract_y
 _atom_site_fract_z
 _atom_site_occupancy
  Fe  Fe0  1  0.00587257  1.00394152  0.00548872  1
  Ni  Ni1  1  0.17279595  0.17110630  0.17084470  1
  Fe  Fe2  1  0.00533920  1.00494504  0.33804547  1
  Fe  Fe3  1  0.00518421  0.33959349  1.00441104  1
  Fe  Fe4  1  0.17219703  0.50538134  0.17118474  1
  Fe  Fe5  1  1.00464203  0.33804743  0.33912998  1
  Ni  Ni6  1  1.00487988  0.67261249  1.00506141  1
  Ni  Ni7  1  0.17123168  0.83874028  0.17189262  1
  Fe  Fe8  1  1.00445653  0.67219602  0.33824587  1
  Fe  Fe9  1  0.33832288  1.00414613  1.00498863  1
  Ni  Ni10  1  0.50436812  0.17261170  0.17227858  1
  Fe  Fe11  1  0.33878008  0.00513388  0.33847197  1
  Ni  Ni12  1  0.33813353  0.33776701  0.00565868  1
  Fe  Fe13  1  0.50417845  0.50517767  0.17207436  1
  Fe  Fe14  1  0.33940088  0.33778594  0.33824789  1
  Ni  Ni15  1  0.33813701  0.67145269  1.00408621  1
  Fe  Fe16  1  0.50475410  0.83893678  0.17180994  1
  Ni  Ni17  1  0.33766333  0.67196225  0.33866928  1
  Fe  Fe18  1  0.67099559  1.00449275  0.00533162  1
  Fe  Fe19  1  0.83846704  0.17064574  0.17188939  1
  Ni  Ni20  1  0.67209588  0.00591585  0.33849974  1
  Fe  Fe21  1  0.67133297  0.33939807  0.00521503  1
  Fe  Fe22  1  0.83881494  0.50518385  0.17153791  1
  Ni  Ni23  1  0.67173012  0.33656961  0.33883970  1
  Ni  Ni24  1  0.67217324  0.67298046  0.00603570  1
  Ni  Ni25  1  0.83917049  0.83687597  0.17139549  1
  Fe  Fe26  1  0.67133810  0.67157262  0.33893958  1
  Ni  Ni27  1  0.17163370  0.17082468  0.50532115  1
  Fe  Fe28  1  0.00568357  0.00521533  0.67165659  1
  Fe  Fe29  1  0.17192890  0.17207720  0.83805057  1
  Fe  Fe30  1  0.17226526  0.50544823  0.50545389  1
  Ni  Ni31  1  0.00621423  0.33823351  0.67182347  1
  Fe  Fe32  1  0.17179619  0.50484153  0.83855032  1
  Ni  Ni33  1  0.17242249  0.83939772  0.50464798  1
  Ni  Ni34  1  1.00427302  0.67182403  0.67152848  1
  Ni  Ni35  1  0.17260879  0.83794980  0.83864804  1
  Fe  Fe36  1  0.50486772  0.17192221  0.50471582  1
  Fe  Fe37  1  0.33778694  1.00459741  0.67172937  1
  Ni  Ni38  1  0.50547560  0.17182844  0.83775406  1
  Ni  Ni39  1  0.50711415  0.50539738  0.50561118  1
  Ni  Ni40  1  0.33763083  0.33745138  0.67092749  1
  Fe  Fe41  1  0.50518685  0.50518356  0.83828499  1
  Ni  Ni42  1  0.50409898  0.83746232  0.50425337  1
  Fe  Fe43  1  0.33813488  0.67169650  0.67130186  1
  Ni  Ni44  1  0.50353636  0.83837713  0.83930111  1
  Fe  Fe45  1  0.83821243  0.17177959  0.50517824  1
  Fe  Fe46  1  0.67171906  0.00520918  0.67181490  1
  Ni  Ni47  1  0.83789599  0.17412269  0.83891843  1
  Ni  Ni48  1  0.83716442  0.50460479  0.50469178  1
  Fe  Fe49  1  0.67262038  0.33952781  0.67146541  1
  Ni  Ni50  1  0.83832002  0.50420333  0.83885650  1
  Fe  Fe51  1  0.83812626  0.83788751  0.50464236  1
  Ni  Ni52  1  0.67249816  0.67298854  0.67103930  1
  Fe  Fe53  1  0.83778238  0.83822871  0.83901246  1
" 