8179,Ni54Fe25Cr19_14,-232.59881077624, 191.910826479695,Ni54Fe25Cr19,"# generated using pymatgen
 data_Cr12Fe13Ni29
_symmetry_space_group_name_H-M   'P 1'
_cell_length_a   7.44356605
_cell_length_b   7.44356605
_cell_length_c   10.52679206
_cell_angle_alpha   90.00000000
_cell_angle_beta   90.00000000
_cell_angle_gamma   90.00000000
_symmetry_Int_Tables_number   1
_chemical_formula_structural   Cr12Fe13Ni29
_chemical_formula_sum   'Cr12 Fe13 Ni29'
_cell_volume   583.25455190
_cell_formula_units_Z   1
loop_
 _symmetry_equiv_pos_site_id
 _symmetry_equiv_pos_as_xyz
  1  'x, y, z'
loop_
 _atom_site_type_symbol
 _atom_site_label
 _atom_site_symmetry_multiplicity
 _atom_site_fract_x
 _atom_site_fract_y
 _atom_site_fract_z
 _atom_site_occupancy
  Fe  Fe0  1  0.00246396  0.00285323  1.00150169  1
  Ni  Ni1  1  0.16705588  0.17045218  0.16728486  1
  Fe  Fe2  1  1.00065786  0.00211190  0.33571674  1
  Ni  Ni3  1  0.00352014  0.33888524  1.00022874  1
  Ni  Ni4  1  0.16879138  0.49947827  0.16966795  1
  Ni  Ni5  1  0.00165262  0.33818267  0.33629103  1
  Ni  Ni6  1  0.99951653  0.66633885  0.00214426  1
  Fe  Fe7  1  0.16848713  0.83318280  0.17110489  1
  Ni  Ni8  1  1.00056421  0.66641946  0.33463629  1
  Cr  Cr9  1  0.33771215  0.00285421  0.00433826  1
  Fe  Fe10  1  0.50122642  0.16816132  0.17047643  1
  Ni  Ni11  1  0.33794614  0.00178894  0.33225308  1
  Ni  Ni12  1  0.33223890  0.33557339  0.00303888  1
  Ni  Ni13  1  0.49998109  0.50303480  0.16989440  1
  Ni  Ni14  1  0.33548708  0.33474446  0.33244859  1
  Cr  Cr15  1  0.33432691  0.66610556  0.00287077  1
  Ni  Ni16  1  0.50239423  0.83237713  0.16989641  1
  Ni  Ni17  1  0.33564760  0.66738107  0.33463270  1
  Ni  Ni18  1  0.66824814  0.99820304  1.00009607  1
  Cr  Cr19  1  0.83653647  0.16957291  0.17033894  1
  Ni  Ni20  1  0.66590826  1.00066696  0.33854735  1
  Cr  Cr21  1  0.66574730  0.33682629  0.00550438  1
  Fe  Fe22  1  0.83633068  0.50220223  0.16989374  1
  Ni  Ni23  1  0.66731921  0.33565432  0.33615934  1
  Fe  Fe24  1  0.66719855  0.66766215  1.00104882  1
  Cr  Cr25  1  0.83356765  0.83483042  0.16718611  1
  Ni  Ni26  1  0.66868317  0.66801045  0.33445662  1
  Cr  Cr27  1  0.16799191  0.16956049  0.50079786  1
  Cr  Cr28  1  0.99933053  0.99844669  0.66774699  1
  Fe  Fe29  1  0.16960069  0.17103197  0.83574218  1
  Fe  Fe30  1  0.16734311  0.50305651  0.49900171  1
  Fe  Fe31  1  0.99787387  0.33743282  0.66695597  1
  Fe  Fe32  1  0.16711698  0.50150360  0.83545898  1
  Cr  Cr33  1  0.17132210  0.83330105  0.49729754  1
  Ni  Ni34  1  1.00014512  0.66432355  0.66745836  1
  Cr  Cr35  1  0.16888755  0.83475541  0.83440241  1
  Fe  Fe36  1  0.50364394  0.16790494  0.50084549  1
  Ni  Ni37  1  0.33775249  1.00125174  0.66801336  1
  Cr  Cr38  1  0.50318216  0.16880740  0.83411080  1
  Ni  Ni39  1  0.50270919  0.50380205  0.50037239  1
  Cr  Cr40  1  0.33527047  0.33753563  0.66865348  1
  Ni  Ni41  1  0.50264293  0.50369840  0.83486225  1
  Ni  Ni42  1  0.50326258  0.83219333  0.50255729  1
  Fe  Fe43  1  0.33816368  0.66905930  0.66715821  1
  Ni  Ni44  1  0.50252256  0.83215565  0.83261903  1
  Ni  Ni45  1  0.83348952  0.16989248  0.50095458  1
  Ni  Ni46  1  0.66631948  0.99974154  0.66616530  1
  Cr  Cr47  1  0.83633048  0.16991276  0.83457215  1
  Ni  Ni48  1  0.83260447  0.50150529  0.49987334  1
  Ni  Ni49  1  0.66846181  0.33724619  0.66530341  1
  Ni  Ni50  1  0.83459372  0.50175670  0.83576098  1
  Ni  Ni51  1  0.83284369  0.83327568  0.50183949  1
  Ni  Ni52  1  0.67087887  0.66719492  0.66972520  1
  Fe  Fe53  1  0.83168097  0.83127415  0.83526842  1
" 