1551,Ni54Fe46_0,-240.284078818903, 219.888178830334,Ni54Fe46,"# generated using pymatgen
 data_Fe29Ni25
_symmetry_space_group_name_H-M   'P 1'
_cell_length_a   7.40244434
_cell_length_b   7.40244434
_cell_length_c   10.46863718
_cell_angle_alpha   90.00000000
_cell_angle_beta   90.00000000
_cell_angle_gamma   90.00000000
_symmetry_Int_Tables_number   1
_chemical_formula_structural   Fe29Ni25
_chemical_formula_sum   'Fe29 Ni25'
_cell_volume   573.64135078
_cell_formula_units_Z   1
loop_
 _symmetry_equiv_pos_site_id
 _symmetry_equiv_pos_as_xyz
  1  'x, y, z'
loop_
 _atom_site_type_symbol
 _atom_site_label
 _atom_site_symmetry_multiplicity
 _atom_site_fract_x
 _atom_site_fract_y
 _atom_site_fract_z
 _atom_site_occupancy
  Fe  Fe0  1  1.00330461  1.00347789  0.00473111  1
  Ni  Ni1  1  0.17133105  0.17176430  0.17073291  1
  Fe  Fe2  1  0.00509945  0.00481445  0.33762738  1
  Fe  Fe3  1  1.00358152  0.33885330  0.00509612  1
  Ni  Ni4  1  0.17049267  0.50453826  0.17150829  1
  Fe  Fe5  1  0.00479899  0.33718031  0.33748387  1
  Ni  Ni6  1  1.00384872  0.67132811  0.00493692  1
  Ni  Ni7  1  0.17132922  0.83679059  0.17139872  1
  Fe  Fe8  1  0.00520675  0.67109817  0.33711554  1
  Fe  Fe9  1  0.33819055  1.00387812  0.00528986  1
  Ni  Ni10  1  0.50497568  0.17093579  0.17232124  1
  Ni  Ni11  1  0.33712982  0.00608020  0.33805873  1
  Fe  Fe12  1  0.33821232  0.33875129  0.00455031  1
  Fe  Fe13  1  0.50495685  0.50429220  0.17061845  1
  Ni  Ni14  1  0.33712041  0.33568833  0.33734370  1
  Fe  Fe15  1  0.33766748  0.67046121  1.00405556  1
  Ni  Ni16  1  0.50463476  0.83796465  0.17002342  1
  Fe  Fe17  1  0.33808251  0.67169402  0.33778167  1
  Fe  Fe18  1  0.67159659  1.00402574  1.00407846  1
  Ni  Ni19  1  0.83677989  0.17177343  0.17073036  1
  Fe  Fe20  1  0.67001753  0.00440942  0.33798322  1
  Ni  Ni21  1  0.67045331  0.33793995  0.00472478  1
  Ni  Ni22  1  0.83796039  0.50419478  0.17048099  1
  Fe  Fe23  1  0.67061548  0.33728753  0.33691938  1
  Ni  Ni24  1  0.67239519  0.67049007  1.00334410  1
  Ni  Ni25  1  0.83713209  0.83712402  0.17212234  1
  Ni  Ni26  1  0.67224447  0.67130621  0.33780928  1
  Ni  Ni27  1  0.17028729  0.17095770  0.50502531  1
  Fe  Fe28  1  1.00398831  1.00377500  0.67073413  1
  Fe  Fe29  1  0.17170470  0.17110301  0.83754722  1
  Fe  Fe30  1  0.17095600  0.50420982  0.50459163  1
  Fe  Fe31  1  1.00401483  0.33735628  0.67050947  1
  Ni  Ni32  1  0.17146375  0.50527428  0.83696062  1
  Ni  Ni33  1  0.17195904  0.83759338  0.50436031  1
  Ni  Ni34  1  0.00457308  0.67100657  0.67081646  1
  Ni  Ni35  1  0.16979372  0.83634021  0.83733291  1
  Fe  Fe36  1  0.50357349  0.16987688  0.50437629  1
  Fe  Fe37  1  0.33742212  1.00357693  0.67024923  1
  Ni  Ni38  1  0.50538210  0.17230449  0.83650638  1
  Fe  Fe39  1  0.50394842  0.50430557  0.50449068  1
  Fe  Fe40  1  0.33769615  0.33784913  0.67112917  1
  Ni  Ni41  1  0.50418452  0.50323436  0.83778829  1
  Ni  Ni42  1  0.50391214  0.83711669  0.50563924  1
  Fe  Fe43  1  0.33745166  0.67166199  0.67125400  1
  Fe  Fe44  1  0.50430939  0.83728775  0.83746657  1
  Ni  Ni45  1  0.83769542  0.17179103  0.50457426  1
  Ni  Ni46  1  0.67037698  0.00465916  0.67102191  1
  Fe  Fe47  1  0.83715955  0.17108111  0.83739235  1
  Fe  Fe48  1  0.83819060  0.50485958  0.50387077  1
  Fe  Fe49  1  0.67138213  0.33738326  0.67181573  1
  Fe  Fe50  1  0.83770695  0.50532189  0.83854805  1
  Fe  Fe51  1  0.83789497  0.83833785  0.50488984  1
  Fe  Fe52  1  0.67117831  0.67168721  0.67102396  1
  Ni  Ni53  1  0.83827288  0.83754332  0.83685528  1
" 