123,Ni54Fe7Cr38_10,-223.827826720799, 149.651097288778,Ni54Fe7Cr38,"# generated using pymatgen
 data_Cr22Fe3Ni29
_symmetry_space_group_name_H-M   'P 1'
_cell_length_a   7.49477656
_cell_length_b   7.49477656
_cell_length_c   10.59921466
_cell_angle_alpha   90.00000000
_cell_angle_beta   90.00000000
_cell_angle_gamma   90.00000000
_symmetry_Int_Tables_number   1
_chemical_formula_structural   Cr22Fe3Ni29
_chemical_formula_sum   'Cr22 Fe3 Ni29'
_cell_volume   595.37564897
_cell_formula_units_Z   1
loop_
 _symmetry_equiv_pos_site_id
 _symmetry_equiv_pos_as_xyz
  1  'x, y, z'
loop_
 _atom_site_type_symbol
 _atom_site_label
 _atom_site_symmetry_multiplicity
 _atom_site_fract_x
 _atom_site_fract_y
 _atom_site_fract_z
 _atom_site_occupancy
  Ni  Ni0  1  0.99619131  0.00006172  -0.00167570  1
  Ni  Ni1  1  0.16541731  0.16604926  0.16506382  1
  Cr  Cr2  1  -0.00041248  0.00077025  0.33025310  1
  Cr  Cr3  1  0.99641834  0.32808741  -0.00168792  1
  Cr  Cr4  1  0.16638749  0.49389463  0.16551817  1
  Ni  Ni5  1  0.99417645  0.33119394  0.33084715  1
  Cr  Cr6  1  -0.00182840  0.66680597  -0.00013368  1
  Cr  Cr7  1  0.16239063  0.83503827  0.16505777  1
  Cr  Cr8  1  0.99575124  0.66276171  0.33102039  1
  Cr  Cr9  1  0.33186755  -0.00007790  0.99669492  1
  Ni  Ni10  1  0.49821432  0.16885781  0.16469910  1
  Ni  Ni11  1  0.33257109  -0.00004750  0.33296023  1
  Ni  Ni12  1  0.33465055  0.32900335  -0.00036051  1
  Ni  Ni13  1  0.50096042  0.49341506  0.16499592  1
  Fe  Fe14  1  0.33380686  0.32811558  0.32963468  1
  Cr  Cr15  1  0.33215055  0.66466625  0.99723856  1
  Cr  Cr16  1  0.50142601  0.83247550  0.16561465  1
  Cr  Cr17  1  0.33356765  0.66774707  0.33167410  1
  Ni  Ni18  1  0.66647058  0.00232589  0.99806019  1
  Ni  Ni19  1  0.83084761  0.16564447  0.16345549  1
  Cr  Cr20  1  0.66227209  0.00050790  0.33175478  1
  Ni  Ni21  1  0.66336422  0.32776404  0.00024306  1
  Ni  Ni22  1  0.82801700  0.49646250  0.16708012  1
  Ni  Ni23  1  0.66667939  0.33268883  0.33026596  1
  Cr  Cr24  1  0.66415170  0.66433696  0.00052858  1
  Ni  Ni25  1  0.83077930  0.83233275  0.16310729  1
  Ni  Ni26  1  0.66505713  0.66090823  0.33079351  1
  Cr  Cr27  1  0.16644418  0.16352051  0.49745470  1
  Ni  Ni28  1  -0.00094269  0.99630825  0.66604716  1
  Fe  Fe29  1  0.16612577  0.16173282  0.83093889  1
  Cr  Cr30  1  0.16404597  0.49824045  0.49902521  1
  Cr  Cr31  1  0.99629329  0.33045236  0.66433032  1
  Cr  Cr32  1  0.16704290  0.49806779  0.82983537  1
  Ni  Ni33  1  0.16721836  0.83226922  0.50112875  1
  Ni  Ni34  1  0.00065404  0.66720369  0.66361653  1
  Ni  Ni35  1  0.16528998  0.83352115  0.82851707  1
  Ni  Ni36  1  0.49813607  0.16286715  0.49813492  1
  Ni  Ni37  1  0.33294252  0.99546412  0.66501691  1
  Ni  Ni38  1  0.49843438  0.16319224  0.83170541  1
  Cr  Cr39  1  0.49925737  0.49770045  0.49805822  1
  Ni  Ni40  1  0.33282761  0.32973285  0.66569939  1
  Cr  Cr41  1  0.49642682  0.49647017  0.83174496  1
  Ni  Ni42  1  0.49639721  0.83334731  0.50030071  1
  Ni  Ni43  1  0.33031768  0.66913351  0.66519856  1
  Ni  Ni44  1  0.49668607  0.83484492  0.82843371  1
  Ni  Ni45  1  0.82985965  0.16639543  0.49833154  1
  Ni  Ni46  1  0.66245440  -0.00117597  0.66503656  1
  Ni  Ni47  1  0.83001201  0.16135162  0.83262633  1
  Ni  Ni48  1  0.83095836  0.49751128  0.49684870  1
  Cr  Cr49  1  0.66525989  0.32800977  0.66393984  1
  Cr  Cr50  1  0.83092364  0.49763065  0.83025345  1
  Cr  Cr51  1  0.83068372  0.83125602  0.50052768  1
  Fe  Fe52  1  0.66339079  0.66780427  0.66350704  1
  Cr  Cr53  1  0.83162028  0.83546422  0.83114454  1
" 