3734,Ni54Fe46_10,-240.617278601083, 224.675459961499,Ni54Fe46,"# generated using pymatgen
 data_Fe29Ni25
_symmetry_space_group_name_H-M   'P 1'
_cell_length_a   7.39910057
_cell_length_b   7.39910057
_cell_length_c   10.46390838
_cell_angle_alpha   90.00000000
_cell_angle_beta   90.00000000
_cell_angle_gamma   90.00000000
_symmetry_Int_Tables_number   1
_chemical_formula_structural   Fe29Ni25
_chemical_formula_sum   'Fe29 Ni25'
_cell_volume   572.86434080
_cell_formula_units_Z   1
loop_
 _symmetry_equiv_pos_site_id
 _symmetry_equiv_pos_as_xyz
  1  'x, y, z'
loop_
 _atom_site_type_symbol
 _atom_site_label
 _atom_site_symmetry_multiplicity
 _atom_site_fract_x
 _atom_site_fract_y
 _atom_site_fract_z
 _atom_site_occupancy
  Fe  Fe0  1  1.00327551  1.00411796  1.00446470  1
  Fe  Fe1  1  0.17140166  0.17118583  0.17178834  1
  Fe  Fe2  1  1.00382264  0.00466344  0.33900258  1
  Fe  Fe3  1  1.00300150  0.33900525  1.00433471  1
  Ni  Ni4  1  0.17021182  0.50554836  0.17095219  1
  Fe  Fe5  1  1.00325276  0.33845440  0.33838336  1
  Ni  Ni6  1  0.00480006  0.67149656  1.00458341  1
  Ni  Ni7  1  0.17279368  0.83713884  0.17081313  1
  Fe  Fe8  1  1.00380465  0.67065797  0.33725184  1
  Fe  Fe9  1  0.33912798  1.00386372  0.00541080  1
  Ni  Ni10  1  0.50589632  0.16997387  0.17110076  1
  Fe  Fe11  1  0.33891116  1.00411392  0.33777990  1
  Fe  Fe12  1  0.33878063  0.33863882  1.00399327  1
  Fe  Fe13  1  0.50525286  0.50444455  0.17094366  1
  Fe  Fe14  1  0.33858175  0.33810799  0.33810683  1
  Fe  Fe15  1  0.33849156  0.67127236  1.00426220  1
  Ni  Ni16  1  0.50366120  0.83903592  0.17047265  1
  Fe  Fe17  1  0.33858258  0.67155361  0.33818204  1
  Ni  Ni18  1  0.67115325  0.00478517  0.00569395  1
  Ni  Ni19  1  0.83653767  0.17255512  0.17081268  1
  Fe  Fe20  1  0.67104222  0.00466405  0.33747000  1
  Ni  Ni21  1  0.67080771  0.33783309  0.00473232  1
  Ni  Ni22  1  0.83843661  0.50330972  0.17032183  1
  Ni  Ni23  1  0.67118278  0.33825548  0.33811746  1
  Ni  Ni24  1  0.67159936  0.67115528  0.00516962  1
  Fe  Fe25  1  0.83767109  0.83759332  0.17109363  1
  Ni  Ni26  1  0.67117874  0.67101409  0.33733986  1
  Ni  Ni27  1  0.17101888  0.17077763  0.50459864  1
  Ni  Ni28  1  1.00454092  0.00509351  0.67107393  1
  Fe  Fe29  1  0.17112990  0.17284739  0.83657369  1
  Fe  Fe30  1  0.17074123  0.50477714  0.50526778  1
  Ni  Ni31  1  0.00532908  0.33680696  0.67092419  1
  Ni  Ni32  1  0.17099671  0.50467773  0.83729593  1
  Ni  Ni33  1  0.17247880  0.83859796  0.50547259  1
  Fe  Fe34  1  0.00539432  0.67060008  0.67165606  1
  Fe  Fe35  1  0.17098498  0.83640884  0.83779507  1
  Fe  Fe36  1  0.50497749  0.17080072  0.50406295  1
  Fe  Fe37  1  0.33679211  0.00484956  0.67058413  1
  Fe  Fe38  1  0.50471947  0.17292001  0.83880160  1
  Fe  Fe39  1  0.50499608  0.50506917  0.50512332  1
  Ni  Ni40  1  0.33727381  0.33871408  0.67058399  1
  Ni  Ni41  1  0.50475839  0.50467997  0.83869766  1
  Ni  Ni42  1  0.50380516  0.83815426  0.50528273  1
  Ni  Ni43  1  0.33805842  0.67074090  0.67092874  1
  Fe  Fe44  1  0.50486730  0.83633636  0.83812566  1
  Ni  Ni45  1  0.83827336  0.17223415  0.50528381  1
  Fe  Fe46  1  0.67133165  0.00484829  0.67118514  1
  Fe  Fe47  1  0.83792292  0.17242692  0.83792553  1
  Ni  Ni48  1  0.83783021  0.50372049  0.50552768  1
  Fe  Fe49  1  0.67165976  0.33825463  0.67133214  1
  Ni  Ni50  1  0.83802159  0.50399796  0.83792481  1
  Ni  Ni51  1  0.83749008  0.83781892  0.50441229  1
  Fe  Fe52  1  0.67136939  0.67067141  0.67098404  1
  Fe  Fe53  1  0.83792324  0.83668124  0.83794320  1
" 