7634,Ni54Fe46_2,-240.381201288755, 217.152331363559,Ni54Fe46,"# generated using pymatgen
 data_Fe29Ni25
_symmetry_space_group_name_H-M   'P 1'
_cell_length_a   7.39887449
_cell_length_b   7.39887449
_cell_length_c   10.46358865
_cell_angle_alpha   90.00000000
_cell_angle_beta   90.00000000
_cell_angle_gamma   90.00000000
_symmetry_Int_Tables_number   1
_chemical_formula_structural   Fe29Ni25
_chemical_formula_sum   'Fe29 Ni25'
_cell_volume   572.81182929
_cell_formula_units_Z   1
loop_
 _symmetry_equiv_pos_site_id
 _symmetry_equiv_pos_as_xyz
  1  'x, y, z'
loop_
 _atom_site_type_symbol
 _atom_site_label
 _atom_site_symmetry_multiplicity
 _atom_site_fract_x
 _atom_site_fract_y
 _atom_site_fract_z
 _atom_site_occupancy
  Fe  Fe0  1  1.00299462  1.00427731  0.00476364  1
  Fe  Fe1  1  0.16966495  0.17106285  0.17181662  1
  Ni  Ni2  1  1.00450809  0.00509275  0.33757785  1
  Fe  Fe3  1  1.00285951  0.33793695  0.00468560  1
  Fe  Fe4  1  0.17003130  0.50495353  0.17210697  1
  Fe  Fe5  1  1.00446899  0.33928536  0.33791980  1
  Fe  Fe6  1  1.00307243  0.67160686  0.00517114  1
  Fe  Fe7  1  0.16966012  0.83780430  0.17183690  1
  Ni  Ni8  1  1.00414182  0.67156576  0.33767074  1
  Fe  Fe9  1  0.33906840  1.00390894  1.00406349  1
  Fe  Fe10  1  0.50614494  0.17121437  0.17147367  1
  Fe  Fe11  1  0.33772525  1.00341179  0.33890489  1
  Fe  Fe12  1  0.33904975  0.33815181  1.00398285  1
  Fe  Fe13  1  0.50606812  0.50508847  0.17084131  1
  Fe  Fe14  1  0.33716778  0.33863607  0.33898468  1
  Fe  Fe15  1  0.33920342  0.67176087  0.00474973  1
  Fe  Fe16  1  0.50628063  0.83751235  0.17111994  1
  Ni  Ni17  1  0.33832330  0.66999103  0.33823953  1
  Ni  Ni18  1  0.67201616  1.00387503  1.00453048  1
  Ni  Ni19  1  0.83838267  0.17109534  0.17202373  1
  Fe  Fe20  1  0.67176160  1.00306445  0.33791910  1
  Fe  Fe21  1  0.67191593  0.33807341  0.00462546  1
  Ni  Ni22  1  0.83839109  0.50507317  0.17082685  1
  Fe  Fe23  1  0.67218720  0.33885236  0.33763383  1
  Ni  Ni24  1  0.67164123  0.67154896  0.00504934  1
  Ni  Ni25  1  0.83766070  0.83765399  0.17083002  1
  Ni  Ni26  1  0.67135724  0.67071887  0.33730588  1
  Ni  Ni27  1  0.17280616  0.17218773  0.50415650  1
  Ni  Ni28  1  1.00451135  0.00522220  0.67181317  1
  Fe  Fe29  1  0.17106256  0.17114290  0.83689839  1
  Ni  Ni30  1  0.17079300  0.50342585  0.50442825  1
  Fe  Fe31  1  1.00448625  0.33724334  0.67121391  1
  Fe  Fe32  1  0.17115087  0.50480653  0.83747357  1
  Fe  Fe33  1  0.17105137  0.83823558  0.50415818  1
  Fe  Fe34  1  1.00410084  0.67182477  0.67065458  1
  Fe  Fe35  1  0.17078105  0.83787804  0.83782716  1
  Ni  Ni36  1  0.50252582  0.16980596  0.50498577  1
  Ni  Ni37  1  0.33738727  0.00641998  0.67136128  1
  Fe  Fe38  1  0.50586171  0.17100142  0.83718192  1
  Fe  Fe39  1  0.50446070  0.50487842  0.50494332  1
  Ni  Ni40  1  0.33738532  0.33761545  0.67135968  1
  Ni  Ni41  1  0.50413706  0.50542229  0.83748060  1
  Ni  Ni42  1  0.50490536  0.83903445  0.50432120  1
  Fe  Fe43  1  0.33871878  0.67225735  0.67101591  1
  Ni  Ni44  1  0.50450111  0.83777593  0.83830742  1
  Fe  Fe45  1  0.83823254  0.17062945  0.50473991  1
  Ni  Ni46  1  0.67192045  1.00365405  0.67125607  1
  Ni  Ni47  1  0.83859636  0.17099513  0.83753852  1
  Ni  Ni48  1  0.83931220  0.50580845  0.50442233  1
  Fe  Fe49  1  0.67105889  0.33710487  0.67156200  1
  Ni  Ni50  1  0.83776464  0.50459306  0.83857013  1
  Ni  Ni51  1  0.83692954  0.83701521  0.50441640  1
  Ni  Ni52  1  0.67155919  0.67135312  0.67146386  1
  Ni  Ni53  1  0.83702995  0.83822909  0.83857353  1
" 