783,Ni54Fe7Cr38_17,-223.597193716288, 146.348037363945,Ni54Fe7Cr38,"# generated using pymatgen
 data_Cr22Fe3Ni29
_symmetry_space_group_name_H-M   'P 1'
_cell_length_a   7.49809184
_cell_length_b   7.49809184
_cell_length_c   10.60390317
_cell_angle_alpha   90.00000000
_cell_angle_beta   90.00000000
_cell_angle_gamma   90.00000000
_symmetry_Int_Tables_number   1
_chemical_formula_structural   Cr22Fe3Ni29
_chemical_formula_sum   'Cr22 Fe3 Ni29'
_cell_volume   596.16608222
_cell_formula_units_Z   1
loop_
 _symmetry_equiv_pos_site_id
 _symmetry_equiv_pos_as_xyz
  1  'x, y, z'
loop_
 _atom_site_type_symbol
 _atom_site_label
 _atom_site_symmetry_multiplicity
 _atom_site_fract_x
 _atom_site_fract_y
 _atom_site_fract_z
 _atom_site_occupancy
  Cr  Cr0  1  0.99713239  -0.00193449  0.99697285  1
  Ni  Ni1  1  0.16278476  0.16247105  0.16369904  1
  Ni  Ni2  1  -0.00166749  0.99651311  0.33108214  1
  Ni  Ni3  1  -0.00138439  0.33134403  -0.00106122  1
  Ni  Ni4  1  0.16407121  0.49936373  0.15965541  1
  Cr  Cr5  1  0.00004996  0.32920176  0.32744309  1
  Ni  Ni6  1  -0.00154587  0.66442217  -0.00169950  1
  Ni  Ni7  1  0.16529481  0.83188105  0.16314935  1
  Cr  Cr8  1  -0.00132093  0.66776431  0.32928522  1
  Ni  Ni9  1  0.33295372  0.99692063  -0.00125508  1
  Cr  Cr10  1  0.49844080  0.16292535  0.16135554  1
  Cr  Cr11  1  0.32908204  0.99596088  0.33119692  1
  Ni  Ni12  1  0.33060845  0.33195934  0.99701463  1
  Cr  Cr13  1  0.49755631  0.49918346  0.16276681  1
  Cr  Cr14  1  0.32906429  0.33271254  0.33176780  1
  Ni  Ni15  1  0.33212649  0.66481092  -0.00191479  1
  Ni  Ni16  1  0.49706805  0.83115376  0.16094009  1
  Cr  Cr17  1  0.33175306  0.66551089  0.33066278  1
  Fe  Fe18  1  0.66411004  0.99700897  0.99568482  1
  Ni  Ni19  1  0.83279008  0.16277622  0.16265087  1
  Cr  Cr20  1  0.66658978  0.99457791  0.32890555  1
  Ni  Ni21  1  0.66479524  0.33075863  0.99567469  1
  Cr  Cr22  1  0.83118297  0.49754188  0.16185871  1
  Cr  Cr23  1  0.66439576  0.33244284  0.33229057  1
  Ni  Ni24  1  0.66350824  0.66647720  0.99686636  1
  Fe  Fe25  1  0.83211190  0.83197728  0.16157277  1
  Cr  Cr26  1  0.66315492  0.66701402  0.33279390  1
  Ni  Ni27  1  0.16281002  0.16079186  0.49828710  1
  Ni  Ni28  1  0.99667740  0.99529589  0.66316020  1
  Cr  Cr29  1  0.16646667  0.16446723  0.83120838  1
  Cr  Cr30  1  0.16498744  0.49979929  0.50100814  1
  Cr  Cr31  1  -0.00077983  0.32976548  0.66786346  1
  Ni  Ni32  1  0.16714067  0.49962215  0.83318183  1
  Ni  Ni33  1  0.16362296  0.83248204  0.49940940  1
  Ni  Ni34  1  0.99779638  0.66784626  0.66554372  1
  Cr  Cr35  1  0.16541136  0.82750366  0.83058109  1
  Cr  Cr36  1  0.49710903  0.16585677  0.49921524  1
  Cr  Cr37  1  0.33156386  0.99718404  0.66469034  1
  Ni  Ni38  1  0.49935475  0.16617965  0.83354313  1
  Ni  Ni39  1  0.49809706  0.50141358  0.50180172  1
  Ni  Ni40  1  0.33392248  0.33392933  0.66553881  1
  Ni  Ni41  1  0.49744359  0.49872139  0.83061613  1
  Ni  Ni42  1  0.49652008  0.82847027  0.49964106  1
  Ni  Ni43  1  0.33341021  0.66337947  0.66505376  1
  Ni  Ni44  1  0.49872947  0.82913493  0.83368751  1
  Cr  Cr45  1  0.83232773  0.16382505  0.49854724  1
  Cr  Cr46  1  0.66495328  0.99646418  0.66914667  1
  Ni  Ni47  1  0.82887445  0.16446644  0.83226475  1
  Cr  Cr48  1  0.82924810  0.49944691  0.50056071  1
  Ni  Ni49  1  0.66112437  0.33314148  0.66669208  1
  Cr  Cr50  1  0.83154347  0.49962544  0.83189667  1
  Fe  Fe51  1  0.83233338  0.83127071  0.50035338  1
  Ni  Ni52  1  0.66254062  0.66512075  0.66457399  1
  Ni  Ni53  1  0.83027674  0.83026864  0.83078647  1
" 