3741,Ni54Fe7Cr38_2,-223.555129863879, 148.206455890049,Ni54Fe7Cr38,"# generated using pymatgen
 data_Cr22Fe3Ni29
_symmetry_space_group_name_H-M   'P 1'
_cell_length_a   7.49834774
_cell_length_b   7.49834774
_cell_length_c   10.60426507
_cell_angle_alpha   90.00000000
_cell_angle_beta   90.00000000
_cell_angle_gamma   90.00000000
_symmetry_Int_Tables_number   1
_chemical_formula_structural   Cr22Fe3Ni29
_chemical_formula_sum   'Cr22 Fe3 Ni29'
_cell_volume   596.22712437
_cell_formula_units_Z   1
loop_
 _symmetry_equiv_pos_site_id
 _symmetry_equiv_pos_as_xyz
  1  'x, y, z'
loop_
 _atom_site_type_symbol
 _atom_site_label
 _atom_site_symmetry_multiplicity
 _atom_site_fract_x
 _atom_site_fract_y
 _atom_site_fract_z
 _atom_site_occupancy
  Cr  Cr0  1  0.99698350  0.99774020  0.00011684  1
  Cr  Cr1  1  0.16261495  0.16894678  0.16428297  1
  Cr  Cr2  1  -0.00099332  0.00052920  0.33084241  1
  Ni  Ni3  1  0.99681896  0.33628839  -0.00144988  1
  Ni  Ni4  1  0.16484418  0.50002118  0.16389103  1
  Ni  Ni5  1  0.99581576  0.33340993  0.33154545  1
  Ni  Ni6  1  -0.00094683  0.66078542  -0.00206289  1
  Ni  Ni7  1  0.16429341  0.82491610  0.16528384  1
  Ni  Ni8  1  -0.00052422  0.66054349  0.32904683  1
  Cr  Cr9  1  0.33274598  -0.00174186  -0.00206540  1
  Cr  Cr10  1  0.50144885  0.16942485  0.16273709  1
  Cr  Cr11  1  0.32993463  -0.00022505  0.33157841  1
  Ni  Ni12  1  0.33143872  0.33466097  0.99767199  1
  Ni  Ni13  1  0.49555355  0.49577177  0.16542569  1
  Ni  Ni14  1  0.33135774  0.33305176  0.33128104  1
  Ni  Ni15  1  0.32871532  0.66170101  -0.00071642  1
  Cr  Cr16  1  0.49605778  0.82857008  0.16402540  1
  Ni  Ni17  1  0.32855993  0.66191080  0.32800825  1
  Ni  Ni18  1  0.66450108  -0.00033298  0.99521366  1
  Ni  Ni19  1  0.83007494  0.16921264  0.16358308  1
  Cr  Cr20  1  0.66477884  0.00205353  0.33177547  1
  Ni  Ni21  1  0.66552210  0.33101681  -0.00055207  1
  Ni  Ni22  1  0.83331977  0.49415131  0.16498572  1
  Ni  Ni23  1  0.66646675  0.33170899  0.33119336  1
  Cr  Cr24  1  0.66595426  0.66261521  0.99652528  1
  Cr  Cr25  1  0.83379400  0.83158578  0.16408101  1
  Cr  Cr26  1  0.66580789  0.65923429  0.33129599  1
  Fe  Fe27  1  0.16414041  0.16712590  0.49985465  1
  Ni  Ni28  1  -0.00174183  0.00059668  0.66303846  1
  Cr  Cr29  1  0.16576460  0.16903634  0.82907983  1
  Cr  Cr30  1  0.16463711  0.49701407  0.49810321  1
  Ni  Ni31  1  0.99658849  0.32969305  0.66379890  1
  Ni  Ni32  1  0.16444529  0.49796439  0.83242848  1
  Cr  Cr33  1  0.16482090  0.83012994  0.49728934  1
  Cr  Cr34  1  0.99608141  0.66157890  0.66695586  1
  Cr  Cr35  1  0.16402346  0.82843663  0.83098811  1
  Ni  Ni36  1  0.49897200  0.16686692  0.49983778  1
  Ni  Ni37  1  0.33240150  0.00030127  0.66410885  1
  Ni  Ni38  1  0.49919904  0.16437616  0.83041786  1
  Cr  Cr39  1  0.49684049  0.49474386  0.49647950  1
  Ni  Ni40  1  0.33183012  0.32837742  0.66462803  1
  Cr  Cr41  1  0.49498923  0.49420246  0.83123587  1
  Cr  Cr42  1  0.49600499  0.83166130  0.49968795  1
  Ni  Ni43  1  0.33174557  0.66538055  0.66656859  1
  Fe  Fe44  1  0.49838726  0.83252205  0.83064528  1
  Ni  Ni45  1  0.83028660  0.16802867  0.49919398  1
  Fe  Fe46  1  0.66373029  0.00132783  0.66558262  1
  Cr  Cr47  1  0.82900188  0.16550296  0.83233666  1
  Ni  Ni48  1  0.83252279  0.49222797  0.49705615  1
  Ni  Ni49  1  0.66539421  0.32926872  0.66317798  1
  Ni  Ni50  1  0.83341974  0.49713506  0.83176240  1
  Cr  Cr51  1  0.83300884  0.83202022  0.49845870  1
  Cr  Cr52  1  0.66544794  0.66227804  0.66599269  1
  Ni  Ni53  1  0.83041379  0.83194673  0.83104282  1
" 