881,Ni54Fe21Cr23_11,-231.300903725191, 186.245753224122,Ni54Fe21Cr23,"# generated using pymatgen
 data_Cr14Fe11Ni29
_symmetry_space_group_name_H-M   'P 1'
_cell_length_a   7.45784089
_cell_length_b   7.45784089
_cell_length_c   10.54697973
_cell_angle_alpha   90.00000000
_cell_angle_beta   90.00000000
_cell_angle_gamma   90.00000000
_symmetry_Int_Tables_number   1
_chemical_formula_structural   Cr14Fe11Ni29
_chemical_formula_sum   'Cr14 Fe11 Ni29'
_cell_volume   586.61658709
_cell_formula_units_Z   1
loop_
 _symmetry_equiv_pos_site_id
 _symmetry_equiv_pos_as_xyz
  1  'x, y, z'
loop_
 _atom_site_type_symbol
 _atom_site_label
 _atom_site_symmetry_multiplicity
 _atom_site_fract_x
 _atom_site_fract_y
 _atom_site_fract_z
 _atom_site_occupancy
  Fe  Fe0  1  0.99914088  1.00045702  0.99919674  1
  Cr  Cr1  1  0.16840801  0.16673024  0.16880402  1
  Fe  Fe2  1  0.00074386  0.00259982  0.33467800  1
  Cr  Cr3  1  1.00040428  0.33438977  1.00052599  1
  Ni  Ni4  1  0.16647302  0.50264016  0.16910396  1
  Ni  Ni5  1  1.00052508  0.33573995  0.33519995  1
  Fe  Fe6  1  0.00081844  0.66775548  0.00160421  1
  Cr  Cr7  1  0.16798750  0.83324995  0.16702871  1
  Ni  Ni8  1  0.00067679  0.66371222  0.33322864  1
  Ni  Ni9  1  0.33710934  0.99844046  0.99965634  1
  Ni  Ni10  1  0.50158185  0.16481340  0.16776618  1
  Ni  Ni11  1  0.33667582  0.00071131  0.33477722  1
  Cr  Cr12  1  0.33464277  0.33548956  0.99952130  1
  Ni  Ni13  1  0.50114411  0.50299906  0.16730329  1
  Ni  Ni14  1  0.33184155  0.33369413  0.33392320  1
  Ni  Ni15  1  0.33487405  0.66819288  0.00095316  1
  Ni  Ni16  1  0.50205051  0.83403981  0.16787659  1
  Ni  Ni17  1  0.33337299  0.66744725  0.33265441  1
  Ni  Ni18  1  0.66710138  0.99941477  1.00039332  1
  Fe  Fe19  1  0.83241220  0.16631221  0.16774970  1
  Fe  Fe20  1  0.66558868  1.00057277  0.33329823  1
  Cr  Cr21  1  0.66680479  0.33239622  0.00141086  1
  Ni  Ni22  1  0.83423090  0.50311316  0.16881826  1
  Cr  Cr23  1  0.66901015  0.33275461  0.33257376  1
  Fe  Fe24  1  0.66481723  0.66962084  0.00113836  1
  Fe  Fe25  1  0.83186843  0.83301925  0.16737399  1
  Fe  Fe26  1  0.66688776  0.66747155  0.33253711  1
  Ni  Ni27  1  0.16892034  0.16824220  0.49919019  1
  Cr  Cr28  1  1.00002076  0.00207424  0.66843289  1
  Ni  Ni29  1  0.16868241  0.16636185  0.83365746  1
  Ni  Ni30  1  0.16569207  0.50004663  0.49975813  1
  Cr  Cr31  1  0.00187226  0.33504519  0.66567240  1
  Ni  Ni32  1  0.16918569  0.50180349  0.83298661  1
  Cr  Cr33  1  0.16902225  0.83343839  0.49982508  1
  Ni  Ni34  1  0.00108005  0.66470159  0.66749638  1
  Cr  Cr35  1  0.16813167  0.83382229  0.83499969  1
  Ni  Ni36  1  0.49905212  0.16429252  0.50099177  1
  Ni  Ni37  1  0.33783087  0.00098923  0.66741824  1
  Ni  Ni38  1  0.50020655  0.16439343  0.83309207  1
  Cr  Cr39  1  0.49992818  0.50148814  0.50125256  1
  Fe  Fe40  1  0.33335656  0.33342485  0.66794553  1
  Ni  Ni41  1  0.49892079  0.50299661  0.83369711  1
  Fe  Fe42  1  0.50009730  0.83585241  0.50123782  1
  Ni  Ni43  1  0.33461674  0.66736084  0.66824635  1
  Ni  Ni44  1  0.50167333  0.83446424  0.83313639  1
  Ni  Ni45  1  0.83388049  0.16730662  0.49869376  1
  Ni  Ni46  1  0.66426767  1.00012829  0.66799711  1
  Ni  Ni47  1  0.83296431  0.16360790  0.83505647  1
  Ni  Ni48  1  0.83647890  0.50160476  0.49998692  1
  Cr  Cr49  1  0.66733257  0.33184853  0.66786684  1
  Cr  Cr50  1  0.83311209  0.50322819  0.83243028  1
  Cr  Cr51  1  0.83260971  0.83230087  0.50109346  1
  Ni  Ni52  1  0.66615137  0.66955114  0.66822556  1
  Fe  Fe53  1  0.83105213  0.83517928  0.83384899  1
" 