7404,Ni54Fe21Cr23_5,-230.812195489122, 182.503337666628,Ni54Fe21Cr23,"# generated using pymatgen
 data_Cr14Fe11Ni29
_symmetry_space_group_name_H-M   'P 1'
_cell_length_a   7.45308142
_cell_length_b   7.45308142
_cell_length_c   10.54024883
_cell_angle_alpha   90.00000000
_cell_angle_beta   90.00000000
_cell_angle_gamma   90.00000000
_symmetry_Int_Tables_number   1
_chemical_formula_structural   Cr14Fe11Ni29
_chemical_formula_sum   'Cr14 Fe11 Ni29'
_cell_volume   585.49419674
_cell_formula_units_Z   1
loop_
 _symmetry_equiv_pos_site_id
 _symmetry_equiv_pos_as_xyz
  1  'x, y, z'
loop_
 _atom_site_type_symbol
 _atom_site_label
 _atom_site_symmetry_multiplicity
 _atom_site_fract_x
 _atom_site_fract_y
 _atom_site_fract_z
 _atom_site_occupancy
  Cr  Cr0  1  0.00289327  1.00057629  0.99802411  1
  Ni  Ni1  1  0.16975382  0.16653967  0.16909041  1
  Ni  Ni2  1  0.00526073  0.00095501  0.33645159  1
  Fe  Fe3  1  1.00010400  0.33405300  0.99941936  1
  Cr  Cr4  1  0.16680677  0.49959190  0.16780745  1
  Ni  Ni5  1  0.00333069  0.33339734  0.33559283  1
  Cr  Cr6  1  0.00342819  0.66760938  1.00009157  1
  Fe  Fe7  1  0.17103259  0.83525634  0.16827396  1
  Fe  Fe8  1  0.00137215  0.66559042  0.33578287  1
  Ni  Ni9  1  0.33504466  0.99957296  0.00193401  1
  Ni  Ni10  1  0.49749328  0.16644779  0.16611905  1
  Fe  Fe11  1  0.33288113  1.00038315  0.33365534  1
  Cr  Cr12  1  0.33538734  0.33422634  0.99968751  1
  Ni  Ni13  1  0.50045299  0.50253449  0.16810900  1
  Ni  Ni14  1  0.33254266  0.33647378  0.33468354  1
  Ni  Ni15  1  0.33472618  0.66955516  0.99917227  1
  Ni  Ni16  1  0.49778485  0.83399439  0.16740321  1
  Ni  Ni17  1  0.33517939  0.66752601  0.33527641  1
  Ni  Ni18  1  0.66478077  0.00262633  0.99918990  1
  Cr  Cr19  1  0.83556664  0.16992559  0.16665807  1
  Cr  Cr20  1  0.66708228  0.99908349  0.33322005  1
  Ni  Ni21  1  0.66710854  0.33409216  1.00062789  1
  Ni  Ni22  1  0.83400999  0.50066047  0.16933169  1
  Cr  Cr23  1  0.66542276  0.33725813  0.33532603  1
  Cr  Cr24  1  0.66560996  0.66733990  0.00099017  1
  Cr  Cr25  1  0.83343643  0.83212185  0.16807950  1
  Ni  Ni26  1  0.66466516  0.66661262  0.33455319  1
  Ni  Ni27  1  0.16664648  0.16659974  0.49971104  1
  Ni  Ni28  1  0.00383551  0.99927696  0.66814660  1
  Ni  Ni29  1  0.16856924  0.16482492  0.83438289  1
  Ni  Ni30  1  0.16713887  0.50114590  0.50061421  1
  Cr  Cr31  1  0.00101595  0.33382662  0.66785682  1
  Fe  Fe32  1  0.16808864  0.50211215  0.83343359  1
  Fe  Fe33  1  0.16973245  0.83273606  0.50212867  1
  Ni  Ni34  1  0.00224031  0.66828573  0.66811507  1
  Ni  Ni35  1  0.17101969  0.83430553  0.83218039  1
  Cr  Cr36  1  0.49696048  0.16668638  0.50071393  1
  Ni  Ni37  1  0.33221191  0.99922084  0.66753934  1
  Ni  Ni38  1  0.50086283  0.16502466  0.83567462  1
  Ni  Ni39  1  0.50058765  0.50465532  0.50187927  1
  Cr  Cr40  1  0.33560049  0.33504043  0.66811618  1
  Fe  Fe41  1  0.50224423  0.50065666  0.83372623  1
  Ni  Ni42  1  0.49880637  0.83132240  0.50110814  1
  Fe  Fe43  1  0.33391315  0.66913692  0.66710506  1
  Ni  Ni44  1  0.49784828  0.83472099  0.83416532  1
  Fe  Fe45  1  0.83601819  0.16950614  0.50147351  1
  Cr  Cr46  1  0.66746740  0.00278930  0.66937296  1
  Ni  Ni47  1  0.83344408  0.17066149  0.83412789  1
  Ni  Ni48  1  0.83531881  0.50249711  0.49989943  1
  Ni  Ni49  1  0.66761534  0.33745216  0.66767702  1
  Ni  Ni50  1  0.83414123  0.50055906  0.83410109  1
  Cr  Cr51  1  0.83446623  0.83244074  0.50221435  1
  Fe  Fe52  1  0.66725018  0.66581178  0.66792439  1
  Fe  Fe53  1  0.83439358  0.83529485  0.83265580  1
" 