6599,Ni54Fe21Cr23_4,-231.315282141345, 185.190808354378,Ni54Fe21Cr23,"# generated using pymatgen
 data_Cr14Fe11Ni29
_symmetry_space_group_name_H-M   'P 1'
_cell_length_a   7.45415831
_cell_length_b   7.45415831
_cell_length_c   10.54177178
_cell_angle_alpha   90.00000000
_cell_angle_beta   90.00000000
_cell_angle_gamma   90.00000000
_symmetry_Int_Tables_number   1
_chemical_formula_structural   Cr14Fe11Ni29
_chemical_formula_sum   'Cr14 Fe11 Ni29'
_cell_volume   585.74802583
_cell_formula_units_Z   1
loop_
 _symmetry_equiv_pos_site_id
 _symmetry_equiv_pos_as_xyz
  1  'x, y, z'
loop_
 _atom_site_type_symbol
 _atom_site_label
 _atom_site_symmetry_multiplicity
 _atom_site_fract_x
 _atom_site_fract_y
 _atom_site_fract_z
 _atom_site_occupancy
  Ni  Ni0  1  0.99798426  0.00359676  0.99973431  1
  Ni  Ni1  1  0.16448433  0.16978313  0.16627528  1
  Ni  Ni2  1  0.99896346  0.00464845  0.33589180  1
  Ni  Ni3  1  0.99905943  0.33567711  0.00143599  1
  Ni  Ni4  1  0.16620269  0.49882590  0.16852253  1
  Ni  Ni5  1  0.00123281  0.33377164  0.33465526  1
  Ni  Ni6  1  0.99912237  0.66414579  1.00080602  1
  Cr  Cr7  1  0.16789860  0.83334288  0.16635789  1
  Ni  Ni8  1  1.00082320  0.66403808  0.33442088  1
  Ni  Ni9  1  0.33748620  1.00039887  0.00166811  1
  Fe  Fe10  1  0.50133075  0.16739873  0.16748200  1
  Cr  Cr11  1  0.33473979  0.00410610  0.33325342  1
  Cr  Cr12  1  0.33258128  0.33400997  0.00140080  1
  Fe  Fe13  1  0.50024027  0.50163257  0.16785556  1
  Ni  Ni14  1  0.33304547  0.33368212  0.33330360  1
  Ni  Ni15  1  0.33601887  0.66726622  0.00129997  1
  Ni  Ni16  1  0.50134095  0.83354878  0.16605183  1
  Ni  Ni17  1  0.33383680  0.66350912  0.33290409  1
  Ni  Ni18  1  0.66674401  1.00022320  0.00119344  1
  Ni  Ni19  1  0.83526228  0.16951992  0.16860764  1
  Fe  Fe20  1  0.66851444  0.00473526  0.33262931  1
  Cr  Cr21  1  0.66928017  0.33399583  1.00079271  1
  Ni  Ni22  1  0.83552512  0.49856394  0.16809151  1
  Fe  Fe23  1  0.66800116  0.33258270  0.33237287  1
  Ni  Ni24  1  0.66750065  0.66866212  0.99815271  1
  Cr  Cr25  1  0.83404979  0.83535814  0.16444287  1
  Cr  Cr26  1  0.66917684  0.66757677  0.33202032  1
  Ni  Ni27  1  0.16701827  0.17047023  0.50174907  1
  Fe  Fe28  1  0.00202816  0.00368432  0.66736788  1
  Cr  Cr29  1  0.16507847  0.16812702  0.83608586  1
  Ni  Ni30  1  0.16680229  0.49798487  0.49864724  1
  Ni  Ni31  1  0.99775238  0.33469709  0.66684549  1
  Ni  Ni32  1  0.16453122  0.50221029  0.83600787  1
  Cr  Cr33  1  0.16830551  0.83350534  0.49969417  1
  Cr  Cr34  1  1.00018293  0.66402614  0.66721908  1
  Cr  Cr35  1  0.17069797  0.83433206  0.83668727  1
  Ni  Ni36  1  0.50332044  0.16885999  0.50042151  1
  Ni  Ni37  1  0.33906512  0.00200113  0.66689840  1
  Ni  Ni38  1  0.50420018  0.16349566  0.83407973  1
  Cr  Cr39  1  0.50106331  0.49892846  0.50218401  1
  Cr  Cr40  1  0.33152265  0.33323430  0.66978036  1
  Fe  Fe41  1  0.50037746  0.50167821  0.83379981  1
  Cr  Cr42  1  0.50099623  0.83463231  0.50167029  1
  Ni  Ni43  1  0.33450568  0.66729884  0.66876928  1
  Ni  Ni44  1  0.50307200  0.83432097  0.83362908  1
  Fe  Fe45  1  0.83459140  0.17005420  0.50138871  1
  Ni  Ni46  1  0.66786106  0.00243862  0.66814458  1
  Ni  Ni47  1  0.83248031  0.16876241  0.83302348  1
  Fe  Fe48  1  0.83543935  0.49663808  0.49997091  1
  Fe  Fe49  1  0.66777923  0.33242790  0.66958667  1
  Ni  Ni50  1  0.83381185  0.49959498  0.83384242  1
  Cr  Cr51  1  0.83381239  0.83538131  0.50081884  1
  Fe  Fe52  1  0.66644922  0.66727472  0.67112153  1
  Fe  Fe53  1  0.83349576  0.83602729  0.83563059  1
" 