6406,Ni54Fe25Cr19_12,-233.074177548978, 195.682843134535,Ni54Fe25Cr19,"# generated using pymatgen
 data_Cr12Fe13Ni29
_symmetry_space_group_name_H-M   'P 1'
_cell_length_a   7.45017688
_cell_length_b   7.45017688
_cell_length_c   10.53614119
_cell_angle_alpha   90.00000000
_cell_angle_beta   90.00000000
_cell_angle_gamma   90.00000000
_symmetry_Int_Tables_number   1
_chemical_formula_structural   Cr12Fe13Ni29
_chemical_formula_sum   'Cr12 Fe13 Ni29'
_cell_volume   584.80994458
_cell_formula_units_Z   1
loop_
 _symmetry_equiv_pos_site_id
 _symmetry_equiv_pos_as_xyz
  1  'x, y, z'
loop_
 _atom_site_type_symbol
 _atom_site_label
 _atom_site_symmetry_multiplicity
 _atom_site_fract_x
 _atom_site_fract_y
 _atom_site_fract_z
 _atom_site_occupancy
  Ni  Ni0  1  0.00412351  1.00037745  0.00146759  1
  Ni  Ni1  1  0.16733778  0.16990994  0.16654920  1
  Ni  Ni2  1  1.00031575  0.00240289  0.33355013  1
  Cr  Cr3  1  0.00248205  0.33297491  0.00175643  1
  Ni  Ni4  1  0.16908675  0.49945992  0.16856813  1
  Fe  Fe5  1  0.00217505  0.33393237  0.33562685  1
  Ni  Ni6  1  0.00210202  0.67000926  0.00115848  1
  Cr  Cr7  1  0.16595782  0.83401029  0.16565698  1
  Fe  Fe8  1  0.00154413  0.66658246  0.33478233  1
  Ni  Ni9  1  0.33178345  1.00104050  0.99921161  1
  Cr  Cr10  1  0.49974113  0.16848073  0.16841517  1
  Cr  Cr11  1  0.33316222  1.00105601  0.33693258  1
  Ni  Ni12  1  0.33378118  0.33366979  0.00158170  1
  Fe  Fe13  1  0.49797407  0.50245609  0.16927465  1
  Ni  Ni14  1  0.33304930  0.33551435  0.33417019  1
  Fe  Fe15  1  0.33382583  0.66841677  1.00049004  1
  Ni  Ni16  1  0.50329653  0.83360191  0.16821909  1
  Fe  Fe17  1  0.33480388  0.66632668  0.33512127  1
  Cr  Cr18  1  0.66756533  0.99985878  0.00226594  1
  Fe  Fe19  1  0.83727725  0.16482897  0.16990419  1
  Fe  Fe20  1  0.66855358  1.00100515  0.33412395  1
  Cr  Cr21  1  0.66652651  0.33618596  0.99877491  1
  Cr  Cr22  1  0.83576509  0.50284533  0.16933951  1
  Ni  Ni23  1  0.66870717  0.33560936  0.33518615  1
  Cr  Cr24  1  0.66667076  0.66735280  1.00079917  1
  Ni  Ni25  1  0.83425696  0.83535135  0.16873356  1
  Ni  Ni26  1  0.66761593  0.66789449  0.33306782  1
  Ni  Ni27  1  0.16825024  0.16886374  0.50193431  1
  Fe  Fe28  1  0.00367724  0.00267438  0.66750917  1
  Fe  Fe29  1  0.16971684  0.16563792  0.83404875  1
  Ni  Ni30  1  0.16556483  0.50023682  0.50044072  1
  Ni  Ni31  1  0.99943837  0.33388974  0.66622283  1
  Cr  Cr32  1  0.16799703  0.50193082  0.83424533  1
  Ni  Ni33  1  0.16789510  0.83429313  0.50221571  1
  Fe  Fe34  1  0.00245211  0.66577106  0.66743722  1
  Ni  Ni35  1  0.16852294  0.83620212  0.83521255  1
  Ni  Ni36  1  0.50100012  0.16718868  0.50208385  1
  Ni  Ni37  1  0.33395910  1.00018651  0.66782699  1
  Ni  Ni38  1  0.49970284  0.16831496  0.83309186  1
  Cr  Cr39  1  0.50113709  0.49954640  0.50101042  1
  Ni  Ni40  1  0.33427133  0.33229934  0.66764590  1
  Ni  Ni41  1  0.50206654  0.49922765  0.83434341  1
  Ni  Ni42  1  0.50079189  0.83653022  0.50198910  1
  Ni  Ni43  1  0.33543907  0.67091047  0.66752145  1
  Ni  Ni44  1  0.49867982  0.83585610  0.83319223  1
  Fe  Fe45  1  0.83483474  0.16968974  0.50105475  1
  Fe  Fe46  1  0.66442662  0.00285617  0.66800401  1
  Fe  Fe47  1  0.83445191  0.16888106  0.83243608  1
  Ni  Ni48  1  0.83638570  0.50003178  0.50197013  1
  Ni  Ni49  1  0.66968701  0.33536613  0.66919122  1
  Ni  Ni50  1  0.83346499  0.50059412  0.83189346  1
  Cr  Cr51  1  0.83425222  0.83338269  0.50081789  1
  Ni  Ni52  1  0.66700166  0.66632742  0.66902858  1
  Cr  Cr53  1  0.83659242  0.83329712  0.83404526  1
" 