3131,Ni54Fe7Cr38_18,-223.676078153883, 152.092364291724,Ni54Fe7Cr38,"# generated using pymatgen
 data_Cr22Fe3Ni29
_symmetry_space_group_name_H-M   'P 1'
_cell_length_a   7.49773052
_cell_length_b   7.49773052
_cell_length_c   10.60339219
_cell_angle_alpha   90.00000000
_cell_angle_beta   90.00000000
_cell_angle_gamma   90.00000000
_symmetry_Int_Tables_number   1
_chemical_formula_structural   Cr22Fe3Ni29
_chemical_formula_sum   'Cr22 Fe3 Ni29'
_cell_volume   596.07990298
_cell_formula_units_Z   1
loop_
 _symmetry_equiv_pos_site_id
 _symmetry_equiv_pos_as_xyz
  1  'x, y, z'
loop_
 _atom_site_type_symbol
 _atom_site_label
 _atom_site_symmetry_multiplicity
 _atom_site_fract_x
 _atom_site_fract_y
 _atom_site_fract_z
 _atom_site_occupancy
  Ni  Ni0  1  -0.00137727  0.99502951  0.00013246  1
  Ni  Ni1  1  0.16317191  0.16390743  0.16932996  1
  Ni  Ni2  1  -0.00147693  0.00007018  0.32854930  1
  Cr  Cr3  1  -0.00068025  0.32708031  -0.00023376  1
  Cr  Cr4  1  0.16587600  0.50142948  0.16600531  1
  Ni  Ni5  1  -0.00146971  0.32937255  0.33105657  1
  Ni  Ni6  1  -0.00142270  0.66665554  -0.00163788  1
  Fe  Fe7  1  0.16231889  0.83496513  0.16515007  1
  Cr  Cr8  1  0.99390481  0.66653240  0.33136926  1
  Cr  Cr9  1  0.32842763  0.00072619  0.99710169  1
  Ni  Ni10  1  0.49885484  0.16461340  0.16835672  1
  Ni  Ni11  1  0.33160172  0.00262093  0.33206351  1
  Cr  Cr12  1  0.33076757  0.32809406  0.99781346  1
  Cr  Cr13  1  0.49742635  0.49700730  0.16394131  1
  Ni  Ni14  1  0.33199907  0.32732146  0.33181938  1
  Ni  Ni15  1  0.32769443  0.66780895  0.99674744  1
  Cr  Cr16  1  0.49393609  0.83271604  0.16710616  1
  Fe  Fe17  1  0.33256020  0.66488470  0.33269531  1
  Cr  Cr18  1  0.66625254  -0.00109503  0.00091217  1
  Ni  Ni19  1  0.83236902  0.16312991  0.16729075  1
  Ni  Ni20  1  0.66414420  -0.00147867  0.33140755  1
  Ni  Ni21  1  0.66680108  0.33015938  0.00387129  1
  Ni  Ni22  1  0.83323332  0.49647963  0.16618880  1
  Ni  Ni23  1  0.66405404  0.32960004  0.32999377  1
  Cr  Cr24  1  0.66774876  0.66667055  -0.00095288  1
  Ni  Ni25  1  0.83336248  0.83370514  0.16568376  1
  Cr  Cr26  1  0.66511223  0.66518766  0.33479721  1
  Ni  Ni27  1  0.16568217  0.16522707  0.49643047  1
  Cr  Cr28  1  0.00169292  0.99655196  0.66514929  1
  Ni  Ni29  1  0.16267313  0.16266042  0.82878483  1
  Cr  Cr30  1  0.16425913  0.49525037  0.49568156  1
  Ni  Ni31  1  0.99762905  0.33028736  0.66354808  1
  Ni  Ni32  1  0.16249365  0.49907847  0.83251505  1
  Cr  Cr33  1  0.16589281  0.83550533  0.49263763  1
  Cr  Cr34  1  0.99628616  0.66389635  0.66366662  1
  Ni  Ni35  1  0.16428121  0.83145403  0.83432647  1
  Ni  Ni36  1  0.49863446  0.16364742  0.49635111  1
  Ni  Ni37  1  0.33335950  -0.00167376  0.66399152  1
  Cr  Cr38  1  0.50273696  0.16387082  0.82943352  1
  Ni  Ni39  1  0.49711814  0.49554709  0.49491360  1
  Cr  Cr40  1  0.32894179  0.32725362  0.66487459  1
  Cr  Cr41  1  0.49749505  0.49892867  0.83512198  1
  Ni  Ni42  1  0.49848214  0.83456282  0.49685819  1
  Cr  Cr43  1  0.33154969  0.66626647  0.66438236  1
  Ni  Ni44  1  0.49699915  0.83265716  0.82954310  1
  Cr  Cr45  1  0.83255583  0.16315598  0.49759943  1
  Ni  Ni46  1  0.66284614  0.99648298  0.66242652  1
  Cr  Cr47  1  0.83115564  0.16242100  0.82954667  1
  Fe  Fe48  1  0.82969761  0.49416012  0.49642685  1
  Ni  Ni49  1  0.66341633  0.33121068  0.65994516  1
  Cr  Cr50  1  0.83138286  0.49429619  0.83081031  1
  Ni  Ni51  1  0.82968612  0.83513786  0.49667892  1
  Cr  Cr52  1  0.66521707  0.66647436  0.65968771  1
  Ni  Ni53  1  0.83215305  0.83200304  0.83161787  1
" 