7089,Ni54Fe7Cr38_6,-223.594659552701, 148.104884781555,Ni54Fe7Cr38,"# generated using pymatgen
 data_Cr22Fe3Ni29
_symmetry_space_group_name_H-M   'P 1'
_cell_length_a   7.49444500
_cell_length_b   7.49444500
_cell_length_c   10.59874576
_cell_angle_alpha   90.00000000
_cell_angle_beta   90.00000000
_cell_angle_gamma   90.00000000
_symmetry_Int_Tables_number   1
_chemical_formula_structural   Cr22Fe3Ni29
_chemical_formula_sum   'Cr22 Fe3 Ni29'
_cell_volume   595.29663570
_cell_formula_units_Z   1
loop_
 _symmetry_equiv_pos_site_id
 _symmetry_equiv_pos_as_xyz
  1  'x, y, z'
loop_
 _atom_site_type_symbol
 _atom_site_label
 _atom_site_symmetry_multiplicity
 _atom_site_fract_x
 _atom_site_fract_y
 _atom_site_fract_z
 _atom_site_occupancy
  Ni  Ni0  1  0.99786687  0.99592830  0.00069231  1
  Ni  Ni1  1  0.16238447  0.16331911  0.16246160  1
  Cr  Cr2  1  0.99562110  0.00098016  0.33094371  1
  Ni  Ni3  1  0.00030855  0.33093042  -0.00005107  1
  Cr  Cr4  1  0.16365407  0.49731922  0.16451059  1
  Ni  Ni5  1  0.99791236  0.32805277  0.33124027  1
  Ni  Ni6  1  -0.00158808  0.66766325  0.99656510  1
  Ni  Ni7  1  0.16436680  0.83341137  0.16291069  1
  Cr  Cr8  1  0.99816300  0.66638550  0.33128268  1
  Ni  Ni9  1  0.33064492  -0.00123617  -0.00115995  1
  Cr  Cr10  1  0.49783738  0.16166913  0.16174870  1
  Cr  Cr11  1  0.33118413  0.99548711  0.33088751  1
  Ni  Ni12  1  0.32949349  0.32948264  0.99694884  1
  Cr  Cr13  1  0.49841491  0.50101697  0.16580634  1
  Cr  Cr14  1  0.32963819  0.33306798  0.33219590  1
  Cr  Cr15  1  0.32911731  0.66547198  -0.00128453  1
  Fe  Fe16  1  0.49964739  0.83264602  0.16560650  1
  Ni  Ni17  1  0.33538574  0.66610875  0.33159611  1
  Ni  Ni18  1  0.66603599  0.99688842  -0.00070125  1
  Ni  Ni19  1  0.83392029  0.16173349  0.16478349  1
  Ni  Ni20  1  0.66700034  0.99460110  0.33161973  1
  Cr  Cr21  1  0.66419314  0.32942333  0.99797895  1
  Cr  Cr22  1  0.83248175  0.49878190  0.16431310  1
  Cr  Cr23  1  0.66735385  0.33051984  0.33255238  1
  Fe  Fe24  1  0.66740688  0.66849455  -0.00097858  1
  Ni  Ni25  1  0.83029771  0.83333973  0.16249880  1
  Ni  Ni26  1  0.66173240  0.66871980  0.33199953  1
  Ni  Ni27  1  0.16320103  0.16657778  0.49939481  1
  Cr  Cr28  1  0.99733650  0.99667633  0.66322658  1
  Cr  Cr29  1  0.16789960  0.16497769  0.83228829  1
  Cr  Cr30  1  0.16477192  0.49611656  0.49856194  1
  Ni  Ni31  1  -0.00124306  0.33245646  0.66330731  1
  Ni  Ni32  1  0.16254400  0.49880818  0.83173269  1
  Cr  Cr33  1  0.16620358  0.83241161  0.49906967  1
  Ni  Ni34  1  0.99662314  0.66473177  0.66738421  1
  Ni  Ni35  1  0.16310909  0.83030299  0.83259092  1
  Cr  Cr36  1  0.49863087  0.16302099  0.50224709  1
  Ni  Ni37  1  0.33338759  -0.00002970  0.66517341  1
  Ni  Ni38  1  0.49722627  0.16342435  0.83061003  1
  Ni  Ni39  1  0.49944907  0.50106870  0.49874698  1
  Ni  Ni40  1  0.33214195  0.33031647  0.66536005  1
  Cr  Cr41  1  0.49811178  0.49532814  0.83052976  1
  Ni  Ni42  1  0.50183355  0.82994722  0.49670632  1
  Cr  Cr43  1  0.33093526  0.66445995  0.66398322  1
  Cr  Cr44  1  0.49913308  0.83603733  0.83162997  1
  Ni  Ni45  1  0.83204006  0.16413036  0.49801258  1
  Ni  Ni46  1  0.66407027  0.99791875  0.66356726  1
  Cr  Cr47  1  0.82941409  0.16404628  0.83143916  1
  Cr  Cr48  1  0.83056602  0.49820859  0.49930758  1
  Ni  Ni49  1  0.66360248  0.33065930  0.66385584  1
  Cr  Cr50  1  0.83432074  0.50034162  0.83087950  1
  Ni  Ni51  1  0.82658318  0.83217528  0.49974332  1
  Ni  Ni52  1  0.66629174  0.66597653  0.66290952  1
  Fe  Fe53  1  0.83263752  0.83100009  0.83207079  1
" 