1408,Ni54Fe7Cr38_4,-223.990108795492, 157.705554281398,Ni54Fe7Cr38,"# generated using pymatgen
 data_Cr22Fe3Ni29
_symmetry_space_group_name_H-M   'P 1'
_cell_length_a   7.48944500
_cell_length_b   7.48944500
_cell_length_c   10.59167469
_cell_angle_alpha   90.00000000
_cell_angle_beta   90.00000000
_cell_angle_gamma   90.00000000
_symmetry_Int_Tables_number   1
_chemical_formula_structural   Cr22Fe3Ni29
_chemical_formula_sum   'Cr22 Fe3 Ni29'
_cell_volume   594.10595360
_cell_formula_units_Z   1
loop_
 _symmetry_equiv_pos_site_id
 _symmetry_equiv_pos_as_xyz
  1  'x, y, z'
loop_
 _atom_site_type_symbol
 _atom_site_label
 _atom_site_symmetry_multiplicity
 _atom_site_fract_x
 _atom_site_fract_y
 _atom_site_fract_z
 _atom_site_occupancy
  Cr  Cr0  1  0.00131866  0.00043643  0.99647080  1
  Ni  Ni1  1  0.16853923  0.16536579  0.16513592  1
  Ni  Ni2  1  0.00140992  0.00041191  0.33234796  1
  Ni  Ni3  1  -0.00115124  0.33250266  0.99671810  1
  Cr  Cr4  1  0.16543637  0.49716236  0.16256815  1
  Cr  Cr5  1  0.00122567  0.33113820  0.33193428  1
  Ni  Ni6  1  -0.00138057  0.66200407  0.99670134  1
  Cr  Cr7  1  0.16701289  0.83261871  0.16572793  1
  Cr  Cr8  1  -0.00017194  0.66392819  0.32977819  1
  Ni  Ni9  1  0.33376530  -0.00073381  -0.00031037  1
  Ni  Ni10  1  0.49513130  0.16425072  0.16326613  1
  Ni  Ni11  1  0.33198640  -0.00054876  0.32994480  1
  Ni  Ni12  1  0.33084240  0.33049735  0.99782217  1
  Cr  Cr13  1  0.49780228  0.49627541  0.16429310  1
  Ni  Ni14  1  0.33168898  0.33037089  0.33174146  1
  Ni  Ni15  1  0.33257444  0.66568181  0.99733064  1
  Ni  Ni16  1  0.49614052  0.83425673  0.16447586  1
  Fe  Fe17  1  0.33293488  0.66477629  0.33295245  1
  Fe  Fe18  1  0.66351450  -0.00046993  0.99710429  1
  Cr  Cr19  1  0.83085638  0.16697655  0.16470165  1
  Cr  Cr20  1  0.66267063  0.99831884  0.33092504  1
  Ni  Ni21  1  0.66548525  0.33206332  0.99817258  1
  Ni  Ni22  1  0.83213475  0.49716726  0.16209234  1
  Cr  Cr23  1  0.66267049  0.33241728  0.33221468  1
  Cr  Cr24  1  0.66445058  0.66538422  0.99621564  1
  Cr  Cr25  1  0.83230139  0.83028631  0.16346057  1
  Cr  Cr26  1  0.66241694  0.66498721  0.33271163  1
  Cr  Cr27  1  0.16540750  0.16523067  0.50064455  1
  Ni  Ni28  1  -0.00080180  0.00171876  0.66652613  1
  Ni  Ni29  1  0.16490084  0.16764612  0.83093495  1
  Ni  Ni30  1  0.16924446  0.49703304  0.49948718  1
  Ni  Ni31  1  0.00090820  0.33052732  0.66724936  1
  Ni  Ni32  1  0.16663183  0.49590879  0.83273673  1
  Cr  Cr33  1  0.16688176  0.83211753  0.49819099  1
  Cr  Cr34  1  -0.00036999  0.66260274  0.66871581  1
  Cr  Cr35  1  0.16752392  0.83159747  0.83134173  1
  Cr  Cr36  1  0.49581744  0.16592783  0.49917473  1
  Ni  Ni37  1  0.33105856  0.99763804  0.66645195  1
  Cr  Cr38  1  0.49572285  0.16682981  0.83433900  1
  Ni  Ni39  1  0.49423480  0.50010670  0.49951732  1
  Ni  Ni40  1  0.32923932  0.33442621  0.66629347  1
  Ni  Ni41  1  0.49686790  0.49957594  0.83094971  1
  Ni  Ni42  1  0.49629504  0.83032993  0.49928859  1
  Ni  Ni43  1  0.33530609  0.66352656  0.66425843  1
  Ni  Ni44  1  0.49791166  0.83040879  0.83139273  1
  Fe  Fe45  1  0.83306001  0.16502215  0.50013975  1
  Cr  Cr46  1  0.66437944  0.99633193  0.66735802  1
  Ni  Ni47  1  0.83374342  0.16679743  0.83093445  1
  Cr  Cr48  1  0.83186569  0.49791779  0.49961304  1
  Cr  Cr49  1  0.66468825  0.33474810  0.66536127  1
  Ni  Ni50  1  0.83211110  0.49723722  0.83357173  1
  Cr  Cr51  1  0.83262380  0.83390049  0.50003690  1
  Ni  Ni52  1  0.66155820  0.66503737  0.66666526  1
  Ni  Ni53  1  0.83083907  0.83158500  0.83158470  1
" 