216,Ni54Fe25Cr19_10,-232.406193765437, 188.649045524217,Ni54Fe25Cr19,"# generated using pymatgen
 data_Cr12Fe13Ni29
_symmetry_space_group_name_H-M   'P 1'
_cell_length_a   7.44742836
_cell_length_b   7.44742836
_cell_length_c   10.53225418
_cell_angle_alpha   90.00000000
_cell_angle_beta   90.00000000
_cell_angle_gamma   90.00000000
_symmetry_Int_Tables_number   1
_chemical_formula_structural   Cr12Fe13Ni29
_chemical_formula_sum   'Cr12 Fe13 Ni29'
_cell_volume   584.16293778
_cell_formula_units_Z   1
loop_
 _symmetry_equiv_pos_site_id
 _symmetry_equiv_pos_as_xyz
  1  'x, y, z'
loop_
 _atom_site_type_symbol
 _atom_site_label
 _atom_site_symmetry_multiplicity
 _atom_site_fract_x
 _atom_site_fract_y
 _atom_site_fract_z
 _atom_site_occupancy
  Ni  Ni0  1  0.00138406  0.00401104  1.00117584  1
  Ni  Ni1  1  0.16666895  0.16798465  0.16678162  1
  Ni  Ni2  1  0.00168062  0.00270307  0.33512553  1
  Ni  Ni3  1  0.00258025  0.33234240  1.00109027  1
  Ni  Ni4  1  0.16989112  0.49932517  0.16672204  1
  Ni  Ni5  1  1.00080563  0.33298707  0.33502330  1
  Cr  Cr6  1  0.00229941  0.66753701  1.00102714  1
  Fe  Fe7  1  0.17015603  0.83668756  0.16828053  1
  Cr  Cr8  1  0.00382646  0.66754515  0.33520941  1
  Ni  Ni9  1  0.33369305  0.00183877  0.00375323  1
  Ni  Ni10  1  0.50006567  0.16668918  0.16686393  1
  Ni  Ni11  1  0.33467640  0.99950521  0.33509034  1
  Fe  Fe12  1  0.33291590  0.33522841  0.00235262  1
  Ni  Ni13  1  0.49842522  0.50220913  0.16693169  1
  Cr  Cr14  1  0.33463335  0.33502070  0.33447211  1
  Ni  Ni15  1  0.33562443  0.66673961  0.00228459  1
  Cr  Cr16  1  0.50052260  0.83489391  0.16726235  1
  Ni  Ni17  1  0.33471564  0.66953785  0.33537112  1
  Ni  Ni18  1  0.66887493  0.00174262  1.00114180  1
  Ni  Ni19  1  0.83721605  0.16640560  0.16766504  1
  Ni  Ni20  1  0.66759534  0.00226348  0.33591736  1
  Cr  Cr21  1  0.66810699  0.33431716  0.00256474  1
  Cr  Cr22  1  0.83529324  0.49986790  0.16843542  1
  Cr  Cr23  1  0.66851279  0.33344566  0.33439337  1
  Ni  Ni24  1  0.66584504  0.66793563  0.99965092  1
  Cr  Cr25  1  0.83408910  0.83757828  0.16788138  1
  Fe  Fe26  1  0.66551234  0.66891826  0.33648945  1
  Fe  Fe27  1  0.16741664  0.16865796  0.50070870  1
  Fe  Fe28  1  0.99992895  0.00174836  0.66759341  1
  Fe  Fe29  1  0.16593185  0.16989768  0.83604517  1
  Ni  Ni30  1  0.16708656  0.50175507  0.50349142  1
  Ni  Ni31  1  1.00012635  0.33602631  0.66783685  1
  Fe  Fe32  1  0.16893437  0.49989774  0.83347917  1
  Ni  Ni33  1  0.16831289  0.83440122  0.50052467  1
  Ni  Ni34  1  1.00087304  0.66684549  0.66753625  1
  Cr  Cr35  1  0.16635867  0.83463560  0.83578037  1
  Ni  Ni36  1  0.50222021  0.16657181  0.50196530  1
  Cr  Cr37  1  0.33479677  1.00115422  0.66496758  1
  Cr  Cr38  1  0.50075211  0.16947005  0.83537423  1
  Ni  Ni39  1  0.50131381  0.50266883  0.50302781  1
  Ni  Ni40  1  0.33514595  0.33715434  0.66788211  1
  Ni  Ni41  1  0.50066570  0.50166563  0.83399003  1
  Ni  Ni42  1  0.50131191  0.83471113  0.50075060  1
  Ni  Ni43  1  0.33401146  0.66533130  0.66629816  1
  Cr  Cr44  1  0.50356508  0.83258275  0.83595748  1
  Fe  Fe45  1  0.83496551  0.16819025  0.50119862  1
  Fe  Fe46  1  0.67024523  0.00169552  0.66655883  1
  Fe  Fe47  1  0.83636739  0.16718242  0.83476470  1
  Ni  Ni48  1  0.83555006  0.50084727  0.50295147  1
  Ni  Ni49  1  0.66867724  0.33533200  0.66710013  1
  Fe  Fe50  1  0.83423354  0.50174263  0.83277981  1
  Fe  Fe51  1  0.83375496  0.83454804  0.50202094  1
  Fe  Fe52  1  0.66834788  0.66573839  0.66774299  1
  Ni  Ni53  1  0.83462316  0.83541539  0.83384396  1
" 