5699,Ni54Fe46_12,-240.470566325795, 220.148218976724,Ni54Fe46,"# generated using pymatgen
 data_Fe29Ni25
_symmetry_space_group_name_H-M   'P 1'
_cell_length_a   7.39854560
_cell_length_b   7.39854560
_cell_length_c   10.46312353
_cell_angle_alpha   90.00000000
_cell_angle_beta   90.00000000
_cell_angle_gamma   90.00000000
_symmetry_Int_Tables_number   1
_chemical_formula_structural   Fe29Ni25
_chemical_formula_sum   'Fe29 Ni25'
_cell_volume   572.73544746
_cell_formula_units_Z   1
loop_
 _symmetry_equiv_pos_site_id
 _symmetry_equiv_pos_as_xyz
  1  'x, y, z'
loop_
 _atom_site_type_symbol
 _atom_site_label
 _atom_site_symmetry_multiplicity
 _atom_site_fract_x
 _atom_site_fract_y
 _atom_site_fract_z
 _atom_site_occupancy
  Fe  Fe0  1  1.00318348  1.00410727  0.00488963  1
  Ni  Ni1  1  0.17173922  0.17215429  0.17137054  1
  Ni  Ni2  1  0.00614854  0.00473116  0.33796403  1
  Fe  Fe3  1  1.00386542  0.33848534  0.00512959  1
  Fe  Fe4  1  0.17155663  0.50449567  0.17135748  1
  Ni  Ni5  1  0.00491550  0.33824927  0.33806408  1
  Ni  Ni6  1  0.00577902  0.67101984  1.00396310  1
  Fe  Fe7  1  0.17203838  0.83898058  0.17157817  1
  Ni  Ni8  1  0.00566431  0.67090931  0.33854091  1
  Fe  Fe9  1  0.33926504  0.00473003  0.00580727  1
  Ni  Ni10  1  0.50425468  0.17055376  0.17158673  1
  Ni  Ni11  1  0.33759990  0.00471952  0.33870384  1
  Fe  Fe12  1  0.33896418  0.33824123  1.00424870  1
  Fe  Fe13  1  0.50509274  0.50420845  0.17063587  1
  Fe  Fe14  1  0.33750857  0.33678307  0.33818070  1
  Fe  Fe15  1  0.33910678  0.67091713  1.00366961  1
  Ni  Ni16  1  0.50661354  0.83859180  0.17110897  1
  Fe  Fe17  1  0.33796698  0.67165762  0.33854206  1
  Ni  Ni18  1  0.67025088  0.00558013  0.00464371  1
  Fe  Fe19  1  0.83709791  0.17103303  0.17158107  1
  Ni  Ni20  1  0.67014115  0.00546712  0.33785966  1
  Ni  Ni21  1  0.67062444  0.33728998  1.00417248  1
  Fe  Fe22  1  0.83724368  0.50419762  0.17151566  1
  Ni  Ni23  1  0.67137153  0.33750814  0.33796271  1
  Ni  Ni24  1  0.67148128  0.67101601  1.00311001  1
  Fe  Fe25  1  0.83738577  0.83865727  0.17135895  1
  Ni  Ni26  1  0.67136891  0.67090968  0.33854547  1
  Ni  Ni27  1  0.17234284  0.17279903  0.50465934  1
  Fe  Fe28  1  1.00388130  1.00432344  0.67073549  1
  Fe  Fe29  1  0.17157875  0.17165604  0.83804456  1
  Ni  Ni30  1  0.17074936  0.50379098  0.50375999  1
  Fe  Fe31  1  0.00517038  0.33818827  0.67057890  1
  Ni  Ni32  1  0.17149115  0.50452736  0.83854594  1
  Fe  Fe33  1  0.17143170  0.83838368  0.50434823  1
  Fe  Fe34  1  1.00414040  0.67137467  0.67145678  1
  Fe  Fe35  1  0.17185355  0.83692575  0.83796435  1
  Ni  Ni36  1  0.50407178  0.17120070  0.50370125  1
  Fe  Fe37  1  0.33912985  0.00551252  0.67057799  1
  Ni  Ni38  1  0.50480897  0.17194176  0.83860316  1
  Fe  Fe39  1  0.50462790  0.50426717  0.50537113  1
  Fe  Fe40  1  0.33882658  0.33798564  0.67146003  1
  Ni  Ni41  1  0.50395272  0.50367485  0.83833012  1
  Fe  Fe42  1  0.50405340  0.83854719  0.50390969  1
  Ni  Ni43  1  0.33643445  0.67128831  0.67175424  1
  Fe  Fe44  1  0.50477638  0.83739071  0.83846090  1
  Fe  Fe45  1  0.83810050  0.17150711  0.50442211  1
  Ni  Ni46  1  0.67086416  0.00622103  0.67138338  1
  Fe  Fe47  1  0.83663984  0.17192886  0.83788482  1
  Fe  Fe48  1  0.83826214  0.50368905  0.50372880  1
  Ni  Ni49  1  0.67122959  0.33674261  0.67175477  1
  Fe  Fe50  1  0.83710446  0.50441197  0.83864180  1
  Ni  Ni51  1  0.83747085  0.83730603  0.50338515  1
  Fe  Fe52  1  0.67107481  0.67168185  0.67151888  1
  Ni  Ni53  1  0.83769261  0.83752794  0.83891610  1
" 