5375,Ni54Fe21Cr23_14,-231.126757170772, 185.098771383756,Ni54Fe21Cr23,"# generated using pymatgen
 data_Cr14Fe11Ni29
_symmetry_space_group_name_H-M   'P 1'
_cell_length_a   7.45675003
_cell_length_b   7.45675003
_cell_length_c   10.54543702
_cell_angle_alpha   90.00000000
_cell_angle_beta   90.00000000
_cell_angle_gamma   90.00000000
_symmetry_Int_Tables_number   1
_chemical_formula_structural   Cr14Fe11Ni29
_chemical_formula_sum   'Cr14 Fe11 Ni29'
_cell_volume   586.35921065
_cell_formula_units_Z   1
loop_
 _symmetry_equiv_pos_site_id
 _symmetry_equiv_pos_as_xyz
  1  'x, y, z'
loop_
 _atom_site_type_symbol
 _atom_site_label
 _atom_site_symmetry_multiplicity
 _atom_site_fract_x
 _atom_site_fract_y
 _atom_site_fract_z
 _atom_site_occupancy
  Ni  Ni0  1  0.00142223  0.00267039  1.00064876  1
  Ni  Ni1  1  0.16662081  0.16868034  0.16753667  1
  Ni  Ni2  1  0.00077481  0.00422729  0.33492372  1
  Ni  Ni3  1  0.99939129  0.33233190  0.00162456  1
  Ni  Ni4  1  0.16907263  0.49662998  0.16814637  1
  Fe  Fe5  1  0.00175719  0.33250231  0.33489011  1
  Ni  Ni6  1  0.00078353  0.66700622  0.99911908  1
  Cr  Cr7  1  0.16774023  0.83684610  0.16554388  1
  Cr  Cr8  1  1.00025405  0.66644794  0.33572270  1
  Ni  Ni9  1  0.33534373  0.00299949  1.00035884  1
  Fe  Fe10  1  0.49957072  0.16780051  0.16754130  1
  Ni  Ni11  1  0.33418083  0.00288658  0.33390066  1
  Ni  Ni12  1  0.33585479  0.33067410  0.00349943  1
  Ni  Ni13  1  0.49984768  0.49933171  0.16905061  1
  Ni  Ni14  1  0.33522774  0.33166342  0.33324864  1
  Cr  Cr15  1  0.33458763  0.66804478  0.00181276  1
  Ni  Ni16  1  0.50092072  0.83535083  0.16947891  1
  Ni  Ni17  1  0.33677665  0.66719477  0.33324960  1
  Fe  Fe18  1  0.66523482  0.00345476  1.00060416  1
  Fe  Fe19  1  0.83436565  0.16779937  0.16730481  1
  Fe  Fe20  1  0.66467557  0.00196859  0.33571281  1
  Ni  Ni21  1  0.66660955  0.33098744  1.00000905  1
  Cr  Cr22  1  0.83331705  0.49831225  0.16575449  1
  Ni  Ni23  1  0.66660262  0.33340210  0.33399013  1
  Cr  Cr24  1  0.66618470  0.66551984  0.00118815  1
  Cr  Cr25  1  0.83218212  0.83772797  0.16894717  1
  Ni  Ni26  1  0.66552795  0.66655721  0.33511270  1
  Ni  Ni27  1  0.16766995  0.16877130  0.49994981  1
  Cr  Cr28  1  0.00128808  0.00315850  0.66610253  1
  Cr  Cr29  1  0.16774411  0.16862559  0.83430766  1
  Fe  Fe30  1  0.16853324  0.49665678  0.50014763  1
  Ni  Ni31  1  0.99835115  0.33349730  0.66489693  1
  Cr  Cr32  1  0.16681727  0.49848996  0.83373879  1
  Cr  Cr33  1  0.17114695  0.83606626  0.50057008  1
  Cr  Cr34  1  0.99871036  0.66626344  0.66719029  1
  Fe  Fe35  1  0.16990668  0.83626792  0.83483354  1
  Ni  Ni36  1  0.50058339  0.16637694  0.50126583  1
  Ni  Ni37  1  0.33686615  0.00173707  0.66763947  1
  Ni  Ni38  1  0.50206009  0.16602788  0.83403866  1
  Cr  Cr39  1  0.50113905  0.50042534  0.50077164  1
  Ni  Ni40  1  0.33532886  0.32947119  0.66541386  1
  Cr  Cr41  1  0.50096062  0.49805848  0.83200420  1
  Ni  Ni42  1  0.50182811  0.83499180  0.50090423  1
  Fe  Fe43  1  0.33577030  0.66804501  0.66701743  1
  Ni  Ni44  1  0.50062078  0.83637609  0.83178095  1
  Ni  Ni45  1  0.83365555  0.16940211  0.49923051  1
  Fe  Fe46  1  0.66581262  0.00349964  0.66673557  1
  Ni  Ni47  1  0.83294842  0.16885151  0.83529424  1
  Ni  Ni48  1  0.83283417  0.49834680  0.50193229  1
  Ni  Ni49  1  0.66834509  0.33291965  0.66816507  1
  Fe  Fe50  1  0.83303385  0.49659890  0.83361362  1
  Fe  Fe51  1  0.83016953  0.83591432  0.49958263  1
  Ni  Ni52  1  0.66732116  0.66767410  0.66606727  1
  Cr  Cr53  1  0.83301348  0.83575425  0.83517151  1
" 