2837,Ni54Fe25Cr19_19,-232.531923308614, 189.241012633239,Ni54Fe25Cr19,"# generated using pymatgen
 data_Cr12Fe13Ni29
_symmetry_space_group_name_H-M   'P 1'
_cell_length_a   7.44761155
_cell_length_b   7.44761155
_cell_length_c   10.53251326
_cell_angle_alpha   90.00000000
_cell_angle_beta   90.00000000
_cell_angle_gamma   90.00000000
_symmetry_Int_Tables_number   1
_chemical_formula_structural   Cr12Fe13Ni29
_chemical_formula_sum   'Cr12 Fe13 Ni29'
_cell_volume   584.20604734
_cell_formula_units_Z   1
loop_
 _symmetry_equiv_pos_site_id
 _symmetry_equiv_pos_as_xyz
  1  'x, y, z'
loop_
 _atom_site_type_symbol
 _atom_site_label
 _atom_site_symmetry_multiplicity
 _atom_site_fract_x
 _atom_site_fract_y
 _atom_site_fract_z
 _atom_site_occupancy
  Ni  Ni0  1  0.99894877  0.00194605  0.00278948  1
  Ni  Ni1  1  0.16826370  0.16933131  0.16810801  1
  Cr  Cr2  1  1.00070451  0.00340003  0.33659972  1
  Fe  Fe3  1  0.99883759  0.33556318  0.00208047  1
  Cr  Cr4  1  0.16604149  0.50127329  0.16832942  1
  Ni  Ni5  1  0.00185451  0.33502799  0.33485705  1
  Ni  Ni6  1  0.99808541  0.66650556  1.00016838  1
  Cr  Cr7  1  0.16698875  0.83380482  0.17014536  1
  Ni  Ni8  1  0.99993541  0.66614299  0.33618126  1
  Cr  Cr9  1  0.33608059  0.00197670  0.00390419  1
  Ni  Ni10  1  0.50136782  0.16814431  0.16682525  1
  Fe  Fe11  1  0.33512915  0.00229198  0.33622659  1
  Fe  Fe12  1  0.33593760  0.33455622  1.00109910  1
  Cr  Cr13  1  0.50326535  0.50189835  0.16917044  1
  Fe  Fe14  1  0.33362223  0.33373908  0.33604591  1
  Cr  Cr15  1  0.33603792  0.66680286  0.99796220  1
  Fe  Fe16  1  0.50408800  0.83460766  0.16854918  1
  Ni  Ni17  1  0.33537471  0.66875804  0.33783145  1
  Ni  Ni18  1  0.66816436  1.00124148  1.00090925  1
  Ni  Ni19  1  0.83448536  0.16874953  0.16510185  1
  Cr  Cr20  1  0.66837124  1.00119186  0.33542472  1
  Fe  Fe21  1  0.66888370  0.33498576  1.00103586  1
  Ni  Ni22  1  0.83459748  0.50269281  0.16782267  1
  Cr  Cr23  1  0.67157018  0.33474790  0.33593458  1
  Ni  Ni24  1  0.66992664  0.66782915  1.00129540  1
  Ni  Ni25  1  0.83352374  0.83263465  0.16511607  1
  Ni  Ni26  1  0.66879618  0.66829597  0.33469411  1
  Ni  Ni27  1  0.16817825  0.16998710  0.50093072  1
  Ni  Ni28  1  0.00133513  1.00114048  0.66520226  1
  Cr  Cr29  1  0.16695089  0.16910189  0.83499621  1
  Ni  Ni30  1  0.16693622  0.50178987  0.50184788  1
  Ni  Ni31  1  1.00013718  0.33646394  0.66619640  1
  Fe  Fe32  1  0.16610108  0.50010536  0.83274014  1
  Ni  Ni33  1  0.16793121  0.83228682  0.50130062  1
  Ni  Ni34  1  0.99985721  0.66617581  0.66759028  1
  Cr  Cr35  1  0.16461573  0.83342604  0.83315300  1
  Ni  Ni36  1  0.50110500  0.16853259  0.50286256  1
  Cr  Cr37  1  0.33553900  1.00069027  0.66591729  1
  Ni  Ni38  1  0.50273731  0.16879445  0.83475625  1
  Fe  Fe39  1  0.50170141  0.50230654  0.50163389  1
  Fe  Fe40  1  0.33459939  0.33674130  0.66694118  1
  Fe  Fe41  1  0.50410588  0.50013746  0.83353999  1
  Ni  Ni42  1  0.50171949  0.83311688  0.50040000  1
  Fe  Fe43  1  0.33500155  0.66596441  0.66658149  1
  Ni  Ni44  1  0.50450796  0.83405826  0.83459252  1
  Ni  Ni45  1  0.83476176  0.16989312  0.50483289  1
  Fe  Fe46  1  0.66901865  1.00015434  0.66699949  1
  Cr  Cr47  1  0.83323592  0.16828527  0.83299247  1
  Ni  Ni48  1  0.83557260  0.50236610  0.50068962  1
  Ni  Ni49  1  0.66733204  0.33669274  0.66727037  1
  Ni  Ni50  1  0.83422096  0.50266018  0.83537628  1
  Ni  Ni51  1  0.83428192  0.83157812  0.50433002  1
  Ni  Ni52  1  0.66753290  0.66595091  0.66800859  1
  Fe  Fe53  1  0.83256301  0.83392219  0.83457163  1
" 