4410,Ni54Fe25Cr19_16,-232.568906384479, 190.18436858495,Ni54Fe25Cr19,"# generated using pymatgen
 data_Cr12Fe13Ni29
_symmetry_space_group_name_H-M   'P 1'
_cell_length_a   7.45008661
_cell_length_b   7.45008661
_cell_length_c   10.53601353
_cell_angle_alpha   90.00000000
_cell_angle_beta   90.00000000
_cell_angle_gamma   90.00000000
_symmetry_Int_Tables_number   1
_chemical_formula_structural   Cr12Fe13Ni29
_chemical_formula_sum   'Cr12 Fe13 Ni29'
_cell_volume   584.78868845
_cell_formula_units_Z   1
loop_
 _symmetry_equiv_pos_site_id
 _symmetry_equiv_pos_as_xyz
  1  'x, y, z'
loop_
 _atom_site_type_symbol
 _atom_site_label
 _atom_site_symmetry_multiplicity
 _atom_site_fract_x
 _atom_site_fract_y
 _atom_site_fract_z
 _atom_site_occupancy
  Ni  Ni0  1  0.00200711  0.00342992  0.00260378  1
  Ni  Ni1  1  0.16836321  0.16568965  0.16568845  1
  Cr  Cr2  1  0.00127466  0.99939507  0.33315061  1
  Ni  Ni3  1  1.00028299  0.33248973  1.00068611  1
  Cr  Cr4  1  0.16771635  0.50051412  0.16583812  1
  Cr  Cr5  1  0.99986792  0.33501247  0.33508744  1
  Cr  Cr6  1  1.00035076  0.66849597  1.00037141  1
  Ni  Ni7  1  0.16862316  0.83771995  0.16709429  1
  Ni  Ni8  1  0.99913194  0.66876291  0.33626394  1
  Ni  Ni9  1  0.33292469  0.00130050  0.00326491  1
  Fe  Fe10  1  0.50059131  0.16679797  0.16870572  1
  Ni  Ni11  1  0.33625303  1.00067491  0.33530320  1
  Fe  Fe12  1  0.33546493  0.33480935  0.00132556  1
  Ni  Ni13  1  0.50454110  0.50125911  0.16610774  1
  Cr  Cr14  1  0.33607104  0.33300135  0.33518071  1
  Ni  Ni15  1  0.33665522  0.66686269  0.00172222  1
  Ni  Ni16  1  0.50184623  0.83427890  0.16860589  1
  Cr  Cr17  1  0.33507023  0.67005951  0.33528736  1
  Cr  Cr18  1  0.66965590  0.00114371  0.00169211  1
  Fe  Fe19  1  0.83392675  0.16803584  0.16638326  1
  Ni  Ni20  1  0.66605455  1.00061136  0.33462340  1
  Ni  Ni21  1  0.66785314  0.33622327  1.00021137  1
  Fe  Fe22  1  0.83126059  0.50203610  0.16747111  1
  Ni  Ni23  1  0.66739776  0.33460823  0.33510483  1
  Ni  Ni24  1  0.66572638  0.66514149  0.00186940  1
  Ni  Ni25  1  0.83294460  0.83402988  0.16850825  1
  Ni  Ni26  1  0.66876089  0.66819713  0.33391018  1
  Fe  Fe27  1  0.16819671  0.16538043  0.50240895  1
  Ni  Ni28  1  0.99828883  0.00196984  0.66709312  1
  Cr  Cr29  1  0.16653917  0.16881805  0.83549747  1
  Ni  Ni30  1  0.16500760  0.50146753  0.50201148  1
  Ni  Ni31  1  1.00008440  0.33415102  0.66733969  1
  Ni  Ni32  1  0.16644987  0.49913781  0.83550745  1
  Ni  Ni33  1  0.16726003  0.83444993  0.50142163  1
  Fe  Fe34  1  0.99854268  0.66743747  0.66671100  1
  Cr  Cr35  1  0.16664923  0.83458614  0.83501285  1
  Ni  Ni36  1  0.50254659  0.16592317  0.50073863  1
  Fe  Fe37  1  0.33547370  0.00161364  0.66498772  1
  Fe  Fe38  1  0.50347773  0.16913903  0.83409865  1
  Fe  Fe39  1  0.50386287  0.50230222  0.50037939  1
  Cr  Cr40  1  0.33398858  0.33524640  0.66746523  1
  Fe  Fe41  1  0.50357970  0.50047421  0.83687438  1
  Ni  Ni42  1  0.50287180  0.83732885  0.50038111  1
  Cr  Cr43  1  0.33482792  0.66695891  0.66645486  1
  Cr  Cr44  1  0.50307666  0.83469064  0.83453360  1
  Fe  Fe45  1  0.83290492  0.16665550  0.50323635  1
  Ni  Ni46  1  0.66999879  1.00089228  0.66728389  1
  Ni  Ni47  1  0.83388243  0.16967944  0.83361484  1
  Fe  Fe48  1  0.83370227  0.50298742  0.50183819  1
  Fe  Fe49  1  0.67003410  0.33372179  0.66813737  1
  Ni  Ni50  1  0.83374872  0.49940379  0.83383910  1
  Ni  Ni51  1  0.83328208  0.83345183  0.50232234  1
  Ni  Ni52  1  0.66934962  0.66868967  0.66763457  1
  Ni  Ni53  1  0.83322523  0.83433057  0.83258338  1
" 