2387,Ni54Fe25Cr19_18,-232.337850862032, 186.509631541833,Ni54Fe25Cr19,"# generated using pymatgen
 data_Cr12Fe13Ni29
_symmetry_space_group_name_H-M   'P 1'
_cell_length_a   7.44984669
_cell_length_b   7.44984669
_cell_length_c   10.53567422
_cell_angle_alpha   90.00000000
_cell_angle_beta   90.00000000
_cell_angle_gamma   90.00000000
_symmetry_Int_Tables_number   1
_chemical_formula_structural   Cr12Fe13Ni29
_chemical_formula_sum   'Cr12 Fe13 Ni29'
_cell_volume   584.73219131
_cell_formula_units_Z   1
loop_
 _symmetry_equiv_pos_site_id
 _symmetry_equiv_pos_as_xyz
  1  'x, y, z'
loop_
 _atom_site_type_symbol
 _atom_site_label
 _atom_site_symmetry_multiplicity
 _atom_site_fract_x
 _atom_site_fract_y
 _atom_site_fract_z
 _atom_site_occupancy
  Fe  Fe0  1  0.00151754  0.00284871  0.00141711  1
  Fe  Fe1  1  0.16677254  0.16754545  0.16679132  1
  Fe  Fe2  1  1.00073451  0.00180118  0.33552839  1
  Ni  Ni3  1  0.00202676  0.33421322  0.00147999  1
  Ni  Ni4  1  0.16792027  0.50177239  0.16658287  1
  Ni  Ni5  1  0.00200897  0.33373160  0.33517016  1
  Fe  Fe6  1  0.00397916  0.66539255  1.00024657  1
  Ni  Ni7  1  0.17053742  0.83464728  0.16773772  1
  Ni  Ni8  1  0.00186756  0.66837578  0.33472917  1
  Fe  Fe9  1  0.33440720  1.00041435  0.00321178  1
  Fe  Fe10  1  0.50031036  0.16579416  0.16650604  1
  Fe  Fe11  1  0.33382898  0.99796170  0.33384522  1
  Ni  Ni12  1  0.33160316  0.33513607  0.00323358  1
  Cr  Cr13  1  0.49945603  0.50166548  0.16696290  1
  Cr  Cr14  1  0.33144048  0.33472318  0.33404869  1
  Ni  Ni15  1  0.33166056  0.66823592  0.00292367  1
  Ni  Ni16  1  0.49645978  0.83636271  0.16975659  1
  Fe  Fe17  1  0.33381256  0.66946175  0.33458089  1
  Cr  Cr18  1  0.66823819  0.00194115  1.00041177  1
  Ni  Ni19  1  0.83612327  0.16829438  0.16781344  1
  Fe  Fe20  1  0.66890242  0.99916815  0.33483698  1
  Ni  Ni21  1  0.66983389  0.33196217  0.00183952  1
  Cr  Cr22  1  0.83696909  0.49889588  0.16778960  1
  Cr  Cr23  1  0.67018248  0.33425837  0.33394195  1
  Cr  Cr24  1  0.66769475  0.66883124  0.99850775  1
  Cr  Cr25  1  0.83630485  0.83550292  0.16979960  1
  Ni  Ni26  1  0.66772756  0.67141130  0.33697585  1
  Fe  Fe27  1  0.16546201  0.16710256  0.50247053  1
  Ni  Ni28  1  0.99908598  1.00086786  0.66631636  1
  Cr  Cr29  1  0.16700381  0.16906480  0.83379797  1
  Fe  Fe30  1  0.16662217  0.50229459  0.50193814  1
  Fe  Fe31  1  0.99977977  0.33531238  0.66743260  1
  Ni  Ni32  1  0.16629050  0.50136177  0.83500968  1
  Fe  Fe33  1  0.16716150  0.83406772  0.50155605  1
  Ni  Ni34  1  1.00019806  0.66793990  0.66818863  1
  Cr  Cr35  1  0.16810253  0.83300541  0.83477406  1
  Cr  Cr36  1  0.50137192  0.16702145  0.50387129  1
  Ni  Ni37  1  0.33469042  0.99995820  0.66689173  1
  Cr  Cr38  1  0.50181299  0.16762722  0.83341465  1
  Ni  Ni39  1  0.50097331  0.50423106  0.50286011  1
  Ni  Ni40  1  0.33330919  0.33577821  0.66661156  1
  Cr  Cr41  1  0.50037467  0.50137034  0.83329165  1
  Ni  Ni42  1  0.50077273  0.83247294  0.50102836  1
  Ni  Ni43  1  0.33469402  0.66772688  0.66587615  1
  Ni  Ni44  1  0.50113733  0.83439662  0.83267535  1
  Ni  Ni45  1  0.83727599  0.16740426  0.50200358  1
  Ni  Ni46  1  0.66968427  0.99948550  0.66800238  1
  Ni  Ni47  1  0.83497755  0.16876171  0.83364565  1
  Ni  Ni48  1  0.83517686  0.50170895  0.50132910  1
  Ni  Ni49  1  0.66947493  0.33466362  0.66770955  1
  Ni  Ni50  1  0.83666927  0.50016755  0.83421942  1
  Ni  Ni51  1  0.83472901  0.83435270  0.50091063  1
  Ni  Ni52  1  0.66856872  0.66931405  0.66712394  1
  Ni  Ni53  1  0.83462033  0.83453291  0.83272198  1
" 