4477,Ni54Fe25Cr19_9,-232.468285303539, 185.935827259316,Ni54Fe25Cr19,"# generated using pymatgen
 data_Cr12Fe13Ni29
_symmetry_space_group_name_H-M   'P 1'
_cell_length_a   7.44647328
_cell_length_b   7.44647328
_cell_length_c   10.53090350
_cell_angle_alpha   90.00000000
_cell_angle_beta   90.00000000
_cell_angle_gamma   90.00000000
_symmetry_Int_Tables_number   1
_chemical_formula_structural   Cr12Fe13Ni29
_chemical_formula_sum   'Cr12 Fe13 Ni29'
_cell_volume   583.93822259
_cell_formula_units_Z   1
loop_
 _symmetry_equiv_pos_site_id
 _symmetry_equiv_pos_as_xyz
  1  'x, y, z'
loop_
 _atom_site_type_symbol
 _atom_site_label
 _atom_site_symmetry_multiplicity
 _atom_site_fract_x
 _atom_site_fract_y
 _atom_site_fract_z
 _atom_site_occupancy
  Ni  Ni0  1  1.00018074  0.00151856  0.99981902  1
  Cr  Cr1  1  0.16653554  0.16778336  0.16523102  1
  Fe  Fe2  1  1.00041776  1.00048070  0.33531388  1
  Ni  Ni3  1  0.99940653  0.33534137  0.99956942  1
  Cr  Cr4  1  0.16669328  0.50225142  0.16681282  1
  Ni  Ni5  1  0.99758207  0.33629570  0.33545468  1
  Ni  Ni6  1  1.00054182  0.66732107  0.99940877  1
  Cr  Cr7  1  0.16832148  0.83420813  0.16836890  1
  Ni  Ni8  1  0.99978925  0.66594147  0.33713622  1
  Ni  Ni9  1  0.33492917  1.00087542  0.99797733  1
  Cr  Cr10  1  0.50270314  0.16748851  0.16758214  1
  Ni  Ni11  1  0.33662842  0.99879388  0.33723764  1
  Ni  Ni12  1  0.33619829  0.33560774  0.99854713  1
  Fe  Fe13  1  0.50349858  0.50268328  0.16677388  1
  Cr  Cr14  1  0.33645331  0.33714066  0.33515952  1
  Ni  Ni15  1  0.33516353  0.66744595  0.99923446  1
  Cr  Cr16  1  0.50211534  0.83325567  0.16503024  1
  Ni  Ni17  1  0.33634550  0.66963187  0.33719845  1
  Ni  Ni18  1  0.66874634  0.00234509  0.99867493  1
  Ni  Ni19  1  0.83412059  0.16964839  0.16829156  1
  Fe  Fe20  1  0.66849384  1.00056292  0.33669407  1
  Ni  Ni21  1  0.66877008  0.33558445  0.00229271  1
  Ni  Ni22  1  0.83372145  0.50082073  0.16758535  1
  Fe  Fe23  1  0.66975876  0.33787185  0.33499789  1
  Ni  Ni24  1  0.66856906  0.66631935  0.99934087  1
  Cr  Cr25  1  0.83388208  0.83322929  0.16772955  1
  Ni  Ni26  1  0.66833441  0.66689829  0.33578030  1
  Cr  Cr27  1  0.16761359  0.16940466  0.50070918  1
  Cr  Cr28  1  0.99970999  0.99886270  0.66893274  1
  Ni  Ni29  1  0.16998433  0.16940768  0.83797310  1
  Ni  Ni30  1  0.16774305  0.50269759  0.50237025  1
  Cr  Cr31  1  0.00222902  0.33746850  0.67052192  1
  Ni  Ni32  1  0.16948600  0.50199374  0.83447979  1
  Fe  Fe33  1  0.16893298  0.83073305  0.50090961  1
  Ni  Ni34  1  1.00086356  0.66786862  0.66764924  1
  Ni  Ni35  1  0.16568251  0.83260031  0.83631685  1
  Fe  Fe36  1  0.50317195  0.16862813  0.50160262  1
  Cr  Cr37  1  0.33623061  1.00087779  0.66979806  1
  Ni  Ni38  1  0.50197234  0.16899549  0.83500125  1
  Ni  Ni39  1  0.50211238  0.50450138  0.50084988  1
  Ni  Ni40  1  0.33610791  0.33677278  0.66851839  1
  Ni  Ni41  1  0.50102331  0.50079607  0.83588142  1
  Ni  Ni42  1  0.50392652  0.83417865  0.50206484  1
  Fe  Fe43  1  0.33467560  0.66636443  0.66828946  1
  Fe  Fe44  1  0.50144491  0.83367908  0.83583706  1
  Fe  Fe45  1  0.83201182  0.16885820  0.49945179  1
  Ni  Ni46  1  0.66758911  0.99962817  0.66776203  1
  Fe  Fe47  1  0.83370120  0.16755221  0.83695574  1
  Ni  Ni48  1  0.83455034  0.50319363  0.50101016  1
  Cr  Cr49  1  0.66688967  0.33502504  0.66781744  1
  Fe  Fe50  1  0.83480966  0.50311546  0.83625049  1
  Fe  Fe51  1  0.83340515  0.83172971  0.50188243  1
  Fe  Fe52  1  0.66795849  0.66879777  0.66806153  1
  Ni  Ni53  1  0.83287366  0.83352408  0.83446000  1
" 