3085,Ni54Fe46_14,-240.369259468288, 221.597618182822,Ni54Fe46,"# generated using pymatgen
 data_Fe29Ni25
_symmetry_space_group_name_H-M   'P 1'
_cell_length_a   7.39649597
_cell_length_b   7.39649597
_cell_length_c   10.46022491
_cell_angle_alpha   90.00000000
_cell_angle_beta   90.00000000
_cell_angle_gamma   90.00000000
_symmetry_Int_Tables_number   1
_chemical_formula_structural   Fe29Ni25
_chemical_formula_sum   'Fe29 Ni25'
_cell_volume   572.25958034
_cell_formula_units_Z   1
loop_
 _symmetry_equiv_pos_site_id
 _symmetry_equiv_pos_as_xyz
  1  'x, y, z'
loop_
 _atom_site_type_symbol
 _atom_site_label
 _atom_site_symmetry_multiplicity
 _atom_site_fract_x
 _atom_site_fract_y
 _atom_site_fract_z
 _atom_site_occupancy
  Ni  Ni0  1  0.00620744  0.00540422  1.00465574  1
  Fe  Fe1  1  0.17120031  0.17206149  0.17091343  1
  Ni  Ni2  1  0.00678772  0.00550727  0.33841166  1
  Ni  Ni3  1  0.00548322  0.33719998  1.00393231  1
  Ni  Ni4  1  0.17242315  0.50568843  0.17096557  1
  Ni  Ni5  1  1.00441389  0.33709958  0.33902999  1
  Fe  Fe6  1  0.00533456  0.67138270  1.00432177  1
  Fe  Fe7  1  0.17158917  0.83876898  0.17199783  1
  Fe  Fe8  1  0.00507555  0.67108996  0.33875907  1
  Ni  Ni9  1  0.33666762  0.00540298  1.00403978  1
  Fe  Fe10  1  0.50404657  0.17226731  0.17143998  1
  Ni  Ni11  1  0.33618571  1.00467144  0.33856387  1
  Ni  Ni12  1  0.33739332  0.33720477  0.00516955  1
  Ni  Ni13  1  0.50340172  0.50459957  0.17172993  1
  Fe  Fe14  1  0.33817912  0.33825715  0.33802966  1
  Fe  Fe15  1  0.33754410  0.67079738  0.00520910  1
  Fe  Fe16  1  0.50477107  0.83744576  0.17151341  1
  Fe  Fe17  1  0.33738640  0.67110699  0.33802704  1
  Fe  Fe18  1  0.67172715  0.00551888  1.00447564  1
  Ni  Ni19  1  0.83774477  0.17031623  0.17059916  1
  Fe  Fe20  1  0.67213931  0.00605105  0.33831251  1
  Fe  Fe21  1  0.67114014  0.33754478  1.00455929  1
  Fe  Fe22  1  0.83773493  0.50420352  0.17172208  1
  Ni  Ni23  1  0.67216512  0.34057579  0.33815406  1
  Ni  Ni24  1  0.67142663  0.67096812  1.00413962  1
  Fe  Fe25  1  0.83794930  0.83747347  0.17071676  1
  Ni  Ni26  1  0.67132539  0.67015253  0.33919273  1
  Fe  Fe27  1  0.17094929  0.17168986  0.50442641  1
  Fe  Fe28  1  1.00399691  1.00473199  0.67130027  1
  Fe  Fe29  1  0.17166618  0.17198106  0.83896550  1
  Ni  Ni30  1  0.17107929  0.50651951  0.50487726  1
  Fe  Fe31  1  1.00385246  0.33924945  0.67093483  1
  Fe  Fe32  1  0.17165334  0.50397187  0.83831337  1
  Ni  Ni33  1  0.17154236  0.83708018  0.50432304  1
  Fe  Fe34  1  1.00436058  0.67032894  0.67122596  1
  Fe  Fe35  1  0.17142273  0.83835243  0.83795840  1
  Ni  Ni36  1  0.50598395  0.17107786  0.50373894  1
  Fe  Fe37  1  0.33944453  0.00532890  0.67114334  1
  Ni  Ni38  1  0.50455508  0.17190332  0.83939636  1
  Fe  Fe39  1  0.50548652  0.50428075  0.50505977  1
  Ni  Ni40  1  0.33835534  0.33752005  0.67066812  1
  Ni  Ni41  1  0.50464445  0.50356309  0.83780146  1
  Fe  Fe42  1  0.50488711  0.83782905  0.50439866  1
  Fe  Fe43  1  0.33849401  0.67031177  0.67106975  1
  Fe  Fe44  1  0.50605454  0.83732078  0.83839468  1
  Ni  Ni45  1  0.83641574  0.17154201  0.50561003  1
  Fe  Fe46  1  0.67086888  0.00584033  0.67152062  1
  Fe  Fe47  1  0.83763632  0.17198103  0.83839117  1
  Ni  Ni48  1  0.83881577  0.50412476  0.50385098  1
  Ni  Ni49  1  0.67089862  0.34018807  0.67201690  1
  Ni  Ni50  1  0.83785143  0.50559434  0.83929597  1
  Fe  Fe51  1  0.83839701  0.83781349  0.50519743  1
  Ni  Ni52  1  0.67173809  0.67063862  0.67097727  1
  Ni  Ni53  1  0.83904616  0.83801628  0.83810208  1
" 