7646,Ni54Fe46_13,-239.837620028361, 215.9988732395,Ni54Fe46,"# generated using pymatgen
 data_Fe29Ni25
_symmetry_space_group_name_H-M   'P 1'
_cell_length_a   7.39675043
_cell_length_b   7.39675043
_cell_length_c   10.46058477
_cell_angle_alpha   90.00000000
_cell_angle_beta   90.00000000
_cell_angle_gamma   90.00000000
_symmetry_Int_Tables_number   1
_chemical_formula_structural   Fe29Ni25
_chemical_formula_sum   'Fe29 Ni25'
_cell_volume   572.31864492
_cell_formula_units_Z   1
loop_
 _symmetry_equiv_pos_site_id
 _symmetry_equiv_pos_as_xyz
  1  'x, y, z'
loop_
 _atom_site_type_symbol
 _atom_site_label
 _atom_site_symmetry_multiplicity
 _atom_site_fract_x
 _atom_site_fract_y
 _atom_site_fract_z
 _atom_site_occupancy
  Ni  Ni0  1  0.00500305  1.00367676  1.00368650  1
  Fe  Fe1  1  0.17147641  0.17203067  0.17134774  1
  Ni  Ni2  1  0.00499918  1.00449390  0.33882522  1
  Fe  Fe3  1  1.00392460  0.33852276  1.00460878  1
  Ni  Ni4  1  0.17101422  0.50481535  0.17123130  1
  Fe  Fe5  1  0.00475521  0.33896023  0.33822835  1
  Ni  Ni6  1  1.00392666  0.67342363  0.00494422  1
  Fe  Fe7  1  0.17076521  0.83733569  0.17142547  1
  Fe  Fe8  1  0.00482286  0.67001355  0.33829606  1
  Fe  Fe9  1  0.33847538  1.00436310  1.00427583  1
  Fe  Fe10  1  0.50513874  0.17328851  0.17193072  1
  Fe  Fe11  1  0.33897941  0.00480014  0.33848818  1
  Ni  Ni12  1  0.33982277  0.33783198  1.00457774  1
  Ni  Ni13  1  0.50474438  0.50656944  0.17174526  1
  Ni  Ni14  1  0.33955480  0.33866920  0.33858518  1
  Fe  Fe15  1  0.33854182  0.67124619  0.00557550  1
  Ni  Ni16  1  0.50441344  0.83777831  0.17193109  1
  Ni  Ni17  1  0.33888517  0.67009139  0.33817474  1
  Fe  Fe18  1  0.67159758  1.00468403  1.00460952  1
  Ni  Ni19  1  0.83850643  0.17199057  0.17183825  1
  Fe  Fe20  1  0.67052441  0.00487164  0.33803421  1
  Ni  Ni21  1  0.66942917  0.33890602  1.00458097  1
  Ni  Ni22  1  0.83849462  0.50406637  0.17141946  1
  Ni  Ni23  1  0.66969482  0.33899424  0.33826239  1
  Ni  Ni24  1  0.67190996  0.67027174  1.00434158  1
  Fe  Fe25  1  0.83809767  0.83715395  0.17130241  1
  Ni  Ni26  1  0.67069692  0.67009904  0.33849929  1
  Ni  Ni27  1  0.17199803  0.17149102  0.50431968  1
  Ni  Ni28  1  0.00500219  1.00402604  0.67174062  1
  Ni  Ni29  1  0.17051551  0.17110448  0.83818860  1
  Ni  Ni30  1  0.17016927  0.50451901  0.50492815  1
  Fe  Fe31  1  0.00475415  0.33823067  0.67141525  1
  Fe  Fe32  1  0.17105166  0.50463295  0.83813853  1
  Fe  Fe33  1  0.17082479  0.83815580  0.50488796  1
  Ni  Ni34  1  1.00466467  0.67305843  0.67100323  1
  Fe  Fe35  1  0.17001612  0.83860797  0.83794307  1
  Ni  Ni36  1  0.50394237  0.16973575  0.50465763  1
  Fe  Fe37  1  0.33746590  1.00455693  0.67149103  1
  Fe  Fe38  1  0.50512342  0.17199866  0.83781063  1
  Fe  Fe39  1  0.50424168  0.50370588  0.50355224  1
  Fe  Fe40  1  0.33660684  0.33755728  0.67096212  1
  Fe  Fe41  1  0.50532927  0.50392644  0.83909530  1
  Fe  Fe42  1  0.50431281  0.83763366  0.50450951  1
  Fe  Fe43  1  0.33726103  0.67213657  0.67097696  1
  Ni  Ni44  1  0.50440772  0.83806591  0.83790996  1
  Fe  Fe45  1  0.83864872  0.17184415  0.50455773  1
  Fe  Fe46  1  0.67177153  1.00436235  0.67161029  1
  Ni  Ni47  1  0.83933194  0.17218466  0.83725479  1
  Ni  Ni48  1  0.83906693  0.50526902  0.50408560  1
  Fe  Fe49  1  0.67289632  0.33801992  0.67141134  1
  Ni  Ni50  1  0.83859696  0.50434385  0.83875115  1
  Fe  Fe51  1  0.83911824  0.83821335  0.50488863  1
  Fe  Fe52  1  0.67243898  0.67187068  0.67168164  1
  Fe  Fe53  1  0.83885045  0.83840256  0.83806481  1
" 