5769,Ni54Fe7Cr38_7,-223.597932780521, 149.846207168503,Ni54Fe7Cr38,"# generated using pymatgen
 data_Cr22Fe3Ni29
_symmetry_space_group_name_H-M   'P 1'
_cell_length_a   7.50072224
_cell_length_b   7.50072224
_cell_length_c   10.60762311
_cell_angle_alpha   90.00000000
_cell_angle_beta   90.00000000
_cell_angle_gamma   90.00000000
_symmetry_Int_Tables_number   1
_chemical_formula_structural   Cr22Fe3Ni29
_chemical_formula_sum   'Cr22 Fe3 Ni29'
_cell_volume   596.79372398
_cell_formula_units_Z   1
loop_
 _symmetry_equiv_pos_site_id
 _symmetry_equiv_pos_as_xyz
  1  'x, y, z'
loop_
 _atom_site_type_symbol
 _atom_site_label
 _atom_site_symmetry_multiplicity
 _atom_site_fract_x
 _atom_site_fract_y
 _atom_site_fract_z
 _atom_site_occupancy
  Fe  Fe0  1  0.99690553  0.00060176  0.99569798  1
  Ni  Ni1  1  0.16380782  0.16610228  0.15947257  1
  Cr  Cr2  1  0.99464923  -0.00035124  0.32937845  1
  Ni  Ni3  1  -0.00137477  0.33110372  -0.00179225  1
  Cr  Cr4  1  0.16593613  0.49759002  0.16390054  1
  Cr  Cr5  1  0.99519569  0.32812607  0.32712480  1
  Fe  Fe6  1  0.99646750  0.66137771  0.99456397  1
  Cr  Cr7  1  0.16479579  0.83091104  0.15951587  1
  Cr  Cr8  1  0.99163087  0.66511408  0.33072603  1
  Ni  Ni9  1  0.32819435  -0.00042889  0.99484117  1
  Cr  Cr10  1  0.49865816  0.16479930  0.16295145  1
  Cr  Cr11  1  0.33045640  -0.00058243  0.33194539  1
  Ni  Ni12  1  0.32821849  0.33145801  0.99590772  1
  Ni  Ni13  1  0.49945646  0.49731944  0.16392763  1
  Ni  Ni14  1  0.33432049  0.33173784  0.32856045  1
  Ni  Ni15  1  0.33204897  0.66254317  0.99497216  1
  Cr  Cr16  1  0.49879152  0.82998122  0.16221529  1
  Cr  Cr17  1  0.33568865  0.66359020  0.33429665  1
  Ni  Ni18  1  0.66592239  0.99735855  0.99646741  1
  Ni  Ni19  1  0.83067644  0.16490779  0.16368313  1
  Ni  Ni20  1  0.66757522  0.99770402  0.33287291  1
  Cr  Cr21  1  0.66671218  0.33362554  0.99687696  1
  Ni  Ni22  1  0.82831229  0.49640837  0.16246215  1
  Ni  Ni23  1  0.66511513  0.33219096  0.32939033  1
  Ni  Ni24  1  0.66565297  0.66313631  0.99658280  1
  Cr  Cr25  1  0.82878985  0.83046872  0.16041252  1
  Ni  Ni26  1  0.66438723  0.66290310  0.33107157  1
  Cr  Cr27  1  0.16094248  0.16755780  0.49971411  1
  Ni  Ni28  1  0.99449049  0.99682714  0.66584898  1
  Fe  Fe29  1  0.16224245  0.16535218  0.83310245  1
  Cr  Cr30  1  0.16384265  0.49607304  0.49916390  1
  Ni  Ni31  1  0.99532720  0.33066965  0.66716466  1
  Ni  Ni32  1  0.16205747  0.49871917  0.83214813  1
  Cr  Cr33  1  0.16007998  0.82940262  0.50034295  1
  Ni  Ni34  1  0.99568043  0.66564951  0.66888712  1
  Ni  Ni35  1  0.16124002  0.82962618  0.83320570  1
  Cr  Cr36  1  0.50307815  0.16670515  0.49861657  1
  Cr  Cr37  1  0.33196544  0.99673800  0.66685102  1
  Ni  Ni38  1  0.49781260  0.16538787  0.83246760  1
  Ni  Ni39  1  0.50137405  0.49605495  0.49521262  1
  Cr  Cr40  1  0.33331817  0.33281448  0.66945850  1
  Ni  Ni41  1  0.49738926  0.49542674  0.83405784  1
  Ni  Ni42  1  0.50479219  0.83121244  0.49633100  1
  Cr  Cr43  1  0.33294875  0.66435019  0.66465111  1
  Cr  Cr44  1  0.50065294  0.83445430  0.83529852  1
  Ni  Ni45  1  0.82875177  0.16266761  0.49955417  1
  Ni  Ni46  1  0.66809494  -0.00213753  0.66369872  1
  Cr  Cr47  1  0.82823296  0.16372010  0.82826793  1
  Cr  Cr48  1  0.83099878  0.49477925  0.50014984  1
  Ni  Ni49  1  0.66616465  0.33088157  0.66638294  1
  Ni  Ni50  1  0.83391509  0.49835595  0.83137719  1
  Ni  Ni51  1  0.82746299  0.83342147  0.50026319  1
  Cr  Cr52  1  0.66448301  0.66360824  0.66647205  1
  Ni  Ni53  1  0.83445311  0.83076827  0.83206854  1
" 