5182,Ni54Fe46_15,-239.906986433949, 218.549949175334,Ni54Fe46,"# generated using pymatgen
 data_Fe29Ni25
_symmetry_space_group_name_H-M   'P 1'
_cell_length_a   7.39553546
_cell_length_b   7.39553546
_cell_length_c   10.45886655
_cell_angle_alpha   90.00000000
_cell_angle_beta   90.00000000
_cell_angle_gamma   90.00000000
_symmetry_Int_Tables_number   1
_chemical_formula_structural   Fe29Ni25
_chemical_formula_sum   'Fe29 Ni25'
_cell_volume   572.03666865
_cell_formula_units_Z   1
loop_
 _symmetry_equiv_pos_site_id
 _symmetry_equiv_pos_as_xyz
  1  'x, y, z'
loop_
 _atom_site_type_symbol
 _atom_site_label
 _atom_site_symmetry_multiplicity
 _atom_site_fract_x
 _atom_site_fract_y
 _atom_site_fract_z
 _atom_site_occupancy
  Fe  Fe0  1  1.00340854  0.00483735  1.00449237  1
  Fe  Fe1  1  0.17128663  0.17171174  0.17171638  1
  Fe  Fe2  1  1.00475448  1.00382723  0.33858483  1
  Ni  Ni3  1  0.00523969  0.33807879  1.00456966  1
  Ni  Ni4  1  0.17293288  0.50493584  0.17140330  1
  Ni  Ni5  1  1.00482685  0.33797877  0.33816664  1
  Fe  Fe6  1  1.00378799  0.67136750  1.00462644  1
  Ni  Ni7  1  0.17082124  0.83769464  0.17224921  1
  Fe  Fe8  1  0.00541909  0.67166128  0.33866575  1
  Fe  Fe9  1  0.33887025  1.00477347  0.00504109  1
  Fe  Fe10  1  0.50460246  0.17134273  0.17158906  1
  Ni  Ni11  1  0.33749286  1.00321731  0.33816693  1
  Fe  Fe12  1  0.33933438  0.33859165  0.00525758  1
  Ni  Ni13  1  0.50437281  0.50329071  0.17149696  1
  Fe  Fe14  1  0.33870423  0.33930857  0.33803963  1
  Fe  Fe15  1  0.33879160  0.67113607  0.00554705  1
  Fe  Fe16  1  0.50446139  0.83702079  0.17113554  1
  Ni  Ni17  1  0.33873420  0.67331605  0.33817069  1
  Ni  Ni18  1  0.67054197  1.00396186  0.00531595  1
  Fe  Fe19  1  0.83861922  0.17230374  0.17070423  1
  Fe  Fe20  1  0.67150270  1.00465574  0.33825082  1
  Ni  Ni21  1  0.67255768  0.33846308  1.00425329  1
  Fe  Fe22  1  0.83824453  0.50525840  0.17091718  1
  Ni  Ni23  1  0.67297258  0.33921636  0.33800219  1
  Ni  Ni24  1  0.67054929  0.67207758  1.00483261  1
  Ni  Ni25  1  0.83845098  0.83932338  0.17053887  1
  Ni  Ni26  1  0.67011215  0.67123710  0.33778718  1
  Fe  Fe27  1  0.17065826  0.17108335  0.50483185  1
  Ni  Ni28  1  0.00540440  0.00552182  0.67189173  1
  Fe  Fe29  1  0.17051507  0.17136971  0.83795764  1
  Ni  Ni30  1  0.17208579  0.50513284  0.50492613  1
  Ni  Ni31  1  0.00588406  0.33797931  0.67176546  1
  Fe  Fe32  1  0.17043370  0.50480382  0.83787358  1
  Ni  Ni33  1  0.17082209  0.83749083  0.50456768  1
  Ni  Ni34  1  0.00500775  0.67100340  0.67151543  1
  Ni  Ni35  1  0.17232822  0.83824126  0.83769088  1
  Fe  Fe36  1  0.50438679  0.17070670  0.50453597  1
  Fe  Fe37  1  0.33745635  1.00377859  0.67129575  1
  Fe  Fe38  1  0.50573761  0.17069346  0.83837904  1
  Fe  Fe39  1  0.50484097  0.50626248  0.50374468  1
  Fe  Fe40  1  0.33762094  0.33838244  0.67120610  1
  Fe  Fe41  1  0.50589920  0.50556334  0.83896070  1
  Fe  Fe42  1  0.50454787  0.83753716  0.50520266  1
  Fe  Fe43  1  0.33707976  0.67234332  0.67108638  1
  Ni  Ni44  1  0.50415957  0.83863162  0.83816759  1
  Fe  Fe45  1  0.83946317  0.17137598  0.50555182  1
  Ni  Ni46  1  0.67109131  1.00351580  0.67140219  1
  Ni  Ni47  1  0.83722311  0.17271368  0.83778372  1
  Fe  Fe48  1  0.83909799  0.50568443  0.50542001  1
  Fe  Fe49  1  0.67319002  0.33800367  0.67192222  1
  Ni  Ni50  1  0.83761553  0.50276804  0.83816498  1
  Ni  Ni51  1  0.83855200  0.83911763  0.50617498  1
  Ni  Ni52  1  0.67109491  0.67262052  0.67188345  1
  Fe  Fe53  1  0.83749112  0.83816732  0.83765615  1
" 