1594,Ni54Fe25Cr19_0,-232.77578636209, 192.434347233012,Ni54Fe25Cr19,"# generated using pymatgen
 data_Cr12Fe13Ni29
_symmetry_space_group_name_H-M   'P 1'
_cell_length_a   7.44483418
_cell_length_b   7.44483418
_cell_length_c   10.52858547
_cell_angle_alpha   90.00000000
_cell_angle_beta   90.00000000
_cell_angle_gamma   90.00000000
_symmetry_Int_Tables_number   1
_chemical_formula_structural   Cr12Fe13Ni29
_chemical_formula_sum   'Cr12 Fe13 Ni29'
_cell_volume   583.55270360
_cell_formula_units_Z   1
loop_
 _symmetry_equiv_pos_site_id
 _symmetry_equiv_pos_as_xyz
  1  'x, y, z'
loop_
 _atom_site_type_symbol
 _atom_site_label
 _atom_site_symmetry_multiplicity
 _atom_site_fract_x
 _atom_site_fract_y
 _atom_site_fract_z
 _atom_site_occupancy
  Ni  Ni0  1  0.00398574  0.99855621  0.99990586  1
  Ni  Ni1  1  0.16747410  0.17040723  0.16598828  1
  Fe  Fe2  1  0.99975565  0.00313335  0.33442960  1
  Fe  Fe3  1  0.00181275  0.33364195  0.99942349  1
  Fe  Fe4  1  0.16821938  0.49865637  0.16625177  1
  Fe  Fe5  1  0.99927360  0.33520082  0.33453715  1
  Ni  Ni6  1  0.99952656  0.66718207  1.00122138  1
  Cr  Cr7  1  0.16715588  0.83395340  0.16703098  1
  Fe  Fe8  1  1.00011564  0.66659262  0.33293746  1
  Ni  Ni9  1  0.33247500  0.00558345  0.99869851  1
  Ni  Ni10  1  0.50109923  0.17240658  0.16859662  1
  Cr  Cr11  1  0.33352317  0.00605651  0.33467837  1
  Ni  Ni12  1  0.33567544  0.33400657  0.00348001  1
  Ni  Ni13  1  0.50304124  0.50000613  0.16788980  1
  Ni  Ni14  1  0.33548579  0.33760422  0.33041765  1
  Fe  Fe15  1  0.33428061  0.66752843  0.99808408  1
  Cr  Cr16  1  0.50255646  0.83264369  0.16743358  1
  Fe  Fe17  1  0.33816663  0.66535789  0.33503852  1
  Cr  Cr18  1  0.66803531  0.00216963  1.00105977  1
  Cr  Cr19  1  0.83499837  0.17050441  0.16804193  1
  Ni  Ni20  1  0.67100165  0.00184166  0.33295819  1
  Ni  Ni21  1  0.66550216  0.33808190  0.99996570  1
  Ni  Ni22  1  0.83420908  0.50149007  0.16757305  1
  Ni  Ni23  1  0.66722957  0.33792212  0.33639357  1
  Fe  Fe24  1  0.66884735  0.66579447  1.00068353  1
  Fe  Fe25  1  0.83550925  0.83244935  0.16783551  1
  Ni  Ni26  1  0.67201922  0.66450221  0.33184436  1
  Cr  Cr27  1  0.16293376  0.16680458  0.50363281  1
  Ni  Ni28  1  1.00079125  1.00048780  0.66987726  1
  Ni  Ni29  1  0.16619815  0.16810285  0.83645717  1
  Cr  Cr30  1  0.16865436  0.50422907  0.49971856  1
  Ni  Ni31  1  0.99867244  0.33642367  0.67049781  1
  Ni  Ni32  1  0.16680699  0.50285433  0.83708720  1
  Ni  Ni33  1  0.16622729  0.83220195  0.50426145  1
  Ni  Ni34  1  0.00208902  0.66762543  0.66908323  1
  Ni  Ni35  1  0.16769023  0.83300159  0.83230292  1
  Cr  Cr36  1  0.50716459  0.16997543  0.50223066  1
  Ni  Ni37  1  0.33340814  0.99947866  0.67197793  1
  Ni  Ni38  1  0.50281041  0.16773925  0.83519868  1
  Ni  Ni39  1  0.50334967  0.50206998  0.49978003  1
  Cr  Cr40  1  0.33515052  0.33501768  0.67069709  1
  Fe  Fe41  1  0.49925739  0.50127079  0.83727946  1
  Cr  Cr42  1  0.49911487  0.83222011  0.50264138  1
  Ni  Ni43  1  0.33257291  0.66841337  0.66917669  1
  Ni  Ni44  1  0.49971216  0.83469762  0.83426412  1
  Ni  Ni45  1  0.83447788  0.17066016  0.50255056  1
  Ni  Ni46  1  0.67007531  0.00235105  0.67082138  1
  Ni  Ni47  1  0.83552535  0.16875746  0.83279924  1
  Fe  Fe48  1  0.83434247  0.49965064  0.50036831  1
  Fe  Fe49  1  0.67128988  0.33394349  0.66959559  1
  Fe  Fe50  1  0.83771189  0.50070446  0.83754776  1
  Cr  Cr51  1  0.83650314  0.83760570  0.49944874  1
  Cr  Cr52  1  0.67026590  0.66586736  0.67171923  1
  Ni  Ni53  1  0.83679008  0.83513310  0.83714694  1
" 