8983,Ni54Fe21Cr23_9,-230.910147879841, 185.014205368076,Ni54Fe21Cr23,"# generated using pymatgen
 data_Cr14Fe11Ni29
_symmetry_space_group_name_H-M   'P 1'
_cell_length_a   7.45866786
_cell_length_b   7.45866786
_cell_length_c   10.54814925
_cell_angle_alpha   90.00000000
_cell_angle_beta   90.00000000
_cell_angle_gamma   90.00000000
_symmetry_Int_Tables_number   1
_chemical_formula_structural   Cr14Fe11Ni29
_chemical_formula_sum   'Cr14 Fe11 Ni29'
_cell_volume   586.81175142
_cell_formula_units_Z   1
loop_
 _symmetry_equiv_pos_site_id
 _symmetry_equiv_pos_as_xyz
  1  'x, y, z'
loop_
 _atom_site_type_symbol
 _atom_site_label
 _atom_site_symmetry_multiplicity
 _atom_site_fract_x
 _atom_site_fract_y
 _atom_site_fract_z
 _atom_site_occupancy
  Ni  Ni0  1  0.00310703  0.00345246  0.00248587  1
  Ni  Ni1  1  0.16646081  0.16691104  0.16562055  1
  Ni  Ni2  1  0.99812605  0.00267007  0.33141842  1
  Ni  Ni3  1  0.00400364  0.33098606  0.99933624  1
  Ni  Ni4  1  0.16959329  0.49979160  0.16776794  1
  Ni  Ni5  1  0.00058933  0.33406164  0.33600061  1
  Cr  Cr6  1  0.00470544  0.66823333  0.00199604  1
  Ni  Ni7  1  0.16752613  0.83491270  0.16641017  1
  Ni  Ni8  1  0.00194107  0.66498659  0.33307791  1
  Ni  Ni9  1  0.33266212  1.00055416  1.00001259  1
  Ni  Ni10  1  0.49900633  0.16811051  0.16718141  1
  Cr  Cr11  1  0.33507592  0.00104773  0.33410140  1
  Ni  Ni12  1  0.33143586  0.33336931  0.00276033  1
  Ni  Ni13  1  0.49784984  0.50059021  0.16813314  1
  Fe  Fe14  1  0.33180093  0.33351964  0.33234499  1
  Ni  Ni15  1  0.33273244  0.66769189  0.00138738  1
  Ni  Ni16  1  0.49868214  0.83293866  0.16810679  1
  Ni  Ni17  1  0.33339134  0.66509073  0.33180546  1
  Cr  Cr18  1  0.66644341  0.00108346  0.00107401  1
  Fe  Fe19  1  0.83609264  0.16582736  0.16871258  1
  Ni  Ni20  1  0.66766518  0.00257645  0.33353162  1
  Cr  Cr21  1  0.66647218  0.33127374  0.00112336  1
  Cr  Cr22  1  0.83383874  0.49956911  0.16860999  1
  Fe  Fe23  1  0.66786109  0.33182062  0.33426307  1
  Cr  Cr24  1  0.66430296  0.66921834  0.00245436  1
  Fe  Fe25  1  0.83504743  0.83653786  0.17004099  1
  Fe  Fe26  1  0.66746417  0.66875435  0.33312159  1
  Ni  Ni27  1  0.16556164  0.16738637  0.50108684  1
  Ni  Ni28  1  0.00083974  0.00224952  0.66783742  1
  Fe  Fe29  1  0.16643526  0.16492481  0.83516673  1
  Fe  Fe30  1  0.16437240  0.49941768  0.49897843  1
  Fe  Fe31  1  0.00082911  0.33254830  0.66579079  1
  Fe  Fe32  1  0.16748708  0.50171418  0.83476526  1
  Cr  Cr33  1  0.16760044  0.83500670  0.50155939  1
  Ni  Ni34  1  0.00227642  0.66550619  0.66688210  1
  Ni  Ni35  1  0.17012297  0.83603582  0.83354510  1
  Ni  Ni36  1  0.50094639  0.16614604  0.50065768  1
  Ni  Ni37  1  0.33514739  0.99950003  0.66792211  1
  Fe  Fe38  1  0.49906355  0.16313136  0.83385760  1
  Cr  Cr39  1  0.50130385  0.50218168  0.49780335  1
  Cr  Cr40  1  0.33116187  0.33218351  0.66625855  1
  Cr  Cr41  1  0.49859004  0.50235963  0.83610976  1
  Fe  Fe42  1  0.50173152  0.83586554  0.50181815  1
  Ni  Ni43  1  0.33252270  0.66948594  0.66832261  1
  Ni  Ni44  1  0.49595072  0.83469473  0.83078504  1
  Ni  Ni45  1  0.83502915  0.16828102  0.49976988  1
  Ni  Ni46  1  0.66577483  0.00092223  0.66707715  1
  Ni  Ni47  1  0.83750534  0.16660431  0.83327397  1
  Ni  Ni48  1  0.83504668  0.49966327  0.50117867  1
  Cr  Cr49  1  0.66945087  0.33075571  0.66678043  1
  Cr  Cr50  1  0.83519516  0.49881705  0.83164945  1
  Cr  Cr51  1  0.83420044  0.83383962  0.50092764  1
  Ni  Ni52  1  0.66684512  0.66948323  0.66585719  1
  Cr  Cr53  1  0.83546606  0.83605017  0.83179419  1
" 