5485,Ni54Fe7Cr38_12,-223.357808593249, 145.805601597209,Ni54Fe7Cr38,"# generated using pymatgen
 data_Cr22Fe3Ni29
_symmetry_space_group_name_H-M   'P 1'
_cell_length_a   7.50065827
_cell_length_b   7.50065827
_cell_length_c   10.60753265
_cell_angle_alpha   90.00000000
_cell_angle_beta   90.00000000
_cell_angle_gamma   90.00000000
_symmetry_Int_Tables_number   1
_chemical_formula_structural   Cr22Fe3Ni29
_chemical_formula_sum   'Cr22 Fe3 Ni29'
_cell_volume   596.77845450
_cell_formula_units_Z   1
loop_
 _symmetry_equiv_pos_site_id
 _symmetry_equiv_pos_as_xyz
  1  'x, y, z'
loop_
 _atom_site_type_symbol
 _atom_site_label
 _atom_site_symmetry_multiplicity
 _atom_site_fract_x
 _atom_site_fract_y
 _atom_site_fract_z
 _atom_site_occupancy
  Ni  Ni0  1  0.99541056  0.00078250  -0.00087212  1
  Fe  Fe1  1  0.16264812  0.16437443  0.16413100  1
  Fe  Fe2  1  -0.00217060  0.00008941  0.33095331  1
  Ni  Ni3  1  0.99678695  0.32852179  0.99765743  1
  Cr  Cr4  1  0.16436273  0.49591944  0.16095449  1
  Cr  Cr5  1  0.99604365  0.33402631  0.33257653  1
  Cr  Cr6  1  0.99327975  0.66382710  0.99669716  1
  Cr  Cr7  1  0.16172614  0.83415162  0.16719952  1
  Ni  Ni8  1  0.99473936  0.66345337  0.33118138  1
  Cr  Cr9  1  0.33046349  0.99650202  0.99564213  1
  Cr  Cr10  1  0.49756568  0.16576390  0.16324539  1
  Ni  Ni11  1  0.33196396  0.99742604  0.33253018  1
  Ni  Ni12  1  0.32930248  0.32888721  -0.00171657  1
  Ni  Ni13  1  0.50098561  0.49955343  0.16338396  1
  Cr  Cr14  1  0.33093454  0.33174595  0.33298840  1
  Cr  Cr15  1  0.33504275  0.66467227  -0.00158401  1
  Ni  Ni16  1  0.50104593  0.83015744  0.16604727  1
  Cr  Cr17  1  0.33098910  0.66389823  0.33148247  1
  Cr  Cr18  1  0.66605941  0.99524892  0.99279078  1
  Ni  Ni19  1  0.83411275  0.16339366  0.16389993  1
  Cr  Cr20  1  0.66351903  -0.00121769  0.33292448  1
  Cr  Cr21  1  0.66782763  0.33278894  -0.00158385  1
  Ni  Ni22  1  0.83018033  0.49903426  0.16467861  1
  Cr  Cr23  1  0.66617154  0.33296529  0.33340011  1
  Ni  Ni24  1  0.66632045  0.66545913  0.00067820  1
  Ni  Ni25  1  0.83023435  0.83128570  0.16596118  1
  Fe  Fe26  1  0.66450264  0.66342824  0.33058818  1
  Ni  Ni27  1  0.16457029  0.16634062  0.49645692  1
  Cr  Cr28  1  0.99589144  0.00158434  0.66596499  1
  Ni  Ni29  1  0.16283618  0.16704031  0.83381574  1
  Ni  Ni30  1  0.16316718  0.49695137  0.50157772  1
  Ni  Ni31  1  -0.00134856  0.33260640  0.66334058  1
  Cr  Cr32  1  0.16417521  0.49489116  0.82831457  1
  Cr  Cr33  1  0.16281256  0.83003795  0.49733340  1
  Ni  Ni34  1  0.99527875  0.66044727  0.66403532  1
  Cr  Cr35  1  0.16194790  0.83016140  0.82823265  1
  Ni  Ni36  1  0.49608276  0.16471450  0.49826154  1
  Cr  Cr37  1  0.33291718  -0.00182264  0.66446474  1
  Ni  Ni38  1  0.49572189  0.16557256  0.83051482  1
  Ni  Ni39  1  0.49784924  0.49848941  0.49946208  1
  Ni  Ni40  1  0.32909413  0.33067668  0.66159578  1
  Cr  Cr41  1  0.49910151  0.49632428  0.83102997  1
  Ni  Ni42  1  0.49766658  0.82941149  0.49772782  1
  Ni  Ni43  1  0.33290988  0.66240563  0.66187516  1
  Ni  Ni44  1  0.50124464  0.82813249  0.82929219  1
  Ni  Ni45  1  0.83310307  0.16626159  0.49780509  1
  Cr  Cr46  1  0.66395889  0.99762179  0.66734755  1
  Ni  Ni47  1  0.83404270  0.16603891  0.83215600  1
  Ni  Ni48  1  0.83193749  0.49879637  0.49898009  1
  Cr  Cr49  1  0.66748040  0.32949601  0.66152006  1
  Ni  Ni50  1  0.83119264  0.49808465  0.82996141  1
  Cr  Cr51  1  0.83053053  0.82994251  0.49710421  1
  Ni  Ni52  1  0.66505188  0.66370206  0.66374328  1
  Ni  Ni53  1  0.82974757  0.82896423  0.83126301  1
" 