1929,Ni54Fe21Cr23_13,-230.882665321517, 182.275585511316,Ni54Fe21Cr23,"# generated using pymatgen
 data_Cr14Fe11Ni29
_symmetry_space_group_name_H-M   'P 1'
_cell_length_a   7.45205983
_cell_length_b   7.45205983
_cell_length_c   10.53880408
_cell_angle_alpha   90.00000000
_cell_angle_beta   90.00000000
_cell_angle_gamma   90.00000000
_symmetry_Int_Tables_number   1
_chemical_formula_structural   Cr14Fe11Ni29
_chemical_formula_sum   'Cr14 Fe11 Ni29'
_cell_volume   585.25347015
_cell_formula_units_Z   1
loop_
 _symmetry_equiv_pos_site_id
 _symmetry_equiv_pos_as_xyz
  1  'x, y, z'
loop_
 _atom_site_type_symbol
 _atom_site_label
 _atom_site_symmetry_multiplicity
 _atom_site_fract_x
 _atom_site_fract_y
 _atom_site_fract_z
 _atom_site_occupancy
  Cr  Cr0  1  0.00292921  0.00148473  0.00406444  1
  Fe  Fe1  1  0.17050404  0.16984771  0.17091338  1
  Fe  Fe2  1  0.99751854  1.00091162  0.33487747  1
  Cr  Cr3  1  1.00075327  0.33600062  1.00091468  1
  Ni  Ni4  1  0.16607414  0.49977228  0.17160120  1
  Ni  Ni5  1  0.99918191  0.33564212  0.33406424  1
  Cr  Cr6  1  0.99770568  0.66610081  0.99936090  1
  Cr  Cr7  1  0.16806105  0.83347578  0.17054988  1
  Ni  Ni8  1  0.99828540  0.66551262  0.33494437  1
  Ni  Ni9  1  0.33536546  0.00338236  0.00156004  1
  Ni  Ni10  1  0.50223627  0.16808344  0.16808623  1
  Ni  Ni11  1  0.33640463  0.00117209  0.33235267  1
  Cr  Cr12  1  0.33519516  0.33355582  1.00074302  1
  Ni  Ni13  1  0.50414826  0.50005196  0.16920417  1
  Fe  Fe14  1  0.33550845  0.33709626  0.33388606  1
  Cr  Cr15  1  0.33603877  0.66705828  0.00288564  1
  Ni  Ni16  1  0.50194670  0.83512949  0.17021897  1
  Fe  Fe17  1  0.33597190  0.66494192  0.33513460  1
  Cr  Cr18  1  0.66607552  1.00003207  0.00258352  1
  Fe  Fe19  1  0.83234842  0.17036885  0.17000523  1
  Fe  Fe20  1  0.66871666  1.00034956  0.33398791  1
  Ni  Ni21  1  0.66683788  0.33676794  0.00206913  1
  Ni  Ni22  1  0.83296330  0.49974702  0.16828486  1
  Ni  Ni23  1  0.66881509  0.33541301  0.33346612  1
  Ni  Ni24  1  0.66798886  0.66536979  0.00243450  1
  Fe  Fe25  1  0.83126888  0.83045124  0.17016483  1
  Ni  Ni26  1  0.66762182  0.66702051  0.33422050  1
  Cr  Cr27  1  0.16663895  0.17006861  0.50048941  1
  Ni  Ni28  1  1.00033699  1.00096087  0.66637228  1
  Ni  Ni29  1  0.16852131  0.16814057  0.83240733  1
  Ni  Ni30  1  0.16666923  0.50056886  0.50118179  1
  Ni  Ni31  1  0.00195868  0.33583924  0.66690726  1
  Ni  Ni32  1  0.16775324  0.49856235  0.82955817  1
  Cr  Cr33  1  0.16799930  0.83214450  0.50195458  1
  Ni  Ni34  1  0.99810709  0.66620950  0.66763178  1
  Cr  Cr35  1  0.16681862  0.83432313  0.83090889  1
  Cr  Cr36  1  0.50181477  0.16780979  0.50195923  1
  Ni  Ni37  1  0.33508234  0.00211166  0.66931345  1
  Fe  Fe38  1  0.49960980  0.16925000  0.83395551  1
  Ni  Ni39  1  0.50127613  0.50250990  0.49917762  1
  Ni  Ni40  1  0.33341292  0.33567266  0.66866642  1
  Ni  Ni41  1  0.50266272  0.50051862  0.83451773  1
  Ni  Ni42  1  0.50351257  0.83335579  0.50009420  1
  Ni  Ni43  1  0.33656361  0.66539655  0.66459143  1
  Cr  Cr44  1  0.50228171  0.83256363  0.83264638  1
  Fe  Fe45  1  0.83471578  0.16850834  0.50030569  1
  Fe  Fe46  1  0.66916268  0.99821744  0.66605396  1
  Cr  Cr47  1  0.83438057  0.16818335  0.83223579  1
  Fe  Fe48  1  0.83450174  0.50308995  0.49952208  1
  Cr  Cr49  1  0.66719626  0.33824587  0.66698862  1
  Ni  Ni50  1  0.83223951  0.50228762  0.83370145  1
  Ni  Ni51  1  0.83290303  0.83418833  0.50114366  1
  Ni  Ni52  1  0.66855581  0.66837605  0.66640358  1
  Ni  Ni53  1  0.83316247  0.83246000  0.83303624  1
" 