3297,Ni54Fe46_11,-239.791040444788, 221.515209689332,Ni54Fe46,"# generated using pymatgen
 data_Fe29Ni25
_symmetry_space_group_name_H-M   'P 1'
_cell_length_a   7.39297119
_cell_length_b   7.39297119
_cell_length_c   10.45524012
_cell_angle_alpha   90.00000000
_cell_angle_beta   90.00000000
_cell_angle_gamma   90.00000000
_symmetry_Int_Tables_number   1
_chemical_formula_structural   Fe29Ni25
_chemical_formula_sum   'Fe29 Ni25'
_cell_volume   571.44184456
_cell_formula_units_Z   1
loop_
 _symmetry_equiv_pos_site_id
 _symmetry_equiv_pos_as_xyz
  1  'x, y, z'
loop_
 _atom_site_type_symbol
 _atom_site_label
 _atom_site_symmetry_multiplicity
 _atom_site_fract_x
 _atom_site_fract_y
 _atom_site_fract_z
 _atom_site_occupancy
  Ni  Ni0  1  0.00630334  1.00372792  0.00502870  1
  Fe  Fe1  1  0.17125222  0.17124651  0.17202217  1
  Fe  Fe2  1  0.00564570  1.00487570  0.33830615  1
  Fe  Fe3  1  1.00452693  0.33856366  0.00514907  1
  Ni  Ni4  1  0.17161711  0.50471296  0.17244144  1
  Fe  Fe5  1  0.00590994  0.33795705  0.33872434  1
  Ni  Ni6  1  1.00374176  0.67226242  1.00453141  1
  Fe  Fe7  1  0.17055967  0.83781460  0.17219245  1
  Ni  Ni8  1  0.00507314  0.67117098  0.33865300  1
  Ni  Ni9  1  0.33767114  0.00501403  0.00572378  1
  Fe  Fe10  1  0.50574187  0.17162041  0.17129403  1
  Ni  Ni11  1  0.33911206  0.00522615  0.33852871  1
  Fe  Fe12  1  0.33809752  0.33850354  0.00543756  1
  Fe  Fe13  1  0.50612411  0.50527669  0.17228013  1
  Ni  Ni14  1  0.33863872  0.33783322  0.33932424  1
  Fe  Fe15  1  0.33856400  0.67216612  0.00557202  1
  Ni  Ni16  1  0.50518913  0.83824862  0.17158989  1
  Ni  Ni17  1  0.33695064  0.67196941  0.33802449  1
  Fe  Fe18  1  0.67226963  1.00396984  0.00551883  1
  Ni  Ni19  1  0.83864335  0.17164541  0.17066573  1
  Ni  Ni20  1  0.67091691  0.00562952  0.33816075  1
  Ni  Ni21  1  0.67185245  0.33951785  0.00524270  1
  Ni  Ni22  1  0.83952171  0.50472113  0.17180297  1
  Fe  Fe23  1  0.67108433  0.33833285  0.33851690  1
  Ni  Ni24  1  0.67313810  0.67009663  0.00543000  1
  Ni  Ni25  1  0.83734989  0.83866059  0.17188900  1
  Fe  Fe26  1  0.67038996  0.67228564  0.33747830  1
  Ni  Ni27  1  0.17088489  0.17138554  0.50498451  1
  Fe  Fe28  1  1.00485245  0.00613362  0.67166687  1
  Fe  Fe29  1  0.17237304  0.17003878  0.83773988  1
  Fe  Fe30  1  0.17151201  0.50458188  0.50405989  1
  Ni  Ni31  1  1.00345199  0.33904300  0.67187156  1
  Fe  Fe32  1  0.17166651  0.50561000  0.83885866  1
  Ni  Ni33  1  0.17216827  0.83882426  0.50487990  1
  Fe  Fe34  1  0.00501210  0.67159465  0.67176142  1
  Fe  Fe35  1  0.17228177  0.83938026  0.83809271  1
  Fe  Fe36  1  0.50428086  0.17146854  0.50539482  1
  Ni  Ni37  1  0.33844492  1.00459445  0.67077247  1
  Ni  Ni38  1  0.50472803  0.17140490  0.83775201  1
  Ni  Ni39  1  0.50442736  0.50523347  0.50498821  1
  Fe  Fe40  1  0.33847489  0.33785262  0.67102826  1
  Fe  Fe41  1  0.50635384  0.50521717  0.83778935  1
  Fe  Fe42  1  0.50396331  0.83937058  0.50457062  1
  Fe  Fe43  1  0.33864621  0.67113619  0.67085630  1
  Ni  Ni44  1  0.50561413  0.83881908  0.83776760  1
  Ni  Ni45  1  0.83930946  0.17185249  0.50569887  1
  Fe  Fe46  1  0.67192048  0.00596519  0.67159799  1
  Fe  Fe47  1  0.83730134  0.17133628  0.83808893  1
  Fe  Fe48  1  0.83914879  0.50426947  0.50514138  1
  Ni  Ni49  1  0.67273363  0.33863873  0.67108275  1
  Fe  Fe50  1  0.83701011  0.50531214  0.83890409  1
  Fe  Fe51  1  0.83895090  0.83869555  0.50465720  1
  Fe  Fe52  1  0.67137184  0.67137249  0.67257730  1
  Ni  Ni53  1  0.83776735  0.83835502  0.83842355  1
" 