819,Ni54Fe25Cr19_15,-232.912266794219, 192.093402396467,Ni54Fe25Cr19,"# generated using pymatgen
 data_Cr12Fe13Ni29
_symmetry_space_group_name_H-M   'P 1'
_cell_length_a   7.44896313
_cell_length_b   7.44896313
_cell_length_c   10.53442469
_cell_angle_alpha   90.00000000
_cell_angle_beta   90.00000000
_cell_angle_gamma   90.00000000
_symmetry_Int_Tables_number   1
_chemical_formula_structural   Cr12Fe13Ni29
_chemical_formula_sum   'Cr12 Fe13 Ni29'
_cell_volume   584.52416833
_cell_formula_units_Z   1
loop_
 _symmetry_equiv_pos_site_id
 _symmetry_equiv_pos_as_xyz
  1  'x, y, z'
loop_
 _atom_site_type_symbol
 _atom_site_label
 _atom_site_symmetry_multiplicity
 _atom_site_fract_x
 _atom_site_fract_y
 _atom_site_fract_z
 _atom_site_occupancy
  Cr  Cr0  1  0.00244628  0.00133643  1.00059639  1
  Ni  Ni1  1  0.17036807  0.16752662  0.16843931  1
  Ni  Ni2  1  1.00032533  1.00034513  0.33451768  1
  Ni  Ni3  1  0.00163169  0.33583714  0.00214403  1
  Ni  Ni4  1  0.16430574  0.50099175  0.16964470  1
  Ni  Ni5  1  1.00001563  0.33604081  0.33354210  1
  Ni  Ni6  1  0.00199615  0.66747012  0.00235396  1
  Ni  Ni7  1  0.16625840  0.83502530  0.16938920  1
  Ni  Ni8  1  0.99967837  0.66742876  0.33382870  1
  Ni  Ni9  1  0.33559027  0.99914576  0.00173851  1
  Ni  Ni10  1  0.50062352  0.16587707  0.16881216  1
  Ni  Ni11  1  0.33507207  0.99973164  0.33152761  1
  Cr  Cr12  1  0.33174211  0.33523972  1.00096703  1
  Fe  Fe13  1  0.50103879  0.50133044  0.17068324  1
  Ni  Ni14  1  0.33493347  0.33595635  0.33414000  1
  Cr  Cr15  1  0.33228135  0.66877200  0.00333846  1
  Fe  Fe16  1  0.50153236  0.83495657  0.16953323  1
  Fe  Fe17  1  0.33383634  0.66562246  0.33459956  1
  Ni  Ni18  1  0.66717780  0.99935628  0.00254317  1
  Fe  Fe19  1  0.83672684  0.16758911  0.16906454  1
  Fe  Fe20  1  0.67022698  1.00040142  0.33334631  1
  Cr  Cr21  1  0.66984640  0.33413932  0.00370443  1
  Ni  Ni22  1  0.83553168  0.50406711  0.16800281  1
  Ni  Ni23  1  0.66890721  0.33628432  0.33404181  1
  Fe  Fe24  1  0.66834713  0.67001376  0.00306356  1
  Ni  Ni25  1  0.83422795  0.83216899  0.16793146  1
  Ni  Ni26  1  0.66860110  0.66716662  0.33550719  1
  Cr  Cr27  1  0.16772589  0.16990655  0.50093024  1
  Fe  Fe28  1  1.00059728  1.00040380  0.66853530  1
  Ni  Ni29  1  0.16590513  0.16836362  0.83407570  1
  Ni  Ni30  1  0.16646434  0.50115490  0.50118100  1
  Ni  Ni31  1  1.00095657  0.33599097  0.66830061  1
  Ni  Ni32  1  0.16690733  0.50145239  0.83310481  1
  Cr  Cr33  1  0.16647089  0.83306732  0.49891256  1
  Ni  Ni34  1  0.00254086  0.66715696  0.66769090  1
  Fe  Fe35  1  0.16665065  0.83215388  0.83466429  1
  Cr  Cr36  1  0.49931670  0.16818715  0.49864742  1
  Cr  Cr37  1  0.33395538  0.99773329  0.66983036  1
  Cr  Cr38  1  0.50014670  0.16819952  0.83552503  1
  Ni  Ni39  1  0.50120989  0.50317877  0.50075550  1
  Fe  Fe40  1  0.33221798  0.33880192  0.66811840  1
  Ni  Ni41  1  0.50063607  0.50509188  0.83285170  1
  Ni  Ni42  1  0.50291728  0.83262971  0.49908532  1
  Ni  Ni43  1  0.33431440  0.66670498  0.66689181  1
  Fe  Fe44  1  0.50221046  0.83204657  0.83498994  1
  Fe  Fe45  1  0.83630599  0.16921101  0.49941619  1
  Cr  Cr46  1  0.67016896  0.99990778  0.66594807  1
  Ni  Ni47  1  0.83688207  0.16654859  0.83469324  1
  Ni  Ni48  1  0.83576600  0.50385378  0.50036984  1
  Cr  Cr49  1  0.66950021  0.33597939  0.66590936  1
  Cr  Cr50  1  0.83550873  0.50421364  0.83638597  1
  Ni  Ni51  1  0.83418961  0.83199575  0.50114097  1
  Fe  Fe52  1  0.66773449  0.66778783  0.66574879  1
  Fe  Fe53  1  0.83508127  0.83400719  0.83484572  1
" 