4120,Ni54Fe21Cr23_3,-231.037753096592, 182.523088943588,Ni54Fe21Cr23,"# generated using pymatgen
 data_Cr14Fe11Ni29
_symmetry_space_group_name_H-M   'P 1'
_cell_length_a   7.46014703
_cell_length_b   7.46014703
_cell_length_c   10.55024111
_cell_angle_alpha   90.00000000
_cell_angle_beta   90.00000000
_cell_angle_gamma   90.00000000
_symmetry_Int_Tables_number   1
_chemical_formula_structural   Cr14Fe11Ni29
_chemical_formula_sum   'Cr14 Fe11 Ni29'
_cell_volume   587.16094251
_cell_formula_units_Z   1
loop_
 _symmetry_equiv_pos_site_id
 _symmetry_equiv_pos_as_xyz
  1  'x, y, z'
loop_
 _atom_site_type_symbol
 _atom_site_label
 _atom_site_symmetry_multiplicity
 _atom_site_fract_x
 _atom_site_fract_y
 _atom_site_fract_z
 _atom_site_occupancy
  Ni  Ni0  1  0.00112634  0.99944576  0.00109471  1
  Fe  Fe1  1  0.16681574  0.16770592  0.16486754  1
  Cr  Cr2  1  0.99979905  0.00081496  0.33232155  1
  Ni  Ni3  1  0.99964594  0.33363694  0.99885361  1
  Cr  Cr4  1  0.16586801  0.50311974  0.16789263  1
  Ni  Ni5  1  0.99911271  0.33385753  0.33473665  1
  Fe  Fe6  1  1.00010619  0.66784433  0.99896110  1
  Ni  Ni7  1  0.16818650  0.83417995  0.16433707  1
  Cr  Cr8  1  0.99974728  0.66735843  0.33441766  1
  Ni  Ni9  1  0.33184894  0.99831520  0.00094880  1
  Ni  Ni10  1  0.50311565  0.16508149  0.16795212  1
  Cr  Cr11  1  0.33392851  0.99904515  0.33209418  1
  Cr  Cr12  1  0.33285690  0.33315710  0.99998881  1
  Ni  Ni13  1  0.50109829  0.50148270  0.16891670  1
  Fe  Fe14  1  0.33503078  0.33509363  0.33429531  1
  Ni  Ni15  1  0.33315756  0.66931571  0.00123450  1
  Ni  Ni16  1  0.49924202  0.83499004  0.16609000  1
  Ni  Ni17  1  0.33549907  0.66646274  0.33399005  1
  Ni  Ni18  1  0.66833845  0.99842606  0.00243726  1
  Fe  Fe19  1  0.83386904  0.16716480  0.16708543  1
  Ni  Ni20  1  0.66695965  0.00064910  0.33291245  1
  Cr  Cr21  1  0.66830980  0.33548623  0.00196432  1
  Ni  Ni22  1  0.83483434  0.49812596  0.16638740  1
  Ni  Ni23  1  0.66778059  0.33455141  0.33179959  1
  Fe  Fe24  1  0.66861106  0.66886439  0.00202387  1
  Fe  Fe25  1  0.83217299  0.83294975  0.16491797  1
  Cr  Cr26  1  0.66579720  0.66697826  0.33483526  1
  Fe  Fe27  1  0.16753283  0.16991000  0.50291607  1
  Ni  Ni28  1  0.00163922  0.99814760  0.66786941  1
  Ni  Ni29  1  0.16524996  0.16567510  0.83269954  1
  Ni  Ni30  1  0.16695297  0.50005723  0.50061438  1
  Fe  Fe31  1  0.00361978  0.33588518  0.66743623  1
  Ni  Ni32  1  0.16452847  0.50255832  0.83289373  1
  Cr  Cr33  1  0.16862460  0.83163475  0.50197975  1
  Ni  Ni34  1  0.99967500  0.66742895  0.66846656  1
  Ni  Ni35  1  0.16584640  0.83335421  0.83464763  1
  Cr  Cr36  1  0.50192173  0.16661451  0.50181733  1
  Ni  Ni37  1  0.33031774  0.99995403  0.66839079  1
  Cr  Cr38  1  0.50017897  0.16446378  0.83181219  1
  Ni  Ni39  1  0.49971108  0.50076778  0.49995932  1
  Ni  Ni40  1  0.33340268  0.33542232  0.66626554  1
  Cr  Cr41  1  0.49995101  0.50282196  0.83291230  1
  Ni  Ni42  1  0.50026244  0.83341569  0.50177405  1
  Ni  Ni43  1  0.33213895  0.66627819  0.66620143  1
  Cr  Cr44  1  0.49907244  0.83427989  0.83390695  1
  Cr  Cr45  1  0.83405187  0.16773815  0.50105533  1
  Fe  Fe46  1  0.66769049  0.99716895  0.66653594  1
  Cr  Cr47  1  0.83438097  0.16679583  0.83281040  1
  Ni  Ni48  1  0.83495426  0.49822728  0.50220209  1
  Ni  Ni49  1  0.66773467  0.33801509  0.66681104  1
  Ni  Ni50  1  0.83715889  0.50219553  0.83297846  1
  Fe  Fe51  1  0.83164012  0.83210103  0.50338956  1
  Fe  Fe52  1  0.66787139  0.66681928  0.66555857  1
  Ni  Ni53  1  0.83600724  0.83314090  0.83371365  1
" 