3414,Ni54Fe21Cr23_6,-231.378129860086, 188.173448055883,Ni54Fe21Cr23,"# generated using pymatgen
 data_Cr14Fe11Ni29
_symmetry_space_group_name_H-M   'P 1'
_cell_length_a   7.45830854
_cell_length_b   7.45830854
_cell_length_c   10.54764109
_cell_angle_alpha   90.00000000
_cell_angle_beta   90.00000000
_cell_angle_gamma   90.00000000
_symmetry_Int_Tables_number   1
_chemical_formula_structural   Cr14Fe11Ni29
_chemical_formula_sum   'Cr14 Fe11 Ni29'
_cell_volume   586.72694744
_cell_formula_units_Z   1
loop_
 _symmetry_equiv_pos_site_id
 _symmetry_equiv_pos_as_xyz
  1  'x, y, z'
loop_
 _atom_site_type_symbol
 _atom_site_label
 _atom_site_symmetry_multiplicity
 _atom_site_fract_x
 _atom_site_fract_y
 _atom_site_fract_z
 _atom_site_occupancy
  Cr  Cr0  1  0.00288516  0.00102284  0.00147222  1
  Ni  Ni1  1  0.16935396  0.16811831  0.16697287  1
  Cr  Cr2  1  0.00143208  0.00244889  0.33449468  1
  Ni  Ni3  1  0.00367941  0.33444302  0.00079146  1
  Fe  Fe4  1  0.16817847  0.49788224  0.16683937  1
  Ni  Ni5  1  0.00213985  0.33218660  0.33356994  1
  Cr  Cr6  1  0.00141034  0.66682998  0.99855023  1
  Fe  Fe7  1  0.17010565  0.83501171  0.16752442  1
  Cr  Cr8  1  0.00096096  0.66760900  0.33474439  1
  Fe  Fe9  1  0.33391179  0.00250322  1.00013447  1
  Ni  Ni10  1  0.49868872  0.16670635  0.16716384  1
  Ni  Ni11  1  0.33422462  0.99968266  0.33249426  1
  Ni  Ni12  1  0.33216650  0.33206354  0.00088329  1
  Cr  Cr13  1  0.49979051  0.49923334  0.16831756  1
  Fe  Fe14  1  0.33248808  0.33364476  0.33402409  1
  Fe  Fe15  1  0.33228047  0.66745854  0.99976862  1
  Fe  Fe16  1  0.49948463  0.83612796  0.16919480  1
  Fe  Fe17  1  0.33505544  0.66757547  0.33574849  1
  Cr  Cr18  1  0.66513119  0.00063558  0.00099906  1
  Fe  Fe19  1  0.83310378  0.16872929  0.16830207  1
  Fe  Fe20  1  0.66712904  0.99980965  0.33374014  1
  Ni  Ni21  1  0.66591475  0.33317698  0.99995889  1
  Cr  Cr22  1  0.83415560  0.49892637  0.16687644  1
  Ni  Ni23  1  0.66680764  0.33406887  0.33375650  1
  Cr  Cr24  1  0.66727007  0.66788467  0.99899564  1
  Ni  Ni25  1  0.83278848  0.83470281  0.16892702  1
  Ni  Ni26  1  0.66458284  0.66907964  0.33445339  1
  Ni  Ni27  1  0.16695536  0.16870384  0.50046862  1
  Cr  Cr28  1  0.00194694  0.99986608  0.66579225  1
  Ni  Ni29  1  0.17077903  0.16864723  0.83431692  1
  Ni  Ni30  1  0.16930361  0.49982050  0.50059626  1
  Ni  Ni31  1  0.00325756  0.33543700  0.66739551  1
  Ni  Ni32  1  0.16556968  0.49997276  0.83424788  1
  Ni  Ni33  1  0.16947113  0.83323008  0.50099967  1
  Fe  Fe34  1  0.00279414  0.66637702  0.66838068  1
  Ni  Ni35  1  0.16939242  0.83313560  0.83396672  1
  Cr  Cr36  1  0.50077037  0.16733313  0.50168358  1
  Ni  Ni37  1  0.33421091  1.00016490  0.66947101  1
  Ni  Ni38  1  0.49814923  0.16626056  0.83375780  1
  Ni  Ni39  1  0.49850162  0.50161152  0.49894912  1
  Ni  Ni40  1  0.33182373  0.33345570  0.66663922  1
  Cr  Cr41  1  0.50032551  0.49797799  0.83407680  1
  Ni  Ni42  1  0.49984876  0.83295407  0.49864576  1
  Fe  Fe43  1  0.33202204  0.66779004  0.66624271  1
  Ni  Ni44  1  0.49829130  0.83676822  0.83414323  1
  Ni  Ni45  1  0.83422844  0.16735984  0.49911718  1
  Ni  Ni46  1  0.66535396  0.99915143  0.66663217  1
  Cr  Cr47  1  0.83267946  0.17025862  0.83364353  1
  Cr  Cr48  1  0.83369750  0.49871544  0.50114203  1
  Ni  Ni49  1  0.66667724  0.33340146  0.66804248  1
  Ni  Ni50  1  0.83646218  0.50011354  0.83402587  1
  Ni  Ni51  1  0.83243765  0.83530318  0.50042144  1
  Cr  Cr52  1  0.66749274  0.66870482  0.66773147  1
  Ni  Ni53  1  0.83407397  0.83155964  0.83240844  1
" 