7827,Ni54Fe7Cr38_0,-223.665003230185, 151.815089755007,Ni54Fe7Cr38,"# generated using pymatgen
 data_Cr22Fe3Ni29
_symmetry_space_group_name_H-M   'P 1'
_cell_length_a   7.49381669
_cell_length_b   7.49381669
_cell_length_c   10.59785719
_cell_angle_alpha   90.00000000
_cell_angle_beta   90.00000000
_cell_angle_gamma   90.00000000
_symmetry_Int_Tables_number   1
_chemical_formula_structural   Cr22Fe3Ni29
_chemical_formula_sum   'Cr22 Fe3 Ni29'
_cell_volume   595.14692384
_cell_formula_units_Z   1
loop_
 _symmetry_equiv_pos_site_id
 _symmetry_equiv_pos_as_xyz
  1  'x, y, z'
loop_
 _atom_site_type_symbol
 _atom_site_label
 _atom_site_symmetry_multiplicity
 _atom_site_fract_x
 _atom_site_fract_y
 _atom_site_fract_z
 _atom_site_occupancy
  Ni  Ni0  1  0.00156376  0.99816499  0.99593759  1
  Cr  Cr1  1  0.16473395  0.16645010  0.16303790  1
  Fe  Fe2  1  0.00126603  0.99685480  0.33240349  1
  Fe  Fe3  1  0.99755128  0.33020207  0.99562473  1
  Cr  Cr4  1  0.16439107  0.49768246  0.16590004  1
  Fe  Fe5  1  0.99781090  0.33406373  0.33312134  1
  Cr  Cr6  1  0.99475547  0.66602565  0.99692297  1
  Ni  Ni7  1  0.16585592  0.83195103  0.16616174  1
  Ni  Ni8  1  -0.00019340  0.66474513  0.33170574  1
  Ni  Ni9  1  0.32742067  -0.00007627  -0.00024738  1
  Ni  Ni10  1  0.49668763  0.16697388  0.16506905  1
  Cr  Cr11  1  0.32933828  -0.00166477  0.33071951  1
  Ni  Ni12  1  0.33264015  0.32899319  -0.00144054  1
  Ni  Ni13  1  0.49818230  0.49737855  0.16593187  1
  Ni  Ni14  1  0.33383004  0.33237266  0.33132397  1
  Cr  Cr15  1  0.33297035  0.66553004  -0.00093633  1
  Ni  Ni16  1  0.49565847  0.83026845  0.16359081  1
  Ni  Ni17  1  0.32909767  0.66376399  0.33094388  1
  Cr  Cr18  1  0.66544184  0.99705342  -0.00128071  1
  Cr  Cr19  1  0.83303636  0.16713985  0.16621950  1
  Cr  Cr20  1  0.66363365  0.00037290  0.32982625  1
  Cr  Cr21  1  0.66506089  0.33551013  -0.00167440  1
  Ni  Ni22  1  0.83082322  0.49734498  0.16615008  1
  Ni  Ni23  1  0.66391660  0.33438335  0.33107121  1
  Ni  Ni24  1  0.66609307  0.66193681  -0.00106894  1
  Cr  Cr25  1  0.83304524  0.83054520  0.16486032  1
  Cr  Cr26  1  0.66555449  0.66067711  0.32909229  1
  Ni  Ni27  1  0.16182269  0.16484037  0.49743573  1
  Ni  Ni28  1  -0.00118375  0.99813390  0.66591012  1
  Ni  Ni29  1  0.16064779  0.16343603  0.83375293  1
  Cr  Cr30  1  0.16461452  0.49947935  0.49757215  1
  Ni  Ni31  1  0.99522119  0.33054327  0.66596325  1
  Cr  Cr32  1  0.16528126  0.49715734  0.83095194  1
  Ni  Ni33  1  0.16283996  0.83067319  0.49808024  1
  Ni  Ni34  1  -0.00137458  0.66586629  0.66546597  1
  Ni  Ni35  1  0.16198958  0.83382353  0.83021462  1
  Cr  Cr36  1  0.49991825  0.16736123  0.49900449  1
  Cr  Cr37  1  0.32640054  0.99793464  0.66475612  1
  Cr  Cr38  1  0.49847381  0.16554804  0.83126591  1
  Ni  Ni39  1  0.49845299  0.49742007  0.49727109  1
  Cr  Cr40  1  0.33150164  0.33228949  0.66473332  1
  Ni  Ni41  1  0.49976052  0.49831700  0.83122915  1
  Cr  Cr42  1  0.49691697  0.82850462  0.50042847  1
  Ni  Ni43  1  0.32864098  0.66476356  0.66410634  1
  Cr  Cr44  1  0.49867013  0.83001189  0.83108623  1
  Cr  Cr45  1  0.83271574  0.16613600  0.49893440  1
  Ni  Ni46  1  0.66971807  0.00071052  0.66716109  1
  Ni  Ni47  1  0.83534691  0.16444480  0.82916793  1
  Ni  Ni48  1  0.83217042  0.49637540  0.49787870  1
  Ni  Ni49  1  0.66820537  0.33298526  0.66493007  1
  Ni  Ni50  1  0.83128627  0.49733625  0.83049900  1
  Cr  Cr51  1  0.83417897  0.83131846  0.49963873  1
  Cr  Cr52  1  0.66703413  0.66081485  0.66661663  1
  Ni  Ni53  1  0.83413552  0.83268305  0.83053120  1
" 