852,Ni54Fe25Cr19_1,-232.481812007525, 190.925597959589,Ni54Fe25Cr19,"# generated using pymatgen
 data_Cr12Fe13Ni29
_symmetry_space_group_name_H-M   'P 1'
_cell_length_a   7.44435841
_cell_length_b   7.44435841
_cell_length_c   10.52791263
_cell_angle_alpha   90.00000000
_cell_angle_beta   90.00000000
_cell_angle_gamma   90.00000000
_symmetry_Int_Tables_number   1
_chemical_formula_structural   Cr12Fe13Ni29
_chemical_formula_sum   'Cr12 Fe13 Ni29'
_cell_volume   583.44083337
_cell_formula_units_Z   1
loop_
 _symmetry_equiv_pos_site_id
 _symmetry_equiv_pos_as_xyz
  1  'x, y, z'
loop_
 _atom_site_type_symbol
 _atom_site_label
 _atom_site_symmetry_multiplicity
 _atom_site_fract_x
 _atom_site_fract_y
 _atom_site_fract_z
 _atom_site_occupancy
  Fe  Fe0  1  1.00144643  1.00143145  0.00196520  1
  Ni  Ni1  1  0.16804600  0.16758038  0.16832906  1
  Ni  Ni2  1  0.00204383  0.00156142  0.33386661  1
  Fe  Fe3  1  0.00329034  0.33362803  1.00055724  1
  Ni  Ni4  1  0.17159164  0.50192428  0.16691126  1
  Cr  Cr5  1  0.00358997  0.33224541  0.33421252  1
  Ni  Ni6  1  0.00434031  0.66857867  1.00141791  1
  Ni  Ni7  1  0.16997038  0.83500873  0.16704523  1
  Cr  Cr8  1  0.00276055  0.67159654  0.33353005  1
  Ni  Ni9  1  0.33452545  1.00126925  1.00042347  1
  Cr  Cr10  1  0.50111350  0.16671511  0.16740248  1
  Ni  Ni11  1  0.33359484  1.00002782  0.33488700  1
  Ni  Ni12  1  0.33402292  0.33532256  1.00104094  1
  Fe  Fe13  1  0.49858623  0.50295864  0.16787536  1
  Fe  Fe14  1  0.33435823  0.33565201  0.33420286  1
  Ni  Ni15  1  0.33206745  0.66797651  0.00178543  1
  Ni  Ni16  1  0.50039862  0.83430714  0.16999045  1
  Ni  Ni17  1  0.33726335  0.66808884  0.33453316  1
  Ni  Ni18  1  0.66886541  0.00320788  1.00073861  1
  Ni  Ni19  1  0.83531212  0.16544525  0.16854467  1
  Ni  Ni20  1  0.66885442  0.99887340  0.33372356  1
  Ni  Ni21  1  0.66824067  0.33222509  1.00021640  1
  Cr  Cr22  1  0.83459660  0.50155791  0.16618408  1
  Fe  Fe23  1  0.66604023  0.33523688  0.33342407  1
  Cr  Cr24  1  0.66808085  0.67003830  1.00085595  1
  Ni  Ni25  1  0.83420754  0.83782823  0.16930850  1
  Ni  Ni26  1  0.66460042  0.67030813  0.33561413  1
  Ni  Ni27  1  0.16811914  0.16769772  0.50072955  1
  Ni  Ni28  1  0.99991862  0.00238881  0.66795653  1
  Ni  Ni29  1  0.16580175  0.16987340  0.83559160  1
  Fe  Fe30  1  0.17073918  0.50160955  0.50169718  1
  Ni  Ni31  1  0.00263690  0.33342916  0.67032211  1
  Ni  Ni32  1  0.16958457  0.50064109  0.83558379  1
  Fe  Fe33  1  0.16840889  0.83698707  0.49996431  1
  Cr  Cr34  1  0.00296381  0.66885595  0.66881494  1
  Fe  Fe35  1  0.16832803  0.83444453  0.83719156  1
  Cr  Cr36  1  0.50007393  0.16639255  0.49967769  1
  Cr  Cr37  1  0.33468804  0.99954717  0.67011731  1
  Fe  Fe38  1  0.50232064  0.16709502  0.83816457  1
  Fe  Fe39  1  0.49991845  0.50486251  0.50058828  1
  Cr  Cr40  1  0.33261726  0.33626976  0.66862325  1
  Ni  Ni41  1  0.49908727  0.50387479  0.83536628  1
  Fe  Fe42  1  0.50246629  0.83333347  0.50040511  1
  Ni  Ni43  1  0.33588715  0.66800047  0.66796517  1
  Ni  Ni44  1  0.50230727  0.83355485  0.83356015  1
  Cr  Cr45  1  0.83712245  0.16420498  0.50113726  1
  Ni  Ni46  1  0.67038359  0.99886583  0.66992773  1
  Ni  Ni47  1  0.83657017  0.16647830  0.83464051  1
  Cr  Cr48  1  0.83358230  0.50392332  0.50337382  1
  Cr  Cr49  1  0.66901756  0.33401980  0.67188034  1
  Fe  Fe50  1  0.83625730  0.50067592  0.83623839  1
  Ni  Ni51  1  0.83246358  0.83570548  0.50127774  1
  Fe  Fe52  1  0.66594313  0.67165850  0.66903397  1
  Ni  Ni53  1  0.83327607  0.83730778  0.83387628  1
" 