7995,Ni54Fe21Cr23_17,-231.268465223303, 187.913077171033,Ni54Fe21Cr23,"# generated using pymatgen
 data_Cr14Fe11Ni29
_symmetry_space_group_name_H-M   'P 1'
_cell_length_a   7.45549578
_cell_length_b   7.45549578
_cell_length_c   10.54366324
_cell_angle_alpha   90.00000000
_cell_angle_beta   90.00000000
_cell_angle_gamma   90.00000000
_symmetry_Int_Tables_number   1
_chemical_formula_structural   Cr14Fe11Ni29
_chemical_formula_sum   'Cr14 Fe11 Ni29'
_cell_volume   586.06337684
_cell_formula_units_Z   1
loop_
 _symmetry_equiv_pos_site_id
 _symmetry_equiv_pos_as_xyz
  1  'x, y, z'
loop_
 _atom_site_type_symbol
 _atom_site_label
 _atom_site_symmetry_multiplicity
 _atom_site_fract_x
 _atom_site_fract_y
 _atom_site_fract_z
 _atom_site_occupancy
  Ni  Ni0  1  1.00021326  0.00179706  0.99914161  1
  Ni  Ni1  1  0.16232808  0.16998757  0.16745614  1
  Ni  Ni2  1  0.99895665  0.00364815  0.33402652  1
  Ni  Ni3  1  0.99984816  0.33387928  1.00072088  1
  Ni  Ni4  1  0.16749716  0.49906253  0.16920255  1
  Ni  Ni5  1  0.00100778  0.33282107  0.33504595  1
  Ni  Ni6  1  0.99839023  0.66661736  0.00157818  1
  Cr  Cr7  1  0.16308536  0.83249680  0.16734787  1
  Fe  Fe8  1  0.00078359  0.66459028  0.33463784  1
  Cr  Cr9  1  0.33018748  0.00248317  0.00087298  1
  Fe  Fe10  1  0.50181857  0.17002313  0.16958952  1
  Cr  Cr11  1  0.33296134  0.00420251  0.33453199  1
  Cr  Cr12  1  0.33243502  0.33268199  0.00262760  1
  Ni  Ni13  1  0.49965937  0.49833481  0.16695268  1
  Ni  Ni14  1  0.33280912  0.33403076  0.33466848  1
  Fe  Fe15  1  0.33065605  0.66626692  0.00151783  1
  Cr  Cr16  1  0.50131561  0.83260623  0.16853380  1
  Ni  Ni17  1  0.33484861  0.66466495  0.33359077  1
  Cr  Cr18  1  0.67011803  0.00097367  0.00211496  1
  Ni  Ni19  1  0.83594144  0.16787976  0.16755204  1
  Fe  Fe20  1  0.66963293  0.00340347  0.33507472  1
  Fe  Fe21  1  0.67201795  0.33369546  0.00200441  1
  Fe  Fe22  1  0.83716225  0.49921774  0.16784989  1
  Ni  Ni23  1  0.66886389  0.33408306  0.33193789  1
  Cr  Cr24  1  0.67099279  0.66503907  0.99966524  1
  Ni  Ni25  1  0.83660488  0.83723516  0.16852790  1
  Cr  Cr26  1  0.67021124  0.66689198  0.33624811  1
  Ni  Ni27  1  0.16580142  0.16944414  0.50225384  1
  Fe  Fe28  1  0.99978534  1.00020731  0.66727041  1
  Fe  Fe29  1  0.16346941  0.16643273  0.83250485  1
  Ni  Ni30  1  0.16619171  0.49947736  0.49980497  1
  Fe  Fe31  1  0.99956855  0.33492520  0.66615843  1
  Cr  Cr32  1  0.16580999  0.50246055  0.83277665  1
  Cr  Cr33  1  0.16625796  0.83188478  0.49938565  1
  Ni  Ni34  1  0.99798673  0.66696736  0.66660396  1
  Ni  Ni35  1  0.16407988  0.83398314  0.83461972  1
  Ni  Ni36  1  0.50282022  0.16758313  0.50053466  1
  Ni  Ni37  1  0.33202192  0.00251132  0.66703266  1
  Cr  Cr38  1  0.50389658  0.16890055  0.83257022  1
  Cr  Cr39  1  0.49964277  0.50012376  0.50287626  1
  Fe  Fe40  1  0.33273590  0.33392457  0.66515924  1
  Cr  Cr41  1  0.50187271  0.50014543  0.83282675  1
  Ni  Ni42  1  0.50186919  0.83558769  0.50288855  1
  Ni  Ni43  1  0.33248716  0.67034496  0.66716426  1
  Cr  Cr44  1  0.49947926  0.83317914  0.83205573  1
  Ni  Ni45  1  0.83362371  0.16786691  0.50058152  1
  Fe  Fe46  1  0.66931112  0.99998540  0.66598559  1
  Ni  Ni47  1  0.83635466  0.16808493  0.83361141  1
  Ni  Ni48  1  0.83600185  0.49868586  0.50115720  1
  Ni  Ni49  1  0.67120883  0.33416608  0.66778530  1
  Ni  Ni50  1  0.83574928  0.49879210  0.83415118  1
  Ni  Ni51  1  0.83378888  0.83590276  0.50081963  1
  Ni  Ni52  1  0.67158874  0.66680649  0.66729371  1
  Ni  Ni53  1  0.83808425  0.83484726  0.83294417  1
" 