3779,Ni54Fe46_1,-240.542891144534, 225.976320456889,Ni54Fe46,"# generated using pymatgen
 data_Fe29Ni25
_symmetry_space_group_name_H-M   'P 1'
_cell_length_a   7.39748012
_cell_length_b   7.39748012
_cell_length_c   10.46161672
_cell_angle_alpha   90.00000000
_cell_angle_beta   90.00000000
_cell_angle_gamma   90.00000000
_symmetry_Int_Tables_number   1
_chemical_formula_structural   Fe29Ni25
_chemical_formula_sum   'Fe29 Ni25'
_cell_volume   572.48804089
_cell_formula_units_Z   1
loop_
 _symmetry_equiv_pos_site_id
 _symmetry_equiv_pos_as_xyz
  1  'x, y, z'
loop_
 _atom_site_type_symbol
 _atom_site_label
 _atom_site_symmetry_multiplicity
 _atom_site_fract_x
 _atom_site_fract_y
 _atom_site_fract_z
 _atom_site_occupancy
  Fe  Fe0  1  1.00469667  1.00443109  1.00385512  1
  Fe  Fe1  1  0.16992314  0.17249377  0.17060241  1
  Fe  Fe2  1  1.00365954  0.00497656  0.33838639  1
  Ni  Ni3  1  0.00584274  0.33800038  0.00498042  1
  Ni  Ni4  1  0.17139958  0.50418251  0.17170897  1
  Ni  Ni5  1  0.00498553  0.33878302  0.33784579  1
  Ni  Ni6  1  1.00465850  0.67137768  1.00431545  1
  Fe  Fe7  1  0.16976997  0.83690245  0.17187137  1
  Ni  Ni8  1  0.00545112  0.67117991  0.33778682  1
  Fe  Fe9  1  0.33755363  1.00414335  1.00435676  1
  Fe  Fe10  1  0.50581375  0.17205603  0.17188645  1
  Fe  Fe11  1  0.33804804  1.00468644  0.33860686  1
  Ni  Ni12  1  0.33696703  0.33799456  0.00544027  1
  Fe  Fe13  1  0.50558860  0.50454900  0.17087144  1
  Fe  Fe14  1  0.33790070  0.33816880  0.33782386  1
  Ni  Ni15  1  0.33813799  0.67137148  0.00487911  1
  Fe  Fe16  1  0.50580899  0.83750110  0.17116369  1
  Fe  Fe17  1  0.33781392  0.67124971  0.33799097  1
  Fe  Fe18  1  0.67185078  1.00392394  1.00464493  1
  Ni  Ni19  1  0.83802662  0.17188350  0.17139137  1
  Ni  Ni20  1  0.67070800  1.00460609  0.33820406  1
  Fe  Fe21  1  0.67185284  0.33928797  0.00514247  1
  Ni  Ni22  1  0.83886220  0.50417573  0.17109195  1
  Ni  Ni23  1  0.67153821  0.33677895  0.33764235  1
  Ni  Ni24  1  0.67130876  0.67292084  0.00589998  1
  Ni  Ni25  1  0.83731301  0.83804927  0.17211882  1
  Fe  Fe26  1  0.67241004  0.67109318  0.33790220  1
  Fe  Fe27  1  0.17165521  0.17081296  0.50575648  1
  Ni  Ni28  1  1.00436323  0.00476793  0.67092748  1
  Ni  Ni29  1  0.17074342  0.17283735  0.83776693  1
  Fe  Fe30  1  0.17158059  0.50533448  0.50406605  1
  Ni  Ni31  1  0.00589582  0.33705705  0.67128114  1
  Fe  Fe32  1  0.17104347  0.50418957  0.83909036  1
  Ni  Ni33  1  0.17251462  0.83786987  0.50524910  1
  Fe  Fe34  1  1.00379525  0.67130112  0.67106088  1
  Fe  Fe35  1  0.17067401  0.83888500  0.83775919  1
  Fe  Fe36  1  0.50470478  0.17067406  0.50460657  1
  Fe  Fe37  1  0.33844344  0.00518569  0.67114280  1
  Fe  Fe38  1  0.50502735  0.17088390  0.83761617  1
  Fe  Fe39  1  0.50449305  0.50517953  0.50527694  1
  Ni  Ni40  1  0.33748156  0.33787834  0.67098277  1
  Fe  Fe41  1  0.50510650  0.50464371  0.83796171  1
  Ni  Ni42  1  0.50427936  0.83787113  0.50468006  1
  Fe  Fe43  1  0.33881828  0.67157515  0.67133605  1
  Ni  Ni44  1  0.50523329  0.83718118  0.83761197  1
  Fe  Fe45  1  0.83774500  0.17062022  0.50483775  1
  Ni  Ni46  1  0.67154205  1.00359393  0.67148534  1
  Ni  Ni47  1  0.83895581  0.17165698  0.83782475  1
  Fe  Fe48  1  0.83803486  0.50531225  0.50414598  1
  Ni  Ni49  1  0.67072937  0.33751651  0.67194812  1
  Fe  Fe50  1  0.83795564  0.50478354  0.83835978  1
  Fe  Fe51  1  0.83790146  0.83817076  0.50490836  1
  Ni  Ni52  1  0.67072198  0.67299475  0.67061851  1
  Ni  Ni53  1  0.83658447  0.83836950  0.83720225  1
" 