3014,Ni54Fe21Cr23_1,-231.100218569748, 181.169994919345,Ni54Fe21Cr23,"# generated using pymatgen
 data_Cr14Fe11Ni29
_symmetry_space_group_name_H-M   'P 1'
_cell_length_a   7.46179492
_cell_length_b   7.46179492
_cell_length_c   10.55257157
_cell_angle_alpha   90.00000000
_cell_angle_beta   90.00000000
_cell_angle_gamma   90.00000000
_symmetry_Int_Tables_number   1
_chemical_formula_structural   Cr14Fe11Ni29
_chemical_formula_sum   'Cr14 Fe11 Ni29'
_cell_volume   587.55012600
_cell_formula_units_Z   1
loop_
 _symmetry_equiv_pos_site_id
 _symmetry_equiv_pos_as_xyz
  1  'x, y, z'
loop_
 _atom_site_type_symbol
 _atom_site_label
 _atom_site_symmetry_multiplicity
 _atom_site_fract_x
 _atom_site_fract_y
 _atom_site_fract_z
 _atom_site_occupancy
  Ni  Ni0  1  0.99672196  0.99968526  0.99815253  1
  Cr  Cr1  1  0.16652999  0.16686106  0.16951561  1
  Fe  Fe2  1  0.99983005  0.00091298  0.33404779  1
  Cr  Cr3  1  1.00017301  0.33296150  0.99973246  1
  Fe  Fe4  1  0.16690280  0.50112545  0.16957907  1
  Ni  Ni5  1  0.00179993  0.33418402  0.33446725  1
  Cr  Cr6  1  0.00097386  0.66829102  1.00002089  1
  Cr  Cr7  1  0.16643677  0.83359407  0.16811941  1
  Ni  Ni8  1  0.00142867  0.66584455  0.33335644  1
  Cr  Cr9  1  0.33524144  0.99843240  0.99800277  1
  Fe  Fe10  1  0.50292477  0.16573336  0.16834703  1
  Ni  Ni11  1  0.33482373  0.99912020  0.33555511  1
  Cr  Cr12  1  0.33351473  0.33528176  0.99996067  1
  Ni  Ni13  1  0.50094394  0.50238457  0.16733639  1
  Ni  Ni14  1  0.33144225  0.33492195  0.33432871  1
  Ni  Ni15  1  0.33506198  0.66756010  0.99952978  1
  Fe  Fe16  1  0.50386582  0.83240390  0.16788259  1
  Ni  Ni17  1  0.33371926  0.66701452  0.33523418  1
  Ni  Ni18  1  0.66869984  0.99845092  0.99941643  1
  Ni  Ni19  1  0.83308759  0.16511159  0.16699501  1
  Ni  Ni20  1  0.66664557  0.99874920  0.33243768  1
  Cr  Cr21  1  0.66736871  0.33180251  0.00173595  1
  Ni  Ni22  1  0.83159107  0.50194048  0.16846380  1
  Cr  Cr23  1  0.66785464  0.33317003  0.33275369  1
  Ni  Ni24  1  0.66573242  0.67081831  0.00148931  1
  Ni  Ni25  1  0.83118606  0.83400194  0.16713636  1
  Ni  Ni26  1  0.66590704  0.66922487  0.33261969  1
  Ni  Ni27  1  0.16586902  0.16746224  0.50000100  1
  Fe  Fe28  1  0.00175622  0.00218578  0.66819092  1
  Ni  Ni29  1  0.16691611  0.16616459  0.83168466  1
  Ni  Ni30  1  0.16897972  0.49943805  0.49945276  1
  Ni  Ni31  1  0.00339579  0.33237231  0.66709944  1
  Ni  Ni32  1  0.16781817  0.50003043  0.83274499  1
  Ni  Ni33  1  0.16881938  0.83415642  0.50005415  1
  Fe  Fe34  1  0.00323834  0.66663464  0.66767943  1
  Ni  Ni35  1  0.16652915  0.83486222  0.83292022  1
  Cr  Cr36  1  0.49821456  0.16668934  0.49919002  1
  Fe  Fe37  1  0.33251933  0.00072040  0.66762705  1
  Ni  Ni38  1  0.49919831  0.16416144  0.83351479  1
  Ni  Ni39  1  0.49723092  0.50313371  0.50035190  1
  Ni  Ni40  1  0.33029277  0.33378138  0.66718023  1
  Cr  Cr41  1  0.49885684  0.50164211  0.83324640  1
  Ni  Ni42  1  0.49874276  0.83180804  0.49950945  1
  Fe  Fe43  1  0.33249441  0.66664507  0.66619636  1
  Ni  Ni44  1  0.50150348  0.83494789  0.83419408  1
  Ni  Ni45  1  0.83719249  0.16595250  0.50021831  1
  Fe  Fe46  1  0.66677951  0.99993049  0.66854102  1
  Fe  Fe47  1  0.83488191  0.16284100  0.83333704  1
  Cr  Cr48  1  0.83402792  0.50033697  0.49987967  1
  Cr  Cr49  1  0.66721483  0.33205350  0.66656784  1
  Cr  Cr50  1  0.83431372  0.50227996  0.83288820  1
  Cr  Cr51  1  0.83346694  0.83442952  0.49914084  1
  Fe  Fe52  1  0.66532209  0.66891334  0.66704566  1
  Ni  Ni53  1  0.83302389  0.83585066  0.83433345  1
" 