8330,Ni54Fe25Cr19_7,-232.595418871781, 195.426360868766,Ni54Fe25Cr19,"# generated using pymatgen
 data_Cr12Fe13Ni29
_symmetry_space_group_name_H-M   'P 1'
_cell_length_a   7.44370054
_cell_length_b   7.44370054
_cell_length_c   10.52698226
_cell_angle_alpha   90.00000000
_cell_angle_beta   90.00000000
_cell_angle_gamma   90.00000000
_symmetry_Int_Tables_number   1
_chemical_formula_structural   Cr12Fe13Ni29
_chemical_formula_sum   'Cr12 Fe13 Ni29'
_cell_volume   583.28616850
_cell_formula_units_Z   1
loop_
 _symmetry_equiv_pos_site_id
 _symmetry_equiv_pos_as_xyz
  1  'x, y, z'
loop_
 _atom_site_type_symbol
 _atom_site_label
 _atom_site_symmetry_multiplicity
 _atom_site_fract_x
 _atom_site_fract_y
 _atom_site_fract_z
 _atom_site_occupancy
  Cr  Cr0  1  0.00280928  0.00246571  0.00219368  1
  Ni  Ni1  1  0.17085044  0.16684851  0.16914827  1
  Fe  Fe2  1  0.00301657  0.99784048  0.33341925  1
  Cr  Cr3  1  1.00090060  0.33444290  0.99956919  1
  Cr  Cr4  1  0.17043199  0.50593466  0.16747052  1
  Cr  Cr5  1  1.00047289  0.33332284  0.33318929  1
  Ni  Ni6  1  1.00045175  0.66762540  1.00055606  1
  Fe  Fe7  1  0.16902867  0.83507462  0.16783268  1
  Ni  Ni8  1  1.00142495  0.66894537  0.33499609  1
  Ni  Ni9  1  0.33687399  1.00047147  0.00224439  1
  Ni  Ni10  1  0.50228570  0.16789977  0.16888476  1
  Ni  Ni11  1  0.33537124  1.00098307  0.33413633  1
  Fe  Fe12  1  0.33667638  0.33500261  0.00201836  1
  Ni  Ni13  1  0.50115238  0.50092775  0.16787224  1
  Fe  Fe14  1  0.33724802  0.33475009  0.33395506  1
  Ni  Ni15  1  0.33779541  0.67002422  1.00116136  1
  Fe  Fe16  1  0.50170739  0.83573211  0.16746396  1
  Ni  Ni17  1  0.33648497  0.67167043  0.33465955  1
  Ni  Ni18  1  0.66640821  1.00002924  0.00224588  1
  Ni  Ni19  1  0.83170566  0.16564650  0.16916743  1
  Ni  Ni20  1  0.66543608  1.00081533  0.33336717  1
  Fe  Fe21  1  0.66663202  0.33567100  0.00240874  1
  Ni  Ni22  1  0.83343762  0.50369075  0.16725734  1
  Fe  Fe23  1  0.66508710  0.33570685  0.33322711  1
  Ni  Ni24  1  0.66639539  0.66847977  0.00182901  1
  Ni  Ni25  1  0.83542144  0.83505436  0.16837087  1
  Cr  Cr26  1  0.66551406  0.66824162  0.33509714  1
  Ni  Ni27  1  0.16983847  0.16706273  0.50129624  1
  Cr  Cr28  1  0.00395892  1.00095721  0.66912229  1
  Fe  Fe29  1  0.17198674  0.16636987  0.83541456  1
  Cr  Cr30  1  0.17026985  0.50415368  0.50149107  1
  Cr  Cr31  1  1.00133744  0.33571559  0.67183905  1
  Ni  Ni32  1  0.17066740  0.50544219  0.83497205  1
  Fe  Fe33  1  0.17103463  0.83573510  0.50142111  1
  Ni  Ni34  1  0.00226343  0.66743654  0.66871972  1
  Ni  Ni35  1  0.16894853  0.83029575  0.83491381  1
  Cr  Cr36  1  0.50142527  0.16777732  0.50274938  1
  Ni  Ni37  1  0.33546231  0.99888138  0.66861548  1
  Cr  Cr38  1  0.50380965  0.16728223  0.83341582  1
  Ni  Ni39  1  0.49934988  0.50219002  0.50161573  1
  Fe  Fe40  1  0.33594278  0.33653376  0.66897793  1
  Ni  Ni41  1  0.49829093  0.50218707  0.83504234  1
  Ni  Ni42  1  0.50059583  0.83561237  0.50210485  1
  Ni  Ni43  1  0.33577545  0.67045446  0.66867883  1
  Ni  Ni44  1  0.50100479  0.83444833  0.83589688  1
  Cr  Cr45  1  0.83271352  0.16455634  0.50019215  1
  Ni  Ni46  1  0.66647816  1.00039082  0.66912083  1
  Ni  Ni47  1  0.83164113  0.16612126  0.83515278  1
  Fe  Fe48  1  0.83380091  0.50187324  0.50129003  1
  Ni  Ni49  1  0.66894020  0.33717953  0.66834798  1
  Fe  Fe50  1  0.83241460  0.50451898  0.83626599  1
  Fe  Fe51  1  0.83515903  0.83399722  0.50114484  1
  Cr  Cr52  1  0.66569878  0.66860635  0.66815288  1
  Ni  Ni53  1  0.83485632  0.83560838  0.83498878  1
" 