1542,Ni54Fe21Cr23_16,-230.54653219218, 176.803829006905,Ni54Fe21Cr23,"# generated using pymatgen
 data_Cr14Fe11Ni29
_symmetry_space_group_name_H-M   'P 1'
_cell_length_a   7.45793309
_cell_length_b   7.45793309
_cell_length_c   10.54711013
_cell_angle_alpha   90.00000000
_cell_angle_beta   90.00000000
_cell_angle_gamma   90.00000000
_symmetry_Int_Tables_number   1
_chemical_formula_structural   Cr14Fe11Ni29
_chemical_formula_sum   'Cr14 Fe11 Ni29'
_cell_volume   586.63834454
_cell_formula_units_Z   1
loop_
 _symmetry_equiv_pos_site_id
 _symmetry_equiv_pos_as_xyz
  1  'x, y, z'
loop_
 _atom_site_type_symbol
 _atom_site_label
 _atom_site_symmetry_multiplicity
 _atom_site_fract_x
 _atom_site_fract_y
 _atom_site_fract_z
 _atom_site_occupancy
  Ni  Ni0  1  0.00209122  0.00295669  0.00149622  1
  Ni  Ni1  1  0.16424760  0.16559258  0.16646143  1
  Cr  Cr2  1  0.99958799  0.00072498  0.33228738  1
  Ni  Ni3  1  0.99833544  0.33146620  1.00056824  1
  Cr  Cr4  1  0.16565933  0.50131178  0.16709860  1
  Fe  Fe5  1  0.99689705  0.33449350  0.33463209  1
  Cr  Cr6  1  0.00159407  0.66781066  1.00024481  1
  Ni  Ni7  1  0.16765710  0.83460994  0.16653809  1
  Fe  Fe8  1  0.99854435  0.66638906  0.33422076  1
  Cr  Cr9  1  0.33184545  0.99888549  0.00166616  1
  Ni  Ni10  1  0.50332054  0.16567306  0.16774566  1
  Cr  Cr11  1  0.33500687  1.00031515  0.33295104  1
  Cr  Cr12  1  0.33392334  0.33379720  0.99874302  1
  Cr  Cr13  1  0.50261403  0.50168139  0.16815899  1
  Cr  Cr14  1  0.33423637  0.33322938  0.33585134  1
  Ni  Ni15  1  0.33373851  0.66910315  0.99969306  1
  Ni  Ni16  1  0.50015333  0.83428617  0.16853189  1
  Fe  Fe17  1  0.33551547  0.66904204  0.33515060  1
  Cr  Cr18  1  0.66838039  0.00228999  0.00254569  1
  Ni  Ni19  1  0.83426396  0.16832965  0.16641242  1
  Ni  Ni20  1  0.66743078  0.99962357  0.33379908  1
  Ni  Ni21  1  0.67007502  0.33384426  0.99985709  1
  Ni  Ni22  1  0.83394183  0.49846633  0.16866912  1
  Ni  Ni23  1  0.66910091  0.33461425  0.33445852  1
  Cr  Cr24  1  0.66598703  0.66572870  0.99992220  1
  Ni  Ni25  1  0.83402251  0.83503463  0.16910155  1
  Ni  Ni26  1  0.66842799  0.66759413  0.33470019  1
  Fe  Fe27  1  0.16719258  0.16962931  0.50309454  1
  Fe  Fe28  1  0.00108463  0.00262776  0.66763809  1
  Ni  Ni29  1  0.16501103  0.16708449  0.83219940  1
  Ni  Ni30  1  0.16580802  0.50070812  0.50136622  1
  Ni  Ni31  1  0.00304973  0.33335254  0.66701831  1
  Fe  Fe32  1  0.16662277  0.49967402  0.83288306  1
  Fe  Fe33  1  0.16717344  0.83260984  0.50121876  1
  Fe  Fe34  1  0.00109532  0.66539505  0.66668193  1
  Ni  Ni35  1  0.16908225  0.83516080  0.83380644  1
  Ni  Ni36  1  0.50196948  0.16589982  0.50201747  1
  Fe  Fe37  1  0.33458869  0.00254014  0.66756059  1
  Fe  Fe38  1  0.50107337  0.16739946  0.83234341  1
  Ni  Ni39  1  0.49988551  0.50101771  0.49874243  1
  Ni  Ni40  1  0.33112486  0.33252237  0.66714804  1
  Ni  Ni41  1  0.49984908  0.50072771  0.83497848  1
  Ni  Ni42  1  0.50113671  0.83491831  0.49966266  1
  Cr  Cr43  1  0.33343940  0.66635958  0.66789765  1
  Ni  Ni44  1  0.49741979  0.83326685  0.83364144  1
  Ni  Ni45  1  0.83351015  0.16758391  0.50066571  1
  Ni  Ni46  1  0.66695074  0.00072322  0.66578411  1
  Ni  Ni47  1  0.83647290  0.16951775  0.83475652  1
  Ni  Ni48  1  0.83613777  0.49987488  0.49879587  1
  Cr  Cr49  1  0.66705156  0.33320948  0.66783483  1
  Ni  Ni50  1  0.83458091  0.49665549  0.83436920  1
  Fe  Fe51  1  0.83207970  0.83375409  0.50003926  1
  Cr  Cr52  1  0.66800928  0.66800429  0.66727976  1
  Cr  Cr53  1  0.83499919  0.83588644  0.83206792  1
" 