2518,Ni54Fe21Cr23_12,-231.173189364153, 187.011467116956,Ni54Fe21Cr23,"# generated using pymatgen
 data_Cr14Fe11Ni29
_symmetry_space_group_name_H-M   'P 1'
_cell_length_a   7.45204260
_cell_length_b   7.45204260
_cell_length_c   10.53877971
_cell_angle_alpha   90.00000000
_cell_angle_beta   90.00000000
_cell_angle_gamma   90.00000000
_symmetry_Int_Tables_number   1
_chemical_formula_structural   Cr14Fe11Ni29
_chemical_formula_sum   'Cr14 Fe11 Ni29'
_cell_volume   585.24940926
_cell_formula_units_Z   1
loop_
 _symmetry_equiv_pos_site_id
 _symmetry_equiv_pos_as_xyz
  1  'x, y, z'
loop_
 _atom_site_type_symbol
 _atom_site_label
 _atom_site_symmetry_multiplicity
 _atom_site_fract_x
 _atom_site_fract_y
 _atom_site_fract_z
 _atom_site_occupancy
  Ni  Ni0  1  0.00244724  0.00242017  0.99812257  1
  Cr  Cr1  1  0.16575501  0.16834840  0.16695788  1
  Ni  Ni2  1  0.99816018  0.00260236  0.33576822  1
  Ni  Ni3  1  0.99937016  0.33430392  0.99903967  1
  Ni  Ni4  1  0.16434593  0.50159619  0.16994598  1
  Ni  Ni5  1  0.99974082  0.33525414  0.33563332  1
  Fe  Fe6  1  0.00184266  0.66604721  0.99873883  1
  Fe  Fe7  1  0.16453634  0.83224691  0.16736742  1
  Fe  Fe8  1  1.00068177  0.66516040  0.33581428  1
  Ni  Ni9  1  0.33058016  0.99975588  1.00069867  1
  Fe  Fe10  1  0.50379436  0.16983547  0.16849476  1
  Cr  Cr11  1  0.33418655  0.99994720  0.33224952  1
  Cr  Cr12  1  0.33202630  0.33439445  1.00014347  1
  Cr  Cr13  1  0.50208568  0.49921246  0.16872415  1
  Ni  Ni14  1  0.33280332  0.33801209  0.33512340  1
  Cr  Cr15  1  0.33207529  0.66849768  0.99859798  1
  Cr  Cr16  1  0.50080472  0.83539736  0.16797054  1
  Ni  Ni17  1  0.33205717  0.66524329  0.33664994  1
  Cr  Cr18  1  0.66936431  0.00276037  1.00073928  1
  Ni  Ni19  1  0.83544949  0.16906714  0.16871359  1
  Ni  Ni20  1  0.67118904  0.00278327  0.33590292  1
  Ni  Ni21  1  0.67291785  0.33459281  0.00166892  1
  Ni  Ni22  1  0.83838592  0.49814242  0.16658342  1
  Ni  Ni23  1  0.67106119  0.33413174  0.33353853  1
  Cr  Cr24  1  0.66998669  0.66498220  0.99617333  1
  Cr  Cr25  1  0.83754016  0.83336034  0.16786794  1
  Cr  Cr26  1  0.66780512  0.66697140  0.33823780  1
  Cr  Cr27  1  0.16583514  0.16993107  0.50461309  1
  Fe  Fe28  1  0.99809517  0.99924753  0.66951042  1
  Ni  Ni29  1  0.16642843  0.16709151  0.83283193  1
  Ni  Ni30  1  0.16716659  0.50049857  0.50088408  1
  Fe  Fe31  1  0.99876937  0.33625335  0.66903717  1
  Ni  Ni32  1  0.16561730  0.50092798  0.83213540  1
  Cr  Cr33  1  0.16550123  0.83327995  0.50027189  1
  Ni  Ni34  1  1.00039325  0.66598857  0.66817135  1
  Ni  Ni35  1  0.16612859  0.83497469  0.83489421  1
  Cr  Cr36  1  0.50169479  0.16881942  0.49894393  1
  Ni  Ni37  1  0.33328608  0.99946136  0.67030212  1
  Cr  Cr38  1  0.50126863  0.16833939  0.83545373  1
  Ni  Ni39  1  0.50121981  0.50098550  0.50235537  1
  Fe  Fe40  1  0.33501125  0.33680633  0.66816514  1
  Fe  Fe41  1  0.50208766  0.50038813  0.83135219  1
  Ni  Ni42  1  0.50256727  0.83381737  0.50337260  1
  Fe  Fe43  1  0.33490372  0.66730941  0.66756139  1
  Fe  Fe44  1  0.50081600  0.83450265  0.83129174  1
  Fe  Fe45  1  0.83352786  0.16893966  0.50117458  1
  Ni  Ni46  1  0.66831090  1.00018312  0.66669029  1
  Ni  Ni47  1  0.83543361  0.16834628  0.83318439  1
  Ni  Ni48  1  0.83482431  0.50122925  0.50139429  1
  Ni  Ni49  1  0.67044122  0.33616951  0.66773233  1
  Ni  Ni50  1  0.83530182  0.50060237  0.83478577  1
  Ni  Ni51  1  0.83324059  0.83448912  0.50219908  1
  Ni  Ni52  1  0.66958741  0.66699784  0.66798536  1
  Ni  Ni53  1  0.83591426  0.83371848  0.83260547  1
" 