5348,Ni54Fe46_7,-240.459388207108, 225.806080842551,Ni54Fe46,"# generated using pymatgen
 data_Fe29Ni25
_symmetry_space_group_name_H-M   'P 1'
_cell_length_a   7.39783615
_cell_length_b   7.39783615
_cell_length_c   10.46212021
_cell_angle_alpha   90.00000000
_cell_angle_beta   90.00000000
_cell_angle_gamma   90.00000000
_symmetry_Int_Tables_number   1
_chemical_formula_structural   Fe29Ni25
_chemical_formula_sum   'Fe29 Ni25'
_cell_volume   572.57070262
_cell_formula_units_Z   1
loop_
 _symmetry_equiv_pos_site_id
 _symmetry_equiv_pos_as_xyz
  1  'x, y, z'
loop_
 _atom_site_type_symbol
 _atom_site_label
 _atom_site_symmetry_multiplicity
 _atom_site_fract_x
 _atom_site_fract_y
 _atom_site_fract_z
 _atom_site_occupancy
  Fe  Fe0  1  0.00616116  1.00451894  0.00522127  1
  Ni  Ni1  1  0.17198227  0.17078932  0.17312409  1
  Fe  Fe2  1  1.00324851  1.00250772  0.33750603  1
  Fe  Fe3  1  1.00381035  0.33858659  1.00415749  1
  Fe  Fe4  1  0.17007850  0.50411795  0.17238541  1
  Fe  Fe5  1  1.00320398  0.33849370  0.33889471  1
  Fe  Fe6  1  1.00348416  0.67066264  0.00480459  1
  Fe  Fe7  1  0.17061617  0.83625866  0.17129719  1
  Ni  Ni8  1  1.00434358  0.67093949  0.33798772  1
  Fe  Fe9  1  0.33887927  1.00418596  1.00413685  1
  Fe  Fe10  1  0.50704963  0.17225255  0.17009595  1
  Fe  Fe11  1  0.33876762  1.00200619  0.33824531  1
  Ni  Ni12  1  0.33582882  0.33826683  0.00478444  1
  Ni  Ni13  1  0.50426819  0.50725765  0.17161200  1
  Fe  Fe14  1  0.33901349  0.33911048  0.33767275  1
  Ni  Ni15  1  0.33792815  0.66869227  1.00406261  1
  Fe  Fe16  1  0.50592001  0.83800079  0.17142079  1
  Ni  Ni17  1  0.33744902  0.67051002  0.33847175  1
  Ni  Ni18  1  0.67272948  0.00501399  1.00430257  1
  Ni  Ni19  1  0.84028551  0.17099824  0.17023678  1
  Ni  Ni20  1  0.67206673  0.00612287  0.33765540  1
  Fe  Fe21  1  0.66950887  0.34074155  1.00462482  1
  Ni  Ni22  1  0.83624712  0.50590614  0.17282474  1
  Fe  Fe23  1  0.67231938  0.33941972  0.33753942  1
  Ni  Ni24  1  0.67126450  0.67355669  0.00504916  1
  Ni  Ni25  1  0.83753733  0.83784487  0.17140574  1
  Ni  Ni26  1  0.67190112  0.67417322  0.33868023  1
  Fe  Fe27  1  0.17124535  0.17059057  0.50496783  1
  Fe  Fe28  1  0.00522977  0.00537447  0.67125785  1
  Ni  Ni29  1  0.17043329  0.17105995  0.83728618  1
  Ni  Ni30  1  0.17186829  0.50359018  0.50458097  1
  Ni  Ni31  1  0.00604965  0.33856470  0.67151211  1
  Fe  Fe32  1  0.17312061  0.50364174  0.83629104  1
  Fe  Fe33  1  0.16971102  0.83629428  0.50444708  1
  Ni  Ni34  1  1.00413200  0.67148331  0.67179098  1
  Fe  Fe35  1  0.17238812  0.83677517  0.83804227  1
  Fe  Fe36  1  0.50596129  0.17041412  0.50560916  1
  Fe  Fe37  1  0.33717789  1.00415107  0.67183741  1
  Ni  Ni38  1  0.50230212  0.17122861  0.83838610  1
  Fe  Fe39  1  0.50542672  0.50513224  0.50421468  1
  Ni  Ni40  1  0.33817967  0.33716805  0.67064139  1
  Ni  Ni41  1  0.50524531  0.50542578  0.83669843  1
  Ni  Ni42  1  0.50484689  0.83700054  0.50472248  1
  Fe  Fe43  1  0.33722348  0.67021448  0.67056089  1
  Ni  Ni44  1  0.50446400  0.83735009  0.83808266  1
  Ni  Ni45  1  0.83964575  0.17106282  0.50483199  1
  Fe  Fe46  1  0.67120398  0.00520756  0.67109235  1
  Fe  Fe47  1  0.83583527  0.17226221  0.83774462  1
  Fe  Fe48  1  0.83923147  0.50623873  0.50515251  1
  Fe  Fe49  1  0.67245973  0.33849668  0.67191824  1
  Ni  Ni50  1  0.83825856  0.50558060  0.83795902  1
  Ni  Ni51  1  0.83700100  0.83862567  0.50521478  1
  Fe  Fe52  1  0.67156240  0.67043622  0.67158147  1
  Fe  Fe53  1  0.83650564  0.83829728  0.83797788  1
" 