7640,Ni54Fe7Cr38_1,-223.783338524424, 152.823884535082,Ni54Fe7Cr38,"# generated using pymatgen
 data_Cr22Fe3Ni29
_symmetry_space_group_name_H-M   'P 1'
_cell_length_a   7.49421970
_cell_length_b   7.49421970
_cell_length_c   10.59842714
_cell_angle_alpha   90.00000000
_cell_angle_beta   90.00000000
_cell_angle_gamma   90.00000000
_symmetry_Int_Tables_number   1
_chemical_formula_structural   Cr22Fe3Ni29
_chemical_formula_sum   'Cr22 Fe3 Ni29'
_cell_volume   595.24294952
_cell_formula_units_Z   1
loop_
 _symmetry_equiv_pos_site_id
 _symmetry_equiv_pos_as_xyz
  1  'x, y, z'
loop_
 _atom_site_type_symbol
 _atom_site_label
 _atom_site_symmetry_multiplicity
 _atom_site_fract_x
 _atom_site_fract_y
 _atom_site_fract_z
 _atom_site_occupancy
  Ni  Ni0  1  0.99700212  0.99729420  -0.00118221  1
  Cr  Cr1  1  0.16746306  0.16447569  0.16423346  1
  Cr  Cr2  1  0.00062056  0.99603331  0.33156377  1
  Ni  Ni3  1  0.99766517  0.32946989  0.00068431  1
  Cr  Cr4  1  0.16865243  0.49705862  0.16281532  1
  Cr  Cr5  1  0.99349054  0.33216009  0.33064123  1
  Cr  Cr6  1  0.00110991  0.66591124  -0.00107704  1
  Ni  Ni7  1  0.16794593  0.83314987  0.16440747  1
  Cr  Cr8  1  0.99812380  0.66560635  0.33281859  1
  Cr  Cr9  1  0.33361621  0.99541535  0.99815702  1
  Ni  Ni10  1  0.49902734  0.16511531  0.16604634  1
  Ni  Ni11  1  0.33448620  0.99774848  0.33267076  1
  Ni  Ni12  1  0.33439833  0.33275866  0.99792262  1
  Ni  Ni13  1  0.50096901  0.49839362  0.16497810  1
  Ni  Ni14  1  0.33765987  0.33023647  0.33102772  1
  Ni  Ni15  1  0.33560147  0.66456230  0.99786241  1
  Ni  Ni16  1  0.49774608  0.83100546  0.16360645  1
  Cr  Cr17  1  0.33486090  0.66770379  0.32931219  1
  Ni  Ni18  1  0.66382614  0.99686694  0.99730988  1
  Ni  Ni19  1  0.82858515  0.16555542  0.16286899  1
  Cr  Cr20  1  0.66195437  -0.00134417  0.33226995  1
  Cr  Cr21  1  0.66202097  0.33131589  -0.00104367  1
  Ni  Ni22  1  0.82646523  0.49741686  0.16482455  1
  Ni  Ni23  1  0.66127558  0.33297659  0.33235745  1
  Ni  Ni24  1  0.66027227  0.66666382  0.99788543  1
  Cr  Cr25  1  0.82713580  0.83055983  0.16246934  1
  Ni  Ni26  1  0.66228010  0.66247963  0.33246718  1
  Cr  Cr27  1  0.17040554  0.16472932  0.49826015  1
  Cr  Cr28  1  0.99743910  0.99537534  0.66334432  1
  Cr  Cr29  1  0.16704682  0.16507680  0.83220044  1
  Cr  Cr30  1  0.16817834  0.49893833  0.50072581  1
  Cr  Cr31  1  0.99546208  0.33387206  0.66329311  1
  Cr  Cr32  1  0.16771254  0.49832083  0.83058565  1
  Ni  Ni33  1  0.16720491  0.83226743  0.50021395  1
  Ni  Ni34  1  0.00009284  0.66890581  0.66319220  1
  Ni  Ni35  1  0.16521624  0.83077737  0.82972307  1
  Ni  Ni36  1  0.49706411  0.16514919  0.49761996  1
  Fe  Fe37  1  0.33295213  0.99616452  0.66453276  1
  Ni  Ni38  1  0.49572901  0.16498960  0.83092516  1
  Ni  Ni39  1  0.49991314  0.49751890  0.49723285  1
  Ni  Ni40  1  0.33583080  0.33257722  0.66545140  1
  Ni  Ni41  1  0.49493502  0.49822647  0.83198953  1
  Ni  Ni42  1  0.49792369  0.83174333  0.49894994  1
  Ni  Ni43  1  0.33180142  0.66611609  0.66557004  1
  Fe  Fe44  1  0.49780176  0.82993316  0.83267879  1
  Fe  Fe45  1  0.82848396  0.16449232  0.49613861  1
  Cr  Cr46  1  0.66265668  -0.00161493  0.66570814  1
  Cr  Cr47  1  0.82996745  0.16173982  0.83560003  1
  Ni  Ni48  1  0.82794101  0.50184049  0.49697335  1
  Cr  Cr49  1  0.66163464  0.33088030  0.66261045  1
  Cr  Cr50  1  0.82934099  0.50237661  0.83300081  1
  Ni  Ni51  1  0.83026851  0.82838178  0.49862255  1
  Cr  Cr52  1  0.66294911  0.66522298  0.66522031  1
  Ni  Ni53  1  0.83189862  0.83151434  0.83384407  1
" 