2885,Ni54Fe25Cr19_4,-232.928223277242, 193.809677565428,Ni54Fe25Cr19,"# generated using pymatgen
 data_Cr12Fe13Ni29
_symmetry_space_group_name_H-M   'P 1'
_cell_length_a   7.44805964
_cell_length_b   7.44805964
_cell_length_c   10.53314696
_cell_angle_alpha   90.00000000
_cell_angle_beta   90.00000000
_cell_angle_gamma   90.00000000
_symmetry_Int_Tables_number   1
_chemical_formula_structural   Cr12Fe13Ni29
_chemical_formula_sum   'Cr12 Fe13 Ni29'
_cell_volume   584.31150203
_cell_formula_units_Z   1
loop_
 _symmetry_equiv_pos_site_id
 _symmetry_equiv_pos_as_xyz
  1  'x, y, z'
loop_
 _atom_site_type_symbol
 _atom_site_label
 _atom_site_symmetry_multiplicity
 _atom_site_fract_x
 _atom_site_fract_y
 _atom_site_fract_z
 _atom_site_occupancy
  Ni  Ni0  1  1.00117138  0.00300102  0.00280680  1
  Fe  Fe1  1  0.16645328  0.16779427  0.16660261  1
  Ni  Ni2  1  0.99886573  0.00186584  0.33446697  1
  Ni  Ni3  1  1.00093393  0.33303999  0.00211052  1
  Fe  Fe4  1  0.16970781  0.50004331  0.16821876  1
  Cr  Cr5  1  1.00125789  0.33282104  0.33441805  1
  Cr  Cr6  1  0.99988104  0.66776070  0.00146050  1
  Ni  Ni7  1  0.16849424  0.83623174  0.16773343  1
  Cr  Cr8  1  0.00185509  0.66937017  0.33390767  1
  Ni  Ni9  1  0.33390034  1.00014319  0.00193010  1
  Cr  Cr10  1  0.50079396  0.16771344  0.16806085  1
  Cr  Cr11  1  0.33378595  0.99970749  0.33547296  1
  Fe  Fe12  1  0.33236934  0.33503194  0.00254922  1
  Ni  Ni13  1  0.50194584  0.50273232  0.16985521  1
  Ni  Ni14  1  0.33526770  0.33797417  0.33337644  1
  Cr  Cr15  1  0.33650138  0.66891605  1.00097485  1
  Ni  Ni16  1  0.50115679  0.83285273  0.16741313  1
  Ni  Ni17  1  0.33686628  0.66620084  0.33448956  1
  Fe  Fe18  1  0.66949018  0.99809257  0.00165994  1
  Ni  Ni19  1  0.83653177  0.16801010  0.16748812  1
  Ni  Ni20  1  0.67050483  1.00026609  0.33356471  1
  Cr  Cr21  1  0.66997205  0.33613495  1.00054152  1
  Ni  Ni22  1  0.83315669  0.50049192  0.16753890  1
  Fe  Fe23  1  0.66819775  0.33549726  0.33462802  1
  Ni  Ni24  1  0.66720487  0.66885595  0.00174739  1
  Fe  Fe25  1  0.83275187  0.83606774  0.16749014  1
  Fe  Fe26  1  0.66587368  0.66814495  0.33418484  1
  Ni  Ni27  1  0.16576158  0.16623649  0.50150225  1
  Ni  Ni28  1  0.00220865  1.00082107  0.66655189  1
  Cr  Cr29  1  0.16680138  0.16622949  0.83552595  1
  Fe  Fe30  1  0.16854464  0.50186995  0.50202670  1
  Ni  Ni31  1  0.99834617  0.33536431  0.66746986  1
  Fe  Fe32  1  0.16653195  0.50301041  0.83357317  1
  Ni  Ni33  1  0.16896403  0.83529280  0.50381067  1
  Ni  Ni34  1  0.00151116  0.66763939  0.66847710  1
  Ni  Ni35  1  0.16839576  0.83510536  0.83228042  1
  Cr  Cr36  1  0.50135477  0.16806880  0.50048447  1
  Ni  Ni37  1  0.33245109  0.99700360  0.66703832  1
  Cr  Cr38  1  0.50089479  0.16655654  0.83527731  1
  Fe  Fe39  1  0.50159343  0.50327029  0.50034771  1
  Cr  Cr40  1  0.33425026  0.33621938  0.66739765  1
  Fe  Fe41  1  0.50273948  0.50476656  0.83400091  1
  Ni  Ni42  1  0.49939913  0.83197256  0.50144365  1
  Ni  Ni43  1  0.33463697  0.66997217  0.66785757  1
  Ni  Ni44  1  0.50064553  0.83337571  0.83496853  1
  Ni  Ni45  1  0.83656962  0.16995518  0.50208209  1
  Cr  Cr46  1  0.66893157  1.00055945  0.66895864  1
  Fe  Fe47  1  0.83656184  0.16731104  0.83445258  1
  Ni  Ni48  1  0.83324941  0.50020472  0.50328867  1
  Ni  Ni49  1  0.67149659  0.33755290  0.66731711  1
  Ni  Ni50  1  0.83447902  0.50176942  0.83299524  1
  Fe  Fe51  1  0.83516395  0.83556468  0.50184914  1
  Ni  Ni52  1  0.66767511  0.66610622  0.66816654  1
  Ni  Ni53  1  0.83478383  0.83227310  0.83499803  1
" 