3010,Ni54Fe21Cr23_18,-230.705310880427, 179.182135738467,Ni54Fe21Cr23,"# generated using pymatgen
 data_Cr14Fe11Ni29
_symmetry_space_group_name_H-M   'P 1'
_cell_length_a   7.45858326
_cell_length_b   7.45858326
_cell_length_c   10.54802960
_cell_angle_alpha   90.00000000
_cell_angle_beta   90.00000000
_cell_angle_gamma   90.00000000
_symmetry_Int_Tables_number   1
_chemical_formula_structural   Cr14Fe11Ni29
_chemical_formula_sum   'Cr14 Fe11 Ni29'
_cell_volume   586.79178380
_cell_formula_units_Z   1
loop_
 _symmetry_equiv_pos_site_id
 _symmetry_equiv_pos_as_xyz
  1  'x, y, z'
loop_
 _atom_site_type_symbol
 _atom_site_label
 _atom_site_symmetry_multiplicity
 _atom_site_fract_x
 _atom_site_fract_y
 _atom_site_fract_z
 _atom_site_occupancy
  Ni  Ni0  1  0.00081458  1.00055121  0.99864685  1
  Ni  Ni1  1  0.16790029  0.16500071  0.16671873  1
  Ni  Ni2  1  0.00206380  0.00089760  0.33420986  1
  Fe  Fe3  1  0.00100411  0.33298286  0.00223349  1
  Ni  Ni4  1  0.16953922  0.50066107  0.16651814  1
  Cr  Cr5  1  0.00266380  0.33438399  0.33339718  1
  Cr  Cr6  1  0.00142555  0.66900145  0.00459296  1
  Ni  Ni7  1  0.16844978  0.83606194  0.16828992  1
  Cr  Cr8  1  0.00167368  0.66818961  0.33261514  1
  Cr  Cr9  1  0.33440095  0.99945153  1.00045868  1
  Ni  Ni10  1  0.49833487  0.16643664  0.17079438  1
  Ni  Ni11  1  0.33470517  0.00084804  0.33498723  1
  Cr  Cr12  1  0.33444560  0.33489762  0.00261415  1
  Ni  Ni13  1  0.50069966  0.50291326  0.16787351  1
  Ni  Ni14  1  0.33587874  0.33329548  0.33287196  1
  Ni  Ni15  1  0.33668230  0.66685854  0.00193569  1
  Ni  Ni16  1  0.50056935  0.83251616  0.16788022  1
  Ni  Ni17  1  0.33709612  0.66758513  0.33270130  1
  Cr  Cr18  1  0.66640863  0.99778292  0.00079609  1
  Cr  Cr19  1  0.83357937  0.16497477  0.16834335  1
  Ni  Ni20  1  0.66460185  0.99949460  0.33282944  1
  Cr  Cr21  1  0.66451099  0.33433236  0.00122215  1
  Ni  Ni22  1  0.83132040  0.50267960  0.16671117  1
  Fe  Fe23  1  0.66441575  0.33547736  0.33425332  1
  Ni  Ni24  1  0.66488638  0.66756160  1.00049435  1
  Ni  Ni25  1  0.83277608  0.83357046  0.16704492  1
  Ni  Ni26  1  0.66464731  0.66732206  0.33302727  1
  Ni  Ni27  1  0.16979238  0.16360924  0.50156309  1
  Ni  Ni28  1  1.00038054  0.99954572  0.66844214  1
  Fe  Fe29  1  0.16797916  0.16628629  0.83268822  1
  Cr  Cr30  1  0.17061015  0.50263958  0.50137520  1
  Cr  Cr31  1  0.00069125  0.33242255  0.66542117  1
  Cr  Cr32  1  0.16945075  0.50200703  0.83418898  1
  Ni  Ni33  1  0.16938717  0.83746757  0.50217733  1
  Ni  Ni34  1  0.00110365  0.66988293  0.66638245  1
  Fe  Fe35  1  0.16831441  0.83419491  0.83245372  1
  Ni  Ni36  1  0.49894218  0.16780386  0.49985507  1
  Fe  Fe37  1  0.33198744  1.00056562  0.66614816  1
  Ni  Ni38  1  0.49907072  0.16730464  0.83122288  1
  Ni  Ni39  1  0.50234490  0.49991020  0.50183218  1
  Ni  Ni40  1  0.33726590  0.33325790  0.66724668  1
  Ni  Ni41  1  0.50070942  0.50108666  0.83198342  1
  Ni  Ni42  1  0.49842427  0.83401850  0.50039401  1
  Ni  Ni43  1  0.33579451  0.66719641  0.66709199  1
  Fe  Fe44  1  0.49924050  0.82953017  0.83350007  1
  Fe  Fe45  1  0.83265315  0.16635291  0.49891224  1
  Cr  Cr46  1  0.66560167  0.00148653  0.66808094  1
  Fe  Fe47  1  0.83489675  0.16667043  0.83444370  1
  Ni  Ni48  1  0.82924713  0.50042709  0.50211868  1
  Fe  Fe49  1  0.66460191  0.33499392  0.66655361  1
  Cr  Cr50  1  0.83241846  0.50258229  0.83354762  1
  Cr  Cr51  1  0.83412181  0.83328384  0.49915949  1
  Fe  Fe52  1  0.66550453  0.66633887  0.66600259  1
  Fe  Fe53  1  0.83461179  0.83404665  0.83379372  1
" 