1282,Ni54Fe46_3,-240.149863781531, 216.924780802997,Ni54Fe46,"# generated using pymatgen
 data_Fe29Ni25
_symmetry_space_group_name_H-M   'P 1'
_cell_length_a   7.39738446
_cell_length_b   7.39738446
_cell_length_c   10.46148142
_cell_angle_alpha   90.00000000
_cell_angle_beta   90.00000000
_cell_angle_gamma   90.00000000
_symmetry_Int_Tables_number   1
_chemical_formula_structural   Fe29Ni25
_chemical_formula_sum   'Fe29 Ni25'
_cell_volume   572.46582979
_cell_formula_units_Z   1
loop_
 _symmetry_equiv_pos_site_id
 _symmetry_equiv_pos_as_xyz
  1  'x, y, z'
loop_
 _atom_site_type_symbol
 _atom_site_label
 _atom_site_symmetry_multiplicity
 _atom_site_fract_x
 _atom_site_fract_y
 _atom_site_fract_z
 _atom_site_occupancy
  Fe  Fe0  1  1.00462141  1.00376611  1.00425216  1
  Fe  Fe1  1  0.17139129  0.17195803  0.17231261  1
  Ni  Ni2  1  0.00590511  0.00592992  0.33686205  1
  Fe  Fe3  1  1.00448204  0.33838656  1.00445532  1
  Ni  Ni4  1  0.17076349  0.50446536  0.17196429  1
  Ni  Ni5  1  1.00316319  0.33695778  0.33778495  1
  Fe  Fe6  1  1.00457519  0.67189568  0.00583208  1
  Fe  Fe7  1  0.17242712  0.83581409  0.17240085  1
  Ni  Ni8  1  0.00486713  0.67116733  0.33859675  1
  Fe  Fe9  1  0.33899033  1.00403646  0.00561551  1
  Ni  Ni10  1  0.50395198  0.17096422  0.17155492  1
  Ni  Ni11  1  0.33788246  1.00399066  0.33720101  1
  Fe  Fe12  1  0.33930869  0.33838584  0.00518682  1
  Ni  Ni13  1  0.50416852  0.50447577  0.17209533  1
  Fe  Fe14  1  0.33777079  0.33792324  0.33796818  1
  Ni  Ni15  1  0.33886186  0.67091854  1.00468300  1
  Ni  Ni16  1  0.50535417  0.83858355  0.17117202  1
  Ni  Ni17  1  0.33932921  0.67261455  0.33826858  1
  Ni  Ni18  1  0.67183983  0.00534825  1.00447808  1
  Fe  Fe19  1  0.83644492  0.17211711  0.17043401  1
  Fe  Fe20  1  0.67129381  1.00420283  0.33695234  1
  Fe  Fe21  1  0.67042327  0.33867570  0.00533547  1
  Ni  Ni22  1  0.83898807  0.50555607  0.17069697  1
  Ni  Ni23  1  0.67182376  0.33820111  0.33809081  1
  Fe  Fe24  1  0.67070911  0.67164479  0.00520478  1
  Ni  Ni25  1  0.83854931  0.83773402  0.17177176  1
  Ni  Ni26  1  0.66998187  0.67014556  0.33628360  1
  Ni  Ni27  1  0.17141255  0.17091699  0.50424248  1
  Ni  Ni28  1  0.00539619  0.00595244  0.67223661  1
  Fe  Fe29  1  0.17099376  0.17284740  0.83698746  1
  Fe  Fe30  1  0.17208340  0.50419252  0.50353446  1
  Ni  Ni31  1  0.00514493  0.33742866  0.67137259  1
  Fe  Fe32  1  0.17075634  0.50396077  0.83920604  1
  Ni  Ni33  1  0.17079081  0.83875329  0.50398470  1
  Fe  Fe34  1  1.00328776  0.67130381  0.67065409  1
  Fe  Fe35  1  0.17078781  0.83718536  0.83729472  1
  Ni  Ni36  1  0.50451657  0.17077822  0.50512965  1
  Fe  Fe37  1  0.33753973  1.00452744  0.66967618  1
  Fe  Fe38  1  0.50638404  0.17246253  0.83850045  1
  Fe  Fe39  1  0.50402764  0.50537229  0.50477382  1
  Fe  Fe40  1  0.33794837  0.33794837  0.67152535  1
  Ni  Ni41  1  0.50504874  0.50466657  0.83797318  1
  Ni  Ni42  1  0.50470316  0.83866528  0.50453889  1
  Fe  Fe43  1  0.33675736  0.67168374  0.67155016  1
  Fe  Fe44  1  0.50607286  0.83751319  0.83848532  1
  Fe  Fe45  1  0.83868262  0.17003148  0.50524400  1
  Fe  Fe46  1  0.67245967  0.00476694  0.67239924  1
  Ni  Ni47  1  0.83861581  0.17195075  0.83818069  1
  Fe  Fe48  1  0.83768112  0.50494782  0.50451850  1
  Fe  Fe49  1  0.67280713  0.33824973  0.67132302  1
  Ni  Ni50  1  0.83802938  0.50424332  0.83859042  1
  Fe  Fe51  1  0.83771023  0.83912898  0.50385056  1
  Ni  Ni52  1  0.66952992  0.67119476  0.67253591  1
  Fe  Fe53  1  0.83723042  0.83773448  0.83850352  1
" 