964,Ni54Fe21Cr23_15,-231.253449264946, 184.210789162766,Ni54Fe21Cr23,"# generated using pymatgen
 data_Cr14Fe11Ni29
_symmetry_space_group_name_H-M   'P 1'
_cell_length_a   7.45678932
_cell_length_b   7.45678932
_cell_length_c   10.54549259
_cell_angle_alpha   90.00000000
_cell_angle_beta   90.00000000
_cell_angle_gamma   90.00000000
_symmetry_Int_Tables_number   1
_chemical_formula_structural   Cr14Fe11Ni29
_chemical_formula_sum   'Cr14 Fe11 Ni29'
_cell_volume   586.36848045
_cell_formula_units_Z   1
loop_
 _symmetry_equiv_pos_site_id
 _symmetry_equiv_pos_as_xyz
  1  'x, y, z'
loop_
 _atom_site_type_symbol
 _atom_site_label
 _atom_site_symmetry_multiplicity
 _atom_site_fract_x
 _atom_site_fract_y
 _atom_site_fract_z
 _atom_site_occupancy
  Fe  Fe0  1  0.00155297  0.99853577  0.00089230  1
  Fe  Fe1  1  0.16639215  0.16627282  0.16769395  1
  Ni  Ni2  1  0.00293299  0.00124583  0.33334499  1
  Fe  Fe3  1  1.00055900  0.33364332  1.00034691  1
  Ni  Ni4  1  0.16712044  0.50157692  0.16763348  1
  Ni  Ni5  1  0.00115117  0.33392368  0.33479311  1
  Ni  Ni6  1  0.00203066  0.66813783  1.00039662  1
  Ni  Ni7  1  0.16541911  0.83381704  0.16829233  1
  Ni  Ni8  1  0.00410223  0.66691534  0.33433251  1
  Ni  Ni9  1  0.33101407  1.00047902  0.00137383  1
  Ni  Ni10  1  0.49814530  0.16842622  0.16652076  1
  Ni  Ni11  1  0.33004380  0.99968209  0.33333142  1
  Fe  Fe12  1  0.33534028  0.33516552  0.00280860  1
  Ni  Ni13  1  0.49892618  0.50009848  0.16529115  1
  Cr  Cr14  1  0.33173353  0.33374626  0.33237891  1
  Ni  Ni15  1  0.33238996  0.66843517  1.00052280  1
  Cr  Cr16  1  0.49926545  0.83255610  0.16824823  1
  Ni  Ni17  1  0.32930366  0.66797061  0.33337712  1
  Cr  Cr18  1  0.66734508  0.00119466  1.00050333  1
  Fe  Fe19  1  0.83687221  0.16746801  0.16643138  1
  Cr  Cr20  1  0.66806936  0.00346021  0.33200526  1
  Ni  Ni21  1  0.66793490  0.33438458  1.00018333  1
  Cr  Cr22  1  0.83617690  0.50289875  0.16667447  1
  Cr  Cr23  1  0.66930073  0.33311029  0.33370117  1
  Ni  Ni24  1  0.66782868  0.66549059  0.99892800  1
  Ni  Ni25  1  0.83842035  0.83369610  0.16746688  1
  Fe  Fe26  1  0.66855105  0.66656697  0.33263410  1
  Ni  Ni27  1  0.16479463  0.16650128  0.50152620  1
  Fe  Fe28  1  0.00073395  0.00196333  0.66800662  1
  Fe  Fe29  1  0.16559378  0.16547103  0.83296785  1
  Fe  Fe30  1  0.16552665  0.49978936  0.50006931  1
  Ni  Ni31  1  0.99903942  0.33252990  0.66626141  1
  Cr  Cr32  1  0.16793289  0.49974625  0.83501236  1
  Fe  Fe33  1  0.16750617  0.83560247  0.49972883  1
  Cr  Cr34  1  0.00262622  0.66598345  0.66756667  1
  Ni  Ni35  1  0.16787657  0.83589202  0.83427311  1
  Cr  Cr36  1  0.49946732  0.16568449  0.50351062  1
  Ni  Ni37  1  0.33153522  0.99895737  0.66768410  1
  Cr  Cr38  1  0.49928490  0.16847209  0.83181322  1
  Cr  Cr39  1  0.50053634  0.50185575  0.50148522  1
  Fe  Fe40  1  0.33249363  0.33498125  0.66719520  1
  Ni  Ni41  1  0.50075355  0.50074246  0.83534589  1
  Cr  Cr42  1  0.49831754  0.83460457  0.49992309  1
  Ni  Ni43  1  0.33233167  0.66956220  0.66839738  1
  Ni  Ni44  1  0.49831548  0.83364190  0.83386389  1
  Ni  Ni45  1  0.83840420  0.16860685  0.50159222  1
  Ni  Ni46  1  0.66815377  0.00301031  0.66896507  1
  Ni  Ni47  1  0.83621316  0.16819343  0.83283194  1
  Ni  Ni48  1  0.83714197  0.49845478  0.49987736  1
  Ni  Ni49  1  0.67140988  0.33284842  0.66805844  1
  Ni  Ni50  1  0.83390773  0.49847306  0.83533633  1
  Cr  Cr51  1  0.83568882  0.83481260  0.49898435  1
  Cr  Cr52  1  0.66783860  0.66673450  0.67138693  1
  Ni  Ni53  1  0.83579758  0.83513052  0.83537328  1
" 