6464,Ni54Fe7Cr38_14,-223.57875977122, 151.917568261501,Ni54Fe7Cr38,"# generated using pymatgen
 data_Cr22Fe3Ni29
_symmetry_space_group_name_H-M   'P 1'
_cell_length_a   7.49488425
_cell_length_b   7.49488425
_cell_length_c   10.59936695
_cell_angle_alpha   90.00000000
_cell_angle_beta   90.00000000
_cell_angle_gamma   90.00000000
_symmetry_Int_Tables_number   1
_chemical_formula_structural   Cr22Fe3Ni29
_chemical_formula_sum   'Cr22 Fe3 Ni29'
_cell_volume   595.40131255
_cell_formula_units_Z   1
loop_
 _symmetry_equiv_pos_site_id
 _symmetry_equiv_pos_as_xyz
  1  'x, y, z'
loop_
 _atom_site_type_symbol
 _atom_site_label
 _atom_site_symmetry_multiplicity
 _atom_site_fract_x
 _atom_site_fract_y
 _atom_site_fract_z
 _atom_site_occupancy
  Ni  Ni0  1  0.00060903  0.99780017  -0.00141364  1
  Ni  Ni1  1  0.16514150  0.16277246  0.16323783  1
  Fe  Fe2  1  -0.00044630  -0.00046907  0.33150604  1
  Ni  Ni3  1  0.00260997  0.33025190  0.99726707  1
  Cr  Cr4  1  0.16343081  0.49775943  0.16567573  1
  Ni  Ni5  1  0.99686840  0.32997117  0.33243115  1
  Ni  Ni6  1  -0.00063491  0.66638027  0.99727822  1
  Ni  Ni7  1  0.16491197  0.83318483  0.16504219  1
  Ni  Ni8  1  -0.00087134  0.66486445  0.32979505  1
  Fe  Fe9  1  0.33016917  0.00033689  -0.00121524  1
  Ni  Ni10  1  0.49631968  0.16267784  0.16260473  1
  Cr  Cr11  1  0.33129844  0.99704454  0.32968022  1
  Ni  Ni12  1  0.32979143  0.32827466  0.99598464  1
  Cr  Cr13  1  0.49896865  0.49859038  0.16617840  1
  Cr  Cr14  1  0.33215033  0.33061484  0.33187685  1
  Cr  Cr15  1  0.32957452  0.66490924  0.99794219  1
  Ni  Ni16  1  0.49745690  0.83235608  0.16495608  1
  Ni  Ni17  1  0.33244612  0.66675985  0.33163738  1
  Ni  Ni18  1  0.66293899  0.99746844  -0.00079279  1
  Cr  Cr19  1  0.83270875  0.16526861  0.16526430  1
  Cr  Cr20  1  0.66368667  0.00014474  0.33213223  1
  Cr  Cr21  1  0.66225198  0.32974455  0.99789760  1
  Cr  Cr22  1  0.83198577  0.49892393  0.16584085  1
  Ni  Ni23  1  0.66566269  0.33133848  0.33328089  1
  Ni  Ni24  1  0.66483350  0.66740225  0.99803741  1
  Cr  Cr25  1  0.83185045  0.83027553  0.16307031  1
  Ni  Ni26  1  0.66286273  0.66413682  0.33246993  1
  Ni  Ni27  1  0.16355748  0.16441952  0.50038463  1
  Ni  Ni28  1  0.00162421  0.00162107  0.66392932  1
  Ni  Ni29  1  0.16674161  0.16527475  0.83074081  1
  Cr  Cr30  1  0.16638468  0.49576931  0.49699289  1
  Ni  Ni31  1  0.00181993  0.32756206  0.66472610  1
  Ni  Ni32  1  0.16588722  0.49536691  0.83221619  1
  Cr  Cr33  1  0.16544606  0.83396169  0.49742464  1
  Cr  Cr34  1  -0.00124898  0.66474178  0.66829749  1
  Ni  Ni35  1  0.16364441  0.83379939  0.83229212  1
  Ni  Ni36  1  0.49751687  0.16649942  0.49917344  1
  Ni  Ni37  1  0.32954026  0.00173151  0.66546082  1
  Ni  Ni38  1  0.49329924  0.16615729  0.83260877  1
  Ni  Ni39  1  0.49963632  0.49841963  0.49740095  1
  Ni  Ni40  1  0.33057841  0.32868162  0.66597988  1
  Ni  Ni41  1  0.49623516  0.49665661  0.83086578  1
  Fe  Fe42  1  0.49808121  0.83047943  0.49773354  1
  Cr  Cr43  1  0.33282315  0.66369278  0.66498088  1
  Cr  Cr44  1  0.49833567  0.83247192  0.83140372  1
  Ni  Ni45  1  0.83340999  0.16537893  0.49707914  1
  Cr  Cr46  1  0.66392371  -0.00116349  0.66296565  1
  Cr  Cr47  1  0.83375803  0.16346239  0.83175136  1
  Cr  Cr48  1  0.82964103  0.49700012  0.49593042  1
  Cr  Cr49  1  0.66292105  0.33163435  0.66366809  1
  Cr  Cr50  1  0.83186888  0.49954545  0.83275668  1
  Cr  Cr51  1  0.83115787  0.83212533  0.49840766  1
  Ni  Ni52  1  0.66213321  0.66423531  0.66390333  1
  Cr  Cr53  1  0.83242713  0.83141133  0.83297976  1
" 