7476,Ni54Fe46_16,-241.112188230737, 225.752646137444,Ni54Fe46,"# generated using pymatgen
 data_Fe29Ni25
_symmetry_space_group_name_H-M   'P 1'
_cell_length_a   7.40000135
_cell_length_b   7.40000135
_cell_length_c   10.46518228
_cell_angle_alpha   90.00000000
_cell_angle_beta   90.00000000
_cell_angle_gamma   90.00000000
_symmetry_Int_Tables_number   1
_chemical_formula_structural   Fe29Ni25
_chemical_formula_sum   'Fe29 Ni25'
_cell_volume   573.07359103
_cell_formula_units_Z   1
loop_
 _symmetry_equiv_pos_site_id
 _symmetry_equiv_pos_as_xyz
  1  'x, y, z'
loop_
 _atom_site_type_symbol
 _atom_site_label
 _atom_site_symmetry_multiplicity
 _atom_site_fract_x
 _atom_site_fract_y
 _atom_site_fract_z
 _atom_site_occupancy
  Fe  Fe0  1  0.00453230  1.00411598  1.00397058  1
  Fe  Fe1  1  0.17175046  0.17191623  0.17147611  1
  Fe  Fe2  1  0.00528044  1.00437058  0.33814359  1
  Fe  Fe3  1  1.00434745  0.33792589  0.00480931  1
  Fe  Fe4  1  0.17125544  0.50422833  0.17140503  1
  Fe  Fe5  1  0.00483681  0.33842304  0.33758464  1
  Ni  Ni6  1  1.00444895  0.67161851  1.00393162  1
  Fe  Fe7  1  0.17168257  0.83744980  0.17112566  1
  Ni  Ni8  1  1.00424580  0.67180390  0.33811974  1
  Ni  Ni9  1  0.33812353  0.00462081  1.00397716  1
  Ni  Ni10  1  0.50435075  0.17237306  0.17085499  1
  Ni  Ni11  1  0.33803917  0.00513112  0.33831883  1
  Fe  Fe12  1  0.33864909  0.33840599  1.00431200  1
  Ni  Ni13  1  0.50434709  0.50343163  0.17207780  1
  Ni  Ni14  1  0.33951971  0.33664635  0.33680272  1
  Ni  Ni15  1  0.33664810  0.67240730  1.00373139  1
  Fe  Fe16  1  0.50455453  0.83793886  0.17119844  1
  Ni  Ni17  1  0.33654980  0.67181439  0.33875386  1
  Fe  Fe18  1  0.67113399  0.00471346  1.00424922  1
  Ni  Ni19  1  0.83718158  0.17170010  0.17207869  1
  Fe  Fe20  1  0.67031161  0.00496876  0.33793908  1
  Ni  Ni21  1  0.67146905  0.33690309  1.00349418  1
  Ni  Ni22  1  0.83752976  0.50445293  0.17065980  1
  Ni  Ni23  1  0.67096449  0.33699669  0.33890059  1
  Fe  Fe24  1  0.67065410  0.67082232  1.00398901  1
  Fe  Fe25  1  0.83734855  0.83744440  0.17119803  1
  Fe  Fe26  1  0.67068316  0.67035802  0.33847519  1
  Fe  Fe27  1  0.17137858  0.17098801  0.50439471  1
  Fe  Fe28  1  1.00425459  1.00348730  0.67147527  1
  Fe  Fe29  1  0.17161333  0.17077591  0.83771741  1
  Fe  Fe30  1  0.17084312  0.50507930  0.50439704  1
  Fe  Fe31  1  1.00413847  0.33867639  0.67119613  1
  Fe  Fe32  1  0.17114195  0.50482405  0.83778744  1
  Ni  Ni33  1  0.17033448  0.83734955  0.50434100  1
  Ni  Ni34  1  1.00314967  0.67208652  0.67153621  1
  Ni  Ni35  1  0.17005772  0.83715649  0.83771086  1
  Ni  Ni36  1  0.50382305  0.17225144  0.50409867  1
  Fe  Fe37  1  0.33779229  1.00415424  0.67112557  1
  Ni  Ni38  1  0.50470988  0.17294870  0.83863483  1
  Fe  Fe39  1  0.50473728  0.50483403  0.50446935  1
  Ni  Ni40  1  0.33863281  0.33636318  0.67173718  1
  Ni  Ni41  1  0.50391800  0.50314395  0.83775327  1
  Fe  Fe42  1  0.50486398  0.83775760  0.50425155  1
  Fe  Fe43  1  0.33765019  0.67084292  0.67155132  1
  Fe  Fe44  1  0.50479049  0.83819789  0.83814165  1
  Fe  Fe45  1  0.83777472  0.17086461  0.50432224  1
  Fe  Fe46  1  0.67154687  1.00432435  0.67140223  1
  Ni  Ni47  1  0.83700301  0.17067986  0.83731751  1
  Ni  Ni48  1  0.83794867  0.50547615  0.50473293  1
  Fe  Fe49  1  0.67096364  0.33853541  0.67147463  1
  Fe  Fe50  1  0.83751961  0.50494538  0.83779396  1
  Ni  Ni51  1  0.84010919  0.83655331  0.50390493  1
  Ni  Ni52  1  0.67319336  0.67140253  0.67154148  1
  Ni  Ni53  1  0.84030098  0.83794758  0.83824157  1
" 