4452,Ni54Fe21Cr23_19,-230.937681884673, 180.6895452065,Ni54Fe21Cr23,"# generated using pymatgen
 data_Cr14Fe11Ni29
_symmetry_space_group_name_H-M   'P 1'
_cell_length_a   7.45546938
_cell_length_b   7.45546938
_cell_length_c   10.54362592
_cell_angle_alpha   90.00000000
_cell_angle_beta   90.00000000
_cell_angle_gamma   90.00000000
_symmetry_Int_Tables_number   1
_chemical_formula_structural   Cr14Fe11Ni29
_chemical_formula_sum   'Cr14 Fe11 Ni29'
_cell_volume   586.05715313
_cell_formula_units_Z   1
loop_
 _symmetry_equiv_pos_site_id
 _symmetry_equiv_pos_as_xyz
  1  'x, y, z'
loop_
 _atom_site_type_symbol
 _atom_site_label
 _atom_site_symmetry_multiplicity
 _atom_site_fract_x
 _atom_site_fract_y
 _atom_site_fract_z
 _atom_site_occupancy
  Ni  Ni0  1  0.99991809  0.99804503  0.99949777  1
  Cr  Cr1  1  0.16459397  0.16406414  0.16465025  1
  Ni  Ni2  1  0.99970166  0.99845620  0.33523037  1
  Fe  Fe3  1  0.99925506  0.33368991  1.00026664  1
  Ni  Ni4  1  0.16498662  0.50403910  0.16653426  1
  Cr  Cr5  1  0.00136508  0.33425774  0.33379844  1
  Ni  Ni6  1  1.00022832  0.66860304  0.00261731  1
  Ni  Ni7  1  0.16546236  0.83287905  0.16538770  1
  Fe  Fe8  1  1.00064918  0.66996830  0.33345776  1
  Ni  Ni9  1  0.33324343  0.99772183  1.00049341  1
  Ni  Ni10  1  0.50327071  0.16573414  0.16517779  1
  Cr  Cr11  1  0.33390519  1.00063861  0.33277746  1
  Cr  Cr12  1  0.33660063  0.33289556  1.00060354  1
  Cr  Cr13  1  0.50131407  0.50364141  0.16670147  1
  Cr  Cr14  1  0.33356141  0.33244649  0.33612152  1
  Ni  Ni15  1  0.33210174  0.66991601  0.99996234  1
  Ni  Ni16  1  0.50118686  0.83300173  0.16566607  1
  Cr  Cr17  1  0.33175531  0.66913038  0.33511080  1
  Cr  Cr18  1  0.66707344  0.00212593  1.00051871  1
  Ni  Ni19  1  0.83525761  0.16621098  0.16623897  1
  Cr  Cr20  1  0.66799087  1.00055911  0.33464368  1
  Ni  Ni21  1  0.67045250  0.33486988  1.00014509  1
  Fe  Fe22  1  0.83500700  0.50265495  0.16579548  1
  Cr  Cr23  1  0.66733181  0.33173413  0.33244260  1
  Fe  Fe24  1  0.66756716  0.66870460  0.99964924  1
  Ni  Ni25  1  0.83561459  0.83448568  0.16807830  1
  Ni  Ni26  1  0.67037442  0.67038010  0.33289710  1
  Ni  Ni27  1  0.16524791  0.16546416  0.50334250  1
  Fe  Fe28  1  0.00154743  0.00159296  0.66817173  1
  Ni  Ni29  1  0.16428471  0.16456956  0.83341723  1
  Ni  Ni30  1  0.16695875  0.50116474  0.50243140  1
  Fe  Fe31  1  0.00177112  0.33245362  0.66704506  1
  Cr  Cr32  1  0.16946373  0.50086501  0.83348724  1
  Ni  Ni33  1  0.16751191  0.83594477  0.50123683  1
  Cr  Cr34  1  0.00146492  0.67060515  0.66646367  1
  Ni  Ni35  1  0.16891059  0.83636741  0.83579979  1
  Ni  Ni36  1  0.50185777  0.16509363  0.50424183  1
  Ni  Ni37  1  0.33319906  1.00044137  0.66801458  1
  Fe  Fe38  1  0.49898515  0.16709355  0.83295347  1
  Cr  Cr39  1  0.50141170  0.50321731  0.50340555  1
  Ni  Ni40  1  0.33462295  0.33202724  0.66630573  1
  Ni  Ni41  1  0.50317513  0.50276132  0.83262491  1
  Ni  Ni42  1  0.50147249  0.83422760  0.50289564  1
  Ni  Ni43  1  0.33392097  0.66973431  0.66744157  1
  Ni  Ni44  1  0.49948769  0.83166971  0.83368994  1
  Ni  Ni45  1  0.83529503  0.16543295  0.50297503  1
  Fe  Fe46  1  0.66584043  0.99993345  0.66819047  1
  Ni  Ni47  1  0.83533705  0.16819262  0.83323360  1
  Cr  Cr48  1  0.83258526  0.50078889  0.50068039  1
  Ni  Ni49  1  0.66760362  0.33219616  0.66904230  1
  Fe  Fe50  1  0.83310721  0.50088632  0.83457094  1
  Fe  Fe51  1  0.83389819  0.83529110  0.50074481  1
  Ni  Ni52  1  0.66799677  0.66874167  0.66971751  1
  Fe  Fe53  1  0.83520395  0.83431992  0.83534279  1
" 