4118,Ni54Fe25Cr19_3,-232.684932885341, 189.20981702395,Ni54Fe25Cr19,"# generated using pymatgen
 data_Cr12Fe13Ni29
_symmetry_space_group_name_H-M   'P 1'
_cell_length_a   7.44802379
_cell_length_b   7.44802379
_cell_length_c   10.53309626
_cell_angle_alpha   90.00000000
_cell_angle_beta   90.00000000
_cell_angle_gamma   90.00000000
_symmetry_Int_Tables_number   1
_chemical_formula_structural   Cr12Fe13Ni29
_chemical_formula_sum   'Cr12 Fe13 Ni29'
_cell_volume   584.30306388
_cell_formula_units_Z   1
loop_
 _symmetry_equiv_pos_site_id
 _symmetry_equiv_pos_as_xyz
  1  'x, y, z'
loop_
 _atom_site_type_symbol
 _atom_site_label
 _atom_site_symmetry_multiplicity
 _atom_site_fract_x
 _atom_site_fract_y
 _atom_site_fract_z
 _atom_site_occupancy
  Ni  Ni0  1  0.00587541  0.00220052  1.00004379  1
  Ni  Ni1  1  0.16822769  0.16719401  0.16745481  1
  Ni  Ni2  1  0.00348519  1.00047002  0.33598155  1
  Ni  Ni3  1  0.00337186  0.33370029  1.00008948  1
  Fe  Fe4  1  0.16832069  0.50094115  0.16693524  1
  Ni  Ni5  1  0.00439142  0.33371391  0.33504377  1
  Ni  Ni6  1  0.00523637  0.66788475  0.00148835  1
  Ni  Ni7  1  0.16933402  0.83537957  0.16741500  1
  Fe  Fe8  1  0.00423040  0.66654690  0.33504392  1
  Ni  Ni9  1  0.33298028  1.00091400  0.00175620  1
  Fe  Fe10  1  0.49874030  0.16613923  0.16701844  1
  Fe  Fe11  1  0.33374913  0.00189251  0.33376436  1
  Ni  Ni12  1  0.33323635  0.33312202  1.00102773  1
  Cr  Cr13  1  0.49739340  0.50006536  0.16614349  1
  Ni  Ni14  1  0.33223299  0.33402911  0.33437617  1
  Ni  Ni15  1  0.33284393  0.66946373  1.00052380  1
  Ni  Ni16  1  0.49784437  0.83652037  0.16789024  1
  Fe  Fe17  1  0.33157841  0.66793396  0.33459561  1
  Fe  Fe18  1  0.66545759  0.00366240  1.00005248  1
  Cr  Cr19  1  0.83556597  0.16768310  0.16699407  1
  Fe  Fe20  1  0.66722168  0.00259873  0.33611658  1
  Ni  Ni21  1  0.66718591  0.33374951  0.99825675  1
  Cr  Cr22  1  0.83752362  0.49972834  0.16543108  1
  Cr  Cr23  1  0.66764448  0.33581392  0.33694218  1
  Cr  Cr24  1  0.66618879  0.66726768  0.99895887  1
  Cr  Cr25  1  0.83645343  0.83680400  0.16702994  1
  Cr  Cr26  1  0.66758237  0.66888150  0.33672163  1
  Cr  Cr27  1  0.16734206  0.16876970  0.50271543  1
  Ni  Ni28  1  0.00225379  1.00121342  0.66822923  1
  Fe  Fe29  1  0.16836298  0.16901453  0.83563104  1
  Ni  Ni30  1  0.16884000  0.50295295  0.50012669  1
  Ni  Ni31  1  0.00129407  0.33477529  0.66839280  1
  Ni  Ni32  1  0.16935476  0.50166135  0.83583123  1
  Ni  Ni33  1  0.16710228  0.83230562  0.50119186  1
  Fe  Fe34  1  0.00414947  0.66627993  0.66800441  1
  Ni  Ni35  1  0.16840507  0.83277868  0.83573711  1
  Ni  Ni36  1  0.50189347  0.16993372  0.49991179  1
  Cr  Cr37  1  0.33279720  0.00132831  0.66978205  1
  Ni  Ni38  1  0.50236666  0.17063942  0.83665909  1
  Ni  Ni39  1  0.49835760  0.50009811  0.50302420  1
  Ni  Ni40  1  0.33491975  0.33606209  0.66809931  1
  Ni  Ni41  1  0.49803525  0.49896441  0.83406022  1
  Fe  Fe42  1  0.49804736  0.83480178  0.50024805  1
  Fe  Fe43  1  0.33191189  0.66605917  0.66902528  1
  Ni  Ni44  1  0.49767699  0.83422245  0.83622539  1
  Ni  Ni45  1  0.83495678  0.16805301  0.50138455  1
  Cr  Cr46  1  0.66775341  0.00265035  0.66655699  1
  Ni  Ni47  1  0.83537630  0.16999627  0.83476440  1
  Ni  Ni48  1  0.83688347  0.49963730  0.50297281  1
  Ni  Ni49  1  0.66790270  0.33555635  0.66738665  1
  Fe  Fe50  1  0.83610882  0.49879819  0.83475429  1
  Fe  Fe51  1  0.83817658  0.83517936  0.50095844  1
  Cr  Cr52  1  0.66669007  0.66561439  0.66807799  1
  Cr  Cr53  1  0.83810881  0.83731694  0.83611686  1
" 