7839,Ni54Fe7Cr38_8,-223.494348134809, 147.454772906417,Ni54Fe7Cr38,"# generated using pymatgen
 data_Cr22Fe3Ni29
_symmetry_space_group_name_H-M   'P 1'
_cell_length_a   7.49434912
_cell_length_b   7.49434912
_cell_length_c   10.59861017
_cell_angle_alpha   90.00000000
_cell_angle_beta   90.00000000
_cell_angle_gamma   90.00000000
_symmetry_Int_Tables_number   1
_chemical_formula_structural   Cr22Fe3Ni29
_chemical_formula_sum   'Cr22 Fe3 Ni29'
_cell_volume   595.27378807
_cell_formula_units_Z   1
loop_
 _symmetry_equiv_pos_site_id
 _symmetry_equiv_pos_as_xyz
  1  'x, y, z'
loop_
 _atom_site_type_symbol
 _atom_site_label
 _atom_site_symmetry_multiplicity
 _atom_site_fract_x
 _atom_site_fract_y
 _atom_site_fract_z
 _atom_site_occupancy
  Ni  Ni0  1  0.00000762  0.99810751  -0.00108273  1
  Ni  Ni1  1  0.16481600  0.16501501  0.16428727  1
  Fe  Fe2  1  0.99766554  0.00130875  0.33088598  1
  Ni  Ni3  1  0.99556234  0.33057167  -0.00147549  1
  Cr  Cr4  1  0.16526893  0.49535235  0.16742362  1
  Ni  Ni5  1  0.00124770  0.32955206  0.33279390  1
  Cr  Cr6  1  0.99438573  0.66588949  0.99627762  1
  Cr  Cr7  1  0.16482067  0.83447341  0.16480934  1
  Cr  Cr8  1  -0.00096400  0.66385651  0.33055591  1
  Ni  Ni9  1  0.33039929  0.99772453  0.99803162  1
  Ni  Ni10  1  0.49671812  0.16495462  0.16447794  1
  Cr  Cr11  1  0.33398883  0.00001377  0.33068831  1
  Cr  Cr12  1  0.33299964  0.32842440  0.00162963  1
  Ni  Ni13  1  0.50023224  0.49818707  0.16509689  1
  Ni  Ni14  1  0.32983818  0.33175457  0.33248995  1
  Cr  Cr15  1  0.33393572  0.66815208  -0.00123265  1
  Ni  Ni16  1  0.50018096  0.83139218  0.16497223  1
  Ni  Ni17  1  0.33325523  0.66269527  0.33285790  1
  Cr  Cr18  1  0.66327015  0.99631899  -0.00100844  1
  Cr  Cr19  1  0.83307830  0.16477833  0.16546622  1
  Ni  Ni20  1  0.66431531  0.99799646  0.33210453  1
  Ni  Ni21  1  0.66679859  0.33464147  -0.00003960  1
  Ni  Ni22  1  0.82949478  0.49802104  0.16185460  1
  Cr  Cr23  1  0.66252480  0.32953186  0.33104523  1
  Ni  Ni24  1  0.66638307  0.66409572  -0.00113823  1
  Ni  Ni25  1  0.82939403  0.83151193  0.16476023  1
  Cr  Cr26  1  0.66228840  0.66658525  0.32908658  1
  Ni  Ni27  1  0.16528320  0.16912264  0.49802446  1
  Cr  Cr28  1  0.99770197  -0.00096492  0.66490001  1
  Cr  Cr29  1  0.16492264  0.16363082  0.83304562  1
  Ni  Ni30  1  0.16818638  0.49376814  0.49824690  1
  Ni  Ni31  1  0.00060309  0.33147331  0.66328036  1
  Cr  Cr32  1  0.16356354  0.49760852  0.82919913  1
  Cr  Cr33  1  0.16753361  0.83050107  0.49769490  1
  Cr  Cr34  1  -0.00144795  0.66355303  0.66759417  1
  Ni  Ni35  1  0.16611615  0.83325534  0.83179573  1
  Ni  Ni36  1  0.49677251  0.16422365  0.49910662  1
  Fe  Fe37  1  0.33395484  0.99745469  0.66442887  1
  Cr  Cr38  1  0.49750965  0.16294502  0.83143671  1
  Ni  Ni39  1  0.49374440  0.49839449  0.49880471  1
  Ni  Ni40  1  0.32983894  0.33198014  0.66061370  1
  Cr  Cr41  1  0.50075221  0.50003915  0.83100146  1
  Ni  Ni42  1  0.49875461  0.83188327  0.50018850  1
  Ni  Ni43  1  0.33383678  0.66526595  0.66331849  1
  Ni  Ni44  1  0.49851558  0.83121165  0.82931918  1
  Fe  Fe45  1  0.83163704  0.16461687  0.49761858  1
  Ni  Ni46  1  0.66235878  0.99545695  0.66339098  1
  Cr  Cr47  1  0.83211015  0.16634145  0.83182039  1
  Cr  Cr48  1  0.83234062  0.49670178  0.49948406  1
  Cr  Cr49  1  0.66450916  0.33078510  0.66364533  1
  Ni  Ni50  1  0.83084312  0.49946739  0.83308231  1
  Cr  Cr51  1  0.82796821  0.83434872  0.49693157  1
  Ni  Ni52  1  0.66189594  0.66799432  0.66629708  1
  Ni  Ni53  1  0.82992911  0.82967561  0.83175228  1
" 