3457,Ni54Fe7Cr38_13,-223.669738760835, 147.674532470017,Ni54Fe7Cr38,"# generated using pymatgen
 data_Cr22Fe3Ni29
_symmetry_space_group_name_H-M   'P 1'
_cell_length_a   7.49904872
_cell_length_b   7.49904872
_cell_length_c   10.60525640
_cell_angle_alpha   90.00000000
_cell_angle_beta   90.00000000
_cell_angle_gamma   90.00000000
_symmetry_Int_Tables_number   1
_chemical_formula_structural   Cr22Fe3Ni29
_chemical_formula_sum   'Cr22 Fe3 Ni29'
_cell_volume   596.39435358
_cell_formula_units_Z   1
loop_
 _symmetry_equiv_pos_site_id
 _symmetry_equiv_pos_as_xyz
  1  'x, y, z'
loop_
 _atom_site_type_symbol
 _atom_site_label
 _atom_site_symmetry_multiplicity
 _atom_site_fract_x
 _atom_site_fract_y
 _atom_site_fract_z
 _atom_site_occupancy
  Cr  Cr0  1  -0.00154334  0.99745261  0.99774525  1
  Ni  Ni1  1  0.16319202  0.16567299  0.16485161  1
  Cr  Cr2  1  -0.00111423  0.99710704  0.32854545  1
  Cr  Cr3  1  0.99734591  0.33131634  0.99781590  1
  Ni  Ni4  1  0.16435687  0.49935623  0.16675043  1
  Ni  Ni5  1  -0.00047010  0.33400712  0.32928209  1
  Cr  Cr6  1  0.99771885  0.66472524  -0.00084798  1
  Ni  Ni7  1  0.16376936  0.82848503  0.16513680  1
  Fe  Fe8  1  -0.00142229  0.66220257  0.32938895  1
  Cr  Cr9  1  0.33001171  0.99623206  0.99668385  1
  Cr  Cr10  1  0.49743778  0.16483519  0.16392163  1
  Cr  Cr11  1  0.33077234  0.99622184  0.33182527  1
  Cr  Cr12  1  0.33174944  0.33318903  -0.00150585  1
  Ni  Ni13  1  0.49733743  0.50127287  0.16421568  1
  Cr  Cr14  1  0.33075704  0.33395103  0.33116953  1
  Ni  Ni15  1  0.33302632  0.66479912  -0.00178080  1
  Cr  Cr16  1  0.49872334  0.82855740  0.16295060  1
  Ni  Ni17  1  0.33166723  0.66281739  0.33091984  1
  Ni  Ni18  1  0.66460542  0.99629605  0.99633457  1
  Cr  Cr19  1  0.83142649  0.16432122  0.16475896  1
  Cr  Cr20  1  0.66384593  0.99554347  0.33312828  1
  Cr  Cr21  1  0.66451075  0.33411304  0.99677617  1
  Ni  Ni22  1  0.83189643  0.50083279  0.16593198  1
  Cr  Cr23  1  0.66396570  0.33477586  0.33134807  1
  Ni  Ni24  1  0.66276120  0.66418747  -0.00190004  1
  Ni  Ni25  1  0.83141208  0.82822346  0.16459363  1
  Ni  Ni26  1  0.66317710  0.66333794  0.33019525  1
  Cr  Cr27  1  0.16553088  0.16788996  0.49924236  1
  Cr  Cr28  1  -0.00112350  0.99770157  0.66720247  1
  Fe  Fe29  1  0.16567553  0.16423367  0.82948178  1
  Ni  Ni30  1  0.16569210  0.49844183  0.49807095  1
  Ni  Ni31  1  0.99701693  0.33270715  0.66591220  1
  Cr  Cr32  1  0.16524572  0.49955914  0.82848880  1
  Cr  Cr33  1  0.16660778  0.82706611  0.49874493  1
  Ni  Ni34  1  -0.00089574  0.66165594  0.66449245  1
  Ni  Ni35  1  0.16786243  0.83055860  0.82987703  1
  Ni  Ni36  1  0.49785721  0.16428175  0.50095782  1
  Ni  Ni37  1  0.33410283  0.99705643  0.66569535  1
  Ni  Ni38  1  0.49963950  0.16335306  0.82888285  1
  Ni  Ni39  1  0.49612285  0.49952833  0.49910368  1
  Fe  Fe40  1  0.33380699  0.33213161  0.66423693  1
  Ni  Ni41  1  0.49897086  0.49908165  0.83040055  1
  Ni  Ni42  1  0.49759213  0.82982398  0.49954773  1
  Ni  Ni43  1  0.33279571  0.66521536  0.66434158  1
  Ni  Ni44  1  0.49670511  0.83123380  0.83053769  1
  Cr  Cr45  1  0.82969437  0.16591745  0.49891869  1
  Ni  Ni46  1  0.66038266  -0.00091889  0.66480446  1
  Ni  Ni47  1  0.82884712  0.16589558  0.82971749  1
  Cr  Cr48  1  0.83299538  0.49828223  0.49904004  1
  Ni  Ni49  1  0.66377773  0.33151779  0.66585984  1
  Ni  Ni50  1  0.82956115  0.49632086  0.82886618  1
  Cr  Cr51  1  0.82885672  0.82925902  0.49826797  1
  Ni  Ni52  1  0.66173977  0.66294684  0.66520250  1
  Cr  Cr53  1  0.82880439  0.83020816  0.83065196  1
" 