6189,Ni54Fe46_18,-240.407480519545, 220.601902775886,Ni54Fe46,"# generated using pymatgen
 data_Fe29Ni25
_symmetry_space_group_name_H-M   'P 1'
_cell_length_a   7.39920363
_cell_length_b   7.39920363
_cell_length_c   10.46405413
_cell_angle_alpha   90.00000000
_cell_angle_beta   90.00000000
_cell_angle_gamma   90.00000000
_symmetry_Int_Tables_number   1
_chemical_formula_structural   Fe29Ni25
_chemical_formula_sum   'Fe29 Ni25'
_cell_volume   572.88827911
_cell_formula_units_Z   1
loop_
 _symmetry_equiv_pos_site_id
 _symmetry_equiv_pos_as_xyz
  1  'x, y, z'
loop_
 _atom_site_type_symbol
 _atom_site_label
 _atom_site_symmetry_multiplicity
 _atom_site_fract_x
 _atom_site_fract_y
 _atom_site_fract_z
 _atom_site_occupancy
  Fe  Fe0  1  0.00479247  0.00460476  1.00456287  1
  Fe  Fe1  1  0.17130932  0.17221650  0.17147928  1
  Ni  Ni2  1  0.00530682  1.00428381  0.33793610  1
  Ni  Ni3  1  1.00322655  0.33728964  1.00438297  1
  Ni  Ni4  1  0.17374993  0.50492159  0.17136823  1
  Fe  Fe5  1  0.00547659  0.33813932  0.33742628  1
  Fe  Fe6  1  0.00549187  0.67084252  1.00446947  1
  Fe  Fe7  1  0.17167445  0.83726520  0.17190168  1
  Ni  Ni8  1  1.00436870  0.67240334  0.33740994  1
  Fe  Fe9  1  0.33695128  0.00473728  1.00391383  1
  Fe  Fe10  1  0.50444953  0.17246336  0.17190274  1
  Ni  Ni11  1  0.33624089  1.00439686  0.33758499  1
  Fe  Fe12  1  0.33708911  0.33924759  0.00489414  1
  Ni  Ni13  1  0.50310253  0.50492735  0.17190258  1
  Ni  Ni14  1  0.33898095  0.33748923  0.33811645  1
  Ni  Ni15  1  0.33794879  0.67199237  1.00426037  1
  Fe  Fe16  1  0.50408902  0.83701532  0.17148134  1
  Ni  Ni17  1  0.33760738  0.67186899  0.33823555  1
  Fe  Fe18  1  0.67200598  1.00449626  1.00458444  1
  Ni  Ni19  1  0.83731941  0.16974951  0.17154683  1
  Fe  Fe20  1  0.67160559  1.00418519  0.33789582  1
  Fe  Fe21  1  0.67093085  0.33854968  0.00483125  1
  Fe  Fe22  1  0.83774469  0.50390742  0.17156729  1
  Ni  Ni23  1  0.67167240  0.33842561  0.33705706  1
  Fe  Fe24  1  0.67106357  0.67070573  0.00480637  1
  Fe  Fe25  1  0.83798970  0.83704587  0.17181518  1
  Ni  Ni26  1  0.67177938  0.66967049  0.33811791  1
  Ni  Ni27  1  0.17086628  0.17157286  0.50342315  1
  Fe  Fe28  1  0.00506100  1.00433598  0.67053638  1
  Ni  Ni29  1  0.17124295  0.17146795  0.83825322  1
  Ni  Ni30  1  0.17347825  0.50469958  0.50436562  1
  Fe  Fe31  1  0.00595702  0.33758275  0.67182947  1
  Ni  Ni32  1  0.17385669  0.50435656  0.83801720  1
  Ni  Ni33  1  0.17085482  0.83748332  0.50412873  1
  Fe  Fe34  1  0.00539614  0.67183606  0.67078493  1
  Ni  Ni35  1  0.17029090  0.83793089  0.83795706  1
  Fe  Fe36  1  0.50387028  0.17085393  0.50451473  1
  Ni  Ni37  1  0.33673232  1.00300847  0.67220023  1
  Fe  Fe38  1  0.50362025  0.17101360  0.83733857  1
  Fe  Fe39  1  0.50445238  0.50449466  0.50417995  1
  Fe  Fe40  1  0.33785440  0.33816679  0.67111963  1
  Ni  Ni41  1  0.50356573  0.50435711  0.83819197  1
  Fe  Fe42  1  0.50319114  0.83840387  0.50442062  1
  Ni  Ni43  1  0.33715603  0.67303617  0.67125966  1
  Fe  Fe44  1  0.50263517  0.83725831  0.83785266  1
  Ni  Ni45  1  0.83735450  0.16939749  0.50460327  1
  Fe  Fe46  1  0.67102549  1.00427133  0.67127333  1
  Fe  Fe47  1  0.83888414  0.17198509  0.83818466  1
  Fe  Fe48  1  0.83895155  0.50449060  0.50426685  1
  Ni  Ni49  1  0.67284826  0.33771776  0.67261466  1
  Fe  Fe50  1  0.83895242  0.50450442  0.83791899  1
  Ni  Ni51  1  0.83736395  0.83966542  0.50342164  1
  Fe  Fe52  1  0.67044372  0.67165009  0.67120706  1
  Ni  Ni53  1  0.83769192  0.83918362  0.83825026  1
" 