2773,Ni55Fe36Cr7_9,-238.738349809705, 215.081980196143,Ni55Fe36Cr7,"# generated using pymatgen
 data_Cr5Fe19Ni30
_symmetry_space_group_name_H-M   'P 1'
_cell_length_a   7.41828131
_cell_length_b   7.41828131
_cell_length_c   10.49103403
_cell_angle_alpha   90.00000000
_cell_angle_beta   90.00000000
_cell_angle_gamma   90.00000000
_symmetry_Int_Tables_number   1
_chemical_formula_structural   Cr5Fe19Ni30
_chemical_formula_sum   'Cr5 Fe19 Ni30'
_cell_volume   577.33101873
_cell_formula_units_Z   1
loop_
 _symmetry_equiv_pos_site_id
 _symmetry_equiv_pos_as_xyz
  1  'x, y, z'
loop_
 _atom_site_type_symbol
 _atom_site_label
 _atom_site_symmetry_multiplicity
 _atom_site_fract_x
 _atom_site_fract_y
 _atom_site_fract_z
 _atom_site_occupancy
  Ni  Ni0  1  0.00392129  0.00354908  1.00320086  1
  Ni  Ni1  1  0.17084942  0.16921857  0.16981289  1
  Ni  Ni2  1  0.00333927  0.00552878  0.33716538  1
  Fe  Fe3  1  1.00155365  0.33681399  0.00432837  1
  Fe  Fe4  1  0.16961647  0.50321661  0.16980447  1
  Ni  Ni5  1  1.00248288  0.33481191  0.33654069  1
  Ni  Ni6  1  1.00302445  0.67116155  0.00435583  1
  Ni  Ni7  1  0.16924066  0.83695340  0.17032403  1
  Fe  Fe8  1  1.00274983  0.67141416  0.33622906  1
  Fe  Fe9  1  0.33599990  1.00252228  0.00350157  1
  Ni  Ni10  1  0.50263688  0.17149840  0.17005641  1
  Ni  Ni11  1  0.33549119  1.00183324  0.33561255  1
  Fe  Fe12  1  0.33712911  0.33576041  0.00542998  1
  Ni  Ni13  1  0.50351946  0.50236310  0.17032743  1
  Fe  Fe14  1  0.33588521  0.33643236  0.33540412  1
  Ni  Ni15  1  0.33677311  0.67151798  0.00524861  1
  Fe  Fe16  1  0.50365207  0.83656332  0.17109926  1
  Ni  Ni17  1  0.33804948  0.67037627  0.33635417  1
  Fe  Fe18  1  0.67090760  1.00247631  0.00344096  1
  Ni  Ni19  1  0.83637415  0.16982264  0.17032781  1
  Ni  Ni20  1  0.67103482  1.00296004  0.33549926  1
  Ni  Ni21  1  0.67092189  0.33654261  0.00491249  1
  Ni  Ni22  1  0.83541321  0.50397611  0.16930821  1
  Fe  Fe23  1  0.67081577  0.33679359  0.33473253  1
  Ni  Ni24  1  0.67006274  0.66864682  1.00304171  1
  Ni  Ni25  1  0.83769899  0.83606419  0.16997214  1
  Ni  Ni26  1  0.66819625  0.66952771  0.33710838  1
  Ni  Ni27  1  0.16939466  0.17156971  0.50354176  1
  Cr  Cr28  1  0.00340162  0.00393878  0.66902870  1
  Fe  Fe29  1  0.16979534  0.16877165  0.83697049  1
  Fe  Fe30  1  0.16943398  0.50319010  0.50403032  1
  Ni  Ni31  1  1.00303066  0.33749364  0.67020924  1
  Cr  Cr32  1  0.16808829  0.50400547  0.83716532  1
  Fe  Fe33  1  0.17114592  0.83686855  0.50267013  1
  Ni  Ni34  1  0.00380597  0.66829019  0.66921726  1
  Ni  Ni35  1  0.16986364  0.83755353  0.83629767  1
  Cr  Cr36  1  0.50195667  0.16849640  0.50210725  1
  Ni  Ni37  1  0.33760559  1.00121202  0.67143729  1
  Fe  Fe38  1  0.50311564  0.16713829  0.83735572  1
  Fe  Fe39  1  0.50261830  0.50637429  0.50202798  1
  Fe  Fe40  1  0.33345112  0.33536788  0.66902564  1
  Cr  Cr41  1  0.50416956  0.50381246  0.83628457  1
  Ni  Ni42  1  0.50392339  0.83481954  0.50439655  1
  Ni  Ni43  1  0.33654571  0.67226678  0.66825858  1
  Fe  Fe44  1  0.50323404  0.83732996  0.83552449  1
  Ni  Ni45  1  0.83877891  0.16936401  0.50177781  1
  Ni  Ni46  1  0.66840397  1.00199120  0.67143675  1
  Fe  Fe47  1  0.83695712  0.16997850  0.83799609  1
  Fe  Fe48  1  0.83781344  0.50366708  0.50277531  1
  Cr  Cr49  1  0.67317694  0.33622232  0.66906814  1
  Ni  Ni50  1  0.83729027  0.50495889  0.83673443  1
  Ni  Ni51  1  0.83533954  0.83564817  0.50301860  1
  Fe  Fe52  1  0.67136186  0.67327370  0.66912945  1
  Ni  Ni53  1  0.83645071  0.83554409  0.83686790  1
" 