7941,Ni55Cr45_15,-217.542539825633, 131.608435943503,Ni55Cr45,"# generated using pymatgen
 data_Cr29Ni25
_symmetry_space_group_name_H-M   'P 1'
_cell_length_a   7.53296141
_cell_length_b   7.53296141
_cell_length_c   10.65321620
_cell_angle_alpha   90.00000000
_cell_angle_beta   90.00000000
_cell_angle_gamma   90.00000000
_symmetry_Int_Tables_number   1
_chemical_formula_structural   Cr29Ni25
_chemical_formula_sum   'Cr29 Ni25'
_cell_volume   604.52216121
_cell_formula_units_Z   1
loop_
 _symmetry_equiv_pos_site_id
 _symmetry_equiv_pos_as_xyz
  1  'x, y, z'
loop_
 _atom_site_type_symbol
 _atom_site_label
 _atom_site_symmetry_multiplicity
 _atom_site_fract_x
 _atom_site_fract_y
 _atom_site_fract_z
 _atom_site_occupancy
  Cr  Cr0  1  -0.00432293  0.00104023  -0.00197349  1
  Ni  Ni1  1  0.16133796  0.16618180  0.16250780  1
  Ni  Ni2  1  0.99505425  -0.00247159  0.32796521  1
  Ni  Ni3  1  -0.00397375  0.32901752  -0.00279795  1
  Ni  Ni4  1  0.16359097  0.49173375  0.16236438  1
  Ni  Ni5  1  -0.00298617  0.32777982  0.32590052  1
  Cr  Cr6  1  -0.00309730  0.65777326  0.99455550  1
  Cr  Cr7  1  0.16284384  0.82808483  0.16059123  1
  Ni  Ni8  1  -0.00412351  0.66163255  0.32953011  1
  Ni  Ni9  1  0.33019181  -0.00074628  0.99512834  1
  Cr  Cr10  1  0.49693972  0.16464961  0.16080096  1
  Cr  Cr11  1  0.32720910  -0.00203549  0.33029913  1
  Ni  Ni12  1  0.32949883  0.32960464  -0.00356156  1
  Ni  Ni13  1  0.49313102  0.49187590  0.16109978  1
  Ni  Ni14  1  0.32742757  0.32957456  0.32613317  1
  Ni  Ni15  1  0.33007214  0.65780141  -0.00333447  1
  Cr  Cr16  1  0.49500701  0.82871833  0.15872289  1
  Cr  Cr17  1  0.32940072  0.65903388  0.32699124  1
  Ni  Ni18  1  0.66046308  0.00036645  -0.00430466  1
  Ni  Ni19  1  0.83024422  0.16510735  0.16242337  1
  Cr  Cr20  1  0.66408881  -0.00382572  0.33035047  1
  Ni  Ni21  1  0.66112158  0.32807386  0.99466259  1
  Cr  Cr22  1  0.82872205  0.49231842  0.16338598  1
  Ni  Ni23  1  0.66237333  0.32893261  0.32681406  1
  Cr  Cr24  1  0.66041571  0.65800803  0.99437146  1
  Cr  Cr25  1  0.82877203  0.83097001  0.16281835  1
  Cr  Cr26  1  0.66108452  0.66169566  0.33066246  1
  Cr  Cr27  1  0.16287893  0.16544459  0.49642886  1
  Cr  Cr28  1  -0.00433089  -0.00369645  0.66131495  1
  Cr  Cr29  1  0.16592513  0.16359637  0.82784789  1
  Cr  Cr30  1  0.16054166  0.49322018  0.49540902  1
  Ni  Ni31  1  0.99481662  0.33143765  0.66358068  1
  Cr  Cr32  1  0.16153518  0.49426385  0.82793760  1
  Cr  Cr33  1  0.16132816  0.82805083  0.49671580  1
  Ni  Ni34  1  0.99362359  0.65993530  0.66206143  1
  Cr  Cr35  1  0.16411462  0.82876817  0.82946714  1
  Cr  Cr36  1  0.49493426  0.16473951  0.49749094  1
  Ni  Ni37  1  0.33121869  -0.00204599  0.66260756  1
  Ni  Ni38  1  0.49486361  0.16551298  0.82949587  1
  Cr  Cr39  1  0.49579575  0.49143509  0.49430458  1
  Ni  Ni40  1  0.33083910  0.32751513  0.66405285  1
  Ni  Ni41  1  0.49612457  0.49094143  0.83039785  1
  Ni  Ni42  1  0.49632548  0.82993646  0.49681772  1
  Cr  Cr43  1  0.33062236  0.66108924  0.66219253  1
  Cr  Cr44  1  0.49358298  0.83223942  0.83240507  1
  Cr  Cr45  1  0.82922773  0.16593138  0.49373123  1
  Cr  Cr46  1  0.66129450  -0.00352838  0.66142090  1
  Cr  Cr47  1  0.82593228  0.16625309  0.83065809  1
  Cr  Cr48  1  0.83067271  0.49418610  0.49636671  1
  Ni  Ni49  1  0.66105464  0.32996641  0.66534531  1
  Ni  Ni50  1  0.82769143  0.49202458  0.82738921  1
  Ni  Ni51  1  0.83059369  0.82785931  0.49434378  1
  Cr  Cr52  1  0.66279933  0.66068868  0.66192623  1
  Cr  Cr53  1  0.82925587  0.82708829  0.82993195  1
" 