4471,Ni55Fe5Cr38_7,-223.755250869507, 151.91215151385,Ni55Fe5Cr38,"# generated using pymatgen
 data_Cr22Fe3Ni29
_symmetry_space_group_name_H-M   'P 1'
_cell_length_a   7.49735933
_cell_length_b   7.49735933
_cell_length_c   10.60286724
_cell_angle_alpha   90.00000000
_cell_angle_beta   90.00000000
_cell_angle_gamma   90.00000000
_symmetry_Int_Tables_number   1
_chemical_formula_structural   Cr22Fe3Ni29
_chemical_formula_sum   'Cr22 Fe3 Ni29'
_cell_volume   595.99137577
_cell_formula_units_Z   1
loop_
 _symmetry_equiv_pos_site_id
 _symmetry_equiv_pos_as_xyz
  1  'x, y, z'
loop_
 _atom_site_type_symbol
 _atom_site_label
 _atom_site_symmetry_multiplicity
 _atom_site_fract_x
 _atom_site_fract_y
 _atom_site_fract_z
 _atom_site_occupancy
  Ni  Ni0  1  0.99616747  0.99723254  0.99797575  1
  Cr  Cr1  1  0.16480070  0.16385111  0.16282799  1
  Ni  Ni2  1  -0.00097870  -0.00198869  0.33123139  1
  Fe  Fe3  1  -0.00087846  0.32940638  0.99681688  1
  Cr  Cr4  1  0.16216879  0.49815943  0.16373269  1
  Ni  Ni5  1  0.99790186  0.33127279  0.33017581  1
  Ni  Ni6  1  0.99646207  0.66493186  -0.00162192  1
  Ni  Ni7  1  0.16079659  0.83200663  0.16383053  1
  Ni  Ni8  1  -0.00157500  0.66454741  0.33086466  1
  Ni  Ni9  1  0.32896091  0.99786009  0.99698195  1
  Cr  Cr10  1  0.49658138  0.16599646  0.16427357  1
  Cr  Cr11  1  0.32631694  0.99604813  0.33267727  1
  Ni  Ni12  1  0.32988930  0.33150584  0.99403336  1
  Cr  Cr13  1  0.49855979  0.49662003  0.16539010  1
  Ni  Ni14  1  0.32865010  0.33310157  0.33423434  1
  Cr  Cr15  1  0.32832810  0.66479527  0.99544830  1
  Cr  Cr16  1  0.49708830  0.83229859  0.16163657  1
  Cr  Cr17  1  0.32857663  0.66593633  0.33451420  1
  Ni  Ni18  1  0.66842440  -0.00135951  0.99521611  1
  Ni  Ni19  1  0.83354028  0.16542891  0.16505759  1
  Cr  Cr20  1  0.66789087  0.99784634  0.33157771  1
  Cr  Cr21  1  0.66932467  0.33188135  0.99724822  1
  Ni  Ni22  1  0.83322401  0.49746700  0.16616493  1
  Ni  Ni23  1  0.66699289  0.33382013  0.32999403  1
  Fe  Fe24  1  0.66596663  0.66667843  0.99631169  1
  Cr  Cr25  1  0.83371605  0.82880220  0.16398487  1
  Ni  Ni26  1  0.66583584  0.66127844  0.33031249  1
  Ni  Ni27  1  0.16206446  0.16546807  0.49726988  1
  Ni  Ni28  1  0.99784651  -0.00155317  0.66577310  1
  Ni  Ni29  1  0.16080671  0.16542244  0.83309578  1
  Ni  Ni30  1  0.16425235  0.49845024  0.49905257  1
  Ni  Ni31  1  0.00141601  0.33033314  0.66699276  1
  Ni  Ni32  1  0.16477936  0.49710515  0.83075433  1
  Ni  Ni33  1  0.16101406  0.83009239  0.49854863  1
  Ni  Ni34  1  0.00185301  0.66463462  0.66484281  1
  Cr  Cr35  1  0.16097265  0.83129735  0.83147271  1
  Cr  Cr36  1  0.49794759  0.16705482  0.49579589  1
  Cr  Cr37  1  0.32925016  0.99527155  0.66245883  1
  Cr  Cr38  1  0.49581837  0.16235479  0.83338455  1
  Ni  Ni39  1  0.49634581  0.49974580  0.49572328  1
  Cr  Cr40  1  0.32917433  0.33467055  0.66542776  1
  Ni  Ni41  1  0.49576177  0.50067449  0.83261952  1
  Fe  Fe42  1  0.49794481  0.82920577  0.49968362  1
  Ni  Ni43  1  0.32891990  0.66380186  0.66384078  1
  Ni  Ni44  1  0.49938798  0.83092349  0.83161914  1
  Cr  Cr45  1  0.83439736  0.16455588  0.49994240  1
  Ni  Ni46  1  0.66746419  0.99605254  0.66820532  1
  Ni  Ni47  1  0.83555761  0.16107782  0.83049370  1
  Cr  Cr48  1  0.83407216  0.49875128  0.49581121  1
  Cr  Cr49  1  0.66710561  0.33024716  0.66644672  1
  Cr  Cr50  1  0.83710627  0.50161426  0.83110335  1
  Cr  Cr51  1  0.83368880  0.82991919  0.50054567  1
  Cr  Cr52  1  0.66179560  0.66471366  0.66723715  1
  Ni  Ni53  1  0.83136350  0.83352919  0.83180684  1
" 