3605,Ni55Fe36Cr7_17,-238.21983119495, 215.751406938306,Ni55Fe36Cr7,"# generated using pymatgen
 data_Cr5Fe19Ni30
_symmetry_space_group_name_H-M   'P 1'
_cell_length_a   7.41670765
_cell_length_b   7.41670765
_cell_length_c   10.48880855
_cell_angle_alpha   90.00000000
_cell_angle_beta   90.00000000
_cell_angle_gamma   90.00000000
_symmetry_Int_Tables_number   1
_chemical_formula_structural   Cr5Fe19Ni30
_chemical_formula_sum   'Cr5 Fe19 Ni30'
_cell_volume   576.96368556
_cell_formula_units_Z   1
loop_
 _symmetry_equiv_pos_site_id
 _symmetry_equiv_pos_as_xyz
  1  'x, y, z'
loop_
 _atom_site_type_symbol
 _atom_site_label
 _atom_site_symmetry_multiplicity
 _atom_site_fract_x
 _atom_site_fract_y
 _atom_site_fract_z
 _atom_site_occupancy
  Fe  Fe0  1  1.00285257  1.00137351  0.00339799  1
  Cr  Cr1  1  0.17127354  0.17221983  0.16930940  1
  Cr  Cr2  1  1.00277303  1.00306548  0.33761939  1
  Fe  Fe3  1  1.00232574  0.33861342  0.00411749  1
  Ni  Ni4  1  0.16971980  0.50398887  0.17129535  1
  Ni  Ni5  1  1.00296379  0.33841972  0.33702763  1
  Ni  Ni6  1  1.00235120  0.67159943  0.00439915  1
  Fe  Fe7  1  0.17091165  0.83312251  0.16974413  1
  Fe  Fe8  1  1.00319326  0.66766745  0.33657830  1
  Fe  Fe9  1  0.33858767  1.00234024  1.00269093  1
  Fe  Fe10  1  0.50519292  0.17088786  0.17012809  1
  Ni  Ni11  1  0.33837376  1.00318412  0.33745323  1
  Ni  Ni12  1  0.33820599  0.33650809  1.00335331  1
  Ni  Ni13  1  0.50322100  0.50416008  0.16978191  1
  Ni  Ni14  1  0.33725142  0.33682335  0.33748058  1
  Ni  Ni15  1  0.33698688  0.67037849  0.00445179  1
  Ni  Ni16  1  0.50416072  0.83671367  0.17101194  1
  Fe  Fe17  1  0.33697558  0.66954710  0.33636783  1
  Ni  Ni18  1  0.66998331  1.00243526  0.00539271  1
  Fe  Fe19  1  0.83389763  0.17149470  0.16973942  1
  Fe  Fe20  1  0.66818711  0.00431653  0.33684428  1
  Ni  Ni21  1  0.66876247  0.33708690  0.00343192  1
  Ni  Ni22  1  0.83723898  0.50395729  0.16983539  1
  Ni  Ni23  1  0.66996405  0.33746647  0.33702842  1
  Ni  Ni24  1  0.67084189  0.67066169  1.00242937  1
  Ni  Ni25  1  0.83468582  0.83529875  0.16979183  1
  Ni  Ni26  1  0.67024930  0.66998117  0.33621202  1
  Fe  Fe27  1  0.17045699  0.17136303  0.50406614  1
  Fe  Fe28  1  0.00449772  1.00245979  0.66914755  1
  Ni  Ni29  1  0.17246104  0.16933677  0.83539422  1
  Fe  Fe30  1  0.16962408  0.50258640  0.50370241  1
  Ni  Ni31  1  0.00458137  0.33620319  0.66853103  1
  Cr  Cr32  1  0.16921251  0.50302636  0.83675705  1
  Ni  Ni33  1  0.17145944  0.83545607  0.50434231  1
  Ni  Ni34  1  0.00382117  0.67094476  0.66898084  1
  Fe  Fe35  1  0.16982341  0.83787319  0.83611996  1
  Ni  Ni36  1  0.50368859  0.16947504  0.50293352  1
  Fe  Fe37  1  0.33656650  1.00338979  0.66973870  1
  Ni  Ni38  1  0.50127464  0.16884078  0.83705315  1
  Fe  Fe39  1  0.50283008  0.50207427  0.50202090  1
  Ni  Ni40  1  0.33621304  0.33531583  0.66934618  1
  Fe  Fe41  1  0.50407988  0.50246155  0.83827065  1
  Fe  Fe42  1  0.50309458  0.83791714  0.50266635  1
  Ni  Ni43  1  0.33561886  0.67047818  0.66923427  1
  Ni  Ni44  1  0.50303134  0.83812284  0.83700849  1
  Ni  Ni45  1  0.83525063  0.17184390  0.50391227  1
  Ni  Ni46  1  0.66985568  0.00362590  0.66839751  1
  Cr  Cr47  1  0.83642628  0.17084591  0.83687187  1
  Ni  Ni48  1  0.83837478  0.50190780  0.50265058  1
  Fe  Fe49  1  0.66961982  0.33629723  0.66900318  1
  Ni  Ni50  1  0.83678505  0.50481366  0.83769336  1
  Fe  Fe51  1  0.83655368  0.83708392  0.50368245  1
  Cr  Cr52  1  0.67063939  0.67094407  0.67216075  1
  Ni  Ni53  1  0.83628741  0.83525969  0.83665957  1
" 