4170,Ni55Cr45_0,-217.637279692332, 131.256266088279,Ni55Cr45,"# generated using pymatgen
 data_Cr29Ni25
_symmetry_space_group_name_H-M   'P 1'
_cell_length_a   7.52827544
_cell_length_b   7.52827544
_cell_length_c   10.64658923
_cell_angle_alpha   90.00000000
_cell_angle_beta   90.00000000
_cell_angle_gamma   90.00000000
_symmetry_Int_Tables_number   1
_chemical_formula_structural   Cr29Ni25
_chemical_formula_sum   'Cr29 Ni25'
_cell_volume   603.39471084
_cell_formula_units_Z   1
loop_
 _symmetry_equiv_pos_site_id
 _symmetry_equiv_pos_as_xyz
  1  'x, y, z'
loop_
 _atom_site_type_symbol
 _atom_site_label
 _atom_site_symmetry_multiplicity
 _atom_site_fract_x
 _atom_site_fract_y
 _atom_site_fract_z
 _atom_site_occupancy
  Cr  Cr0  1  -0.00367619  -0.00156325  0.99565377  1
  Ni  Ni1  1  0.16189551  0.16173817  0.16351689  1
  Ni  Ni2  1  -0.00209909  -0.00198588  0.33180949  1
  Cr  Cr3  1  -0.00080212  0.32993196  -0.00295520  1
  Cr  Cr4  1  0.16262670  0.49586613  0.16100791  1
  Cr  Cr5  1  0.99328852  0.32507723  0.32816306  1
  Ni  Ni6  1  0.99589806  0.66023246  0.99562372  1
  Cr  Cr7  1  0.16451680  0.83007303  0.16499921  1
  Cr  Cr8  1  0.99543840  0.66414336  0.32995939  1
  Cr  Cr9  1  0.33130042  -0.00035003  0.99547273  1
  Cr  Cr10  1  0.49554520  0.16168230  0.16229264  1
  Ni  Ni11  1  0.32515220  0.99427119  0.32908129  1
  Ni  Ni12  1  0.32932493  0.32936973  0.99334723  1
  Ni  Ni13  1  0.49641409  0.49589921  0.16441665  1
  Cr  Cr14  1  0.33050610  0.32987800  0.32858575  1
  Cr  Cr15  1  0.33097475  0.65886587  -0.00349457  1
  Ni  Ni16  1  0.49506328  0.82874152  0.16350784  1
  Ni  Ni17  1  0.33168519  0.66452052  0.32950094  1
  Ni  Ni18  1  0.66153294  -0.00294917  -0.00319593  1
  Ni  Ni19  1  0.82957152  0.16349599  0.16410953  1
  Cr  Cr20  1  0.66421533  -0.00353173  0.32859038  1
  Cr  Cr21  1  0.65967488  0.32950656  -0.00188234  1
  Ni  Ni22  1  0.82727117  0.49370790  0.16238313  1
  Ni  Ni23  1  0.66321359  0.33023334  0.32850842  1
  Cr  Cr24  1  0.66124996  0.66224629  -0.00150091  1
  Cr  Cr25  1  0.82974522  0.83009357  0.15943802  1
  Cr  Cr26  1  0.65955309  0.65949684  0.32799875  1
  Ni  Ni27  1  0.16213297  0.15970478  0.49453819  1
  Cr  Cr28  1  -0.00275976  -0.00264744  0.65862764  1
  Ni  Ni29  1  0.16700068  0.16710977  0.82924978  1
  Cr  Cr30  1  0.16744901  0.49702576  0.49717861  1
  Cr  Cr31  1  -0.00112033  0.32639502  0.66254332  1
  Ni  Ni32  1  0.16707000  0.49366164  0.82959670  1
  Ni  Ni33  1  0.16262682  0.83097950  0.49353727  1
  Cr  Cr34  1  -0.00341112  0.66369907  0.66230147  1
  Cr  Cr35  1  0.16215177  0.82609998  0.82960024  1
  Cr  Cr36  1  0.49626128  0.16701430  0.49665812  1
  Cr  Cr37  1  0.32689250  -0.00182262  0.66302213  1
  Ni  Ni38  1  0.49374525  0.16738048  0.82957410  1
  Ni  Ni39  1  0.49593999  0.49585357  0.49788521  1
  Ni  Ni40  1  0.33158627  0.33153294  0.66547504  1
  Ni  Ni41  1  0.49280488  0.49264924  0.82565856  1
  Cr  Cr42  1  0.49331634  0.82676793  0.49527891  1
  Ni  Ni43  1  0.33182373  0.65863342  0.66215141  1
  Cr  Cr44  1  0.49732027  0.83004763  0.82933053  1
  Ni  Ni45  1  0.82970782  0.16162651  0.49448133  1
  Cr  Cr46  1  0.66333713  -0.00401993  0.66306313  1
  Cr  Cr47  1  0.82560302  0.16287216  0.82926882  1
  Cr  Cr48  1  0.82492696  0.49380872  0.49692711  1
  Ni  Ni49  1  0.65849248  0.33156276  0.66195055  1
  Cr  Cr50  1  0.82956291  0.49692709  0.82859786  1
  Ni  Ni51  1  0.83121473  0.83117853  0.49660246  1
  Ni  Ni52  1  0.65910962  0.65943311  0.66163893  1
  Cr  Cr53  1  0.82854201  0.82824270  0.83073245  1
" 