2669,Ni55Cr45_16,-217.671076030147, 131.925306677723,Ni55Cr45,"# generated using pymatgen
 data_Cr29Ni25
_symmetry_space_group_name_H-M   'P 1'
_cell_length_a   7.52741176
_cell_length_b   7.52741176
_cell_length_c   10.64536781
_cell_angle_alpha   90.00000000
_cell_angle_beta   90.00000000
_cell_angle_gamma   90.00000000
_symmetry_Int_Tables_number   1
_chemical_formula_structural   Cr29Ni25
_chemical_formula_sum   'Cr29 Ni25'
_cell_volume   603.18706291
_cell_formula_units_Z   1
loop_
 _symmetry_equiv_pos_site_id
 _symmetry_equiv_pos_as_xyz
  1  'x, y, z'
loop_
 _atom_site_type_symbol
 _atom_site_label
 _atom_site_symmetry_multiplicity
 _atom_site_fract_x
 _atom_site_fract_y
 _atom_site_fract_z
 _atom_site_occupancy
  Ni  Ni0  1  0.99274504  -0.00013072  -0.00263961  1
  Ni  Ni1  1  0.15814634  0.16229145  0.15980262  1
  Cr  Cr2  1  0.99230373  0.99574269  0.33038556  1
  Ni  Ni3  1  0.99404381  0.32535441  0.99562302  1
  Cr  Cr4  1  0.16167797  0.49495029  0.16337837  1
  Cr  Cr5  1  0.99066570  0.32688669  0.32618558  1
  Cr  Cr6  1  0.99400712  0.66054527  -0.00363530  1
  Cr  Cr7  1  0.16331065  0.83163361  0.16508488  1
  Cr  Cr8  1  0.99346908  0.66539964  0.33140820  1
  Cr  Cr9  1  0.33053089  0.99556788  0.99424641  1
  Cr  Cr10  1  0.49650462  0.16170513  0.16346516  1
  Cr  Cr11  1  0.33071917  0.99468589  0.33050961  1
  Cr  Cr12  1  0.32542491  0.33039093  0.99425435  1
  Ni  Ni13  1  0.49960179  0.49848934  0.16440773  1
  Cr  Cr14  1  0.33332543  0.33184754  0.32872527  1
  Cr  Cr15  1  0.33383070  0.66153185  -0.00353556  1
  Ni  Ni16  1  0.49991548  0.82695500  0.16058839  1
  Ni  Ni17  1  0.33229583  0.66304471  0.32947338  1
  Ni  Ni18  1  0.66576938  0.99343231  -0.00312779  1
  Ni  Ni19  1  0.82903171  0.16241878  0.16038110  1
  Cr  Cr20  1  0.66601696  -0.00296299  0.32921123  1
  Cr  Cr21  1  0.66441750  0.33000689  -0.00251088  1
  Ni  Ni22  1  0.82600299  0.49504571  0.16136009  1
  Ni  Ni23  1  0.66256324  0.32977281  0.33010091  1
  Ni  Ni24  1  0.66277107  0.66582610  -0.00132042  1
  Ni  Ni25  1  0.82761364  0.83058844  0.15940698  1
  Cr  Cr26  1  0.66237157  0.66264939  0.32671591  1
  Cr  Cr27  1  0.16529284  0.16092292  0.49498682  1
  Cr  Cr28  1  0.99515197  -0.00379061  0.66004003  1
  Ni  Ni29  1  0.15967026  0.16204575  0.83131001  1
  Cr  Cr30  1  0.16312141  0.49886585  0.49553053  1
  Cr  Cr31  1  0.99529009  0.32796542  0.66575432  1
  Ni  Ni32  1  0.15999500  0.49415206  0.82954982  1
  Ni  Ni33  1  0.16203154  0.82846427  0.49720558  1
  Ni  Ni34  1  0.99449778  0.66382048  0.66120931  1
  Cr  Cr35  1  0.16147026  0.83023113  0.82719339  1
  Ni  Ni36  1  0.49972377  0.16593865  0.49743900  1
  Ni  Ni37  1  0.32941308  0.99557275  0.66290851  1
  Cr  Cr38  1  0.49917313  0.15898295  0.82699015  1
  Ni  Ni39  1  0.49877343  0.49485961  0.49565555  1
  Cr  Cr40  1  0.33069289  0.32769496  0.66476399  1
  Cr  Cr41  1  0.50025105  0.49780581  0.82844209  1
  Cr  Cr42  1  0.49463829  0.82970684  0.49749115  1
  Cr  Cr43  1  0.32891052  0.66222057  0.66381832  1
  Ni  Ni44  1  0.49810960  0.82902813  0.82983748  1
  Ni  Ni45  1  0.82516307  0.16345051  0.49576438  1
  Cr  Cr46  1  0.66340034  -0.00307748  0.66163746  1
  Ni  Ni47  1  0.83081064  0.16260006  0.83144614  1
  Cr  Cr48  1  0.82682526  0.49565775  0.49865765  1
  Ni  Ni49  1  0.66307667  0.32925110  0.65985996  1
  Cr  Cr50  1  0.82955436  0.49612513  0.82745193  1
  Ni  Ni51  1  0.83015077  0.82901348  0.49823990  1
  Ni  Ni52  1  0.66292685  0.66278106  0.66204214  1
  Cr  Cr53  1  0.82628921  0.82952220  0.83030961  1
" 