4326,Ni55Fe5Cr38_9,-223.640413107818, 151.094075739817,Ni55Fe5Cr38,"# generated using pymatgen
 data_Cr22Fe3Ni29
_symmetry_space_group_name_H-M   'P 1'
_cell_length_a   7.49274159
_cell_length_b   7.49274159
_cell_length_c   10.59633678
_cell_angle_alpha   90.00000000
_cell_angle_beta   90.00000000
_cell_angle_gamma   90.00000000
_symmetry_Int_Tables_number   1
_chemical_formula_structural   Cr22Fe3Ni29
_chemical_formula_sum   'Cr22 Fe3 Ni29'
_cell_volume   594.89081370
_cell_formula_units_Z   1
loop_
 _symmetry_equiv_pos_site_id
 _symmetry_equiv_pos_as_xyz
  1  'x, y, z'
loop_
 _atom_site_type_symbol
 _atom_site_label
 _atom_site_symmetry_multiplicity
 _atom_site_fract_x
 _atom_site_fract_y
 _atom_site_fract_z
 _atom_site_occupancy
  Fe  Fe0  1  -0.00139706  0.99516371  -0.00108977  1
  Cr  Cr1  1  0.16432154  0.16449418  0.16656006  1
  Ni  Ni2  1  -0.00002491  0.99781307  0.33162276  1
  Ni  Ni3  1  0.99678730  0.33569310  0.99764755  1
  Cr  Cr4  1  0.16534945  0.49738637  0.16119510  1
  Ni  Ni5  1  0.99638030  0.33088163  0.33307085  1
  Ni  Ni6  1  -0.00102478  0.66545787  0.99634972  1
  Ni  Ni7  1  0.16502353  0.83291359  0.16312554  1
  Cr  Cr8  1  0.99623120  0.66526121  0.33127169  1
  Ni  Ni9  1  0.33238720  0.99642372  -0.00147795  1
  Cr  Cr10  1  0.49805820  0.16523620  0.16360756  1
  Ni  Ni11  1  0.33015643  0.99798102  0.33210079  1
  Ni  Ni12  1  0.33259227  0.33168677  0.99704053  1
  Ni  Ni13  1  0.49971195  0.49860312  0.16559885  1
  Ni  Ni14  1  0.33330598  0.33042931  0.33327453  1
  Ni  Ni15  1  0.32821999  0.66684450  -0.00090541  1
  Ni  Ni16  1  0.49818381  0.83139332  0.16501885  1
  Cr  Cr17  1  0.33383574  0.66630831  0.33029408  1
  Ni  Ni18  1  0.66388752  -0.00163132  0.99730971  1
  Cr  Cr19  1  0.83247267  0.16516172  0.16490951  1
  Ni  Ni20  1  0.66476633  0.99745496  0.32982729  1
  Ni  Ni21  1  0.66541953  0.33116224  0.99778503  1
  Ni  Ni22  1  0.83008383  0.49832671  0.16533428  1
  Ni  Ni23  1  0.66522558  0.33453417  0.33184322  1
  Cr  Cr24  1  0.66687532  0.66481060  0.00216809  1
  Ni  Ni25  1  0.83157101  0.83150266  0.16466853  1
  Fe  Fe26  1  0.66498085  0.66301640  0.32941141  1
  Ni  Ni27  1  0.16587250  0.16460898  0.49472043  1
  Cr  Cr28  1  -0.00097319  0.99674572  0.66426497  1
  Cr  Cr29  1  0.16733295  0.16646061  0.83442416  1
  Cr  Cr30  1  0.16633167  0.49571930  0.49877925  1
  Cr  Cr31  1  0.99764168  0.33310157  0.66403212  1
  Fe  Fe32  1  0.16409205  0.49911463  0.83472903  1
  Ni  Ni33  1  0.16481347  0.83501737  0.49664019  1
  Cr  Cr34  1  0.99816293  0.66504063  0.66723891  1
  Ni  Ni35  1  0.16296503  0.83007893  0.83505220  1
  Cr  Cr36  1  0.49807576  0.16671149  0.49928583  1
  Cr  Cr37  1  0.33114520  0.00028654  0.66388273  1
  Ni  Ni38  1  0.49874504  0.16639032  0.83197005  1
  Ni  Ni39  1  0.50049487  0.49532566  0.49740733  1
  Ni  Ni40  1  0.33422530  0.33099517  0.66463265  1
  Cr  Cr41  1  0.49684571  0.49491301  0.83177609  1
  Cr  Cr42  1  0.49908156  0.83085201  0.49713837  1
  Cr  Cr43  1  0.32927008  0.66437411  0.66504668  1
  Cr  Cr44  1  0.49870433  0.83425058  0.83226906  1
  Cr  Cr45  1  0.83196185  0.16556501  0.49663149  1
  Ni  Ni46  1  0.66466322  0.00061105  0.66765878  1
  Cr  Cr47  1  0.82791287  0.16460627  0.83324368  1
  Ni  Ni48  1  0.82816759  0.49626409  0.49667921  1
  Ni  Ni49  1  0.66320434  0.33158033  0.66520981  1
  Ni  Ni50  1  0.83304637  0.49829595  0.83296394  1
  Cr  Cr51  1  0.83088668  0.83219107  0.49764409  1
  Cr  Cr52  1  0.66736551  0.66288712  0.66354340  1
  Ni  Ni53  1  0.83399591  0.83111541  0.83298523  1
" 