6638,Ni55Cr45_2,-217.272119502946, 122.771821018337,Ni55Cr45,"# generated using pymatgen
 data_Cr29Ni25
_symmetry_space_group_name_H-M   'P 1'
_cell_length_a   7.52897470
_cell_length_b   7.52897470
_cell_length_c   10.64757813
_cell_angle_alpha   90.00000000
_cell_angle_beta   90.00000000
_cell_angle_gamma   90.00000000
_symmetry_Int_Tables_number   1
_chemical_formula_structural   Cr29Ni25
_chemical_formula_sum   'Cr29 Ni25'
_cell_volume   603.56286453
_cell_formula_units_Z   1
loop_
 _symmetry_equiv_pos_site_id
 _symmetry_equiv_pos_as_xyz
  1  'x, y, z'
loop_
 _atom_site_type_symbol
 _atom_site_label
 _atom_site_symmetry_multiplicity
 _atom_site_fract_x
 _atom_site_fract_y
 _atom_site_fract_z
 _atom_site_occupancy
  Cr  Cr0  1  0.99409374  -0.00094172  -0.00311808  1
  Ni  Ni1  1  0.16020062  0.16650318  0.16274783  1
  Ni  Ni2  1  0.99267686  -0.00147779  0.32645183  1
  Ni  Ni3  1  -0.00116428  0.32655031  -0.00322966  1
  Ni  Ni4  1  0.16358405  0.49290838  0.16151162  1
  Ni  Ni5  1  -0.00357575  0.32649554  0.32648599  1
  Cr  Cr6  1  -0.00283275  0.66118962  -0.00311040  1
  Cr  Cr7  1  0.16333125  0.82846960  0.16321490  1
  Cr  Cr8  1  -0.00397586  0.66248109  0.32802882  1
  Cr  Cr9  1  0.33192879  -0.00226647  0.99493703  1
  Ni  Ni10  1  0.49704902  0.15969962  0.16139306  1
  Cr  Cr11  1  0.33011840  0.99501357  0.32886186  1
  Ni  Ni12  1  0.32636091  0.32819516  -0.00326566  1
  Cr  Cr13  1  0.49238366  0.49739955  0.16224895  1
  Cr  Cr14  1  0.32699316  0.32955077  0.32642433  1
  Ni  Ni15  1  0.33033033  0.66146807  -0.00299334  1
  Ni  Ni16  1  0.49879202  0.83007498  0.16379123  1
  Ni  Ni17  1  0.33223504  0.66380289  0.32847806  1
  Ni  Ni18  1  0.66134166  -0.00308395  -0.00302683  1
  Ni  Ni19  1  0.83032130  0.15954693  0.16365320  1
  Ni  Ni20  1  0.66357353  0.99271217  0.32601389  1
  Cr  Cr21  1  0.66227322  0.32472168  0.99466310  1
  Cr  Cr22  1  0.83085233  0.49490031  0.16313332  1
  Cr  Cr23  1  0.66339605  0.32825352  0.32902238  1
  Cr  Cr24  1  0.66096964  0.66644767  -0.00370274  1
  Ni  Ni25  1  0.82541445  0.83346492  0.16476711  1
  Ni  Ni26  1  0.66016946  0.66763788  0.32879604  1
  Cr  Cr27  1  0.16158585  0.16267500  0.49683375  1
  Cr  Cr28  1  -0.00183283  -0.00314218  0.66411461  1
  Ni  Ni29  1  0.16348342  0.16544174  0.82779901  1
  Cr  Cr30  1  0.16296604  0.49571211  0.49759191  1
  Ni  Ni31  1  -0.00175170  0.32950979  0.66441748  1
  Cr  Cr32  1  0.16350533  0.49441847  0.82932153  1
  Cr  Cr33  1  0.16477882  0.82922866  0.49777164  1
  Ni  Ni34  1  -0.00173513  0.66020786  0.66247800  1
  Cr  Cr35  1  0.16544189  0.82898074  0.82668841  1
  Cr  Cr36  1  0.49519521  0.16039286  0.49689297  1
  Ni  Ni37  1  0.33072416  0.99583828  0.66431946  1
  Ni  Ni38  1  0.49423874  0.16052686  0.82893958  1
  Cr  Cr39  1  0.49438045  0.49841609  0.49561511  1
  Ni  Ni40  1  0.32684358  0.32746100  0.66467934  1
  Cr  Cr41  1  0.49261568  0.49564471  0.82976515  1
  Ni  Ni42  1  0.49499079  0.82782599  0.49504135  1
  Ni  Ni43  1  0.32898231  0.66437592  0.66226526  1
  Ni  Ni44  1  0.49415933  0.83151674  0.82884020  1
  Cr  Cr45  1  0.83077994  0.16232739  0.49351491  1
  Cr  Cr46  1  0.65914119  -0.00387025  0.66487442  1
  Ni  Ni47  1  0.82994870  0.16336178  0.83014356  1
  Cr  Cr48  1  0.83030594  0.49530604  0.49680150  1
  Cr  Cr49  1  0.66243529  0.32812855  0.66388383  1
  Cr  Cr50  1  0.83151782  0.49372475  0.82762222  1
  Cr  Cr51  1  0.82819170  0.82998576  0.49345528  1
  Cr  Cr52  1  0.66192100  0.66334073  0.66196536  1
  Cr  Cr53  1  0.82826608  0.83086755  0.83010679  1
" 