5431,Ni55Fe5Cr38_14,-223.712438038186, 150.284988116968,Ni55Fe5Cr38,"# generated using pymatgen
 data_Cr22Fe3Ni29
_symmetry_space_group_name_H-M   'P 1'
_cell_length_a   7.49606382
_cell_length_b   7.49606382
_cell_length_c   10.60103512
_cell_angle_alpha   90.00000000
_cell_angle_beta   90.00000000
_cell_angle_gamma   90.00000000
_symmetry_Int_Tables_number   1
_chemical_formula_structural   Cr22Fe3Ni29
_chemical_formula_sum   'Cr22 Fe3 Ni29'
_cell_volume   595.68247601
_cell_formula_units_Z   1
loop_
 _symmetry_equiv_pos_site_id
 _symmetry_equiv_pos_as_xyz
  1  'x, y, z'
loop_
 _atom_site_type_symbol
 _atom_site_label
 _atom_site_symmetry_multiplicity
 _atom_site_fract_x
 _atom_site_fract_y
 _atom_site_fract_z
 _atom_site_occupancy
  Ni  Ni0  1  0.99585621  0.99792939  -0.00170963  1
  Ni  Ni1  1  0.16313491  0.16240233  0.16516868  1
  Ni  Ni2  1  -0.00053615  0.99769765  0.33057552  1
  Ni  Ni3  1  -0.00156268  0.32906368  0.99702300  1
  Cr  Cr4  1  0.16135469  0.50032978  0.16583416  1
  Ni  Ni5  1  0.00237339  0.32932407  0.33228854  1
  Ni  Ni6  1  0.99624146  0.66735560  -0.00129865  1
  Ni  Ni7  1  0.16286253  0.83350210  0.16621461  1
  Fe  Fe8  1  -0.00158142  0.66854236  0.33133646  1
  Cr  Cr9  1  0.32860412  -0.00151666  0.00184786  1
  Ni  Ni10  1  0.49839891  0.16063894  0.16483586  1
  Ni  Ni11  1  0.33023585  0.99677773  0.32942387  1
  Cr  Cr12  1  0.32924801  0.32948382  0.99662093  1
  Cr  Cr13  1  0.49957715  0.49786747  0.16257814  1
  Cr  Cr14  1  0.32944408  0.32934058  0.33210244  1
  Cr  Cr15  1  0.33171462  0.66602953  -0.00105708  1
  Ni  Ni16  1  0.49865961  0.83463028  0.16572766  1
  Fe  Fe17  1  0.33108300  0.66756189  0.33176136  1
  Ni  Ni18  1  0.66760323  0.99622418  -0.00031220  1
  Cr  Cr19  1  0.83087791  0.16456285  0.16474565  1
  Ni  Ni20  1  0.66463805  0.99342555  0.33064360  1
  Ni  Ni21  1  0.66547175  0.33017101  0.99751332  1
  Cr  Cr22  1  0.83334273  0.49848125  0.16273494  1
  Cr  Cr23  1  0.66459035  0.33048583  0.33193133  1
  Ni  Ni24  1  0.66672049  0.66748679  0.99770471  1
  Ni  Ni25  1  0.83267078  0.83287477  0.16344743  1
  Cr  Cr26  1  0.66407147  0.66839120  0.33286879  1
  Ni  Ni27  1  0.16506820  0.16438924  0.49881899  1
  Ni  Ni28  1  0.99704557  0.99738054  0.66558769  1
  Fe  Fe29  1  0.16260550  0.16413090  0.83075086  1
  Ni  Ni30  1  0.16557228  0.49816804  0.49735818  1
  Cr  Cr31  1  0.00121682  0.32987205  0.66485137  1
  Ni  Ni32  1  0.16375507  0.49766281  0.83115257  1
  Cr  Cr33  1  0.16440377  0.83289780  0.49785410  1
  Ni  Ni34  1  0.99790568  0.66649213  0.66401006  1
  Cr  Cr35  1  0.16141227  0.83103358  0.83060787  1
  Cr  Cr36  1  0.49660534  0.16106586  0.49876123  1
  Ni  Ni37  1  0.32957410  0.00053878  0.66323419  1
  Cr  Cr38  1  0.50028695  0.16354164  0.83015280  1
  Ni  Ni39  1  0.49390709  0.49927467  0.49874976  1
  Ni  Ni40  1  0.32877009  0.33136670  0.66465617  1
  Ni  Ni41  1  0.49669905  0.49613504  0.83229813  1
  Ni  Ni42  1  0.49781652  0.83317016  0.49753160  1
  Cr  Cr43  1  0.33196497  0.66208545  0.66406693  1
  Cr  Cr44  1  0.49953360  0.83320931  0.83092251  1
  Cr  Cr45  1  0.83298884  0.16096541  0.49687131  1
  Ni  Ni46  1  0.66734699  0.99537205  0.66379898  1
  Ni  Ni47  1  0.83200486  0.16148700  0.83317223  1
  Cr  Cr48  1  0.83541740  0.49946326  0.49542938  1
  Cr  Cr49  1  0.66360909  0.33258677  0.66401287  1
  Cr  Cr50  1  0.83280771  0.49897951  0.83558718  1
  Ni  Ni51  1  0.83226613  0.83366785  0.49892956  1
  Cr  Cr52  1  0.66657019  0.66692645  0.66381279  1
  Ni  Ni53  1  0.83323768  0.83455979  0.83195620  1
" 