5697,Ni55Fe5Cr38_5,-223.174545965266, 144.958597840384,Ni55Fe5Cr38,"# generated using pymatgen
 data_Cr22Fe3Ni29
_symmetry_space_group_name_H-M   'P 1'
_cell_length_a   7.49649107
_cell_length_b   7.49649107
_cell_length_c   10.60163934
_cell_angle_alpha   90.00000000
_cell_angle_beta   90.00000000
_cell_angle_gamma   90.00000000
_symmetry_Int_Tables_number   1
_chemical_formula_structural   Cr22Fe3Ni29
_chemical_formula_sum   'Cr22 Fe3 Ni29'
_cell_volume   595.78433721
_cell_formula_units_Z   1
loop_
 _symmetry_equiv_pos_site_id
 _symmetry_equiv_pos_as_xyz
  1  'x, y, z'
loop_
 _atom_site_type_symbol
 _atom_site_label
 _atom_site_symmetry_multiplicity
 _atom_site_fract_x
 _atom_site_fract_y
 _atom_site_fract_z
 _atom_site_occupancy
  Ni  Ni0  1  0.99770908  0.00004537  -0.00155717  1
  Cr  Cr1  1  0.16458213  0.16368772  0.16442906  1
  Ni  Ni2  1  0.99722978  0.99567741  0.33305403  1
  Ni  Ni3  1  0.99601591  0.33075527  0.99776334  1
  Fe  Fe4  1  0.16387666  0.49812269  0.16576552  1
  Cr  Cr5  1  -0.00053296  0.32948482  0.32986137  1
  Ni  Ni6  1  0.99614752  0.66322794  -0.00174944  1
  Cr  Cr7  1  0.16390913  0.83047288  0.16545336  1
  Ni  Ni8  1  -0.00023317  0.66840975  0.33244845  1
  Ni  Ni9  1  0.33228234  -0.00104172  0.99695499  1
  Ni  Ni10  1  0.49934611  0.16385363  0.16480240  1
  Fe  Fe11  1  0.33171301  -0.00113956  0.33279946  1
  Cr  Cr12  1  0.33092310  0.32998106  -0.00076192  1
  Cr  Cr13  1  0.49773557  0.49755894  0.16666353  1
  Ni  Ni14  1  0.33262195  0.33137643  0.33252222  1
  Cr  Cr15  1  0.33198779  0.66618564  0.99755822  1
  Cr  Cr16  1  0.49838674  0.83356967  0.16424807  1
  Ni  Ni17  1  0.33041940  0.66317171  0.33182032  1
  Ni  Ni18  1  0.66413700  -0.00104094  -0.00052161  1
  Ni  Ni19  1  0.83015708  0.16355210  0.16245203  1
  Ni  Ni20  1  0.66564386  0.99791598  0.33086760  1
  Ni  Ni21  1  0.66764071  0.33017072  -0.00062728  1
  Cr  Cr22  1  0.83257080  0.49825332  0.16249259  1
  Cr  Cr23  1  0.66164175  0.32900065  0.33068146  1
  Ni  Ni24  1  0.66643422  0.66502644  0.99577077  1
  Cr  Cr25  1  0.83181578  0.83281644  0.16578407  1
  Ni  Ni26  1  0.66387533  0.66717518  0.33357993  1
  Fe  Fe27  1  0.16780575  0.16334402  0.49868055  1
  Cr  Cr28  1  -0.00073696  0.99758182  0.66253068  1
  Ni  Ni29  1  0.16497608  0.16470346  0.83048449  1
  Cr  Cr30  1  0.16585692  0.49840960  0.49717394  1
  Ni  Ni31  1  -0.00106787  0.33196938  0.66659819  1
  Cr  Cr32  1  0.16006662  0.49533386  0.83160095  1
  Ni  Ni33  1  0.16309151  0.83243861  0.49600661  1
  Ni  Ni34  1  0.99542458  0.66389265  0.66356997  1
  Cr  Cr35  1  0.16589472  0.83441225  0.83278782  1
  Ni  Ni36  1  0.49562705  0.16567557  0.49844407  1
  Ni  Ni37  1  0.33229149  0.00087666  0.66397264  1
  Cr  Cr38  1  0.49709283  0.16203535  0.83063399  1
  Ni  Ni39  1  0.49725638  0.49580274  0.49790167  1
  Ni  Ni40  1  0.33158563  0.32799979  0.66228985  1
  Cr  Cr41  1  0.50266891  0.49823446  0.82921639  1
  Cr  Cr42  1  0.49891380  0.83225117  0.49745405  1
  Cr  Cr43  1  0.33246497  0.66587434  0.66538044  1
  Ni  Ni44  1  0.49940477  0.83346728  0.83195689  1
  Cr  Cr45  1  0.82968381  0.16272092  0.49874808  1
  Ni  Ni46  1  0.66219692  0.99720440  0.66377299  1
  Cr  Cr47  1  0.83206600  0.16785235  0.83307834  1
  Cr  Cr48  1  0.82982251  0.50088506  0.50112463  1
  Ni  Ni49  1  0.66358919  0.33221858  0.66373977  1
  Ni  Ni50  1  0.83174485  0.49800804  0.83114347  1
  Ni  Ni51  1  0.83293578  0.83077374  0.49646005  1
  Ni  Ni52  1  0.66618635  0.66469516  0.66471897  1
  Cr  Cr53  1  0.82907474  0.82902315  0.83192907  1
" 