4893,Ni55Fe36Cr7_6,-238.4897966747, 213.6513571407,Ni55Fe36Cr7,"# generated using pymatgen
 data_Cr5Fe19Ni30
_symmetry_space_group_name_H-M   'P 1'
_cell_length_a   7.42086573
_cell_length_b   7.42086573
_cell_length_c   10.49468896
_cell_angle_alpha   90.00000000
_cell_angle_beta   90.00000000
_cell_angle_gamma   90.00000000
_symmetry_Int_Tables_number   1
_chemical_formula_structural   Cr5Fe19Ni30
_chemical_formula_sum   'Cr5 Fe19 Ni30'
_cell_volume   577.93463112
_cell_formula_units_Z   1
loop_
 _symmetry_equiv_pos_site_id
 _symmetry_equiv_pos_as_xyz
  1  'x, y, z'
loop_
 _atom_site_type_symbol
 _atom_site_label
 _atom_site_symmetry_multiplicity
 _atom_site_fract_x
 _atom_site_fract_y
 _atom_site_fract_z
 _atom_site_occupancy
  Ni  Ni0  1  0.00401228  0.00494545  1.00171808  1
  Ni  Ni1  1  0.16963410  0.16741302  0.16771381  1
  Ni  Ni2  1  1.00251107  0.00329516  0.33747370  1
  Ni  Ni3  1  1.00216233  0.33491911  0.00349513  1
  Ni  Ni4  1  0.17021367  0.50443171  0.16975229  1
  Fe  Fe5  1  1.00237110  0.33702030  0.33649672  1
  Cr  Cr6  1  0.00332112  0.66959079  0.00458223  1
  Ni  Ni7  1  0.16853485  0.83744916  0.17063946  1
  Ni  Ni8  1  0.00363725  0.66998291  0.33630139  1
  Ni  Ni9  1  0.33537678  1.00195489  0.00534124  1
  Ni  Ni10  1  0.50442855  0.16936583  0.16875497  1
  Fe  Fe11  1  0.33582890  1.00086561  0.33624829  1
  Fe  Fe12  1  0.33459323  0.33798460  0.00582936  1
  Ni  Ni13  1  0.50468854  0.50331036  0.16746708  1
  Cr  Cr14  1  0.33486567  0.33605826  0.33513897  1
  Ni  Ni15  1  0.33801075  0.67027346  0.00319438  1
  Fe  Fe16  1  0.50127732  0.83566408  0.16988160  1
  Ni  Ni17  1  0.33537229  0.67025450  0.33579665  1
  Fe  Fe18  1  0.67172065  1.00165415  0.00417992  1
  Fe  Fe19  1  0.83807268  0.16963558  0.16888900  1
  Ni  Ni20  1  0.66985052  0.00375932  0.33649109  1
  Ni  Ni21  1  0.67096782  0.33737346  0.00470993  1
  Fe  Fe22  1  0.83623740  0.50199778  0.17047601  1
  Fe  Fe23  1  0.67187378  0.33634379  0.33549105  1
  Ni  Ni24  1  0.66793762  0.66858997  1.00270279  1
  Fe  Fe25  1  0.83617201  0.83762025  0.17106965  1
  Ni  Ni26  1  0.67011686  0.67097902  0.33608944  1
  Ni  Ni27  1  0.17008552  0.16751949  0.50433930  1
  Ni  Ni28  1  0.00473644  1.00272330  0.67050888  1
  Fe  Fe29  1  0.16630803  0.16906492  0.83617706  1
  Ni  Ni30  1  0.16699107  0.50496597  0.50355408  1
  Ni  Ni31  1  1.00192052  0.33741901  0.66871689  1
  Fe  Fe32  1  0.16839450  0.50173397  0.83589967  1
  Ni  Ni33  1  0.16733191  0.83668988  0.50291755  1
  Ni  Ni34  1  0.00368506  0.66928233  0.66932480  1
  Fe  Fe35  1  0.16984419  0.83835213  0.83594086  1
  Ni  Ni36  1  0.50284078  0.16843951  0.50214729  1
  Ni  Ni37  1  0.33514670  1.00202187  0.66688294  1
  Cr  Cr38  1  0.50099564  0.17178869  0.83858459  1
  Cr  Cr39  1  0.50487823  0.50255900  0.50530143  1
  Fe  Fe40  1  0.33331557  0.33463898  0.66853016  1
  Fe  Fe41  1  0.50568494  0.50459305  0.83702215  1
  Fe  Fe42  1  0.50171401  0.83638095  0.50120618  1
  Fe  Fe43  1  0.33384452  0.67084024  0.67045169  1
  Fe  Fe44  1  0.50325717  0.83508835  0.83743516  1
  Fe  Fe45  1  0.83918406  0.17074243  0.50299595  1
  Cr  Cr46  1  0.67120019  0.00331877  0.66879480  1
  Ni  Ni47  1  0.83723418  0.17068283  0.83725815  1
  Ni  Ni48  1  0.83767521  0.50557214  0.50255619  1
  Ni  Ni49  1  0.67162833  0.33743524  0.66860780  1
  Ni  Ni50  1  0.83551908  0.50287030  0.83578117  1
  Ni  Ni51  1  0.83887170  0.83477713  0.50288784  1
  Fe  Fe52  1  0.67382125  0.67013290  0.67099597  1
  Ni  Ni53  1  0.83812971  0.83566173  0.83728488  1
" 