2398,Ni55Fe36Cr7_4,-238.507776094379, 214.287454928772,Ni55Fe36Cr7,"# generated using pymatgen
 data_Cr5Fe19Ni30
_symmetry_space_group_name_H-M   'P 1'
_cell_length_a   7.42080730
_cell_length_b   7.42080730
_cell_length_c   10.49460633
_cell_angle_alpha   90.00000000
_cell_angle_beta   90.00000000
_cell_angle_gamma   90.00000000
_symmetry_Int_Tables_number   1
_chemical_formula_structural   Cr5Fe19Ni30
_chemical_formula_sum   'Cr5 Fe19 Ni30'
_cell_volume   577.92098044
_cell_formula_units_Z   1
loop_
 _symmetry_equiv_pos_site_id
 _symmetry_equiv_pos_as_xyz
  1  'x, y, z'
loop_
 _atom_site_type_symbol
 _atom_site_label
 _atom_site_symmetry_multiplicity
 _atom_site_fract_x
 _atom_site_fract_y
 _atom_site_fract_z
 _atom_site_occupancy
  Fe  Fe0  1  0.00422721  0.00314587  0.00320397  1
  Ni  Ni1  1  0.17260365  0.16843607  0.16994896  1
  Fe  Fe2  1  0.00482709  1.00148036  0.33555639  1
  Ni  Ni3  1  0.00449273  0.33849128  1.00188601  1
  Cr  Cr4  1  0.17092209  0.50214055  0.17022421  1
  Fe  Fe5  1  1.00211278  0.33667658  0.33671555  1
  Ni  Ni6  1  1.00272041  0.66884582  0.00316509  1
  Ni  Ni7  1  0.16993039  0.83753203  0.16887023  1
  Ni  Ni8  1  1.00261386  0.66897558  0.33630788  1
  Fe  Fe9  1  0.33598260  1.00258664  1.00290242  1
  Ni  Ni10  1  0.50191916  0.17022186  0.16927344  1
  Ni  Ni11  1  0.33911436  0.00337531  0.33516930  1
  Ni  Ni12  1  0.33642089  0.33466532  1.00262581  1
  Fe  Fe13  1  0.50376354  0.50214065  0.16929702  1
  Ni  Ni14  1  0.33805500  0.33586487  0.33663839  1
  Fe  Fe15  1  0.33707701  0.66967540  1.00109222  1
  Fe  Fe16  1  0.50339014  0.83750649  0.16881707  1
  Fe  Fe17  1  0.33646471  0.67175230  0.33836552  1
  Ni  Ni18  1  0.66754014  1.00290894  1.00310332  1
  Cr  Cr19  1  0.83652959  0.16998441  0.16913214  1
  Ni  Ni20  1  0.66771069  0.00338356  0.33677649  1
  Fe  Fe21  1  0.66988785  0.33853142  1.00201841  1
  Ni  Ni22  1  0.83449679  0.50508691  0.16973404  1
  Fe  Fe23  1  0.66884058  0.33686107  0.33792590  1
  Ni  Ni24  1  0.67109843  0.67097616  0.00432089  1
  Ni  Ni25  1  0.83599160  0.83571163  0.17002084  1
  Fe  Fe26  1  0.66816140  0.66914006  0.33523539  1
  Cr  Cr27  1  0.17083096  0.16978820  0.50177935  1
  Fe  Fe28  1  0.00535361  0.00435227  0.67051726  1
  Ni  Ni29  1  0.17091025  0.16991891  0.83735165  1
  Ni  Ni30  1  0.17084547  0.50355855  0.50342465  1
  Fe  Fe31  1  0.00319662  0.33676746  0.67081538  1
  Ni  Ni32  1  0.17092416  0.50096985  0.83549172  1
  Ni  Ni33  1  0.17115861  0.83607271  0.50406708  1
  Ni  Ni34  1  0.00438360  0.66709080  0.66985188  1
  Fe  Fe35  1  0.17119588  0.83416630  0.83578572  1
  Fe  Fe36  1  0.50405085  0.17067358  0.50264047  1
  Ni  Ni37  1  0.33884667  0.00322654  0.67083439  1
  Fe  Fe38  1  0.50294364  0.17066689  0.83691113  1
  Ni  Ni39  1  0.50245694  0.50317789  0.50334613  1
  Ni  Ni40  1  0.33797939  0.33668814  0.67015336  1
  Ni  Ni41  1  0.50256201  0.50374364  0.83739634  1
  Fe  Fe42  1  0.50146351  0.83661701  0.50444367  1
  Ni  Ni43  1  0.33390724  0.66930987  0.66946728  1
  Ni  Ni44  1  0.50298730  0.83641001  0.83584288  1
  Ni  Ni45  1  0.83501134  0.17025164  0.50384008  1
  Ni  Ni46  1  0.66762540  0.00605599  0.66929415  1
  Fe  Fe47  1  0.83571023  0.17168870  0.83626666  1
  Ni  Ni48  1  0.83522763  0.50226732  0.50370098  1
  Ni  Ni49  1  0.66935687  0.33520102  0.67014723  1
  Ni  Ni50  1  0.83580716  0.50302690  0.83617851  1
  Cr  Cr51  1  0.83554815  0.83688743  0.50417910  1
  Fe  Fe52  1  0.66625795  0.66709387  0.67070169  1
  Cr  Cr53  1  0.83480539  0.83647296  0.83548591  1
" 