1122,Ni55Fe36Cr7_1,-239.060170456367, 214.880878736166,Ni55Fe36Cr7,"# generated using pymatgen
 data_Cr5Fe19Ni30
_symmetry_space_group_name_H-M   'P 1'
_cell_length_a   7.42495592
_cell_length_b   7.42495592
_cell_length_c   10.50047336
_cell_angle_alpha   90.00000000
_cell_angle_beta   90.00000000
_cell_angle_gamma   90.00000000
_symmetry_Int_Tables_number   1
_chemical_formula_structural   Cr5Fe19Ni30
_chemical_formula_sum   'Cr5 Fe19 Ni30'
_cell_volume   578.89078525
_cell_formula_units_Z   1
loop_
 _symmetry_equiv_pos_site_id
 _symmetry_equiv_pos_as_xyz
  1  'x, y, z'
loop_
 _atom_site_type_symbol
 _atom_site_label
 _atom_site_symmetry_multiplicity
 _atom_site_fract_x
 _atom_site_fract_y
 _atom_site_fract_z
 _atom_site_occupancy
  Fe  Fe0  1  0.00331120  1.00229369  0.00291632  1
  Fe  Fe1  1  0.16994077  0.16998402  0.16985152  1
  Ni  Ni2  1  1.00169872  0.00525687  0.33555995  1
  Ni  Ni3  1  0.00417020  0.33608533  1.00149201  1
  Fe  Fe4  1  0.17067290  0.50169497  0.16878627  1
  Ni  Ni5  1  0.00399664  0.33460165  0.33798112  1
  Ni  Ni6  1  1.00249780  0.66895549  1.00143015  1
  Fe  Fe7  1  0.16928473  0.83682343  0.16834988  1
  Fe  Fe8  1  1.00281037  0.66920281  0.33637671  1
  Ni  Ni9  1  0.33736596  1.00257244  1.00283063  1
  Fe  Fe10  1  0.50340601  0.16932620  0.16991481  1
  Ni  Ni11  1  0.33688014  0.00553974  0.33557097  1
  Ni  Ni12  1  0.33481385  0.33636394  1.00238322  1
  Ni  Ni13  1  0.50181293  0.50195363  0.16802565  1
  Ni  Ni14  1  0.33481640  0.33454509  0.33732974  1
  Ni  Ni15  1  0.33737810  0.66956893  1.00156794  1
  Ni  Ni16  1  0.50162848  0.83766367  0.16820842  1
  Cr  Cr17  1  0.33717324  0.66810655  0.33592767  1
  Ni  Ni18  1  0.66890640  1.00089304  1.00211435  1
  Ni  Ni19  1  0.83678991  0.16829811  0.16990455  1
  Ni  Ni20  1  0.66992385  0.00354884  0.33767518  1
  Fe  Fe21  1  0.66801541  0.33630979  1.00231633  1
  Cr  Cr22  1  0.83575954  0.50131356  0.16906762  1
  Ni  Ni23  1  0.66969294  0.33424228  0.33777579  1
  Ni  Ni24  1  0.66862739  0.67150967  1.00175913  1
  Fe  Fe25  1  0.83565642  0.83871257  0.16818314  1
  Cr  Cr26  1  0.66934909  0.67050537  0.33710943  1
  Ni  Ni27  1  0.17022656  0.17020041  0.50149391  1
  Fe  Fe28  1  0.00293356  0.00377218  0.67020422  1
  Ni  Ni29  1  0.16998020  0.16788026  0.83629519  1
  Ni  Ni30  1  0.16766827  0.50071572  0.50302228  1
  Ni  Ni31  1  0.00346232  0.33622324  0.66902525  1
  Fe  Fe32  1  0.16953281  0.50311991  0.83645253  1
  Cr  Cr33  1  0.16882216  0.83794254  0.50323191  1
  Fe  Fe34  1  0.00369305  0.66862178  0.67082331  1
  Ni  Ni35  1  0.16918893  0.83740457  0.83676700  1
  Ni  Ni36  1  0.50255652  0.16985056  0.50115233  1
  Ni  Ni37  1  0.33700493  0.00356617  0.67009790  1
  Ni  Ni38  1  0.50184716  0.16945626  0.83713926  1
  Ni  Ni39  1  0.50343164  0.49937498  0.50269030  1
  Fe  Fe40  1  0.33615225  0.33557026  0.66908956  1
  Ni  Ni41  1  0.50356981  0.50191128  0.83778826  1
  Fe  Fe42  1  0.50284829  0.83868894  0.50335713  1
  Fe  Fe43  1  0.33520196  0.66856942  0.67058982  1
  Ni  Ni44  1  0.50134081  0.83713614  0.83678688  1
  Fe  Fe45  1  0.83656665  0.17110481  0.50140480  1
  Fe  Fe46  1  0.66906801  0.00471763  0.66995215  1
  Fe  Fe47  1  0.83590001  0.16928882  0.83690628  1
  Ni  Ni48  1  0.83740226  0.50133329  0.50161797  1
  Fe  Fe49  1  0.66901995  0.33481444  0.66887329  1
  Ni  Ni50  1  0.83640153  0.50270335  0.83764039  1
  Fe  Fe51  1  0.83617128  0.83750519  0.50279379  1
  Cr  Cr52  1  0.66871533  0.67003002  0.66936971  1
  Ni  Ni53  1  0.83797598  0.83568774  0.83808768  1
" 