6869,Ni55Cr45_7,-217.550911075041, 132.315749654222,Ni55Cr45,"# generated using pymatgen
 data_Cr29Ni25
_symmetry_space_group_name_H-M   'P 1'
_cell_length_a   7.53081158
_cell_length_b   7.53081158
_cell_length_c   10.65017588
_cell_angle_alpha   90.00000000
_cell_angle_beta   90.00000000
_cell_angle_gamma   90.00000000
_symmetry_Int_Tables_number   1
_chemical_formula_structural   Cr29Ni25
_chemical_formula_sum   'Cr29 Ni25'
_cell_volume   604.00473537
_cell_formula_units_Z   1
loop_
 _symmetry_equiv_pos_site_id
 _symmetry_equiv_pos_as_xyz
  1  'x, y, z'
loop_
 _atom_site_type_symbol
 _atom_site_label
 _atom_site_symmetry_multiplicity
 _atom_site_fract_x
 _atom_site_fract_y
 _atom_site_fract_z
 _atom_site_occupancy
  Cr  Cr0  1  0.99518829  -0.00377730  0.99499945  1
  Cr  Cr1  1  0.16691603  0.16133195  0.15946420  1
  Cr  Cr2  1  -0.00284003  0.99419271  0.32733315  1
  Cr  Cr3  1  0.99313105  0.32578334  0.99366085  1
  Cr  Cr4  1  0.16122253  0.49601157  0.16284757  1
  Cr  Cr5  1  0.99240768  0.32514374  0.32775488  1
  Cr  Cr6  1  0.99486341  0.66539003  -0.00365934  1
  Ni  Ni7  1  0.16314413  0.82975707  0.16271025  1
  Ni  Ni8  1  -0.00391212  0.66594010  0.32614115  1
  Ni  Ni9  1  0.32847084  0.99554292  -0.00405502  1
  Ni  Ni10  1  0.49549061  0.15883382  0.16036545  1
  Ni  Ni11  1  0.32777268  -0.00294881  0.33065190  1
  Ni  Ni12  1  0.33141311  0.32708907  0.99443630  1
  Cr  Cr13  1  0.49339279  0.49516586  0.15883671  1
  Cr  Cr14  1  0.33320261  0.32286744  0.32999608  1
  Ni  Ni15  1  0.33027145  0.66417144  0.99379790  1
  Cr  Cr16  1  0.49517451  0.83289127  0.15857062  1
  Cr  Cr17  1  0.32696787  0.66743988  0.33166082  1
  Ni  Ni18  1  0.66274942  -0.00352064  -0.00141075  1
  Ni  Ni19  1  0.82585732  0.16047968  0.16077908  1
  Cr  Cr20  1  0.66177705  -0.00030783  0.32750515  1
  Cr  Cr21  1  0.66289784  0.32858592  -0.00287183  1
  Ni  Ni22  1  0.82937242  0.49822705  0.16244571  1
  Cr  Cr23  1  0.66168306  0.32603323  0.32757939  1
  Ni  Ni24  1  0.66233815  0.66201704  0.99561244  1
  Ni  Ni25  1  0.82964988  0.82863173  0.16102023  1
  Cr  Cr26  1  0.66439890  0.66222813  0.32600529  1
  Ni  Ni27  1  0.16303128  0.15884494  0.49735114  1
  Cr  Cr28  1  -0.00096485  -0.00177119  0.66440407  1
  Ni  Ni29  1  0.16316070  0.16007007  0.82878690  1
  Cr  Cr30  1  0.15834235  0.49370632  0.49293334  1
  Ni  Ni31  1  0.99277285  0.32455041  0.66386675  1
  Cr  Cr32  1  0.16245908  0.49178053  0.83122869  1
  Ni  Ni33  1  0.16330338  0.83414678  0.49405844  1
  Cr  Cr34  1  -0.00180563  0.66434891  0.66427691  1
  Ni  Ni35  1  0.16691060  0.83329500  0.83082485  1
  Ni  Ni36  1  0.49560419  0.15922762  0.49756344  1
  Ni  Ni37  1  0.32807378  -0.00206882  0.66072308  1
  Cr  Cr38  1  0.49610638  0.15967851  0.83054343  1
  Cr  Cr39  1  0.49747574  0.49310433  0.49747399  1
  Cr  Cr40  1  0.33065034  0.32662681  0.66246486  1
  Ni  Ni41  1  0.49816581  0.49476046  0.83229772  1
  Cr  Cr42  1  0.49622778  0.83502543  0.49814413  1
  Cr  Cr43  1  0.32815869  0.66633598  0.66396425  1
  Cr  Cr44  1  0.49602108  0.83212438  0.83140400  1
  Ni  Ni45  1  0.82810533  0.16317770  0.49976049  1
  Ni  Ni46  1  0.66165499  0.00302339  0.66138198  1
  Ni  Ni47  1  0.82838781  0.16468521  0.82642742  1
  Cr  Cr48  1  0.83141240  0.49361946  0.49677331  1
  Ni  Ni49  1  0.66499217  0.32459541  0.66334557  1
  Ni  Ni50  1  0.82600916  0.49225981  0.82768515  1
  Cr  Cr51  1  0.82938818  0.83105662  0.49590875  1
  Cr  Cr52  1  0.66002794  0.65903355  0.66589246  1
  Cr  Cr53  1  0.82471589  0.83295082  0.82972610  1
" 