1363,Ni55Fe5Cr38_1,-223.545651672504, 148.005784992539,Ni55Fe5Cr38,"# generated using pymatgen
 data_Cr22Fe3Ni29
_symmetry_space_group_name_H-M   'P 1'
_cell_length_a   7.49491357
_cell_length_b   7.49491357
_cell_length_c   10.59940842
_cell_angle_alpha   90.00000000
_cell_angle_beta   90.00000000
_cell_angle_gamma   90.00000000
_symmetry_Int_Tables_number   1
_chemical_formula_structural   Cr22Fe3Ni29
_chemical_formula_sum   'Cr22 Fe3 Ni29'
_cell_volume   595.40830072
_cell_formula_units_Z   1
loop_
 _symmetry_equiv_pos_site_id
 _symmetry_equiv_pos_as_xyz
  1  'x, y, z'
loop_
 _atom_site_type_symbol
 _atom_site_label
 _atom_site_symmetry_multiplicity
 _atom_site_fract_x
 _atom_site_fract_y
 _atom_site_fract_z
 _atom_site_occupancy
  Cr  Cr0  1  0.99646670  0.99790437  -0.00096666  1
  Fe  Fe1  1  0.16560090  0.16401333  0.16521601  1
  Ni  Ni2  1  0.99595710  -0.00165809  0.33275076  1
  Ni  Ni3  1  -0.00171077  0.33099048  -0.00040270  1
  Cr  Cr4  1  0.16790313  0.49934294  0.16311871  1
  Cr  Cr5  1  0.99617362  0.33030047  0.33002126  1
  Ni  Ni6  1  0.99611350  0.66533433  -0.00178549  1
  Cr  Cr7  1  0.16634267  0.83197768  0.16673312  1
  Cr  Cr8  1  0.99624332  0.66680827  0.33204339  1
  Ni  Ni9  1  0.33310962  -0.00169961  0.99754704  1
  Cr  Cr10  1  0.50034401  0.16444627  0.16554260  1
  Ni  Ni11  1  0.33224635  -0.00149808  0.33347821  1
  Ni  Ni12  1  0.33157486  0.33120000  -0.00007381  1
  Ni  Ni13  1  0.49738709  0.49702519  0.16456269  1
  Ni  Ni14  1  0.33496985  0.33128865  0.33168684  1
  Ni  Ni15  1  0.33350729  0.66457992  0.99753844  1
  Cr  Cr16  1  0.49876180  0.83117981  0.16393829  1
  Ni  Ni17  1  0.33355970  0.66466157  0.33414288  1
  Ni  Ni18  1  0.66509357  0.99625261  0.99797786  1
  Ni  Ni19  1  0.83019663  0.16324627  0.16506677  1
  Ni  Ni20  1  0.66625935  -0.00059371  0.33272007  1
  Ni  Ni21  1  0.66447954  0.33116459  -0.00010156  1
  Cr  Cr22  1  0.82793155  0.49760755  0.16169308  1
  Ni  Ni23  1  0.66312372  0.32970076  0.33376400  1
  Ni  Ni24  1  0.66490627  0.66695723  0.99769751  1
  Ni  Ni25  1  0.83091748  0.83508029  0.16440036  1
  Cr  Cr26  1  0.66408136  0.66398670  0.33262767  1
  Cr  Cr27  1  0.16353860  0.16220959  0.49726658  1
  Fe  Fe28  1  0.99605316  0.99733136  0.66282447  1
  Cr  Cr29  1  0.16317841  0.16566988  0.83210117  1
  Cr  Cr30  1  0.16554808  0.50032690  0.49831320  1
  Ni  Ni31  1  0.99491784  0.33074081  0.66332052  1
  Cr  Cr32  1  0.16390634  0.49849361  0.83249366  1
  Ni  Ni33  1  0.16639117  0.83246236  0.49717758  1
  Cr  Cr34  1  0.99579694  0.66606348  0.66311718  1
  Cr  Cr35  1  0.16635708  0.83003161  0.83122675  1
  Ni  Ni36  1  0.50162976  0.16438448  0.49562288  1
  Cr  Cr37  1  0.33344454  0.99651374  0.66513797  1
  Cr  Cr38  1  0.50065961  0.16411657  0.83406213  1
  Ni  Ni39  1  0.50071121  0.49889858  0.49772106  1
  Cr  Cr40  1  0.33415976  0.33190464  0.66318185  1
  Cr  Cr41  1  0.50017098  0.50000760  0.83195371  1
  Ni  Ni42  1  0.49641568  0.83123198  0.49743980  1
  Ni  Ni43  1  0.33504062  0.66713201  0.66286635  1
  Ni  Ni44  1  0.49981842  0.82973330  0.83352459  1
  Ni  Ni45  1  0.82950186  0.16511659  0.49805130  1
  Cr  Cr46  1  0.66381760  0.99627655  0.66444049  1
  Cr  Cr47  1  0.83017503  0.16624974  0.83030190  1
  Ni  Ni48  1  0.82790904  0.49531129  0.50018727  1
  Ni  Ni49  1  0.66670107  0.33278808  0.66053656  1
  Cr  Cr50  1  0.83027149  0.49769362  0.83215401  1
  Fe  Fe51  1  0.82966455  0.83311432  0.49757814  1
  Ni  Ni52  1  0.66351392  0.66560598  0.66368080  1
  Ni  Ni53  1  0.82878145  0.83060600  0.83239522  1
" 