2767,Ni55Fe5Cr38_12,-223.756362709442, 148.788438636111,Ni55Fe5Cr38,"# generated using pymatgen
 data_Cr22Fe3Ni29
_symmetry_space_group_name_H-M   'P 1'
_cell_length_a   7.49728481
_cell_length_b   7.49728481
_cell_length_c   10.60276186
_cell_angle_alpha   90.00000000
_cell_angle_beta   90.00000000
_cell_angle_gamma   90.00000000
_symmetry_Int_Tables_number   1
_chemical_formula_structural   Cr22Fe3Ni29
_chemical_formula_sum   'Cr22 Fe3 Ni29'
_cell_volume   595.97360445
_cell_formula_units_Z   1
loop_
 _symmetry_equiv_pos_site_id
 _symmetry_equiv_pos_as_xyz
  1  'x, y, z'
loop_
 _atom_site_type_symbol
 _atom_site_label
 _atom_site_symmetry_multiplicity
 _atom_site_fract_x
 _atom_site_fract_y
 _atom_site_fract_z
 _atom_site_occupancy
  Ni  Ni0  1  0.99594401  -0.00155326  0.99727152  1
  Cr  Cr1  1  0.16061308  0.16454006  0.16316939  1
  Ni  Ni2  1  0.99258341  -0.00065750  0.32897326  1
  Ni  Ni3  1  0.99337840  0.33015790  0.99794791  1
  Ni  Ni4  1  0.16266951  0.49721103  0.16606766  1
  Ni  Ni5  1  0.99570237  0.33099919  0.33063233  1
  Cr  Cr6  1  0.99570911  0.66613284  -0.00109261  1
  Ni  Ni7  1  0.16318258  0.83306060  0.16450575  1
  Cr  Cr8  1  0.99711175  0.66472253  0.32744485  1
  Ni  Ni9  1  0.33101435  -0.00080056  0.99623258  1
  Ni  Ni10  1  0.50196779  0.16356053  0.16161454  1
  Cr  Cr11  1  0.33411007  -0.00014341  0.33063558  1
  Cr  Cr12  1  0.33500824  0.32905032  -0.00037970  1
  Ni  Ni13  1  0.50139205  0.49894811  0.16404820  1
  Cr  Cr14  1  0.33481441  0.33363859  0.33156598  1
  Cr  Cr15  1  0.32957602  0.66518393  0.00053206  1
  Cr  Cr16  1  0.50055099  0.83179927  0.16448705  1
  Ni  Ni17  1  0.33187885  0.66164162  0.33035659  1
  Ni  Ni18  1  0.66671280  0.00054458  -0.00177419  1
  Ni  Ni19  1  0.83108188  0.16403536  0.16358549  1
  Ni  Ni20  1  0.66838734  -0.00043268  0.33067601  1
  Ni  Ni21  1  0.66767293  0.32998548  -0.00097494  1
  Ni  Ni22  1  0.82997281  0.49665267  0.16288023  1
  Cr  Cr23  1  0.66486766  0.32852331  0.32907840  1
  Ni  Ni24  1  0.66827989  0.66380397  -0.00142670  1
  Ni  Ni25  1  0.83000636  0.83331848  0.16390490  1
  Ni  Ni26  1  0.66374917  0.66386061  0.32982868  1
  Cr  Cr27  1  0.15848131  0.16728348  0.49669790  1
  Cr  Cr28  1  0.99449694  -0.00188422  0.66696066  1
  Ni  Ni29  1  0.16194051  0.16259288  0.83317988  1
  Ni  Ni30  1  0.16439622  0.49626010  0.49708367  1
  Ni  Ni31  1  0.99379534  0.33051801  0.66555080  1
  Cr  Cr32  1  0.16052112  0.49283266  0.83163817  1
  Cr  Cr33  1  0.16440418  0.83158972  0.49457955  1
  Cr  Cr34  1  0.99715402  0.66557455  0.66798664  1
  Ni  Ni35  1  0.16341640  0.83593513  0.83422784  1
  Ni  Ni36  1  0.50322652  0.16483929  0.49947718  1
  Cr  Cr37  1  0.33275742  0.00000776  0.66673983  1
  Ni  Ni38  1  0.50103967  0.16294514  0.83265967  1
  Ni  Ni39  1  0.49985245  0.49800949  0.49845312  1
  Cr  Cr40  1  0.33427645  0.32983185  0.66286291  1
  Cr  Cr41  1  0.50420000  0.49678334  0.83218355  1
  Cr  Cr42  1  0.50134222  0.83048389  0.49719004  1
  Cr  Cr43  1  0.32935406  0.66406205  0.66341699  1
  Cr  Cr44  1  0.50046710  0.83256600  0.83241035  1
  Ni  Ni45  1  0.82921537  0.16510635  0.49824472  1
  Ni  Ni46  1  0.66622981  0.00236833  0.66528585  1
  Fe  Fe47  1  0.83040760  0.16657688  0.83272516  1
  Cr  Cr48  1  0.83153935  0.49502235  0.49923910  1
  Ni  Ni49  1  0.66653646  0.32831203  0.66517233  1
  Ni  Ni50  1  0.82966136  0.49555123  0.83150461  1
  Cr  Cr51  1  0.82863231  0.83373282  0.49654861  1
  Fe  Fe52  1  0.66621161  0.66342738  0.66549125  1
  Fe  Fe53  1  0.82961304  0.83299463  0.83380547  1
" 