3293,Ni55Fe5Cr38_4,-223.576499313136, 151.753459853107,Ni55Fe5Cr38,"# generated using pymatgen
 data_Cr22Fe3Ni29
_symmetry_space_group_name_H-M   'P 1'
_cell_length_a   7.49392762
_cell_length_b   7.49392762
_cell_length_c   10.59801407
_cell_angle_alpha   90.00000000
_cell_angle_beta   90.00000000
_cell_angle_gamma   90.00000000
_symmetry_Int_Tables_number   1
_chemical_formula_structural   Cr22Fe3Ni29
_chemical_formula_sum   'Cr22 Fe3 Ni29'
_cell_volume   595.17335476
_cell_formula_units_Z   1
loop_
 _symmetry_equiv_pos_site_id
 _symmetry_equiv_pos_as_xyz
  1  'x, y, z'
loop_
 _atom_site_type_symbol
 _atom_site_label
 _atom_site_symmetry_multiplicity
 _atom_site_fract_x
 _atom_site_fract_y
 _atom_site_fract_z
 _atom_site_occupancy
  Cr  Cr0  1  0.00016848  -0.00121600  0.99649008  1
  Ni  Ni1  1  0.16726212  0.16547967  0.16553830  1
  Cr  Cr2  1  0.00097457  0.99679898  0.33274383  1
  Fe  Fe3  1  -0.00164859  0.33070860  0.99629658  1
  Cr  Cr4  1  0.16508331  0.49664110  0.16622949  1
  Ni  Ni5  1  -0.00034397  0.33170060  0.33053302  1
  Cr  Cr6  1  0.99742789  0.66506576  0.99634250  1
  Ni  Ni7  1  0.16841090  0.83306263  0.16776283  1
  Ni  Ni8  1  -0.00109030  0.66572496  0.33274170  1
  Cr  Cr9  1  0.33022193  -0.00176102  0.00025433  1
  Fe  Fe10  1  0.49616420  0.16455058  0.16697829  1
  Ni  Ni11  1  0.33196941  -0.00079971  0.32999142  1
  Ni  Ni12  1  0.33057701  0.32967897  0.99795689  1
  Cr  Cr13  1  0.49899142  0.49861205  0.16562403  1
  Ni  Ni14  1  0.33167798  0.32810989  0.33195046  1
  Cr  Cr15  1  0.33232939  0.66628356  0.99776382  1
  Ni  Ni16  1  0.49698201  0.83167597  0.16680322  1
  Ni  Ni17  1  0.33039169  0.66730989  0.33027026  1
  Cr  Cr18  1  0.66419972  0.99737484  0.99714543  1
  Cr  Cr19  1  0.83179519  0.16690621  0.16480436  1
  Ni  Ni20  1  0.66168760  -0.00156865  0.33178168  1
  Ni  Ni21  1  0.66555602  0.33269691  0.99751838  1
  Cr  Cr22  1  0.83056198  0.49729829  0.16608737  1
  Ni  Ni23  1  0.66328494  0.33017992  0.33134588  1
  Ni  Ni24  1  0.66545737  0.66362870  0.99639248  1
  Cr  Cr25  1  0.82977676  0.83042142  0.16687838  1
  Ni  Ni26  1  0.66531477  0.66600441  0.33096483  1
  Ni  Ni27  1  0.16826526  0.16516749  0.49635480  1
  Cr  Cr28  1  0.99743155  0.99595846  0.66536485  1
  Ni  Ni29  1  0.16349410  0.16701651  0.83275312  1
  Cr  Cr30  1  0.16607814  0.49889530  0.49794360  1
  Cr  Cr31  1  -0.00014814  0.33205843  0.66731352  1
  Fe  Fe32  1  0.16405261  0.49805208  0.83029732  1
  Ni  Ni33  1  0.16399907  0.83089471  0.49684965  1
  Ni  Ni34  1  0.99805627  0.66700649  0.66618482  1
  Ni  Ni35  1  0.16450779  0.83050831  0.83002015  1
  Ni  Ni36  1  0.49636456  0.16495360  0.49586310  1
  Cr  Cr37  1  0.33131579  -0.00135903  0.66460646  1
  Cr  Cr38  1  0.49791266  0.16468226  0.83115370  1
  Cr  Cr39  1  0.49683830  0.49762701  0.49803175  1
  Ni  Ni40  1  0.33015727  0.33153482  0.66465544  1
  Cr  Cr41  1  0.49789312  0.50021492  0.83092219  1
  Cr  Cr42  1  0.49915676  0.83205062  0.49861856  1
  Ni  Ni43  1  0.32975328  0.66503439  0.66705333  1
  Ni  Ni44  1  0.49991737  0.82906176  0.83025166  1
  Cr  Cr45  1  0.83017751  0.16277860  0.49701335  1
  Ni  Ni46  1  0.66579226  0.99548886  0.66595853  1
  Ni  Ni47  1  0.83316611  0.16587522  0.83268202  1
  Cr  Cr48  1  0.83170720  0.50124705  0.49518698  1
  Cr  Cr49  1  0.66383645  0.33075529  0.66439926  1
  Ni  Ni50  1  0.83176881  0.49916900  0.83311520  1
  Ni  Ni51  1  0.83148596  0.83020251  0.49857888  1
  Ni  Ni52  1  0.66677287  0.66813251  0.66733970  1
  Ni  Ni53  1  0.83021680  0.82957784  0.82945179  1
" 