7637,Ni55Cr45_5,-217.584549688722, 132.052372615059,Ni55Cr45,"# generated using pymatgen
 data_Cr29Ni25
_symmetry_space_group_name_H-M   'P 1'
_cell_length_a   7.53341479
_cell_length_b   7.53341479
_cell_length_c   10.65385737
_cell_angle_alpha   90.00000000
_cell_angle_beta   90.00000000
_cell_angle_gamma   90.00000000
_symmetry_Int_Tables_number   1
_chemical_formula_structural   Cr29Ni25
_chemical_formula_sum   'Cr29 Ni25'
_cell_volume   604.63131861
_cell_formula_units_Z   1
loop_
 _symmetry_equiv_pos_site_id
 _symmetry_equiv_pos_as_xyz
  1  'x, y, z'
loop_
 _atom_site_type_symbol
 _atom_site_label
 _atom_site_symmetry_multiplicity
 _atom_site_fract_x
 _atom_site_fract_y
 _atom_site_fract_z
 _atom_site_occupancy
  Cr  Cr0  1  0.99416582  -0.00419934  -0.00134163  1
  Cr  Cr1  1  0.16698077  0.16021140  0.16148647  1
  Cr  Cr2  1  0.99384316  -0.00240249  0.32810083  1
  Cr  Cr3  1  0.99130734  0.32548103  -0.00428470  1
  Cr  Cr4  1  0.16650116  0.49231932  0.16221877  1
  Cr  Cr5  1  0.99344958  0.32517284  0.33131489  1
  Cr  Cr6  1  0.99527341  0.66315755  -0.00047535  1
  Ni  Ni7  1  0.16480048  0.83062744  0.16348108  1
  Cr  Cr8  1  -0.00306308  0.66228724  0.32569235  1
  Ni  Ni9  1  0.33110871  -0.00306306  0.99406670  1
  Cr  Cr10  1  0.49611116  0.16517197  0.16272994  1
  Ni  Ni11  1  0.32972951  -0.00196010  0.33040597  1
  Ni  Ni12  1  0.33345206  0.32679282  0.99472882  1
  Ni  Ni13  1  0.49438411  0.49315499  0.16319840  1
  Ni  Ni14  1  0.33181064  0.32707633  0.33070397  1
  Cr  Cr15  1  0.33078503  0.66375373  0.99540361  1
  Cr  Cr16  1  0.49473661  0.83391468  0.16449988  1
  Ni  Ni17  1  0.32987222  0.66203472  0.32600201  1
  Cr  Cr18  1  0.66266876  -0.00212563  0.99309354  1
  Ni  Ni19  1  0.82549398  0.16079877  0.16350947  1
  Ni  Ni20  1  0.66182075  0.00078849  0.32999409  1
  Ni  Ni21  1  0.65932985  0.32576746  -0.00438682  1
  Cr  Cr22  1  0.82338311  0.49158313  0.16193992  1
  Ni  Ni23  1  0.65942901  0.32407128  0.32883684  1
  Cr  Cr24  1  0.66094247  0.66202390  -0.00410031  1
  Ni  Ni25  1  0.82881494  0.83269881  0.16407777  1
  Cr  Cr26  1  0.66133469  0.66179526  0.32691109  1
  Ni  Ni27  1  0.16364093  0.16322612  0.49684427  1
  Ni  Ni28  1  0.99322861  0.00082804  0.66094495  1
  Cr  Cr29  1  0.16373860  0.16323028  0.82986661  1
  Cr  Cr30  1  0.16280548  0.49331197  0.49747012  1
  Ni  Ni31  1  0.99446420  0.32404589  0.66102428  1
  Cr  Cr32  1  0.16074129  0.49261456  0.82671413  1
  Cr  Cr33  1  0.16202990  0.83132099  0.49459501  1
  Ni  Ni34  1  0.99454128  0.66236581  0.66211019  1
  Cr  Cr35  1  0.16149488  0.83151304  0.82895903  1
  Ni  Ni36  1  0.49651449  0.16343794  0.49508287  1
  Cr  Cr37  1  0.33186690  -0.00140382  0.66279906  1
  Ni  Ni38  1  0.49761325  0.16190974  0.82868385  1
  Cr  Cr39  1  0.49660551  0.49268310  0.49342578  1
  Ni  Ni40  1  0.33055135  0.32532850  0.66114263  1
  Cr  Cr41  1  0.49714460  0.49143466  0.82914337  1
  Cr  Cr42  1  0.49776444  0.83329331  0.49415960  1
  Cr  Cr43  1  0.33172500  0.66172444  0.66292796  1
  Ni  Ni44  1  0.49753404  0.83253103  0.82733699  1
  Ni  Ni45  1  0.82583048  0.16232313  0.49764976  1
  Ni  Ni46  1  0.66305446  0.00006039  0.66290134  1
  Ni  Ni47  1  0.82570627  0.16318975  0.82590257  1
  Cr  Cr48  1  0.82745082  0.49373069  0.50054311  1
  Ni  Ni49  1  0.66155646  0.32449929  0.66233498  1
  Cr  Cr50  1  0.82855908  0.49309836  0.82499451  1
  Cr  Cr51  1  0.82733797  0.83129645  0.49921568  1
  Ni  Ni52  1  0.66188836  0.66318446  0.66375362  1
  Cr  Cr53  1  0.82828299  0.83042721  0.82380403  1
" 