5115,Ni55Fe36Cr7_0,-238.412415689597, 213.845281842672,Ni55Fe36Cr7,"# generated using pymatgen
 data_Cr5Fe19Ni30
_symmetry_space_group_name_H-M   'P 1'
_cell_length_a   7.41901224
_cell_length_b   7.41901224
_cell_length_c   10.49206774
_cell_angle_alpha   90.00000000
_cell_angle_beta   90.00000000
_cell_angle_gamma   90.00000000
_symmetry_Int_Tables_number   1
_chemical_formula_structural   Cr5Fe19Ni30
_chemical_formula_sum   'Cr5 Fe19 Ni30'
_cell_volume   577.50169252
_cell_formula_units_Z   1
loop_
 _symmetry_equiv_pos_site_id
 _symmetry_equiv_pos_as_xyz
  1  'x, y, z'
loop_
 _atom_site_type_symbol
 _atom_site_label
 _atom_site_symmetry_multiplicity
 _atom_site_fract_x
 _atom_site_fract_y
 _atom_site_fract_z
 _atom_site_occupancy
  Fe  Fe0  1  0.00389455  0.00361105  0.00354727  1
  Ni  Ni1  1  0.16969610  0.16919491  0.17112196  1
  Ni  Ni2  1  1.00284795  0.00393857  0.33536089  1
  Ni  Ni3  1  1.00221646  0.33617330  0.00444190  1
  Ni  Ni4  1  0.16806088  0.50288757  0.17052554  1
  Fe  Fe5  1  1.00122340  0.33555649  0.33422533  1
  Ni  Ni6  1  1.00194970  0.66909129  1.00289134  1
  Fe  Fe7  1  0.16862727  0.83677492  0.17035134  1
  Ni  Ni8  1  0.00345265  0.67075167  0.33432977  1
  Ni  Ni9  1  0.33606686  0.00484854  0.00490409  1
  Ni  Ni10  1  0.50433280  0.16922582  0.16972299  1
  Fe  Fe11  1  0.33799571  0.00355079  0.33520588  1
  Fe  Fe12  1  0.33619457  0.33628401  1.00295389  1
  Ni  Ni13  1  0.50517918  0.50195427  0.17200592  1
  Fe  Fe14  1  0.33687666  0.33550814  0.33517289  1
  Cr  Cr15  1  0.33678149  0.67121569  1.00074840  1
  Fe  Fe16  1  0.50439637  0.83725173  0.17086335  1
  Ni  Ni17  1  0.33779392  0.67015395  0.33540382  1
  Fe  Fe18  1  0.66942025  1.00277453  0.00450413  1
  Ni  Ni19  1  0.83550181  0.17026609  0.16974061  1
  Ni  Ni20  1  0.67007727  0.00526803  0.33660474  1
  Ni  Ni21  1  0.67021733  0.33684978  1.00267552  1
  Ni  Ni22  1  0.83645059  0.50304696  0.17087680  1
  Ni  Ni23  1  0.66938000  0.33581227  0.33693546  1
  Ni  Ni24  1  0.67080008  0.66812476  0.00560112  1
  Fe  Fe25  1  0.83687325  0.83704939  0.17036682  1
  Fe  Fe26  1  0.67061023  0.67115973  0.33634620  1
  Fe  Fe27  1  0.17084310  0.16891945  0.50297391  1
  Ni  Ni28  1  0.00370517  1.00266852  0.67129752  1
  Ni  Ni29  1  0.17138162  0.16785327  0.83708177  1
  Cr  Cr30  1  0.16819559  0.50320094  0.50388552  1
  Cr  Cr31  1  1.00049638  0.33554476  0.67058392  1
  Ni  Ni32  1  0.16780711  0.50325733  0.83557133  1
  Cr  Cr33  1  0.17110736  0.83741869  0.50443767  1
  Ni  Ni34  1  1.00151849  0.67196661  0.67254523  1
  Ni  Ni35  1  0.16950599  0.83853045  0.83478732  1
  Fe  Fe36  1  0.50346767  0.17087387  0.50340082  1
  Ni  Ni37  1  0.33715988  0.00463790  0.66941475  1
  Ni  Ni38  1  0.50391122  0.16806541  0.83675090  1
  Fe  Fe39  1  0.50324350  0.50289466  0.50174968  1
  Ni  Ni40  1  0.33948068  0.33365351  0.67186771  1
  Ni  Ni41  1  0.50526461  0.50146843  0.83529491  1
  Ni  Ni42  1  0.50414214  0.83992290  0.50193650  1
  Fe  Fe43  1  0.33683228  0.66979053  0.67204066  1
  Ni  Ni44  1  0.50348592  0.84024819  0.83617485  1
  Fe  Fe45  1  0.83563934  0.16822027  0.50144128  1
  Fe  Fe46  1  0.67017680  0.00535217  0.66879492  1
  Fe  Fe47  1  0.83556113  0.16978812  0.83833607  1
  Ni  Ni48  1  0.83555792  0.50219524  0.49992319  1
  Ni  Ni49  1  0.66827005  0.33542432  0.66956792  1
  Ni  Ni50  1  0.83636220  0.50335028  0.83882440  1
  Fe  Fe51  1  0.83730617  0.83654980  0.50165704  1
  Cr  Cr52  1  0.67060950  0.66816042  0.66885102  1
  Fe  Fe53  1  0.83686588  0.83653473  0.83819628  1
" 