2849,Ni55Cr45_9,-217.122696899714, 124.573079751558,Ni55Cr45,"# generated using pymatgen
 data_Cr29Ni25
_symmetry_space_group_name_H-M   'P 1'
_cell_length_a   7.53698945
_cell_length_b   7.53698945
_cell_length_c   10.65891270
_cell_angle_alpha   90.00000000
_cell_angle_beta   90.00000000
_cell_angle_gamma   90.00000000
_symmetry_Int_Tables_number   1
_chemical_formula_structural   Cr29Ni25
_chemical_formula_sum   'Cr29 Ni25'
_cell_volume   605.49243322
_cell_formula_units_Z   1
loop_
 _symmetry_equiv_pos_site_id
 _symmetry_equiv_pos_as_xyz
  1  'x, y, z'
loop_
 _atom_site_type_symbol
 _atom_site_label
 _atom_site_symmetry_multiplicity
 _atom_site_fract_x
 _atom_site_fract_y
 _atom_site_fract_z
 _atom_site_occupancy
  Cr  Cr0  1  0.99404008  -0.00410753  0.99431423  1
  Cr  Cr1  1  0.16284272  0.16194590  0.16352619  1
  Ni  Ni2  1  -0.00391124  -0.00373664  0.32961940  1
  Cr  Cr3  1  0.99529832  0.32787928  -0.00456885  1
  Ni  Ni4  1  0.16399148  0.49754099  0.16361398  1
  Ni  Ni5  1  0.99458627  0.32959459  0.32963942  1
  Cr  Cr6  1  -0.00405150  0.66208513  -0.00303530  1
  Cr  Cr7  1  0.16424117  0.82691097  0.16333309  1
  Ni  Ni8  1  0.99525188  0.66017435  0.32826901  1
  Ni  Ni9  1  0.32996939  0.99171570  0.99389868  1
  Cr  Cr10  1  0.49559691  0.16138684  0.16447323  1
  Ni  Ni11  1  0.32729360  0.99435238  0.32973060  1
  Cr  Cr12  1  0.33000546  0.33193719  -0.00269449  1
  Ni  Ni13  1  0.49448376  0.49870733  0.16269695  1
  Cr  Cr14  1  0.32960740  0.33088407  0.32898205  1
  Ni  Ni15  1  0.33329009  0.66182880  -0.00444933  1
  Cr  Cr16  1  0.49456581  0.82744272  0.16242078  1
  Ni  Ni17  1  0.32987757  0.66081686  0.32690497  1
  Cr  Cr18  1  0.66216437  0.99369298  0.99398664  1
  Cr  Cr19  1  0.82774037  0.16305981  0.16500918  1
  Ni  Ni20  1  0.66258588  0.99509523  0.32824226  1
  Cr  Cr21  1  0.66069766  0.32993053  0.99504015  1
  Cr  Cr22  1  0.82789834  0.49615853  0.16475862  1
  Ni  Ni23  1  0.66302697  0.33210586  0.32954249  1
  Ni  Ni24  1  0.65585434  0.66115247  0.99394725  1
  Cr  Cr25  1  0.82728613  0.82693913  0.16546979  1
  Ni  Ni26  1  0.66101123  0.65897872  0.32963507  1
  Ni  Ni27  1  0.15982469  0.16015103  0.49562998  1
  Ni  Ni28  1  0.99473262  -0.00006681  0.66232271  1
  Cr  Cr29  1  0.16104633  0.16115287  0.82625945  1
  Cr  Cr30  1  0.15892819  0.49393843  0.49384545  1
  Ni  Ni31  1  0.99192896  0.32482942  0.66116099  1
  Cr  Cr32  1  0.16299979  0.49539478  0.83005852  1
  Cr  Cr33  1  0.16283652  0.83189476  0.49361670  1
  Cr  Cr34  1  0.99282293  0.66231717  0.66043296  1
  Cr  Cr35  1  0.16637200  0.82982625  0.82881094  1
  Cr  Cr36  1  0.49542249  0.16131451  0.49457401  1
  Ni  Ni37  1  0.32876045  -0.00431044  0.66237899  1
  Cr  Cr38  1  0.49657982  0.16042858  0.82736472  1
  Ni  Ni39  1  0.50096163  0.49634016  0.49430323  1
  Cr  Cr40  1  0.33006934  0.32915826  0.66001026  1
  Ni  Ni41  1  0.49802378  0.49955109  0.82908750  1
  Cr  Cr42  1  0.49592152  0.82859006  0.49464577  1
  Cr  Cr43  1  0.33311833  0.66201488  0.66254986  1
  Ni  Ni44  1  0.49555704  0.82684651  0.82898226  1
  Cr  Cr45  1  0.82912588  0.16471028  0.49557873  1
  Ni  Ni46  1  0.66248107  -0.00455614  0.66477712  1
  Ni  Ni47  1  0.82824461  0.16216734  0.82459549  1
  Ni  Ni48  1  0.82564566  0.49400050  0.49445044  1
  Ni  Ni49  1  0.66404973  0.33052981  0.66222681  1
  Cr  Cr50  1  0.82606035  0.49311449  0.82624424  1
  Cr  Cr51  1  0.82746521  0.82668104  0.49353661  1
  Ni  Ni52  1  0.65991405  0.66012993  0.66242908  1
  Cr  Cr53  1  0.82530761  0.82882413  0.82726620  1
" 