3236,Ni55Cr45_10,-217.402902995466, 128.848419209722,Ni55Cr45,"# generated using pymatgen
 data_Cr29Ni25
_symmetry_space_group_name_H-M   'P 1'
_cell_length_a   7.53609355
_cell_length_b   7.53609355
_cell_length_c   10.65764570
_cell_angle_alpha   90.00000000
_cell_angle_beta   90.00000000
_cell_angle_gamma   90.00000000
_symmetry_Int_Tables_number   1
_chemical_formula_structural   Cr29Ni25
_chemical_formula_sum   'Cr29 Ni25'
_cell_volume   605.27653853
_cell_formula_units_Z   1
loop_
 _symmetry_equiv_pos_site_id
 _symmetry_equiv_pos_as_xyz
  1  'x, y, z'
loop_
 _atom_site_type_symbol
 _atom_site_label
 _atom_site_symmetry_multiplicity
 _atom_site_fract_x
 _atom_site_fract_y
 _atom_site_fract_z
 _atom_site_occupancy
  Cr  Cr0  1  0.99481268  0.99499108  0.99385900  1
  Cr  Cr1  1  0.16299416  0.15963393  0.16334405  1
  Ni  Ni2  1  0.99536826  0.99462336  0.32738834  1
  Cr  Cr3  1  0.99316575  0.32885161  0.99468527  1
  Cr  Cr4  1  0.16211131  0.49566173  0.16595993  1
  Ni  Ni5  1  0.99238981  0.32551154  0.32547154  1
  Cr  Cr6  1  0.99503165  0.66282522  -0.00374263  1
  Ni  Ni7  1  0.16404127  0.83200514  0.16426896  1
  Cr  Cr8  1  0.99533179  0.66513357  0.32583864  1
  Ni  Ni9  1  0.32919033  0.99408813  -0.00315097  1
  Ni  Ni10  1  0.49709518  0.15478094  0.16222162  1
  Ni  Ni11  1  0.33073059  0.99151832  0.32880274  1
  Cr  Cr12  1  0.32883850  0.32590915  0.99189648  1
  Cr  Cr13  1  0.49378974  0.49698453  0.16171447  1
  Cr  Cr14  1  0.33177464  0.32467488  0.32987841  1
  Cr  Cr15  1  0.32646841  0.66514543  0.99491078  1
  Ni  Ni16  1  0.49453907  0.83452017  0.16304218  1
  Ni  Ni17  1  0.32902152  0.66974817  0.32889844  1
  Ni  Ni18  1  0.66178135  -0.00336474  -0.00018657  1
  Ni  Ni19  1  0.82748765  0.15838254  0.16415866  1
  Ni  Ni20  1  0.66044607  0.99525604  0.32687083  1
  Cr  Cr21  1  0.66425309  0.32610347  -0.00321671  1
  Ni  Ni22  1  0.82945462  0.49430222  0.16363219  1
  Cr  Cr23  1  0.66288770  0.32409582  0.32690005  1
  Cr  Cr24  1  0.66451577  0.66319102  -0.00240808  1
  Ni  Ni25  1  0.82769560  0.83326356  0.16296492  1
  Cr  Cr26  1  0.66097542  0.66669519  0.32691173  1
  Cr  Cr27  1  0.16012325  0.15937087  0.49273901  1
  Ni  Ni28  1  -0.00273455  -0.00432748  0.66419922  1
  Ni  Ni29  1  0.16006102  0.15927542  0.82893806  1
  Cr  Cr30  1  0.16158776  0.49617526  0.48997456  1
  Cr  Cr31  1  0.99534511  0.32696571  0.66537266  1
  Ni  Ni32  1  0.16197865  0.49545767  0.82883761  1
  Ni  Ni33  1  0.16348455  0.83197072  0.49274052  1
  Cr  Cr34  1  -0.00291806  0.66484062  0.66438623  1
  Ni  Ni35  1  0.16227205  0.83164459  0.82878487  1
  Ni  Ni36  1  0.49652000  0.15832004  0.49372061  1
  Cr  Cr37  1  0.32590957  0.99474129  0.66022769  1
  Cr  Cr38  1  0.49666891  0.16017270  0.83098912  1
  Cr  Cr39  1  0.49672980  0.49714538  0.49788563  1
  Cr  Cr40  1  0.33069780  0.32634005  0.66401866  1
  Ni  Ni41  1  0.49776081  0.49540411  0.82632489  1
  Ni  Ni42  1  0.49399822  0.83090009  0.49277640  1
  Cr  Cr43  1  0.32832474  0.66456772  0.66143455  1
  Cr  Cr44  1  0.49649015  0.82822883  0.83111179  1
  Cr  Cr45  1  0.82968228  0.16111230  0.49501355  1
  Cr  Cr46  1  0.66089096  -0.00252457  0.65972617  1
  Ni  Ni47  1  0.82941317  0.16286192  0.82769058  1
  Cr  Cr48  1  0.82846367  0.49476472  0.49636816  1
  Ni  Ni49  1  0.66248577  0.32929983  0.66434372  1
  Ni  Ni50  1  0.82656223  0.49386650  0.82670402  1
  Cr  Cr51  1  0.82888298  0.83059015  0.49732064  1
  Ni  Ni52  1  0.66093412  0.65991935  0.66325262  1
  Cr  Cr53  1  0.82681823  0.83100928  0.82682930  1
" 