3328,Ni55Fe36Cr7_14,-238.226128116435, 212.458520696556,Ni55Fe36Cr7,"# generated using pymatgen
 data_Cr5Fe19Ni30
_symmetry_space_group_name_H-M   'P 1'
_cell_length_a   7.41904491
_cell_length_b   7.41904491
_cell_length_c   10.49211393
_cell_angle_alpha   90.00000000
_cell_angle_beta   90.00000000
_cell_angle_gamma   90.00000000
_symmetry_Int_Tables_number   1
_chemical_formula_structural   Cr5Fe19Ni30
_chemical_formula_sum   'Cr5 Fe19 Ni30'
_cell_volume   577.50932103
_cell_formula_units_Z   1
loop_
 _symmetry_equiv_pos_site_id
 _symmetry_equiv_pos_as_xyz
  1  'x, y, z'
loop_
 _atom_site_type_symbol
 _atom_site_label
 _atom_site_symmetry_multiplicity
 _atom_site_fract_x
 _atom_site_fract_y
 _atom_site_fract_z
 _atom_site_occupancy
  Ni  Ni0  1  1.00171814  1.00237777  1.00264755  1
  Fe  Fe1  1  0.17086776  0.17221332  0.17073624  1
  Ni  Ni2  1  1.00175546  1.00316328  0.33736492  1
  Fe  Fe3  1  0.00431519  0.33623518  1.00252041  1
  Ni  Ni4  1  0.17020199  0.50165786  0.17074656  1
  Ni  Ni5  1  0.00642125  0.33569073  0.33562965  1
  Ni  Ni6  1  1.00279426  0.67081760  1.00155556  1
  Cr  Cr7  1  0.16888268  0.83654870  0.17083205  1
  Ni  Ni8  1  1.00308281  0.67084332  0.33698473  1
  Fe  Fe9  1  0.33592523  0.00427923  1.00219680  1
  Ni  Ni10  1  0.50336214  0.17130569  0.16996580  1
  Ni  Ni11  1  0.33739337  0.00586593  0.33783806  1
  Ni  Ni12  1  0.33736562  0.33729098  0.00355158  1
  Ni  Ni13  1  0.50232351  0.50065337  0.17081896  1
  Ni  Ni14  1  0.33646809  0.33673270  0.33612952  1
  Fe  Fe15  1  0.33572390  0.66815777  1.00141614  1
  Cr  Cr16  1  0.50339113  0.83751578  0.17046972  1
  Fe  Fe17  1  0.33619760  0.66897589  0.33783235  1
  Fe  Fe18  1  0.67102034  0.00395473  1.00223437  1
  Fe  Fe19  1  0.83651061  0.16864405  0.16973839  1
  Ni  Ni20  1  0.67055476  1.00252673  0.33666381  1
  Fe  Fe21  1  0.66950387  0.33603204  1.00191392  1
  Cr  Cr22  1  0.83741243  0.50287748  0.16949111  1
  Fe  Fe23  1  0.66845909  0.33461140  0.33662047  1
  Fe  Fe24  1  0.66998381  0.66971767  1.00180683  1
  Fe  Fe25  1  0.83649571  0.83742304  0.17033497  1
  Ni  Ni26  1  0.66952114  0.67177589  0.33697845  1
  Ni  Ni27  1  0.17139777  0.16835387  0.50187099  1
  Ni  Ni28  1  1.00209955  1.00025982  0.66968915  1
  Fe  Fe29  1  0.17018004  0.16918498  0.83696604  1
  Fe  Fe30  1  0.17215419  0.50410624  0.50224652  1
  Cr  Cr31  1  0.00481489  0.33634058  0.67170784  1
  Ni  Ni32  1  0.16973305  0.50422866  0.83734367  1
  Ni  Ni33  1  0.16980118  0.83769842  0.50321418  1
  Ni  Ni34  1  0.00385622  0.67297121  0.67117102  1
  Ni  Ni35  1  0.16980789  0.83657877  0.83607027  1
  Ni  Ni36  1  0.50246311  0.16937641  0.50333862  1
  Fe  Fe37  1  0.33644818  0.00335646  0.66894642  1
  Fe  Fe38  1  0.50369730  0.17042351  0.83621297  1
  Fe  Fe39  1  0.50145870  0.50319297  0.50326739  1
  Ni  Ni40  1  0.33901301  0.33722872  0.67002699  1
  Ni  Ni41  1  0.50377281  0.50285790  0.83650405  1
  Ni  Ni42  1  0.50273312  0.83800321  0.50273415  1
  Fe  Fe43  1  0.33646521  0.67013533  0.67047149  1
  Ni  Ni44  1  0.50261814  0.83687024  0.83657707  1
  Fe  Fe45  1  0.83588289  0.16613857  0.50302473  1
  Ni  Ni46  1  0.67013672  1.00280499  0.67015291  1
  Ni  Ni47  1  0.83590853  0.17006186  0.83664656  1
  Cr  Cr48  1  0.83626783  0.50349673  0.50325605  1
  Ni  Ni49  1  0.66600160  0.33546669  0.67082174  1
  Ni  Ni50  1  0.83620136  0.50302933  0.83750001  1
  Ni  Ni51  1  0.83716643  0.83730557  0.50251464  1
  Fe  Fe52  1  0.66969146  0.67072515  0.67058423  1
  Ni  Ni53  1  0.83727233  0.83661106  0.83681677  1
" 