8426,Ni55Fe5Cr38_10,-223.347861491393, 144.198477163,Ni55Fe5Cr38,"# generated using pymatgen
 data_Cr22Fe3Ni29
_symmetry_space_group_name_H-M   'P 1'
_cell_length_a   7.50450137
_cell_length_b   7.50450137
_cell_length_c   10.61296762
_cell_angle_alpha   90.00000000
_cell_angle_beta   90.00000000
_cell_angle_gamma   90.00000000
_symmetry_Int_Tables_number   1
_chemical_formula_structural   Cr22Fe3Ni29
_chemical_formula_sum   'Cr22 Fe3 Ni29'
_cell_volume   597.69623711
_cell_formula_units_Z   1
loop_
 _symmetry_equiv_pos_site_id
 _symmetry_equiv_pos_as_xyz
  1  'x, y, z'
loop_
 _atom_site_type_symbol
 _atom_site_label
 _atom_site_symmetry_multiplicity
 _atom_site_fract_x
 _atom_site_fract_y
 _atom_site_fract_z
 _atom_site_occupancy
  Ni  Ni0  1  0.99585291  0.99744688  0.99631092  1
  Cr  Cr1  1  0.16198286  0.16743244  0.16371103  1
  Ni  Ni2  1  0.99465543  -0.00146807  0.33050214  1
  Ni  Ni3  1  -0.00038685  0.33121484  -0.00193517  1
  Ni  Ni4  1  0.16382314  0.49553981  0.16454004  1
  Ni  Ni5  1  0.99726107  0.33245372  0.33164976  1
  Cr  Cr6  1  0.99625990  0.66402765  -0.00198924  1
  Cr  Cr7  1  0.16317185  0.83010701  0.16508294  1
  Cr  Cr8  1  0.99566854  0.66190631  0.32960391  1
  Cr  Cr9  1  0.33111530  -0.00159064  0.99427652  1
  Cr  Cr10  1  0.49892130  0.16587801  0.16359650  1
  Cr  Cr11  1  0.33175200  -0.00081672  0.33131961  1
  Ni  Ni12  1  0.33003117  0.33292641  0.99473453  1
  Cr  Cr13  1  0.49735848  0.49794985  0.16350329  1
  Ni  Ni14  1  0.33096781  0.33316177  0.33268639  1
  Ni  Ni15  1  0.33179257  0.66127450  0.99539243  1
  Cr  Cr16  1  0.50081861  0.82861833  0.16508776  1
  Fe  Fe17  1  0.33161708  0.65964551  0.33171534  1
  Ni  Ni18  1  0.66548982  0.99565532  0.99566044  1
  Cr  Cr19  1  0.83157879  0.16410627  0.16410282  1
  Ni  Ni20  1  0.66590116  -0.00197452  0.33211656  1
  Ni  Ni21  1  0.66286329  0.33190028  0.99672073  1
  Ni  Ni22  1  0.83106790  0.49773480  0.16424435  1
  Ni  Ni23  1  0.66427135  0.33211479  0.33396319  1
  Ni  Ni24  1  0.66369513  0.66499899  0.99708715  1
  Ni  Ni25  1  0.82921439  0.83113232  0.16402850  1
  Ni  Ni26  1  0.66521714  0.66242943  0.33041393  1
  Cr  Cr27  1  0.16296102  0.16612641  0.49467952  1
  Cr  Cr28  1  0.99663065  0.99555919  0.66581195  1
  Ni  Ni29  1  0.16501512  0.16544592  0.83392749  1
  Ni  Ni30  1  0.16468707  0.49733551  0.49681036  1
  Cr  Cr31  1  -0.00195381  0.33419094  0.66258297  1
  Ni  Ni32  1  0.16722162  0.49766006  0.83112182  1
  Cr  Cr33  1  0.16425474  0.82796309  0.49837253  1
  Ni  Ni34  1  0.00001889  0.66357854  0.66476963  1
  Fe  Fe35  1  0.16490120  0.82883789  0.83075585  1
  Ni  Ni36  1  0.50057601  0.16597354  0.49609973  1
  Cr  Cr37  1  0.33365603  -0.00212287  0.66705016  1
  Ni  Ni38  1  0.49692967  0.16328340  0.83223605  1
  Ni  Ni39  1  0.49690544  0.49596407  0.49506733  1
  Cr  Cr40  1  0.33235407  0.33192647  0.66522284  1
  Ni  Ni41  1  0.49383729  0.49904647  0.83328144  1
  Cr  Cr42  1  0.49826173  0.82978386  0.49632561  1
  Ni  Ni43  1  0.32881298  0.66274673  0.66503701  1
  Ni  Ni44  1  0.49882852  0.83016348  0.83130694  1
  Fe  Fe45  1  0.82827449  0.16576532  0.49483740  1
  Ni  Ni46  1  0.66280061  -0.00239589  0.66474045  1
  Cr  Cr47  1  0.83072984  0.16223743  0.83261158  1
  Ni  Ni48  1  0.83094221  0.49601397  0.49576457  1
  Cr  Cr49  1  0.66198306  0.32957868  0.66170858  1
  Cr  Cr50  1  0.83088498  0.49869108  0.83233516  1
  Cr  Cr51  1  0.83009332  0.83171275  0.49764030  1
  Cr  Cr52  1  0.66445939  0.66395230  0.66526161  1
  Ni  Ni53  1  0.82921905  0.83242373  0.83176205  1
" 