5802,Ni55Fe5Cr38_8,-223.516590228331, 149.608302651016,Ni55Fe5Cr38,"# generated using pymatgen
 data_Cr22Fe3Ni29
_symmetry_space_group_name_H-M   'P 1'
_cell_length_a   7.49596988
_cell_length_b   7.49596988
_cell_length_c   10.60090226
_cell_angle_alpha   90.00000000
_cell_angle_beta   90.00000000
_cell_angle_gamma   90.00000000
_symmetry_Int_Tables_number   1
_chemical_formula_structural   Cr22Fe3Ni29
_chemical_formula_sum   'Cr22 Fe3 Ni29'
_cell_volume   595.66008017
_cell_formula_units_Z   1
loop_
 _symmetry_equiv_pos_site_id
 _symmetry_equiv_pos_as_xyz
  1  'x, y, z'
loop_
 _atom_site_type_symbol
 _atom_site_label
 _atom_site_symmetry_multiplicity
 _atom_site_fract_x
 _atom_site_fract_y
 _atom_site_fract_z
 _atom_site_occupancy
  Ni  Ni0  1  -0.00165287  0.00002574  -0.00172421  1
  Ni  Ni1  1  0.16526737  0.16635213  0.16358438  1
  Cr  Cr2  1  0.99779238  0.99782041  0.32980437  1
  Cr  Cr3  1  -0.00035471  0.33027357  0.99732241  1
  Ni  Ni4  1  0.16461862  0.49515802  0.16616150  1
  Cr  Cr5  1  -0.00176816  0.33239524  0.33073675  1
  Cr  Cr6  1  -0.00094411  0.66457983  -0.00060601  1
  Cr  Cr7  1  0.16519717  0.83335667  0.16492018  1
  Ni  Ni8  1  -0.00122434  0.66311244  0.33131260  1
  Ni  Ni9  1  0.33134676  -0.00019494  0.99637794  1
  Cr  Cr10  1  0.49523559  0.16461137  0.16356061  1
  Ni  Ni11  1  0.33092264  -0.00037918  0.33174317  1
  Ni  Ni12  1  0.33116983  0.33001206  0.99699687  1
  Cr  Cr13  1  0.49683797  0.49665252  0.16229153  1
  Ni  Ni14  1  0.33031625  0.33093121  0.33179969  1
  Cr  Cr15  1  0.33185703  0.66431337  0.99496164  1
  Ni  Ni16  1  0.50047228  0.83300566  0.16246640  1
  Cr  Cr17  1  0.32956375  0.66382538  0.33246961  1
  Ni  Ni18  1  0.66469913  -0.00120012  0.99802923  1
  Ni  Ni19  1  0.83185088  0.16267045  0.16154614  1
  Cr  Cr20  1  0.66403758  -0.00000024  0.33181057  1
  Ni  Ni21  1  0.66463708  0.33055766  0.99562549  1
  Fe  Fe22  1  0.83150238  0.49763126  0.16348341  1
  Cr  Cr23  1  0.66428934  0.33034138  0.33398564  1
  Ni  Ni24  1  0.66467944  0.66474855  0.99794263  1
  Ni  Ni25  1  0.83013372  0.83167283  0.16305800  1
  Cr  Cr26  1  0.66604604  0.66394493  0.32990998  1
  Cr  Cr27  1  0.16643364  0.16486827  0.49723972  1
  Cr  Cr28  1  -0.00003120  0.00099920  0.66639330  1
  Ni  Ni29  1  0.16599790  0.16484300  0.83329059  1
  Ni  Ni30  1  0.16483017  0.49897707  0.49770398  1
  Fe  Fe31  1  -0.00096853  0.33188007  0.66613837  1
  Ni  Ni32  1  0.16586104  0.49566818  0.83043733  1
  Ni  Ni33  1  0.16619168  0.82978478  0.49882729  1
  Cr  Cr34  1  0.00164147  0.66208453  0.66483629  1
  Fe  Fe35  1  0.16693330  0.83323346  0.83125508  1
  Ni  Ni36  1  0.49579987  0.16619141  0.49712137  1
  Ni  Ni37  1  0.33075298  0.99728679  0.66632450  1
  Ni  Ni38  1  0.49683750  0.16402847  0.83390688  1
  Ni  Ni39  1  0.49565186  0.49641246  0.49831740  1
  Cr  Cr40  1  0.33280987  0.33225578  0.66585757  1
  Ni  Ni41  1  0.49753816  0.49783412  0.83303753  1
  Cr  Cr42  1  0.49508720  0.83231706  0.49870009  1
  Ni  Ni43  1  0.32986457  0.66488546  0.66573773  1
  Ni  Ni44  1  0.49647792  0.83234840  0.83249753  1
  Ni  Ni45  1  0.83200901  0.16785133  0.49960478  1
  Cr  Cr46  1  0.66209602  0.00235427  0.66422535  1
  Ni  Ni47  1  0.83176030  0.16608250  0.83282689  1
  Ni  Ni48  1  0.83377889  0.49661984  0.49779204  1
  Cr  Cr49  1  0.66582263  0.33076177  0.66421641  1
  Ni  Ni50  1  0.83098015  0.49609170  0.83287760  1
  Cr  Cr51  1  0.83421786  0.83059382  0.49741377  1
  Cr  Cr52  1  0.66132236  0.66131489  0.66570417  1
  Cr  Cr53  1  0.82959823  0.83203701  0.83396977  1
" 