667,Ni55Fe36Cr7_15,-239.577376517451, 214.719983111799,Ni55Fe36Cr7,"# generated using pymatgen
 data_Cr5Fe19Ni30
_symmetry_space_group_name_H-M   'P 1'
_cell_length_a   7.42646111
_cell_length_b   7.42646111
_cell_length_c   10.50260203
_cell_angle_alpha   90.00000000
_cell_angle_beta   90.00000000
_cell_angle_gamma   90.00000000
_symmetry_Int_Tables_number   1
_chemical_formula_structural   Cr5Fe19Ni30
_chemical_formula_sum   'Cr5 Fe19 Ni30'
_cell_volume   579.24291698
_cell_formula_units_Z   1
loop_
 _symmetry_equiv_pos_site_id
 _symmetry_equiv_pos_as_xyz
  1  'x, y, z'
loop_
 _atom_site_type_symbol
 _atom_site_label
 _atom_site_symmetry_multiplicity
 _atom_site_fract_x
 _atom_site_fract_y
 _atom_site_fract_z
 _atom_site_occupancy
  Ni  Ni0  1  1.00208063  0.00340628  1.00241745  1
  Ni  Ni1  1  0.17134099  0.16973400  0.16809755  1
  Cr  Cr2  1  0.00446469  1.00251577  0.33637652  1
  Fe  Fe3  1  0.00415199  0.33860721  0.00396808  1
  Fe  Fe4  1  0.16902691  0.50388180  0.16919106  1
  Fe  Fe5  1  0.00405305  0.33765629  0.33592983  1
  Ni  Ni6  1  0.00324406  0.67126609  0.00444993  1
  Ni  Ni7  1  0.16831810  0.83655844  0.16823715  1
  Fe  Fe8  1  0.00354497  0.66860547  0.33519405  1
  Ni  Ni9  1  0.33290572  1.00205860  0.00449285  1
  Fe  Fe10  1  0.50177658  0.16976407  0.16852791  1
  Fe  Fe11  1  0.33563966  1.00130004  0.33531666  1
  Ni  Ni12  1  0.33623601  0.33732888  0.00413854  1
  Ni  Ni13  1  0.50334482  0.50148725  0.16831063  1
  Ni  Ni14  1  0.33544750  0.33676318  0.33512021  1
  Ni  Ni15  1  0.33565435  0.66791012  0.00345339  1
  Fe  Fe16  1  0.50165681  0.83209855  0.16841492  1
  Ni  Ni17  1  0.33588782  0.66669686  0.33475534  1
  Fe  Fe18  1  0.66895595  1.00035882  0.00351647  1
  Fe  Fe19  1  0.83821756  0.17127914  0.16781143  1
  Cr  Cr20  1  0.67091569  1.00207389  0.33475854  1
  Ni  Ni21  1  0.66977766  0.33671838  0.00485513  1
  Ni  Ni22  1  0.83375234  0.50534019  0.16974758  1
  Fe  Fe23  1  0.66836406  0.33853516  0.33598084  1
  Ni  Ni24  1  0.66921285  0.66762044  1.00170837  1
  Ni  Ni25  1  0.83632040  0.83392863  0.16767668  1
  Ni  Ni26  1  0.66835221  0.66842413  0.33753260  1
  Ni  Ni27  1  0.17100568  0.17008408  0.50516319  1
  Ni  Ni28  1  0.00394190  0.00302040  0.66999386  1
  Fe  Fe29  1  0.16777311  0.17023626  0.83697418  1
  Ni  Ni30  1  0.17134665  0.50335183  0.50120214  1
  Fe  Fe31  1  0.00452387  0.33901380  0.66892231  1
  Ni  Ni32  1  0.17007950  0.50310876  0.83797497  1
  Ni  Ni33  1  0.16847113  0.83484546  0.50382063  1
  Ni  Ni34  1  0.00359585  0.67072338  0.66847212  1
  Fe  Fe35  1  0.16968001  0.83430226  0.83682645  1
  Ni  Ni36  1  0.50001860  0.17143341  0.50021864  1
  Fe  Fe37  1  0.33523834  1.00099207  0.66923978  1
  Cr  Cr38  1  0.50027264  0.17092280  0.83817371  1
  Ni  Ni39  1  0.50142384  0.50291968  0.50266302  1
  Ni  Ni40  1  0.33397445  0.33771645  0.66906105  1
  Ni  Ni41  1  0.50160830  0.50264928  0.83697000  1
  Fe  Fe42  1  0.49982589  0.83403613  0.50233848  1
  Ni  Ni43  1  0.33521727  0.66593945  0.66983604  1
  Fe  Fe44  1  0.50172281  0.83255638  0.83722391  1
  Ni  Ni45  1  0.83746494  0.16957727  0.50260619  1
  Cr  Cr46  1  0.67162491  1.00103286  0.66828036  1
  Fe  Fe47  1  0.83808751  0.17151909  0.83690698  1
  Fe  Fe48  1  0.83841424  0.50368170  0.50074445  1
  Cr  Cr49  1  0.66794790  0.33898799  0.66670906  1
  Fe  Fe50  1  0.83655403  0.50510473  0.83780685  1
  Ni  Ni51  1  0.83738797  0.83363398  0.50295491  1
  Ni  Ni52  1  0.66944922  0.66899936  0.66921227  1
  Ni  Ni53  1  0.83826426  0.83525169  0.83728294  1
" 