5201,Ni55Fe36Cr7_16,-238.352268448803, 213.239030035206,Ni55Fe36Cr7,"# generated using pymatgen
 data_Cr5Fe19Ni30
_symmetry_space_group_name_H-M   'P 1'
_cell_length_a   7.42302480
_cell_length_b   7.42302480
_cell_length_c   10.49774235
_cell_angle_alpha   90.00000000
_cell_angle_beta   90.00000000
_cell_angle_gamma   90.00000000
_symmetry_Int_Tables_number   1
_chemical_formula_structural   Cr5Fe19Ni30
_chemical_formula_sum   'Cr5 Fe19 Ni30'
_cell_volume   578.43922168
_cell_formula_units_Z   1
loop_
 _symmetry_equiv_pos_site_id
 _symmetry_equiv_pos_as_xyz
  1  'x, y, z'
loop_
 _atom_site_type_symbol
 _atom_site_label
 _atom_site_symmetry_multiplicity
 _atom_site_fract_x
 _atom_site_fract_y
 _atom_site_fract_z
 _atom_site_occupancy
  Ni  Ni0  1  0.00412518  0.00320616  0.00351820  1
  Fe  Fe1  1  0.16931283  0.16959717  0.16915941  1
  Fe  Fe2  1  0.00309442  0.00383964  0.33507996  1
  Ni  Ni3  1  0.00310398  0.33570020  1.00261977  1
  Ni  Ni4  1  0.17130431  0.50196743  0.16896037  1
  Ni  Ni5  1  1.00253663  0.33531299  0.33577219  1
  Ni  Ni6  1  0.00446668  0.66999235  1.00259085  1
  Fe  Fe7  1  0.17056394  0.83643701  0.16878364  1
  Cr  Cr8  1  1.00191268  0.66905286  0.33632279  1
  Fe  Fe9  1  0.33475221  0.00330120  1.00257847  1
  Fe  Fe10  1  0.50281630  0.17083742  0.17000080  1
  Ni  Ni11  1  0.33681390  0.00298714  0.33615135  1
  Ni  Ni12  1  0.33631304  0.33629260  0.00364322  1
  Ni  Ni13  1  0.50055013  0.50357971  0.17087588  1
  Fe  Fe14  1  0.33621209  0.33751465  0.33616330  1
  Ni  Ni15  1  0.33475284  0.66919889  1.00264957  1
  Ni  Ni16  1  0.50208810  0.83529225  0.17135713  1
  Ni  Ni17  1  0.33889527  0.67078292  0.33691932  1
  Cr  Cr18  1  0.66991635  0.00453632  1.00245724  1
  Ni  Ni19  1  0.83754187  0.16959494  0.17005604  1
  Fe  Fe20  1  0.66860409  1.00154915  0.33498327  1
  Ni  Ni21  1  0.66947677  0.33594862  1.00249282  1
  Fe  Fe22  1  0.83566063  0.50147910  0.17031005  1
  Ni  Ni23  1  0.66956353  0.33740445  0.33524030  1
  Cr  Cr24  1  0.66978251  0.66811243  0.00345559  1
  Ni  Ni25  1  0.83592963  0.83868933  0.17155173  1
  Ni  Ni26  1  0.66819172  0.66923753  0.33610949  1
  Fe  Fe27  1  0.17123161  0.16967574  0.50354967  1
  Ni  Ni28  1  0.00392222  1.00210318  0.67000990  1
  Ni  Ni29  1  0.16902972  0.17119137  0.83618769  1
  Ni  Ni30  1  0.17029921  0.50246984  0.50382144  1
  Fe  Fe31  1  0.00518093  0.33748644  0.67023840  1
  Ni  Ni32  1  0.16985205  0.50273936  0.83610959  1
  Fe  Fe33  1  0.17059988  0.83638122  0.50413013  1
  Ni  Ni34  1  0.00345933  0.67040567  0.66967294  1
  Fe  Fe35  1  0.16929580  0.83706991  0.83598232  1
  Fe  Fe36  1  0.50114988  0.17013793  0.50349174  1
  Ni  Ni37  1  0.33587262  0.00410887  0.67045719  1
  Ni  Ni38  1  0.50294962  0.16935854  0.83540669  1
  Fe  Fe39  1  0.50245944  0.50271920  0.50151456  1
  Ni  Ni40  1  0.33659568  0.33508531  0.66858335  1
  Fe  Fe41  1  0.50102147  0.50071467  0.83704545  1
  Ni  Ni42  1  0.50177740  0.83672263  0.50172022  1
  Ni  Ni43  1  0.33503483  0.66970304  0.66932924  1
  Ni  Ni44  1  0.50134468  0.83735881  0.83582012  1
  Cr  Cr45  1  0.83666087  0.16962920  0.50368890  1
  Fe  Fe46  1  0.66819081  1.00285215  0.67125271  1
  Ni  Ni47  1  0.83691600  0.16957756  0.83555427  1
  Ni  Ni48  1  0.83790826  0.50222502  0.50240256  1
  Fe  Fe49  1  0.66870680  0.33526163  0.67048521  1
  Fe  Fe50  1  0.83795473  0.50108822  0.83611680  1
  Fe  Fe51  1  0.83663425  0.83507370  0.50330304  1
  Cr  Cr52  1  0.67031975  0.66935415  0.66980525  1
  Ni  Ni53  1  0.83747604  0.83818771  0.83464338  1
" 