8194,Ni55Fe5Cr38_18,-223.587067925338, 150.151047087228,Ni55Fe5Cr38,"# generated using pymatgen
 data_Cr22Fe3Ni29
_symmetry_space_group_name_H-M   'P 1'
_cell_length_a   7.49839320
_cell_length_b   7.49839320
_cell_length_c   10.60432936
_cell_angle_alpha   90.00000000
_cell_angle_beta   90.00000000
_cell_angle_gamma   90.00000000
_symmetry_Int_Tables_number   1
_chemical_formula_structural   Cr22Fe3Ni29
_chemical_formula_sum   'Cr22 Fe3 Ni29'
_cell_volume   596.23796844
_cell_formula_units_Z   1
loop_
 _symmetry_equiv_pos_site_id
 _symmetry_equiv_pos_as_xyz
  1  'x, y, z'
loop_
 _atom_site_type_symbol
 _atom_site_label
 _atom_site_symmetry_multiplicity
 _atom_site_fract_x
 _atom_site_fract_y
 _atom_site_fract_z
 _atom_site_occupancy
  Ni  Ni0  1  0.99675729  0.99728819  0.99651484  1
  Ni  Ni1  1  0.16107160  0.16374151  0.16377192  1
  Ni  Ni2  1  0.99507701  -0.00011174  0.33172404  1
  Cr  Cr3  1  -0.00178252  0.32965465  0.99694493  1
  Cr  Cr4  1  0.16140682  0.49805750  0.16402979  1
  Ni  Ni5  1  0.99668441  0.32941847  0.33155281  1
  Ni  Ni6  1  0.99686876  0.66708988  0.99661674  1
  Cr  Cr7  1  0.16047505  0.83455220  0.16381576  1
  Ni  Ni8  1  0.99543386  0.66455603  0.33184671  1
  Ni  Ni9  1  0.32748171  -0.00157444  0.99655427  1
  Cr  Cr10  1  0.49833117  0.16604187  0.16108757  1
  Cr  Cr11  1  0.32961361  -0.00009627  0.33209040  1
  Ni  Ni12  1  0.32963140  0.33143144  0.99732712  1
  Ni  Ni13  1  0.50086793  0.49586636  0.16093305  1
  Cr  Cr14  1  0.32933825  0.33105670  0.33239936  1
  Ni  Ni15  1  0.32977493  0.66378439  0.99674500  1
  Cr  Cr16  1  0.49695191  0.83134171  0.15947253  1
  Cr  Cr17  1  0.33045394  0.66308528  0.33012041  1
  Ni  Ni18  1  0.66962567  0.99686161  0.99748658  1
  Ni  Ni19  1  0.83343770  0.16477493  0.16429402  1
  Cr  Cr20  1  0.66767178  0.99783602  0.33202138  1
  Ni  Ni21  1  0.66660893  0.33111989  -0.00022830  1
  Ni  Ni22  1  0.83031528  0.49743226  0.16489000  1
  Ni  Ni23  1  0.66793351  0.32975598  0.33051207  1
  Ni  Ni24  1  0.66731102  0.66555398  -0.00038901  1
  Ni  Ni25  1  0.83461223  0.83134762  0.16254317  1
  Cr  Cr26  1  0.66622155  0.66616855  0.32828807  1
  Ni  Ni27  1  0.16146589  0.16404641  0.49761717  1
  Fe  Fe28  1  -0.00107787  0.99735881  0.66585935  1
  Ni  Ni29  1  0.16397321  0.16001194  0.83258619  1
  Ni  Ni30  1  0.16185709  0.49792213  0.49904069  1
  Cr  Cr31  1  -0.00066735  0.32863331  0.66653904  1
  Fe  Fe32  1  0.16443046  0.50045052  0.83237646  1
  Cr  Cr33  1  0.16132449  0.83134415  0.49747333  1
  Fe  Fe34  1  -0.00155855  0.66680775  0.66578927  1
  Ni  Ni35  1  0.16285464  0.83235345  0.83140990  1
  Ni  Ni36  1  0.49772288  0.16494851  0.49855828  1
  Ni  Ni37  1  0.32765888  0.99764306  0.66429728  1
  Cr  Cr38  1  0.49812700  0.16402685  0.83439639  1
  Cr  Cr39  1  0.49963902  0.49752463  0.49894908  1
  Cr  Cr40  1  0.32703311  0.33034665  0.66470401  1
  Cr  Cr41  1  0.49918720  0.49831315  0.83292336  1
  Cr  Cr42  1  0.49715180  0.83198831  0.50079985  1
  Ni  Ni43  1  0.32789862  0.66585120  0.66581234  1
  Cr  Cr44  1  0.49679414  0.83111478  0.83253090  1
  Ni  Ni45  1  0.83432181  0.16359398  0.49642259  1
  Cr  Cr46  1  0.66849546  0.99738709  0.66399634  1
  Ni  Ni47  1  0.83405250  0.16166370  0.83342030  1
  Cr  Cr48  1  0.83404935  0.49823325  0.49681275  1
  Cr  Cr49  1  0.66741636  0.32853445  0.66385906  1
  Cr  Cr50  1  0.83010573  0.49933801  0.83204293  1
  Ni  Ni51  1  0.83514077  0.83212367  0.49926006  1
  Ni  Ni52  1  0.66673620  0.66803676  0.66471888  1
  Ni  Ni53  1  0.83482404  0.83150061  0.83197067  1
" 