5884,Ni55Cr45_1,-217.701819733701, 139.156396482833,Ni55Cr45,"# generated using pymatgen
 data_Cr29Ni25
_symmetry_space_group_name_H-M   'P 1'
_cell_length_a   7.52826297
_cell_length_b   7.52826297
_cell_length_c   10.64657160
_cell_angle_alpha   90.00000000
_cell_angle_beta   90.00000000
_cell_angle_gamma   90.00000000
_symmetry_Int_Tables_number   1
_chemical_formula_structural   Cr29Ni25
_chemical_formula_sum   'Cr29 Ni25'
_cell_volume   603.39171306
_cell_formula_units_Z   1
loop_
 _symmetry_equiv_pos_site_id
 _symmetry_equiv_pos_as_xyz
  1  'x, y, z'
loop_
 _atom_site_type_symbol
 _atom_site_label
 _atom_site_symmetry_multiplicity
 _atom_site_fract_x
 _atom_site_fract_y
 _atom_site_fract_z
 _atom_site_occupancy
  Cr  Cr0  1  0.99352427  0.99546060  0.99411979  1
  Cr  Cr1  1  0.16257210  0.16074820  0.16536242  1
  Ni  Ni2  1  -0.00386875  0.99446287  0.33051910  1
  Cr  Cr3  1  -0.00308002  0.33228477  -0.00352264  1
  Ni  Ni4  1  0.16045407  0.49565378  0.16246577  1
  Cr  Cr5  1  -0.00266250  0.33213093  0.32744576  1
  Ni  Ni6  1  0.99359104  0.65969767  0.99554031  1
  Cr  Cr7  1  0.16345013  0.83042102  0.16403793  1
  Cr  Cr8  1  0.99555827  0.66185214  0.33095239  1
  Cr  Cr9  1  0.33173168  -0.00300149  0.99547566  1
  Ni  Ni10  1  0.49636934  0.16225089  0.16404430  1
  Ni  Ni11  1  0.33071383  -0.00272008  0.32951373  1
  Cr  Cr12  1  0.32836237  0.33035323  -0.00399717  1
  Cr  Cr13  1  0.49891906  0.49712671  0.16235317  1
  Ni  Ni14  1  0.32927384  0.32753940  0.32902330  1
  Cr  Cr15  1  0.32695042  0.66040534  -0.00324831  1
  Ni  Ni16  1  0.49723222  0.83020746  0.16335694  1
  Cr  Cr17  1  0.32821233  0.66025171  0.32953385  1
  Cr  Cr18  1  0.66272838  -0.00402486  -0.00295413  1
  Ni  Ni19  1  0.82753872  0.16486113  0.16245303  1
  Cr  Cr20  1  0.66299198  0.99497438  0.32905783  1
  Ni  Ni21  1  0.66380980  0.33010408  -0.00070330  1
  Ni  Ni22  1  0.82870611  0.49600252  0.16010486  1
  Cr  Cr23  1  0.66110144  0.32855959  0.32780662  1
  Ni  Ni24  1  0.66587997  0.66204873  -0.00262290  1
  Cr  Cr25  1  0.82970439  0.82683358  0.16227964  1
  Ni  Ni26  1  0.66374583  0.66423936  0.32787484  1
  Cr  Cr27  1  0.16409900  0.16029501  0.49430480  1
  Cr  Cr28  1  0.99533556  0.99368158  0.66294733  1
  Ni  Ni29  1  0.16232685  0.16440710  0.82684130  1
  Ni  Ni30  1  0.16260805  0.49775618  0.49837702  1
  Ni  Ni31  1  -0.00242399  0.33315096  0.66400116  1
  Ni  Ni32  1  0.15979876  0.49681397  0.82695600  1
  Ni  Ni33  1  0.16176738  0.82893880  0.49687745  1
  Ni  Ni34  1  -0.00285264  0.66147979  0.66202361  1
  Cr  Cr35  1  0.16119484  0.82884521  0.82813873  1
  Ni  Ni36  1  0.49307657  0.16250619  0.49586892  1
  Ni  Ni37  1  0.32825072  0.99488683  0.66144636  1
  Cr  Cr38  1  0.49512503  0.16453858  0.82754897  1
  Cr  Cr39  1  0.49689354  0.49505974  0.49791331  1
  Cr  Cr40  1  0.32691919  0.33063352  0.66251147  1
  Cr  Cr41  1  0.49905974  0.49742064  0.82770167  1
  Cr  Cr42  1  0.49384676  0.82839387  0.49633301  1
  Ni  Ni43  1  0.32559468  0.66320622  0.66184975  1
  Cr  Cr44  1  0.49696083  0.82564179  0.82847830  1
  Cr  Cr45  1  0.83024340  0.16358165  0.49660434  1
  Cr  Cr46  1  0.66230205  0.99490619  0.66170945  1
  Cr  Cr47  1  0.83057891  0.16584539  0.82860088  1
  Cr  Cr48  1  0.82827612  0.49789673  0.49912981  1
  Ni  Ni49  1  0.66326253  0.32986037  0.66166776  1
  Cr  Cr50  1  0.82798283  0.49776673  0.82848493  1
  Ni  Ni51  1  0.83174959  0.82656476  0.49632656  1
  Ni  Ni52  1  0.66512590  0.66361056  0.66254817  1
  Ni  Ni53  1  0.82983956  0.82404002  0.82898819  1
" 