735,Ni55Cr45_12,-217.375240687974, 126.500629330371,Ni55Cr45,"# generated using pymatgen
 data_Cr29Ni25
_symmetry_space_group_name_H-M   'P 1'
_cell_length_a   7.53597201
_cell_length_b   7.53597201
_cell_length_c   10.65747382
_cell_angle_alpha   90.00000000
_cell_angle_beta   90.00000000
_cell_angle_gamma   90.00000000
_symmetry_Int_Tables_number   1
_chemical_formula_structural   Cr29Ni25
_chemical_formula_sum   'Cr29 Ni25'
_cell_volume   605.24725363
_cell_formula_units_Z   1
loop_
 _symmetry_equiv_pos_site_id
 _symmetry_equiv_pos_as_xyz
  1  'x, y, z'
loop_
 _atom_site_type_symbol
 _atom_site_label
 _atom_site_symmetry_multiplicity
 _atom_site_fract_x
 _atom_site_fract_y
 _atom_site_fract_z
 _atom_site_occupancy
  Cr  Cr0  1  -0.00206969  -0.00223143  0.99432983  1
  Cr  Cr1  1  0.16542541  0.16264459  0.15979992  1
  Ni  Ni2  1  -0.00303645  -0.00346426  0.33201267  1
  Ni  Ni3  1  0.99514991  0.32872855  0.99305187  1
  Cr  Cr4  1  0.16406330  0.49344480  0.16265978  1
  Cr  Cr5  1  -0.00362111  0.32697643  0.33130415  1
  Cr  Cr6  1  0.99306251  0.65987884  0.99539889  1
  Cr  Cr7  1  0.16323394  0.83032655  0.16397708  1
  Cr  Cr8  1  -0.00146854  0.66245882  0.33001163  1
  Ni  Ni9  1  0.33018003  -0.00106960  0.99462545  1
  Ni  Ni10  1  0.49328742  0.16214071  0.16239769  1
  Ni  Ni11  1  0.32776352  -0.00339437  0.32879278  1
  Ni  Ni12  1  0.33024302  0.32598549  0.99463589  1
  Cr  Cr13  1  0.49363941  0.49235692  0.16214321  1
  Ni  Ni14  1  0.32749613  0.32701509  0.32963584  1
  Cr  Cr15  1  0.33161561  0.66345433  0.99309067  1
  Cr  Cr16  1  0.49434457  0.83106402  0.16346368  1
  Ni  Ni17  1  0.32648668  0.66266055  0.33118054  1
  Cr  Cr18  1  0.65819339  -0.00388967  -0.00358558  1
  Cr  Cr19  1  0.82770937  0.16185687  0.16264571  1
  Ni  Ni20  1  0.66160210  -0.00242493  0.32871436  1
  Ni  Ni21  1  0.66081831  0.33148716  0.99479860  1
  Cr  Cr22  1  0.82838250  0.49468842  0.15767601  1
  Cr  Cr23  1  0.66106648  0.32488902  0.32788483  1
  Ni  Ni24  1  0.66064827  0.65877738  0.99203401  1
  Cr  Cr25  1  0.82868102  0.82959626  0.16346644  1
  Cr  Cr26  1  0.66107040  0.66218769  0.32794134  1
  Ni  Ni27  1  0.16036264  0.16227418  0.49589953  1
  Ni  Ni28  1  -0.00434545  -0.00015821  0.65939267  1
  Ni  Ni29  1  0.16234108  0.16446825  0.82903836  1
  Ni  Ni30  1  0.16398644  0.49303399  0.49471983  1
  Ni  Ni31  1  -0.00395041  0.32575733  0.66136913  1
  Cr  Cr32  1  0.16222444  0.48947708  0.82934174  1
  Ni  Ni33  1  0.16179447  0.83110863  0.49264170  1
  Cr  Cr34  1  -0.00390900  0.66120791  0.66087725  1
  Cr  Cr35  1  0.16297591  0.83319734  0.82964310  1
  Cr  Cr36  1  0.49591837  0.16250877  0.49476824  1
  Cr  Cr37  1  0.32727061  -0.00341057  0.66422965  1
  Cr  Cr38  1  0.49334146  0.16411258  0.82893455  1
  Cr  Cr39  1  0.49264136  0.49411042  0.49640799  1
  Ni  Ni40  1  0.32687525  0.32856292  0.66192214  1
  Ni  Ni41  1  0.49903010  0.49514886  0.82867005  1
  Cr  Cr42  1  0.49541011  0.82940006  0.49503567  1
  Cr  Cr43  1  0.33007026  0.66124620  0.66174109  1
  Ni  Ni44  1  0.49784402  0.82681450  0.82902696  1
  Ni  Ni45  1  0.83112215  0.15989256  0.49724690  1
  Ni  Ni46  1  0.66400057  -0.00409772  0.66156257  1
  Cr  Cr47  1  0.83116392  0.16481829  0.82581764  1
  Cr  Cr48  1  0.82846081  0.49289232  0.49884542  1
  Ni  Ni49  1  0.66342928  0.32941761  0.66322144  1
  Ni  Ni50  1  0.82488083  0.49354052  0.82943779  1
  Cr  Cr51  1  0.82874534  0.83311690  0.49604034  1
  Ni  Ni52  1  0.66130937  0.66075876  0.66633932  1
  Cr  Cr53  1  0.82609517  0.82771287  0.82679826  1
" 