6148,Ni55Fe5Cr38_6,-223.755332788652, 154.2082302669,Ni55Fe5Cr38,"# generated using pymatgen
 data_Cr22Fe3Ni29
_symmetry_space_group_name_H-M   'P 1'
_cell_length_a   7.49465516
_cell_length_b   7.49465516
_cell_length_c   10.59904297
_cell_angle_alpha   90.00000000
_cell_angle_beta   90.00000000
_cell_angle_gamma   90.00000000
_symmetry_Int_Tables_number   1
_chemical_formula_structural   Cr22Fe3Ni29
_chemical_formula_sum   'Cr22 Fe3 Ni29'
_cell_volume   595.34671724
_cell_formula_units_Z   1
loop_
 _symmetry_equiv_pos_site_id
 _symmetry_equiv_pos_as_xyz
  1  'x, y, z'
loop_
 _atom_site_type_symbol
 _atom_site_label
 _atom_site_symmetry_multiplicity
 _atom_site_fract_x
 _atom_site_fract_y
 _atom_site_fract_z
 _atom_site_occupancy
  Ni  Ni0  1  -0.00075999  0.99557320  0.99733387  1
  Cr  Cr1  1  0.16552932  0.16221163  0.16356759  1
  Cr  Cr2  1  0.99706628  0.99567959  0.33282576  1
  Ni  Ni3  1  -0.00156745  0.33141846  0.99683811  1
  Cr  Cr4  1  0.16488917  0.49887533  0.16509277  1
  Cr  Cr5  1  0.99691065  0.33190111  0.33317218  1
  Ni  Ni6  1  0.99783526  0.66769667  -0.00162579  1
  Ni  Ni7  1  0.16507970  0.83156451  0.16465262  1
  Cr  Cr8  1  0.00021684  0.66705444  0.33172173  1
  Fe  Fe9  1  0.33017382  0.99628472  0.99654176  1
  Cr  Cr10  1  0.49627515  0.16524211  0.16591143  1
  Ni  Ni11  1  0.33085556  0.99499755  0.32888478  1
  Cr  Cr12  1  0.33216654  0.33053782  0.99416079  1
  Ni  Ni13  1  0.50025138  0.49916849  0.16658743  1
  Ni  Ni14  1  0.33372049  0.33453818  0.33283117  1
  Cr  Cr15  1  0.33153216  0.66689926  0.99731550  1
  Ni  Ni16  1  0.49700612  0.82909463  0.16503245  1
  Ni  Ni17  1  0.33144867  0.66454035  0.33194676  1
  Cr  Cr18  1  0.66336995  0.99689112  0.99692149  1
  Cr  Cr19  1  0.83244212  0.16667207  0.16422626  1
  Cr  Cr20  1  0.66690065  -0.00169446  0.33236702  1
  Ni  Ni21  1  0.66459589  0.33296135  0.00025663  1
  Fe  Fe22  1  0.83027927  0.50016701  0.16204661  1
  Ni  Ni23  1  0.66224152  0.33301012  0.33071234  1
  Ni  Ni24  1  0.66534558  0.66634175  -0.00015013  1
  Ni  Ni25  1  0.83235663  0.82957664  0.16195698  1
  Cr  Cr26  1  0.66416992  0.66506663  0.33003786  1
  Cr  Cr27  1  0.16662550  0.16347063  0.49869454  1
  Ni  Ni28  1  -0.00162067  0.99773337  0.66429127  1
  Ni  Ni29  1  0.16490659  0.16334584  0.83108342  1
  Ni  Ni30  1  0.16754133  0.49741685  0.49830047  1
  Ni  Ni31  1  0.00220678  0.32946981  0.66529085  1
  Ni  Ni32  1  0.16248767  0.49647060  0.83046903  1
  Ni  Ni33  1  0.16490205  0.83216185  0.49726501  1
  Cr  Cr34  1  0.00006335  0.66622318  0.66482183  1
  Ni  Ni35  1  0.16325352  0.83434935  0.83249375  1
  Cr  Cr36  1  0.49640698  0.16425097  0.49744443  1
  Ni  Ni37  1  0.33040131  -0.00136817  0.66879285  1
  Ni  Ni38  1  0.49579023  0.16224858  0.83059629  1
  Ni  Ni39  1  0.49626223  0.49716694  0.49663603  1
  Ni  Ni40  1  0.32901959  0.33032278  0.66541033  1
  Cr  Cr41  1  0.50032376  0.49962229  0.82994033  1
  Cr  Cr42  1  0.49682632  0.83090274  0.49939841  1
  Cr  Cr43  1  0.33047693  0.66340281  0.66446915  1
  Ni  Ni44  1  0.49936765  0.83393894  0.83050739  1
  Fe  Fe45  1  0.83176093  0.16381228  0.50050361  1
  Ni  Ni46  1  0.66563457  0.99595505  0.66550891  1
  Cr  Cr47  1  0.83338437  0.16403506  0.83026151  1
  Cr  Cr48  1  0.83012499  0.49904444  0.49942670  1
  Cr  Cr49  1  0.66272309  0.32975915  0.66416821  1
  Cr  Cr50  1  0.83297550  0.50139074  0.83543588  1
  Ni  Ni51  1  0.83209148  0.83286240  0.50160771  1
  Ni  Ni52  1  0.66467601  0.66872135  0.66551201  1
  Ni  Ni53  1  0.83159866  0.83156183  0.83104604  1
" 