185,Ni55Fe5Cr38_17,-224.0067903125, 155.196933574323,Ni55Fe5Cr38,"# generated using pymatgen
 data_Cr22Fe3Ni29
_symmetry_space_group_name_H-M   'P 1'
_cell_length_a   7.49209159
_cell_length_b   7.49209159
_cell_length_c   10.59541753
_cell_angle_alpha   90.00000000
_cell_angle_beta   90.00000000
_cell_angle_gamma   90.00000000
_symmetry_Int_Tables_number   1
_chemical_formula_structural   Cr22Fe3Ni29
_chemical_formula_sum   'Cr22 Fe3 Ni29'
_cell_volume   594.73600448
_cell_formula_units_Z   1
loop_
 _symmetry_equiv_pos_site_id
 _symmetry_equiv_pos_as_xyz
  1  'x, y, z'
loop_
 _atom_site_type_symbol
 _atom_site_label
 _atom_site_symmetry_multiplicity
 _atom_site_fract_x
 _atom_site_fract_y
 _atom_site_fract_z
 _atom_site_occupancy
  Cr  Cr0  1  -0.00061290  -0.00064438  0.99749312  1
  Cr  Cr1  1  0.16586609  0.17095969  0.16295023  1
  Cr  Cr2  1  -0.00075640  0.99678510  0.33082611  1
  Ni  Ni3  1  0.99585752  0.33586796  -0.00110465  1
  Fe  Fe4  1  0.16517822  0.49848068  0.16370794  1
  Cr  Cr5  1  0.99547188  0.33573921  0.33110339  1
  Ni  Ni6  1  -0.00098681  0.65976830  -0.00097927  1
  Cr  Cr7  1  0.16466568  0.82765946  0.16494176  1
  Ni  Ni8  1  0.99704701  0.66085992  0.33258969  1
  Cr  Cr9  1  0.33197125  0.99529127  0.99358216  1
  Cr  Cr10  1  0.49814664  0.17114654  0.16627772  1
  Cr  Cr11  1  0.33151606  -0.00133140  0.33396566  1
  Fe  Fe12  1  0.33367726  0.33470322  0.99616423  1
  Ni  Ni13  1  0.49919081  0.49740857  0.16440006  1
  Ni  Ni14  1  0.33396725  0.33587565  0.33255970  1
  Ni  Ni15  1  0.33234363  0.66153266  0.99687767  1
  Cr  Cr16  1  0.49967367  0.82502479  0.16382298  1
  Cr  Cr17  1  0.33014137  0.66151664  0.33374201  1
  Cr  Cr18  1  0.66368870  0.00069869  0.99637308  1
  Ni  Ni19  1  0.83144376  0.17116466  0.16421589  1
  Cr  Cr20  1  0.66505431  0.00209942  0.33037541  1
  Ni  Ni21  1  0.66588212  0.33673859  -0.00161017  1
  Ni  Ni22  1  0.83024497  0.49795475  0.16406227  1
  Ni  Ni23  1  0.66328223  0.33751843  0.33219245  1
  Ni  Ni24  1  0.66363503  0.65774323  0.99663536  1
  Cr  Cr25  1  0.83043577  0.82666282  0.16461201  1
  Ni  Ni26  1  0.66617797  0.65745977  0.33163667  1
  Cr  Cr27  1  0.16665114  0.17022437  0.50135316  1
  Ni  Ni28  1  0.00009835  0.99732463  0.66689487  1
  Ni  Ni29  1  0.16615749  0.16676457  0.83069405  1
  Ni  Ni30  1  0.16547173  0.49908598  0.49920101  1
  Ni  Ni31  1  -0.00037230  0.33504013  0.66529206  1
  Cr  Cr32  1  0.16453475  0.49702390  0.83237606  1
  Fe  Fe33  1  0.16407384  0.82781458  0.50159847  1
  Ni  Ni34  1  -0.00052076  0.66187067  0.66362028  1
  Ni  Ni35  1  0.16538325  0.82884858  0.82967819  1
  Ni  Ni36  1  0.49703343  0.16942989  0.49781629  1
  Cr  Cr37  1  0.33296913  0.99701262  0.66734655  1
  Ni  Ni38  1  0.49644213  0.16829367  0.83105625  1
  Ni  Ni39  1  0.49704571  0.49708922  0.49824364  1
  Ni  Ni40  1  0.33205617  0.33407100  0.66554298  1
  Ni  Ni41  1  0.49833300  0.49972364  0.83230336  1
  Cr  Cr42  1  0.50189215  0.82835043  0.49909372  1
  Ni  Ni43  1  0.33182686  0.66227931  0.66506294  1
  Ni  Ni44  1  0.49774569  0.82728769  0.83127557  1
  Cr  Cr45  1  0.83043579  0.16654140  0.50097320  1
  Ni  Ni46  1  0.66313725  -0.00153568  0.66710824  1
  Cr  Cr47  1  0.83366310  0.16942700  0.82961558  1
  Ni  Ni48  1  0.83218001  0.50113310  0.49917189  1
  Cr  Cr49  1  0.66365360  0.33570455  0.66438743  1
  Ni  Ni50  1  0.83111722  0.49954583  0.83190496  1
  Cr  Cr51  1  0.83198913  0.82816748  0.50072313  1
  Ni  Ni52  1  0.66366079  0.66246154  0.66643340  1
  Cr  Cr53  1  0.83088476  0.82608217  0.82956575  1
" 