2802,Ni55Fe36Cr7_18,-238.38947618649, 215.831895889528,Ni55Fe36Cr7,"# generated using pymatgen
 data_Cr5Fe19Ni30
_symmetry_space_group_name_H-M   'P 1'
_cell_length_a   7.41789564
_cell_length_b   7.41789564
_cell_length_c   10.49048862
_cell_angle_alpha   90.00000000
_cell_angle_beta   90.00000000
_cell_angle_gamma   90.00000000
_symmetry_Int_Tables_number   1
_chemical_formula_structural   Cr5Fe19Ni30
_chemical_formula_sum   'Cr5 Fe19 Ni30'
_cell_volume   577.24098067
_cell_formula_units_Z   1
loop_
 _symmetry_equiv_pos_site_id
 _symmetry_equiv_pos_as_xyz
  1  'x, y, z'
loop_
 _atom_site_type_symbol
 _atom_site_label
 _atom_site_symmetry_multiplicity
 _atom_site_fract_x
 _atom_site_fract_y
 _atom_site_fract_z
 _atom_site_occupancy
  Ni  Ni0  1  0.00408770  1.00317982  0.00396741  1
  Fe  Fe1  1  0.17050904  0.17043523  0.16974694  1
  Ni  Ni2  1  0.00434594  0.00345336  0.33546250  1
  Ni  Ni3  1  1.00317362  0.33713736  1.00256491  1
  Ni  Ni4  1  0.16965817  0.50252773  0.17002978  1
  Ni  Ni5  1  1.00153582  0.33754359  0.33829383  1
  Ni  Ni6  1  0.00354255  0.66957114  1.00163452  1
  Ni  Ni7  1  0.16988921  0.83725239  0.16866265  1
  Ni  Ni8  1  0.00334278  0.66903951  0.33620882  1
  Ni  Ni9  1  0.33595965  0.00394012  1.00314472  1
  Fe  Fe10  1  0.50063419  0.17081568  0.17010281  1
  Ni  Ni11  1  0.33651207  1.00271106  0.33613985  1
  Ni  Ni12  1  0.33603433  0.33594826  1.00310045  1
  Ni  Ni13  1  0.50355594  0.50343988  0.16991222  1
  Fe  Fe14  1  0.33572171  0.33597164  0.33604648  1
  Ni  Ni15  1  0.33487483  0.66995176  0.00507453  1
  Ni  Ni16  1  0.50227872  0.83548798  0.17001423  1
  Fe  Fe17  1  0.33667276  0.66970523  0.33515640  1
  Fe  Fe18  1  0.67119348  1.00297239  0.00463514  1
  Fe  Fe19  1  0.83850915  0.17139415  0.16943668  1
  Cr  Cr20  1  0.66881724  0.00418195  0.33875042  1
  Fe  Fe21  1  0.67130216  0.33599101  0.00467790  1
  Fe  Fe22  1  0.83798237  0.50429318  0.17011373  1
  Ni  Ni23  1  0.66983369  0.33858202  0.33579702  1
  Ni  Ni24  1  0.67164381  0.66915530  0.00512707  1
  Fe  Fe25  1  0.83851288  0.83444347  0.16938881  1
  Fe  Fe26  1  0.67088022  0.66930847  0.33620155  1
  Ni  Ni27  1  0.16948025  0.17127384  0.50165241  1
  Ni  Ni28  1  1.00306084  0.00404280  0.66996094  1
  Ni  Ni29  1  0.16875357  0.16971967  0.83780398  1
  Fe  Fe30  1  0.17037656  0.50296029  0.50301218  1
  Fe  Fe31  1  0.00628064  0.33620440  0.67024223  1
  Ni  Ni32  1  0.16862904  0.50136655  0.83620955  1
  Cr  Cr33  1  0.16927021  0.83944581  0.50263581  1
  Fe  Fe34  1  1.00231930  0.66961504  0.67085608  1
  Fe  Fe35  1  0.16755743  0.83646986  0.83713242  1
  Ni  Ni36  1  0.49973541  0.17068192  0.50389213  1
  Ni  Ni37  1  0.33568044  0.00361302  0.67026832  1
  Fe  Fe38  1  0.50293894  0.16980370  0.83707267  1
  Ni  Ni39  1  0.50387610  0.50365638  0.50120511  1
  Fe  Fe40  1  0.33347125  0.33530388  0.66949067  1
  Cr  Cr41  1  0.50175799  0.50437928  0.83912579  1
  Ni  Ni42  1  0.50394165  0.83530904  0.50348589  1
  Ni  Ni43  1  0.33576878  0.66948739  0.66881923  1
  Cr  Cr44  1  0.50334827  0.83721889  0.83674332  1
  Fe  Fe45  1  0.83802307  0.16994528  0.50324263  1
  Fe  Fe46  1  0.67076553  1.00188762  0.66840690  1
  Ni  Ni47  1  0.83960620  0.16847444  0.83723014  1
  Ni  Ni48  1  0.83660041  0.50416875  0.50210451  1
  Cr  Cr49  1  0.67193869  0.33693956  0.67035423  1
  Ni  Ni50  1  0.83899249  0.50343444  0.83887090  1
  Ni  Ni51  1  0.83651158  0.83523087  0.50344902  1
  Fe  Fe52  1  0.67185049  0.67198671  0.66904118  1
  Ni  Ni53  1  0.83736645  0.83785250  0.83720600  1
" 