2347,Ni55Fe5Cr38_16,-223.647953470085, 146.981063675891,Ni55Fe5Cr38,"# generated using pymatgen
 data_Cr22Fe3Ni29
_symmetry_space_group_name_H-M   'P 1'
_cell_length_a   7.49811780
_cell_length_b   7.49811780
_cell_length_c   10.60393989
_cell_angle_alpha   90.00000000
_cell_angle_beta   90.00000000
_cell_angle_gamma   90.00000000
_symmetry_Int_Tables_number   1
_chemical_formula_structural   Cr22Fe3Ni29
_chemical_formula_sum   'Cr22 Fe3 Ni29'
_cell_volume   596.17227549
_cell_formula_units_Z   1
loop_
 _symmetry_equiv_pos_site_id
 _symmetry_equiv_pos_as_xyz
  1  'x, y, z'
loop_
 _atom_site_type_symbol
 _atom_site_label
 _atom_site_symmetry_multiplicity
 _atom_site_fract_x
 _atom_site_fract_y
 _atom_site_fract_z
 _atom_site_occupancy
  Cr  Cr0  1  0.99625677  0.99632063  0.99381431  1
  Cr  Cr1  1  0.16486119  0.16341819  0.16466258  1
  Ni  Ni2  1  0.99636816  0.99423926  0.33267916  1
  Ni  Ni3  1  -0.00093314  0.33127029  0.99434939  1
  Cr  Cr4  1  0.16504225  0.49929204  0.15872644  1
  Cr  Cr5  1  0.99791293  0.33348116  0.33332173  1
  Ni  Ni6  1  0.99746231  0.66593038  0.99560059  1
  Cr  Cr7  1  0.16766491  0.83134912  0.16420628  1
  Cr  Cr8  1  0.99542334  0.66591742  0.33264690  1
  Ni  Ni9  1  0.33333034  0.99697256  0.99560233  1
  Cr  Cr10  1  0.49813197  0.16158034  0.16400632  1
  Ni  Ni11  1  0.33176665  0.99505160  0.33096094  1
  Ni  Ni12  1  0.33308962  0.33197507  0.99527282  1
  Ni  Ni13  1  0.49878809  0.50074806  0.15979190  1
  Cr  Cr14  1  0.33314665  0.33457506  0.33187545  1
  Ni  Ni15  1  0.33368545  0.66500399  0.99526632  1
  Ni  Ni16  1  0.49857685  0.83125942  0.16262592  1
  Cr  Cr17  1  0.33358489  0.66315825  0.33255582  1
  Ni  Ni18  1  0.66271436  0.99558220  0.99593746  1
  Cr  Cr19  1  0.83059896  0.16450706  0.16419353  1
  Ni  Ni20  1  0.66563589  0.99434742  0.33046351  1
  Ni  Ni21  1  0.66166575  0.33143652  0.99588700  1
  Cr  Cr22  1  0.83113473  0.49814124  0.15908000  1
  Cr  Cr23  1  0.66277069  0.33574224  0.33258986  1
  Ni  Ni24  1  0.66235675  0.66675901  -0.00144744  1
  Fe  Fe25  1  0.82935748  0.83217932  0.16300863  1
  Cr  Cr26  1  0.66432769  0.66506617  0.32911982  1
  Cr  Cr27  1  0.16546904  0.16083632  0.49413921  1
  Cr  Cr28  1  0.99725179  0.99443221  0.66780602  1
  Ni  Ni29  1  0.16546182  0.16492238  0.83557844  1
  Ni  Ni30  1  0.16419312  0.50288386  0.50043557  1
  Cr  Cr31  1  -0.00092257  0.33212087  0.66545303  1
  Ni  Ni32  1  0.16498030  0.50133018  0.83355257  1
  Ni  Ni33  1  0.16320407  0.82855618  0.49806474  1
  Ni  Ni34  1  -0.00196462  0.66578703  0.66358509  1
  Ni  Ni35  1  0.16664718  0.82755958  0.83201688  1
  Cr  Cr36  1  0.49996520  0.16225772  0.49824320  1
  Cr  Cr37  1  0.33070397  0.99734868  0.66907262  1
  Ni  Ni38  1  0.50098317  0.16360187  0.83313346  1
  Ni  Ni39  1  0.49967302  0.50047969  0.50150886  1
  Cr  Cr40  1  0.33281461  0.33319451  0.66649283  1
  Ni  Ni41  1  0.49847707  0.50001685  0.83237703  1
  Cr  Cr42  1  0.49746268  0.83208566  0.49986912  1
  Fe  Fe43  1  0.33155578  0.66434478  0.66692863  1
  Ni  Ni44  1  0.49831545  0.83038460  0.83245084  1
  Cr  Cr45  1  0.82864534  0.16339656  0.49877103  1
  Ni  Ni46  1  0.66513704  0.99580701  0.66787541  1
  Ni  Ni47  1  0.82741215  0.16512572  0.83192976  1
  Ni  Ni48  1  0.83011122  0.50108808  0.50083551  1
  Ni  Ni49  1  0.66276274  0.33294800  0.66547064  1
  Cr  Cr50  1  0.83024742  0.49836623  0.83221646  1
  Ni  Ni51  1  0.83115464  0.82995941  0.49868119  1
  Ni  Ni52  1  0.66514647  0.66488792  0.66422614  1
  Fe  Fe53  1  0.82850963  0.82909329  0.83060737  1
" 