7546,Ni55Fe5Cr38_13,-223.927921944285, 153.961406871944,Ni55Fe5Cr38,"# generated using pymatgen
 data_Cr22Fe3Ni29
_symmetry_space_group_name_H-M   'P 1'
_cell_length_a   7.49228890
_cell_length_b   7.49228890
_cell_length_c   10.59569658
_cell_angle_alpha   90.00000000
_cell_angle_beta   90.00000000
_cell_angle_gamma   90.00000000
_symmetry_Int_Tables_number   1
_chemical_formula_structural   Cr22Fe3Ni29
_chemical_formula_sum   'Cr22 Fe3 Ni29'
_cell_volume   594.78299571
_cell_formula_units_Z   1
loop_
 _symmetry_equiv_pos_site_id
 _symmetry_equiv_pos_as_xyz
  1  'x, y, z'
loop_
 _atom_site_type_symbol
 _atom_site_label
 _atom_site_symmetry_multiplicity
 _atom_site_fract_x
 _atom_site_fract_y
 _atom_site_fract_z
 _atom_site_occupancy
  Ni  Ni0  1  0.99705450  0.99696656  0.99659731  1
  Ni  Ni1  1  0.16586839  0.16765430  0.16600319  1
  Cr  Cr2  1  -0.00102310  0.00190090  0.33161737  1
  Cr  Cr3  1  -0.00082793  0.33449519  -0.00115806  1
  Ni  Ni4  1  0.16772942  0.49659320  0.16502622  1
  Ni  Ni5  1  -0.00093868  0.33330467  0.33208992  1
  Ni  Ni6  1  -0.00051740  0.66396964  0.99750606  1
  Cr  Cr7  1  0.16663246  0.83145195  0.16406175  1
  Cr  Cr8  1  0.00029169  0.65820866  0.33095266  1
  Cr  Cr9  1  0.33226558  0.00023005  -0.00027383  1
  Cr  Cr10  1  0.49654027  0.16928231  0.16530233  1
  Fe  Fe11  1  0.33330524  -0.00101365  0.33130498  1
  Ni  Ni12  1  0.33236720  0.33471499  -0.00114227  1
  Ni  Ni13  1  0.49632057  0.49843543  0.16476042  1
  Ni  Ni14  1  0.33122953  0.33436839  0.33133500  1
  Ni  Ni15  1  0.32927800  0.66131697  0.00066469  1
  Ni  Ni16  1  0.49479194  0.82811326  0.16658903  1
  Ni  Ni17  1  0.33364820  0.66260058  0.33160419  1
  Cr  Cr18  1  0.66568479  0.00018813  0.99600417  1
  Cr  Cr19  1  0.83352627  0.16865802  0.16535834  1
  Cr  Cr20  1  0.66138527  -0.00061320  0.33324473  1
  Ni  Ni21  1  0.66402882  0.33223766  0.99755806  1
  Ni  Ni22  1  0.83094868  0.49607602  0.16549270  1
  Ni  Ni23  1  0.66469368  0.33279902  0.33330797  1
  Cr  Cr24  1  0.66625056  0.66300113  -0.00028077  1
  Cr  Cr25  1  0.83223556  0.83018088  0.16240080  1
  Cr  Cr26  1  0.66213377  0.66257957  0.33175898  1
  Cr  Cr27  1  0.16323383  0.16793896  0.49783410  1
  Ni  Ni28  1  0.99446339  0.00064570  0.66670105  1
  Cr  Cr29  1  0.16421708  0.16717750  0.83105883  1
  Ni  Ni30  1  0.16798830  0.49589501  0.49846231  1
  Ni  Ni31  1  0.99625702  0.33245280  0.66407633  1
  Ni  Ni32  1  0.16536847  0.49827968  0.83143052  1
  Cr  Cr33  1  0.16801596  0.83061542  0.49848353  1
  Cr  Cr34  1  -0.00144488  0.66103696  0.66590614  1
  Cr  Cr35  1  0.16232591  0.82946321  0.83232729  1
  Fe  Fe36  1  0.49963468  0.16977716  0.49825561  1
  Cr  Cr37  1  0.33385282  -0.00067839  0.66350357  1
  Ni  Ni38  1  0.50080535  0.16934208  0.83129484  1
  Ni  Ni39  1  0.49758908  0.49824214  0.49913765  1
  Ni  Ni40  1  0.33261409  0.33535263  0.66475659  1
  Cr  Cr41  1  0.49710775  0.49520601  0.83139954  1
  Ni  Ni42  1  0.49624680  0.82840727  0.49763285  1
  Ni  Ni43  1  0.33253119  0.66116584  0.66267145  1
  Cr  Cr44  1  0.49844630  0.82897593  0.83108773  1
  Ni  Ni45  1  0.83132957  0.16977971  0.49938429  1
  Cr  Cr46  1  0.66578608  0.00028217  0.66569771  1
  Ni  Ni47  1  0.83092146  0.16551142  0.83048796  1
  Ni  Ni48  1  0.82944901  0.49232065  0.49865308  1
  Ni  Ni49  1  0.66611318  0.33130554  0.66408935  1
  Ni  Ni50  1  0.83193812  0.49684437  0.83080066  1
  Cr  Cr51  1  0.83078560  0.83201172  0.50037934  1
  Fe  Fe52  1  0.66444439  0.66145104  0.66386045  1
  Ni  Ni53  1  0.83411397  0.83253467  0.83197910  1
" 