5126,Ni55Cr45_14,-217.714041040187, 135.0311242035,Ni55Cr45,"# generated using pymatgen
 data_Cr29Ni25
_symmetry_space_group_name_H-M   'P 1'
_cell_length_a   7.53109995
_cell_length_b   7.53109995
_cell_length_c   10.65058369
_cell_angle_alpha   90.00000000
_cell_angle_beta   90.00000000
_cell_angle_gamma   90.00000000
_symmetry_Int_Tables_number   1
_chemical_formula_structural   Cr29Ni25
_chemical_formula_sum   'Cr29 Ni25'
_cell_volume   604.07412277
_cell_formula_units_Z   1
loop_
 _symmetry_equiv_pos_site_id
 _symmetry_equiv_pos_as_xyz
  1  'x, y, z'
loop_
 _atom_site_type_symbol
 _atom_site_label
 _atom_site_symmetry_multiplicity
 _atom_site_fract_x
 _atom_site_fract_y
 _atom_site_fract_z
 _atom_site_occupancy
  Cr  Cr0  1  0.99484967  -0.00073559  0.99548592  1
  Ni  Ni1  1  0.16575489  0.16854361  0.16428134  1
  Cr  Cr2  1  0.99445683  -0.00157370  0.32856722  1
  Cr  Cr3  1  -0.00079289  0.32849019  0.99483068  1
  Ni  Ni4  1  0.16423952  0.49317724  0.16226401  1
  Ni  Ni5  1  -0.00169322  0.33052540  0.32808731  1
  Ni  Ni6  1  0.00057435  0.65894434  -0.00410098  1
  Cr  Cr7  1  0.16168773  0.82648477  0.16159193  1
  Ni  Ni8  1  0.99468595  0.65998780  0.32891921  1
  Cr  Cr9  1  0.32744312  0.00090328  0.99563810  1
  Ni  Ni10  1  0.49305681  0.16729785  0.15970971  1
  Cr  Cr11  1  0.32958115  -0.00151728  0.32871856  1
  Ni  Ni12  1  0.32977945  0.33070652  -0.00295921  1
  Ni  Ni13  1  0.49307299  0.49232033  0.16162941  1
  Ni  Ni14  1  0.32803442  0.33107541  0.32520347  1
  Ni  Ni15  1  0.32607655  0.65654146  -0.00338204  1
  Cr  Cr16  1  0.49611913  0.83060138  0.16007894  1
  Cr  Cr17  1  0.33283819  0.65781677  0.32893960  1
  Ni  Ni18  1  0.66084854  0.00192624  0.99490403  1
  Cr  Cr19  1  0.82627347  0.16502180  0.16210414  1
  Cr  Cr20  1  0.66273635  0.99418532  0.33044254  1
  Ni  Ni21  1  0.65882462  0.32532110  0.99511057  1
  Cr  Cr22  1  0.83019922  0.49559184  0.16306569  1
  Cr  Cr23  1  0.65931534  0.33099719  0.32920080  1
  Cr  Cr24  1  0.66037628  0.65910093  -0.00246270  1
  Cr  Cr25  1  0.82939272  0.82706861  0.16076081  1
  Ni  Ni26  1  0.66272097  0.66154178  0.33108221  1
  Cr  Cr27  1  0.16170418  0.16529484  0.49473861  1
  Cr  Cr28  1  0.99490436  -0.00159868  0.66328980  1
  Ni  Ni29  1  0.16423541  0.16558984  0.82756282  1
  Cr  Cr30  1  0.16105650  0.49374149  0.49528291  1
  Ni  Ni31  1  0.99456974  0.32850836  0.66461766  1
  Ni  Ni32  1  0.16157872  0.49357009  0.83038508  1
  Cr  Cr33  1  0.16289405  0.82914504  0.49744826  1
  Ni  Ni34  1  0.99573612  0.66010628  0.66302835  1
  Cr  Cr35  1  0.16316512  0.82642034  0.82864963  1
  Cr  Cr36  1  0.49424711  0.16447832  0.49710573  1
  Ni  Ni37  1  0.33023211  -0.00199944  0.66354472  1
  Ni  Ni38  1  0.49613635  0.16425803  0.83040648  1
  Ni  Ni39  1  0.49707443  0.49520778  0.49404516  1
  Cr  Cr40  1  0.32914300  0.33027036  0.66452588  1
  Cr  Cr41  1  0.49601102  0.49204573  0.83072625  1
  Ni  Ni42  1  0.49758640  0.82837695  0.49570365  1
  Cr  Cr43  1  0.33045065  0.66146131  0.66210738  1
  Cr  Cr44  1  0.49394043  0.83264028  0.83099735  1
  Ni  Ni45  1  0.82946789  0.16375448  0.49696863  1
  Cr  Cr46  1  0.66295470  -0.00385338  0.66205065  1
  Ni  Ni47  1  0.82663162  0.16515431  0.82877188  1
  Cr  Cr48  1  0.83066605  0.49268863  0.49613343  1
  Ni  Ni49  1  0.66411816  0.32644963  0.66264924  1
  Cr  Cr50  1  0.83066837  0.49320383  0.82784671  1
  Ni  Ni51  1  0.82931998  0.82695895  0.49384981  1
  Cr  Cr52  1  0.66202048  0.66048118  0.65724513  1
  Cr  Cr53  1  0.82939870  0.82766465  0.83297135  1
" 