6020,Ni55Fe5Cr38_0,-223.429210117087, 144.99469352525,Ni55Fe5Cr38,"# generated using pymatgen
 data_Cr22Fe3Ni29
_symmetry_space_group_name_H-M   'P 1'
_cell_length_a   7.49670352
_cell_length_b   7.49670352
_cell_length_c   10.60193979
_cell_angle_alpha   90.00000000
_cell_angle_beta   90.00000000
_cell_angle_gamma   90.00000000
_symmetry_Int_Tables_number   1
_chemical_formula_structural   Cr22Fe3Ni29
_chemical_formula_sum   'Cr22 Fe3 Ni29'
_cell_volume   595.83499236
_cell_formula_units_Z   1
loop_
 _symmetry_equiv_pos_site_id
 _symmetry_equiv_pos_as_xyz
  1  'x, y, z'
loop_
 _atom_site_type_symbol
 _atom_site_label
 _atom_site_symmetry_multiplicity
 _atom_site_fract_x
 _atom_site_fract_y
 _atom_site_fract_z
 _atom_site_occupancy
  Ni  Ni0  1  0.99798411  -0.00082622  0.99776440  1
  Ni  Ni1  1  0.16527399  0.16436169  0.16165056  1
  Cr  Cr2  1  0.99722065  0.99773995  0.32744062  1
  Fe  Fe3  1  0.00070011  0.33013319  0.99765701  1
  Ni  Ni4  1  0.16629613  0.49805686  0.16598281  1
  Cr  Cr5  1  0.99796205  0.33241945  0.33192117  1
  Cr  Cr6  1  0.00059331  0.66909934  -0.00128137  1
  Ni  Ni7  1  0.16481303  0.83198285  0.16698922  1
  Ni  Ni8  1  0.00114065  0.66370882  0.33081142  1
  Cr  Cr9  1  0.32820408  0.99650470  -0.00193311  1
  Ni  Ni10  1  0.49540365  0.16466924  0.16574627  1
  Ni  Ni11  1  0.33253669  0.99652137  0.32965089  1
  Ni  Ni12  1  0.32860366  0.33267300  -0.00112395  1
  Ni  Ni13  1  0.49547264  0.49874997  0.16290182  1
  Cr  Cr14  1  0.33091412  0.33185102  0.33014153  1
  Cr  Cr15  1  0.33107878  0.66306106  0.99737146  1
  Ni  Ni16  1  0.49640273  0.83052852  0.16581761  1
  Ni  Ni17  1  0.32940471  0.66629128  0.32901493  1
  Cr  Cr18  1  0.66791670  0.99519161  -0.00054987  1
  Ni  Ni19  1  0.83358651  0.16376718  0.16280955  1
  Cr  Cr20  1  0.66402410  -0.00039703  0.33059784  1
  Cr  Cr21  1  0.66227437  0.33060077  -0.00022848  1
  Cr  Cr22  1  0.83137018  0.49943237  0.16368428  1
  Cr  Cr23  1  0.66550439  0.32822569  0.33298673  1
  Ni  Ni24  1  0.66335415  0.66649609  0.99715512  1
  Ni  Ni25  1  0.83294615  0.83158376  0.16328521  1
  Cr  Cr26  1  0.66474892  0.66609853  0.32991002  1
  Cr  Cr27  1  0.16530256  0.16180013  0.50067370  1
  Ni  Ni28  1  -0.00158154  -0.00161529  0.66809587  1
  Fe  Fe29  1  0.16255514  0.16413958  0.83179336  1
  Fe  Fe30  1  0.16260384  0.49931216  0.49839324  1
  Ni  Ni31  1  0.99802073  0.33155409  0.66537804  1
  Ni  Ni32  1  0.16364663  0.49682266  0.83065426  1
  Cr  Cr33  1  0.16623702  0.83126856  0.49673595  1
  Ni  Ni34  1  0.99791045  0.66389347  0.66490444  1
  Ni  Ni35  1  0.16234183  0.83286943  0.82895604  1
  Ni  Ni36  1  0.49641638  0.16136765  0.49748921  1
  Ni  Ni37  1  0.33019814  0.99674938  0.66539573  1
  Cr  Cr38  1  0.49633096  0.16484732  0.83100566  1
  Cr  Cr39  1  0.49910718  0.50086483  0.49801259  1
  Cr  Cr40  1  0.32919705  0.33216227  0.66604796  1
  Ni  Ni41  1  0.49699779  0.49985852  0.83314548  1
  Ni  Ni42  1  0.49556510  0.83272929  0.49829276  1
  Cr  Cr43  1  0.33043832  0.66576289  0.66736640  1
  Ni  Ni44  1  0.49825271  0.82940458  0.82969491  1
  Ni  Ni45  1  0.83314331  0.16644465  0.50024728  1
  Cr  Cr46  1  0.66493430  0.99686165  0.66375771  1
  Ni  Ni47  1  0.83632788  0.16341609  0.83099419  1
  Ni  Ni48  1  0.83481839  0.49840039  0.50031165  1
  Cr  Cr49  1  0.66597185  0.33093407  0.66164181  1
  Cr  Cr50  1  0.83053430  0.49863186  0.83098518  1
  Cr  Cr51  1  0.83337978  0.82871211  0.49951354  1
  Ni  Ni52  1  0.66548183  0.66560400  0.66686015  1
  Ni  Ni53  1  0.83332925  0.83187034  0.83067094  1
" 