756,Ni55Cr45_19,-217.49705585384, 135.555107643144,Ni55Cr45,"# generated using pymatgen
 data_Cr29Ni25
_symmetry_space_group_name_H-M   'P 1'
_cell_length_a   7.52732139
_cell_length_b   7.52732139
_cell_length_c   10.64524000
_cell_angle_alpha   90.00000000
_cell_angle_beta   90.00000000
_cell_angle_gamma   90.00000000
_symmetry_Int_Tables_number   1
_chemical_formula_structural   Cr29Ni25
_chemical_formula_sum   'Cr29 Ni25'
_cell_volume   603.16533856
_cell_formula_units_Z   1
loop_
 _symmetry_equiv_pos_site_id
 _symmetry_equiv_pos_as_xyz
  1  'x, y, z'
loop_
 _atom_site_type_symbol
 _atom_site_label
 _atom_site_symmetry_multiplicity
 _atom_site_fract_x
 _atom_site_fract_y
 _atom_site_fract_z
 _atom_site_occupancy
  Ni  Ni0  1  0.99451017  0.99457529  -0.00272212  1
  Ni  Ni1  1  0.16028183  0.16501271  0.16254069  1
  Cr  Cr2  1  -0.00378505  0.99595898  0.32918970  1
  Cr  Cr3  1  -0.00234086  0.32866664  -0.00243643  1
  Ni  Ni4  1  0.16556307  0.49463972  0.16564330  1
  Cr  Cr5  1  -0.00381465  0.32948876  0.33011074  1
  Cr  Cr6  1  -0.00392087  0.66486602  0.99441237  1
  Cr  Cr7  1  0.16077934  0.82896457  0.16390518  1
  Ni  Ni8  1  -0.00158571  0.66242878  0.32927014  1
  Cr  Cr9  1  0.32662038  -0.00367746  0.99501565  1
  Cr  Cr10  1  0.49448697  0.16464288  0.16307583  1
  Cr  Cr11  1  0.32907342  -0.00392605  0.33262305  1
  Cr  Cr12  1  0.32981126  0.33140587  0.99561127  1
  Ni  Ni13  1  0.49288497  0.49683532  0.16306759  1
  Ni  Ni14  1  0.32809021  0.33042784  0.32775499  1
  Cr  Cr15  1  0.33006872  0.66016203  0.99477513  1
  Cr  Cr16  1  0.49767586  0.82583891  0.16376731  1
  Ni  Ni17  1  0.32720202  0.66064224  0.32925143  1
  Cr  Cr18  1  0.66505900  0.99471037  -0.00333015  1
  Ni  Ni19  1  0.83267996  0.15972887  0.16156188  1
  Cr  Cr20  1  0.66275093  -0.00278930  0.33103529  1
  Cr  Cr21  1  0.66035285  0.33156844  -0.00336483  1
  Cr  Cr22  1  0.82928158  0.49804631  0.16367333  1
  Cr  Cr23  1  0.66233672  0.32819353  0.32999568  1
  Ni  Ni24  1  0.66310363  0.66289143  0.99595405  1
  Ni  Ni25  1  0.83059742  0.83032314  0.16070536  1
  Cr  Cr26  1  0.66258545  0.66250816  0.32850958  1
  Ni  Ni27  1  0.16473243  0.16283702  0.49554634  1
  Cr  Cr28  1  -0.00384084  0.99464909  0.66196134  1
  Cr  Cr29  1  0.16376318  0.16299652  0.83007850  1
  Cr  Cr30  1  0.16332436  0.49664852  0.49477981  1
  Cr  Cr31  1  -0.00300106  0.33021234  0.66032711  1
  Ni  Ni32  1  0.16723183  0.49789313  0.82735752  1
  Ni  Ni33  1  0.16553600  0.82843856  0.49499977  1
  Cr  Cr34  1  -0.00242110  0.66312899  0.66349682  1
  Ni  Ni35  1  0.16081381  0.82727159  0.82925873  1
  Ni  Ni36  1  0.49495099  0.16166691  0.49746864  1
  Cr  Cr37  1  0.33073026  0.99523459  0.66050079  1
  Ni  Ni38  1  0.49568566  0.16484874  0.82696525  1
  Cr  Cr39  1  0.49481496  0.49735657  0.49622481  1
  Ni  Ni40  1  0.33099961  0.33023400  0.66411975  1
  Ni  Ni41  1  0.49385047  0.49655880  0.82804372  1
  Ni  Ni42  1  0.49428747  0.82960248  0.49792032  1
  Ni  Ni43  1  0.33048024  0.66194398  0.66373685  1
  Cr  Cr44  1  0.49820580  0.82806923  0.82746677  1
  Ni  Ni45  1  0.82831998  0.16295661  0.49685258  1
  Ni  Ni46  1  0.66125690  0.99520345  0.66158213  1
  Cr  Cr47  1  0.82828196  0.15913253  0.83001027  1
  Ni  Ni48  1  0.82926927  0.49604311  0.49593141  1
  Cr  Cr49  1  0.66091367  0.32840961  0.66125315  1
  Cr  Cr50  1  0.82751577  0.49900724  0.82782486  1
  Cr  Cr51  1  0.82812756  0.82772804  0.49694074  1
  Ni  Ni52  1  0.66053718  0.66443577  0.66328264  1
  Ni  Ni53  1  0.82908696  0.82916053  0.83027530  1
" 