7303,Ni55Fe36Cr7_19,-238.805169229361, 214.034725964007,Ni55Fe36Cr7,"# generated using pymatgen
 data_Cr5Fe19Ni30
_symmetry_space_group_name_H-M   'P 1'
_cell_length_a   7.42004633
_cell_length_b   7.42004633
_cell_length_c   10.49353016
_cell_angle_alpha   90.00000000
_cell_angle_beta   90.00000000
_cell_angle_gamma   90.00000000
_symmetry_Int_Tables_number   1
_chemical_formula_structural   Cr5Fe19Ni30
_chemical_formula_sum   'Cr5 Fe19 Ni30'
_cell_volume   577.74320914
_cell_formula_units_Z   1
loop_
 _symmetry_equiv_pos_site_id
 _symmetry_equiv_pos_as_xyz
  1  'x, y, z'
loop_
 _atom_site_type_symbol
 _atom_site_label
 _atom_site_symmetry_multiplicity
 _atom_site_fract_x
 _atom_site_fract_y
 _atom_site_fract_z
 _atom_site_occupancy
  Ni  Ni0  1  1.00265003  1.00177204  1.00298856  1
  Fe  Fe1  1  0.17062233  0.17166639  0.16829163  1
  Cr  Cr2  1  0.00353245  0.00380661  0.33771425  1
  Fe  Fe3  1  0.00668736  0.33833278  0.00388057  1
  Ni  Ni4  1  0.17140863  0.50416248  0.17047029  1
  Ni  Ni5  1  0.00445608  0.33893393  0.33540143  1
  Ni  Ni6  1  1.00279533  0.66991839  1.00290712  1
  Fe  Fe7  1  0.17077164  0.83551686  0.16834073  1
  Ni  Ni8  1  1.00095341  0.66755141  0.33507470  1
  Fe  Fe9  1  0.33466667  1.00224162  1.00290504  1
  Ni  Ni10  1  0.50335116  0.17209191  0.16834031  1
  Ni  Ni11  1  0.33799648  0.00591132  0.33425998  1
  Ni  Ni12  1  0.33701250  0.33692295  1.00244695  1
  Ni  Ni13  1  0.50140544  0.50174197  0.17136389  1
  Ni  Ni14  1  0.33638015  0.33539113  0.33672683  1
  Ni  Ni15  1  0.33600163  0.66759369  1.00242359  1
  Fe  Fe16  1  0.50268381  0.83488937  0.16957683  1
  Fe  Fe17  1  0.33752650  0.66833630  0.33509049  1
  Fe  Fe18  1  0.66937810  1.00118258  0.00450703  1
  Ni  Ni19  1  0.83600992  0.16992556  0.16969085  1
  Cr  Cr20  1  0.66772830  1.00213570  0.33788138  1
  Fe  Fe21  1  0.66886482  0.33866480  0.00499918  1
  Fe  Fe22  1  0.83571343  0.50250863  0.17103687  1
  Ni  Ni23  1  0.66878636  0.33804596  0.33711244  1
  Fe  Fe24  1  0.66909819  0.66941811  1.00295468  1
  Ni  Ni25  1  0.83805437  0.83631581  0.16883635  1
  Ni  Ni26  1  0.67084766  0.66898193  0.33611739  1
  Fe  Fe27  1  0.17203170  0.17233046  0.50454991  1
  Fe  Fe28  1  0.00534158  1.00279007  0.67093039  1
  Ni  Ni29  1  0.17014350  0.16973240  0.83718447  1
  Fe  Fe30  1  0.16971675  0.50226945  0.50299204  1
  Ni  Ni31  1  0.00613123  0.33927744  0.66957531  1
  Ni  Ni32  1  0.17196714  0.50369157  0.83565438  1
  Cr  Cr33  1  0.17042084  0.83473974  0.50425196  1
  Ni  Ni34  1  1.00104725  0.66810640  0.67146402  1
  Ni  Ni35  1  0.16854384  0.83609966  0.83676600  1
  Ni  Ni36  1  0.50095238  0.17252970  0.50351863  1
  Ni  Ni37  1  0.33704990  0.00551682  0.67212473  1
  Fe  Fe38  1  0.50005376  0.17062804  0.83729881  1
  Ni  Ni39  1  0.50325395  0.50263929  0.50258493  1
  Ni  Ni40  1  0.33565303  0.33578202  0.67036548  1
  Ni  Ni41  1  0.50286552  0.50207458  0.83581082  1
  Ni  Ni42  1  0.50167184  0.83424696  0.50230079  1
  Fe  Fe43  1  0.33779395  0.66861790  0.67141424  1
  Fe  Fe44  1  0.50115760  0.83475894  0.83647879  1
  Fe  Fe45  1  0.83626588  0.17356433  0.50345996  1
  Cr  Cr46  1  0.66754065  1.00038331  0.66704189  1
  Cr  Cr47  1  0.83668548  0.17020864  0.83606669  1
  Ni  Ni48  1  0.83602415  0.50369759  0.50266116  1
  Fe  Fe49  1  0.66858139  0.33968268  0.66824879  1
  Fe  Fe50  1  0.83830179  0.50489643  0.83540751  1
  Ni  Ni51  1  0.83748114  0.83307175  0.50440663  1
  Ni  Ni52  1  0.67089067  0.66968364  0.67055145  1
  Ni  Ni53  1  0.83807816  0.83604777  0.83657869  1
" 