3432,Ni55Fe36Cr7_3,-238.516442008639, 212.374067343417,Ni55Fe36Cr7,"# generated using pymatgen
 data_Cr5Fe19Ni30
_symmetry_space_group_name_H-M   'P 1'
_cell_length_a   7.42561493
_cell_length_b   7.42561493
_cell_length_c   10.50140535
_cell_angle_alpha   90.00000000
_cell_angle_beta   90.00000000
_cell_angle_gamma   90.00000000
_symmetry_Int_Tables_number   1
_chemical_formula_structural   Cr5Fe19Ni30
_chemical_formula_sum   'Cr5 Fe19 Ni30'
_cell_volume   579.04494014
_cell_formula_units_Z   1
loop_
 _symmetry_equiv_pos_site_id
 _symmetry_equiv_pos_as_xyz
  1  'x, y, z'
loop_
 _atom_site_type_symbol
 _atom_site_label
 _atom_site_symmetry_multiplicity
 _atom_site_fract_x
 _atom_site_fract_y
 _atom_site_fract_z
 _atom_site_occupancy
  Fe  Fe0  1  0.00282262  0.00364500  0.00340995  1
  Ni  Ni1  1  0.16777661  0.16999256  0.17109324  1
  Ni  Ni2  1  0.00373480  0.00362567  0.33632938  1
  Fe  Fe3  1  1.00241172  0.33622782  1.00255714  1
  Ni  Ni4  1  0.16904697  0.50377596  0.17015553  1
  Ni  Ni5  1  1.00260337  0.33547170  0.33645648  1
  Fe  Fe6  1  0.00665626  0.66850220  0.00318225  1
  Fe  Fe7  1  0.17049279  0.83514286  0.17078757  1
  Ni  Ni8  1  1.00177956  0.66927275  0.33549128  1
  Cr  Cr9  1  0.33527455  1.00047884  1.00277164  1
  Ni  Ni10  1  0.50469872  0.16914805  0.17078232  1
  Ni  Ni11  1  0.33594871  0.00306409  0.33594483  1
  Cr  Cr12  1  0.33533316  0.33777759  0.00339470  1
  Ni  Ni13  1  0.50206360  0.50325249  0.17066871  1
  Fe  Fe14  1  0.33511197  0.33653442  0.33621820  1
  Ni  Ni15  1  0.33571705  0.67020817  1.00165770  1
  Ni  Ni16  1  0.50373841  0.83597000  0.17068614  1
  Ni  Ni17  1  0.33734476  0.67040049  0.33528255  1
  Fe  Fe18  1  0.66993394  0.00395146  0.00426441  1
  Fe  Fe19  1  0.83602145  0.16999338  0.16945341  1
  Fe  Fe20  1  0.66975277  1.00188257  0.33614357  1
  Fe  Fe21  1  0.67065790  0.33560138  0.00303956  1
  Fe  Fe22  1  0.83657892  0.50171754  0.17130124  1
  Fe  Fe23  1  0.66944250  0.33665912  0.33695724  1
  Cr  Cr24  1  0.66718371  0.66837786  1.00230800  1
  Fe  Fe25  1  0.83652100  0.83665804  0.17112694  1
  Ni  Ni26  1  0.66924682  0.66926876  0.33690425  1
  Ni  Ni27  1  0.16931763  0.16940530  0.50290636  1
  Fe  Fe28  1  0.00370323  0.00482052  0.66823179  1
  Ni  Ni29  1  0.16537964  0.17011674  0.83436989  1
  Ni  Ni30  1  0.16934398  0.50319665  0.50232355  1
  Ni  Ni31  1  1.00243783  0.33593264  0.67072561  1
  Ni  Ni32  1  0.16948389  0.50407896  0.83588866  1
  Ni  Ni33  1  0.16767719  0.83576860  0.50216987  1
  Ni  Ni34  1  0.00284731  0.66858544  0.66900477  1
  Ni  Ni35  1  0.16979451  0.83416874  0.83685736  1
  Ni  Ni36  1  0.50318248  0.17024812  0.50218489  1
  Fe  Fe37  1  0.33441192  0.00308391  0.66855376  1
  Cr  Cr38  1  0.50480103  0.17041635  0.83528079  1
  Ni  Ni39  1  0.50291079  0.50210698  0.50232645  1
  Ni  Ni40  1  0.33560645  0.33576587  0.66872170  1
  Ni  Ni41  1  0.50172120  0.50466018  0.83537205  1
  Fe  Fe42  1  0.50262187  0.83602413  0.50202268  1
  Fe  Fe43  1  0.33547281  0.66766595  0.67019534  1
  Ni  Ni44  1  0.50141128  0.83358913  0.83465654  1
  Ni  Ni45  1  0.83586925  0.16858364  0.50265623  1
  Fe  Fe46  1  0.67025156  0.00407321  0.66796222  1
  Ni  Ni47  1  0.83774698  0.17043195  0.83722108  1
  Ni  Ni48  1  0.83611246  0.50374420  0.50294336  1
  Ni  Ni49  1  0.67032541  0.33683062  0.66992311  1
  Fe  Fe50  1  0.83744154  0.50002650  0.83426355  1
  Ni  Ni51  1  0.83695425  0.83604044  0.50209997  1
  Fe  Fe52  1  0.66892724  0.66694412  0.66827720  1
  Cr  Cr53  1  0.83700340  0.83774213  0.83514485  1
" 