2826,Ni55Fe36Cr7_5,-238.570034530652, 215.8598587293,Ni55Fe36Cr7,"# generated using pymatgen
 data_Cr5Fe19Ni30
_symmetry_space_group_name_H-M   'P 1'
_cell_length_a   7.41941346
_cell_length_b   7.41941346
_cell_length_c   10.49263514
_cell_angle_alpha   90.00000000
_cell_angle_beta   90.00000000
_cell_angle_gamma   90.00000000
_symmetry_Int_Tables_number   1
_chemical_formula_structural   Cr5Fe19Ni30
_chemical_formula_sum   'Cr5 Fe19 Ni30'
_cell_volume   577.59539092
_cell_formula_units_Z   1
loop_
 _symmetry_equiv_pos_site_id
 _symmetry_equiv_pos_as_xyz
  1  'x, y, z'
loop_
 _atom_site_type_symbol
 _atom_site_label
 _atom_site_symmetry_multiplicity
 _atom_site_fract_x
 _atom_site_fract_y
 _atom_site_fract_z
 _atom_site_occupancy
  Fe  Fe0  1  0.00364020  0.00362600  0.00355916  1
  Fe  Fe1  1  0.16733049  0.16866977  0.17054536  1
  Ni  Ni2  1  1.00010305  1.00150699  0.33488443  1
  Ni  Ni3  1  1.00086335  0.33839774  0.00489051  1
  Fe  Fe4  1  0.16879834  0.50572295  0.17142648  1
  Ni  Ni5  1  1.00273877  0.33837944  0.33526647  1
  Fe  Fe6  1  0.00341196  0.67016553  0.00329009  1
  Ni  Ni7  1  0.16964116  0.83704390  0.16840569  1
  Ni  Ni8  1  0.00357492  0.66970617  0.33730385  1
  Ni  Ni9  1  0.33688398  0.99940846  0.00378921  1
  Cr  Cr10  1  0.50299150  0.16953906  0.17031938  1
  Fe  Fe11  1  0.33484564  1.00050469  0.33717115  1
  Cr  Cr12  1  0.33621982  0.33908302  0.00378380  1
  Ni  Ni13  1  0.50476718  0.50515174  0.17108212  1
  Fe  Fe14  1  0.33629755  0.33807747  0.33769392  1
  Ni  Ni15  1  0.33631896  0.67125099  0.00335786  1
  Ni  Ni16  1  0.50225580  0.83359516  0.17079931  1
  Fe  Fe17  1  0.33464316  0.67127231  0.33692082  1
  Cr  Cr18  1  0.67117469  1.00190097  1.00235251  1
  Ni  Ni19  1  0.83865611  0.17123735  0.17061377  1
  Ni  Ni20  1  0.66972604  1.00206359  0.33802316  1
  Ni  Ni21  1  0.67262957  0.33750023  1.00225371  1
  Ni  Ni22  1  0.83616250  0.50346611  0.16816024  1
  Fe  Fe23  1  0.67290700  0.33682870  0.33669400  1
  Fe  Fe24  1  0.66855897  0.66806497  1.00283382  1
  Ni  Ni25  1  0.83735697  0.83465374  0.16983336  1
  Fe  Fe26  1  0.67274886  0.67028484  0.33711418  1
  Cr  Cr27  1  0.16957680  0.16930428  0.50298521  1
  Ni  Ni28  1  1.00090589  1.00181321  0.66947993  1
  Cr  Cr29  1  0.16992414  0.17006743  0.83602618  1
  Ni  Ni30  1  0.16870080  0.50390871  0.50415548  1
  Ni  Ni31  1  1.00230819  0.33798692  0.66891406  1
  Fe  Fe32  1  0.16815300  0.50599170  0.83467254  1
  Ni  Ni33  1  0.16930799  0.83497766  0.50568042  1
  Ni  Ni34  1  1.00264213  0.66987143  0.66953707  1
  Fe  Fe35  1  0.16931697  0.83589201  0.83570272  1
  Ni  Ni36  1  0.50380234  0.17019898  0.50522883  1
  Ni  Ni37  1  0.33876883  1.00171051  0.67009116  1
  Fe  Fe38  1  0.50546076  0.16844696  0.83495757  1
  Fe  Fe39  1  0.50302089  0.50483055  0.50292529  1
  Ni  Ni40  1  0.33786567  0.33863533  0.66995948  1
  Fe  Fe41  1  0.50490588  0.50439806  0.83637887  1
  Ni  Ni42  1  0.50344408  0.83730216  0.50256240  1
  Ni  Ni43  1  0.33721261  0.66982639  0.66919487  1
  Ni  Ni44  1  0.50229228  0.83427031  0.83641055  1
  Fe  Fe45  1  0.83609156  0.16886275  0.50248267  1
  Fe  Fe46  1  0.67026589  1.00146104  0.66963477  1
  Ni  Ni47  1  0.83785724  0.17146549  0.83462443  1
  Ni  Ni48  1  0.83718596  0.50347376  0.50429229  1
  Fe  Fe49  1  0.67018061  0.33748198  0.67017266  1
  Fe  Fe50  1  0.83676266  0.50375941  0.83598119  1
  Ni  Ni51  1  0.83653186  0.83444270  0.50353145  1
  Ni  Ni52  1  0.66944159  0.67078229  0.66937804  1
  Ni  Ni53  1  0.83617233  0.83508158  0.83601702  1
" 