1563,Ni55Cr45_4,-217.696781544476, 136.238907576946,Ni55Cr45,"# generated using pymatgen
 data_Cr29Ni25
_symmetry_space_group_name_H-M   'P 1'
_cell_length_a   7.52790452
_cell_length_b   7.52790452
_cell_length_c   10.64606467
_cell_angle_alpha   90.00000000
_cell_angle_beta   90.00000000
_cell_angle_gamma   90.00000000
_symmetry_Int_Tables_number   1
_chemical_formula_structural   Cr29Ni25
_chemical_formula_sum   'Cr29 Ni25'
_cell_volume   603.30552751
_cell_formula_units_Z   1
loop_
 _symmetry_equiv_pos_site_id
 _symmetry_equiv_pos_as_xyz
  1  'x, y, z'
loop_
 _atom_site_type_symbol
 _atom_site_label
 _atom_site_symmetry_multiplicity
 _atom_site_fract_x
 _atom_site_fract_y
 _atom_site_fract_z
 _atom_site_occupancy
  Ni  Ni0  1  -0.00300278  0.99199765  -0.00165448  1
  Ni  Ni1  1  0.16464348  0.16064786  0.16433339  1
  Cr  Cr2  1  0.99571642  0.99442776  0.32936189  1
  Cr  Cr3  1  0.99587735  0.33008856  -0.00104831  1
  Ni  Ni4  1  0.16075590  0.49869519  0.16355644  1
  Cr  Cr5  1  -0.00267260  0.32975488  0.32673280  1
  Ni  Ni6  1  -0.00228353  0.66441940  -0.00142754  1
  Ni  Ni7  1  0.16035698  0.82856910  0.16111807  1
  Ni  Ni8  1  0.99301130  0.66421806  0.32576503  1
  Cr  Cr9  1  0.32832293  0.99446247  -0.00359654  1
  Ni  Ni10  1  0.49408626  0.16005099  0.16506830  1
  Ni  Ni11  1  0.33109534  -0.00302758  0.32759277  1
  Cr  Cr12  1  0.32823328  0.33003421  0.00207126  1
  Cr  Cr13  1  0.49530433  0.49680082  0.16484690  1
  Ni  Ni14  1  0.32814063  0.32614151  0.32511251  1
  Ni  Ni15  1  0.32511760  0.66535786  0.99543089  1
  Cr  Cr16  1  0.49873693  0.83130440  0.16346699  1
  Cr  Cr17  1  0.32784391  0.66426809  0.32855718  1
  Ni  Ni18  1  0.66325039  0.99365317  -0.00242341  1
  Cr  Cr19  1  0.82746070  0.15612635  0.16062124  1
  Ni  Ni20  1  0.66183946  0.99304324  0.33022974  1
  Cr  Cr21  1  0.66330969  0.32850547  -0.00270314  1
  Ni  Ni22  1  0.83239728  0.50061150  0.16292281  1
  Cr  Cr23  1  0.66353623  0.32836975  0.32678329  1
  Cr  Cr24  1  0.66269983  0.66217223  0.99469078  1
  Ni  Ni25  1  0.83178327  0.82670429  0.16294225  1
  Ni  Ni26  1  0.66606328  0.66694163  0.32999455  1
  Cr  Cr27  1  0.16333904  0.16395502  0.49773506  1
  Cr  Cr28  1  -0.00356115  0.99567447  0.66084259  1
  Cr  Cr29  1  0.16152834  0.16081489  0.82623472  1
  Cr  Cr30  1  0.16288225  0.49464057  0.49565345  1
  Ni  Ni31  1  0.99341183  0.32923892  0.66218666  1
  Cr  Cr32  1  0.16112218  0.49739070  0.82851832  1
  Cr  Cr33  1  0.16299731  0.83002806  0.49477798  1
  Cr  Cr34  1  0.99502537  0.66368654  0.66241297  1
  Ni  Ni35  1  0.16431856  0.82931821  0.83174717  1
  Cr  Cr36  1  0.49515384  0.16203534  0.49422749  1
  Ni  Ni37  1  0.33064659  0.99569969  0.66337976  1
  Cr  Cr38  1  0.49672852  0.16142290  0.82936583  1
  Cr  Cr39  1  0.49523570  0.49636883  0.49489084  1
  Ni  Ni40  1  0.32965308  0.32764787  0.66225846  1
  Cr  Cr41  1  0.49587214  0.49586991  0.82819630  1
  Ni  Ni42  1  0.49747191  0.83194047  0.49371087  1
  Cr  Cr43  1  0.33095924  0.66745975  0.66499312  1
  Ni  Ni44  1  0.49383872  0.83041001  0.83048374  1
  Ni  Ni45  1  0.82756377  0.16130523  0.49756164  1
  Cr  Cr46  1  0.66124577  0.99407565  0.66053087  1
  Cr  Cr47  1  0.82948438  0.16300476  0.82948445  1
  Cr  Cr48  1  0.82989445  0.49691225  0.49558414  1
  Ni  Ni49  1  0.66453879  0.32888684  0.66280009  1
  Ni  Ni50  1  0.83072156  0.49594893  0.82812301  1
  Ni  Ni51  1  0.82621681  0.83054279  0.49118911  1
  Cr  Cr52  1  0.66223186  0.66356791  0.66175732  1
  Cr  Cr53  1  0.83158253  0.82954186  0.83473560  1
" 