959,Ni55Cr45_17,-217.904408067308, 140.16151595346,Ni55Cr45,"# generated using pymatgen
 data_Cr29Ni25
_symmetry_space_group_name_H-M   'P 1'
_cell_length_a   7.52195946
_cell_length_b   7.52195946
_cell_length_c   10.63765708
_cell_angle_alpha   90.00000000
_cell_angle_beta   90.00000000
_cell_angle_gamma   90.00000000
_symmetry_Int_Tables_number   1
_chemical_formula_structural   Cr29Ni25
_chemical_formula_sum   'Cr29 Ni25'
_cell_volume   601.87729806
_cell_formula_units_Z   1
loop_
 _symmetry_equiv_pos_site_id
 _symmetry_equiv_pos_as_xyz
  1  'x, y, z'
loop_
 _atom_site_type_symbol
 _atom_site_label
 _atom_site_symmetry_multiplicity
 _atom_site_fract_x
 _atom_site_fract_y
 _atom_site_fract_z
 _atom_site_occupancy
  Ni  Ni0  1  0.99415459  -0.00336019  0.99600325  1
  Ni  Ni1  1  0.15968683  0.16551078  0.16177643  1
  Cr  Cr2  1  0.99543515  0.99561748  0.32890352  1
  Cr  Cr3  1  -0.00260501  0.32883304  0.99626196  1
  Ni  Ni4  1  0.16200440  0.49508858  0.16323257  1
  Ni  Ni5  1  0.99477096  0.33062247  0.32632653  1
  Ni  Ni6  1  0.99448852  0.66432159  0.99619822  1
  Cr  Cr7  1  0.15836114  0.82911289  0.16210049  1
  Ni  Ni8  1  0.99430259  0.66333471  0.32992230  1
  Cr  Cr9  1  0.32605261  -0.00168758  0.99614501  1
  Cr  Cr10  1  0.49773679  0.16365906  0.16259157  1
  Cr  Cr11  1  0.32850394  0.99618674  0.33152343  1
  Ni  Ni12  1  0.32798355  0.32983178  -0.00151539  1
  Ni  Ni13  1  0.49720188  0.49587036  0.16282707  1
  Cr  Cr14  1  0.32853070  0.32975598  0.32647482  1
  Cr  Cr15  1  0.32869500  0.65989219  -0.00289325  1
  Cr  Cr16  1  0.50114163  0.82811068  0.16040423  1
  Cr  Cr17  1  0.32890750  0.66290826  0.32904262  1
  Ni  Ni18  1  0.66861015  0.99616743  -0.00240504  1
  Ni  Ni19  1  0.83154180  0.16167691  0.16281948  1
  Cr  Cr20  1  0.66504865  0.99508393  0.32977749  1
  Cr  Cr21  1  0.66534732  0.33082632  0.99483106  1
  Cr  Cr22  1  0.83072370  0.49850213  0.16506387  1
  Ni  Ni23  1  0.66411206  0.33054902  0.32953638  1
  Ni  Ni24  1  0.66647502  0.66313032  -0.00211363  1
  Ni  Ni25  1  0.83050368  0.82958560  0.16151508  1
  Ni  Ni26  1  0.66604518  0.66200092  0.32841457  1
  Cr  Cr27  1  0.16146957  0.16282119  0.49587288  1
  Ni  Ni28  1  -0.00310314  0.99361358  0.66419856  1
  Ni  Ni29  1  0.16007039  0.16012661  0.83119619  1
  Cr  Cr30  1  0.15980024  0.49848750  0.49572895  1
  Cr  Cr31  1  0.99333181  0.32903370  0.66643407  1
  Cr  Cr32  1  0.16103915  0.49877906  0.82953859  1
  Ni  Ni33  1  0.15828609  0.82782678  0.49901648  1
  Ni  Ni34  1  -0.00264121  0.66651202  0.66294016  1
  Ni  Ni35  1  0.15956217  0.83086483  0.82799722  1
  Ni  Ni36  1  0.49840835  0.16521727  0.49632576  1
  Cr  Cr37  1  0.32690165  0.99472017  0.66128285  1
  Cr  Cr38  1  0.49720361  0.16236303  0.82981263  1
  Cr  Cr39  1  0.49797779  0.49437335  0.49652158  1
  Cr  Cr40  1  0.33020080  0.32972458  0.66405552  1
  Cr  Cr41  1  0.49755216  0.49684293  0.82983965  1
  Cr  Cr42  1  0.49641765  0.82918305  0.49647459  1
  Ni  Ni43  1  0.32596492  0.66499997  0.66294235  1
  Cr  Cr44  1  0.49545208  0.82948043  0.83245965  1
  Cr  Cr45  1  0.82941692  0.16463201  0.49606989  1
  Cr  Cr46  1  0.66654119  -0.00215381  0.66194311  1
  Ni  Ni47  1  0.83179834  0.16214731  0.82959033  1
  Cr  Cr48  1  0.83113534  0.49694054  0.49534904  1
  Ni  Ni49  1  0.66456726  0.32894257  0.66389617  1
  Ni  Ni50  1  0.83031682  0.49693164  0.82899807  1
  Ni  Ni51  1  0.83385381  0.82794179  0.49560641  1
  Cr  Cr52  1  0.66560231  0.66171925  0.66360068  1
  Cr  Cr53  1  0.83200805  0.82969171  0.83243843  1
" 