8978,Ni55Fe36Cr7_11,-238.222804247933, 215.580241287421,Ni55Fe36Cr7,"# generated using pymatgen
 data_Cr5Fe19Ni30
_symmetry_space_group_name_H-M   'P 1'
_cell_length_a   7.41700830
_cell_length_b   7.41700830
_cell_length_c   10.48923374
_cell_angle_alpha   90.00000000
_cell_angle_beta   90.00000000
_cell_angle_gamma   90.00000000
_symmetry_Int_Tables_number   1
_chemical_formula_structural   Cr5Fe19Ni30
_chemical_formula_sum   'Cr5 Fe19 Ni30'
_cell_volume   577.03385403
_cell_formula_units_Z   1
loop_
 _symmetry_equiv_pos_site_id
 _symmetry_equiv_pos_as_xyz
  1  'x, y, z'
loop_
 _atom_site_type_symbol
 _atom_site_label
 _atom_site_symmetry_multiplicity
 _atom_site_fract_x
 _atom_site_fract_y
 _atom_site_fract_z
 _atom_site_occupancy
  Fe  Fe0  1  0.00375592  0.00338242  0.00393390  1
  Ni  Ni1  1  0.17154481  0.17032053  0.16953256  1
  Ni  Ni2  1  1.00209899  0.00448282  0.33584769  1
  Ni  Ni3  1  1.00262741  0.33519853  1.00309912  1
  Ni  Ni4  1  0.17094839  0.50289444  0.17064045  1
  Fe  Fe5  1  0.00461217  0.33508477  0.33726313  1
  Ni  Ni6  1  1.00229022  0.66998192  1.00332104  1
  Fe  Fe7  1  0.16889366  0.83823093  0.17083841  1
  Fe  Fe8  1  0.00406594  0.67179878  0.33721244  1
  Ni  Ni9  1  0.33720588  0.00556544  1.00310955  1
  Ni  Ni10  1  0.50208659  0.16923009  0.16935555  1
  Ni  Ni11  1  0.33695204  0.00399867  0.33674420  1
  Fe  Fe12  1  0.33577404  0.33331527  0.00521791  1
  Fe  Fe13  1  0.50162850  0.50127365  0.17254956  1
  Ni  Ni14  1  0.33665745  0.33708477  0.33568650  1
  Cr  Cr15  1  0.33584584  0.67168455  0.00522566  1
  Fe  Fe16  1  0.50332921  0.83903669  0.17152372  1
  Ni  Ni17  1  0.33825350  0.66903585  0.33604277  1
  Fe  Fe18  1  0.67004224  0.00482596  0.00404558  1
  Ni  Ni19  1  0.83648539  0.16736463  0.16986071  1
  Ni  Ni20  1  0.67106843  1.00288472  0.33595610  1
  Fe  Fe21  1  0.67035967  0.33357870  1.00323345  1
  Cr  Cr22  1  0.83829151  0.50441249  0.17120463  1
  Fe  Fe23  1  0.66822738  0.33515823  0.33786082  1
  Cr  Cr24  1  0.67143345  0.67101936  1.00316924  1
  Ni  Ni25  1  0.83726782  0.83817418  0.17035661  1
  Ni  Ni26  1  0.66896674  0.67095273  0.33738746  1
  Ni  Ni27  1  0.17091345  0.16971093  0.50344079  1
  Ni  Ni28  1  1.00320028  0.00422223  0.67108929  1
  Ni  Ni29  1  0.17105322  0.16821188  0.83714771  1
  Fe  Fe30  1  0.17008628  0.50253519  0.50353950  1
  Ni  Ni31  1  1.00206531  0.33597422  0.66921087  1
  Cr  Cr32  1  0.16706847  0.50220729  0.83545416  1
  Fe  Fe33  1  0.16975307  0.83729214  0.50373791  1
  Ni  Ni34  1  1.00172496  0.66992639  0.67004220  1
  Fe  Fe35  1  0.17010431  0.83909244  0.83554611  1
  Ni  Ni36  1  0.50190026  0.17019083  0.50384839  1
  Ni  Ni37  1  0.33711007  0.00371655  0.67026528  1
  Ni  Ni38  1  0.50188569  0.16712068  0.83691636  1
  Ni  Ni39  1  0.50326478  0.50364719  0.50332885  1
  Ni  Ni40  1  0.33681722  0.33505492  0.66946874  1
  Cr  Cr41  1  0.50434364  0.50210321  0.83562780  1
  Fe  Fe42  1  0.50389388  0.83696277  0.50340694  1
  Ni  Ni43  1  0.33766759  0.67134979  0.66883244  1
  Ni  Ni44  1  0.50354794  0.84040078  0.83470105  1
  Ni  Ni45  1  0.83730487  0.16938701  0.50308266  1
  Fe  Fe46  1  0.66980444  0.00351055  0.66959279  1
  Fe  Fe47  1  0.83676200  0.17076128  0.83665896  1
  Ni  Ni48  1  0.83650576  0.50501469  0.50375876  1
  Fe  Fe49  1  0.67078290  0.33613241  0.66902528  1
  Ni  Ni50  1  0.83831038  0.50429759  0.83596218  1
  Ni  Ni51  1  0.83698699  0.83571836  0.50335841  1
  Fe  Fe52  1  0.67103990  0.67047909  0.66897864  1
  Fe  Fe53  1  0.83754633  0.83716564  0.83591630  1
" 