7250,Ni55Fe36Cr7_7,-238.258138025835, 210.970313230117,Ni55Fe36Cr7,"# generated using pymatgen
 data_Cr5Fe19Ni30
_symmetry_space_group_name_H-M   'P 1'
_cell_length_a   7.41823215
_cell_length_b   7.41823215
_cell_length_c   10.49096451
_cell_angle_alpha   90.00000000
_cell_angle_beta   90.00000000
_cell_angle_gamma   90.00000000
_symmetry_Int_Tables_number   1
_chemical_formula_structural   Cr5Fe19Ni30
_chemical_formula_sum   'Cr5 Fe19 Ni30'
_cell_volume   577.31954109
_cell_formula_units_Z   1
loop_
 _symmetry_equiv_pos_site_id
 _symmetry_equiv_pos_as_xyz
  1  'x, y, z'
loop_
 _atom_site_type_symbol
 _atom_site_label
 _atom_site_symmetry_multiplicity
 _atom_site_fract_x
 _atom_site_fract_y
 _atom_site_fract_z
 _atom_site_occupancy
  Fe  Fe0  1  0.00439573  0.00601905  0.00366318  1
  Ni  Ni1  1  0.17012508  0.16962433  0.16997341  1
  Fe  Fe2  1  0.00399179  0.00385447  0.33647377  1
  Ni  Ni3  1  0.00353047  0.33707912  1.00212563  1
  Fe  Fe4  1  0.17071295  0.50187410  0.17024881  1
  Ni  Ni5  1  1.00283901  0.33569998  0.33763704  1
  Fe  Fe6  1  0.00561499  0.66809142  1.00316576  1
  Ni  Ni7  1  0.16937847  0.83678658  0.16914578  1
  Fe  Fe8  1  1.00317688  0.66923168  0.33620758  1
  Ni  Ni9  1  0.33614166  0.00349667  1.00309389  1
  Ni  Ni10  1  0.50322021  0.17032183  0.16996177  1
  Ni  Ni11  1  0.33745491  1.00320889  0.33719800  1
  Ni  Ni12  1  0.33556250  0.33516593  0.00359175  1
  Fe  Fe13  1  0.50152736  0.50235156  0.17028132  1
  Fe  Fe14  1  0.33534409  0.33543855  0.33545359  1
  Fe  Fe15  1  0.33480892  0.66871298  0.00377224  1
  Ni  Ni16  1  0.50251727  0.83803042  0.17120742  1
  Ni  Ni17  1  0.33793821  0.67201571  0.33404410  1
  Ni  Ni18  1  0.66809288  0.00544509  0.00573557  1
  Fe  Fe19  1  0.83778736  0.16980810  0.16900198  1
  Fe  Fe20  1  0.66911870  1.00317498  0.33685058  1
  Ni  Ni21  1  0.67080507  0.33543830  0.00379845  1
  Fe  Fe22  1  0.83756620  0.50159086  0.17045978  1
  Fe  Fe23  1  0.66967372  0.33607291  0.33560783  1
  Cr  Cr24  1  0.66887314  0.66866643  1.00215796  1
  Fe  Fe25  1  0.83669829  0.83877886  0.17137864  1
  Ni  Ni26  1  0.66985834  0.67119609  0.33739057  1
  Ni  Ni27  1  0.16990372  0.17245990  0.50335408  1
  Ni  Ni28  1  1.00289289  0.00563092  0.67032022  1
  Fe  Fe29  1  0.16944293  0.17056994  0.83699152  1
  Ni  Ni30  1  0.16873011  0.50139466  0.50181924  1
  Ni  Ni31  1  1.00311816  0.33669239  0.67014532  1
  Ni  Ni32  1  0.16942461  0.50354754  0.83706403  1
  Cr  Cr33  1  0.16952180  0.83578242  0.50354293  1
  Ni  Ni34  1  0.00524051  0.66762609  0.66913844  1
  Ni  Ni35  1  0.16899287  0.83594469  0.83720933  1
  Ni  Ni36  1  0.50342624  0.16957009  0.50273741  1
  Fe  Fe37  1  0.33544091  0.00624187  0.66929105  1
  Ni  Ni38  1  0.50495269  0.17242471  0.83742777  1
  Cr  Cr39  1  0.50158715  0.50238224  0.50388942  1
  Fe  Fe40  1  0.33496452  0.33570620  0.67122151  1
  Ni  Ni41  1  0.50265055  0.49899576  0.83671388  1
  Ni  Ni42  1  0.50542271  0.83775525  0.50363686  1
  Ni  Ni43  1  0.33552203  0.66960663  0.67127100  1
  Cr  Cr44  1  0.50165114  0.83901590  0.83410174  1
  Fe  Fe45  1  0.83722485  0.16988506  0.50460941  1
  Ni  Ni46  1  0.66968754  0.00585300  0.66759302  1
  Ni  Ni47  1  0.83548215  0.17169699  0.83783154  1
  Fe  Fe48  1  0.83794676  0.50286851  0.50357272  1
  Ni  Ni49  1  0.67172634  0.33456818  0.67143713  1
  Ni  Ni50  1  0.83794341  0.50010398  0.83505472  1
  Ni  Ni51  1  0.83575784  0.83647162  0.50290096  1
  Fe  Fe52  1  0.67257234  0.66887011  0.66897753  1
  Cr  Cr53  1  0.83969174  0.83883322  0.83619354  1
" 