7453,Ni55Cr45_13,-217.571303570223, 133.833869974109,Ni55Cr45,"# generated using pymatgen
 data_Cr29Ni25
_symmetry_space_group_name_H-M   'P 1'
_cell_length_a   7.52929330
_cell_length_b   7.52929330
_cell_length_c   10.64802870
_cell_angle_alpha   90.00000000
_cell_angle_beta   90.00000000
_cell_angle_gamma   90.00000000
_symmetry_Int_Tables_number   1
_chemical_formula_structural   Cr29Ni25
_chemical_formula_sum   'Cr29 Ni25'
_cell_volume   603.63948973
_cell_formula_units_Z   1
loop_
 _symmetry_equiv_pos_site_id
 _symmetry_equiv_pos_as_xyz
  1  'x, y, z'
loop_
 _atom_site_type_symbol
 _atom_site_label
 _atom_site_symmetry_multiplicity
 _atom_site_fract_x
 _atom_site_fract_y
 _atom_site_fract_z
 _atom_site_occupancy
  Ni  Ni0  1  -0.00053920  -0.00362942  -0.00262238  1
  Cr  Cr1  1  0.16090043  0.16475836  0.16157049  1
  Ni  Ni2  1  0.99416122  0.99498262  0.32906491  1
  Ni  Ni3  1  -0.00108706  0.32931817  -0.00396936  1
  Ni  Ni4  1  0.15999060  0.49722489  0.16463500  1
  Ni  Ni5  1  -0.00329572  0.32790570  0.32757975  1
  Ni  Ni6  1  0.00038160  0.66194446  -0.00329689  1
  Ni  Ni7  1  0.15974670  0.82797904  0.16310485  1
  Ni  Ni8  1  0.00138407  0.66426539  0.32783867  1
  Ni  Ni9  1  0.32454813  -0.00324613  0.99433253  1
  Cr  Cr10  1  0.49445282  0.16142652  0.16356998  1
  Cr  Cr11  1  0.32659136  0.99310532  0.33001404  1
  Cr  Cr12  1  0.32845015  0.33025462  0.99203855  1
  Cr  Cr13  1  0.49045190  0.49470733  0.16578411  1
  Ni  Ni14  1  0.32786250  0.33215401  0.33073314  1
  Cr  Cr15  1  0.32639102  0.66286004  -0.00245169  1
  Cr  Cr16  1  0.49189104  0.83103457  0.16286334  1
  Ni  Ni17  1  0.32373772  0.66065560  0.32934483  1
  Cr  Cr18  1  0.66280932  -0.00247768  -0.00293601  1
  Ni  Ni19  1  0.83347969  0.16144049  0.16423032  1
  Ni  Ni20  1  0.66621289  -0.00084599  0.33070781  1
  Cr  Cr21  1  0.66325669  0.32961882  0.99529207  1
  Cr  Cr22  1  0.83574020  0.49300866  0.16154767  1
  Cr  Cr23  1  0.66327968  0.32733347  0.33076118  1
  Cr  Cr24  1  0.66298570  0.66010939  -0.00406436  1
  Cr  Cr25  1  0.83221907  0.83103444  0.16204761  1
  Cr  Cr26  1  0.66226337  0.66330275  0.32822126  1
  Cr  Cr27  1  0.16180871  0.16366155  0.49268575  1
  Cr  Cr28  1  -0.00344745  -0.00397407  0.65980927  1
  Ni  Ni29  1  0.16381579  0.16402863  0.83309254  1
  Cr  Cr30  1  0.16346859  0.49744476  0.49386017  1
  Cr  Cr31  1  -0.00244076  0.32837718  0.66397800  1
  Ni  Ni32  1  0.16263760  0.49606418  0.82965469  1
  Ni  Ni33  1  0.16159990  0.82569512  0.49444839  1
  Ni  Ni34  1  -0.00089610  0.66271406  0.66282591  1
  Cr  Cr35  1  0.16158185  0.82930557  0.82918641  1
  Ni  Ni36  1  0.49805762  0.16322185  0.49481016  1
  Cr  Cr37  1  0.32788240  -0.00293935  0.66335892  1
  Ni  Ni38  1  0.49385366  0.16220221  0.82912092  1
  Ni  Ni39  1  0.49341803  0.49604428  0.49603645  1
  Cr  Cr40  1  0.32994707  0.32990855  0.66477432  1
  Ni  Ni41  1  0.49345507  0.49633539  0.82604406  1
  Cr  Cr42  1  0.49466221  0.82799802  0.49724488  1
  Ni  Ni43  1  0.32844706  0.66054636  0.66200163  1
  Cr  Cr44  1  0.49625143  0.82992484  0.82821223  1
  Ni  Ni45  1  0.82752946  0.16028286  0.49254219  1
  Ni  Ni46  1  0.66130516  -0.00269100  0.66087454  1
  Cr  Cr47  1  0.83177424  0.16110442  0.83063131  1
  Cr  Cr48  1  0.83151218  0.49615481  0.49688759  1
  Cr  Cr49  1  0.66064248  0.32797288  0.66136973  1
  Cr  Cr50  1  0.83222422  0.49855348  0.82903183  1
  Cr  Cr51  1  0.83020707  0.82903437  0.49812851  1
  Ni  Ni52  1  0.65984761  0.66177788  0.66302344  1
  Cr  Cr53  1  0.82937632  0.82781307  0.82721210  1
" 