8158,Ni55Cr45_11,-217.5350767347, 131.186767350187,Ni55Cr45,"# generated using pymatgen
 data_Cr29Ni25
_symmetry_space_group_name_H-M   'P 1'
_cell_length_a   7.53219756
_cell_length_b   7.53219756
_cell_length_c   10.65213595
_cell_angle_alpha   90.00000000
_cell_angle_beta   90.00000000
_cell_angle_gamma   90.00000000
_symmetry_Int_Tables_number   1
_chemical_formula_structural   Cr29Ni25
_chemical_formula_sum   'Cr29 Ni25'
_cell_volume   604.33828182
_cell_formula_units_Z   1
loop_
 _symmetry_equiv_pos_site_id
 _symmetry_equiv_pos_as_xyz
  1  'x, y, z'
loop_
 _atom_site_type_symbol
 _atom_site_label
 _atom_site_symmetry_multiplicity
 _atom_site_fract_x
 _atom_site_fract_y
 _atom_site_fract_z
 _atom_site_occupancy
  Cr  Cr0  1  0.99566941  0.99300848  0.99252013  1
  Cr  Cr1  1  0.15904809  0.16313381  0.16186270  1
  Ni  Ni2  1  -0.00425276  -0.00343863  0.33342243  1
  Ni  Ni3  1  0.99406532  0.33251232  -0.00409807  1
  Ni  Ni4  1  0.16308830  0.49652833  0.16424137  1
  Ni  Ni5  1  -0.00249862  0.32926953  0.33081096  1
  Cr  Cr6  1  -0.00332207  0.66146176  0.99158652  1
  Cr  Cr7  1  0.16302502  0.82620719  0.16347649  1
  Ni  Ni8  1  -0.00141043  0.66095989  0.33065522  1
  Cr  Cr9  1  0.33012978  0.99218010  0.99258139  1
  Cr  Cr10  1  0.49753771  0.16436868  0.15900009  1
  Cr  Cr11  1  0.32992028  -0.00294000  0.33123908  1
  Cr  Cr12  1  0.32975895  0.33006101  0.99461699  1
  Ni  Ni13  1  0.49199918  0.49669452  0.16061883  1
  Cr  Cr14  1  0.32849107  0.32912677  0.33209333  1
  Ni  Ni15  1  0.32963397  0.65974255  0.99450926  1
  Cr  Cr16  1  0.49316057  0.82506868  0.16426818  1
  Ni  Ni17  1  0.32686531  0.65976610  0.32852090  1
  Cr  Cr18  1  0.66150290  0.99465298  0.99409067  1
  Cr  Cr19  1  0.83057861  0.16357615  0.16086245  1
  Cr  Cr20  1  0.66289097  -0.00372130  0.33261126  1
  Ni  Ni21  1  0.66171568  0.33219452  0.99348869  1
  Cr  Cr22  1  0.82921514  0.49402345  0.16196734  1
  Cr  Cr23  1  0.66201186  0.32789747  0.32913394  1
  Cr  Cr24  1  0.66207593  0.66210055  0.99320452  1
  Cr  Cr25  1  0.83138410  0.82969206  0.16678595  1
  Cr  Cr26  1  0.66210980  0.66298891  0.33099792  1
  Ni  Ni27  1  0.16049184  0.16281990  0.49669729  1
  Ni  Ni28  1  0.99284881  0.99468313  0.66132583  1
  Cr  Cr29  1  0.16225668  0.16147823  0.82724270  1
  Ni  Ni30  1  0.16260631  0.49305828  0.49335115  1
  Cr  Cr31  1  -0.00217668  0.32906774  0.65917474  1
  Cr  Cr32  1  0.16348831  0.49462296  0.82759742  1
  Cr  Cr33  1  0.16216993  0.82691885  0.49469276  1
  Cr  Cr34  1  0.99188046  0.66402185  0.66496270  1
  Ni  Ni35  1  0.16308979  0.82819282  0.82877819  1
  Ni  Ni36  1  0.49642011  0.16084802  0.49959020  1
  Cr  Cr37  1  0.32971827  -0.00222867  0.66312162  1
  Ni  Ni38  1  0.49776587  0.16320560  0.82745544  1
  Cr  Cr39  1  0.49350168  0.49879852  0.49791946  1
  Ni  Ni40  1  0.33081697  0.32801175  0.66034149  1
  Ni  Ni41  1  0.49747164  0.49643455  0.82898062  1
  Ni  Ni42  1  0.49806964  0.83028998  0.49702384  1
  Cr  Cr43  1  0.32923410  0.66140256  0.66376116  1
  Ni  Ni44  1  0.49642709  0.82752612  0.82741782  1
  Ni  Ni45  1  0.83078499  0.15923785  0.49536542  1
  Ni  Ni46  1  0.66293613  0.99378832  0.66117841  1
  Cr  Cr47  1  0.82873848  0.16410653  0.83009353  1
  Cr  Cr48  1  0.83018521  0.49784289  0.49634841  1
  Cr  Cr49  1  0.66127140  0.32950593  0.66277859  1
  Ni  Ni50  1  0.82525639  0.49730025  0.82962177  1
  Ni  Ni51  1  0.82843876  0.83201371  0.49726776  1
  Ni  Ni52  1  0.66148584  0.66677211  0.66480546  1
  Ni  Ni53  1  0.82689067  0.82962709  0.82450043  1
" 