6277,Ni55Cr45_6,-217.601970181589, 132.278502147501,Ni55Cr45,"# generated using pymatgen
 data_Cr29Ni25
_symmetry_space_group_name_H-M   'P 1'
_cell_length_a   7.52888181
_cell_length_b   7.52888181
_cell_length_c   10.64744677
_cell_angle_alpha   90.00000000
_cell_angle_beta   90.00000000
_cell_angle_gamma   90.00000000
_symmetry_Int_Tables_number   1
_chemical_formula_structural   Cr29Ni25
_chemical_formula_sum   'Cr29 Ni25'
_cell_volume   603.54052609
_cell_formula_units_Z   1
loop_
 _symmetry_equiv_pos_site_id
 _symmetry_equiv_pos_as_xyz
  1  'x, y, z'
loop_
 _atom_site_type_symbol
 _atom_site_label
 _atom_site_symmetry_multiplicity
 _atom_site_fract_x
 _atom_site_fract_y
 _atom_site_fract_z
 _atom_site_occupancy
  Ni  Ni0  1  -0.00192316  0.99038682  -0.00282826  1
  Cr  Cr1  1  0.16352008  0.16289940  0.16191326  1
  Cr  Cr2  1  -0.00351174  0.99265260  0.33006587  1
  Cr  Cr3  1  0.00299122  0.33224144  0.99442223  1
  Ni  Ni4  1  0.16653856  0.49969399  0.16117347  1
  Cr  Cr5  1  0.00167958  0.33213434  0.33139837  1
  Ni  Ni6  1  -0.00045371  0.66503400  -0.00303796  1
  Ni  Ni7  1  0.16292026  0.82624119  0.15966637  1
  Ni  Ni8  1  -0.00397067  0.66333147  0.32798657  1
  Ni  Ni9  1  0.32892461  0.99558404  -0.00205939  1
  Ni  Ni10  1  0.49089185  0.16349251  0.16057891  1
  Cr  Cr11  1  0.32830665  -0.00332174  0.32808000  1
  Ni  Ni12  1  0.33045677  0.33139036  -0.00370597  1
  Ni  Ni13  1  0.49067050  0.49567498  0.16134123  1
  Ni  Ni14  1  0.33049657  0.33076877  0.32763861  1
  Ni  Ni15  1  0.32683049  0.66083499  -0.00283017  1
  Ni  Ni16  1  0.49243569  0.82846413  0.16000458  1
  Cr  Cr17  1  0.32962584  0.66038360  0.32565614  1
  Cr  Cr18  1  0.66179517  0.99319238  -0.00277779  1
  Cr  Cr19  1  0.82789015  0.16260585  0.16003733  1
  Cr  Cr20  1  0.66179438  0.99150224  0.32482900  1
  Cr  Cr21  1  0.65730622  0.33125378  0.99441517  1
  Cr  Cr22  1  0.83235537  0.49737047  0.16291949  1
  Cr  Cr23  1  0.65869827  0.33253559  0.32833555  1
  Cr  Cr24  1  0.65967431  0.66326941  -0.00290587  1
  Ni  Ni25  1  0.83271614  0.82634173  0.16094841  1
  Cr  Cr26  1  0.66195677  0.66343020  0.32815145  1
  Ni  Ni27  1  0.16572422  0.16329158  0.49578451  1
  Cr  Cr28  1  -0.00319649  0.99504059  0.66136958  1
  Cr  Cr29  1  0.16511548  0.15979009  0.83131977  1
  Cr  Cr30  1  0.16377549  0.49861687  0.49507143  1
  Cr  Cr31  1  -0.00300988  0.33149940  0.66225917  1
  Ni  Ni32  1  0.16601203  0.49890520  0.83105242  1
  Cr  Cr33  1  0.16413306  0.82874781  0.49883812  1
  Ni  Ni34  1  -0.00330622  0.66262716  0.66293689  1
  Cr  Cr35  1  0.16289483  0.82582564  0.82959768  1
  Cr  Cr36  1  0.49449544  0.16268070  0.49613751  1
  Ni  Ni37  1  0.32935463  -0.00362241  0.66277256  1
  Ni  Ni38  1  0.49269579  0.16447671  0.82992547  1
  Ni  Ni39  1  0.49625929  0.49441728  0.49709149  1
  Cr  Cr40  1  0.32891072  0.33018408  0.66385047  1
  Ni  Ni41  1  0.49126124  0.49477607  0.82885753  1
  Cr  Cr42  1  0.49413145  0.82647604  0.49899133  1
  Ni  Ni43  1  0.32812931  0.66049199  0.66426738  1
  Cr  Cr44  1  0.49113978  0.82904176  0.82827955  1
  Cr  Cr45  1  0.82851060  0.16556439  0.49496578  1
  Cr  Cr46  1  0.66305705  0.99516302  0.66470368  1
  Cr  Cr47  1  0.82712934  0.16268176  0.83225452  1
  Ni  Ni48  1  0.82861756  0.49987313  0.49681186  1
  Ni  Ni49  1  0.65925977  0.33175125  0.66348587  1
  Cr  Cr50  1  0.83065895  0.49822287  0.82866823  1
  Ni  Ni51  1  0.83180609  0.82438647  0.49584343  1
  Cr  Cr52  1  0.66192555  0.66089770  0.66265625  1
  Ni  Ni53  1  0.83214951  0.82705512  0.83104176  1
" 