6858,Ni55Fe36Cr7_8,-238.079552372219, 211.10890457651,Ni55Fe36Cr7,"# generated using pymatgen
 data_Cr5Fe19Ni30
_symmetry_space_group_name_H-M   'P 1'
_cell_length_a   7.41720222
_cell_length_b   7.41720222
_cell_length_c   10.48950797
_cell_angle_alpha   90.00000000
_cell_angle_beta   90.00000000
_cell_angle_gamma   90.00000000
_symmetry_Int_Tables_number   1
_chemical_formula_structural   Cr5Fe19Ni30
_chemical_formula_sum   'Cr5 Fe19 Ni30'
_cell_volume   577.07911424
_cell_formula_units_Z   1
loop_
 _symmetry_equiv_pos_site_id
 _symmetry_equiv_pos_as_xyz
  1  'x, y, z'
loop_
 _atom_site_type_symbol
 _atom_site_label
 _atom_site_symmetry_multiplicity
 _atom_site_fract_x
 _atom_site_fract_y
 _atom_site_fract_z
 _atom_site_occupancy
  Ni  Ni0  1  1.00172773  0.00369355  0.00346245  1
  Ni  Ni1  1  0.16923977  0.17014393  0.16922147  1
  Cr  Cr2  1  0.00424511  0.00461016  0.33550016  1
  Fe  Fe3  1  0.00367275  0.33644303  1.00318427  1
  Ni  Ni4  1  0.16831699  0.50262684  0.17134849  1
  Ni  Ni5  1  1.00313741  0.33803850  0.33617212  1
  Ni  Ni6  1  1.00213486  0.67015842  0.00406624  1
  Ni  Ni7  1  0.16978923  0.83730911  0.17076743  1
  Ni  Ni8  1  0.00411236  0.66695763  0.33543689  1
  Fe  Fe9  1  0.33540506  0.00386792  1.00306208  1
  Cr  Cr10  1  0.50202544  0.16922550  0.16973196  1
  Ni  Ni11  1  0.33790383  1.00239575  0.33693825  1
  Ni  Ni12  1  0.33657048  0.33690589  1.00320804  1
  Ni  Ni13  1  0.50472727  0.50491584  0.17077734  1
  Fe  Fe14  1  0.33512970  0.33836513  0.33708347  1
  Cr  Cr15  1  0.33653318  0.66798617  0.00380451  1
  Ni  Ni16  1  0.50453132  0.83629468  0.17215823  1
  Ni  Ni17  1  0.33785596  0.66965207  0.33668013  1
  Ni  Ni18  1  0.67169936  1.00333991  0.00351767  1
  Fe  Fe19  1  0.83776813  0.17081653  0.16878148  1
  Fe  Fe20  1  0.66853465  1.00230599  0.33655292  1
  Fe  Fe21  1  0.67112281  0.33772242  1.00247857  1
  Ni  Ni22  1  0.83703910  0.50437533  0.17090633  1
  Fe  Fe23  1  0.67069923  0.33868663  0.33725516  1
  Fe  Fe24  1  0.67126341  0.67003065  0.00384712  1
  Fe  Fe25  1  0.83647111  0.83517448  0.16931461  1
  Ni  Ni26  1  0.66811187  0.66871699  0.33486918  1
  Ni  Ni27  1  0.16988704  0.17021433  0.50320512  1
  Ni  Ni28  1  1.00291480  0.00444076  0.67099091  1
  Ni  Ni29  1  0.16860844  0.16914593  0.83765551  1
  Ni  Ni30  1  0.16963016  0.50308820  0.50227353  1
  Ni  Ni31  1  1.00168692  0.33676851  0.67031913  1
  Ni  Ni32  1  0.16837473  0.50258897  0.83645841  1
  Fe  Fe33  1  0.17263086  0.83542294  0.50383451  1
  Ni  Ni34  1  0.00435462  0.66886703  0.67057875  1
  Fe  Fe35  1  0.16890519  0.83682581  0.83594791  1
  Fe  Fe36  1  0.50329321  0.16933845  0.50265670  1
  Ni  Ni37  1  0.33750684  1.00171845  0.67077608  1
  Fe  Fe38  1  0.50416170  0.16979492  0.83759826  1
  Ni  Ni39  1  0.50365812  0.50439896  0.50234864  1
  Cr  Cr40  1  0.33638081  0.33781238  0.67030693  1
  Ni  Ni41  1  0.50503679  0.50455166  0.83695306  1
  Fe  Fe42  1  0.50086302  0.83650712  0.50333834  1
  Ni  Ni43  1  0.33679570  0.67086797  0.66965125  1
  Ni  Ni44  1  0.50456997  0.83736530  0.83507387  1
  Fe  Fe45  1  0.83663453  0.17284946  0.50488125  1
  Ni  Ni46  1  0.66965820  0.00438666  0.67021244  1
  Ni  Ni47  1  0.83764687  0.16961854  0.83595253  1
  Fe  Fe48  1  0.83771848  0.50175271  0.50299655  1
  Fe  Fe49  1  0.67180679  0.33669412  0.67034362  1
  Ni  Ni50  1  0.83667315  0.50333295  0.83533633  1
  Cr  Cr51  1  0.83615895  0.83596157  0.50444524  1
  Fe  Fe52  1  0.66907545  0.66966090  0.67063986  1
  Fe  Fe53  1  0.83704705  0.83671289  0.83654519  1
" 