4106,Ni55Fe36Cr7_13,-238.315644075394, 213.236178789522,Ni55Fe36Cr7,"# generated using pymatgen
 data_Cr5Fe19Ni30
_symmetry_space_group_name_H-M   'P 1'
_cell_length_a   7.41940087
_cell_length_b   7.41940087
_cell_length_c   10.49261733
_cell_angle_alpha   90.00000000
_cell_angle_beta   90.00000000
_cell_angle_gamma   90.00000000
_symmetry_Int_Tables_number   1
_chemical_formula_structural   Cr5Fe19Ni30
_chemical_formula_sum   'Cr5 Fe19 Ni30'
_cell_volume   577.59244952
_cell_formula_units_Z   1
loop_
 _symmetry_equiv_pos_site_id
 _symmetry_equiv_pos_as_xyz
  1  'x, y, z'
loop_
 _atom_site_type_symbol
 _atom_site_label
 _atom_site_symmetry_multiplicity
 _atom_site_fract_x
 _atom_site_fract_y
 _atom_site_fract_z
 _atom_site_occupancy
  Fe  Fe0  1  0.00589214  0.00379817  0.00398721  1
  Ni  Ni1  1  0.16864354  0.17053919  0.16951911  1
  Ni  Ni2  1  0.99935893  0.00398687  0.33433721  1
  Ni  Ni3  1  1.00274598  0.33680673  1.00259054  1
  Ni  Ni4  1  0.16886721  0.50175237  0.16936214  1
  Ni  Ni5  1  0.00373343  0.33598059  0.33797784  1
  Fe  Fe6  1  0.00568709  0.66922987  1.00315704  1
  Fe  Fe7  1  0.17121121  0.83572620  0.16935386  1
  Fe  Fe8  1  0.00366219  0.66709804  0.33557116  1
  Ni  Ni9  1  0.33795975  1.00301349  0.00371471  1
  Ni  Ni10  1  0.50185390  0.17049029  0.16953725  1
  Fe  Fe11  1  0.33427485  0.00653165  0.33419275  1
  Ni  Ni12  1  0.33556163  0.33681970  0.00387371  1
  Ni  Ni13  1  0.50372422  0.50308552  0.16966074  1
  Ni  Ni14  1  0.33493759  0.33775966  0.33523367  1
  Ni  Ni15  1  0.33779971  0.66952549  0.00335562  1
  Ni  Ni16  1  0.50409467  0.83661975  0.16992899  1
  Ni  Ni17  1  0.33719578  0.66763493  0.33337885  1
  Fe  Fe18  1  0.66847380  0.00368047  0.00343234  1
  Fe  Fe19  1  0.83631394  0.17187491  0.16913806  1
  Fe  Fe20  1  0.66949577  0.00516238  0.33470547  1
  Fe  Fe21  1  0.66768448  0.33694821  1.00272914  1
  Ni  Ni22  1  0.83780834  0.50296835  0.16890863  1
  Fe  Fe23  1  0.67105290  0.33590824  0.33584154  1
  Fe  Fe24  1  0.66892200  0.66956539  0.00459799  1
  Ni  Ni25  1  0.83740946  0.83605683  0.16892151  1
  Fe  Fe26  1  0.67301629  0.66888541  0.33339215  1
  Ni  Ni27  1  0.16742181  0.16951252  0.50364802  1
  Ni  Ni28  1  1.00208003  1.00095954  0.67102062  1
  Ni  Ni29  1  0.16792361  0.16728896  0.83665755  1
  Ni  Ni30  1  0.16693317  0.50270758  0.50365925  1
  Fe  Fe31  1  1.00138196  0.33417803  0.67022593  1
  Fe  Fe32  1  0.17051721  0.50285198  0.83837493  1
  Cr  Cr33  1  0.17006277  0.83756598  0.50144500  1
  Ni  Ni34  1  1.00146002  0.66965530  0.67052376  1
  Ni  Ni35  1  0.17006481  0.83727559  0.83745989  1
  Ni  Ni36  1  0.50319352  0.17001191  0.50125274  1
  Ni  Ni37  1  0.33560773  0.00378697  0.67090307  1
  Ni  Ni38  1  0.50302503  0.17002423  0.83834606  1
  Cr  Cr39  1  0.50435179  0.50380801  0.50217922  1
  Cr  Cr40  1  0.33672093  0.33509973  0.67105170  1
  Ni  Ni41  1  0.50553178  0.50460728  0.83767223  1
  Cr  Cr42  1  0.50306262  0.83675580  0.50297590  1
  Fe  Fe43  1  0.33406463  0.67026253  0.67269466  1
  Ni  Ni44  1  0.50161559  0.83529766  0.83685757  1
  Ni  Ni45  1  0.83820954  0.17136547  0.50207252  1
  Cr  Cr46  1  0.67101056  0.00596461  0.67050633  1
  Ni  Ni47  1  0.83841510  0.17135748  0.83904760  1
  Ni  Ni48  1  0.83780805  0.50238722  0.50432320  1
  Ni  Ni49  1  0.67139395  0.33699925  0.67056858  1
  Fe  Fe50  1  0.83708334  0.50255012  0.83686721  1
  Fe  Fe51  1  0.83792271  0.83660381  0.50115238  1
  Fe  Fe52  1  0.67208010  0.66952980  0.67232520  1
  Fe  Fe53  1  0.83706850  0.83753558  0.83918126  1
" 