5511,Ni55Cr45_3,-217.796780412677, 136.952921396167,Ni55Cr45,"# generated using pymatgen
 data_Cr29Ni25
_symmetry_space_group_name_H-M   'P 1'
_cell_length_a   7.52447382
_cell_length_b   7.52447382
_cell_length_c   10.64121293
_cell_angle_alpha   90.00000000
_cell_angle_beta   90.00000000
_cell_angle_gamma   90.00000000
_symmetry_Int_Tables_number   1
_chemical_formula_structural   Cr29Ni25
_chemical_formula_sum   'Cr29 Ni25'
_cell_volume   602.48106839
_cell_formula_units_Z   1
loop_
 _symmetry_equiv_pos_site_id
 _symmetry_equiv_pos_as_xyz
  1  'x, y, z'
loop_
 _atom_site_type_symbol
 _atom_site_label
 _atom_site_symmetry_multiplicity
 _atom_site_fract_x
 _atom_site_fract_y
 _atom_site_fract_z
 _atom_site_occupancy
  Ni  Ni0  1  0.00051874  -0.00075957  -0.00275364  1
  Ni  Ni1  1  0.16350846  0.16297002  0.15840460  1
  Cr  Cr2  1  -0.00201389  -0.00275802  0.32702185  1
  Ni  Ni3  1  -0.00223064  0.32601774  -0.00197015  1
  Ni  Ni4  1  0.16302623  0.49586579  0.16323551  1
  Cr  Cr5  1  0.99525114  0.32874147  0.32893812  1
  Cr  Cr6  1  -0.00331543  0.66437272  -0.00260400  1
  Ni  Ni7  1  0.16319966  0.82983438  0.16290028  1
  Ni  Ni8  1  -0.00044309  0.66311911  0.32966282  1
  Ni  Ni9  1  0.32654878  -0.00199108  -0.00378189  1
  Ni  Ni10  1  0.49655812  0.16363102  0.16248281  1
  Cr  Cr11  1  0.32989644  -0.00334292  0.32958855  1
  Ni  Ni12  1  0.32886895  0.32698691  -0.00299991  1
  Cr  Cr13  1  0.49343477  0.49403299  0.16137858  1
  Cr  Cr14  1  0.32971511  0.32645567  0.32827572  1
  Cr  Cr15  1  0.33049339  0.66492426  0.99551083  1
  Cr  Cr16  1  0.49418651  0.83117119  0.16362996  1
  Ni  Ni17  1  0.32612139  0.66503815  0.32950386  1
  Cr  Cr18  1  0.66132507  0.99590054  -0.00203359  1
  Ni  Ni19  1  0.82862038  0.16380987  0.16165635  1
  Ni  Ni20  1  0.66109240  0.00020107  0.32990445  1
  Ni  Ni21  1  0.66205197  0.32956925  -0.00255710  1
  Cr  Cr22  1  0.82992778  0.49483789  0.16249296  1
  Ni  Ni23  1  0.66293620  0.32580507  0.32933022  1
  Ni  Ni24  1  0.66101519  0.66088993  0.99343070  1
  Cr  Cr25  1  0.83085501  0.83208033  0.16292762  1
  Cr  Cr26  1  0.66262167  0.66276506  0.32969623  1
  Ni  Ni27  1  0.16484071  0.16064735  0.49680703  1
  Cr  Cr28  1  -0.00061001  -0.00346724  0.66410880  1
  Ni  Ni29  1  0.16364469  0.16069123  0.83296868  1
  Cr  Cr30  1  0.16257951  0.49750630  0.49380890  1
  Cr  Cr31  1  -0.00312136  0.32839065  0.66140465  1
  Cr  Cr32  1  0.16504156  0.49265032  0.83108989  1
  Ni  Ni33  1  0.16490852  0.82991527  0.49417804  1
  Cr  Cr34  1  -0.00335927  0.66351444  0.66141928  1
  Ni  Ni35  1  0.16500167  0.83310899  0.83153792  1
  Ni  Ni36  1  0.49678282  0.15975513  0.49490081  1
  Cr  Cr37  1  0.32988424  0.99563083  0.66217829  1
  Cr  Cr38  1  0.49463505  0.16312096  0.83069493  1
  Cr  Cr39  1  0.49497795  0.49568948  0.49448788  1
  Cr  Cr40  1  0.32947754  0.32695852  0.66281561  1
  Ni  Ni41  1  0.49627352  0.49601888  0.83293752  1
  Ni  Ni42  1  0.49519917  0.83203810  0.49568539  1
  Cr  Cr43  1  0.33069769  0.66555337  0.66423237  1
  Ni  Ni44  1  0.49477670  0.83028330  0.83024609  1
  Cr  Cr45  1  0.82751536  0.16180316  0.49619192  1
  Ni  Ni46  1  0.65962239  0.99502307  0.66137293  1
  Cr  Cr47  1  0.83134902  0.16208244  0.83113441  1
  Ni  Ni48  1  0.82906613  0.49643706  0.49412426  1
  Cr  Cr49  1  0.66179973  0.32988609  0.66140193  1
  Cr  Cr50  1  0.82934621  0.49420803  0.83111589  1
  Cr  Cr51  1  0.82944874  0.83027995  0.49524063  1
  Cr  Cr52  1  0.66090685  0.66360386  0.66579960  1
  Cr  Cr53  1  0.82948261  0.83243967  0.83078267  1
" 