4066,Ni55Fe5Cr38_15,-223.869141534128, 155.304547059408,Ni55Fe5Cr38,"# generated using pymatgen
 data_Cr22Fe3Ni29
_symmetry_space_group_name_H-M   'P 1'
_cell_length_a   7.49612228
_cell_length_b   7.49612228
_cell_length_c   10.60111780
_cell_angle_alpha   90.00000000
_cell_angle_beta   90.00000000
_cell_angle_gamma   90.00000000
_symmetry_Int_Tables_number   1
_chemical_formula_structural   Cr22Fe3Ni29
_chemical_formula_sum   'Cr22 Fe3 Ni29'
_cell_volume   595.69641349
_cell_formula_units_Z   1
loop_
 _symmetry_equiv_pos_site_id
 _symmetry_equiv_pos_as_xyz
  1  'x, y, z'
loop_
 _atom_site_type_symbol
 _atom_site_label
 _atom_site_symmetry_multiplicity
 _atom_site_fract_x
 _atom_site_fract_y
 _atom_site_fract_z
 _atom_site_occupancy
  Ni  Ni0  1  0.99352350  0.99633846  0.99732989  1
  Cr  Cr1  1  0.16236555  0.16632192  0.16532345  1
  Ni  Ni2  1  0.99798330  0.99783420  0.33314120  1
  Ni  Ni3  1  -0.00027813  0.33471275  0.99641418  1
  Ni  Ni4  1  0.16134330  0.49711723  0.16070653  1
  Ni  Ni5  1  0.99490428  0.33042944  0.33048704  1
  Ni  Ni6  1  0.99713333  0.66303605  0.99774705  1
  Cr  Cr7  1  0.16388566  0.83136410  0.16417979  1
  Cr  Cr8  1  0.99508444  0.66707634  0.33003034  1
  Cr  Cr9  1  0.33197546  -0.00126669  0.00056194  1
  Cr  Cr10  1  0.49863805  0.16283302  0.16441649  1
  Ni  Ni11  1  0.33135688  0.99665503  0.33385538  1
  Ni  Ni12  1  0.32832043  0.33563815  0.99684653  1
  Cr  Cr13  1  0.49934894  0.49982979  0.16547549  1
  Cr  Cr14  1  0.33222639  0.32972017  0.33213855  1
  Fe  Fe15  1  0.32901570  0.66140093  0.99760702  1
  Ni  Ni16  1  0.50027397  0.83111500  0.16496172  1
  Cr  Cr17  1  0.33308748  0.66763625  0.33248554  1
  Ni  Ni18  1  0.66881022  0.99559498  0.99675013  1
  Cr  Cr19  1  0.83317873  0.16540538  0.16482618  1
  Cr  Cr20  1  0.66489913  0.99568336  0.33281054  1
  Cr  Cr21  1  0.66572394  0.33162173  0.99569817  1
  Ni  Ni22  1  0.83439108  0.49914357  0.16632349  1
  Ni  Ni23  1  0.66632275  0.33321603  0.33364721  1
  Cr  Cr24  1  0.66826540  0.66658330  -0.00112057  1
  Ni  Ni25  1  0.83026633  0.83015423  0.16326266  1
  Ni  Ni26  1  0.66516360  0.66462550  0.33126884  1
  Cr  Cr27  1  0.16215344  0.16123273  0.49686283  1
  Ni  Ni28  1  0.99594281  0.99565518  0.66371637  1
  Cr  Cr29  1  0.16141772  0.16551854  0.83217440  1
  Cr  Cr30  1  0.16360346  0.50072593  0.50024781  1
  Fe  Fe31  1  0.99707197  0.33174346  0.66666602  1
  Ni  Ni32  1  0.16342873  0.49908460  0.83306833  1
  Ni  Ni33  1  0.16535369  0.83388198  0.50025900  1
  Ni  Ni34  1  -0.00130930  0.66795657  0.66618209  1
  Cr  Cr35  1  0.16285701  0.82882067  0.82968805  1
  Ni  Ni36  1  0.49996941  0.16232107  0.49770524  1
  Ni  Ni37  1  0.33061715  0.99568227  0.66042782  1
  Cr  Cr38  1  0.49998682  0.16336543  0.83243685  1
  Ni  Ni39  1  0.49928520  0.49948070  0.49699708  1
  Cr  Cr40  1  0.33302287  0.33247745  0.66535541  1
  Ni  Ni41  1  0.49525716  0.49901508  0.83224880  1
  Ni  Ni42  1  0.49668134  0.83226126  0.49853275  1
  Ni  Ni43  1  0.33012070  0.66571908  0.66456246  1
  Cr  Cr44  1  0.49876640  0.83050396  0.83120126  1
  Ni  Ni45  1  0.83101265  0.16278546  0.49813899  1
  Fe  Fe46  1  0.66666802  0.99685985  0.66335278  1
  Ni  Ni47  1  0.83345711  0.16309205  0.83138080  1
  Cr  Cr48  1  0.83055552  0.49713066  0.49515042  1
  Cr  Cr49  1  0.66526206  0.33005661  0.66498408  1
  Ni  Ni50  1  0.83540124  0.49793124  0.83168026  1
  Ni  Ni51  1  0.83218483  0.83425398  0.49887695  1
  Cr  Cr52  1  0.66591576  0.66484637  0.66415327  1
  Ni  Ni53  1  0.83338357  0.83305463  0.83205211  1
" 