5173,Ni55Fe5Cr38_11,-223.709297253296, 149.941443755217,Ni55Fe5Cr38,"# generated using pymatgen
 data_Cr22Fe3Ni29
_symmetry_space_group_name_H-M   'P 1'
_cell_length_a   7.49844788
_cell_length_b   7.49844788
_cell_length_c   10.60440668
_cell_angle_alpha   90.00000000
_cell_angle_beta   90.00000000
_cell_angle_gamma   90.00000000
_symmetry_Int_Tables_number   1
_chemical_formula_structural   Cr22Fe3Ni29
_chemical_formula_sum   'Cr22 Fe3 Ni29'
_cell_volume   596.25101111
_cell_formula_units_Z   1
loop_
 _symmetry_equiv_pos_site_id
 _symmetry_equiv_pos_as_xyz
  1  'x, y, z'
loop_
 _atom_site_type_symbol
 _atom_site_label
 _atom_site_symmetry_multiplicity
 _atom_site_fract_x
 _atom_site_fract_y
 _atom_site_fract_z
 _atom_site_occupancy
  Cr  Cr0  1  0.99560687  -0.00068737  0.99709625  1
  Ni  Ni1  1  0.16321421  0.16635990  0.16514128  1
  Ni  Ni2  1  -0.00135517  0.99771079  0.32953363  1
  Ni  Ni3  1  0.00068664  0.33121583  -0.00172697  1
  Ni  Ni4  1  0.16432482  0.49559484  0.16464664  1
  Ni  Ni5  1  0.00049313  0.33059499  0.32947169  1
  Cr  Cr6  1  0.99603592  0.66385676  -0.00066145  1
  Fe  Fe7  1  0.16546734  0.83127137  0.16715312  1
  Cr  Cr8  1  0.00054983  0.66436469  0.32948765  1
  Cr  Cr9  1  0.33182563  0.00177359  -0.00161681  1
  Cr  Cr10  1  0.49671929  0.16305500  0.16378036  1
  Fe  Fe11  1  0.33117571  0.99541864  0.33180105  1
  Ni  Ni12  1  0.33013334  0.33231011  0.99664641  1
  Ni  Ni13  1  0.49729221  0.50091338  0.16262486  1
  Cr  Cr14  1  0.33041171  0.33346779  0.33137437  1
  Cr  Cr15  1  0.33239650  0.66029601  -0.00075558  1
  Ni  Ni16  1  0.49946068  0.82987064  0.16583386  1
  Ni  Ni17  1  0.33120626  0.66552946  0.33164809  1
  Ni  Ni18  1  0.66557883  0.99628977  0.99702573  1
  Cr  Cr19  1  0.83314327  0.16517990  0.16581848  1
  Ni  Ni20  1  0.66372509  0.99600411  0.33135947  1
  Fe  Fe21  1  0.66371918  0.33187701  0.99677703  1
  Ni  Ni22  1  0.83217756  0.49869202  0.16315833  1
  Cr  Cr23  1  0.66356236  0.33082411  0.33258041  1
  Ni  Ni24  1  0.66448172  0.66534064  -0.00009959  1
  Ni  Ni25  1  0.82860925  0.83105267  0.16404476  1
  Cr  Cr26  1  0.66187457  0.66587811  0.33032935  1
  Cr  Cr27  1  0.16357974  0.16309813  0.49772828  1
  Ni  Ni28  1  -0.00082011  -0.00025696  0.66671299  1
  Ni  Ni29  1  0.16352338  0.16715593  0.83045542  1
  Ni  Ni30  1  0.16568998  0.49904141  0.49721945  1
  Ni  Ni31  1  -0.00162769  0.32918476  0.66591839  1
  Ni  Ni32  1  0.16501731  0.49310741  0.83189290  1
  Ni  Ni33  1  0.16799308  0.83184201  0.49679031  1
  Cr  Cr34  1  -0.00048756  0.66521835  0.66482285  1
  Cr  Cr35  1  0.16409924  0.83265647  0.82859492  1
  Ni  Ni36  1  0.49777754  0.16244523  0.49827967  1
  Ni  Ni37  1  0.33034687  -0.00060171  0.66289934  1
  Ni  Ni38  1  0.49849431  0.16668889  0.83180550  1
  Ni  Ni39  1  0.49599974  0.49857114  0.49813474  1
  Cr  Cr40  1  0.33270474  0.33065542  0.66586906  1
  Ni  Ni41  1  0.49801767  0.49459199  0.83308708  1
  Ni  Ni42  1  0.49388269  0.83261570  0.49588755  1
  Cr  Cr43  1  0.33104098  0.66333180  0.66250070  1
  Cr  Cr44  1  0.49927453  0.83140973  0.83222733  1
  Cr  Cr45  1  0.83177748  0.16564425  0.49741461  1
  Cr  Cr46  1  0.66421916  0.00039292  0.66542757  1
  Ni  Ni47  1  0.83178282  0.16470910  0.83075810  1
  Cr  Cr48  1  0.83254763  0.49466548  0.49861819  1
  Ni  Ni49  1  0.66335211  0.32976500  0.66538774  1
  Cr  Cr50  1  0.83069956  0.49628597  0.83160021  1
  Cr  Cr51  1  0.83213152  0.83332801  0.49821772  1
  Cr  Cr52  1  0.66317452  0.66340312  0.66390356  1
  Ni  Ni53  1  0.83022766  0.83393136  0.83230908  1
" 