7565,Ni55Fe5Cr38_2,-223.693669868022, 149.733464516055,Ni55Fe5Cr38,"# generated using pymatgen
 data_Cr22Fe3Ni29
_symmetry_space_group_name_H-M   'P 1'
_cell_length_a   7.49795944
_cell_length_b   7.49795944
_cell_length_c   10.60371593
_cell_angle_alpha   90.00000000
_cell_angle_beta   90.00000000
_cell_angle_gamma   90.00000000
_symmetry_Int_Tables_number   1
_chemical_formula_structural   Cr22Fe3Ni29
_chemical_formula_sum   'Cr22 Fe3 Ni29'
_cell_volume   596.13450210
_cell_formula_units_Z   1
loop_
 _symmetry_equiv_pos_site_id
 _symmetry_equiv_pos_as_xyz
  1  'x, y, z'
loop_
 _atom_site_type_symbol
 _atom_site_label
 _atom_site_symmetry_multiplicity
 _atom_site_fract_x
 _atom_site_fract_y
 _atom_site_fract_z
 _atom_site_occupancy
  Ni  Ni0  1  0.99403988  0.99783836  -0.00012323  1
  Ni  Ni1  1  0.16134113  0.16187355  0.16635990  1
  Ni  Ni2  1  0.00051683  0.00084443  0.33004080  1
  Cr  Cr3  1  0.99728529  0.32847372  -0.00057420  1
  Ni  Ni4  1  0.16611300  0.49943502  0.16556085  1
  Ni  Ni5  1  0.99647167  0.32827344  0.33181088  1
  Cr  Cr6  1  0.99736658  0.66666438  0.99741657  1
  Ni  Ni7  1  0.16472772  0.83245594  0.16575650  1
  Cr  Cr8  1  -0.00057425  0.66504446  0.33255266  1
  Cr  Cr9  1  0.33097776  0.99494848  0.00063579  1
  Cr  Cr10  1  0.49895381  0.16366418  0.16571185  1
  Ni  Ni11  1  0.32683531  0.99526057  0.33070701  1
  Cr  Cr12  1  0.32985164  0.33347251  0.99747633  1
  Cr  Cr13  1  0.49795722  0.50088313  0.16522200  1
  Cr  Cr14  1  0.32874457  0.33137706  0.33235531  1
  Ni  Ni15  1  0.33443507  0.66575046  -0.00111276  1
  Fe  Fe16  1  0.49787287  0.82990325  0.16436956  1
  Ni  Ni17  1  0.33175239  0.66648012  0.33084121  1
  Ni  Ni18  1  0.66825881  0.99417120  0.99665991  1
  Ni  Ni19  1  0.83416869  0.16125072  0.16553996  1
  Cr  Cr20  1  0.66637758  -0.00199435  0.32981291  1
  Cr  Cr21  1  0.66660507  0.33077173  0.99562908  1
  Cr  Cr22  1  0.83051207  0.49835562  0.16674771  1
  Ni  Ni23  1  0.66828652  0.33300630  0.33355892  1
  Ni  Ni24  1  0.66269721  0.66834459  0.99586418  1
  Ni  Ni25  1  0.83169408  0.83396509  0.16306250  1
  Ni  Ni26  1  0.66270373  0.66249088  0.33113640  1
  Ni  Ni27  1  0.16329388  0.16207170  0.49787547  1
  Ni  Ni28  1  -0.00197592  0.99745159  0.66393129  1
  Cr  Cr29  1  0.16369527  0.16290707  0.83004361  1
  Fe  Fe30  1  0.16410519  0.49763069  0.49763483  1
  Cr  Cr31  1  0.99704165  0.33145967  0.66327334  1
  Cr  Cr32  1  0.16532058  0.49881296  0.83114525  1
  Ni  Ni33  1  0.16449927  0.83378215  0.49808325  1
  Ni  Ni34  1  0.99675249  0.66634438  0.66402770  1
  Cr  Cr35  1  0.16277432  0.83210617  0.82959161  1
  Cr  Cr36  1  0.49670689  0.16570128  0.49934753  1
  Ni  Ni37  1  0.32939503  -0.00131352  0.66336773  1
  Cr  Cr38  1  0.49813028  0.16357775  0.82872036  1
  Ni  Ni39  1  0.49862436  0.49742008  0.49613848  1
  Ni  Ni40  1  0.33160977  0.33043587  0.66343152  1
  Ni  Ni41  1  0.49922486  0.50045270  0.83231875  1
  Cr  Cr42  1  0.49547099  0.83072856  0.49603930  1
  Cr  Cr43  1  0.33112216  0.66444117  0.66381166  1
  Ni  Ni44  1  0.50087378  0.82999249  0.83322520  1
  Ni  Ni45  1  0.83467065  0.16649396  0.49645369  1
  Fe  Fe46  1  0.66649632  0.99779532  0.66668440  1
  Ni  Ni47  1  0.83071697  0.16091479  0.83171937  1
  Ni  Ni48  1  0.83036789  0.49633772  0.49591630  1
  Cr  Cr49  1  0.66476757  0.33186223  0.66452018  1
  Ni  Ni50  1  0.82872146  0.50034324  0.83130279  1
  Cr  Cr51  1  0.83466192  0.83114970  0.49933472  1
  Cr  Cr52  1  0.66626047  0.66425093  0.66645509  1
  Ni  Ni53  1  0.82938677  0.83253163  0.83127509  1
" 