940,Ni55Cr45_8,-217.538643308652, 130.433125854387,Ni55Cr45,"# generated using pymatgen
 data_Cr29Ni25
_symmetry_space_group_name_H-M   'P 1'
_cell_length_a   7.53086290
_cell_length_b   7.53086290
_cell_length_c   10.65024845
_cell_angle_alpha   90.00000000
_cell_angle_beta   90.00000000
_cell_angle_gamma   90.00000000
_symmetry_Int_Tables_number   1
_chemical_formula_structural   Cr29Ni25
_chemical_formula_sum   'Cr29 Ni25'
_cell_volume   604.01708348
_cell_formula_units_Z   1
loop_
 _symmetry_equiv_pos_site_id
 _symmetry_equiv_pos_as_xyz
  1  'x, y, z'
loop_
 _atom_site_type_symbol
 _atom_site_label
 _atom_site_symmetry_multiplicity
 _atom_site_fract_x
 _atom_site_fract_y
 _atom_site_fract_z
 _atom_site_occupancy
  Ni  Ni0  1  0.99425441  0.99412963  0.99462583  1
  Cr  Cr1  1  0.16328043  0.16449382  0.16002590  1
  Cr  Cr2  1  0.99431594  0.99493813  0.33013759  1
  Ni  Ni3  1  0.99550989  0.32731467  0.99403526  1
  Cr  Cr4  1  0.16426336  0.49449366  0.15849441  1
  Cr  Cr5  1  0.99262234  0.32844287  0.33480904  1
  Ni  Ni6  1  0.99359143  0.66596458  0.99529417  1
  Cr  Cr7  1  0.15868324  0.82830441  0.16089947  1
  Cr  Cr8  1  0.99265266  0.66383554  0.32852165  1
  Cr  Cr9  1  0.32861398  0.99456736  0.99032817  1
  Cr  Cr10  1  0.49723054  0.16276208  0.16105201  1
  Cr  Cr11  1  0.32762169  0.99271564  0.33223234  1
  Ni  Ni12  1  0.33275042  0.32944660  0.99275091  1
  Ni  Ni13  1  0.49839883  0.49508593  0.15788045  1
  Cr  Cr14  1  0.33174917  0.33130993  0.32871341  1
  Cr  Cr15  1  0.33362634  0.66380782  0.99474677  1
  Cr  Cr16  1  0.50116137  0.83236306  0.16346232  1
  Cr  Cr17  1  0.33263403  0.66286351  0.32931080  1
  Ni  Ni18  1  0.66273777  0.99359861  0.99416090  1
  Cr  Cr19  1  0.82620611  0.15857945  0.16014651  1
  Ni  Ni20  1  0.66471918  0.99363456  0.33079520  1
  Ni  Ni21  1  0.65958657  0.33070738  0.99415928  1
  Cr  Cr22  1  0.83077056  0.49684385  0.15686365  1
  Cr  Cr23  1  0.66395849  0.33280492  0.33157646  1
  Ni  Ni24  1  0.66258916  0.66279128  0.99567169  1
  Ni  Ni25  1  0.82671999  0.83025268  0.15793375  1
  Cr  Cr26  1  0.66235211  0.66099610  0.32722441  1
  Ni  Ni27  1  0.16204060  0.16024845  0.49584506  1
  Cr  Cr28  1  -0.00268417  -0.00332790  0.66340321  1
  Ni  Ni29  1  0.16254490  0.16245013  0.83376104  1
  Cr  Cr30  1  0.16389904  0.49889859  0.49800018  1
  Cr  Cr31  1  0.99364218  0.32675994  0.65866051  1
  Cr  Cr32  1  0.16182656  0.49774896  0.82975331  1
  Ni  Ni33  1  0.16417381  0.82842680  0.49884581  1
  Ni  Ni34  1  -0.00376083  0.66478513  0.66107593  1
  Ni  Ni35  1  0.16177666  0.82740768  0.82853391  1
  Cr  Cr36  1  0.49760540  0.15751868  0.49506070  1
  Cr  Cr37  1  0.32842238  0.99350832  0.66671194  1
  Ni  Ni38  1  0.49679764  0.16159319  0.83216163  1
  Ni  Ni39  1  0.49740909  0.50006730  0.49834367  1
  Cr  Cr40  1  0.33128500  0.32801664  0.66605294  1
  Ni  Ni41  1  0.49681341  0.49798295  0.83060821  1
  Ni  Ni42  1  0.49584778  0.82646906  0.49801549  1
  Ni  Ni43  1  0.33240055  0.66505881  0.66304933  1
  Ni  Ni44  1  0.49802495  0.82792178  0.82685683  1
  Ni  Ni45  1  0.82699991  0.16028944  0.49603622  1
  Ni  Ni46  1  0.65961161  0.99358603  0.66273685  1
  Cr  Cr47  1  0.82566683  0.16057577  0.83132545  1
  Ni  Ni48  1  0.82649890  0.49838991  0.49940663  1
  Cr  Cr49  1  0.66187764  0.33078598  0.66174301  1
  Cr  Cr50  1  0.82905205  0.49889938  0.82907075  1
  Cr  Cr51  1  0.82508951  0.82918601  0.49844768  1
  Ni  Ni52  1  0.65863863  0.66315815  0.66210283  1
  Cr  Cr53  1  0.82710639  0.82775318  0.82974497  1
" 