2180,Ni55Fe5Cr38_19,-223.713592799125, 148.890494939311,Ni55Fe5Cr38,"# generated using pymatgen
 data_Cr22Fe3Ni29
_symmetry_space_group_name_H-M   'P 1'
_cell_length_a   7.49499350
_cell_length_b   7.49499350
_cell_length_c   10.59952145
_cell_angle_alpha   90.00000000
_cell_angle_beta   90.00000000
_cell_angle_gamma   90.00000000
_symmetry_Int_Tables_number   1
_chemical_formula_structural   Cr22Fe3Ni29
_chemical_formula_sum   'Cr22 Fe3 Ni29'
_cell_volume   595.42734901
_cell_formula_units_Z   1
loop_
 _symmetry_equiv_pos_site_id
 _symmetry_equiv_pos_as_xyz
  1  'x, y, z'
loop_
 _atom_site_type_symbol
 _atom_site_label
 _atom_site_symmetry_multiplicity
 _atom_site_fract_x
 _atom_site_fract_y
 _atom_site_fract_z
 _atom_site_occupancy
  Ni  Ni0  1  0.99798240  0.99589835  0.99707625  1
  Cr  Cr1  1  0.16311150  0.16462083  0.16579225  1
  Ni  Ni2  1  0.00097297  0.99703635  0.33388250  1
  Ni  Ni3  1  0.99796400  0.33590978  0.99667843  1
  Ni  Ni4  1  0.16364090  0.49965496  0.16532587  1
  Ni  Ni5  1  -0.00150844  0.33227004  0.33081943  1
  Ni  Ni6  1  -0.00099230  0.66249679  -0.00130773  1
  Ni  Ni7  1  0.16408422  0.82904897  0.16621926  1
  Ni  Ni8  1  -0.00048623  0.66526615  0.33071106  1
  Cr  Cr9  1  0.33159454  0.99701177  0.00022476  1
  Ni  Ni10  1  0.49666939  0.16728887  0.16870255  1
  Ni  Ni11  1  0.32866986  -0.00106281  0.33214281  1
  Cr  Cr12  1  0.33167911  0.33547213  -0.00036072  1
  Ni  Ni13  1  0.49717491  0.49786803  0.16869283  1
  Ni  Ni14  1  0.33246729  0.33224232  0.33168966  1
  Fe  Fe15  1  0.32960032  0.66219754  -0.00070322  1
  Cr  Cr16  1  0.49587530  0.82990677  0.16579217  1
  Ni  Ni17  1  0.32979738  0.66355469  0.32934876  1
  Cr  Cr18  1  0.66560361  -0.00133058  0.99595562  1
  Cr  Cr19  1  0.83317586  0.16725205  0.16367629  1
  Cr  Cr20  1  0.66553707  0.00041147  0.33203317  1
  Cr  Cr21  1  0.66498687  0.33385753  0.00038773  1
  Ni  Ni22  1  0.83340026  0.49773273  0.16731764  1
  Ni  Ni23  1  0.66335813  0.33369081  0.33036748  1
  Cr  Cr24  1  0.66575297  0.66190217  0.99689998  1
  Cr  Cr25  1  0.83458098  0.82951352  0.16673188  1
  Ni  Ni26  1  0.66493736  0.66132355  0.33215770  1
  Fe  Fe27  1  0.16387241  0.16674137  0.49596194  1
  Cr  Cr28  1  0.99734695  0.99791363  0.66195712  1
  Cr  Cr29  1  0.16226175  0.16800088  0.83068465  1
  Cr  Cr30  1  0.16616362  0.49723499  0.49772056  1
  Ni  Ni31  1  -0.00126077  0.33127643  0.66629562  1
  Ni  Ni32  1  0.16394494  0.49710578  0.83225905  1
  Ni  Ni33  1  0.16444805  0.83268811  0.49304661  1
  Cr  Cr34  1  0.99574253  0.66473116  0.66451027  1
  Cr  Cr35  1  0.16518269  0.83000993  0.83444880  1
  Fe  Fe36  1  0.49789765  0.16731309  0.49611746  1
  Cr  Cr37  1  0.33011627  -0.00076715  0.66158253  1
  Cr  Cr38  1  0.49750016  0.16510199  0.83078199  1
  Ni  Ni39  1  0.49729883  0.49664698  0.49680750  1
  Ni  Ni40  1  0.33094542  0.33294321  0.66373026  1
  Ni  Ni41  1  0.49742909  0.50041845  0.82999229  1
  Cr  Cr42  1  0.49829315  0.82653247  0.49741814  1
  Cr  Cr43  1  0.33128744  0.66285198  0.66714681  1
  Ni  Ni44  1  0.49985014  0.82748808  0.83134255  1
  Ni  Ni45  1  0.83390317  0.16607254  0.49664435  1
  Cr  Cr46  1  0.66701474  0.99618592  0.66602100  1
  Ni  Ni47  1  0.83420952  0.16609554  0.83280222  1
  Cr  Cr48  1  0.82977132  0.49818621  0.49568440  1
  Cr  Cr49  1  0.66528086  0.33336080  0.66493993  1
  Ni  Ni50  1  0.83294792  0.49777001  0.83121943  1
  Ni  Ni51  1  0.83222548  0.83212064  0.49622005  1
  Ni  Ni52  1  0.66510778  0.66411662  0.66618335  1
  Ni  Ni53  1  0.83091628  0.83015318  0.83155436  1
" 