7975,Ni55Fe36Cr7_2,-238.241584743639, 214.3026950793,Ni55Fe36Cr7,"# generated using pymatgen
 data_Cr5Fe19Ni30
_symmetry_space_group_name_H-M   'P 1'
_cell_length_a   7.42165422
_cell_length_b   7.42165422
_cell_length_c   10.49580405
_cell_angle_alpha   90.00000000
_cell_angle_beta   90.00000000
_cell_angle_gamma   90.00000000
_symmetry_Int_Tables_number   1
_chemical_formula_structural   Cr5Fe19Ni30
_chemical_formula_sum   'Cr5 Fe19 Ni30'
_cell_volume   578.11887206
_cell_formula_units_Z   1
loop_
 _symmetry_equiv_pos_site_id
 _symmetry_equiv_pos_as_xyz
  1  'x, y, z'
loop_
 _atom_site_type_symbol
 _atom_site_label
 _atom_site_symmetry_multiplicity
 _atom_site_fract_x
 _atom_site_fract_y
 _atom_site_fract_z
 _atom_site_occupancy
  Fe  Fe0  1  0.00475211  0.00348024  1.00257560  1
  Ni  Ni1  1  0.16943655  0.17168637  0.16974604  1
  Cr  Cr2  1  0.00348423  1.00102021  0.33903668  1
  Fe  Fe3  1  0.00412991  0.33713226  1.00143619  1
  Ni  Ni4  1  0.16868358  0.50194974  0.17170607  1
  Fe  Fe5  1  0.00374315  0.33720610  0.33871297  1
  Fe  Fe6  1  1.00018828  0.66747553  0.00479925  1
  Ni  Ni7  1  0.16924938  0.83660429  0.16956426  1
  Ni  Ni8  1  1.00247180  0.66761440  0.33537293  1
  Fe  Fe9  1  0.33735491  0.00358207  1.00257501  1
  Cr  Cr10  1  0.50295555  0.16965137  0.17058528  1
  Ni  Ni11  1  0.33643948  0.00526831  0.33624091  1
  Fe  Fe12  1  0.33735387  0.33616936  1.00219911  1
  Ni  Ni13  1  0.50243597  0.50396379  0.17239881  1
  Ni  Ni14  1  0.33556297  0.33876775  0.33628795  1
  Cr  Cr15  1  0.33462274  0.66774112  0.00442282  1
  Ni  Ni16  1  0.50441340  0.83616032  0.17137131  1
  Fe  Fe17  1  0.33624674  0.67204031  0.33661516  1
  Ni  Ni18  1  0.67090954  0.00408974  1.00218378  1
  Cr  Cr19  1  0.83687104  0.17046173  0.17062943  1
  Ni  Ni20  1  0.66954432  1.00052987  0.33873452  1
  Ni  Ni21  1  0.67043774  0.33835794  1.00074022  1
  Fe  Fe22  1  0.83593798  0.50447257  0.16934733  1
  Fe  Fe23  1  0.66896753  0.33706695  0.33954118  1
  Fe  Fe24  1  0.66808878  0.66852531  0.00411691  1
  Ni  Ni25  1  0.83528632  0.83602871  0.16917951  1
  Ni  Ni26  1  0.67115094  0.66849145  0.33485796  1
  Fe  Fe27  1  0.17414643  0.17241194  0.50504335  1
  Ni  Ni28  1  0.00306743  0.00351412  0.66844056  1
  Ni  Ni29  1  0.16953105  0.16983766  0.83662705  1
  Ni  Ni30  1  0.16997116  0.50343060  0.50268067  1
  Fe  Fe31  1  0.00448202  0.33478613  0.66958705  1
  Ni  Ni32  1  0.16891932  0.50154339  0.83496423  1
  Fe  Fe33  1  0.17160996  0.83524509  0.50386887  1
  Fe  Fe34  1  0.00469535  0.66877469  0.66763766  1
  Fe  Fe35  1  0.16968947  0.83523225  0.83469416  1
  Ni  Ni36  1  0.50322729  0.16880496  0.50391655  1
  Ni  Ni37  1  0.33659663  1.00296131  0.67149611  1
  Fe  Fe38  1  0.50478563  0.17089658  0.83549810  1
  Ni  Ni39  1  0.50159270  0.50380080  0.50221710  1
  Ni  Ni40  1  0.33712528  0.33826929  0.67191759  1
  Ni  Ni41  1  0.50308101  0.50539455  0.83412250  1
  Ni  Ni42  1  0.50191401  0.83747192  0.50173065  1
  Ni  Ni43  1  0.33571738  0.66832443  0.66834652  1
  Ni  Ni44  1  0.50228973  0.83700520  0.83555258  1
  Ni  Ni45  1  0.83637072  0.16940734  0.50474877  1
  Ni  Ni46  1  0.67029739  0.00441938  0.66829761  1
  Ni  Ni47  1  0.83829900  0.17013534  0.83532111  1
  Ni  Ni48  1  0.83773615  0.50170103  0.50332452  1
  Fe  Fe49  1  0.66886100  0.33620375  0.66955725  1
  Ni  Ni50  1  0.83695610  0.50198720  0.83535149  1
  Fe  Fe51  1  0.83354304  0.83271691  0.50341664  1
  Fe  Fe52  1  0.66591903  0.66949867  0.66711242  1
  Cr  Cr53  1  0.83399821  0.83582897  0.83469299  1
" 