3965,Ni55Fe36Cr7_12,-239.05647519234, 216.747755360601,Ni55Fe36Cr7,"# generated using pymatgen
 data_Cr5Fe19Ni30
_symmetry_space_group_name_H-M   'P 1'
_cell_length_a   7.41942966
_cell_length_b   7.41942966
_cell_length_c   10.49265806
_cell_angle_alpha   90.00000000
_cell_angle_beta   90.00000000
_cell_angle_gamma   90.00000000
_symmetry_Int_Tables_number   1
_chemical_formula_structural   Cr5Fe19Ni30
_chemical_formula_sum   'Cr5 Fe19 Ni30'
_cell_volume   577.59917497
_cell_formula_units_Z   1
loop_
 _symmetry_equiv_pos_site_id
 _symmetry_equiv_pos_as_xyz
  1  'x, y, z'
loop_
 _atom_site_type_symbol
 _atom_site_label
 _atom_site_symmetry_multiplicity
 _atom_site_fract_x
 _atom_site_fract_y
 _atom_site_fract_z
 _atom_site_occupancy
  Ni  Ni0  1  0.00457980  1.00303424  0.00398925  1
  Fe  Fe1  1  0.16952712  0.16762705  0.16951682  1
  Fe  Fe2  1  0.00391652  0.00470264  0.33637360  1
  Ni  Ni3  1  1.00114124  0.33572538  1.00279292  1
  Cr  Cr4  1  0.16890233  0.50470959  0.16935951  1
  Ni  Ni5  1  1.00072025  0.33490085  0.33681614  1
  Ni  Ni6  1  1.00278564  0.67086520  1.00270828  1
  Ni  Ni7  1  0.17111674  0.83788621  0.17013389  1
  Fe  Fe8  1  0.00384152  0.67017315  0.33521619  1
  Ni  Ni9  1  0.33552234  1.00215620  0.00364122  1
  Ni  Ni10  1  0.50497289  0.16890067  0.16901842  1
  Ni  Ni11  1  0.33557881  1.00116314  0.33668273  1
  Fe  Fe12  1  0.33672958  0.33583579  1.00261748  1
  Ni  Ni13  1  0.50606507  0.50396761  0.16849019  1
  Cr  Cr14  1  0.33747969  0.33508218  0.33663302  1
  Ni  Ni15  1  0.33709848  0.67196329  0.00326267  1
  Ni  Ni16  1  0.50152342  0.83675930  0.17067327  1
  Fe  Fe17  1  0.33787293  0.67176133  0.33713126  1
  Fe  Fe18  1  0.67002288  0.00353766  1.00290729  1
  Ni  Ni19  1  0.83597005  0.17129965  0.17073037  1
  Fe  Fe20  1  0.66901716  0.00493067  0.33591037  1
  Ni  Ni21  1  0.67062094  0.33730544  0.00433425  1
  Ni  Ni22  1  0.83484608  0.50153850  0.17032219  1
  Ni  Ni23  1  0.67166499  0.33726855  0.33603221  1
  Fe  Fe24  1  0.67010119  0.66959114  0.00349985  1
  Fe  Fe25  1  0.83601228  0.83602522  0.17002460  1
  Ni  Ni26  1  0.66875856  0.66898452  0.33420186  1
  Ni  Ni27  1  0.16826144  0.16890210  0.50318407  1
  Ni  Ni28  1  1.00235618  0.00383120  0.67014640  1
  Fe  Fe29  1  0.16855694  0.16998162  0.83697444  1
  Fe  Fe30  1  0.17065097  0.50330349  0.50400892  1
  Fe  Fe31  1  1.00320747  0.33520758  0.67045914  1
  Fe  Fe32  1  0.16966135  0.50385556  0.83689492  1
  Ni  Ni33  1  0.17170468  0.83665634  0.50244623  1
  Fe  Fe34  1  0.00458271  0.67031321  0.67188909  1
  Ni  Ni35  1  0.17050449  0.83574902  0.83704584  1
  Fe  Fe36  1  0.50453378  0.17013212  0.50299772  1
  Cr  Cr37  1  0.33566029  1.00273950  0.66929767  1
  Fe  Fe38  1  0.50453094  0.17033558  0.83744410  1
  Ni  Ni39  1  0.50238978  0.50381982  0.50438158  1
  Ni  Ni40  1  0.33689459  0.33859577  0.66987508  1
  Fe  Fe41  1  0.50355858  0.50363092  0.83581834  1
  Fe  Fe42  1  0.50253635  0.83585691  0.50272356  1
  Ni  Ni43  1  0.33689235  0.66836591  0.66830724  1
  Ni  Ni44  1  0.50222752  0.83566709  0.83649793  1
  Ni  Ni45  1  0.83693189  0.17054638  0.50363029  1
  Ni  Ni46  1  0.67171289  0.00383829  0.67005173  1
  Ni  Ni47  1  0.83658281  0.17107873  0.83526837  1
  Cr  Cr48  1  0.83512606  0.50024342  0.50308374  1
  Ni  Ni49  1  0.66951392  0.33656312  0.66925647  1
  Ni  Ni50  1  0.83649702  0.50173732  0.83640277  1
  Cr  Cr51  1  0.83670395  0.83864996  0.50441516  1
  Ni  Ni52  1  0.66835474  0.66922690  0.67188054  1
  Fe  Fe53  1  0.83676400  0.83676315  0.83588496  1
" 