8513,Ni55Fe5Cr38_3,-223.776323418043, 150.715563905277,Ni55Fe5Cr38,"# generated using pymatgen
 data_Cr22Fe3Ni29
_symmetry_space_group_name_H-M   'P 1'
_cell_length_a   7.49410075
_cell_length_b   7.49410075
_cell_length_c   10.59825892
_cell_angle_alpha   90.00000000
_cell_angle_beta   90.00000000
_cell_angle_gamma   90.00000000
_symmetry_Int_Tables_number   1
_chemical_formula_structural   Cr22Fe3Ni29
_chemical_formula_sum   'Cr22 Fe3 Ni29'
_cell_volume   595.21460588
_cell_formula_units_Z   1
loop_
 _symmetry_equiv_pos_site_id
 _symmetry_equiv_pos_as_xyz
  1  'x, y, z'
loop_
 _atom_site_type_symbol
 _atom_site_label
 _atom_site_symmetry_multiplicity
 _atom_site_fract_x
 _atom_site_fract_y
 _atom_site_fract_z
 _atom_site_occupancy
  Ni  Ni0  1  0.00274942  0.00142628  0.99708092  1
  Cr  Cr1  1  0.16334131  0.16567926  0.16502753  1
  Ni  Ni2  1  0.00005185  0.99784825  0.33084912  1
  Ni  Ni3  1  0.99711192  0.32963754  -0.00152662  1
  Fe  Fe4  1  0.16701702  0.49780372  0.16429801  1
  Ni  Ni5  1  -0.00150554  0.33188651  0.32849799  1
  Cr  Cr6  1  0.00123596  0.66569075  0.99796186  1
  Ni  Ni7  1  0.16602118  0.83382094  0.16447209  1
  Cr  Cr8  1  0.00022271  0.66518925  0.33291267  1
  Ni  Ni9  1  0.32660880  -0.00132191  0.99547049  1
  Cr  Cr10  1  0.49560999  0.16511230  0.16599951  1
  Ni  Ni11  1  0.32928666  0.99704059  0.33336606  1
  Ni  Ni12  1  0.33251015  0.33160826  0.99659496  1
  Ni  Ni13  1  0.49561599  0.49528044  0.16294548  1
  Ni  Ni14  1  0.33077945  0.33214793  0.33104283  1
  Ni  Ni15  1  0.32954736  0.66395518  0.00007614  1
  Cr  Cr16  1  0.49447531  0.83171688  0.16505400  1
  Ni  Ni17  1  0.32874252  0.66507733  0.32817151  1
  Cr  Cr18  1  0.66372851  0.00389174  0.99653735  1
  Fe  Fe19  1  0.83197600  0.16628460  0.16426861  1
  Ni  Ni20  1  0.66527516  -0.00069432  0.33363889  1
  Ni  Ni21  1  0.66493005  0.33246394  0.99663951  1
  Ni  Ni22  1  0.83291598  0.49377667  0.16352079  1
  Cr  Cr23  1  0.66422411  0.33222110  0.33117606  1
  Cr  Cr24  1  0.66245020  0.65915596  -0.00047413  1
  Cr  Cr25  1  0.83339481  0.83558475  0.16511088  1
  Cr  Cr26  1  0.66411533  0.66370490  0.33028357  1
  Cr  Cr27  1  0.16894206  0.16585463  0.49611913  1
  Cr  Cr28  1  0.00174220  -0.00163331  0.66659990  1
  Ni  Ni29  1  0.16706476  0.16456041  0.83378917  1
  Cr  Cr30  1  0.16530742  0.49712198  0.49794914  1
  Cr  Cr31  1  0.99781420  0.33062244  0.66640507  1
  Cr  Cr32  1  0.16639044  0.49691279  0.83141283  1
  Ni  Ni33  1  0.16528888  0.83184451  0.49826859  1
  Fe  Fe34  1  0.00122056  0.66620491  0.66424139  1
  Ni  Ni35  1  0.16720430  0.83349838  0.83235670  1
  Ni  Ni36  1  0.49579052  0.16301666  0.49850726  1
  Ni  Ni37  1  0.33170844  -0.00130748  0.66618359  1
  Ni  Ni38  1  0.49550970  0.16676584  0.83065630  1
  Cr  Cr39  1  0.49423871  0.49590201  0.49884450  1
  Ni  Ni40  1  0.33282430  0.32916909  0.66699148  1
  Ni  Ni41  1  0.49666580  0.49505868  0.83344161  1
  Cr  Cr42  1  0.49772121  0.83441859  0.49705789  1
  Ni  Ni43  1  0.32954568  0.66657129  0.66625679  1
  Cr  Cr44  1  0.49551846  0.83088506  0.83268779  1
  Cr  Cr45  1  0.83160581  0.16380535  0.49383652  1
  Ni  Ni46  1  0.66375484  0.00021711  0.66423208  1
  Ni  Ni47  1  0.83223886  0.16687201  0.83590822  1
  Ni  Ni48  1  0.83400485  0.49997996  0.49872045  1
  Cr  Cr49  1  0.66337484  0.32885069  0.66701057  1
  Ni  Ni50  1  0.83121506  0.49476741  0.83248067  1
  Ni  Ni51  1  0.83380628  0.83220031  0.49835422  1
  Cr  Cr52  1  0.66649854  0.66260739  0.66464477  1
  Cr  Cr53  1  0.83310314  0.83177646  0.83057932  1
" 