4985,Ni55Cr45_18,-217.473747976332, 131.373957063835,Ni55Cr45,"# generated using pymatgen
 data_Cr29Ni25
_symmetry_space_group_name_H-M   'P 1'
_cell_length_a   7.52895533
_cell_length_b   7.52895533
_cell_length_c   10.64755074
_cell_angle_alpha   90.00000000
_cell_angle_beta   90.00000000
_cell_angle_gamma   90.00000000
_symmetry_Int_Tables_number   1
_chemical_formula_structural   Cr29Ni25
_chemical_formula_sum   'Cr29 Ni25'
_cell_volume   603.55820641
_cell_formula_units_Z   1
loop_
 _symmetry_equiv_pos_site_id
 _symmetry_equiv_pos_as_xyz
  1  'x, y, z'
loop_
 _atom_site_type_symbol
 _atom_site_label
 _atom_site_symmetry_multiplicity
 _atom_site_fract_x
 _atom_site_fract_y
 _atom_site_fract_z
 _atom_site_occupancy
  Ni  Ni0  1  -0.00218359  -0.00352175  0.99571899  1
  Ni  Ni1  1  0.16385765  0.16147991  0.15963833  1
  Cr  Cr2  1  -0.00195708  -0.00197336  0.33378618  1
  Ni  Ni3  1  0.99517005  0.32769628  -0.00326808  1
  Cr  Cr4  1  0.16131047  0.49624897  0.16434202  1
  Cr  Cr5  1  -0.00128546  0.32710221  0.33161522  1
  Ni  Ni6  1  -0.00284375  0.66354748  0.99420925  1
  Cr  Cr7  1  0.16286274  0.83044463  0.16312864  1
  Ni  Ni8  1  0.00070678  0.66255073  0.33231870  1
  Ni  Ni9  1  0.32844192  -0.00117002  0.99501305  1
  Ni  Ni10  1  0.49416749  0.16140014  0.15885806  1
  Cr  Cr11  1  0.32861719  -0.00134501  0.33180340  1
  Cr  Cr12  1  0.32967605  0.32845635  -0.00329856  1
  Cr  Cr13  1  0.49470949  0.49524381  0.16409827  1
  Cr  Cr14  1  0.32892391  0.32891038  0.33042718  1
  Cr  Cr15  1  0.32751166  0.66388455  0.99378288  1
  Cr  Cr16  1  0.49365290  0.83226805  0.16376874  1
  Ni  Ni17  1  0.32659396  0.66274818  0.33438364  1
  Ni  Ni18  1  0.66106907  -0.00004500  -0.00400741  1
  Cr  Cr19  1  0.82995012  0.16157908  0.16091281  1
  Cr  Cr20  1  0.66134058  -0.00144889  0.33248144  1
  Ni  Ni21  1  0.66273680  0.32436165  0.99556420  1
  Cr  Cr22  1  0.83101303  0.49569425  0.16133903  1
  Cr  Cr23  1  0.66062601  0.32696462  0.33024240  1
  Cr  Cr24  1  0.66201236  0.66174512  0.99353385  1
  Cr  Cr25  1  0.83064667  0.82964474  0.16275515  1
  Cr  Cr26  1  0.65955572  0.66212408  0.33170584  1
  Ni  Ni27  1  0.16490336  0.16394333  0.49911434  1
  Cr  Cr28  1  -0.00026447  0.99531139  0.65931790  1
  Cr  Cr29  1  0.16566336  0.16142050  0.82800643  1
  Ni  Ni30  1  0.16444417  0.49603119  0.49732705  1
  Ni  Ni31  1  -0.00250499  0.32968730  0.65869199  1
  Cr  Cr32  1  0.15991746  0.49355812  0.82707436  1
  Ni  Ni33  1  0.16559025  0.82805738  0.49687519  1
  Ni  Ni34  1  -0.00237525  0.66188120  0.66167750  1
  Ni  Ni35  1  0.16156966  0.83099298  0.82997265  1
  Ni  Ni36  1  0.49373316  0.16342288  0.49933316  1
  Ni  Ni37  1  0.32918124  -0.00191888  0.66100296  1
  Ni  Ni38  1  0.49562768  0.16237254  0.82871056  1
  Ni  Ni39  1  0.49299487  0.49502460  0.49805512  1
  Ni  Ni40  1  0.32985933  0.32644308  0.65924266  1
  Cr  Cr41  1  0.49690243  0.48999127  0.82525819  1
  Ni  Ni42  1  0.49163549  0.82883012  0.49698972  1
  Cr  Cr43  1  0.32819811  0.66343806  0.66264295  1
  Cr  Cr44  1  0.49330661  0.83523849  0.82815973  1
  Ni  Ni45  1  0.82909235  0.16521292  0.49856356  1
  Cr  Cr46  1  0.66115569  -0.00390561  0.65951142  1
  Cr  Cr47  1  0.82893915  0.16427942  0.82824182  1
  Cr  Cr48  1  0.83025218  0.49480836  0.49805611  1
  Ni  Ni49  1  0.66034608  0.32789917  0.65996523  1
  Cr  Cr50  1  0.83011407  0.49351490  0.82649360  1
  Cr  Cr51  1  0.82971930  0.82805998  0.49532431  1
  Ni  Ni52  1  0.66217339  0.66024773  0.66021824  1
  Cr  Cr53  1  0.83093193  0.82955572  0.82930936  1
" 