5544,Ni55Fe36Cr7_10,-239.534165857423, 212.25800750595,Ni55Fe36Cr7,"# generated using pymatgen
 data_Cr5Fe19Ni30
_symmetry_space_group_name_H-M   'P 1'
_cell_length_a   7.42690594
_cell_length_b   7.42690594
_cell_length_c   10.50323111
_cell_angle_alpha   90.00000000
_cell_angle_beta   90.00000000
_cell_angle_gamma   90.00000000
_symmetry_Int_Tables_number   1
_chemical_formula_structural   Cr5Fe19Ni30
_chemical_formula_sum   'Cr5 Fe19 Ni30'
_cell_volume   579.34700941
_cell_formula_units_Z   1
loop_
 _symmetry_equiv_pos_site_id
 _symmetry_equiv_pos_as_xyz
  1  'x, y, z'
loop_
 _atom_site_type_symbol
 _atom_site_label
 _atom_site_symmetry_multiplicity
 _atom_site_fract_x
 _atom_site_fract_y
 _atom_site_fract_z
 _atom_site_occupancy
  Ni  Ni0  1  0.00322826  0.00356321  1.00232400  1
  Fe  Fe1  1  0.16897851  0.16849053  0.16863643  1
  Ni  Ni2  1  0.00347301  0.00394908  0.33511425  1
  Fe  Fe3  1  0.99980390  0.33738058  0.00281746  1
  Fe  Fe4  1  0.16925722  0.50485594  0.16825372  1
  Fe  Fe5  1  1.00125978  0.33610393  0.33572857  1
  Ni  Ni6  1  0.00354544  0.67111370  1.00179710  1
  Ni  Ni7  1  0.16870589  0.83595133  0.17024218  1
  Fe  Fe8  1  0.00277682  0.66939918  0.33344526  1
  Fe  Fe9  1  0.33662095  0.99878248  0.00356547  1
  Fe  Fe10  1  0.50515401  0.16757561  0.16954876  1
  Ni  Ni11  1  0.33449730  1.00147382  0.33585731  1
  Fe  Fe12  1  0.33615766  0.33814945  0.00461485  1
  Ni  Ni13  1  0.50346752  0.50315045  0.16845548  1
  Cr  Cr14  1  0.33808666  0.33772862  0.33628840  1
  Ni  Ni15  1  0.33585391  0.66823097  1.00227777  1
  Fe  Fe16  1  0.50348793  0.83583942  0.16941899  1
  Ni  Ni17  1  0.33641874  0.66980105  0.33666722  1
  Ni  Ni18  1  0.67326105  0.00327871  1.00119789  1
  Ni  Ni19  1  0.83631156  0.16967883  0.17016569  1
  Ni  Ni20  1  0.66960163  0.00374251  0.33685032  1
  Ni  Ni21  1  0.66990176  0.33686420  0.00397361  1
  Fe  Fe22  1  0.83606225  0.50382771  0.16787189  1
  Ni  Ni23  1  0.67122262  0.33776531  0.33582377  1
  Ni  Ni24  1  0.66867091  0.66770273  1.00221709  1
  Fe  Fe25  1  0.83539313  0.83692897  0.16841249  1
  Ni  Ni26  1  0.66790822  0.66660724  0.33414503  1
  Ni  Ni27  1  0.16762095  0.17008135  0.50021268  1
  Cr  Cr28  1  1.00219349  0.00364050  0.67165759  1
  Ni  Ni29  1  0.16805038  0.17104911  0.84021424  1
  Fe  Fe30  1  0.17025210  0.50488832  0.50345804  1
  Fe  Fe31  1  0.00365168  0.33843294  0.66998780  1
  Fe  Fe32  1  0.16956066  0.50336193  0.83658227  1
  Ni  Ni33  1  0.16880027  0.83486612  0.50011622  1
  Fe  Fe34  1  0.00276231  0.66809476  0.67160713  1
  Ni  Ni35  1  0.16931030  0.83503084  0.83741841  1
  Ni  Ni36  1  0.50324537  0.17060003  0.50146207  1
  Cr  Cr37  1  0.33404324  1.00005539  0.66789446  1
  Cr  Cr38  1  0.50299433  0.17223796  0.83751633  1
  Ni  Ni39  1  0.50450365  0.50353600  0.50338775  1
  Fe  Fe40  1  0.33600363  0.33690277  0.66804447  1
  Ni  Ni41  1  0.50288911  0.50296551  0.83644182  1
  Ni  Ni42  1  0.50226910  0.83355250  0.50032105  1
  Ni  Ni43  1  0.33647882  0.66779095  0.66899071  1
  Ni  Ni44  1  0.50291701  0.83248656  0.83740047  1
  Fe  Fe45  1  0.83482116  0.17025666  0.50167961  1
  Fe  Fe46  1  0.66758371  1.00037123  0.66996791  1
  Ni  Ni47  1  0.83676255  0.17158842  0.83546263  1
  Fe  Fe48  1  0.83519904  0.50205062  0.50329529  1
  Ni  Ni49  1  0.67089077  0.33779137  0.66816877  1
  Ni  Ni50  1  0.83473220  0.50238292  0.83731082  1
  Cr  Cr51  1  0.83582452  0.83357686  0.50139105  1
  Ni  Ni52  1  0.66754676  0.66609839  0.67189784  1
  Ni  Ni53  1  0.83591851  0.83430666  0.83833376  1
" 