5808,Ni56Cr44_18,-216.791236992768, 132.664804484802,Ni56Cr44,"# generated using pymatgen
 data_Cr5Ni4
_symmetry_space_group_name_H-M   'P 1'
_cell_length_a   7.52924806
_cell_length_b   7.52924806
_cell_length_c   10.64796473
_cell_angle_alpha   90.00000000
_cell_angle_beta   90.00000000
_cell_angle_gamma   90.00000000
_symmetry_Int_Tables_number   1
_chemical_formula_structural   Cr5Ni4
_chemical_formula_sum   'Cr30 Ni24'
_cell_volume   603.62861008
_cell_formula_units_Z   6
loop_
 _symmetry_equiv_pos_site_id
 _symmetry_equiv_pos_as_xyz
  1  'x, y, z'
loop_
 _atom_site_type_symbol
 _atom_site_label
 _atom_site_symmetry_multiplicity
 _atom_site_fract_x
 _atom_site_fract_y
 _atom_site_fract_z
 _atom_site_occupancy
  Cr  Cr0  1  -0.00379631  0.99397109  0.99532580  1
  Cr  Cr1  1  0.16168878  0.16065314  0.16219853  1
  Ni  Ni2  1  -0.00289678  0.99457443  0.32845226  1
  Cr  Cr3  1  -0.00327549  0.33062292  0.99552164  1
  Cr  Cr4  1  0.16348935  0.49797359  0.16158954  1
  Cr  Cr5  1  0.99169666  0.32797051  0.32811464  1
  Ni  Ni6  1  0.99582963  0.66446755  0.99429087  1
  Ni  Ni7  1  0.16228305  0.82950321  0.16348271  1
  Cr  Cr8  1  -0.00137555  0.66433128  0.32891882  1
  Ni  Ni9  1  0.32882968  -0.00342944  0.99526818  1
  Cr  Cr10  1  0.49781857  0.16312487  0.15936397  1
  Cr  Cr11  1  0.32749765  0.99309275  0.33005700  1
  Ni  Ni12  1  0.32970988  0.32744609  0.99364791  1
  Cr  Cr13  1  0.49622115  0.49556861  0.16173810  1
  Cr  Cr14  1  0.33282456  0.33090889  0.33068379  1
  Cr  Cr15  1  0.32619443  0.66315136  0.99586641  1
  Cr  Cr16  1  0.49439729  0.82888965  0.16048544  1
  Ni  Ni17  1  0.32786443  0.66387689  0.33007584  1
  Ni  Ni18  1  0.66222228  -0.00410615  -0.00370009  1
  Ni  Ni19  1  0.82735567  0.16232232  0.16330618  1
  Cr  Cr20  1  0.66374392  0.00001595  0.32858977  1
  Ni  Ni21  1  0.66134162  0.32812377  -0.00206974  1
  Cr  Cr22  1  0.82787138  0.49450666  0.16104747  1
  Ni  Ni23  1  0.66260507  0.32908954  0.33106692  1
  Ni  Ni24  1  0.66501102  0.66358401  0.99466197  1
  Cr  Cr25  1  0.83036677  0.83068244  0.16049012  1
  Cr  Cr26  1  0.66081159  0.65897713  0.33182875  1
  Cr  Cr27  1  0.16176851  0.16083176  0.49815161  1
  Ni  Ni28  1  -0.00230872  -0.00400062  0.66377431  1
  Ni  Ni29  1  0.16342875  0.16334513  0.82802866  1
  Cr  Cr30  1  0.16328329  0.49612839  0.49615967  1
  Ni  Ni31  1  -0.00341650  0.32839868  0.66334673  1
  Ni  Ni32  1  0.16239836  0.49392465  0.82960492  1
  Ni  Ni33  1  0.16191629  0.83005373  0.49381757  1
  Cr  Cr34  1  0.99507152  0.66309089  0.66452394  1
  Ni  Ni35  1  0.15954447  0.83035785  0.83030432  1
  Ni  Ni36  1  0.49692877  0.16767299  0.49649984  1
  Cr  Cr37  1  0.32686931  -0.00267776  0.66283909  1
  Cr  Cr38  1  0.49360679  0.16378848  0.83126052  1
  Ni  Ni39  1  0.49872903  0.49324116  0.49633976  1
  Ni  Ni40  1  0.32925207  0.32909206  0.66281683  1
  Cr  Cr41  1  0.49587113  0.49467131  0.82940565  1
  Cr  Cr42  1  0.49442854  0.82716408  0.49554630  1
  Cr  Cr43  1  0.32923922  0.66127791  0.66139661  1
  Cr  Cr44  1  0.49873532  0.82908407  0.83163804  1
  Cr  Cr45  1  0.82974511  0.16432924  0.49583108  1
  Cr  Cr46  1  0.66347216  0.99567867  0.66282348  1
  Cr  Cr47  1  0.83030925  0.16146447  0.82808144  1
  Ni  Ni48  1  0.82475846  0.49390796  0.49749757  1
  Ni  Ni49  1  0.66175867  0.33187998  0.65854414  1
  Cr  Cr50  1  0.82911199  0.49807147  0.82896489  1
  Cr  Cr51  1  0.83163266  0.82881931  0.49760424  1
  Ni  Ni52  1  0.66387704  0.65932459  0.66156209  1
  Ni  Ni53  1  0.83060640  0.82813473  0.83028208  1
" 