8659,Ni56Fe27Cr16_0,-234.219416262406, 198.759702233744,Ni56Fe27Cr16,"# generated using pymatgen
 data_Cr5Fe7Ni15
_symmetry_space_group_name_H-M   'P 1'
_cell_length_a   7.43455645
_cell_length_b   7.43455645
_cell_length_c   10.51405057
_cell_angle_alpha   90.00000000
_cell_angle_beta   90.00000000
_cell_angle_gamma   90.00000000
_symmetry_Int_Tables_number   1
_chemical_formula_structural   Cr5Fe7Ni15
_chemical_formula_sum   'Cr10 Fe14 Ni30'
_cell_volume   581.13922318
_cell_formula_units_Z   2
loop_
 _symmetry_equiv_pos_site_id
 _symmetry_equiv_pos_as_xyz
  1  'x, y, z'
loop_
 _atom_site_type_symbol
 _atom_site_label
 _atom_site_symmetry_multiplicity
 _atom_site_fract_x
 _atom_site_fract_y
 _atom_site_fract_z
 _atom_site_occupancy
  Ni  Ni0  1  0.00381478  0.00370792  0.00379217  1
  Ni  Ni1  1  0.16809124  0.16968970  0.16699094  1
  Cr  Cr2  1  1.00172941  0.00333118  0.33442181  1
  Ni  Ni3  1  1.00157139  0.33416800  0.99974944  1
  Cr  Cr4  1  0.17084509  0.50177087  0.16917001  1
  Ni  Ni5  1  0.00311187  0.33594689  0.33777635  1
  Ni  Ni6  1  0.00326048  0.66869694  1.00212343  1
  Ni  Ni7  1  0.16757337  0.83624369  0.16717382  1
  Fe  Fe8  1  0.00241196  0.67083606  0.33605807  1
  Ni  Ni9  1  0.33476715  1.00162553  1.00073005  1
  Fe  Fe10  1  0.50261392  0.16961953  0.16844007  1
  Cr  Cr11  1  0.33563028  1.00170137  0.33627256  1
  Fe  Fe12  1  0.33545733  0.33387376  1.00180864  1
  Ni  Ni13  1  0.50104481  0.49911815  0.16832626  1
  Fe  Fe14  1  0.33636061  0.33468976  0.33703161  1
  Ni  Ni15  1  0.33524290  0.67035709  1.00188371  1
  Cr  Cr16  1  0.50243433  0.83463821  0.16669845  1
  Fe  Fe17  1  0.33414917  0.66839459  0.33619110  1
  Ni  Ni18  1  0.66783045  0.00376012  0.00312978  1
  Ni  Ni19  1  0.83514076  0.16803125  0.16920529  1
  Ni  Ni20  1  0.66899732  0.00248589  0.33647112  1
  Ni  Ni21  1  0.66976020  0.33443515  0.00270109  1
  Cr  Cr22  1  0.83527713  0.50125625  0.16709897  1
  Fe  Fe23  1  0.66872109  0.33275565  0.33583954  1
  Ni  Ni24  1  0.66805864  0.66820373  1.00154313  1
  Ni  Ni25  1  0.83633816  0.83856768  0.16607995  1
  Cr  Cr26  1  0.66832601  0.66971490  0.33578369  1
  Ni  Ni27  1  0.16975181  0.16875847  0.50314053  1
  Ni  Ni28  1  0.00347582  1.00183994  0.66789044  1
  Fe  Fe29  1  0.16767628  0.16618186  0.83645791  1
  Ni  Ni30  1  0.17002551  0.50351071  0.50049786  1
  Cr  Cr31  1  1.00150819  0.33615342  0.66997026  1
  Ni  Ni32  1  0.16809292  0.50400528  0.83773320  1
  Ni  Ni33  1  0.16710986  0.83443828  0.50377439  1
  Fe  Fe34  1  0.00291512  0.67009629  0.66940905  1
  Ni  Ni35  1  0.17008449  0.83581132  0.83582351  1
  Ni  Ni36  1  0.50404253  0.16957362  0.50245036  1
  Ni  Ni37  1  0.33519780  1.00007051  0.66839866  1
  Fe  Fe38  1  0.50451960  0.16607569  0.83479419  1
  Ni  Ni39  1  0.50174435  0.50092322  0.50175767  1
  Cr  Cr40  1  0.33482099  0.33446708  0.66997498  1
  Cr  Cr41  1  0.50307302  0.50285101  0.83728297  1
  Fe  Fe42  1  0.50099178  0.83592096  0.50421693  1
  Fe  Fe43  1  0.33464055  0.66979332  0.66878723  1
  Ni  Ni44  1  0.50086422  0.83724760  0.83405718  1
  Fe  Fe45  1  0.83532219  0.16842627  0.50256097  1
  Ni  Ni46  1  0.66773677  0.00231794  0.66678297  1
  Ni  Ni47  1  0.83395328  0.16859826  0.83521212  1
  Fe  Fe48  1  0.83654085  0.50239076  0.50243331  1
  Ni  Ni49  1  0.66953102  0.33630110  0.66694956  1
  Ni  Ni50  1  0.83567619  0.50051594  0.83583853  1
  Ni  Ni51  1  0.83567791  0.83702368  0.50347333  1
  Fe  Fe52  1  0.66908758  0.66917929  0.66800273  1
  Cr  Cr53  1  0.83537729  0.83790612  0.83783590  1
" 