2277,Ni56Fe11Cr32_14,-227.193522201359, 163.197300793756,Ni56Fe11Cr32,"# generated using pymatgen
 data_Cr3FeNi5
_symmetry_space_group_name_H-M   'P 1'
_cell_length_a   7.48158774
_cell_length_b   7.48158774
_cell_length_c   10.58056285
_cell_angle_alpha   90.00000000
_cell_angle_beta   90.00000000
_cell_angle_gamma   90.00000000
_symmetry_Int_Tables_number   1
_chemical_formula_structural   Cr3FeNi5
_chemical_formula_sum   'Cr18 Fe6 Ni30'
_cell_volume   592.23806592
_cell_formula_units_Z   6
loop_
 _symmetry_equiv_pos_site_id
 _symmetry_equiv_pos_as_xyz
  1  'x, y, z'
loop_
 _atom_site_type_symbol
 _atom_site_label
 _atom_site_symmetry_multiplicity
 _atom_site_fract_x
 _atom_site_fract_y
 _atom_site_fract_z
 _atom_site_occupancy
  Ni  Ni0  1  0.00286101  0.00185197  0.99611538  1
  Fe  Fe1  1  0.16555781  0.16916005  0.16506274  1
  Cr  Cr2  1  0.00027811  0.00014530  0.33740591  1
  Ni  Ni3  1  0.00047184  0.33209938  0.99778410  1
  Ni  Ni4  1  0.16874150  0.49781855  0.16644816  1
  Ni  Ni5  1  0.00222260  0.33612384  0.33327232  1
  Ni  Ni6  1  0.00048472  0.66421078  0.99759395  1
  Cr  Cr7  1  0.16440603  0.83090447  0.16311989  1
  Ni  Ni8  1  0.00042151  0.66416302  0.33448136  1
  Ni  Ni9  1  0.33030718  0.00221590  0.99809023  1
  Fe  Fe10  1  0.49611809  0.16833454  0.16358326  1
  Cr  Cr11  1  0.33200437  0.00007062  0.33228798  1
  Ni  Ni12  1  0.33149168  0.32962641  0.00111936  1
  Ni  Ni13  1  0.49537891  0.49622120  0.16654333  1
  Ni  Ni14  1  0.32977135  0.33450113  0.32962570  1
  Cr  Cr15  1  0.33235588  0.66623748  0.99674909  1
  Fe  Fe16  1  0.49731059  0.82896430  0.16590646  1
  Ni  Ni17  1  0.33221758  0.66545032  0.33251234  1
  Cr  Cr18  1  0.66233828  -0.00022930  0.99824346  1
  Cr  Cr19  1  0.83396209  0.16529197  0.16356955  1
  Cr  Cr20  1  0.66371714  0.99596625  0.33352283  1
  Ni  Ni21  1  0.66487690  0.33150075  0.99692074  1
  Cr  Cr22  1  0.83527263  0.49868935  0.16473958  1
  Cr  Cr23  1  0.66571193  0.33333263  0.33262688  1
  Cr  Cr24  1  0.66537724  0.66246098  0.99795541  1
  Cr  Cr25  1  0.83480598  0.83277876  0.16545278  1
  Fe  Fe26  1  0.66510520  0.66404882  0.33430876  1
  Ni  Ni27  1  0.16615686  0.16593022  0.50017793  1
  Ni  Ni28  1  0.00142747  0.99838880  0.66478633  1
  Fe  Fe29  1  0.16562544  0.16516427  0.83084916  1
  Cr  Cr30  1  0.16633105  0.49858496  0.49914058  1
  Ni  Ni31  1  0.99868193  0.33273254  0.66559479  1
  Cr  Cr32  1  0.16430211  0.50011344  0.83104015  1
  Ni  Ni33  1  0.16572733  0.83202350  0.50125666  1
  Ni  Ni34  1  0.99727289  0.66630088  0.66524372  1
  Ni  Ni35  1  0.16657223  0.83551320  0.83164337  1
  Cr  Cr36  1  0.49699564  0.16614518  0.50269268  1
  Ni  Ni37  1  0.33154892  0.99816185  0.66624518  1
  Ni  Ni38  1  0.49857770  0.16526537  0.83213819  1
  Cr  Cr39  1  0.49781764  0.49897283  0.50252795  1
  Ni  Ni40  1  0.33067036  0.32754599  0.66655771  1
  Cr  Cr41  1  0.49881376  0.49625906  0.82754899  1
  Ni  Ni42  1  0.49818850  0.83126695  0.50019132  1
  Fe  Fe43  1  0.33147529  0.66935167  0.66581671  1
  Ni  Ni44  1  0.49593213  0.83618186  0.82975649  1
  Cr  Cr45  1  0.83342170  0.16674484  0.50282300  1
  Ni  Ni46  1  0.66426751  0.99719444  0.66664760  1
  Ni  Ni47  1  0.83233232  0.16726142  0.83156318  1
  Ni  Ni48  1  0.83375462  0.50138799  0.50012821  1
  Ni  Ni49  1  0.66778156  0.33304032  0.66886380  1
  Ni  Ni50  1  0.83375008  0.49554030  0.83200751  1
  Ni  Ni51  1  0.83284406  0.83003627  0.49983332  1
  Ni  Ni52  1  0.66776989  0.66703740  0.66426557  1
  Cr  Cr53  1  0.83591953  0.83344168  0.83314505  1
" 