7670,Ni56Fe11Cr32_9,-227.273536736939, 163.650422027607,Ni56Fe11Cr32,"# generated using pymatgen
 data_Cr3FeNi5
_symmetry_space_group_name_H-M   'P 1'
_cell_length_a   7.47729358
_cell_length_b   7.47729358
_cell_length_c   10.57448999
_cell_angle_alpha   90.00000000
_cell_angle_beta   90.00000000
_cell_angle_gamma   90.00000000
_symmetry_Int_Tables_number   1
_chemical_formula_structural   Cr3FeNi5
_chemical_formula_sum   'Cr18 Fe6 Ni30'
_cell_volume   591.21888250
_cell_formula_units_Z   6
loop_
 _symmetry_equiv_pos_site_id
 _symmetry_equiv_pos_as_xyz
  1  'x, y, z'
loop_
 _atom_site_type_symbol
 _atom_site_label
 _atom_site_symmetry_multiplicity
 _atom_site_fract_x
 _atom_site_fract_y
 _atom_site_fract_z
 _atom_site_occupancy
  Cr  Cr0  1  0.00065313  0.99910978  -0.00010572  1
  Ni  Ni1  1  0.16726490  0.16933755  0.16727996  1
  Ni  Ni2  1  0.99882812  0.00050761  0.33397948  1
  Ni  Ni3  1  0.00246657  0.33521173  -0.00042645  1
  Ni  Ni4  1  0.16558329  0.49764505  0.16401614  1
  Ni  Ni5  1  0.00042590  0.33041260  0.33263732  1
  Fe  Fe6  1  0.00158030  0.66434431  0.00069691  1
  Ni  Ni7  1  0.16570858  0.83096565  0.16534930  1
  Cr  Cr8  1  0.99809552  0.66715495  0.33172514  1
  Cr  Cr9  1  0.33269867  0.99864827  -0.00048628  1
  Ni  Ni10  1  0.49809110  0.16516605  0.16591038  1
  Cr  Cr11  1  0.33085494  -0.00001072  0.33112755  1
  Ni  Ni12  1  0.32958135  0.33480484  0.00103847  1
  Fe  Fe13  1  0.49684642  0.49936999  0.16494212  1
  Ni  Ni14  1  0.33103114  0.33184539  0.33033147  1
  Ni  Ni15  1  0.33221265  0.66559940  0.99905603  1
  Ni  Ni16  1  0.50136731  0.83341203  0.16395786  1
  Cr  Cr17  1  0.33375054  0.66582506  0.33331638  1
  Ni  Ni18  1  0.66454787  0.99585999  0.00053339  1
  Cr  Cr19  1  0.83279447  0.16480642  0.16696815  1
  Ni  Ni20  1  0.66771666  0.99792382  0.33243157  1
  Cr  Cr21  1  0.66590780  0.33317193  0.00065666  1
  Ni  Ni22  1  0.83505636  0.50091876  0.16424860  1
  Cr  Cr23  1  0.66603141  0.33374628  0.33362242  1
  Fe  Fe24  1  0.66483509  0.66811765  0.00162559  1
  Ni  Ni25  1  0.83086441  0.83170543  0.16575741  1
  Cr  Cr26  1  0.66610732  0.66657357  0.33273776  1
  Ni  Ni27  1  0.16227199  0.16441511  0.49871638  1
  Fe  Fe28  1  0.00207249  -0.00038466  0.66427933  1
  Ni  Ni29  1  0.16541286  0.16721544  0.83195255  1
  Cr  Cr30  1  0.16552694  0.49933496  0.49976375  1
  Ni  Ni31  1  0.99738393  0.33189485  0.66572100  1
  Ni  Ni32  1  0.16520180  0.50028248  0.83367974  1
  Ni  Ni33  1  0.16594232  0.83434740  0.50201906  1
  Ni  Ni34  1  0.00112754  0.66662880  0.66611012  1
  Ni  Ni35  1  0.16832216  0.83046389  0.83060088  1
  Cr  Cr36  1  0.50038319  0.16526920  0.49957827  1
  Ni  Ni37  1  0.33076210  0.99551496  0.66675533  1
  Cr  Cr38  1  0.49936795  0.16350145  0.83206793  1
  Ni  Ni39  1  0.50076380  0.50060348  0.49959174  1
  Cr  Cr40  1  0.33165408  0.33203063  0.66664520  1
  Cr  Cr41  1  0.49648791  0.50118591  0.83296807  1
  Ni  Ni42  1  0.49908760  0.83248453  0.50132174  1
  Ni  Ni43  1  0.33141980  0.67057948  0.66616563  1
  Ni  Ni44  1  0.49714324  0.83306924  0.83263499  1
  Ni  Ni45  1  0.83433516  0.16611926  0.50020855  1
  Fe  Fe46  1  0.66535307  0.99921489  0.66470265  1
  Cr  Cr47  1  0.83312677  0.16642373  0.83105025  1
  Ni  Ni48  1  0.83253442  0.49692731  0.50127093  1
  Ni  Ni49  1  0.66932901  0.33250855  0.66348818  1
  Cr  Cr50  1  0.83630359  0.49862071  0.83291468  1
  Fe  Fe51  1  0.83350667  0.83466059  0.49913376  1
  Cr  Cr52  1  0.66506144  0.66501098  0.66316505  1
  Cr  Cr53  1  0.83221887  0.83290591  0.83356914  1
" 