372,Ni56Cr44_13,-216.782767746422, 129.596540399215,Ni56Cr44,"# generated using pymatgen
 data_Cr5Ni4
_symmetry_space_group_name_H-M   'P 1'
_cell_length_a   7.53423094
_cell_length_b   7.53423094
_cell_length_c   10.65501158
_cell_angle_alpha   90.00000000
_cell_angle_beta   90.00000000
_cell_angle_gamma   90.00000000
_symmetry_Int_Tables_number   1
_chemical_formula_structural   Cr5Ni4
_chemical_formula_sum   'Cr30 Ni24'
_cell_volume   604.82785330
_cell_formula_units_Z   6
loop_
 _symmetry_equiv_pos_site_id
 _symmetry_equiv_pos_as_xyz
  1  'x, y, z'
loop_
 _atom_site_type_symbol
 _atom_site_label
 _atom_site_symmetry_multiplicity
 _atom_site_fract_x
 _atom_site_fract_y
 _atom_site_fract_z
 _atom_site_occupancy
  Cr  Cr0  1  -0.00406212  -0.00071588  0.99516986  1
  Cr  Cr1  1  0.16423950  0.16117116  0.16228565  1
  Cr  Cr2  1  0.99352401  0.99426122  0.32835647  1
  Cr  Cr3  1  0.99464771  0.32634768  0.99369309  1
  Cr  Cr4  1  0.16514502  0.49784840  0.16401533  1
  Cr  Cr5  1  0.99521661  0.32986252  0.32778854  1
  Cr  Cr6  1  -0.00414887  0.66104961  0.99552231  1
  Cr  Cr7  1  0.16512670  0.82761472  0.16277168  1
  Ni  Ni8  1  -0.00445530  0.66209314  0.33130573  1
  Ni  Ni9  1  0.33070377  0.99335159  0.99501775  1
  Ni  Ni10  1  0.49671092  0.16135608  0.16561616  1
  Ni  Ni11  1  0.33363136  -0.00344065  0.32792304  1
  Cr  Cr12  1  0.32849059  0.32838941  -0.00322674  1
  Ni  Ni13  1  0.49378224  0.49531563  0.16373406  1
  Ni  Ni14  1  0.33359731  0.32800774  0.32777437  1
  Ni  Ni15  1  0.33199902  0.66519421  -0.00317630  1
  Ni  Ni16  1  0.49266920  0.83000435  0.16212169  1
  Ni  Ni17  1  0.32918666  0.66206372  0.32605260  1
  Cr  Cr18  1  0.66067494  0.99546635  -0.00264652  1
  Ni  Ni19  1  0.82439180  0.16236986  0.16341476  1
  Ni  Ni20  1  0.65914458  -0.00192085  0.32751600  1
  Cr  Cr21  1  0.66354232  0.32838884  -0.00363325  1
  Cr  Cr22  1  0.82739873  0.49390340  0.16312952  1
  Ni  Ni23  1  0.65909902  0.32633936  0.32788466  1
  Cr  Cr24  1  0.65854974  0.66278323  0.99441680  1
  Cr  Cr25  1  0.82798563  0.83079575  0.16437232  1
  Cr  Cr26  1  0.66239447  0.66314409  0.32952119  1
  Cr  Cr27  1  0.16529998  0.16101532  0.49721996  1
  Ni  Ni28  1  -0.00364662  -0.00323629  0.66361732  1
  Ni  Ni29  1  0.16019030  0.16012362  0.82699356  1
  Cr  Cr30  1  0.16023751  0.49688610  0.49376049  1
  Ni  Ni31  1  0.99202109  0.32873688  0.66502283  1
  Cr  Cr32  1  0.16022882  0.49530204  0.82880720  1
  Cr  Cr33  1  0.16037084  0.82871554  0.49525993  1
  Ni  Ni34  1  0.99242133  0.66107290  0.66070124  1
  Cr  Cr35  1  0.16458148  0.83112906  0.82869177  1
  Ni  Ni36  1  0.49592604  0.16223093  0.49330847  1
  Ni  Ni37  1  0.32747080  -0.00319360  0.66367222  1
  Cr  Cr38  1  0.49542300  0.16016932  0.82686804  1
  Cr  Cr39  1  0.49726587  0.49100780  0.49399574  1
  Cr  Cr40  1  0.32822051  0.32579660  0.66135799  1
  Cr  Cr41  1  0.49763892  0.49680409  0.82943435  1
  Cr  Cr42  1  0.49514301  0.83273940  0.49486196  1
  Cr  Cr43  1  0.32933299  0.66427458  0.66338138  1
  Ni  Ni44  1  0.49244081  0.83006430  0.83059340  1
  Cr  Cr45  1  0.82530174  0.16287791  0.49604478  1
  Cr  Cr46  1  0.66164963  -0.00443450  0.66161764  1
  Ni  Ni47  1  0.83169920  0.16518639  0.82671665  1
  Ni  Ni48  1  0.82987854  0.49652051  0.49720169  1
  Ni  Ni49  1  0.66656394  0.32886274  0.66219084  1
  Ni  Ni50  1  0.83000236  0.49246902  0.82558365  1
  Ni  Ni51  1  0.83105498  0.82686125  0.49540422  1
  Cr  Cr52  1  0.66442499  0.66125068  0.66283060  1
  Cr  Cr53  1  0.82891122  0.82896155  0.82738016  1
" 