938,Ni56Fe40Cr3_0,-239.834030946284, 220.830706086467,Ni56Fe40Cr3,"# generated using pymatgen
 data_CrFe7Ni10
_symmetry_space_group_name_H-M   'P 1'
_cell_length_a   7.41190152
_cell_length_b   7.41190152
_cell_length_c   10.48201165
_cell_angle_alpha   90.00000000
_cell_angle_beta   90.00000000
_cell_angle_gamma   90.00000000
_symmetry_Int_Tables_number   1
_chemical_formula_structural   CrFe7Ni10
_chemical_formula_sum   'Cr3 Fe21 Ni30'
_cell_volume   575.84277041
_cell_formula_units_Z   3
loop_
 _symmetry_equiv_pos_site_id
 _symmetry_equiv_pos_as_xyz
  1  'x, y, z'
loop_
 _atom_site_type_symbol
 _atom_site_label
 _atom_site_symmetry_multiplicity
 _atom_site_fract_x
 _atom_site_fract_y
 _atom_site_fract_z
 _atom_site_occupancy
  Ni  Ni0  1  1.00359023  0.00445626  1.00347871  1
  Fe  Fe1  1  0.17020666  0.17013479  0.16947310  1
  Ni  Ni2  1  1.00354353  1.00342288  0.33768970  1
  Ni  Ni3  1  0.00410951  0.33616838  1.00349593  1
  Ni  Ni4  1  0.16857194  0.50404954  0.17019949  1
  Fe  Fe5  1  0.00405939  0.33677494  0.33584521  1
  Ni  Ni6  1  0.00592908  0.67053702  1.00361854  1
  Fe  Fe7  1  0.17002792  0.83634580  0.17106437  1
  Ni  Ni8  1  0.00508596  0.67155035  0.33558531  1
  Fe  Fe9  1  0.33658421  0.00379285  1.00332708  1
  Ni  Ni10  1  0.50391656  0.16883237  0.16987760  1
  Ni  Ni11  1  0.33685554  1.00315354  0.33710035  1
  Ni  Ni12  1  0.33724393  0.33750750  1.00316888  1
  Fe  Fe13  1  0.50326847  0.50349812  0.17136609  1
  Fe  Fe14  1  0.33720782  0.33733166  0.33632899  1
  Ni  Ni15  1  0.33565655  0.66943310  0.00408376  1
  Ni  Ni16  1  0.50321455  0.83914282  0.17127720  1
  Ni  Ni17  1  0.33704629  0.67008150  0.33654466  1
  Fe  Fe18  1  0.67032617  0.00517315  1.00365587  1
  Fe  Fe19  1  0.83673201  0.17018292  0.17067953  1
  Ni  Ni20  1  0.67076066  0.00463034  0.33719205  1
  Fe  Fe21  1  0.67093631  0.33555374  1.00358938  1
  Ni  Ni22  1  0.83994681  0.50335084  0.17101863  1
  Ni  Ni23  1  0.66929646  0.33638143  0.33496363  1
  Cr  Cr24  1  0.66961914  0.67001491  1.00363392  1
  Ni  Ni25  1  0.83703866  0.83664147  0.17214896  1
  Ni  Ni26  1  0.66902898  0.67015072  0.33739982  1
  Fe  Fe27  1  0.17023761  0.16912226  0.50429491  1
  Ni  Ni28  1  1.00325566  1.00366822  0.66999256  1
  Ni  Ni29  1  0.17033915  0.17112593  0.83634361  1
  Ni  Ni30  1  0.17013237  0.50370800  0.50320277  1
  Fe  Fe31  1  0.00418637  0.33510474  0.67166113  1
  Fe  Fe32  1  0.16995185  0.50224593  0.83866735  1
  Ni  Ni33  1  0.17127963  0.83697640  0.50267218  1
  Ni  Ni34  1  1.00359267  0.67164501  0.67196078  1
  Fe  Fe35  1  0.16952855  0.83931181  0.83726357  1
  Fe  Fe36  1  0.50384599  0.16994467  0.50374543  1
  Ni  Ni37  1  0.33703824  0.00536951  0.67090805  1
  Ni  Ni38  1  0.50376232  0.16903727  0.83644731  1
  Fe  Fe39  1  0.50293197  0.50324448  0.50260870  1
  Fe  Fe40  1  0.33673029  0.33440483  0.67120001  1
  Fe  Fe41  1  0.50358318  0.50080741  0.83718483  1
  Ni  Ni42  1  0.50349164  0.83878437  0.50265492  1
  Cr  Cr43  1  0.33633744  0.67064182  0.67045713  1
  Ni  Ni44  1  0.50342277  0.83931997  0.83723050  1
  Ni  Ni45  1  0.83665559  0.16955869  0.50337404  1
  Ni  Ni46  1  0.67086850  0.00566916  0.67022894  1
  Ni  Ni47  1  0.83705824  0.17137173  0.83788190  1
  Cr  Cr48  1  0.83855419  0.50343385  0.50353793  1
  Ni  Ni49  1  0.66939472  0.33528017  0.67237586  1
  Fe  Fe50  1  0.83762530  0.50201761  0.83644991  1
  Fe  Fe51  1  0.83803109  0.83874951  0.50310663  1
  Fe  Fe52  1  0.67110592  0.67260294  0.67110101  1
  Fe  Fe53  1  0.83814101  0.83944637  0.83652693  1
" 