8383,Ni56Fe20Cr22_13,-230.769147727143, 181.606822359432,Ni56Fe20Cr22,"# generated using pymatgen
 data_Cr7(FeNi3)5
_symmetry_space_group_name_H-M   'P 1'
_cell_length_a   7.45962435
_cell_length_b   7.45962435
_cell_length_c   10.54950193
_cell_angle_alpha   90.00000000
_cell_angle_beta   90.00000000
_cell_angle_gamma   90.00000000
_symmetry_Int_Tables_number   1
_chemical_formula_structural   Cr7(FeNi3)5
_chemical_formula_sum   'Cr14 Fe10 Ni30'
_cell_volume   587.03753712
_cell_formula_units_Z   2
loop_
 _symmetry_equiv_pos_site_id
 _symmetry_equiv_pos_as_xyz
  1  'x, y, z'
loop_
 _atom_site_type_symbol
 _atom_site_label
 _atom_site_symmetry_multiplicity
 _atom_site_fract_x
 _atom_site_fract_y
 _atom_site_fract_z
 _atom_site_occupancy
  Ni  Ni0  1  0.00208636  0.99964713  0.99924688  1
  Cr  Cr1  1  0.16615899  0.16741470  0.16815620  1
  Ni  Ni2  1  0.00200358  1.00047925  0.33177304  1
  Ni  Ni3  1  0.00116001  0.33380456  0.00075549  1
  Ni  Ni4  1  0.16759121  0.50047357  0.16629513  1
  Ni  Ni5  1  1.00017127  0.33631286  0.33457990  1
  Ni  Ni6  1  0.00329166  0.66800695  0.00201292  1
  Fe  Fe7  1  0.16619944  0.83346830  0.16621058  1
  Ni  Ni8  1  0.99990609  0.66455771  0.33202279  1
  Ni  Ni9  1  0.33327560  0.99894166  0.99929412  1
  Fe  Fe10  1  0.49937069  0.16769169  0.16835261  1
  Ni  Ni11  1  0.33436917  0.00192383  0.33477659  1
  Fe  Fe12  1  0.33215593  0.33275528  0.00217780  1
  Ni  Ni13  1  0.49867880  0.50051279  0.16764561  1
  Ni  Ni14  1  0.33488034  0.33374433  0.33516198  1
  Fe  Fe15  1  0.33174064  0.66951513  0.00228264  1
  Ni  Ni16  1  0.49999981  0.83275647  0.16747212  1
  Cr  Cr17  1  0.33272277  0.66629472  0.33342654  1
  Cr  Cr18  1  0.66707775  0.00148192  0.99921870  1
  Ni  Ni19  1  0.83570667  0.16648621  0.16786780  1
  Cr  Cr20  1  0.66523198  0.00203831  0.33186667  1
  Cr  Cr21  1  0.66825049  0.33137309  0.00265548  1
  Fe  Fe22  1  0.83570236  0.50053797  0.16899737  1
  Ni  Ni23  1  0.66649210  0.33573216  0.33250917  1
  Cr  Cr24  1  0.66754426  0.66859639  0.00128893  1
  Ni  Ni25  1  0.83561207  0.83421257  0.16762193  1
  Fe  Fe26  1  0.66788112  0.66449654  0.33299852  1
  Ni  Ni27  1  0.16971888  0.16845644  0.50096670  1
  Ni  Ni28  1  0.00361659  0.00094483  0.67064064  1
  Fe  Fe29  1  0.16717359  0.16389091  0.83398597  1
  Ni  Ni30  1  0.16637963  0.49718511  0.50020801  1
  Fe  Fe31  1  0.00067761  0.33319991  0.66592327  1
  Cr  Cr32  1  0.16719455  0.50015832  0.83505531  1
  Cr  Cr33  1  0.16544560  0.83676571  0.49870240  1
  Ni  Ni34  1  0.99965272  0.66666934  0.66738940  1
  Ni  Ni35  1  0.16599790  0.83633928  0.83611171  1
  Ni  Ni36  1  0.49671927  0.17008706  0.49933725  1
  Ni  Ni37  1  0.33290043  0.00269433  0.66754424  1
  Ni  Ni38  1  0.49830736  0.16618843  0.83405009  1
  Ni  Ni39  1  0.50212338  0.49783789  0.50073967  1
  Fe  Fe40  1  0.33434275  0.33105213  0.66452402  1
  Cr  Cr41  1  0.49954549  0.49973093  0.83358495  1
  Fe  Fe42  1  0.49990243  0.83407538  0.50079139  1
  Cr  Cr43  1  0.33328513  0.66858055  0.66632239  1
  Ni  Ni44  1  0.49871347  0.83597573  0.83299390  1
  Cr  Cr45  1  0.83582780  0.16850740  0.49987815  1
  Cr  Cr46  1  0.66521332  0.00150551  0.67037872  1
  Ni  Ni47  1  0.83592804  0.16538897  0.83343741  1
  Ni  Ni48  1  0.83295135  0.50096019  0.49986506  1
  Ni  Ni49  1  0.66639968  0.33445938  0.66655687  1
  Cr  Cr50  1  0.83464244  0.50102993  0.83177221  1
  Cr  Cr51  1  0.83429645  0.83124600  0.50094405  1
  Ni  Ni52  1  0.66785797  0.66515156  0.66564921  1
  Ni  Ni53  1  0.83679334  0.83553105  0.83284788  1
" 