8056,Ni56Fe11Cr32_4,-227.528110703222, 167.297773469123,Ni56Fe11Cr32,"# generated using pymatgen
 data_Cr3FeNi5
_symmetry_space_group_name_H-M   'P 1'
_cell_length_a   7.47544667
_cell_length_b   7.47544667
_cell_length_c   10.57187807
_cell_angle_alpha   90.00000000
_cell_angle_beta   90.00000000
_cell_angle_gamma   90.00000000
_symmetry_Int_Tables_number   1
_chemical_formula_structural   Cr3FeNi5
_chemical_formula_sum   'Cr18 Fe6 Ni30'
_cell_volume   590.78089272
_cell_formula_units_Z   6
loop_
 _symmetry_equiv_pos_site_id
 _symmetry_equiv_pos_as_xyz
  1  'x, y, z'
loop_
 _atom_site_type_symbol
 _atom_site_label
 _atom_site_symmetry_multiplicity
 _atom_site_fract_x
 _atom_site_fract_y
 _atom_site_fract_z
 _atom_site_occupancy
  Ni  Ni0  1  0.00095083  0.00008771  0.99801880  1
  Cr  Cr1  1  0.16812092  0.16557001  0.16516555  1
  Cr  Cr2  1  0.99746625  0.99868393  0.33239852  1
  Fe  Fe3  1  0.99883492  0.33081873  -0.00037043  1
  Fe  Fe4  1  0.17052041  0.49851408  0.16619008  1
  Ni  Ni5  1  -0.00033594  0.33260453  0.32936194  1
  Cr  Cr6  1  0.00094528  0.66970168  0.00158277  1
  Ni  Ni7  1  0.16761553  0.83409631  0.16527908  1
  Cr  Cr8  1  0.00154790  0.66692612  0.33082397  1
  Ni  Ni9  1  0.32940254  0.00140088  0.99764198  1
  Ni  Ni10  1  0.49861335  0.16765014  0.16722515  1
  Ni  Ni11  1  0.33383692  0.99905874  0.33426601  1
  Ni  Ni12  1  0.33626595  0.33187259  0.99808914  1
  Ni  Ni13  1  0.49982341  0.49730210  0.16460293  1
  Ni  Ni14  1  0.33472550  0.33356532  0.33314181  1
  Ni  Ni15  1  0.33063345  0.66420347  0.00076616  1
  Cr  Cr16  1  0.49585106  0.83594291  0.16577756  1
  Ni  Ni17  1  0.33282511  0.66594857  0.33161527  1
  Cr  Cr18  1  0.66832495  0.00457784  0.99895097  1
  Fe  Fe19  1  0.83157624  0.16629076  0.16550051  1
  Ni  Ni20  1  0.66491682  0.00115729  0.33444699  1
  Ni  Ni21  1  0.66455650  0.33173412  -0.00013520  1
  Ni  Ni22  1  0.83425039  0.49488339  0.16499810  1
  Cr  Cr23  1  0.66558683  0.33048826  0.33294550  1
  Cr  Cr24  1  0.66633930  0.66189928  0.00000763  1
  Fe  Fe25  1  0.83190833  0.83478774  0.16555617  1
  Cr  Cr26  1  0.66632963  0.66599399  0.33199601  1
  Cr  Cr27  1  0.16462391  0.16712344  0.49886487  1
  Ni  Ni28  1  0.99716117  0.99900121  0.66776930  1
  Ni  Ni29  1  0.16519263  0.16531963  0.83404344  1
  Cr  Cr30  1  0.16587423  0.49689698  0.49800764  1
  Ni  Ni31  1  0.99941939  0.32667388  0.66779328  1
  Cr  Cr32  1  0.16607018  0.49652312  0.83293399  1
  Ni  Ni33  1  0.16731817  0.83416515  0.49885088  1
  Fe  Fe34  1  -0.00006210  0.67034743  0.66583945  1
  Ni  Ni35  1  0.16439993  0.83616079  0.83464552  1
  Fe  Fe36  1  0.49933612  0.16415877  0.49878908  1
  Cr  Cr37  1  0.33163035  0.00181931  0.66758646  1
  Ni  Ni38  1  0.49819519  0.16749831  0.83376960  1
  Ni  Ni39  1  0.49810427  0.50142257  0.49944006  1
  Ni  Ni40  1  0.33208243  0.33329980  0.66702465  1
  Ni  Ni41  1  0.49877075  0.49692181  0.83426134  1
  Ni  Ni42  1  0.50054456  0.83358188  0.49738846  1
  Cr  Cr43  1  0.33358564  0.66565548  0.66624790  1
  Cr  Cr44  1  0.50053967  0.83272778  0.83561934  1
  Ni  Ni45  1  0.83343954  0.16408053  0.49911055  1
  Ni  Ni46  1  0.66988516  0.99883359  0.66505061  1
  Ni  Ni47  1  0.83464126  0.16537329  0.83367822  1
  Cr  Cr48  1  0.83383614  0.49787753  0.50417470  1
  Cr  Cr49  1  0.66118374  0.32918025  0.66654631  1
  Cr  Cr50  1  0.83120914  0.49934304  0.82868668  1
  Ni  Ni51  1  0.83072661  0.83568757  0.50194517  1
  Ni  Ni52  1  0.66564544  0.66838543  0.66567337  1
  Ni  Ni53  1  0.83487817  0.83584500  0.83008023  1
" 