534,Ni56Fe22Cr21_16,-231.755910383181, 188.354034658616,Ni56Fe22Cr21,"# generated using pymatgen
 data_Cr13Fe11Ni30
_symmetry_space_group_name_H-M   'P 1'
_cell_length_a   7.44960312
_cell_length_b   7.44960312
_cell_length_c   10.53532977
_cell_angle_alpha   90.00000000
_cell_angle_beta   90.00000000
_cell_angle_gamma   90.00000000
_symmetry_Int_Tables_number   1
_chemical_formula_structural   Cr13Fe11Ni30
_chemical_formula_sum   'Cr13 Fe11 Ni30'
_cell_volume   584.67484179
_cell_formula_units_Z   1
loop_
 _symmetry_equiv_pos_site_id
 _symmetry_equiv_pos_as_xyz
  1  'x, y, z'
loop_
 _atom_site_type_symbol
 _atom_site_label
 _atom_site_symmetry_multiplicity
 _atom_site_fract_x
 _atom_site_fract_y
 _atom_site_fract_z
 _atom_site_occupancy
  Ni  Ni0  1  0.99761308  1.00012027  1.00114454  1
  Fe  Fe1  1  0.16789001  0.16788931  0.16707354  1
  Cr  Cr2  1  1.00094791  1.00087348  0.33554232  1
  Ni  Ni3  1  0.00226694  0.33583566  0.00242227  1
  Fe  Fe4  1  0.16738953  0.50172521  0.16532073  1
  Fe  Fe5  1  0.00173319  0.33516819  0.33536206  1
  Ni  Ni6  1  1.00056028  0.66755565  0.00279574  1
  Ni  Ni7  1  0.16886307  0.83361376  0.16728533  1
  Cr  Cr8  1  0.00221194  0.66684965  0.33460913  1
  Cr  Cr9  1  0.33613650  0.00198060  0.00215423  1
  Ni  Ni10  1  0.50008243  0.16744493  0.16698238  1
  Ni  Ni11  1  0.33622827  1.00011405  0.33501211  1
  Ni  Ni12  1  0.33489404  0.33733650  0.00123194  1
  Fe  Fe13  1  0.50087208  0.50257487  0.16556990  1
  Cr  Cr14  1  0.33388587  0.33448082  0.33459460  1
  Ni  Ni15  1  0.33494859  0.66447268  0.00222734  1
  Fe  Fe16  1  0.50189861  0.83478927  0.16838552  1
  Ni  Ni17  1  0.33404996  0.66920825  0.33435479  1
  Ni  Ni18  1  0.66959603  1.00006713  1.00081631  1
  Cr  Cr19  1  0.83372262  0.16810640  0.16686454  1
  Ni  Ni20  1  0.66562856  1.00076686  0.33506412  1
  Fe  Fe21  1  0.66674832  0.33471249  1.00096704  1
  Ni  Ni22  1  0.83502788  0.50205181  0.16547914  1
  Cr  Cr23  1  0.66807947  0.33325657  0.33529106  1
  Ni  Ni24  1  0.66805773  0.66912168  0.00133729  1
  Ni  Ni25  1  0.83488619  0.83321802  0.16498705  1
  Cr  Cr26  1  0.66738367  0.66944099  0.33562971  1
  Ni  Ni27  1  0.16867294  0.16673623  0.50228806  1
  Ni  Ni28  1  1.00044590  0.00243604  0.66679891  1
  Cr  Cr29  1  0.16689326  0.16892552  0.83385778  1
  Fe  Fe30  1  0.16861088  0.50021244  0.50185119  1
  Ni  Ni31  1  1.00102386  0.33331021  0.66521418  1
  Ni  Ni32  1  0.17038837  0.49954183  0.83624662  1
  Ni  Ni33  1  0.16956806  0.83746552  0.50111199  1
  Cr  Cr34  1  1.00018553  0.66828166  0.66674615  1
  Cr  Cr35  1  0.16659337  0.83467112  0.83478036  1
  Ni  Ni36  1  0.49907895  0.16749920  0.50211100  1
  Ni  Ni37  1  0.33472725  0.00310342  0.66541833  1
  Fe  Fe38  1  0.50266611  0.16985793  0.83432843  1
  Ni  Ni39  1  0.50238477  0.50083502  0.50250769  1
  Ni  Ni40  1  0.33568996  0.33413189  0.66755767  1
  Ni  Ni41  1  0.50055831  0.50008026  0.83553341  1
  Ni  Ni42  1  0.49963692  0.83521654  0.49943890  1
  Cr  Cr43  1  0.33564562  0.66662345  0.66717119  1
  Fe  Fe44  1  0.50340297  0.83316764  0.83517461  1
  Fe  Fe45  1  0.83456809  0.16800068  0.50262905  1
  Cr  Cr46  1  0.66827359  0.00139236  0.66783899  1
  Ni  Ni47  1  0.83402751  0.16691117  0.83507798  1
  Ni  Ni48  1  0.83349687  0.49986348  0.50254508  1
  Ni  Ni49  1  0.66682647  0.33456334  0.66742594  1
  Cr  Cr50  1  0.83326684  0.50055922  0.83542099  1
  Ni  Ni51  1  0.83425727  0.83411944  0.50179487  1
  Fe  Fe52  1  0.66729193  0.66667522  0.66701150  1
  Ni  Ni53  1  0.83344066  0.83626910  0.83683942  1
" 