6453,Ni56Fe27Cr16_7,-234.301472199247, 198.28552822785,Ni56Fe27Cr16,"# generated using pymatgen
 data_Cr5Fe7Ni15
_symmetry_space_group_name_H-M   'P 1'
_cell_length_a   7.43533366
_cell_length_b   7.43533366
_cell_length_c   10.51514971
_cell_angle_alpha   90.00000000
_cell_angle_beta   90.00000000
_cell_angle_gamma   90.00000000
_symmetry_Int_Tables_number   1
_chemical_formula_structural   Cr5Fe7Ni15
_chemical_formula_sum   'Cr10 Fe14 Ni30'
_cell_volume   581.32149915
_cell_formula_units_Z   2
loop_
 _symmetry_equiv_pos_site_id
 _symmetry_equiv_pos_as_xyz
  1  'x, y, z'
loop_
 _atom_site_type_symbol
 _atom_site_label
 _atom_site_symmetry_multiplicity
 _atom_site_fract_x
 _atom_site_fract_y
 _atom_site_fract_z
 _atom_site_occupancy
  Ni  Ni0  1  0.00445120  1.00065697  1.00021261  1
  Ni  Ni1  1  0.17192460  0.16923874  0.16844494  1
  Cr  Cr2  1  0.00353805  1.00136307  0.33694478  1
  Cr  Cr3  1  0.00304085  0.33772810  0.00244364  1
  Ni  Ni4  1  0.16834690  0.50130962  0.16956513  1
  Fe  Fe5  1  0.00378864  0.33756008  0.33625625  1
  Ni  Ni6  1  0.00215649  0.66900515  0.00375772  1
  Fe  Fe7  1  0.16895616  0.83434519  0.16700167  1
  Fe  Fe8  1  1.00201152  0.66727880  0.33517611  1
  Ni  Ni9  1  0.33385364  0.00264820  0.00481153  1
  Fe  Fe10  1  0.50093253  0.16816600  0.16893803  1
  Ni  Ni11  1  0.33612031  1.00139966  0.33469979  1
  Ni  Ni12  1  0.33509526  0.33496968  1.00161834  1
  Cr  Cr13  1  0.50194229  0.50207884  0.16829835  1
  Ni  Ni14  1  0.33251242  0.33487290  0.33480661  1
  Fe  Fe15  1  0.33419176  0.66882023  1.00206632  1
  Ni  Ni16  1  0.50325226  0.83703989  0.16911136  1
  Ni  Ni17  1  0.33431093  0.67006530  0.33565955  1
  Ni  Ni18  1  0.66806502  1.00155370  0.00502354  1
  Cr  Cr19  1  0.83485447  0.16793848  0.16802168  1
  Ni  Ni20  1  0.66731623  0.99992335  0.33501130  1
  Ni  Ni21  1  0.66826454  0.33735734  1.00032827  1
  Ni  Ni22  1  0.83645261  0.50514854  0.17058563  1
  Ni  Ni23  1  0.67060889  0.33624089  0.33590030  1
  Ni  Ni24  1  0.67037614  0.66755965  0.00253627  1
  Ni  Ni25  1  0.83406619  0.83359529  0.16686171  1
  Ni  Ni26  1  0.67017207  0.67038015  0.33626112  1
  Ni  Ni27  1  0.16801284  0.17034127  0.50377762  1
  Fe  Fe28  1  0.00473994  1.00107900  0.66802489  1
  Fe  Fe29  1  0.16822848  0.16775223  0.83478318  1
  Ni  Ni30  1  0.16720819  0.50079253  0.50197637  1
  Ni  Ni31  1  0.00223856  0.33583014  0.66834357  1
  Fe  Fe32  1  0.16927350  0.50451270  0.83439582  1
  Fe  Fe33  1  0.17101092  0.83410858  0.50394990  1
  Ni  Ni34  1  0.00303919  0.66614750  0.66734894  1
  Ni  Ni35  1  0.16768918  0.83631288  0.83519620  1
  Cr  Cr36  1  0.49963250  0.16842057  0.49906798  1
  Ni  Ni37  1  0.33211249  1.00106824  0.66692766  1
  Cr  Cr38  1  0.50064272  0.17097462  0.83743837  1
  Cr  Cr39  1  0.50065880  0.50418287  0.50311891  1
  Fe  Fe40  1  0.33228891  0.33732884  0.66933839  1
  Ni  Ni41  1  0.50245766  0.50115288  0.83496018  1
  Ni  Ni42  1  0.50290645  0.83482888  0.50167225  1
  Ni  Ni43  1  0.33397525  0.66941619  0.66945706  1
  Cr  Cr44  1  0.50031290  0.83276676  0.83602822  1
  Fe  Fe45  1  0.83670553  0.17033397  0.50161650  1
  Cr  Cr46  1  0.66882499  1.00119889  0.66650419  1
  Fe  Fe47  1  0.83644766  0.17018965  0.83606947  1
  Fe  Fe48  1  0.83694060  0.50263533  0.50237678  1
  Fe  Fe49  1  0.67086520  0.33862324  0.67004138  1
  Ni  Ni50  1  0.83462830  0.50198319  0.83443840  1
  Ni  Ni51  1  0.83534908  0.83396083  0.50220247  1
  Ni  Ni52  1  0.66960650  0.66673529  0.66789343  1
  Cr  Cr53  1  0.83876487  0.83424225  0.83787250  1
" 