178,Ni56Fe36Cr6_10,-238.696960207148, 214.636341494016,Ni56Fe36Cr6,"# generated using pymatgen
 data_Cr5Fe19Ni30
_symmetry_space_group_name_H-M   'P 1'
_cell_length_a   7.42308295
_cell_length_b   7.42308295
_cell_length_c   10.49782458
_cell_angle_alpha   90.00000000
_cell_angle_beta   90.00000000
_cell_angle_gamma   90.00000000
_symmetry_Int_Tables_number   1
_chemical_formula_structural   Cr5Fe19Ni30
_chemical_formula_sum   'Cr5 Fe19 Ni30'
_cell_volume   578.45281497
_cell_formula_units_Z   1
loop_
 _symmetry_equiv_pos_site_id
 _symmetry_equiv_pos_as_xyz
  1  'x, y, z'
loop_
 _atom_site_type_symbol
 _atom_site_label
 _atom_site_symmetry_multiplicity
 _atom_site_fract_x
 _atom_site_fract_y
 _atom_site_fract_z
 _atom_site_occupancy
  Ni  Ni0  1  1.00203365  0.00348634  1.00265296  1
  Ni  Ni1  1  0.16933107  0.16924678  0.16914186  1
  Cr  Cr2  1  1.00282931  0.00370932  0.33821660  1
  Fe  Fe3  1  1.00208524  0.33472609  1.00263578  1
  Fe  Fe4  1  0.16644784  0.50263902  0.17108707  1
  Ni  Ni5  1  1.00071856  0.33730731  0.33452737  1
  Fe  Fe6  1  1.00016062  0.67052676  0.00393611  1
  Ni  Ni7  1  0.16911861  0.83703832  0.16988473  1
  Ni  Ni8  1  0.00367418  0.66851592  0.33539857  1
  Fe  Fe9  1  0.33636759  0.00519679  1.00277116  1
  Fe  Fe10  1  0.50392956  0.16707631  0.16977147  1
  Ni  Ni11  1  0.33716695  1.00219223  0.33446726  1
  Fe  Fe12  1  0.33636230  0.33288178  1.00126989  1
  Cr  Cr13  1  0.50455974  0.50275671  0.17176584  1
  Fe  Fe14  1  0.33616052  0.33401382  0.33712395  1
  Cr  Cr15  1  0.33554590  0.67025897  1.00078763  1
  Fe  Fe16  1  0.50367610  0.83986850  0.17029686  1
  Ni  Ni17  1  0.33493946  0.67094311  0.33638062  1
  Ni  Ni18  1  0.67089001  0.00445274  0.00297809  1
  Ni  Ni19  1  0.83668013  0.16965902  0.16854051  1
  Ni  Ni20  1  0.66874198  0.00519209  0.33525682  1
  Ni  Ni21  1  0.67106666  0.33469075  1.00096287  1
  Fe  Fe22  1  0.83883016  0.50239411  0.16995945  1
  Ni  Ni23  1  0.67125196  0.33505588  0.33844355  1
  Fe  Fe24  1  0.67219024  0.67068908  1.00108268  1
  Ni  Ni25  1  0.83615670  0.83598105  0.16896412  1
  Fe  Fe26  1  0.67175676  0.66964142  0.33702426  1
  Ni  Ni27  1  0.16976235  0.16817050  0.50336073  1
  Fe  Fe28  1  0.00421631  0.00356961  0.66980740  1
  Ni  Ni29  1  0.16918515  0.16900577  0.83639896  1
  Cr  Cr30  1  0.17012571  0.50310695  0.50215818  1
  Ni  Ni31  1  1.00168680  0.33490825  0.67069487  1
  Fe  Fe32  1  0.16949471  0.50081555  0.83468971  1
  Ni  Ni33  1  0.16956048  0.83730233  0.50379358  1
  Fe  Fe34  1  1.00280082  0.66954094  0.66960118  1
  Fe  Fe35  1  0.16939345  0.83767801  0.83532423  1
  Ni  Ni36  1  0.50299833  0.17091902  0.50225891  1
  Ni  Ni37  1  0.33526180  0.00317453  0.67108026  1
  Ni  Ni38  1  0.50246939  0.16945089  0.83706957  1
  Ni  Ni39  1  0.50508874  0.50218649  0.50378051  1
  Ni  Ni40  1  0.33667396  0.33576980  0.67038058  1
  Ni  Ni41  1  0.50439328  0.50342414  0.83409639  1
  Cr  Cr42  1  0.50149958  0.83548551  0.50129986  1
  Ni  Ni43  1  0.33730438  0.66989441  0.67114833  1
  Ni  Ni44  1  0.50324060  0.83606453  0.83682933  1
  Ni  Ni45  1  0.83606050  0.17125775  0.50391577  1
  Fe  Fe46  1  0.66894243  0.00425555  0.67063284  1
  Ni  Ni47  1  0.83717243  0.17031159  0.83651687  1
  Ni  Ni48  1  0.83452161  0.50234953  0.50157780  1
  Fe  Fe49  1  0.66867836  0.33693132  0.66970506  1
  Ni  Ni50  1  0.83559029  0.50304764  0.83747025  1
  Fe  Fe51  1  0.83671120  0.83554358  0.50306554  1
  Ni  Ni52  1  0.66952473  0.66847950  0.67075395  1
  Fe  Fe53  1  0.83488358  0.83712888  0.83717404  1
" 