599,Ni56Fe22Cr21_18,-231.58907128536, 182.333902888578,Ni56Fe22Cr21,"# generated using pymatgen
 data_Cr13Fe11Ni30
_symmetry_space_group_name_H-M   'P 1'
_cell_length_a   7.45379402
_cell_length_b   7.45379402
_cell_length_c   10.54125659
_cell_angle_alpha   90.00000000
_cell_angle_beta   90.00000000
_cell_angle_gamma   90.00000000
_symmetry_Int_Tables_number   1
_chemical_formula_structural   Cr13Fe11Ni30
_chemical_formula_sum   'Cr13 Fe11 Ni30'
_cell_volume   585.66215246
_cell_formula_units_Z   1
loop_
 _symmetry_equiv_pos_site_id
 _symmetry_equiv_pos_as_xyz
  1  'x, y, z'
loop_
 _atom_site_type_symbol
 _atom_site_label
 _atom_site_symmetry_multiplicity
 _atom_site_fract_x
 _atom_site_fract_y
 _atom_site_fract_z
 _atom_site_occupancy
  Ni  Ni0  1  0.99628576  0.99823132  0.00245645  1
  Cr  Cr1  1  0.16537928  0.16331759  0.16409047  1
  Ni  Ni2  1  0.99964968  0.99981025  0.33462244  1
  Ni  Ni3  1  0.99667206  0.33475796  0.99776582  1
  Cr  Cr4  1  0.16552126  0.50141341  0.16680547  1
  Ni  Ni5  1  0.99940585  0.33127695  0.33647122  1
  Ni  Ni6  1  0.99761714  0.66953289  0.00100682  1
  Ni  Ni7  1  0.16671120  0.83642571  0.16951898  1
  Ni  Ni8  1  1.00035715  0.67153808  0.33442637  1
  Ni  Ni9  1  0.33894665  0.00102855  0.00320950  1
  Ni  Ni10  1  0.50282716  0.16436665  0.16722567  1
  Ni  Ni11  1  0.33610391  0.99794560  0.33392574  1
  Ni  Ni12  1  0.33709945  0.33145946  0.99977534  1
  Cr  Cr13  1  0.50421330  0.50149008  0.16808802  1
  Cr  Cr14  1  0.33485270  0.33000580  0.33448607  1
  Cr  Cr15  1  0.33332784  0.67146669  0.00168930  1
  Ni  Ni16  1  0.50173051  0.83690996  0.16822336  1
  Ni  Ni17  1  0.33440310  0.67210553  0.33596688  1
  Ni  Ni18  1  0.66688183  0.00137132  1.00005533  1
  Ni  Ni19  1  0.83387861  0.16580979  0.16723421  1
  Fe  Fe20  1  0.66860793  0.99983212  0.33354132  1
  Ni  Ni21  1  0.66826698  0.32946580  0.00130134  1
  Cr  Cr22  1  0.83366147  0.50092220  0.16952651  1
  Fe  Fe23  1  0.66949210  0.32889607  0.33384055  1
  Fe  Fe24  1  0.66991875  0.67127560  1.00011409  1
  Ni  Ni25  1  0.83466459  0.83619252  0.16773034  1
  Ni  Ni26  1  0.66753517  0.67330902  0.33299021  1
  Fe  Fe27  1  0.16668505  0.16433549  0.50188005  1
  Ni  Ni28  1  0.99978620  0.00149824  0.66612493  1
  Cr  Cr29  1  0.16700851  0.16671582  0.83655049  1
  Fe  Fe30  1  0.16622489  0.50124809  0.49987177  1
  Ni  Ni31  1  0.00243199  0.33285739  0.66806351  1
  Fe  Fe32  1  0.16637036  0.50054061  0.83514668  1
  Fe  Fe33  1  0.16682245  0.83698323  0.49933246  1
  Cr  Cr34  1  0.99818506  0.66824898  0.66738380  1
  Cr  Cr35  1  0.16737950  0.83996934  0.83494260  1
  Fe  Fe36  1  0.50318358  0.16323144  0.50118443  1
  Ni  Ni37  1  0.33638069  0.00152849  0.66557362  1
  Ni  Ni38  1  0.49905872  0.16538570  0.83413215  1
  Cr  Cr39  1  0.50120708  0.50424666  0.49986341  1
  Ni  Ni40  1  0.33269021  0.33177969  0.66670765  1
  Cr  Cr41  1  0.50272510  0.50114081  0.83471550  1
  Ni  Ni42  1  0.50080777  0.83536785  0.50248420  1
  Fe  Fe43  1  0.33368398  0.66911360  0.66675567  1
  Ni  Ni44  1  0.50317176  0.83739186  0.83214395  1
  Ni  Ni45  1  0.83835893  0.16458320  0.50099051  1
  Fe  Fe46  1  0.66907029  0.99991877  0.66812877  1
  Fe  Fe47  1  0.83302132  0.16475062  0.83517907  1
  Cr  Cr48  1  0.83313978  0.50172069  0.49671646  1
  Cr  Cr49  1  0.66939400  0.33163744  0.66782849  1
  Ni  Ni50  1  0.83475224  0.50092846  0.83603772  1
  Ni  Ni51  1  0.83239451  0.83726660  0.50046658  1
  Ni  Ni52  1  0.66738568  0.67121616  0.66948277  1
  Ni  Ni53  1  0.83267762  0.83424655  0.83423362  1
" 