4313,Ni56Fe11Cr32_12,-227.283390485319, 160.130817939575,Ni56Fe11Cr32,"# generated using pymatgen
 data_Cr3FeNi5
_symmetry_space_group_name_H-M   'P 1'
_cell_length_a   7.47936739
_cell_length_b   7.47936739
_cell_length_c   10.57742281
_cell_angle_alpha   90.00000000
_cell_angle_beta   90.00000000
_cell_angle_gamma   90.00000000
_symmetry_Int_Tables_number   1
_chemical_formula_structural   Cr3FeNi5
_chemical_formula_sum   'Cr18 Fe6 Ni30'
_cell_volume   591.71093851
_cell_formula_units_Z   6
loop_
 _symmetry_equiv_pos_site_id
 _symmetry_equiv_pos_as_xyz
  1  'x, y, z'
loop_
 _atom_site_type_symbol
 _atom_site_label
 _atom_site_symmetry_multiplicity
 _atom_site_fract_x
 _atom_site_fract_y
 _atom_site_fract_z
 _atom_site_occupancy
  Ni  Ni0  1  0.99645135  -0.00026723  0.99670622  1
  Cr  Cr1  1  0.16525709  0.16537164  0.16633129  1
  Ni  Ni2  1  0.99681947  -0.00023938  0.33453743  1
  Ni  Ni3  1  0.00166722  0.33196852  0.99874285  1
  Ni  Ni4  1  0.16376051  0.49945462  0.16397735  1
  Ni  Ni5  1  -0.00037310  0.33265300  0.33462858  1
  Ni  Ni6  1  0.99868124  0.66576609  0.99867311  1
  Cr  Cr7  1  0.16421404  0.83231398  0.16542804  1
  Ni  Ni8  1  -0.00073225  0.66514173  0.33473399  1
  Ni  Ni9  1  0.33454607  -0.00006949  0.99840186  1
  Ni  Ni10  1  0.50074371  0.16177129  0.16449765  1
  Ni  Ni11  1  0.33414542  0.99839018  0.33413042  1
  Ni  Ni12  1  0.33096545  0.33355873  0.99831374  1
  Cr  Cr13  1  0.49827353  0.49876592  0.16254981  1
  Cr  Cr14  1  0.32800137  0.33134764  0.33283354  1
  Fe  Fe15  1  0.33212750  0.66621253  0.99819603  1
  Ni  Ni16  1  0.50099349  0.83656813  0.16393911  1
  Cr  Cr17  1  0.33024150  0.66766919  0.33225327  1
  Ni  Ni18  1  0.66659056  0.99697819  0.00107814  1
  Ni  Ni19  1  0.83125167  0.16298036  0.16443103  1
  Ni  Ni20  1  0.66654635  0.99808665  0.33095530  1
  Fe  Fe21  1  0.66653922  0.32977692  0.99901301  1
  Cr  Cr22  1  0.83612471  0.49984787  0.16474130  1
  Cr  Cr23  1  0.66921143  0.32870433  0.33228519  1
  Ni  Ni24  1  0.66499561  0.66938367  0.99803885  1
  Ni  Ni25  1  0.83151077  0.83473292  0.16554564  1
  Cr  Cr26  1  0.66785420  0.67110468  0.33404962  1
  Ni  Ni27  1  0.16291335  0.16197289  0.49880481  1
  Ni  Ni28  1  0.00094302  0.99787321  0.66642236  1
  Ni  Ni29  1  0.16485723  0.16270032  0.83325019  1
  Ni  Ni30  1  0.16015405  0.50115420  0.49832957  1
  Cr  Cr31  1  0.00032369  0.33072226  0.66445990  1
  Fe  Fe32  1  0.16532474  0.49883658  0.83531692  1
  Ni  Ni33  1  0.16454226  0.83438836  0.50012844  1
  Ni  Ni34  1  -0.00009089  0.66829188  0.66413364  1
  Fe  Fe35  1  0.16360561  0.83470481  0.83266499  1
  Cr  Cr36  1  0.49769393  0.16163263  0.49828659  1
  Ni  Ni37  1  0.32901801  0.99753308  0.66500459  1
  Cr  Cr38  1  0.49761991  0.16602385  0.83373083  1
  Cr  Cr39  1  0.50076845  0.50038115  0.50006937  1
  Cr  Cr40  1  0.32931575  0.33183020  0.66556709  1
  Ni  Ni41  1  0.49791183  0.50091368  0.83558017  1
  Ni  Ni42  1  0.49689946  0.83521313  0.49873789  1
  Cr  Cr43  1  0.33086997  0.66742234  0.66712541  1
  Fe  Fe44  1  0.49958728  0.83296629  0.83505761  1
  Ni  Ni45  1  0.83646822  0.16512549  0.49788811  1
  Cr  Cr46  1  0.66829558  0.99745853  0.66556407  1
  Ni  Ni47  1  0.83594283  0.16266542  0.83518119  1
  Ni  Ni48  1  0.83737724  0.50004052  0.49868002  1
  Cr  Cr49  1  0.66779414  0.33234413  0.66588806  1
  Cr  Cr50  1  0.83191441  0.50074447  0.83420669  1
  Fe  Fe51  1  0.83649667  0.83358769  0.49828787  1
  Cr  Cr52  1  0.66717796  0.66778210  0.66458220  1
  Ni  Ni53  1  0.83539359  0.83324452  0.83356546  1
" 