1841,Ni56Fe40Cr3_16,-239.763952803715, 218.302651153224,Ni56Fe40Cr3,"# generated using pymatgen
 data_CrFe7Ni10
_symmetry_space_group_name_H-M   'P 1'
_cell_length_a   7.41298486
_cell_length_b   7.41298486
_cell_length_c   10.48354373
_cell_angle_alpha   90.00000000
_cell_angle_beta   90.00000000
_cell_angle_gamma   90.00000000
_symmetry_Int_Tables_number   1
_chemical_formula_structural   CrFe7Ni10
_chemical_formula_sum   'Cr3 Fe21 Ni30'
_cell_volume   576.09530686
_cell_formula_units_Z   3
loop_
 _symmetry_equiv_pos_site_id
 _symmetry_equiv_pos_as_xyz
  1  'x, y, z'
loop_
 _atom_site_type_symbol
 _atom_site_label
 _atom_site_symmetry_multiplicity
 _atom_site_fract_x
 _atom_site_fract_y
 _atom_site_fract_z
 _atom_site_occupancy
  Fe  Fe0  1  0.00372957  1.00171396  1.00234242  1
  Cr  Cr1  1  0.16996997  0.17110733  0.16802063  1
  Fe  Fe2  1  1.00126585  1.00359910  0.33740820  1
  Fe  Fe3  1  1.00165522  0.33953547  1.00176555  1
  Ni  Ni4  1  0.16912660  0.50475921  0.17140263  1
  Fe  Fe5  1  1.00149745  0.33779217  0.33824051  1
  Fe  Fe6  1  1.00358058  0.66958438  1.00340182  1
  Ni  Ni7  1  0.16801746  0.83436527  0.16927431  1
  Fe  Fe8  1  1.00296082  0.66960017  0.33725417  1
  Fe  Fe9  1  0.33932558  1.00264190  1.00083908  1
  Ni  Ni10  1  0.50625171  0.17232377  0.16922850  1
  Cr  Cr11  1  0.33807828  0.00501552  0.33784892  1
  Ni  Ni12  1  0.33547191  0.33867012  1.00247708  1
  Ni  Ni13  1  0.50420073  0.50292601  0.16982825  1
  Ni  Ni14  1  0.33706837  0.33901776  0.33837264  1
  Ni  Ni15  1  0.33588701  0.66804313  0.00396078  1
  Cr  Cr16  1  0.50382850  0.83622136  0.17012455  1
  Fe  Fe17  1  0.33912446  0.66799496  0.33792104  1
  Ni  Ni18  1  0.67371174  0.00375634  1.00355114  1
  Ni  Ni19  1  0.83597120  0.17138985  0.16993915  1
  Ni  Ni20  1  0.67313124  0.00407199  0.33829144  1
  Fe  Fe21  1  0.66858252  0.33818994  1.00347123  1
  Ni  Ni22  1  0.83719543  0.50304398  0.16981235  1
  Ni  Ni23  1  0.67012357  0.33750109  0.33570715  1
  Ni  Ni24  1  0.67174687  0.67093172  1.00207914  1
  Fe  Fe25  1  0.83763242  0.83642722  0.17090741  1
  Ni  Ni26  1  0.67339319  0.66916104  0.33814547  1
  Fe  Fe27  1  0.17019838  0.17177580  0.50585731  1
  Fe  Fe28  1  0.00488266  0.00466984  0.67033277  1
  Ni  Ni29  1  0.17021581  0.17118971  0.83656042  1
  Fe  Fe30  1  0.17052057  0.50304486  0.50469585  1
  Ni  Ni31  1  1.00272296  0.33701754  0.67048510  1
  Ni  Ni32  1  0.16837549  0.50377838  0.83636855  1
  Fe  Fe33  1  0.16969748  0.83628004  0.50494912  1
  Fe  Fe34  1  0.00464571  0.66892542  0.67032311  1
  Ni  Ni35  1  0.17101419  0.83574893  0.83715032  1
  Ni  Ni36  1  0.50508594  0.17128469  0.50442836  1
  Ni  Ni37  1  0.33625652  1.00317514  0.67157402  1
  Ni  Ni38  1  0.50400210  0.16965211  0.83742094  1
  Ni  Ni39  1  0.50473505  0.50319224  0.50420827  1
  Ni  Ni40  1  0.33673604  0.33668899  0.67027580  1
  Fe  Fe41  1  0.49988634  0.50400552  0.83653546  1
  Ni  Ni42  1  0.50446847  0.83638325  0.50523804  1
  Ni  Ni43  1  0.33607501  0.67096730  0.66966760  1
  Ni  Ni44  1  0.50420988  0.83657383  0.83586008  1
  Ni  Ni45  1  0.83668022  0.17115998  0.50434375  1
  Fe  Fe46  1  0.66850978  0.00539331  0.66979232  1
  Fe  Fe47  1  0.83778247  0.16957247  0.83668148  1
  Ni  Ni48  1  0.83702693  0.50301606  0.50454983  1
  Ni  Ni49  1  0.67113914  0.33697853  0.67148163  1
  Fe  Fe50  1  0.83649560  0.50375867  0.83614079  1
  Ni  Ni51  1  0.83674332  0.83675136  0.50462119  1
  Fe  Fe52  1  0.66893337  0.66874957  0.66971148  1
  Fe  Fe53  1  0.83734275  0.83779214  0.83604132  1
" 