6178,Ni56Fe11Cr32_8,-227.266618740316, 164.828259304308,Ni56Fe11Cr32,"# generated using pymatgen
 data_Cr3FeNi5
_symmetry_space_group_name_H-M   'P 1'
_cell_length_a   7.47632835
_cell_length_b   7.47632835
_cell_length_c   10.57312494
_cell_angle_alpha   90.00000000
_cell_angle_beta   90.00000000
_cell_angle_gamma   90.00000000
_symmetry_Int_Tables_number   1
_chemical_formula_structural   Cr3FeNi5
_chemical_formula_sum   'Cr18 Fe6 Ni30'
_cell_volume   590.98995247
_cell_formula_units_Z   6
loop_
 _symmetry_equiv_pos_site_id
 _symmetry_equiv_pos_as_xyz
  1  'x, y, z'
loop_
 _atom_site_type_symbol
 _atom_site_label
 _atom_site_symmetry_multiplicity
 _atom_site_fract_x
 _atom_site_fract_y
 _atom_site_fract_z
 _atom_site_occupancy
  Cr  Cr0  1  -0.00002824  0.99898808  0.00239309  1
  Ni  Ni1  1  0.16577238  0.16731511  0.16660204  1
  Fe  Fe2  1  0.00139274  0.00064400  0.33060778  1
  Cr  Cr3  1  0.00070262  0.33476127  0.99840390  1
  Ni  Ni4  1  0.17190091  0.49957293  0.16604146  1
  Cr  Cr5  1  0.00198515  0.33384100  0.33335027  1
  Cr  Cr6  1  0.00148822  0.66440904  0.99925057  1
  Ni  Ni7  1  0.16564969  0.83153372  0.16561293  1
  Cr  Cr8  1  -0.00025724  0.66407985  0.32978650  1
  Fe  Fe9  1  0.33126630  0.99934183  0.99743640  1
  Cr  Cr10  1  0.49820146  0.17227806  0.16332073  1
  Cr  Cr11  1  0.33364437  0.00042826  0.33367132  1
  Ni  Ni12  1  0.33247363  0.33494275  0.99829453  1
  Ni  Ni13  1  0.49744312  0.49841444  0.16725504  1
  Ni  Ni14  1  0.33351550  0.33485888  0.33460304  1
  Ni  Ni15  1  0.33197333  0.66457555  0.99817213  1
  Cr  Cr16  1  0.49642261  0.82705232  0.16619409  1
  Ni  Ni17  1  0.33231533  0.66348614  0.33357424  1
  Cr  Cr18  1  0.66263764  0.99905459  0.99832549  1
  Ni  Ni19  1  0.83275014  0.16628943  0.16733845  1
  Cr  Cr20  1  0.66480004  0.99806677  0.33321509  1
  Ni  Ni21  1  0.66389996  0.33398182  0.99859380  1
  Fe  Fe22  1  0.83076601  0.49701683  0.16615841  1
  Ni  Ni23  1  0.66513851  0.33323025  0.33303046  1
  Cr  Cr24  1  0.66475586  0.66510148  -0.00021980  1
  Ni  Ni25  1  0.83388302  0.83300693  0.16906413  1
  Fe  Fe26  1  0.66379052  0.66163285  0.33353441  1
  Ni  Ni27  1  0.16951158  0.16566973  0.49897410  1
  Fe  Fe28  1  0.00368520  -0.00011089  0.66750645  1
  Ni  Ni29  1  0.17014851  0.16482570  0.83314905  1
  Ni  Ni30  1  0.16864056  0.50064704  0.49919469  1
  Cr  Cr31  1  0.00251430  0.33726209  0.66617606  1
  Ni  Ni32  1  0.16948404  0.50156096  0.83209239  1
  Cr  Cr33  1  0.16643166  0.83166296  0.50166402  1
  Ni  Ni34  1  0.00054262  0.66386290  0.66794742  1
  Ni  Ni35  1  0.16979962  0.83167090  0.83182378  1
  Ni  Ni36  1  0.49960982  0.16915913  0.50035643  1
  Ni  Ni37  1  0.33523524  0.99897094  0.66761523  1
  Ni  Ni38  1  0.49740125  0.16784223  0.83330592  1
  Ni  Ni39  1  0.49921105  0.49931819  0.49743847  1
  Cr  Cr40  1  0.33381118  0.33289775  0.66421226  1
  Ni  Ni41  1  0.49855359  0.49927642  0.83341887  1
  Fe  Fe42  1  0.49785375  0.83080229  0.50185468  1
  Ni  Ni43  1  0.33311808  0.66715544  0.66651156  1
  Ni  Ni44  1  0.49584618  0.83097308  0.83001985  1
  Cr  Cr45  1  0.83261803  0.16629680  0.50212454  1
  Ni  Ni46  1  0.65967113  0.99905215  0.66580739  1
  Cr  Cr47  1  0.83043894  0.16807600  0.82949591  1
  Ni  Ni48  1  0.82938515  0.50016485  0.50058451  1
  Ni  Ni49  1  0.66466985  0.33412667  0.66645516  1
  Ni  Ni50  1  0.82958406  0.49995214  0.83053567  1
  Cr  Cr51  1  0.83311156  0.83129192  0.50260437  1
  Ni  Ni52  1  0.66402105  0.66493804  0.66478383  1
  Cr  Cr53  1  0.83330198  0.83123395  0.82722048  1
" 