1697,Ni56Fe22Cr21_8,-231.663590170394, 185.254160102617,Ni56Fe22Cr21,"# generated using pymatgen
 data_Cr13Fe11Ni30
_symmetry_space_group_name_H-M   'P 1'
_cell_length_a   7.45179851
_cell_length_b   7.45179851
_cell_length_c   10.53843452
_cell_angle_alpha   90.00000000
_cell_angle_beta   90.00000000
_cell_angle_gamma   90.00000000
_symmetry_Int_Tables_number   1
_chemical_formula_structural   Cr13Fe11Ni30
_chemical_formula_sum   'Cr13 Fe11 Ni30'
_cell_volume   585.19190283
_cell_formula_units_Z   1
loop_
 _symmetry_equiv_pos_site_id
 _symmetry_equiv_pos_as_xyz
  1  'x, y, z'
loop_
 _atom_site_type_symbol
 _atom_site_label
 _atom_site_symmetry_multiplicity
 _atom_site_fract_x
 _atom_site_fract_y
 _atom_site_fract_z
 _atom_site_occupancy
  Fe  Fe0  1  0.99886587  0.00174351  0.99948850  1
  Cr  Cr1  1  0.16980836  0.16780387  0.16817414  1
  Ni  Ni2  1  1.00093615  0.00402895  0.33494474  1
  Cr  Cr3  1  0.99836936  0.33428487  0.99733728  1
  Cr  Cr4  1  0.17176926  0.49705034  0.16740638  1
  Ni  Ni5  1  0.99861627  0.33213457  0.33652392  1
  Cr  Cr6  1  0.00196170  0.66617566  1.00070973  1
  Cr  Cr7  1  0.16725157  0.83785821  0.16724485  1
  Cr  Cr8  1  1.00079901  0.66618191  0.33417139  1
  Cr  Cr9  1  0.33855582  0.00119297  0.99755755  1
  Ni  Ni10  1  0.50185761  0.17137500  0.16810799  1
  Ni  Ni11  1  0.33412549  0.00311299  0.33688605  1
  Ni  Ni12  1  0.33800564  0.33558260  0.99923156  1
  Ni  Ni13  1  0.50525777  0.49900551  0.16676125  1
  Fe  Fe14  1  0.33692792  0.33260640  0.33664075  1
  Ni  Ni15  1  0.33755962  0.66625893  0.99792788  1
  Fe  Fe16  1  0.50307097  0.83403460  0.16581672  1
  Cr  Cr17  1  0.33731564  0.66813889  0.33550539  1
  Ni  Ni18  1  0.66728227  0.00320084  0.00203935  1
  Ni  Ni19  1  0.83365331  0.16782003  0.16771792  1
  Cr  Cr20  1  0.66541334  0.00345434  0.33287620  1
  Ni  Ni21  1  0.66650217  0.33311003  1.00041817  1
  Ni  Ni22  1  0.83017867  0.50025123  0.16879247  1
  Ni  Ni23  1  0.66753234  0.33415979  0.33421197  1
  Ni  Ni24  1  0.66616351  0.66669425  0.00233594  1
  Ni  Ni25  1  0.83201656  0.83474638  0.16709989  1
  Ni  Ni26  1  0.66682644  0.66500075  0.33168116  1
  Ni  Ni27  1  0.16788947  0.16693005  0.49998868  1
  Ni  Ni28  1  1.00100423  0.00227113  0.66796537  1
  Ni  Ni29  1  0.16861990  0.16764703  0.83374231  1
  Fe  Fe30  1  0.16989177  0.49819478  0.50271553  1
  Fe  Fe31  1  0.00326088  0.33218422  0.66857053  1
  Fe  Fe32  1  0.17121895  0.50106134  0.83305705  1
  Fe  Fe33  1  0.16921974  0.83636563  0.50388899  1
  Ni  Ni34  1  0.00432527  0.66552496  0.66832228  1
  Ni  Ni35  1  0.16791580  0.83669490  0.83115698  1
  Ni  Ni36  1  0.49683121  0.17047322  0.50222059  1
  Ni  Ni37  1  0.33434091  0.00217281  0.66819720  1
  Ni  Ni38  1  0.49898602  0.16965466  0.83286574  1
  Ni  Ni39  1  0.50085869  0.49829678  0.50169328  1
  Ni  Ni40  1  0.33474379  0.33467482  0.66749986  1
  Ni  Ni41  1  0.50277024  0.49996358  0.83451398  1
  Cr  Cr42  1  0.50235917  0.83410108  0.50485242  1
  Ni  Ni43  1  0.33316063  0.66596873  0.66974689  1
  Ni  Ni44  1  0.50046518  0.83377629  0.83339687  1
  Fe  Fe45  1  0.83269424  0.16829655  0.50160396  1
  Ni  Ni46  1  0.66607799  0.00636429  0.66883548  1
  Fe  Fe47  1  0.83121050  0.16732655  0.83355387  1
  Cr  Cr48  1  0.83113013  0.50114181  0.50254646  1
  Fe  Fe49  1  0.66509434  0.33390842  0.66853343  1
  Ni  Ni50  1  0.83163358  0.50041869  0.83191827  1
  Cr  Cr51  1  0.83569848  0.83431433  0.50333626  1
  Fe  Fe52  1  0.66468829  0.66733039  0.66971508  1
  Cr  Cr53  1  0.83253981  0.83318737  0.83320536  1
" 