5487,Ni56Fe36Cr6_7,-238.41496198366, 211.23085282675,Ni56Fe36Cr6,"# generated using pymatgen
 data_Cr5Fe19Ni30
_symmetry_space_group_name_H-M   'P 1'
_cell_length_a   7.41978580
_cell_length_b   7.41978580
_cell_length_c   10.49316171
_cell_angle_alpha   90.00000000
_cell_angle_beta   90.00000000
_cell_angle_gamma   90.00000000
_symmetry_Int_Tables_number   1
_chemical_formula_structural   Cr5Fe19Ni30
_chemical_formula_sum   'Cr5 Fe19 Ni30'
_cell_volume   577.68235480
_cell_formula_units_Z   1
loop_
 _symmetry_equiv_pos_site_id
 _symmetry_equiv_pos_as_xyz
  1  'x, y, z'
loop_
 _atom_site_type_symbol
 _atom_site_label
 _atom_site_symmetry_multiplicity
 _atom_site_fract_x
 _atom_site_fract_y
 _atom_site_fract_z
 _atom_site_occupancy
  Ni  Ni0  1  0.00395347  0.00348158  0.00365184  1
  Ni  Ni1  1  0.16981841  0.16856777  0.16984282  1
  Cr  Cr2  1  0.00464672  1.00303272  0.33598185  1
  Ni  Ni3  1  1.00205516  0.33397044  1.00229649  1
  Cr  Cr4  1  0.16908961  0.50278456  0.16928275  1
  Ni  Ni5  1  1.00252649  0.33653498  0.33771848  1
  Ni  Ni6  1  0.00361449  0.67210378  1.00191450  1
  Ni  Ni7  1  0.17008370  0.83827534  0.16847493  1
  Ni  Ni8  1  1.00229606  0.66990675  0.33785057  1
  Fe  Fe9  1  0.33560042  1.00261675  1.00312990  1
  Fe  Fe10  1  0.50244586  0.17036515  0.16914379  1
  Fe  Fe11  1  0.33559853  0.00502091  0.33620168  1
  Fe  Fe12  1  0.33661439  0.33657235  1.00272412  1
  Ni  Ni13  1  0.50564818  0.50314774  0.16910498  1
  Ni  Ni14  1  0.33780731  0.33524107  0.33747430  1
  Ni  Ni15  1  0.33771636  0.67138194  1.00181153  1
  Ni  Ni16  1  0.50342834  0.83592474  0.16876441  1
  Cr  Cr17  1  0.33698256  0.67015393  0.33684721  1
  Fe  Fe18  1  0.67100422  1.00290901  0.00363220  1
  Ni  Ni19  1  0.83647758  0.17078681  0.16796328  1
  Cr  Cr20  1  0.66949766  0.00360382  0.33671410  1
  Ni  Ni21  1  0.66977937  0.33658799  0.00338735  1
  Fe  Fe22  1  0.83523740  0.50354403  0.16969592  1
  Ni  Ni23  1  0.66921939  0.33768215  0.33665669  1
  Ni  Ni24  1  0.66822449  0.66948435  0.00444417  1
  Ni  Ni25  1  0.83604466  0.83588086  0.16869412  1
  Fe  Fe26  1  0.67151922  0.66712080  0.33633378  1
  Fe  Fe27  1  0.17073039  0.17273249  0.50284443  1
  Cr  Cr28  1  0.00335054  0.00446623  0.66993455  1
  Ni  Ni29  1  0.17041010  0.17039379  0.83706510  1
  Ni  Ni30  1  0.16896019  0.50348218  0.50415482  1
  Ni  Ni31  1  1.00294741  0.33657843  0.66953444  1
  Ni  Ni32  1  0.16919313  0.50407492  0.83585694  1
  Ni  Ni33  1  0.17109972  0.83529317  0.50292349  1
  Fe  Fe34  1  1.00281072  0.66728152  0.66963646  1
  Ni  Ni35  1  0.17103155  0.83508541  0.83815390  1
  Fe  Fe36  1  0.50261464  0.17192597  0.50415369  1
  Fe  Fe37  1  0.33803132  0.00348890  0.67022387  1
  Ni  Ni38  1  0.50429752  0.16943271  0.83646417  1
  Ni  Ni39  1  0.50431170  0.50245127  0.50398245  1
  Fe  Fe40  1  0.33668068  0.33696734  0.66955393  1
  Fe  Fe41  1  0.50338347  0.50251485  0.83676092  1
  Fe  Fe42  1  0.50341376  0.83552319  0.50453726  1
  Fe  Fe43  1  0.33617589  0.66909672  0.66978708  1
  Fe  Fe44  1  0.50291814  0.83644166  0.83697715  1
  Ni  Ni45  1  0.83500873  0.17268133  0.50433590  1
  Fe  Fe46  1  0.66903378  0.00428892  0.66975548  1
  Ni  Ni47  1  0.83485162  0.17126574  0.83725751  1
  Ni  Ni48  1  0.83628047  0.50218107  0.50169532  1
  Ni  Ni49  1  0.66971419  0.33702092  0.66950772  1
  Ni  Ni50  1  0.83681301  0.50245198  0.83668691  1
  Fe  Fe51  1  0.83619737  0.83301998  0.50342820  1
  Ni  Ni52  1  0.66814966  0.66933160  0.66899905  1
  Fe  Fe53  1  0.83664220  0.83582726  0.83803340  1
" 