1022,Ni56Fe20Cr22_17,-230.959845166728, 186.104653856672,Ni56Fe20Cr22,"# generated using pymatgen
 data_Cr7(FeNi3)5
_symmetry_space_group_name_H-M   'P 1'
_cell_length_a   7.45385229
_cell_length_b   7.45385229
_cell_length_c   10.54133901
_cell_angle_alpha   90.00000000
_cell_angle_beta   90.00000000
_cell_angle_gamma   90.00000000
_symmetry_Int_Tables_number   1
_chemical_formula_structural   Cr7(FeNi3)5
_chemical_formula_sum   'Cr14 Fe10 Ni30'
_cell_volume   585.67588898
_cell_formula_units_Z   2
loop_
 _symmetry_equiv_pos_site_id
 _symmetry_equiv_pos_as_xyz
  1  'x, y, z'
loop_
 _atom_site_type_symbol
 _atom_site_label
 _atom_site_symmetry_multiplicity
 _atom_site_fract_x
 _atom_site_fract_y
 _atom_site_fract_z
 _atom_site_occupancy
  Ni  Ni0  1  0.99947548  0.99993982  0.99857336  1
  Cr  Cr1  1  0.16796400  0.16917969  0.16690741  1
  Cr  Cr2  1  0.99895191  1.00044483  0.33606096  1
  Fe  Fe3  1  1.00006154  0.33513453  0.99851398  1
  Ni  Ni4  1  0.16770977  0.50131977  0.16852224  1
  Fe  Fe5  1  1.00006826  0.33487124  0.33592830  1
  Ni  Ni6  1  0.00171879  0.66862063  0.99995172  1
  Cr  Cr7  1  0.16681476  0.83220638  0.16662945  1
  Ni  Ni8  1  0.00238912  0.66628980  0.33354732  1
  Fe  Fe9  1  0.33333235  0.99906933  0.99832778  1
  Ni  Ni10  1  0.50200501  0.16880358  0.16989767  1
  Ni  Ni11  1  0.33626216  0.00227018  0.33527237  1
  Cr  Cr12  1  0.33573152  0.33613476  1.00045666  1
  Ni  Ni13  1  0.50041524  0.50015206  0.16898709  1
  Fe  Fe14  1  0.33650789  0.33396386  0.33434729  1
  Ni  Ni15  1  0.33310538  0.66580890  0.99929586  1
  Cr  Cr16  1  0.50224962  0.83379095  0.16805747  1
  Ni  Ni17  1  0.33266310  0.66544307  0.33368410  1
  Cr  Cr18  1  0.66891763  0.00241914  0.00142235  1
  Fe  Fe19  1  0.83217305  0.16755604  0.16779570  1
  Ni  Ni20  1  0.66676316  0.00539946  0.33274592  1
  Fe  Fe21  1  0.66778867  0.33571923  1.00015225  1
  Cr  Cr22  1  0.83492025  0.50216365  0.16721782  1
  Ni  Ni23  1  0.66596511  0.33210023  0.33485219  1
  Ni  Ni24  1  0.66780874  0.66695126  0.99941401  1
  Ni  Ni25  1  0.83393187  0.83358996  0.16769925  1
  Fe  Fe26  1  0.66738215  0.66634347  0.33421554  1
  Ni  Ni27  1  0.16746716  0.16803767  0.50185540  1
  Fe  Fe28  1  0.00102605  0.00428994  0.66915324  1
  Ni  Ni29  1  0.16548144  0.16771113  0.83348503  1
  Cr  Cr30  1  0.16747144  0.49822308  0.49866149  1
  Ni  Ni31  1  0.99991062  0.33207862  0.66815362  1
  Ni  Ni32  1  0.16720795  0.49986899  0.83580812  1
  Fe  Fe33  1  0.16806178  0.83571948  0.49893611  1
  Cr  Cr34  1  1.00002440  0.66768083  0.66894637  1
  Ni  Ni35  1  0.16636916  0.83512296  0.83652074  1
  Ni  Ni36  1  0.50020753  0.17030951  0.49896578  1
  Cr  Cr37  1  0.33258624  0.00331426  0.66902635  1
  Ni  Ni38  1  0.50063531  0.16917892  0.83382786  1
  Ni  Ni39  1  0.50338377  0.49870383  0.50008917  1
  Ni  Ni40  1  0.33516185  0.33313422  0.66721762  1
  Ni  Ni41  1  0.50214845  0.50165230  0.83355102  1
  Cr  Cr42  1  0.50123491  0.83322418  0.49847890  1
  Cr  Cr43  1  0.33509483  0.66548965  0.66970634  1
  Ni  Ni44  1  0.50152020  0.83180250  0.83625453  1
  Ni  Ni45  1  0.83496145  0.17058945  0.50037870  1
  Cr  Cr46  1  0.66884716  0.00320489  0.66854392  1
  Ni  Ni47  1  0.83651414  0.16832044  0.83439467  1
  Ni  Ni48  1  0.83215096  0.49879424  0.50098352  1
  Ni  Ni49  1  0.66759187  0.33494282  0.66796706  1
  Fe  Fe50  1  0.83329920  0.50040502  0.83416592  1
  Cr  Cr51  1  0.83354514  0.83283158  0.50026767  1
  Ni  Ni52  1  0.66810186  0.66390046  0.66873951  1
  Ni  Ni53  1  0.83471581  0.83358046  0.83524254  1
" 