3894,Ni56Fe22Cr21_0,-231.582561993367, 183.471529340211,Ni56Fe22Cr21,"# generated using pymatgen
 data_Cr13Fe11Ni30
_symmetry_space_group_name_H-M   'P 1'
_cell_length_a   7.45076013
_cell_length_b   7.45076013
_cell_length_c   10.53696603
_cell_angle_alpha   90.00000000
_cell_angle_beta   90.00000000
_cell_angle_gamma   90.00000000
_symmetry_Int_Tables_number   1
_chemical_formula_structural   Cr13Fe11Ni30
_chemical_formula_sum   'Cr13 Fe11 Ni30'
_cell_volume   584.94730467
_cell_formula_units_Z   1
loop_
 _symmetry_equiv_pos_site_id
 _symmetry_equiv_pos_as_xyz
  1  'x, y, z'
loop_
 _atom_site_type_symbol
 _atom_site_label
 _atom_site_symmetry_multiplicity
 _atom_site_fract_x
 _atom_site_fract_y
 _atom_site_fract_z
 _atom_site_occupancy
  Ni  Ni0  1  0.00208909  0.00144396  0.99923356  1
  Cr  Cr1  1  0.16908008  0.16930516  0.16799604  1
  Ni  Ni2  1  0.00312800  1.00078133  0.33696134  1
  Fe  Fe3  1  0.00128025  0.33458949  1.00038843  1
  Ni  Ni4  1  0.16705171  0.50139915  0.16854049  1
  Ni  Ni5  1  1.00081923  0.33455226  0.33420380  1
  Ni  Ni6  1  0.00452745  0.66744829  0.00191530  1
  Fe  Fe7  1  0.16897329  0.83275124  0.16772404  1
  Ni  Ni8  1  0.00565320  0.66790356  0.33452778  1
  Ni  Ni9  1  0.33213318  1.00000653  1.00102334  1
  Ni  Ni10  1  0.50063774  0.16976608  0.16739844  1
  Ni  Ni11  1  0.33118295  0.00178710  0.33523251  1
  Fe  Fe12  1  0.33458069  0.33626151  0.00138245  1
  Ni  Ni13  1  0.49944172  0.49879693  0.16655128  1
  Ni  Ni14  1  0.33587830  0.33605209  0.33617766  1
  Ni  Ni15  1  0.33222871  0.66619152  1.00093618  1
  Cr  Cr16  1  0.49976175  0.83581753  0.16602299  1
  Ni  Ni17  1  0.33016625  0.66533375  0.33416185  1
  Ni  Ni18  1  0.66902357  0.00511473  0.00133043  1
  Fe  Fe19  1  0.83345613  0.17082499  0.16636425  1
  Cr  Cr20  1  0.66860901  0.00657389  0.33559601  1
  Ni  Ni21  1  0.66792137  0.33421265  0.00347386  1
  Fe  Fe22  1  0.83482016  0.49821585  0.16700047  1
  Ni  Ni23  1  0.66635344  0.33362492  0.33332833  1
  Ni  Ni24  1  0.66648993  0.66380462  1.00101504  1
  Cr  Cr25  1  0.83622832  0.83336096  0.16582162  1
  Cr  Cr26  1  0.66687776  0.66302634  0.33412560  1
  Ni  Ni27  1  0.16766688  0.17022921  0.50071148  1
  Ni  Ni28  1  0.99934063  0.00218417  0.66708843  1
  Ni  Ni29  1  0.16549398  0.17062073  0.83501483  1
  Ni  Ni30  1  0.16878149  0.49870520  0.50098034  1
  Ni  Ni31  1  0.00383209  0.33223825  0.66879637  1
  Ni  Ni32  1  0.16851530  0.49925734  0.83392963  1
  Fe  Fe33  1  0.16625257  0.83330183  0.49979579  1
  Fe  Fe34  1  0.00468363  0.66815545  0.66684251  1
  Fe  Fe35  1  0.16659909  0.83428386  0.83584779  1
  Ni  Ni36  1  0.49802671  0.16933221  0.49923237  1
  Cr  Cr37  1  0.33117049  0.00164022  0.66697961  1
  Cr  Cr38  1  0.49922910  0.16712392  0.83657432  1
  Ni  Ni39  1  0.49714715  0.49947072  0.50173695  1
  Ni  Ni40  1  0.33200961  0.33858436  0.66727442  1
  Fe  Fe41  1  0.49854082  0.50076439  0.83544875  1
  Cr  Cr42  1  0.50257409  0.83455686  0.50127658  1
  Ni  Ni43  1  0.33256071  0.66368862  0.66820413  1
  Cr  Cr44  1  0.50291938  0.83317289  0.83584434  1
  Fe  Fe45  1  0.83654043  0.16733787  0.50173177  1
  Ni  Ni46  1  0.67220647  0.00196253  0.66627440  1
  Ni  Ni47  1  0.83796212  0.16634487  0.83533830  1
  Cr  Cr48  1  0.83809182  0.50304520  0.50012762  1
  Cr  Cr49  1  0.66677713  0.33291492  0.66610884  1
  Cr  Cr50  1  0.83698641  0.50180398  0.83549546  1
  Ni  Ni51  1  0.83686811  0.83568512  0.50383623  1
  Fe  Fe52  1  0.66668121  0.66834988  0.66666643  1
  Cr  Cr53  1  0.83317171  0.83532139  0.83343163  1
" 