2157,Ni56Fe20Cr22_2,-230.661022070584, 181.890655010956,Ni56Fe20Cr22,"# generated using pymatgen
 data_Cr7(FeNi3)5
_symmetry_space_group_name_H-M   'P 1'
_cell_length_a   7.45636698
_cell_length_b   7.45636698
_cell_length_c   10.54489531
_cell_angle_alpha   90.00000000
_cell_angle_beta   90.00000000
_cell_angle_gamma   90.00000000
_symmetry_Int_Tables_number   1
_chemical_formula_structural   Cr7(FeNi3)5
_chemical_formula_sum   'Cr14 Fe10 Ni30'
_cell_volume   586.26885268
_cell_formula_units_Z   2
loop_
 _symmetry_equiv_pos_site_id
 _symmetry_equiv_pos_as_xyz
  1  'x, y, z'
loop_
 _atom_site_type_symbol
 _atom_site_label
 _atom_site_symmetry_multiplicity
 _atom_site_fract_x
 _atom_site_fract_y
 _atom_site_fract_z
 _atom_site_occupancy
  Ni  Ni0  1  0.99952155  0.00116212  0.00126991  1
  Cr  Cr1  1  0.16634764  0.16776813  0.16549714  1
  Ni  Ni2  1  0.99842395  1.00055207  0.33457199  1
  Ni  Ni3  1  0.99829508  0.33415421  0.99843360  1
  Cr  Cr4  1  0.16902383  0.50180689  0.16596751  1
  Cr  Cr5  1  0.99875125  0.33399802  0.33720743  1
  Ni  Ni6  1  1.00040699  0.66682171  0.00166209  1
  Ni  Ni7  1  0.16497293  0.83261859  0.16656765  1
  Cr  Cr8  1  1.00042320  0.66926563  0.33330428  1
  Cr  Cr9  1  0.33478694  1.00039807  0.99632146  1
  Ni  Ni10  1  0.50448291  0.17030281  0.16767457  1
  Cr  Cr11  1  0.33272405  0.99822828  0.33424250  1
  Ni  Ni12  1  0.33618979  0.33481231  0.99856836  1
  Fe  Fe13  1  0.50073901  0.49875945  0.16584021  1
  Ni  Ni14  1  0.33528158  0.33466744  0.33384157  1
  Ni  Ni15  1  0.33456778  0.66701273  0.99964176  1
  Cr  Cr16  1  0.50067154  0.83326960  0.16628766  1
  Ni  Ni17  1  0.33458996  0.66747704  0.33471709  1
  Ni  Ni18  1  0.66771977  0.00226715  0.00112128  1
  Ni  Ni19  1  0.83208786  0.16722447  0.16787881  1
  Fe  Fe20  1  0.66936659  0.00095122  0.33428052  1
  Ni  Ni21  1  0.66780082  0.33409796  0.00172433  1
  Ni  Ni22  1  0.83286998  0.49914303  0.16494650  1
  Fe  Fe23  1  0.66754065  0.33367089  0.33157283  1
  Ni  Ni24  1  0.66699750  0.66565908  0.99982964  1
  Fe  Fe25  1  0.83526924  0.83607750  0.16529277  1
  Cr  Cr26  1  0.66858444  0.66715417  0.33311155  1
  Fe  Fe27  1  0.16742375  0.16515505  0.50180730  1
  Ni  Ni28  1  1.00018958  0.99974754  0.66652209  1
  Ni  Ni29  1  0.16490453  0.16934880  0.83426468  1
  Fe  Fe30  1  0.16897044  0.50299758  0.50189189  1
  Cr  Cr31  1  0.00095925  0.33474412  0.66756803  1
  Ni  Ni32  1  0.16856261  0.50207421  0.83405317  1
  Ni  Ni33  1  0.16568329  0.83242356  0.50098542  1
  Ni  Ni34  1  0.00128933  0.66756230  0.66610726  1
  Ni  Ni35  1  0.16514919  0.83073671  0.83451540  1
  Cr  Cr36  1  0.50169518  0.16756504  0.49993221  1
  Cr  Cr37  1  0.33395024  0.99984206  0.67096203  1
  Ni  Ni38  1  0.50322697  0.16922274  0.83509033  1
  Cr  Cr39  1  0.49867110  0.50078021  0.50017871  1
  Ni  Ni40  1  0.33381327  0.33562547  0.66894227  1
  Ni  Ni41  1  0.49866693  0.50147300  0.83587249  1
  Ni  Ni42  1  0.50193493  0.83298738  0.50251749  1
  Ni  Ni43  1  0.33317667  0.66765795  0.66751615  1
  Ni  Ni44  1  0.50247305  0.83133145  0.83225137  1
  Fe  Fe45  1  0.83403560  0.16253909  0.50142141  1
  Ni  Ni46  1  0.66813586  0.99983864  0.66678982  1
  Ni  Ni47  1  0.83397075  0.16613381  0.83522463  1
  Fe  Fe48  1  0.83341064  0.50397409  0.50178779  1
  Cr  Cr49  1  0.66816827  0.33466584  0.67040024  1
  Fe  Fe50  1  0.83486019  0.50137187  0.83680362  1
  Ni  Ni51  1  0.83502432  0.83571653  0.50107501  1
  Fe  Fe52  1  0.66707549  0.66858154  0.66772157  1
  Cr  Cr53  1  0.83481702  0.83525811  0.83509785  1
" 