548,Ni56Fe11Cr32_7,-227.603006620035, 172.339351950873,Ni56Fe11Cr32,"# generated using pymatgen
 data_Cr3FeNi5
_symmetry_space_group_name_H-M   'P 1'
_cell_length_a   7.47456727
_cell_length_b   7.47456727
_cell_length_c   10.57063441
_cell_angle_alpha   90.00000000
_cell_angle_beta   90.00000000
_cell_angle_gamma   90.00000000
_symmetry_Int_Tables_number   1
_chemical_formula_structural   Cr3FeNi5
_chemical_formula_sum   'Cr18 Fe6 Ni30'
_cell_volume   590.57242230
_cell_formula_units_Z   6
loop_
 _symmetry_equiv_pos_site_id
 _symmetry_equiv_pos_as_xyz
  1  'x, y, z'
loop_
 _atom_site_type_symbol
 _atom_site_label
 _atom_site_symmetry_multiplicity
 _atom_site_fract_x
 _atom_site_fract_y
 _atom_site_fract_z
 _atom_site_occupancy
  Ni  Ni0  1  0.99874345  0.99891597  0.00043228  1
  Ni  Ni1  1  0.16650509  0.16417979  0.16734076  1
  Ni  Ni2  1  0.00319103  0.00087658  0.33436274  1
  Ni  Ni3  1  -0.00028583  0.33356196  0.00059223  1
  Fe  Fe4  1  0.16548449  0.49682797  0.16570470  1
  Ni  Ni5  1  0.00062278  0.33069228  0.33202263  1
  Ni  Ni6  1  0.00025019  0.66576446  0.00120940  1
  Ni  Ni7  1  0.16679559  0.83264251  0.16685639  1
  Cr  Cr8  1  0.00147225  0.66859946  0.33036679  1
  Cr  Cr9  1  0.33249184  0.99773605  0.00114035  1
  Ni  Ni10  1  0.49722716  0.16535731  0.16734242  1
  Ni  Ni11  1  0.32980354  0.00023166  0.33280864  1
  Fe  Fe12  1  0.33136055  0.33382541  0.00178352  1
  Cr  Cr13  1  0.49876841  0.49760543  0.16939925  1
  Ni  Ni14  1  0.33196107  0.33082867  0.33231377  1
  Ni  Ni15  1  0.33149320  0.66566979  0.00124528  1
  Fe  Fe16  1  0.49728704  0.83477635  0.16615082  1
  Ni  Ni17  1  0.33164475  0.66700016  0.33128848  1
  Ni  Ni18  1  0.66747018  0.99853571  0.99903064  1
  Cr  Cr19  1  0.83297594  0.16811313  0.16640701  1
  Cr  Cr20  1  0.66655963  0.00061950  0.33247574  1
  Cr  Cr21  1  0.66629417  0.33353553  0.99657571  1
  Ni  Ni22  1  0.83515818  0.49944185  0.16646164  1
  Ni  Ni23  1  0.66507606  0.33221773  0.33480637  1
  Cr  Cr24  1  0.66546979  0.66705882  0.99927719  1
  Fe  Fe25  1  0.83564073  0.83489775  0.16441937  1
  Cr  Cr26  1  0.66622514  0.66531665  0.33161924  1
  Ni  Ni27  1  0.16779803  0.16612389  0.49805136  1
  Cr  Cr28  1  0.00015136  0.00145539  0.66254035  1
  Cr  Cr29  1  0.16450791  0.16719888  0.83331493  1
  Cr  Cr30  1  0.16727839  0.50000324  0.49963055  1
  Ni  Ni31  1  -0.00008857  0.33227034  0.66650964  1
  Cr  Cr32  1  0.16604330  0.49988963  0.83462182  1
  Ni  Ni33  1  0.16723258  0.83391299  0.49952189  1
  Fe  Fe34  1  0.99835390  0.66618472  0.66611924  1
  Cr  Cr35  1  0.16686300  0.83171097  0.82978603  1
  Ni  Ni36  1  0.49684589  0.16767842  0.49746272  1
  Ni  Ni37  1  0.33267087  0.99933411  0.66334902  1
  Cr  Cr38  1  0.49778296  0.16481012  0.83388553  1
  Fe  Fe39  1  0.49739221  0.49820930  0.49931463  1
  Ni  Ni40  1  0.33176597  0.33348272  0.66536077  1
  Ni  Ni41  1  0.49836345  0.50269898  0.83037418  1
  Cr  Cr42  1  0.49734184  0.83205388  0.49949062  1
  Ni  Ni43  1  0.33548747  0.66594446  0.66601104  1
  Ni  Ni44  1  0.50000554  0.82992712  0.83357078  1
  Ni  Ni45  1  0.83411613  0.16682115  0.49666189  1
  Cr  Cr46  1  0.66711678  0.99806664  0.66793115  1
  Ni  Ni47  1  0.83441190  0.16620630  0.83535127  1
  Cr  Cr48  1  0.83240134  0.49907092  0.49920114  1
  Cr  Cr49  1  0.66654948  0.33365418  0.66595900  1
  Ni  Ni50  1  0.83392153  0.50074063  0.83214277  1
  Ni  Ni51  1  0.83476788  0.83301902  0.49947076  1
  Ni  Ni52  1  0.66556412  0.66606112  0.66865500  1
  Ni  Ni53  1  0.83250540  0.83147952  0.83511562  1
" 