887,Ni56Fe20Cr22_19,-231.148051239574, 187.955603353915,Ni56Fe20Cr22,"# generated using pymatgen
 data_Cr7(FeNi3)5
_symmetry_space_group_name_H-M   'P 1'
_cell_length_a   7.45181085
_cell_length_b   7.45181085
_cell_length_c   10.53845196
_cell_angle_alpha   90.00000000
_cell_angle_beta   90.00000000
_cell_angle_gamma   90.00000000
_symmetry_Int_Tables_number   1
_chemical_formula_structural   Cr7(FeNi3)5
_chemical_formula_sum   'Cr14 Fe10 Ni30'
_cell_volume   585.19480904
_cell_formula_units_Z   2
loop_
 _symmetry_equiv_pos_site_id
 _symmetry_equiv_pos_as_xyz
  1  'x, y, z'
loop_
 _atom_site_type_symbol
 _atom_site_label
 _atom_site_symmetry_multiplicity
 _atom_site_fract_x
 _atom_site_fract_y
 _atom_site_fract_z
 _atom_site_occupancy
  Ni  Ni0  1  0.00107400  0.00107791  0.00181583  1
  Ni  Ni1  1  0.16838795  0.16673249  0.16715858  1
  Fe  Fe2  1  0.00165504  0.00284903  0.33328160  1
  Ni  Ni3  1  0.00250452  0.33355042  0.00275881  1
  Ni  Ni4  1  0.16890984  0.50165852  0.16582747  1
  Cr  Cr5  1  0.00324334  0.33207999  0.33398135  1
  Ni  Ni6  1  0.00177601  0.66844005  0.00209327  1
  Ni  Ni7  1  0.16711942  0.83467630  0.16537741  1
  Cr  Cr8  1  1.00101440  0.66810016  0.33249841  1
  Fe  Fe9  1  0.33261849  1.00045081  0.00175838  1
  Ni  Ni10  1  0.50140317  0.16932878  0.16704285  1
  Fe  Fe11  1  0.33307914  0.00336847  0.33298009  1
  Ni  Ni12  1  0.33290255  0.33419756  0.00282902  1
  Ni  Ni13  1  0.49999076  0.49816773  0.16702575  1
  Ni  Ni14  1  0.33430194  0.33335939  0.33460676  1
  Ni  Ni15  1  0.33382493  0.66798699  0.00158471  1
  Fe  Fe16  1  0.49866940  0.83616890  0.16590359  1
  Cr  Cr17  1  0.33539761  0.66605355  0.33495273  1
  Ni  Ni18  1  0.66811163  1.00015699  0.00227332  1
  Ni  Ni19  1  0.83327497  0.16754149  0.16621712  1
  Cr  Cr20  1  0.66835896  1.00099987  0.33491176  1
  Fe  Fe21  1  0.66823931  0.33442448  0.00298980  1
  Fe  Fe22  1  0.83510722  0.49845494  0.16582149  1
  Ni  Ni23  1  0.66576400  0.33308715  0.33245432  1
  Cr  Cr24  1  0.66758152  0.66890999  0.00106099  1
  Fe  Fe25  1  0.83656126  0.83648221  0.16568728  1
  Cr  Cr26  1  0.66665328  0.66809007  0.33448502  1
  Ni  Ni27  1  0.16614667  0.16964224  0.50064056  1
  Fe  Fe28  1  0.99928527  0.00174426  0.66771312  1
  Ni  Ni29  1  0.16726493  0.16759846  0.83527073  1
  Ni  Ni30  1  0.17044167  0.49934928  0.50329867  1
  Ni  Ni31  1  0.00244036  0.33358374  0.66633408  1
  Cr  Cr32  1  0.16707367  0.50160066  0.83379109  1
  Cr  Cr33  1  0.16680689  0.83361711  0.50220112  1
  Ni  Ni34  1  0.00139918  0.66767629  0.66848112  1
  Fe  Fe35  1  0.16629879  0.83442685  0.83567821  1
  Cr  Cr36  1  0.50194421  0.16986031  0.50069437  1
  Cr  Cr37  1  0.33456824  1.00080704  0.66886021  1
  Cr  Cr38  1  0.50095426  0.16807605  0.83547991  1
  Ni  Ni39  1  0.49835550  0.50027710  0.50244763  1
  Ni  Ni40  1  0.33223589  0.33648391  0.66563099  1
  Fe  Fe41  1  0.50090696  0.50110744  0.83404779  1
  Ni  Ni42  1  0.50215027  0.83321152  0.50136213  1
  Ni  Ni43  1  0.33455025  0.66604885  0.66702965  1
  Ni  Ni44  1  0.50090947  0.83388697  0.83517975  1
  Ni  Ni45  1  0.83513604  0.16584559  0.50315872  1
  Ni  Ni46  1  0.67001733  0.99949459  0.66627117  1
  Cr  Cr47  1  0.83479906  0.16794365  0.83341175  1
  Cr  Cr48  1  0.83430825  0.49959490  0.50228557  1
  Ni  Ni49  1  0.66838979  0.33377793  0.66746610  1
  Ni  Ni50  1  0.83531156  0.50200433  0.83495787  1
  Ni  Ni51  1  0.83420791  0.83750680  0.50263333  1
  Cr  Cr52  1  0.66670217  0.66988556  0.66751816  1
  Ni  Ni53  1  0.83507782  0.83376139  0.83398554  1
" 