3911,Ni56Fe40Cr3_1,-239.849938432832, 218.868346143401,Ni56Fe40Cr3,"# generated using pymatgen
 data_CrFe7Ni10
_symmetry_space_group_name_H-M   'P 1'
_cell_length_a   7.41162510
_cell_length_b   7.41162510
_cell_length_c   10.48162074
_cell_angle_alpha   90.00000000
_cell_angle_beta   90.00000000
_cell_angle_gamma   90.00000000
_symmetry_Int_Tables_number   1
_chemical_formula_structural   CrFe7Ni10
_chemical_formula_sum   'Cr3 Fe21 Ni30'
_cell_volume   575.77834633
_cell_formula_units_Z   3
loop_
 _symmetry_equiv_pos_site_id
 _symmetry_equiv_pos_as_xyz
  1  'x, y, z'
loop_
 _atom_site_type_symbol
 _atom_site_label
 _atom_site_symmetry_multiplicity
 _atom_site_fract_x
 _atom_site_fract_y
 _atom_site_fract_z
 _atom_site_occupancy
  Fe  Fe0  1  1.00296538  0.00487065  1.00342010  1
  Ni  Ni1  1  0.16958493  0.16905326  0.17085779  1
  Fe  Fe2  1  0.00530705  1.00342605  0.33814774  1
  Ni  Ni3  1  0.00584393  0.33715437  0.00391148  1
  Ni  Ni4  1  0.16808772  0.50228420  0.17065842  1
  Ni  Ni5  1  0.00397804  0.33597475  0.33768241  1
  Ni  Ni6  1  0.00436468  0.67177954  0.00524197  1
  Fe  Fe7  1  0.17218838  0.83604994  0.17205464  1
  Fe  Fe8  1  0.00513329  0.66963517  0.33786276  1
  Fe  Fe9  1  0.33640619  0.00394786  0.00527194  1
  Ni  Ni10  1  0.50146344  0.16808943  0.16909856  1
  Ni  Ni11  1  0.33787565  0.00480251  0.33779924  1
  Ni  Ni12  1  0.33486666  0.33506323  1.00328605  1
  Cr  Cr13  1  0.50523021  0.50383302  0.16940218  1
  Ni  Ni14  1  0.33448638  0.33549720  0.33720409  1
  Fe  Fe15  1  0.33642690  0.66912821  0.00438098  1
  Ni  Ni16  1  0.50379406  0.83847097  0.17213489  1
  Ni  Ni17  1  0.33738434  0.67079122  0.33835946  1
  Ni  Ni18  1  0.67086163  1.00352218  0.00465322  1
  Fe  Fe19  1  0.83682642  0.17268839  0.16947440  1
  Fe  Fe20  1  0.66914780  0.00526697  0.33782941  1
  Ni  Ni21  1  0.67050604  0.33422741  1.00341620  1
  Ni  Ni22  1  0.83847660  0.50432074  0.17035287  1
  Fe  Fe23  1  0.66892972  0.33716392  0.33733706  1
  Ni  Ni24  1  0.67294288  0.67394628  0.00409400  1
  Fe  Fe25  1  0.83674616  0.83700846  0.17135570  1
  Ni  Ni26  1  0.67219251  0.67371235  0.33841786  1
  Ni  Ni27  1  0.17042153  0.16862470  0.50396077  1
  Fe  Fe28  1  0.00473048  1.00291824  0.66991220  1
  Ni  Ni29  1  0.16985834  0.16811680  0.83655527  1
  Fe  Fe30  1  0.17076753  0.50337917  0.50275804  1
  Fe  Fe31  1  0.00417842  0.33728897  0.66917921  1
  Fe  Fe32  1  0.17123868  0.50277512  0.83783147  1
  Ni  Ni33  1  0.17006971  0.83878776  0.50361128  1
  Ni  Ni34  1  0.00447887  0.67043795  0.66865140  1
  Fe  Fe35  1  0.16792328  0.83557595  0.83571344  1
  Ni  Ni36  1  0.50165692  0.17121517  0.50491001  1
  Fe  Fe37  1  0.33669744  1.00294572  0.66861813  1
  Fe  Fe38  1  0.50506807  0.17195660  0.83673883  1
  Ni  Ni39  1  0.50530394  0.50394955  0.50386703  1
  Ni  Ni40  1  0.33534188  0.33669401  0.67049763  1
  Ni  Ni41  1  0.50352480  0.50422655  0.83812457  1
  Fe  Fe42  1  0.50346794  0.83718865  0.50346968  1
  Ni  Ni43  1  0.33570339  0.66727102  0.66870310  1
  Cr  Cr44  1  0.50306180  0.83576038  0.83552848  1
  Fe  Fe45  1  0.83726691  0.17060563  0.50440252  1
  Ni  Ni46  1  0.67200039  0.00496363  0.66876660  1
  Ni  Ni47  1  0.83961758  0.16969744  0.83630766  1
  Ni  Ni48  1  0.83619219  0.50466131  0.50338519  1
  Fe  Fe49  1  0.66821490  0.33835446  0.67009347  1
  Cr  Cr50  1  0.83499285  0.50436671  0.83723785  1
  Ni  Ni51  1  0.83858953  0.83597607  0.50439974  1
  Ni  Ni52  1  0.67082081  0.67319793  0.66884634  1
  Fe  Fe53  1  0.83869492  0.83925635  0.83612478  1
" 