1184,Ni56Fe11Cr32_11,-227.341641847743, 167.731577711573,Ni56Fe11Cr32,"# generated using pymatgen
 data_Cr3FeNi5
_symmetry_space_group_name_H-M   'P 1'
_cell_length_a   7.47461862
_cell_length_b   7.47461862
_cell_length_c   10.57070703
_cell_angle_alpha   90.00000000
_cell_angle_beta   90.00000000
_cell_angle_gamma   90.00000000
_symmetry_Int_Tables_number   1
_chemical_formula_structural   Cr3FeNi5
_chemical_formula_sum   'Cr18 Fe6 Ni30'
_cell_volume   590.58459402
_cell_formula_units_Z   6
loop_
 _symmetry_equiv_pos_site_id
 _symmetry_equiv_pos_as_xyz
  1  'x, y, z'
loop_
 _atom_site_type_symbol
 _atom_site_label
 _atom_site_symmetry_multiplicity
 _atom_site_fract_x
 _atom_site_fract_y
 _atom_site_fract_z
 _atom_site_occupancy
  Ni  Ni0  1  0.99845398  0.00027346  -0.00035843  1
  Fe  Fe1  1  0.16696810  0.16718894  0.16674189  1
  Cr  Cr2  1  0.99778765  -0.00042211  0.33244407  1
  Cr  Cr3  1  0.99899153  0.33119589  0.99854138  1
  Cr  Cr4  1  0.16747019  0.49733418  0.16792193  1
  Ni  Ni5  1  0.99873818  0.33338281  0.33274953  1
  Cr  Cr6  1  0.99830340  0.66714803  -0.00042703  1
  Cr  Cr7  1  0.16643988  0.83386331  0.16540226  1
  Fe  Fe8  1  0.99738883  0.66589736  0.33404783  1
  Cr  Cr9  1  0.33257517  0.00046850  0.00007282  1
  Ni  Ni10  1  0.50129715  0.16691725  0.16716311  1
  Ni  Ni11  1  0.33570511  0.00205818  0.33251430  1
  Ni  Ni12  1  0.33587609  0.33365875  0.99784582  1
  Ni  Ni13  1  0.50160913  0.49848216  0.16457320  1
  Ni  Ni14  1  0.33301962  0.33075454  0.33276273  1
  Ni  Ni15  1  0.33594433  0.66386232  0.99780799  1
  Ni  Ni16  1  0.50316137  0.83306127  0.16592791  1
  Cr  Cr17  1  0.33380464  0.66691589  0.33320092  1
  Ni  Ni18  1  0.66691502  0.00018753  0.00172304  1
  Ni  Ni19  1  0.83057384  0.16577571  0.16601972  1
  Ni  Ni20  1  0.66555064  -0.00044922  0.33318998  1
  Ni  Ni21  1  0.66361577  0.33394436  0.00066565  1
  Ni  Ni22  1  0.82964633  0.49906070  0.16732683  1
  Fe  Fe23  1  0.66567967  0.33048333  0.33081213  1
  Ni  Ni24  1  0.66426685  0.66437569  0.00093815  1
  Ni  Ni25  1  0.82927643  0.83363073  0.16605001  1
  Ni  Ni26  1  0.66825763  0.66728741  0.33033328  1
  Cr  Cr27  1  0.16621494  0.16701723  0.49724616  1
  Ni  Ni28  1  0.99862687  0.99596456  0.66565864  1
  Ni  Ni29  1  0.16647274  0.16621505  0.83465221  1
  Ni  Ni30  1  0.16524420  0.50197265  0.49904457  1
  Cr  Cr31  1  -0.00042543  0.33345621  0.66732829  1
  Ni  Ni32  1  0.16914174  0.50100355  0.83192045  1
  Ni  Ni33  1  0.16341803  0.83022489  0.50145967  1
  Ni  Ni34  1  0.00132842  0.66866533  0.66477491  1
  Ni  Ni35  1  0.16498331  0.83126489  0.83132430  1
  Ni  Ni36  1  0.50207196  0.16514881  0.49730979  1
  Cr  Cr37  1  0.33198071  0.99873059  0.66610638  1
  Ni  Ni38  1  0.49946504  0.16907244  0.83406988  1
  Cr  Cr39  1  0.49748235  0.49840041  0.49846024  1
  Cr  Cr40  1  0.33364918  0.33406277  0.66790942  1
  Ni  Ni41  1  0.49773703  0.49910874  0.83501772  1
  Cr  Cr42  1  0.50067382  0.83446604  0.49984643  1
  Ni  Ni43  1  0.32981240  0.66606829  0.66717930  1
  Cr  Cr44  1  0.49979480  0.83090249  0.83330330  1
  Ni  Ni45  1  0.83073772  0.16323235  0.49914537  1
  Fe  Fe46  1  0.66786225  -0.00044519  0.66428055  1
  Cr  Cr47  1  0.83237302  0.16428710  0.83339814  1
  Cr  Cr48  1  0.83495752  0.50036845  0.49781136  1
  Cr  Cr49  1  0.66524560  0.33177759  0.66662708  1
  Fe  Fe50  1  0.83154240  0.50067690  0.83342848  1
  Ni  Ni51  1  0.83408951  0.83426630  0.50045910  1
  Fe  Fe52  1  0.66713744  0.66682194  0.66665660  1
  Cr  Cr53  1  0.83371771  0.83358445  0.83224245  1
" 