3371,Ni56Fe36Cr6_2,-238.203687924735, 211.131424761173,Ni56Fe36Cr6,"# generated using pymatgen
 data_Cr5Fe19Ni30
_symmetry_space_group_name_H-M   'P 1'
_cell_length_a   7.42174091
_cell_length_b   7.42174091
_cell_length_c   10.49592665
_cell_angle_alpha   90.00000000
_cell_angle_beta   90.00000000
_cell_angle_gamma   90.00000000
_symmetry_Int_Tables_number   1
_chemical_formula_structural   Cr5Fe19Ni30
_chemical_formula_sum   'Cr5 Fe19 Ni30'
_cell_volume   578.13913118
_cell_formula_units_Z   1
loop_
 _symmetry_equiv_pos_site_id
 _symmetry_equiv_pos_as_xyz
  1  'x, y, z'
loop_
 _atom_site_type_symbol
 _atom_site_label
 _atom_site_symmetry_multiplicity
 _atom_site_fract_x
 _atom_site_fract_y
 _atom_site_fract_z
 _atom_site_occupancy
  Fe  Fe0  1  0.00484467  1.00285043  0.00329467  1
  Fe  Fe1  1  0.17093589  0.16851269  0.16865454  1
  Ni  Ni2  1  0.00326168  1.00080911  0.33464409  1
  Ni  Ni3  1  0.00450547  0.33752752  1.00248658  1
  Ni  Ni4  1  0.17140582  0.50457160  0.16848859  1
  Cr  Cr5  1  0.00495642  0.33782856  0.33596665  1
  Ni  Ni6  1  0.00454372  0.66798053  0.00385358  1
  Ni  Ni7  1  0.16941011  0.83515783  0.16926245  1
  Ni  Ni8  1  1.00199287  0.67078957  0.33593166  1
  Ni  Ni9  1  0.33597058  0.00396456  0.00336681  1
  Ni  Ni10  1  0.50395848  0.17084864  0.17031189  1
  Fe  Fe11  1  0.33672513  1.00188220  0.33606605  1
  Ni  Ni12  1  0.33419964  0.33524131  0.00462380  1
  Ni  Ni13  1  0.50084498  0.50202537  0.17115724  1
  Fe  Fe14  1  0.33769759  0.33685599  0.33609483  1
  Ni  Ni15  1  0.33384548  0.66994981  0.00393495  1
  Ni  Ni16  1  0.50141426  0.83628219  0.17063020  1
  Fe  Fe17  1  0.33622373  0.67041840  0.33549376  1
  Cr  Cr18  1  0.66827348  1.00296641  1.00267867  1
  Ni  Ni19  1  0.83578557  0.16885731  0.16949819  1
  Ni  Ni20  1  0.66850910  1.00114901  0.33577112  1
  Fe  Fe21  1  0.67004878  0.33558303  0.00381671  1
  Fe  Fe22  1  0.83622866  0.50389919  0.17025764  1
  Fe  Fe23  1  0.66866014  0.33695829  0.33565874  1
  Cr  Cr24  1  0.67087257  0.67045522  0.00418089  1
  Ni  Ni25  1  0.83832944  0.83827193  0.17248780  1
  Ni  Ni26  1  0.67011317  0.67078334  0.33630806  1
  Fe  Fe27  1  0.17194869  0.16902602  0.50423054  1
  Ni  Ni28  1  0.00373352  1.00185004  0.67061931  1
  Fe  Fe29  1  0.16993502  0.16937712  0.83626812  1
  Ni  Ni30  1  0.17041334  0.50386787  0.50440194  1
  Fe  Fe31  1  0.00331118  0.33703432  0.67063465  1
  Ni  Ni32  1  0.16904905  0.50296067  0.83626520  1
  Fe  Fe33  1  0.16880306  0.83602103  0.50275346  1
  Ni  Ni34  1  1.00172072  0.66923812  0.66937351  1
  Fe  Fe35  1  0.16934045  0.83631919  0.83686966  1
  Fe  Fe36  1  0.50166691  0.17015405  0.50332072  1
  Ni  Ni37  1  0.33709947  0.00467403  0.66972976  1
  Fe  Fe38  1  0.50234777  0.16866178  0.83558417  1
  Fe  Fe39  1  0.50372259  0.50312362  0.50320117  1
  Ni  Ni40  1  0.33569585  0.33467391  0.66841014  1
  Cr  Cr41  1  0.50039617  0.50352331  0.83546997  1
  Ni  Ni42  1  0.50283131  0.83645508  0.50340029  1
  Fe  Fe43  1  0.33620714  0.67085529  0.66942773  1
  Ni  Ni44  1  0.50187864  0.83778091  0.83512418  1
  Cr  Cr45  1  0.83562425  0.16842845  0.50417426  1
  Ni  Ni46  1  0.66832697  1.00183354  0.67052083  1
  Ni  Ni47  1  0.83732621  0.16931524  0.83547218  1
  Ni  Ni48  1  0.83678671  0.50420142  0.50461443  1
  Ni  Ni49  1  0.66889558  0.33668320  0.66987039  1
  Fe  Fe50  1  0.83858621  0.50305892  0.83492049  1
  Fe  Fe51  1  0.83652204  0.83396990  0.50297148  1
  Ni  Ni52  1  0.67171922  0.67064164  0.66866371  1
  Ni  Ni53  1  0.83737849  0.83867530  0.83361156  1
" 