6738,Ni56Fe36Cr6_5,-238.633006565895, 214.879216847213,Ni56Fe36Cr6,"# generated using pymatgen
 data_Cr5Fe19Ni30
_symmetry_space_group_name_H-M   'P 1'
_cell_length_a   7.42135826
_cell_length_b   7.42135826
_cell_length_c   10.49538550
_cell_angle_alpha   90.00000000
_cell_angle_beta   90.00000000
_cell_angle_gamma   90.00000000
_symmetry_Int_Tables_number   1
_chemical_formula_structural   Cr5Fe19Ni30
_chemical_formula_sum   'Cr5 Fe19 Ni30'
_cell_volume   578.04971315
_cell_formula_units_Z   1
loop_
 _symmetry_equiv_pos_site_id
 _symmetry_equiv_pos_as_xyz
  1  'x, y, z'
loop_
 _atom_site_type_symbol
 _atom_site_label
 _atom_site_symmetry_multiplicity
 _atom_site_fract_x
 _atom_site_fract_y
 _atom_site_fract_z
 _atom_site_occupancy
  Ni  Ni0  1  1.00098021  1.00109801  1.00270014  1
  Cr  Cr1  1  0.16997931  0.17013043  0.17110075  1
  Fe  Fe2  1  1.00226606  1.00098011  0.33778134  1
  Fe  Fe3  1  0.00407712  0.33632891  1.00156428  1
  Fe  Fe4  1  0.16885493  0.50532075  0.16876301  1
  Fe  Fe5  1  1.00184049  0.33682717  0.33868320  1
  Ni  Ni6  1  0.00493200  0.66980690  1.00291591  1
  Ni  Ni7  1  0.16742947  0.83561441  0.16962951  1
  Ni  Ni8  1  0.00334810  0.66903381  0.33704870  1
  Cr  Cr9  1  0.33672550  0.99903237  1.00164914  1
  Ni  Ni10  1  0.50358906  0.17033941  0.17158100  1
  Ni  Ni11  1  0.33750645  1.00268564  0.33762998  1
  Fe  Fe12  1  0.33442341  0.33798222  1.00243480  1
  Fe  Fe13  1  0.50289480  0.50441928  0.16898964  1
  Fe  Fe14  1  0.33795141  0.33565304  0.33841008  1
  Ni  Ni15  1  0.33457779  0.66844264  1.00250186  1
  Ni  Ni16  1  0.50573286  0.83675767  0.16930798  1
  Cr  Cr17  1  0.33365394  0.67161449  0.33712489  1
  Ni  Ni18  1  0.67241346  0.00375497  0.00372238  1
  Fe  Fe19  1  0.83549235  0.16594692  0.17062317  1
  Ni  Ni20  1  0.66868331  0.00615480  0.33606215  1
  Cr  Cr21  1  0.67090812  0.33574080  1.00235277  1
  Fe  Fe22  1  0.83714244  0.50473478  0.17204166  1
  Ni  Ni23  1  0.66995646  0.33576730  0.33692239  1
  Fe  Fe24  1  0.67020825  0.67308922  1.00200825  1
  Ni  Ni25  1  0.83614765  0.83458855  0.17067780  1
  Fe  Fe26  1  0.67099527  0.67104942  0.33744526  1
  Ni  Ni27  1  0.17024652  0.16963947  0.50317749  1
  Ni  Ni28  1  0.00382862  1.00265549  0.66957431  1
  Ni  Ni29  1  0.16641659  0.17103985  0.83461754  1
  Ni  Ni30  1  0.16772920  0.50287318  0.50328794  1
  Fe  Fe31  1  1.00073469  0.33611801  0.66885401  1
  Ni  Ni32  1  0.16978308  0.50327174  0.83676332  1
  Ni  Ni33  1  0.16857111  0.83638937  0.50343079  1
  Ni  Ni34  1  0.00523284  0.66989692  0.66971505  1
  Ni  Ni35  1  0.16778083  0.83511165  0.83599896  1
  Ni  Ni36  1  0.50340896  0.16960476  0.50270989  1
  Fe  Fe37  1  0.33577258  1.00094535  0.66847084  1
  Cr  Cr38  1  0.50319389  0.16885636  0.83445769  1
  Fe  Fe39  1  0.50329346  0.50092532  0.50481231  1
  Fe  Fe40  1  0.33493915  0.33761046  0.66881060  1
  Ni  Ni41  1  0.50211131  0.50571414  0.83582126  1
  Fe  Fe42  1  0.50453046  0.83843124  0.50405698  1
  Fe  Fe43  1  0.33619654  0.67058850  0.67054140  1
  Ni  Ni44  1  0.50569332  0.83327895  0.83590075  1
  Ni  Ni45  1  0.83541345  0.17058901  0.50221308  1
  Ni  Ni46  1  0.67147393  0.00441998  0.66955789  1
  Ni  Ni47  1  0.83885934  0.16803890  0.83621570  1
  Ni  Ni48  1  0.83631835  0.50426391  0.50316166  1
  Ni  Ni49  1  0.67002589  0.33634438  0.66886845  1
  Fe  Fe50  1  0.83756387  0.50470776  0.83401775  1
  Fe  Fe51  1  0.83759101  0.83730362  0.50387626  1
  Ni  Ni52  1  0.67062589  0.66833186  0.66943440  1
  Ni  Ni53  1  0.83617947  0.83638040  0.83620629  1
" 