6146,Ni56Fe11Cr32_5,-227.178868248503, 163.544154829958,Ni56Fe11Cr32,"# generated using pymatgen
 data_Cr3FeNi5
_symmetry_space_group_name_H-M   'P 1'
_cell_length_a   7.47651076
_cell_length_b   7.47651076
_cell_length_c   10.57338292
_cell_angle_alpha   90.00000000
_cell_angle_beta   90.00000000
_cell_angle_gamma   90.00000000
_symmetry_Int_Tables_number   1
_chemical_formula_structural   Cr3FeNi5
_chemical_formula_sum   'Cr18 Fe6 Ni30'
_cell_volume   591.03321202
_cell_formula_units_Z   6
loop_
 _symmetry_equiv_pos_site_id
 _symmetry_equiv_pos_as_xyz
  1  'x, y, z'
loop_
 _atom_site_type_symbol
 _atom_site_label
 _atom_site_symmetry_multiplicity
 _atom_site_fract_x
 _atom_site_fract_y
 _atom_site_fract_z
 _atom_site_occupancy
  Ni  Ni0  1  0.00133396  0.99936283  0.99711344  1
  Fe  Fe1  1  0.16638277  0.16955385  0.16500976  1
  Cr  Cr2  1  0.00148468  0.00106795  0.33262718  1
  Cr  Cr3  1  0.00188159  0.33352054  0.99668518  1
  Ni  Ni4  1  0.16735812  0.49877834  0.16642497  1
  Ni  Ni5  1  0.99934853  0.33424233  0.33391614  1
  Cr  Cr6  1  -0.00038166  0.66619162  0.99813011  1
  Fe  Fe7  1  0.16638908  0.83111446  0.16418599  1
  Fe  Fe8  1  0.99863641  0.66284264  0.33535595  1
  Cr  Cr9  1  0.33127673  0.99931003  -0.00041618  1
  Cr  Cr10  1  0.50230199  0.16833298  0.16681436  1
  Cr  Cr11  1  0.33316573  0.00056574  0.33304536  1
  Ni  Ni12  1  0.33236119  0.33491801  0.99851957  1
  Ni  Ni13  1  0.49682944  0.50011312  0.16419962  1
  Cr  Cr14  1  0.33005536  0.33371976  0.33600799  1
  Fe  Fe15  1  0.33112680  0.66457502  0.99824790  1
  Ni  Ni16  1  0.49873955  0.83082498  0.16659468  1
  Cr  Cr17  1  0.33234979  0.66421808  0.32991757  1
  Cr  Cr18  1  0.66728309  0.99687812  0.99435637  1
  Cr  Cr19  1  0.83310786  0.16687636  0.16446666  1
  Ni  Ni20  1  0.66686598  0.99892746  0.33499399  1
  Fe  Fe21  1  0.66469798  0.33301421  0.99625211  1
  Cr  Cr22  1  0.83140159  0.49723021  0.16892024  1
  Ni  Ni23  1  0.66654142  0.33504935  0.33396844  1
  Cr  Cr24  1  0.66442191  0.66412916  0.99613314  1
  Cr  Cr25  1  0.83185081  0.83325031  0.16901304  1
  Ni  Ni26  1  0.66568467  0.66457495  0.33374301  1
  Ni  Ni27  1  0.16207724  0.16908308  0.50121543  1
  Ni  Ni28  1  0.99867470  0.00076732  0.66846601  1
  Ni  Ni29  1  0.16542936  0.16715580  0.83224000  1
  Ni  Ni30  1  0.16481759  0.49702296  0.50193155  1
  Ni  Ni31  1  0.00077544  0.33310309  0.66586161  1
  Ni  Ni32  1  0.16760731  0.49899493  0.82990880  1
  Cr  Cr33  1  0.16400028  0.82944074  0.50338818  1
  Ni  Ni34  1  0.99737574  0.66385692  0.66614784  1
  Ni  Ni35  1  0.16509693  0.83193372  0.83213455  1
  Fe  Fe36  1  0.50169609  0.16942502  0.49980511  1
  Cr  Cr37  1  0.33150063  0.00327817  0.66645233  1
  Ni  Ni38  1  0.49736719  0.16894964  0.83291013  1
  Ni  Ni39  1  0.49963870  0.49951136  0.50013137  1
  Ni  Ni40  1  0.33049916  0.33529994  0.66548745  1
  Ni  Ni41  1  0.49641199  0.49867846  0.83373622  1
  Cr  Cr42  1  0.50102659  0.82964651  0.50034854  1
  Ni  Ni43  1  0.33300407  0.66207158  0.66984178  1
  Ni  Ni44  1  0.49729593  0.83022759  0.83125377  1
  Ni  Ni45  1  0.83490107  0.16701634  0.49778058  1
  Cr  Cr46  1  0.66895520  0.99865595  0.66715218  1
  Ni  Ni47  1  0.83534997  0.16620130  0.83345255  1
  Ni  Ni48  1  0.83335422  0.49897751  0.49780149  1
  Cr  Cr49  1  0.66719900  0.33522820  0.66765050  1
  Ni  Ni50  1  0.83348337  0.49896266  0.83067924  1
  Ni  Ni51  1  0.83276445  0.83184645  0.49926997  1
  Ni  Ni52  1  0.66745458  0.66469833  0.66702265  1
  Ni  Ni53  1  0.83557350  0.83260966  0.82952926  1
" 