294,Ni56Cr44_1,-216.893334425054, 134.085450411423,Ni56Cr44,"# generated using pymatgen
 data_Cr5Ni4
_symmetry_space_group_name_H-M   'P 1'
_cell_length_a   7.53244688
_cell_length_b   7.53244688
_cell_length_c   10.65248854
_cell_angle_alpha   90.00000000
_cell_angle_beta   90.00000000
_cell_angle_gamma   90.00000000
_symmetry_Int_Tables_number   1
_chemical_formula_structural   Cr5Ni4
_chemical_formula_sum   'Cr30 Ni24'
_cell_volume   604.39829570
_cell_formula_units_Z   6
loop_
 _symmetry_equiv_pos_site_id
 _symmetry_equiv_pos_as_xyz
  1  'x, y, z'
loop_
 _atom_site_type_symbol
 _atom_site_label
 _atom_site_symmetry_multiplicity
 _atom_site_fract_x
 _atom_site_fract_y
 _atom_site_fract_z
 _atom_site_occupancy
  Cr  Cr0  1  0.99175984  -0.00291314  0.99388195  1
  Cr  Cr1  1  0.16371552  0.16040921  0.15812699  1
  Cr  Cr2  1  0.99422905  -0.00396494  0.33055008  1
  Cr  Cr3  1  0.99251855  0.32762541  0.99453021  1
  Cr  Cr4  1  0.15797364  0.49693171  0.16123141  1
  Cr  Cr5  1  0.99381743  0.32719342  0.32847206  1
  Ni  Ni6  1  0.99040971  0.66281620  -0.00349079  1
  Cr  Cr7  1  0.16158357  0.82946458  0.16084572  1
  Ni  Ni8  1  0.99531327  0.66082857  0.32972101  1
  Ni  Ni9  1  0.33226059  -0.00341752  0.99072374  1
  Cr  Cr10  1  0.49726475  0.16212600  0.16130843  1
  Cr  Cr11  1  0.32856263  -0.00412870  0.33162641  1
  Cr  Cr12  1  0.33071174  0.32793218  0.99115532  1
  Cr  Cr13  1  0.49974954  0.49354744  0.16180533  1
  Cr  Cr14  1  0.32947534  0.32890136  0.33187996  1
  Cr  Cr15  1  0.33072347  0.66267158  0.99308213  1
  Cr  Cr16  1  0.49604151  0.83190084  0.15946426  1
  Cr  Cr17  1  0.32614742  0.66187060  0.33148458  1
  Ni  Ni18  1  0.66170013  -0.00275286  0.99286454  1
  Ni  Ni19  1  0.82533845  0.16558107  0.16082833  1
  Cr  Cr20  1  0.66506914  0.00044049  0.33004306  1
  Ni  Ni21  1  0.66368914  0.32750385  0.99476925  1
  Ni  Ni22  1  0.82715720  0.49443637  0.16139222  1
  Ni  Ni23  1  0.66537454  0.32688378  0.32885107  1
  Ni  Ni24  1  0.66444075  0.66263900  0.99247410  1
  Cr  Cr25  1  0.82858093  0.82804182  0.16063470  1
  Cr  Cr26  1  0.66417597  0.66200348  0.32910969  1
  Ni  Ni27  1  0.16167644  0.16100273  0.49985004  1
  Ni  Ni28  1  -0.00328015  -0.00049037  0.66255652  1
  Ni  Ni29  1  0.16243039  0.15935609  0.82638772  1
  Ni  Ni30  1  0.15933114  0.49465334  0.49619563  1
  Ni  Ni31  1  -0.00370982  0.32303936  0.66136336  1
  Cr  Cr32  1  0.15985163  0.49272360  0.82831810  1
  Ni  Ni33  1  0.16076367  0.83088053  0.49684496  1
  Cr  Cr34  1  0.99520384  0.66399408  0.66211530  1
  Cr  Cr35  1  0.16072212  0.83239064  0.82962204  1
  Ni  Ni36  1  0.49557450  0.16260350  0.49545477  1
  Ni  Ni37  1  0.32804500  -0.00217082  0.66267258  1
  Ni  Ni38  1  0.49652774  0.16034248  0.83089029  1
  Cr  Cr39  1  0.49836212  0.49372280  0.49659571  1
  Cr  Cr40  1  0.32814227  0.32786691  0.66384394  1
  Ni  Ni41  1  0.50022471  0.49593097  0.83017063  1
  Cr  Cr42  1  0.49571579  0.83155397  0.49762895  1
  Cr  Cr43  1  0.33185123  0.66326514  0.66261258  1
  Ni  Ni44  1  0.49867381  0.83105761  0.82997819  1
  Ni  Ni45  1  0.83023205  0.16356892  0.49689452  1
  Cr  Cr46  1  0.66396399  -0.00427893  0.66437606  1
  Ni  Ni47  1  0.82878228  0.16057898  0.82845985  1
  Cr  Cr48  1  0.82974425  0.49404238  0.49727067  1
  Cr  Cr49  1  0.66305993  0.32630491  0.66382357  1
  Cr  Cr50  1  0.82787853  0.49554402  0.82816357  1
  Cr  Cr51  1  0.83052855  0.82938787  0.49905724  1
  Ni  Ni52  1  0.66178995  0.66346651  0.66717092  1
  Ni  Ni53  1  0.82570702  0.83066776  0.82989330  1
" 