5292,Ni56Fe22Cr21_4,-231.589152458581, 188.578342620634,Ni56Fe22Cr21,"# generated using pymatgen
 data_Cr13Fe11Ni30
_symmetry_space_group_name_H-M   'P 1'
_cell_length_a   7.44986684
_cell_length_b   7.44986684
_cell_length_c   10.53570273
_cell_angle_alpha   90.00000000
_cell_angle_beta   90.00000000
_cell_angle_gamma   90.00000000
_symmetry_Int_Tables_number   1
_chemical_formula_structural   Cr13Fe11Ni30
_chemical_formula_sum   'Cr13 Fe11 Ni30'
_cell_volume   584.73693770
_cell_formula_units_Z   1
loop_
 _symmetry_equiv_pos_site_id
 _symmetry_equiv_pos_as_xyz
  1  'x, y, z'
loop_
 _atom_site_type_symbol
 _atom_site_label
 _atom_site_symmetry_multiplicity
 _atom_site_fract_x
 _atom_site_fract_y
 _atom_site_fract_z
 _atom_site_occupancy
  Ni  Ni0  1  0.99979371  0.00255704  1.00004572  1
  Ni  Ni1  1  0.16685385  0.16702787  0.16848312  1
  Ni  Ni2  1  0.00186911  0.00183255  0.33418626  1
  Ni  Ni3  1  0.00161584  0.33283900  0.00122251  1
  Cr  Cr4  1  0.16493596  0.49966383  0.16858444  1
  Ni  Ni5  1  1.00098536  0.33482251  0.33345451  1
  Fe  Fe6  1  1.00095471  0.66751918  0.99909657  1
  Cr  Cr7  1  0.16791379  0.83620552  0.16833867  1
  Ni  Ni8  1  1.00049087  0.66680477  0.33527825  1
  Fe  Fe9  1  0.33538782  1.00063880  0.99999870  1
  Ni  Ni10  1  0.50087473  0.16522674  0.16927601  1
  Fe  Fe11  1  0.33428991  0.00139977  0.33463944  1
  Cr  Cr12  1  0.33172890  0.33421053  0.99924249  1
  Cr  Cr13  1  0.50284681  0.50167641  0.16966343  1
  Ni  Ni14  1  0.33473302  0.33446768  0.33512392  1
  Ni  Ni15  1  0.33448051  0.66969469  0.99886009  1
  Ni  Ni16  1  0.50208324  0.83671581  0.16800200  1
  Fe  Fe17  1  0.33511412  0.66793099  0.33679543  1
  Ni  Ni18  1  0.66840506  0.99988323  0.00134955  1
  Fe  Fe19  1  0.83592476  0.16798631  0.16742096  1
  Cr  Cr20  1  0.66719189  1.00065657  0.33281174  1
  Cr  Cr21  1  0.66976507  0.33221986  1.00014135  1
  Ni  Ni22  1  0.83548203  0.50067823  0.17039360  1
  Ni  Ni23  1  0.66774124  0.33584255  0.33578847  1
  Cr  Cr24  1  0.66717527  0.67106322  1.00060937  1
  Fe  Fe25  1  0.83417907  0.83485815  0.16786515  1
  Ni  Ni26  1  0.66731175  0.66670592  0.33400860  1
  Cr  Cr27  1  0.16819718  0.16663825  0.50067289  1
  Ni  Ni28  1  0.00239364  0.99990435  0.66922859  1
  Ni  Ni29  1  0.16801976  0.16672543  0.83478220  1
  Ni  Ni30  1  0.16821644  0.50227072  0.49909696  1
  Cr  Cr31  1  0.00186832  0.33496025  0.66878336  1
  Ni  Ni32  1  0.16627653  0.50175021  0.83550793  1
  Ni  Ni33  1  0.16795697  0.83396565  0.50088927  1
  Ni  Ni34  1  0.00211495  0.66865275  0.66920423  1
  Ni  Ni35  1  0.16687670  0.83498452  0.83408565  1
  Fe  Fe36  1  0.49989469  0.16955245  0.50123323  1
  Ni  Ni37  1  0.33402463  0.00216464  0.66880090  1
  Ni  Ni38  1  0.50067911  0.16684643  0.83284196  1
  Ni  Ni39  1  0.50161144  0.49956542  0.49967810  1
  Ni  Ni40  1  0.33604826  0.33384337  0.66902145  1
  Fe  Fe41  1  0.50003073  0.50048682  0.83351842  1
  Ni  Ni42  1  0.49890380  0.83370780  0.49897924  1
  Cr  Cr43  1  0.33296713  0.66751889  0.66760615  1
  Ni  Ni44  1  0.50013178  0.83655515  0.83647462  1
  Fe  Fe45  1  0.83433615  0.16954321  0.50045956  1
  Cr  Cr46  1  0.66758807  0.00202014  0.66895946  1
  Ni  Ni47  1  0.83476098  0.16744264  0.83524548  1
  Fe  Fe48  1  0.83474005  0.50104348  0.49901579  1
  Fe  Fe49  1  0.66639628  0.33412971  0.66797553  1
  Ni  Ni50  1  0.83632823  0.50120520  0.83381961  1
  Cr  Cr51  1  0.83713776  0.83373497  0.50116618  1
  Cr  Cr52  1  0.66818978  0.66711660  0.66893147  1
  Ni  Ni53  1  0.83644926  0.83481018  0.83560841  1
" 