7226,Ni56Fe40Cr3_13,-239.770805715998, 218.396240150272,Ni56Fe40Cr3,"# generated using pymatgen
 data_CrFe7Ni10
_symmetry_space_group_name_H-M   'P 1'
_cell_length_a   7.40996233
_cell_length_b   7.40996233
_cell_length_c   10.47926923
_cell_angle_alpha   90.00000000
_cell_angle_beta   90.00000000
_cell_angle_gamma   90.00000000
_symmetry_Int_Tables_number   1
_chemical_formula_structural   CrFe7Ni10
_chemical_formula_sum   'Cr3 Fe21 Ni30'
_cell_volume   575.39091277
_cell_formula_units_Z   3
loop_
 _symmetry_equiv_pos_site_id
 _symmetry_equiv_pos_as_xyz
  1  'x, y, z'
loop_
 _atom_site_type_symbol
 _atom_site_label
 _atom_site_symmetry_multiplicity
 _atom_site_fract_x
 _atom_site_fract_y
 _atom_site_fract_z
 _atom_site_occupancy
  Fe  Fe0  1  0.00584898  0.00412079  1.00357930  1
  Ni  Ni1  1  0.16919980  0.16971251  0.16956190  1
  Ni  Ni2  1  1.00378807  0.00408517  0.33633244  1
  Ni  Ni3  1  1.00367249  0.33791868  0.00399664  1
  Ni  Ni4  1  0.17011293  0.50575555  0.16944768  1
  Ni  Ni5  1  1.00315051  0.33668545  0.33795155  1
  Ni  Ni6  1  0.00410969  0.66978112  0.00432675  1
  Ni  Ni7  1  0.17033632  0.83608620  0.17098150  1
  Ni  Ni8  1  0.00434539  0.67078572  0.33745580  1
  Ni  Ni9  1  0.33642586  0.00393541  0.00428661  1
  Ni  Ni10  1  0.50498493  0.17112969  0.17020471  1
  Fe  Fe11  1  0.33601641  1.00271657  0.33676052  1
  Fe  Fe12  1  0.33684280  0.33742994  0.00386049  1
  Fe  Fe13  1  0.50314403  0.50299542  0.16856251  1
  Cr  Cr14  1  0.33638148  0.33595251  0.33600217  1
  Ni  Ni15  1  0.33683428  0.67104477  0.00401748  1
  Fe  Fe16  1  0.50090872  0.83817402  0.16968511  1
  Fe  Fe17  1  0.33402052  0.67147718  0.33654981  1
  Cr  Cr18  1  0.66960113  0.00407605  1.00299164  1
  Ni  Ni19  1  0.83737366  0.17135470  0.17222309  1
  Fe  Fe20  1  0.67196993  0.00610133  0.33714420  1
  Ni  Ni21  1  0.67053322  0.33832637  0.00463884  1
  Fe  Fe22  1  0.83940142  0.50193766  0.16948939  1
  Fe  Fe23  1  0.67305100  0.33496730  0.33679616  1
  Fe  Fe24  1  0.67012213  0.66874347  1.00284577  1
  Fe  Fe25  1  0.84011636  0.83771468  0.17103810  1
  Cr  Cr26  1  0.67137691  0.67045178  0.33588075  1
  Ni  Ni27  1  0.16922284  0.17046986  0.50384993  1
  Ni  Ni28  1  0.00419892  1.00329308  0.67129939  1
  Ni  Ni29  1  0.16947879  0.17001231  0.83814325  1
  Ni  Ni30  1  0.17089087  0.50505473  0.50467816  1
  Fe  Fe31  1  0.00464005  0.33643097  0.67028211  1
  Fe  Fe32  1  0.17015299  0.50457040  0.83745491  1
  Fe  Fe33  1  0.16994980  0.83782073  0.50387730  1
  Ni  Ni34  1  1.00207718  0.67118686  0.66977611  1
  Ni  Ni35  1  0.17021924  0.83739661  0.83719295  1
  Ni  Ni36  1  0.50533894  0.17079373  0.50500137  1
  Ni  Ni37  1  0.33731821  0.00566014  0.67006658  1
  Fe  Fe38  1  0.50268026  0.17031967  0.83649607  1
  Ni  Ni39  1  0.50288442  0.50394564  0.50481960  1
  Ni  Ni40  1  0.33785361  0.33575389  0.67148742  1
  Ni  Ni41  1  0.50391552  0.50487940  0.83804145  1
  Fe  Fe42  1  0.50317164  0.83838541  0.50531223  1
  Fe  Fe43  1  0.33716226  0.67053242  0.67111854  1
  Ni  Ni44  1  0.50338106  0.83446145  0.83626684  1
  Ni  Ni45  1  0.83699985  0.16944686  0.50305152  1
  Fe  Fe46  1  0.67106986  1.00327445  0.67055406  1
  Ni  Ni47  1  0.83869170  0.17054658  0.83628122  1
  Fe  Fe48  1  0.83822300  0.50272375  0.50445547  1
  Fe  Fe49  1  0.67012195  0.33701609  0.67073327  1
  Fe  Fe50  1  0.83726837  0.50456719  0.83761510  1
  Ni  Ni51  1  0.83810350  0.83848905  0.50457507  1
  Ni  Ni52  1  0.67136421  0.67064883  0.67175648  1
  Ni  Ni53  1  0.83795607  0.83686394  0.83720679  1
" 