8013,Ni56Fe40Cr3_5,-239.927241106588, 217.989926135661,Ni56Fe40Cr3,"# generated using pymatgen
 data_CrFe7Ni10
_symmetry_space_group_name_H-M   'P 1'
_cell_length_a   7.41324348
_cell_length_b   7.41324348
_cell_length_c   10.48390947
_cell_angle_alpha   90.00000000
_cell_angle_beta   90.00000000
_cell_angle_gamma   90.00000000
_symmetry_Int_Tables_number   1
_chemical_formula_structural   CrFe7Ni10
_chemical_formula_sum   'Cr3 Fe21 Ni30'
_cell_volume   576.15560503
_cell_formula_units_Z   3
loop_
 _symmetry_equiv_pos_site_id
 _symmetry_equiv_pos_as_xyz
  1  'x, y, z'
loop_
 _atom_site_type_symbol
 _atom_site_label
 _atom_site_symmetry_multiplicity
 _atom_site_fract_x
 _atom_site_fract_y
 _atom_site_fract_z
 _atom_site_occupancy
  Fe  Fe0  1  1.00253336  0.00476674  0.00393311  1
  Ni  Ni1  1  0.16979087  0.16969581  0.16930691  1
  Fe  Fe2  1  1.00307197  1.00333980  0.33704555  1
  Ni  Ni3  1  0.00366043  0.33575016  1.00348720  1
  Cr  Cr4  1  0.16930681  0.50240712  0.17129137  1
  Ni  Ni5  1  1.00267700  0.33625151  0.33700788  1
  Fe  Fe6  1  1.00205876  0.67013923  1.00293504  1
  Fe  Fe7  1  0.17053545  0.83921181  0.17076827  1
  Ni  Ni8  1  1.00335240  0.67021472  0.33741687  1
  Fe  Fe9  1  0.33750550  0.00386859  0.00449953  1
  Ni  Ni10  1  0.50390624  0.16836028  0.17026806  1
  Fe  Fe11  1  0.33689817  0.00370080  0.33681222  1
  Ni  Ni12  1  0.33545701  0.33576235  1.00339494  1
  Cr  Cr13  1  0.50444956  0.50348340  0.16950131  1
  Fe  Fe14  1  0.33675468  0.33659474  0.33817993  1
  Fe  Fe15  1  0.33824239  0.67077171  1.00162704  1
  Ni  Ni16  1  0.50551874  0.83881832  0.16998906  1
  Ni  Ni17  1  0.33704427  0.67259592  0.33818321  1
  Ni  Ni18  1  0.67010386  1.00243523  0.00530386  1
  Ni  Ni19  1  0.83718908  0.16866133  0.17029522  1
  Fe  Fe20  1  0.67091838  1.00291942  0.33613620  1
  Ni  Ni21  1  0.67176854  0.33681107  0.00408231  1
  Fe  Fe22  1  0.83638590  0.50292951  0.17093906  1
  Ni  Ni23  1  0.67178868  0.33627405  0.33681626  1
  Ni  Ni24  1  0.67008948  0.67164079  1.00340046  1
  Ni  Ni25  1  0.83608427  0.83800452  0.16990943  1
  Ni  Ni26  1  0.67048880  0.67081377  0.33722702  1
  Ni  Ni27  1  0.17023736  0.17115635  0.50433423  1
  Ni  Ni28  1  0.00408255  0.00478521  0.67046571  1
  Fe  Fe29  1  0.16951677  0.17093826  0.83677320  1
  Ni  Ni30  1  0.17052434  0.50272448  0.50396597  1
  Ni  Ni31  1  0.00411494  0.33654428  0.67039285  1
  Ni  Ni32  1  0.17044432  0.50336717  0.83622122  1
  Fe  Fe33  1  0.16993139  0.83571248  0.50402761  1
  Ni  Ni34  1  0.00408352  0.66955948  0.67002741  1
  Fe  Fe35  1  0.17144641  0.83620687  0.83609356  1
  Fe  Fe36  1  0.50385700  0.17096248  0.50355918  1
  Ni  Ni37  1  0.33647005  1.00238919  0.66978637  1
  Cr  Cr38  1  0.50404018  0.17018162  0.83709859  1
  Ni  Ni39  1  0.50308396  0.50383891  0.50446805  1
  Fe  Fe40  1  0.33555685  0.33818331  0.66986477  1
  Ni  Ni41  1  0.50259231  0.50559600  0.83690879  1
  Fe  Fe42  1  0.50349093  0.83576024  0.50411017  1
  Ni  Ni43  1  0.33755677  0.67086564  0.67070420  1
  Ni  Ni44  1  0.50475218  0.83529325  0.83675134  1
  Fe  Fe45  1  0.83756361  0.17149355  0.50355755  1
  Ni  Ni46  1  0.67033589  1.00235816  0.66923367  1
  Fe  Fe47  1  0.83796643  0.17078286  0.83745073  1
  Ni  Ni48  1  0.83727824  0.50506907  0.50327841  1
  Fe  Fe49  1  0.67116780  0.33818671  0.66930535  1
  Fe  Fe50  1  0.83640969  0.50382327  0.83669185  1
  Ni  Ni51  1  0.83667722  0.83678381  0.50433895  1
  Ni  Ni52  1  0.66924539  0.67089791  0.67025729  1
  Fe  Fe53  1  0.83595494  0.83627835  0.83653734  1
" 