7469,Ni56Fe27Cr16_2,-234.181740027854, 198.702563632622,Ni56Fe27Cr16,"# generated using pymatgen
 data_Cr5Fe7Ni15
_symmetry_space_group_name_H-M   'P 1'
_cell_length_a   7.43530716
_cell_length_b   7.43530716
_cell_length_c   10.51511222
_cell_angle_alpha   90.00000000
_cell_angle_beta   90.00000000
_cell_angle_gamma   90.00000000
_symmetry_Int_Tables_number   1
_chemical_formula_structural   Cr5Fe7Ni15
_chemical_formula_sum   'Cr10 Fe14 Ni30'
_cell_volume   581.31528263
_cell_formula_units_Z   2
loop_
 _symmetry_equiv_pos_site_id
 _symmetry_equiv_pos_as_xyz
  1  'x, y, z'
loop_
 _atom_site_type_symbol
 _atom_site_label
 _atom_site_symmetry_multiplicity
 _atom_site_fract_x
 _atom_site_fract_y
 _atom_site_fract_z
 _atom_site_occupancy
  Cr  Cr0  1  0.00235780  1.00011099  0.00216468  1
  Ni  Ni1  1  0.16815296  0.16844428  0.16957336  1
  Fe  Fe2  1  1.00026822  0.00316384  0.33540978  1
  Cr  Cr3  1  1.00056938  0.33812925  0.00227818  1
  Fe  Fe4  1  0.16825544  0.50413681  0.16924103  1
  Ni  Ni5  1  0.00298545  0.33654294  0.33620347  1
  Ni  Ni6  1  0.00337769  0.66796413  0.00286500  1
  Fe  Fe7  1  0.16922444  0.83505832  0.16854168  1
  Ni  Ni8  1  0.00296780  0.66900511  0.33521917  1
  Ni  Ni9  1  0.33780006  1.00076888  0.00357539  1
  Fe  Fe10  1  0.50333599  0.16640901  0.16744418  1
  Fe  Fe11  1  0.33499817  1.00060674  0.33473973  1
  Fe  Fe12  1  0.33719710  0.33573730  0.00426893  1
  Ni  Ni13  1  0.50196132  0.50509730  0.16757234  1
  Cr  Cr14  1  0.33485649  0.33353438  0.33488776  1
  Ni  Ni15  1  0.33427465  0.67048237  0.00215276  1
  Ni  Ni16  1  0.50354322  0.83370260  0.16741889  1
  Fe  Fe17  1  0.33527914  0.66923317  0.33352360  1
  Ni  Ni18  1  0.66528116  0.00299989  0.00215970  1
  Ni  Ni19  1  0.83705991  0.16656757  0.16842618  1
  Ni  Ni20  1  0.66774587  1.00136323  0.33492946  1
  Ni  Ni21  1  0.66786610  0.33471955  0.00366102  1
  Fe  Fe22  1  0.83493100  0.50382243  0.16923374  1
  Cr  Cr23  1  0.67069543  0.33371400  0.33500767  1
  Ni  Ni24  1  0.66851444  0.66860747  0.00378984  1
  Ni  Ni25  1  0.83391542  0.83532011  0.16979304  1
  Ni  Ni26  1  0.67079344  0.67068684  0.33428313  1
  Ni  Ni27  1  0.16689266  0.16832443  0.50247797  1
  Ni  Ni28  1  0.00322481  0.00296323  0.66681271  1
  Cr  Cr29  1  0.16995851  0.16865954  0.83387384  1
  Ni  Ni30  1  0.16734996  0.50125513  0.50220850  1
  Ni  Ni31  1  1.00124861  0.33648961  0.66762193  1
  Ni  Ni32  1  0.16934124  0.50288735  0.83611915  1
  Fe  Fe33  1  0.16800971  0.83647173  0.50205852  1
  Cr  Cr34  1  0.00268546  0.66735587  0.66945474  1
  Ni  Ni35  1  0.17047795  0.83530812  0.83598670  1
  Ni  Ni36  1  0.50163516  0.16652699  0.50248488  1
  Ni  Ni37  1  0.33596577  1.00203831  0.66850627  1
  Ni  Ni38  1  0.50237900  0.16810133  0.83645532  1
  Cr  Cr39  1  0.50291785  0.50299291  0.50418111  1
  Fe  Fe40  1  0.33510249  0.33333055  0.66729917  1
  Cr  Cr41  1  0.50296529  0.50167490  0.83411365  1
  Cr  Cr42  1  0.50377321  0.83520344  0.50295523  1
  Fe  Fe43  1  0.33426042  0.67030959  0.67039344  1
  Fe  Fe44  1  0.50026503  0.83628484  0.83599180  1
  Ni  Ni45  1  0.83731180  0.16754304  0.50366573  1
  Ni  Ni46  1  0.66667914  0.00447742  0.66948908  1
  Fe  Fe47  1  0.83336717  0.17101925  0.83397336  1
  Ni  Ni48  1  0.83691209  0.50244078  0.50109719  1
  Ni  Ni49  1  0.67060102  0.33377504  0.66786455  1
  Ni  Ni50  1  0.83439368  0.50236087  0.83642030  1
  Fe  Fe51  1  0.83635736  0.83642055  0.50119663  1
  Ni  Ni52  1  0.66971576  0.66875590  0.66842481  1
  Cr  Cr53  1  0.83326057  0.83636058  0.83576955  1
" 