8734,Ni56Fe11Cr32_0,-226.993714492023, 162.358878311512,Ni56Fe11Cr32,"# generated using pymatgen
 data_Cr3FeNi5
_symmetry_space_group_name_H-M   'P 1'
_cell_length_a   7.47711175
_cell_length_b   7.47711175
_cell_length_c   10.57423285
_cell_angle_alpha   90.00000000
_cell_angle_beta   90.00000000
_cell_angle_gamma   90.00000000
_symmetry_Int_Tables_number   1
_chemical_formula_structural   Cr3FeNi5
_chemical_formula_sum   'Cr18 Fe6 Ni30'
_cell_volume   591.17575245
_cell_formula_units_Z   6
loop_
 _symmetry_equiv_pos_site_id
 _symmetry_equiv_pos_as_xyz
  1  'x, y, z'
loop_
 _atom_site_type_symbol
 _atom_site_label
 _atom_site_symmetry_multiplicity
 _atom_site_fract_x
 _atom_site_fract_y
 _atom_site_fract_z
 _atom_site_occupancy
  Ni  Ni0  1  0.99926764  0.99873207  -0.00008395  1
  Fe  Fe1  1  0.16703454  0.16758689  0.16544088  1
  Cr  Cr2  1  0.00197160  -0.00022668  0.33363697  1
  Fe  Fe3  1  0.99905297  0.33302466  -0.00063805  1
  Ni  Ni4  1  0.16610651  0.49944370  0.16616962  1
  Ni  Ni5  1  0.00071488  0.33412598  0.33386942  1
  Ni  Ni6  1  0.99889997  0.66697367  -0.00008825  1
  Fe  Fe7  1  0.16587404  0.83073084  0.16371039  1
  Ni  Ni8  1  0.00151981  0.66206393  0.33393463  1
  Ni  Ni9  1  0.33305015  0.99897757  0.00071415  1
  Ni  Ni10  1  0.49723863  0.16700441  0.16618759  1
  Cr  Cr11  1  0.33178939  0.00110005  0.33292792  1
  Cr  Cr12  1  0.33347904  0.33268032  0.00061508  1
  Ni  Ni13  1  0.49595961  0.49760954  0.16599793  1
  Fe  Fe14  1  0.33169517  0.33332091  0.33287263  1
  Ni  Ni15  1  0.33357691  0.66649065  0.00008799  1
  Cr  Cr16  1  0.49927166  0.83318841  0.16206126  1
  Cr  Cr17  1  0.33142084  0.66479488  0.33396114  1
  Ni  Ni18  1  0.66568381  0.99885935  0.99636754  1
  Cr  Cr19  1  0.83223199  0.16589948  0.16560514  1
  Cr  Cr20  1  0.66436886  0.00143330  0.33476879  1
  Cr  Cr21  1  0.66526735  0.33360659  0.99674435  1
  Cr  Cr22  1  0.83441390  0.49999877  0.16673599  1
  Fe  Fe23  1  0.66507430  0.33287901  0.33483282  1
  Ni  Ni24  1  0.66552932  0.66638847  0.99724122  1
  Cr  Cr25  1  0.83386372  0.83207295  0.16385327  1
  Cr  Cr26  1  0.66557822  0.66324422  0.33364946  1
  Ni  Ni27  1  0.16602141  0.16604537  0.49844717  1
  Ni  Ni28  1  0.99931476  0.99892818  0.66449852  1
  Cr  Cr29  1  0.16575508  0.16396164  0.83377263  1
  Ni  Ni30  1  0.16491554  0.50047032  0.49830817  1
  Cr  Cr31  1  0.99572151  0.33225434  0.66628354  1
  Cr  Cr32  1  0.16570769  0.50203869  0.83259964  1
  Ni  Ni33  1  0.16689593  0.83152926  0.50138759  1
  Ni  Ni34  1  -0.00045936  0.66735124  0.66405869  1
  Cr  Cr35  1  0.16686598  0.83206888  0.83192602  1
  Ni  Ni36  1  0.49989868  0.16659242  0.49963999  1
  Ni  Ni37  1  0.33360498  0.99789873  0.66384841  1
  Ni  Ni38  1  0.50238295  0.16303367  0.83203790  1
  Ni  Ni39  1  0.49874233  0.49755657  0.49859433  1
  Cr  Cr40  1  0.33593183  0.33268495  0.66460610  1
  Ni  Ni41  1  0.50108060  0.50123150  0.83335891  1
  Ni  Ni42  1  0.49604210  0.83387626  0.50203082  1
  Ni  Ni43  1  0.33355087  0.66825203  0.66402289  1
  Ni  Ni44  1  0.50030663  0.83374376  0.83410642  1
  Ni  Ni45  1  0.83204916  0.16864301  0.50002771  1
  Fe  Fe46  1  0.66528629  0.00109260  0.66718423  1
  Ni  Ni47  1  0.83055845  0.16398708  0.83272563  1
  Ni  Ni48  1  0.83430717  0.49661797  0.49763967  1
  Ni  Ni49  1  0.66601573  0.33153649  0.66515221  1
  Ni  Ni50  1  0.83194488  0.50032699  0.83406948  1
  Cr  Cr51  1  0.83419142  0.83252372  0.50001682  1
  Cr  Cr52  1  0.66526498  0.66373729  0.66758385  1
  Ni  Ni53  1  0.83182580  0.83367126  0.83455488  1
" 