110,Ni56Fe27Cr16_12,-234.307590159472, 195.610711123806,Ni56Fe27Cr16,"# generated using pymatgen
 data_Cr5Fe7Ni15
_symmetry_space_group_name_H-M   'P 1'
_cell_length_a   7.43954353
_cell_length_b   7.43954353
_cell_length_c   10.52110336
_cell_angle_alpha   90.00000000
_cell_angle_beta   90.00000000
_cell_angle_gamma   90.00000000
_symmetry_Int_Tables_number   1
_chemical_formula_structural   Cr5Fe7Ni15
_chemical_formula_sum   'Cr10 Fe14 Ni30'
_cell_volume   582.30948714
_cell_formula_units_Z   2
loop_
 _symmetry_equiv_pos_site_id
 _symmetry_equiv_pos_as_xyz
  1  'x, y, z'
loop_
 _atom_site_type_symbol
 _atom_site_label
 _atom_site_symmetry_multiplicity
 _atom_site_fract_x
 _atom_site_fract_y
 _atom_site_fract_z
 _atom_site_occupancy
  Ni  Ni0  1  1.00041316  0.00282900  1.00045304  1
  Ni  Ni1  1  0.16894445  0.16899487  0.16835636  1
  Ni  Ni2  1  1.00040351  0.00245781  0.33565182  1
  Ni  Ni3  1  0.00308446  0.33391640  0.00335256  1
  Fe  Fe4  1  0.16536765  0.49916841  0.16780015  1
  Ni  Ni5  1  1.00065692  0.33527038  0.33390215  1
  Ni  Ni6  1  0.00365623  0.66879780  0.00197328  1
  Cr  Cr7  1  0.16740868  0.83718385  0.16790747  1
  Fe  Fe8  1  0.99966802  0.66720293  0.33565418  1
  Fe  Fe9  1  0.33511222  0.00320458  1.00110981  1
  Fe  Fe10  1  0.50254521  0.16755274  0.16814530  1
  Ni  Ni11  1  0.33599486  0.00272838  0.33486289  1
  Ni  Ni12  1  0.33378823  0.33542077  1.00132793  1
  Cr  Cr13  1  0.50266420  0.50002883  0.16771482  1
  Ni  Ni14  1  0.33488400  0.33414680  0.33559328  1
  Ni  Ni15  1  0.33386073  0.66794003  0.99940750  1
  Fe  Fe16  1  0.50369013  0.83825397  0.16837682  1
  Cr  Cr17  1  0.33556146  0.66837397  0.33717529  1
  Ni  Ni18  1  0.66952888  0.00275945  0.00188869  1
  Ni  Ni19  1  0.83569482  0.16866667  0.16790899  1
  Fe  Fe20  1  0.66912340  0.00284912  0.33517698  1
  Ni  Ni21  1  0.66866880  0.33217607  1.00106606  1
  Ni  Ni22  1  0.83573093  0.50139514  0.16997103  1
  Ni  Ni23  1  0.67000689  0.33503233  0.33675691  1
  Cr  Cr24  1  0.66849743  0.67073875  0.00261457  1
  Ni  Ni25  1  0.83499107  0.83548386  0.16887028  1
  Fe  Fe26  1  0.67101257  0.66848671  0.33600861  1
  Cr  Cr27  1  0.16819378  0.16725954  0.49965505  1
  Ni  Ni28  1  0.99887190  0.99986766  0.66944062  1
  Ni  Ni29  1  0.16901683  0.16650765  0.83785881  1
  Ni  Ni30  1  0.16955209  0.50416064  0.50109766  1
  Cr  Cr31  1  1.00001394  0.33370462  0.66860820  1
  Fe  Fe32  1  0.16972508  0.50305831  0.83668809  1
  Fe  Fe33  1  0.16646460  0.83335883  0.50222206  1
  Fe  Fe34  1  0.00339011  0.67111787  0.66802723  1
  Ni  Ni35  1  0.16807315  0.83486896  0.83472108  1
  Fe  Fe36  1  0.50550128  0.16973963  0.50081800  1
  Cr  Cr37  1  0.33504621  0.99947041  0.66901959  1
  Ni  Ni38  1  0.50273006  0.16939350  0.83644609  1
  Ni  Ni39  1  0.50224503  0.50122602  0.50242894  1
  Cr  Cr40  1  0.33671460  0.33800574  0.66852571  1
  Fe  Fe41  1  0.49960826  0.50051670  0.83568098  1
  Fe  Fe42  1  0.50284498  0.83512455  0.50140361  1
  Ni  Ni43  1  0.33434079  0.66848910  0.66865320  1
  Fe  Fe44  1  0.50122563  0.83695931  0.83576683  1
  Ni  Ni45  1  0.83299717  0.16745908  0.50229725  1
  Ni  Ni46  1  0.67128350  0.00273599  0.66817383  1
  Ni  Ni47  1  0.83379877  0.16611837  0.83533879  1
  Ni  Ni48  1  0.83374707  0.50238390  0.49978012  1
  Ni  Ni49  1  0.66845463  0.33331058  0.66772367  1
  Cr  Cr50  1  0.83438860  0.50111764  0.83578475  1
  Ni  Ni51  1  0.83593069  0.83570314  0.50144241  1
  Cr  Cr52  1  0.66717098  0.66905520  0.66795530  1
  Ni  Ni53  1  0.83753066  0.83804674  0.83523469  1
" 