3136,Ni56Fe22Cr21_14,-231.5808312804, 185.226818265123,Ni56Fe22Cr21,"# generated using pymatgen
 data_Cr13Fe11Ni30
_symmetry_space_group_name_H-M   'P 1'
_cell_length_a   7.45210650
_cell_length_b   7.45210650
_cell_length_c   10.53887008
_cell_angle_alpha   90.00000000
_cell_angle_beta   90.00000000
_cell_angle_gamma   90.00000000
_symmetry_Int_Tables_number   1
_chemical_formula_structural   Cr13Fe11Ni30
_chemical_formula_sum   'Cr13 Fe11 Ni30'
_cell_volume   585.26446522
_cell_formula_units_Z   1
loop_
 _symmetry_equiv_pos_site_id
 _symmetry_equiv_pos_as_xyz
  1  'x, y, z'
loop_
 _atom_site_type_symbol
 _atom_site_label
 _atom_site_symmetry_multiplicity
 _atom_site_fract_x
 _atom_site_fract_y
 _atom_site_fract_z
 _atom_site_occupancy
  Ni  Ni0  1  0.99854892  0.99827892  0.00323807  1
  Fe  Fe1  1  0.16771049  0.16972532  0.16896074  1
  Cr  Cr2  1  1.00038400  1.00080741  0.33315106  1
  Cr  Cr3  1  1.00083861  0.33639148  0.00269903  1
  Ni  Ni4  1  0.16778247  0.50118330  0.16850591  1
  Ni  Ni5  1  0.99913365  0.33645963  0.33360674  1
  Fe  Fe6  1  1.00024150  0.66874339  0.00181822  1
  Ni  Ni7  1  0.16602227  0.83318702  0.16828047  1
  Cr  Cr8  1  1.00030130  0.66647678  0.33388860  1
  Cr  Cr9  1  0.33361975  1.00028751  0.99939540  1
  Cr  Cr10  1  0.50127204  0.16947207  0.16802790  1
  Ni  Ni11  1  0.33421022  0.99858008  0.33549533  1
  Ni  Ni12  1  0.33418295  0.33813738  0.00129004  1
  Ni  Ni13  1  0.50136175  0.50131151  0.16997637  1
  Ni  Ni14  1  0.33453884  0.33788676  0.33270983  1
  Cr  Cr15  1  0.33445402  0.66520393  0.99780278  1
  Cr  Cr16  1  0.50253554  0.83117432  0.16893501  1
  Ni  Ni17  1  0.33410335  0.66641015  0.33674417  1
  Ni  Ni18  1  0.67192582  0.99895922  0.99818099  1
  Ni  Ni19  1  0.83555616  0.16820217  0.16779111  1
  Cr  Cr20  1  0.66877138  1.00097438  0.33643249  1
  Cr  Cr21  1  0.66658633  0.33665386  0.99846209  1
  Ni  Ni22  1  0.83350682  0.50079882  0.16919492  1
  Ni  Ni23  1  0.66864791  0.33684388  0.33577257  1
  Ni  Ni24  1  0.66961810  0.66749507  0.00220062  1
  Fe  Fe25  1  0.83441904  0.83226672  0.16506417  1
  Fe  Fe26  1  0.66665910  0.66455379  0.33599275  1
  Cr  Cr27  1  0.16661448  0.17083060  0.49820411  1
  Ni  Ni28  1  0.99736961  0.99920331  0.66670542  1
  Cr  Cr29  1  0.16511047  0.16855771  0.83581739  1
  Ni  Ni30  1  0.16662672  0.50126374  0.50165552  1
  Ni  Ni31  1  0.99722423  0.33660148  0.66695791  1
  Ni  Ni32  1  0.16502936  0.50310655  0.83301950  1
  Fe  Fe33  1  0.16965074  0.83192093  0.50138324  1
  Fe  Fe34  1  0.99869899  0.66778733  0.66698737  1
  Ni  Ni35  1  0.16235228  0.83155353  0.83140229  1
  Ni  Ni36  1  0.50295263  0.16867701  0.50037900  1
  Cr  Cr37  1  0.33677933  0.99657991  0.66711143  1
  Ni  Ni38  1  0.50502322  0.16775598  0.83434951  1
  Ni  Ni39  1  0.50098485  0.50140101  0.49914452  1
  Cr  Cr40  1  0.33689866  0.33760681  0.67007561  1
  Ni  Ni41  1  0.50231209  0.50239022  0.83402301  1
  Ni  Ni42  1  0.50456050  0.83226421  0.50120323  1
  Fe  Fe43  1  0.33610500  0.66667467  0.66746191  1
  Ni  Ni44  1  0.50591252  0.83275677  0.83276588  1
  Fe  Fe45  1  0.83220116  0.17013775  0.50259121  1
  Ni  Ni46  1  0.67039069  0.99997628  0.66854204  1
  Fe  Fe47  1  0.83406412  0.16541841  0.83287581  1
  Fe  Fe48  1  0.83217325  0.50040567  0.50138936  1
  Ni  Ni49  1  0.66967154  0.33572362  0.66792979  1
  Fe  Fe50  1  0.83342345  0.50459653  0.83279001  1
  Ni  Ni51  1  0.83313546  0.83332052  0.50241936  1
  Ni  Ni52  1  0.66765435  0.66743910  0.66695381  1
  Ni  Ni53  1  0.83428169  0.83371914  0.83637807  1
" 