6529,Ni56Fe22Cr21_1,-232.051693443893, 188.622394524733,Ni56Fe22Cr21,"# generated using pymatgen
 data_Cr13Fe11Ni30
_symmetry_space_group_name_H-M   'P 1'
_cell_length_a   7.45984798
_cell_length_b   7.45984798
_cell_length_c   10.54981818
_cell_angle_alpha   90.00000000
_cell_angle_beta   90.00000000
_cell_angle_gamma   90.00000000
_symmetry_Int_Tables_number   1
_chemical_formula_structural   Cr13Fe11Ni30
_chemical_formula_sum   'Cr13 Fe11 Ni30'
_cell_volume   587.09033252
_cell_formula_units_Z   1
loop_
 _symmetry_equiv_pos_site_id
 _symmetry_equiv_pos_as_xyz
  1  'x, y, z'
loop_
 _atom_site_type_symbol
 _atom_site_label
 _atom_site_symmetry_multiplicity
 _atom_site_fract_x
 _atom_site_fract_y
 _atom_site_fract_z
 _atom_site_occupancy
  Ni  Ni0  1  0.00127242  0.00095772  0.99861723  1
  Cr  Cr1  1  0.16837984  0.16688459  0.16740742  1
  Cr  Cr2  1  0.99926379  0.00157821  0.33507565  1
  Ni  Ni3  1  0.99818866  0.33421634  0.00088455  1
  Cr  Cr4  1  0.16503788  0.50123304  0.16771738  1
  Ni  Ni5  1  0.99981615  0.33547005  0.33332128  1
  Fe  Fe6  1  0.00218642  0.66779662  0.99851819  1
  Ni  Ni7  1  0.16893461  0.83384905  0.16617014  1
  Fe  Fe8  1  0.99777521  0.66533128  0.33396457  1
  Ni  Ni9  1  0.33454400  0.99870238  0.00178558  1
  Ni  Ni10  1  0.50060740  0.16440258  0.16654997  1
  Fe  Fe11  1  0.33848222  1.00042420  0.33274581  1
  Fe  Fe12  1  0.33484331  0.33277100  0.99875636  1
  Cr  Cr13  1  0.50119486  0.50003494  0.16741101  1
  Ni  Ni14  1  0.33370533  0.33336699  0.33444930  1
  Fe  Fe15  1  0.33150107  0.66970997  0.99831809  1
  Ni  Ni16  1  0.49873954  0.83704410  0.16876092  1
  Fe  Fe17  1  0.33625116  0.66850085  0.33413991  1
  Fe  Fe18  1  0.66638416  0.00291920  0.99938578  1
  Fe  Fe19  1  0.83267342  0.16818114  0.16578663  1
  Ni  Ni20  1  0.66463516  0.99830029  0.33336482  1
  Fe  Fe21  1  0.66837162  0.33088970  0.99953911  1
  Ni  Ni22  1  0.83572074  0.49944208  0.16780459  1
  Cr  Cr23  1  0.66813106  0.33358278  0.33469943  1
  Cr  Cr24  1  0.66623405  0.66706557  0.99844551  1
  Cr  Cr25  1  0.83328930  0.83319747  0.16741327  1
  Ni  Ni26  1  0.66669404  0.66898752  0.33622245  1
  Cr  Cr27  1  0.16907105  0.16762262  0.50121104  1
  Fe  Fe28  1  0.99827976  0.99893849  0.66835211  1
  Cr  Cr29  1  0.16811568  0.16622531  0.83281043  1
  Cr  Cr30  1  0.16900522  0.49953500  0.49827994  1
  Cr  Cr31  1  0.99885636  0.33321176  0.66671416  1
  Ni  Ni32  1  0.16871245  0.50186370  0.83585636  1
  Cr  Cr33  1  0.16824383  0.83427064  0.50074700  1
  Cr  Cr34  1  0.99841475  0.66772760  0.66944601  1
  Ni  Ni35  1  0.16755910  0.83305499  0.83514801  1
  Ni  Ni36  1  0.50132989  0.16652707  0.50098955  1
  Ni  Ni37  1  0.33737652  0.99977749  0.66720074  1
  Ni  Ni38  1  0.50172487  0.16733361  0.83385602  1
  Ni  Ni39  1  0.50165032  0.50102463  0.50157267  1
  Ni  Ni40  1  0.33692752  0.33430548  0.66823656  1
  Ni  Ni41  1  0.49957398  0.49972232  0.83230154  1
  Ni  Ni42  1  0.50326508  0.83391324  0.49963165  1
  Ni  Ni43  1  0.33771027  0.66739292  0.66944306  1
  Ni  Ni44  1  0.49983957  0.83438677  0.83300482  1
  Ni  Ni45  1  0.83141125  0.16604473  0.50062914  1
  Ni  Ni46  1  0.66618580  0.99935599  0.66743660  1
  Ni  Ni47  1  0.83188094  0.16614225  0.83526294  1
  Ni  Ni48  1  0.83117713  0.50152232  0.49867544  1
  Fe  Fe49  1  0.66452010  0.33394214  0.66711841  1
  Ni  Ni50  1  0.83313874  0.50003278  0.83493215  1
  Ni  Ni51  1  0.82995518  0.83385735  0.50065183  1
  Ni  Ni52  1  0.66524187  0.66823180  0.66622833  1
  Ni  Ni53  1  0.83403353  0.83525553  0.83306675  1
" 