6304,Ni56Fe22Cr21_7,-231.710330691207, 190.309599875939,Ni56Fe22Cr21,"# generated using pymatgen
 data_Cr13Fe11Ni30
_symmetry_space_group_name_H-M   'P 1'
_cell_length_a   7.45086117
_cell_length_b   7.45086117
_cell_length_c   10.53710891
_cell_angle_alpha   90.00000000
_cell_angle_beta   90.00000000
_cell_angle_gamma   90.00000000
_symmetry_Int_Tables_number   1
_chemical_formula_structural   Cr13Fe11Ni30
_chemical_formula_sum   'Cr13 Fe11 Ni30'
_cell_volume   584.97110071
_cell_formula_units_Z   1
loop_
 _symmetry_equiv_pos_site_id
 _symmetry_equiv_pos_as_xyz
  1  'x, y, z'
loop_
 _atom_site_type_symbol
 _atom_site_label
 _atom_site_symmetry_multiplicity
 _atom_site_fract_x
 _atom_site_fract_y
 _atom_site_fract_z
 _atom_site_occupancy
  Ni  Ni0  1  0.99899708  0.99989436  0.99994278  1
  Fe  Fe1  1  0.16865043  0.16842322  0.16860025  1
  Ni  Ni2  1  0.00146073  1.00075981  0.33573036  1
  Cr  Cr3  1  1.00098020  0.33436451  1.00051650  1
  Fe  Fe4  1  0.16738630  0.50037864  0.16656497  1
  Cr  Cr5  1  0.00139632  0.33354606  0.33372570  1
  Ni  Ni6  1  0.99978068  0.66919471  1.00077113  1
  Cr  Cr7  1  0.16643557  0.83453351  0.16772971  1
  Ni  Ni8  1  0.00122156  0.66975986  0.33395636  1
  Cr  Cr9  1  0.33427409  0.00248162  1.00102026  1
  Ni  Ni10  1  0.50141475  0.16825383  0.16789362  1
  Fe  Fe11  1  0.33324881  0.00289725  0.33441361  1
  Ni  Ni12  1  0.33614019  0.33502071  1.00020685  1
  Cr  Cr13  1  0.50211288  0.49930130  0.16663310  1
  Ni  Ni14  1  0.33472896  0.33280477  0.33428880  1
  Ni  Ni15  1  0.33468716  0.66604907  0.99968195  1
  Ni  Ni16  1  0.50139295  0.83610953  0.16699854  1
  Cr  Cr17  1  0.33426661  0.66752640  0.33686297  1
  Fe  Fe18  1  0.66991850  0.00154579  0.00229681  1
  Ni  Ni19  1  0.83346034  0.16807037  0.16834106  1
  Cr  Cr20  1  0.66849576  0.00128379  0.33318838  1
  Ni  Ni21  1  0.66649037  0.33423352  1.00080149  1
  Ni  Ni22  1  0.83467819  0.50098059  0.16727739  1
  Ni  Ni23  1  0.66631958  0.33304399  0.33355821  1
  Ni  Ni24  1  0.66878830  0.66768631  0.00135916  1
  Fe  Fe25  1  0.83417452  0.83449334  0.16639710  1
  Cr  Cr26  1  0.66860565  0.66810330  0.33442277  1
  Ni  Ni27  1  0.16598257  0.16621717  0.49896937  1
  Ni  Ni28  1  0.99916048  1.00088022  0.66758499  1
  Ni  Ni29  1  0.16545601  0.16755399  0.83512864  1
  Fe  Fe30  1  0.16894580  0.50231077  0.50225593  1
  Ni  Ni31  1  0.99917014  0.33309831  0.66838837  1
  Ni  Ni32  1  0.16815172  0.50229641  0.83464382  1
  Fe  Fe33  1  0.16619780  0.83421849  0.50153773  1
  Ni  Ni34  1  0.00166713  0.66927866  0.66853228  1
  Ni  Ni35  1  0.16474081  0.83341083  0.83356256  1
  Cr  Cr36  1  0.50093527  0.16931341  0.49976369  1
  Cr  Cr37  1  0.33274346  0.99894619  0.66750840  1
  Fe  Fe38  1  0.50325001  0.17102053  0.83567101  1
  Ni  Ni39  1  0.50067900  0.50197848  0.50144489  1
  Cr  Cr40  1  0.33396028  0.33702107  0.66968861  1
  Ni  Ni41  1  0.50151269  0.50027136  0.83499942  1
  Ni  Ni42  1  0.50054673  0.83248118  0.50179870  1
  Ni  Ni43  1  0.33423379  0.66750717  0.66693580  1
  Cr  Cr44  1  0.50134454  0.83212195  0.83474218  1
  Fe  Fe45  1  0.83539833  0.16616807  0.50259536  1
  Fe  Fe46  1  0.67150448  1.00066869  0.66743190  1
  Ni  Ni47  1  0.83495026  0.16751078  0.83231974  1
  Cr  Cr48  1  0.83375554  0.50093700  0.50235438  1
  Ni  Ni49  1  0.66950656  0.33451400  0.66889987  1
  Ni  Ni50  1  0.83359661  0.50099340  0.83384334  1
  Ni  Ni51  1  0.83655998  0.83509416  0.50159256  1
  Fe  Fe52  1  0.66822766  0.66734622  0.66781914  1
  Ni  Ni53  1  0.83697134  0.83475681  0.83546296  1
" 