3225,Ni56Cr44_3,-216.720015669376, 127.99604740428,Ni56Cr44,"# generated using pymatgen
 data_Cr5Ni4
_symmetry_space_group_name_H-M   'P 1'
_cell_length_a   7.54044383
_cell_length_b   7.54044383
_cell_length_c   10.66379793
_cell_angle_alpha   90.00000000
_cell_angle_beta   90.00000000
_cell_angle_gamma   90.00000000
_symmetry_Int_Tables_number   1
_chemical_formula_structural   Cr5Ni4
_chemical_formula_sum   'Cr30 Ni24'
_cell_volume   606.32534945
_cell_formula_units_Z   6
loop_
 _symmetry_equiv_pos_site_id
 _symmetry_equiv_pos_as_xyz
  1  'x, y, z'
loop_
 _atom_site_type_symbol
 _atom_site_label
 _atom_site_symmetry_multiplicity
 _atom_site_fract_x
 _atom_site_fract_y
 _atom_site_fract_z
 _atom_site_occupancy
  Cr  Cr0  1  0.99485229  0.99306867  0.99428467  1
  Cr  Cr1  1  0.16220390  0.16182301  0.16298411  1
  Cr  Cr2  1  0.99300460  -0.00481437  0.33164997  1
  Cr  Cr3  1  -0.00320101  0.33141841  -0.00296510  1
  Ni  Ni4  1  0.16408076  0.49798671  0.16140697  1
  Ni  Ni5  1  0.99149558  0.32965932  0.32838267  1
  Ni  Ni6  1  -0.00040659  0.66235034  0.99227121  1
  Cr  Cr7  1  0.16408752  0.82504254  0.16063890  1
  Cr  Cr8  1  -0.00275071  0.66159361  0.32991256  1
  Ni  Ni9  1  0.32899335  0.98927851  0.99313983  1
  Cr  Cr10  1  0.49500787  0.16013854  0.16127534  1
  Cr  Cr11  1  0.32942315  0.98762847  0.33081965  1
  Cr  Cr12  1  0.32790409  0.33418271  0.99131663  1
  Ni  Ni13  1  0.49245494  0.49789043  0.16305545  1
  Cr  Cr14  1  0.32824859  0.33435617  0.32916696  1
  Ni  Ni15  1  0.32747530  0.66345979  0.99504849  1
  Ni  Ni16  1  0.49159509  0.82355551  0.16030784  1
  Ni  Ni17  1  0.33013698  0.66110632  0.32841788  1
  Cr  Cr18  1  0.66146973  0.99208939  -0.00375481  1
  Ni  Ni19  1  0.82806670  0.16428622  0.16514241  1
  Cr  Cr20  1  0.66317575  0.99266868  0.32811705  1
  Cr  Cr21  1  0.66126862  0.33033351  -0.00402530  1
  Cr  Cr22  1  0.82961152  0.49555569  0.16299602  1
  Ni  Ni23  1  0.66375279  0.33029228  0.32955668  1
  Cr  Cr24  1  0.65958008  0.66235992  0.99333730  1
  Cr  Cr25  1  0.82835325  0.82659108  0.15888242  1
  Cr  Cr26  1  0.65862908  0.66194966  0.33051613  1
  Cr  Cr27  1  0.16113682  0.15959397  0.49649400  1
  Ni  Ni28  1  0.99348372  0.98948125  0.66006471  1
  Cr  Cr29  1  0.16262941  0.15850118  0.82637117  1
  Cr  Cr30  1  0.16011743  0.49765826  0.49404683  1
  Cr  Cr31  1  -0.00447537  0.33057756  0.66146835  1
  Ni  Ni32  1  0.16221717  0.50247773  0.82969818  1
  Ni  Ni33  1  0.16057675  0.82531898  0.49641653  1
  Ni  Ni34  1  0.99364312  0.66587357  0.66205570  1
  Ni  Ni35  1  0.16125058  0.82419541  0.82845978  1
  Cr  Cr36  1  0.49654731  0.16306980  0.49581747  1
  Cr  Cr37  1  0.32701948  0.98992535  0.66098901  1
  Cr  Cr38  1  0.49410761  0.15999767  0.82859400  1
  Ni  Ni39  1  0.49869146  0.49980856  0.49412186  1
  Cr  Cr40  1  0.32908856  0.33417349  0.66521013  1
  Ni  Ni41  1  0.49349139  0.50190156  0.82802944  1
  Ni  Ni42  1  0.49566443  0.82343000  0.49483838  1
  Cr  Cr43  1  0.32978026  0.66163495  0.66092803  1
  Ni  Ni44  1  0.49395739  0.82405959  0.82961562  1
  Ni  Ni45  1  0.82904562  0.16282141  0.49403088  1
  Cr  Cr46  1  0.66359410  0.98976247  0.66110076  1
  Cr  Cr47  1  0.82816520  0.16033980  0.82772567  1
  Ni  Ni48  1  0.82666921  0.49678183  0.49543130  1
  Cr  Cr49  1  0.66059441  0.33400780  0.66105604  1
  Cr  Cr50  1  0.82935639  0.50082420  0.82656626  1
  Ni  Ni51  1  0.82900403  0.82603839  0.49902912  1
  Ni  Ni52  1  0.66294786  0.66360045  0.66086362  1
  Ni  Ni53  1  0.83037327  0.82548444  0.82628600  1
" 