8945,Ni56Fe27Cr16_5,-234.539135169726, 197.663084647422,Ni56Fe27Cr16,"# generated using pymatgen
 data_Cr5Fe7Ni15
_symmetry_space_group_name_H-M   'P 1'
_cell_length_a   7.44275557
_cell_length_b   7.44275557
_cell_length_c   10.52564587
_cell_angle_alpha   90.00000000
_cell_angle_beta   90.00000000
_cell_angle_gamma   90.00000000
_symmetry_Int_Tables_number   1
_chemical_formula_structural   Cr5Fe7Ni15
_chemical_formula_sum   'Cr10 Fe14 Ni30'
_cell_volume   583.06405372
_cell_formula_units_Z   2
loop_
 _symmetry_equiv_pos_site_id
 _symmetry_equiv_pos_as_xyz
  1  'x, y, z'
loop_
 _atom_site_type_symbol
 _atom_site_label
 _atom_site_symmetry_multiplicity
 _atom_site_fract_x
 _atom_site_fract_y
 _atom_site_fract_z
 _atom_site_occupancy
  Ni  Ni0  1  1.00007889  0.00234403  1.00157737  1
  Ni  Ni1  1  0.16931736  0.16817515  0.16790146  1
  Fe  Fe2  1  0.00406779  0.00293570  0.33346061  1
  Ni  Ni3  1  0.99860636  0.33452049  0.00252497  1
  Ni  Ni4  1  0.16759658  0.50053504  0.16999514  1
  Fe  Fe5  1  0.00328773  0.33482856  0.33254941  1
  Ni  Ni6  1  0.99988446  0.66802822  0.00301820  1
  Ni  Ni7  1  0.16663717  0.83621798  0.16855176  1
  Ni  Ni8  1  0.00344470  0.66853768  0.33203206  1
  Ni  Ni9  1  0.33394294  0.00197854  1.00146961  1
  Ni  Ni10  1  0.50057319  0.16921985  0.16765682  1
  Ni  Ni11  1  0.33459159  0.00229998  0.33545624  1
  Fe  Fe12  1  0.33261661  0.33370109  0.00389179  1
  Ni  Ni13  1  0.50185007  0.49938788  0.16937126  1
  Ni  Ni14  1  0.33719966  0.33472221  0.33420874  1
  Cr  Cr15  1  0.33344055  0.66753091  0.00242885  1
  Cr  Cr16  1  0.50166505  0.83697405  0.16986467  1
  Ni  Ni17  1  0.33242467  0.66801977  0.33607516  1
  Ni  Ni18  1  0.67073897  0.00370084  0.00254839  1
  Ni  Ni19  1  0.83533838  0.16799282  0.16947253  1
  Fe  Fe20  1  0.66699363  0.00401904  0.33416628  1
  Fe  Fe21  1  0.67054873  0.33521549  0.00275596  1
  Ni  Ni22  1  0.83561855  0.50213512  0.16782696  1
  Ni  Ni23  1  0.66867889  0.33279343  0.33361130  1
  Fe  Fe24  1  0.67044358  0.66885402  1.00140411  1
  Ni  Ni25  1  0.83675851  0.83488125  0.16909500  1
  Fe  Fe26  1  0.66652586  0.66575261  0.33362266  1
  Fe  Fe27  1  0.16846906  0.16825411  0.50099370  1
  Ni  Ni28  1  1.00122225  0.00262387  0.66893805  1
  Ni  Ni29  1  0.16635594  0.16787879  0.83488544  1
  Fe  Fe30  1  0.16992960  0.50109518  0.49926887  1
  Fe  Fe31  1  0.00176474  0.33149009  0.66907506  1
  Cr  Cr32  1  0.16753734  0.49641109  0.83574430  1
  Ni  Ni33  1  0.16799461  0.83617722  0.50004379  1
  Cr  Cr34  1  0.00253498  0.67044327  0.67106004  1
  Fe  Fe35  1  0.16645498  0.83745678  0.83744458  1
  Ni  Ni36  1  0.50027484  0.16953838  0.50002086  1
  Cr  Cr37  1  0.33334431  1.00109530  0.66927207  1
  Cr  Cr38  1  0.49955428  0.16941985  0.83868401  1
  Fe  Fe39  1  0.50152285  0.50068143  0.50005787  1
  Ni  Ni40  1  0.33727256  0.33543445  0.66656968  1
  Ni  Ni41  1  0.50413052  0.50149890  0.83371369  1
  Ni  Ni42  1  0.50042766  0.83577040  0.49953918  1
  Cr  Cr43  1  0.33548526  0.66845562  0.66701741  1
  Ni  Ni44  1  0.50439747  0.83405216  0.83555854  1
  Fe  Fe45  1  0.83478572  0.16830733  0.50060085  1
  Cr  Cr46  1  0.66952638  0.00387937  0.66789161  1
  Ni  Ni47  1  0.83746747  0.16879974  0.83416467  1
  Cr  Cr48  1  0.83620209  0.50001001  0.50203068  1
  Ni  Ni49  1  0.66835130  0.33523688  0.66889554  1
  Ni  Ni50  1  0.83348291  0.50131807  0.83558751  1
  Cr  Cr51  1  0.83501219  0.83423561  0.49867718  1
  Fe  Fe52  1  0.66751619  0.66821771  0.66951763  1
  Ni  Ni53  1  0.83423598  0.83504061  0.83633383  1
" 