8457,Ni56Fe40Cr3_15,-239.98665123886, 216.55864882761,Ni56Fe40Cr3,"# generated using pymatgen
 data_CrFe7Ni10
_symmetry_space_group_name_H-M   'P 1'
_cell_length_a   7.41288860
_cell_length_b   7.41288860
_cell_length_c   10.48340759
_cell_angle_alpha   90.00000000
_cell_angle_beta   90.00000000
_cell_angle_gamma   90.00000000
_symmetry_Int_Tables_number   1
_chemical_formula_structural   CrFe7Ni10
_chemical_formula_sum   'Cr3 Fe21 Ni30'
_cell_volume   576.07286457
_cell_formula_units_Z   3
loop_
 _symmetry_equiv_pos_site_id
 _symmetry_equiv_pos_as_xyz
  1  'x, y, z'
loop_
 _atom_site_type_symbol
 _atom_site_label
 _atom_site_symmetry_multiplicity
 _atom_site_fract_x
 _atom_site_fract_y
 _atom_site_fract_z
 _atom_site_occupancy
  Fe  Fe0  1  0.00377593  0.00602620  1.00227015  1
  Fe  Fe1  1  0.17108266  0.17086513  0.17067557  1
  Ni  Ni2  1  0.00410006  0.00383681  0.33701392  1
  Ni  Ni3  1  1.00295001  0.33711008  1.00333406  1
  Ni  Ni4  1  0.17109805  0.50355051  0.17046013  1
  Ni  Ni5  1  1.00356956  0.33748566  0.33683755  1
  Fe  Fe6  1  0.00473221  0.66809747  1.00313873  1
  Fe  Fe7  1  0.17240833  0.83715268  0.17088330  1
  Ni  Ni8  1  0.00408051  0.66963716  0.33800131  1
  Fe  Fe9  1  0.33746350  0.00513966  0.00365478  1
  Ni  Ni10  1  0.50431391  0.17042255  0.17075555  1
  Ni  Ni11  1  0.33758710  1.00353105  0.33675221  1
  Ni  Ni12  1  0.33762808  0.33736912  1.00281328  1
  Ni  Ni13  1  0.50163545  0.50384137  0.17072161  1
  Ni  Ni14  1  0.33732171  0.33699925  0.33721223  1
  Fe  Fe15  1  0.33712645  0.66836025  0.00383210  1
  Ni  Ni16  1  0.50300709  0.83669298  0.17006103  1
  Fe  Fe17  1  0.33641630  0.67042967  0.33695297  1
  Fe  Fe18  1  0.66972060  0.00611773  1.00346927  1
  Ni  Ni19  1  0.83715703  0.17041269  0.17024033  1
  Ni  Ni20  1  0.66927903  0.00404071  0.33829367  1
  Ni  Ni21  1  0.67038042  0.33738415  0.00448187  1
  Fe  Fe22  1  0.83652551  0.50156334  0.17026133  1
  Fe  Fe23  1  0.67055005  0.33558184  0.33663672  1
  Fe  Fe24  1  0.66909615  0.66834313  1.00231898  1
  Cr  Cr25  1  0.83670051  0.83893709  0.17139939  1
  Fe  Fe26  1  0.66915405  0.67017196  0.33825417  1
  Ni  Ni27  1  0.16957057  0.17144358  0.50386475  1
  Ni  Ni28  1  0.00409635  1.00334046  0.67033625  1
  Ni  Ni29  1  0.17000800  0.17174513  0.83654211  1
  Ni  Ni30  1  0.17009367  0.50247672  0.50340216  1
  Fe  Fe31  1  0.00610806  0.33632567  0.67032282  1
  Ni  Ni32  1  0.17055586  0.50233161  0.83709641  1
  Fe  Fe33  1  0.17016111  0.83884307  0.50269397  1
  Fe  Fe34  1  1.00270212  0.67046746  0.67021372  1
  Fe  Fe35  1  0.16940408  0.83869140  0.83738270  1
  Ni  Ni36  1  0.50290524  0.16903005  0.50312340  1
  Ni  Ni37  1  0.33594070  0.00525752  0.67059331  1
  Ni  Ni38  1  0.50281346  0.17009827  0.83708451  1
  Ni  Ni39  1  0.50210482  0.50460919  0.50171148  1
  Ni  Ni40  1  0.33609478  0.33528412  0.67093383  1
  Ni  Ni41  1  0.50200546  0.50371853  0.83852806  1
  Ni  Ni42  1  0.50564630  0.83731911  0.50310634  1
  Cr  Cr43  1  0.33793177  0.66987053  0.67007305  1
  Fe  Fe44  1  0.50447017  0.83809145  0.83729565  1
  Ni  Ni45  1  0.83848465  0.16789749  0.50276627  1
  Fe  Fe46  1  0.66982392  1.00228563  0.66994493  1
  Ni  Ni47  1  0.83813810  0.16747707  0.83795059  1
  Fe  Fe48  1  0.83741741  0.50395657  0.50271806  1
  Cr  Cr49  1  0.66921574  0.33764490  0.67035802  1
  Fe  Fe50  1  0.83743991  0.50358029  0.83798370  1
  Fe  Fe51  1  0.83676041  0.83734146  0.50387494  1
  Ni  Ni52  1  0.67176111  0.67134612  0.67071688  1
  Ni  Ni53  1  0.83674962  0.83768999  0.83591949  1
" 