5390,Ni56Fe27Cr16_13,-234.548510562696, 199.152998392109,Ni56Fe27Cr16,"# generated using pymatgen
 data_Cr5Fe7Ni15
_symmetry_space_group_name_H-M   'P 1'
_cell_length_a   7.43878123
_cell_length_b   7.43878123
_cell_length_c   10.52002530
_cell_angle_alpha   90.00000000
_cell_angle_beta   90.00000000
_cell_angle_gamma   90.00000000
_symmetry_Int_Tables_number   1
_chemical_formula_structural   Cr5Fe7Ni15
_chemical_formula_sum   'Cr10 Fe14 Ni30'
_cell_volume   582.13050401
_cell_formula_units_Z   2
loop_
 _symmetry_equiv_pos_site_id
 _symmetry_equiv_pos_as_xyz
  1  'x, y, z'
loop_
 _atom_site_type_symbol
 _atom_site_label
 _atom_site_symmetry_multiplicity
 _atom_site_fract_x
 _atom_site_fract_y
 _atom_site_fract_z
 _atom_site_occupancy
  Fe  Fe0  1  0.00298269  0.00245541  0.99978485  1
  Ni  Ni1  1  0.16960472  0.16929804  0.16935659  1
  Ni  Ni2  1  0.00400288  0.00482760  0.33506280  1
  Ni  Ni3  1  0.00239557  0.33650378  1.00173218  1
  Ni  Ni4  1  0.16713108  0.49988642  0.16722397  1
  Ni  Ni5  1  1.00025910  0.33446786  0.33465577  1
  Ni  Ni6  1  0.00228598  0.66765293  1.00072029  1
  Fe  Fe7  1  0.16942160  0.83667473  0.16704580  1
  Cr  Cr8  1  0.00213482  0.66610329  0.33554139  1
  Fe  Fe9  1  0.33355087  0.00294641  1.00156068  1
  Cr  Cr10  1  0.49992107  0.16724284  0.16947036  1
  Ni  Ni11  1  0.33478392  1.00019815  0.33396853  1
  Ni  Ni12  1  0.33388638  0.33452396  0.99984144  1
  Cr  Cr13  1  0.50278801  0.50239762  0.16821890  1
  Fe  Fe14  1  0.33334999  0.33461371  0.33427037  1
  Fe  Fe15  1  0.33310765  0.66682449  1.00144607  1
  Fe  Fe16  1  0.50139828  0.83556097  0.16895600  1
  Cr  Cr17  1  0.33616053  0.67071360  0.33540243  1
  Fe  Fe18  1  0.66916553  0.00252716  1.00025742  1
  Cr  Cr19  1  0.83679578  0.16999098  0.17005788  1
  Ni  Ni20  1  0.66691336  0.00200219  0.33639974  1
  Ni  Ni21  1  0.66941810  0.33651105  0.99937199  1
  Ni  Ni22  1  0.83657569  0.50277951  0.16860049  1
  Ni  Ni23  1  0.67159326  0.33635884  0.33659914  1
  Ni  Ni24  1  0.66973294  0.66743865  1.00168851  1
  Cr  Cr25  1  0.83346667  0.83344690  0.16801825  1
  Ni  Ni26  1  0.66696116  0.66733850  0.33604045  1
  Cr  Cr27  1  0.16742668  0.16976460  0.50101565  1
  Ni  Ni28  1  0.00296203  0.00232812  0.67040350  1
  Ni  Ni29  1  0.16945667  0.16935311  0.83557812  1
  Ni  Ni30  1  0.16829032  0.50159366  0.50286889  1
  Ni  Ni31  1  0.99945198  0.33521167  0.66931309  1
  Ni  Ni32  1  0.16809464  0.50146609  0.83560549  1
  Fe  Fe33  1  0.17007090  0.83567645  0.50405326  1
  Fe  Fe34  1  0.00328964  0.66738719  0.67009690  1
  Ni  Ni35  1  0.16695836  0.83487799  0.83470871  1
  Cr  Cr36  1  0.50271126  0.16732960  0.50102533  1
  Ni  Ni37  1  0.33371273  0.99903163  0.66929738  1
  Ni  Ni38  1  0.50154414  0.16962395  0.83544652  1
  Fe  Fe39  1  0.50361344  0.50278264  0.50239296  1
  Fe  Fe40  1  0.33426186  0.33617865  0.67096977  1
  Fe  Fe41  1  0.50220468  0.49975763  0.83571584  1
  Ni  Ni42  1  0.50197131  0.83467428  0.50084840  1
  Ni  Ni43  1  0.33449076  0.66963138  0.66780595  1
  Cr  Cr44  1  0.50282521  0.83589374  0.83599822  1
  Ni  Ni45  1  0.83499511  0.16987492  0.50083718  1
  Fe  Fe46  1  0.66938150  0.00336785  0.66902228  1
  Ni  Ni47  1  0.83469738  0.16848728  0.83489222  1
  Ni  Ni48  1  0.83519478  0.50058153  0.50097437  1
  Ni  Ni49  1  0.67049877  0.33599098  0.66973136  1
  Ni  Ni50  1  0.83601429  0.50238154  0.83612581  1
  Cr  Cr51  1  0.83349489  0.83594599  0.50293504  1
  Fe  Fe52  1  0.66890918  0.66728700  0.66841295  1
  Ni  Ni53  1  0.83628628  0.83483134  0.83522893  1
" 