3096,Ni56Fe36Cr6_1,-238.75218950185, 215.495157152456,Ni56Fe36Cr6,"# generated using pymatgen
 data_Cr5Fe19Ni30
_symmetry_space_group_name_H-M   'P 1'
_cell_length_a   7.42312527
_cell_length_b   7.42312527
_cell_length_c   10.49788443
_cell_angle_alpha   90.00000000
_cell_angle_beta   90.00000000
_cell_angle_gamma   90.00000000
_symmetry_Int_Tables_number   1
_chemical_formula_structural   Cr5Fe19Ni30
_chemical_formula_sum   'Cr5 Fe19 Ni30'
_cell_volume   578.46270733
_cell_formula_units_Z   1
loop_
 _symmetry_equiv_pos_site_id
 _symmetry_equiv_pos_as_xyz
  1  'x, y, z'
loop_
 _atom_site_type_symbol
 _atom_site_label
 _atom_site_symmetry_multiplicity
 _atom_site_fract_x
 _atom_site_fract_y
 _atom_site_fract_z
 _atom_site_occupancy
  Ni  Ni0  1  0.00303646  1.00292353  1.00195146  1
  Ni  Ni1  1  0.16917576  0.16879186  0.17144251  1
  Ni  Ni2  1  0.00422885  1.00229225  0.33608312  1
  Ni  Ni3  1  1.00224879  0.33633247  1.00157137  1
  Cr  Cr4  1  0.16772466  0.50225377  0.16946189  1
  Fe  Fe5  1  1.00219442  0.33601411  0.33728536  1
  Ni  Ni6  1  1.00139185  0.66961937  1.00157077  1
  Ni  Ni7  1  0.16938084  0.83742106  0.16972936  1
  Ni  Ni8  1  0.99973299  0.67076166  0.33717339  1
  Cr  Cr9  1  0.33468137  1.00264703  1.00269778  1
  Cr  Cr10  1  0.50212668  0.16890323  0.17121935  1
  Ni  Ni11  1  0.33491153  0.00456690  0.33676923  1
  Fe  Fe12  1  0.33463781  0.33744904  1.00140053  1
  Fe  Fe13  1  0.50489401  0.50357094  0.16917807  1
  Ni  Ni14  1  0.33698674  0.33372207  0.33738299  1
  Fe  Fe15  1  0.33589942  0.66915629  1.00179871  1
  Ni  Ni16  1  0.50351490  0.83527224  0.17037881  1
  Cr  Cr17  1  0.33723071  0.67116159  0.33646821  1
  Fe  Fe18  1  0.67209500  1.00135820  1.00123874  1
  Cr  Cr19  1  0.83810197  0.17025926  0.16979454  1
  Ni  Ni20  1  0.66973975  1.00197124  0.33782839  1
  Fe  Fe21  1  0.67109810  0.33773745  1.00137305  1
  Ni  Ni22  1  0.83567061  0.50429040  0.17023971  1
  Ni  Ni23  1  0.66956465  0.33821924  0.33770183  1
  Fe  Fe24  1  0.67074133  0.66977917  1.00260029  1
  Fe  Fe25  1  0.83723253  0.83486636  0.16994488  1
  Ni  Ni26  1  0.67183933  0.66868378  0.33547851  1
  Fe  Fe27  1  0.16919456  0.16832844  0.50243994  1
  Fe  Fe28  1  0.00302759  1.00219200  0.66959335  1
  Ni  Ni29  1  0.16898082  0.17131268  0.83633855  1
  Fe  Fe30  1  0.16827788  0.50337864  0.50381627  1
  Fe  Fe31  1  0.00300703  0.33673379  0.67056483  1
  Ni  Ni32  1  0.16974309  0.50246203  0.83623751  1
  Ni  Ni33  1  0.17015363  0.83664402  0.50340571  1
  Fe  Fe34  1  0.00308396  0.66995122  0.66948663  1
  Fe  Fe35  1  0.16893423  0.83557626  0.83561055  1
  Fe  Fe36  1  0.50362471  0.16863513  0.50241638  1
  Ni  Ni37  1  0.33612371  1.00265000  0.66950719  1
  Ni  Ni38  1  0.50346142  0.16978255  0.83530010  1
  Fe  Fe39  1  0.50472485  0.50324892  0.50383423  1
  Fe  Fe40  1  0.33667648  0.33679487  0.67017911  1
  Ni  Ni41  1  0.50201705  0.50329970  0.83717012  1
  Ni  Ni42  1  0.50285781  0.83732494  0.50317312  1
  Ni  Ni43  1  0.33716421  0.67041002  0.67073254  1
  Ni  Ni44  1  0.50371170  0.83579393  0.83531912  1
  Ni  Ni45  1  0.83593504  0.17041493  0.50246176  1
  Fe  Fe46  1  0.66883719  1.00185073  0.66954173  1
  Ni  Ni47  1  0.83643399  0.16960938  0.83673402  1
  Ni  Ni48  1  0.83661810  0.50247576  0.50214279  1
  Fe  Fe49  1  0.66919190  0.33673807  0.66963179  1
  Ni  Ni50  1  0.83711411  0.50270806  0.83648687  1
  Ni  Ni51  1  0.83586217  0.83598109  0.50135750  1
  Ni  Ni52  1  0.66933121  0.66888223  0.66979573  1
  Ni  Ni53  1  0.83558846  0.83655403  0.83671766  1
" 