7665,Ni56Fe22Cr21_15,-231.752672505316, 182.504564553711,Ni56Fe22Cr21,"# generated using pymatgen
 data_Cr13Fe11Ni30
_symmetry_space_group_name_H-M   'P 1'
_cell_length_a   7.45676174
_cell_length_b   7.45676174
_cell_length_c   10.54545358
_cell_angle_alpha   90.00000000
_cell_angle_beta   90.00000000
_cell_angle_gamma   90.00000000
_symmetry_Int_Tables_number   1
_chemical_formula_structural   Cr13Fe11Ni30
_chemical_formula_sum   'Cr13 Fe11 Ni30'
_cell_volume   586.36197254
_cell_formula_units_Z   1
loop_
 _symmetry_equiv_pos_site_id
 _symmetry_equiv_pos_as_xyz
  1  'x, y, z'
loop_
 _atom_site_type_symbol
 _atom_site_label
 _atom_site_symmetry_multiplicity
 _atom_site_fract_x
 _atom_site_fract_y
 _atom_site_fract_z
 _atom_site_occupancy
  Ni  Ni0  1  0.99763717  0.99965966  1.00018847  1
  Cr  Cr1  1  0.16617571  0.17157718  0.16537981  1
  Cr  Cr2  1  0.99917357  0.00094515  0.33514080  1
  Ni  Ni3  1  0.00099649  0.33439999  0.00236145  1
  Ni  Ni4  1  0.16702893  0.50039453  0.16727304  1
  Ni  Ni5  1  0.00093794  0.33620028  0.33454451  1
  Ni  Ni6  1  0.99952484  0.66801147  0.00223384  1
  Cr  Cr7  1  0.16574777  0.82987149  0.16656275  1
  Ni  Ni8  1  0.00091522  0.66524246  0.33343159  1
  Cr  Cr9  1  0.33480225  0.00261669  0.99912469  1
  Fe  Fe10  1  0.50418456  0.17021230  0.16699277  1
  Cr  Cr11  1  0.33500662  0.00087400  0.33564623  1
  Ni  Ni12  1  0.33530723  0.33554849  0.99994939  1
  Fe  Fe13  1  0.50068345  0.49882269  0.16783832  1
  Ni  Ni14  1  0.33396399  0.33689721  0.33418241  1
  Ni  Ni15  1  0.33453706  0.66462328  1.00053811  1
  Cr  Cr16  1  0.50341475  0.83343164  0.16853539  1
  Fe  Fe17  1  0.33410906  0.66372779  0.33559690  1
  Ni  Ni18  1  0.66915350  1.00042856  1.00050171  1
  Ni  Ni19  1  0.83127545  0.16824939  0.16686907  1
  Ni  Ni20  1  0.66781521  1.00055643  0.33375015  1
  Ni  Ni21  1  0.66576585  0.33365785  0.00210394  1
  Fe  Fe22  1  0.83511014  0.50066839  0.16758857  1
  Ni  Ni23  1  0.66716850  0.33455292  0.33303851  1
  Fe  Fe24  1  0.66763350  0.66770869  1.00049922  1
  Ni  Ni25  1  0.83228231  0.83386238  0.16530269  1
  Ni  Ni26  1  0.66711869  0.66696073  0.33307466  1
  Ni  Ni27  1  0.16566737  0.16933469  0.50285328  1
  Fe  Fe28  1  0.00200837  0.00296502  0.66649536  1
  Ni  Ni29  1  0.16868303  0.16831085  0.83360113  1
  Ni  Ni30  1  0.16876728  0.50063993  0.49996884  1
  Ni  Ni31  1  0.00247484  0.33219025  0.66515898  1
  Cr  Cr32  1  0.16792055  0.49869551  0.83469882  1
  Ni  Ni33  1  0.16971652  0.83208946  0.50153468  1
  Fe  Fe34  1  0.00171564  0.66693575  0.66622347  1
  Cr  Cr35  1  0.16770162  0.83447326  0.83475851  1
  Cr  Cr36  1  0.50251563  0.16773679  0.50012309  1
  Ni  Ni37  1  0.33328140  0.00071276  0.66755030  1
  Ni  Ni38  1  0.50027356  0.16697094  0.83453243  1
  Ni  Ni39  1  0.49880953  0.50259025  0.50091093  1
  Ni  Ni40  1  0.33339757  0.33271447  0.66793645  1
  Fe  Fe41  1  0.50031036  0.49964236  0.83354187  1
  Ni  Ni42  1  0.49942623  0.83171185  0.50115160  1
  Fe  Fe43  1  0.33620377  0.66678193  0.66573742  1
  Ni  Ni44  1  0.50263367  0.83409773  0.83313815  1
  Ni  Ni45  1  0.83487590  0.16871615  0.50094291  1
  Fe  Fe46  1  0.66562540  0.00093115  0.66807043  1
  Cr  Cr47  1  0.83387949  0.16736869  0.83355707  1
  Cr  Cr48  1  0.83416787  0.49780553  0.50004707  1
  Ni  Ni49  1  0.66619659  0.33528583  0.66692514  1
  Cr  Cr50  1  0.83344415  0.50090073  0.83428521  1
  Cr  Cr51  1  0.83236781  0.83505928  0.50134275  1
  Ni  Ni52  1  0.66531024  0.66816345  0.66889308  1
  Fe  Fe53  1  0.83239972  0.83471761  0.83501591  1
" 