6159,Ni56Fe36Cr6_8,-238.512340328376, 213.736469384405,Ni56Fe36Cr6,"# generated using pymatgen
 data_Cr5Fe19Ni30
_symmetry_space_group_name_H-M   'P 1'
_cell_length_a   7.42550667
_cell_length_b   7.42550667
_cell_length_c   10.50125224
_cell_angle_alpha   90.00000000
_cell_angle_beta   90.00000000
_cell_angle_gamma   90.00000000
_symmetry_Int_Tables_number   1
_chemical_formula_structural   Cr5Fe19Ni30
_chemical_formula_sum   'Cr5 Fe19 Ni30'
_cell_volume   579.01961428
_cell_formula_units_Z   1
loop_
 _symmetry_equiv_pos_site_id
 _symmetry_equiv_pos_as_xyz
  1  'x, y, z'
loop_
 _atom_site_type_symbol
 _atom_site_label
 _atom_site_symmetry_multiplicity
 _atom_site_fract_x
 _atom_site_fract_y
 _atom_site_fract_z
 _atom_site_occupancy
  Ni  Ni0  1  0.00390006  0.00454288  0.00292240  1
  Ni  Ni1  1  0.16873558  0.16930456  0.16877746  1
  Fe  Fe2  1  1.00217458  0.00474189  0.33593783  1
  Ni  Ni3  1  0.00420285  0.33634695  0.00372605  1
  Ni  Ni4  1  0.16977592  0.50262375  0.16944488  1
  Fe  Fe5  1  1.00187828  0.33653574  0.33618418  1
  Fe  Fe6  1  0.00299826  0.66864534  0.00306893  1
  Ni  Ni7  1  0.17129797  0.83646001  0.16909190  1
  Fe  Fe8  1  1.00220857  0.66711291  0.33585833  1
  Ni  Ni9  1  0.33636629  1.00224661  0.00410246  1
  Fe  Fe10  1  0.50201996  0.16887825  0.16963762  1
  Fe  Fe11  1  0.33676057  1.00246224  0.33462323  1
  Fe  Fe12  1  0.33436376  0.33538467  1.00272475  1
  Ni  Ni13  1  0.50203064  0.50374027  0.17044987  1
  Fe  Fe14  1  0.33596348  0.33772526  0.33555073  1
  Fe  Fe15  1  0.33663242  0.66924717  0.00372335  1
  Ni  Ni16  1  0.50107286  0.83590972  0.16887412  1
  Fe  Fe17  1  0.33790463  0.66820899  0.33522702  1
  Ni  Ni18  1  0.66812282  1.00151201  1.00237187  1
  Ni  Ni19  1  0.83712861  0.17026385  0.17028147  1
  Fe  Fe20  1  0.66946158  1.00279332  0.33612961  1
  Cr  Cr21  1  0.67054013  0.33675271  0.00283790  1
  Ni  Ni22  1  0.83658757  0.50118550  0.16951360  1
  Ni  Ni23  1  0.67060514  0.33836066  0.33571833  1
  Fe  Fe24  1  0.66875774  0.67101687  1.00213519  1
  Cr  Cr25  1  0.83596362  0.83702182  0.16884931  1
  Ni  Ni26  1  0.66800828  0.66766604  0.33665444  1
  Ni  Ni27  1  0.16708450  0.17052855  0.50389028  1
  Ni  Ni28  1  1.00229018  0.00543953  0.66916664  1
  Fe  Fe29  1  0.16958716  0.17037746  0.83606008  1
  Ni  Ni30  1  0.16909789  0.50178996  0.50281607  1
  Ni  Ni31  1  0.00359920  0.33587753  0.66879401  1
  Ni  Ni32  1  0.16987460  0.50159722  0.83613026  1
  Cr  Cr33  1  0.16979834  0.83608183  0.50322570  1
  Fe  Fe34  1  1.00118073  0.66859943  0.66946373  1
  Cr  Cr35  1  0.16884662  0.83612972  0.83654570  1
  Cr  Cr36  1  0.50399024  0.16942336  0.50309717  1
  Ni  Ni37  1  0.33660541  0.00315129  0.66994434  1
  Ni  Ni38  1  0.50346485  0.16866580  0.83569869  1
  Ni  Ni39  1  0.50328485  0.50464450  0.50307771  1
  Fe  Fe40  1  0.33536138  0.33645348  0.67011774  1
  Ni  Ni41  1  0.50152684  0.50305854  0.83485888  1
  Ni  Ni42  1  0.50403338  0.83450910  0.50341777  1
  Fe  Fe43  1  0.33780743  0.66855422  0.66944558  1
  Ni  Ni44  1  0.50472015  0.83666059  0.83610148  1
  Ni  Ni45  1  0.83756602  0.16977569  0.50275311  1
  Ni  Ni46  1  0.66949569  1.00066848  0.66988559  1
  Ni  Ni47  1  0.83609185  0.16782012  0.83535601  1
  Ni  Ni48  1  0.83600582  0.50207972  0.50309918  1
  Fe  Fe49  1  0.67055238  0.33586716  0.66979371  1
  Fe  Fe50  1  0.83631390  0.50351459  0.83529202  1
  Fe  Fe51  1  0.83432130  0.83576035  0.50355597  1
  Ni  Ni52  1  0.66844923  0.66962007  0.66928801  1
  Ni  Ni53  1  0.83463554  0.83770939  0.83575540  1
" 