3660,Ni56Fe40Cr3_6,-239.929377521516, 216.268820777656,Ni56Fe40Cr3,"# generated using pymatgen
 data_CrFe7Ni10
_symmetry_space_group_name_H-M   'P 1'
_cell_length_a   7.41251370
_cell_length_b   7.41251370
_cell_length_c   10.48287740
_cell_angle_alpha   90.00000000
_cell_angle_beta   90.00000000
_cell_angle_gamma   90.00000000
_symmetry_Int_Tables_number   1
_chemical_formula_structural   CrFe7Ni10
_chemical_formula_sum   'Cr3 Fe21 Ni30'
_cell_volume   575.98546563
_cell_formula_units_Z   3
loop_
 _symmetry_equiv_pos_site_id
 _symmetry_equiv_pos_as_xyz
  1  'x, y, z'
loop_
 _atom_site_type_symbol
 _atom_site_label
 _atom_site_symmetry_multiplicity
 _atom_site_fract_x
 _atom_site_fract_y
 _atom_site_fract_z
 _atom_site_occupancy
  Ni  Ni0  1  1.00261777  1.00303294  1.00201036  1
  Fe  Fe1  1  0.17129521  0.17138753  0.17052758  1
  Fe  Fe2  1  1.00364645  0.00387409  0.33797758  1
  Fe  Fe3  1  1.00350220  0.33624812  1.00333910  1
  Fe  Fe4  1  0.17071051  0.50257681  0.17038601  1
  Ni  Ni5  1  0.00416601  0.33752185  0.33631890  1
  Ni  Ni6  1  1.00285717  0.67044713  1.00221379  1
  Cr  Cr7  1  0.17142322  0.83695073  0.17011637  1
  Ni  Ni8  1  1.00241002  0.66912911  0.33864956  1
  Ni  Ni9  1  0.33763587  0.00581921  1.00290567  1
  Fe  Fe10  1  0.50297328  0.16962398  0.16937291  1
  Ni  Ni11  1  0.33853102  0.00464880  0.33808702  1
  Ni  Ni12  1  0.33784674  0.33625412  1.00309644  1
  Fe  Fe13  1  0.50329703  0.50408223  0.17064497  1
  Ni  Ni14  1  0.33625848  0.33624207  0.33739770  1
  Fe  Fe15  1  0.33696472  0.66934991  1.00334019  1
  Ni  Ni16  1  0.50394860  0.83719224  0.17097086  1
  Ni  Ni17  1  0.33775045  0.67014331  0.33750793  1
  Ni  Ni18  1  0.67077973  0.00478252  0.00468470  1
  Fe  Fe19  1  0.83676781  0.16974591  0.16994323  1
  Fe  Fe20  1  0.67014513  1.00304947  0.33681914  1
  Ni  Ni21  1  0.66929695  0.33601171  1.00290410  1
  Fe  Fe22  1  0.83702600  0.50454453  0.17066798  1
  Fe  Fe23  1  0.67011875  0.33802672  0.33764217  1
  Fe  Fe24  1  0.67103269  0.67016446  0.00428278  1
  Fe  Fe25  1  0.83526375  0.83674430  0.17006038  1
  Ni  Ni26  1  0.67087403  0.67140180  0.33733696  1
  Fe  Fe27  1  0.16950839  0.17066715  0.50297142  1
  Fe  Fe28  1  0.00426329  1.00282553  0.67067474  1
  Fe  Fe29  1  0.17021350  0.17054941  0.83753410  1
  Fe  Fe30  1  0.16922437  0.50419016  0.50369069  1
  Ni  Ni31  1  1.00319076  0.33775434  0.67124800  1
  Ni  Ni32  1  0.17037330  0.50435798  0.83735170  1
  Ni  Ni33  1  0.17049662  0.83731089  0.50345624  1
  Ni  Ni34  1  0.00394821  0.66990276  0.67017123  1
  Ni  Ni35  1  0.16879235  0.83687487  0.83732299  1
  Fe  Fe36  1  0.50354019  0.17109432  0.50315994  1
  Fe  Fe37  1  0.33462303  0.00372483  0.66971863  1
  Ni  Ni38  1  0.50366916  0.17325232  0.83826941  1
  Ni  Ni39  1  0.50409895  0.50335846  0.50349404  1
  Fe  Fe40  1  0.33773612  0.33855956  0.67083459  1
  Ni  Ni41  1  0.50370892  0.50121574  0.83755921  1
  Fe  Fe42  1  0.50359777  0.83540474  0.50224989  1
  Ni  Ni43  1  0.33567701  0.66982573  0.66965778  1
  Cr  Cr44  1  0.50220379  0.83612801  0.83795403  1
  Ni  Ni45  1  0.83776318  0.17169165  0.50223464  1
  Cr  Cr46  1  0.67105284  0.00431940  0.67019581  1
  Ni  Ni47  1  0.83726358  0.17167450  0.83821282  1
  Ni  Ni48  1  0.83597856  0.50282443  0.50364649  1
  Ni  Ni49  1  0.67077033  0.33803716  0.67034047  1
  Ni  Ni50  1  0.83695396  0.50252575  0.83668644  1
  Ni  Ni51  1  0.83903912  0.83652037  0.50200292  1
  Ni  Ni52  1  0.67141056  0.66822135  0.67021482  1
  Ni  Ni53  1  0.84040167  0.83683215  0.83858172  1
" 