265,Ni56Fe11Cr32_10,-227.156569268815, 160.955110242412,Ni56Fe11Cr32,"# generated using pymatgen
 data_Cr3FeNi5
_symmetry_space_group_name_H-M   'P 1'
_cell_length_a   7.47880315
_cell_length_b   7.47880315
_cell_length_c   10.57662485
_cell_angle_alpha   90.00000000
_cell_angle_beta   90.00000000
_cell_angle_gamma   90.00000000
_symmetry_Int_Tables_number   1
_chemical_formula_structural   Cr3FeNi5
_chemical_formula_sum   'Cr18 Fe6 Ni30'
_cell_volume   591.57703327
_cell_formula_units_Z   6
loop_
 _symmetry_equiv_pos_site_id
 _symmetry_equiv_pos_as_xyz
  1  'x, y, z'
loop_
 _atom_site_type_symbol
 _atom_site_label
 _atom_site_symmetry_multiplicity
 _atom_site_fract_x
 _atom_site_fract_y
 _atom_site_fract_z
 _atom_site_occupancy
  Fe  Fe0  1  0.99677154  0.99668542  0.00039955  1
  Ni  Ni1  1  0.16488785  0.16466754  0.16804783  1
  Ni  Ni2  1  0.99792665  0.99915522  0.33192001  1
  Cr  Cr3  1  0.99624777  0.33497296  -0.00015564  1
  Ni  Ni4  1  0.16514643  0.50266216  0.16639138  1
  Cr  Cr5  1  0.99807161  0.33150645  0.33104801  1
  Ni  Ni6  1  0.99920982  0.66679918  -0.00071848  1
  Ni  Ni7  1  0.16415844  0.83042750  0.16587916  1
  Ni  Ni8  1  0.99859783  0.66641943  0.33036025  1
  Cr  Cr9  1  0.33444563  0.99543551  0.00123071  1
  Ni  Ni10  1  0.50158698  0.16665518  0.16553706  1
  Cr  Cr11  1  0.33279609  0.00023716  0.33122226  1
  Cr  Cr12  1  0.33217876  0.33449398  0.00082832  1
  Cr  Cr13  1  0.50008748  0.49909916  0.16832544  1
  Fe  Fe14  1  0.33305361  0.33322522  0.33290520  1
  Ni  Ni15  1  0.33111945  0.66771116  0.99761097  1
  Ni  Ni16  1  0.49858108  0.83179742  0.16573086  1
  Ni  Ni17  1  0.33202218  0.66499548  0.33104935  1
  Fe  Fe18  1  0.66886593  0.99795071  0.00016346  1
  Ni  Ni19  1  0.83132775  0.16545649  0.16452221  1
  Cr  Cr20  1  0.66766577  0.99897953  0.32980436  1
  Ni  Ni21  1  0.66859700  0.33149387  0.99869616  1
  Ni  Ni22  1  0.83318525  0.49968981  0.16680116  1
  Ni  Ni23  1  0.66592668  0.33157456  0.33280431  1
  Cr  Cr24  1  0.66761095  0.66701278  0.99903710  1
  Ni  Ni25  1  0.83526844  0.83191169  0.16759957  1
  Ni  Ni26  1  0.66723172  0.66569472  0.33185349  1
  Fe  Fe27  1  0.16304656  0.16514482  0.49809153  1
  Ni  Ni28  1  0.99436897  -0.00028594  0.66581969  1
  Cr  Cr29  1  0.16259204  0.16295761  0.83218521  1
  Ni  Ni30  1  0.16818415  0.49932029  0.49612323  1
  Cr  Cr31  1  0.99809725  0.33290386  0.66670337  1
  Ni  Ni32  1  0.16583871  0.50262625  0.83490852  1
  Cr  Cr33  1  0.16141864  0.83080544  0.49810612  1
  Cr  Cr34  1  0.99684100  0.66551104  0.66816402  1
  Ni  Ni35  1  0.16343239  0.83083180  0.83414474  1
  Ni  Ni36  1  0.50215061  0.16929654  0.49895612  1
  Cr  Cr37  1  0.33356713  0.99845908  0.66558301  1
  Cr  Cr38  1  0.50336174  0.16614638  0.83354590  1
  Fe  Fe39  1  0.50057937  0.49943100  0.49753693  1
  Cr  Cr40  1  0.33187672  0.33411650  0.66340138  1
  Ni  Ni41  1  0.50153440  0.50020934  0.83119398  1
  Cr  Cr42  1  0.50253527  0.83117092  0.49915629  1
  Cr  Cr43  1  0.33405402  0.66499778  0.66947438  1
  Ni  Ni44  1  0.50113803  0.83121633  0.83249357  1
  Ni  Ni45  1  0.82990206  0.16408225  0.50062115  1
  Ni  Ni46  1  0.66852491  0.99818520  0.66663116  1
  Ni  Ni47  1  0.83064123  0.16416208  0.83225095  1
  Cr  Cr48  1  0.83147684  0.50181334  0.49770724  1
  Fe  Fe49  1  0.66695478  0.33264480  0.66604883  1
  Ni  Ni50  1  0.83047868  0.49919191  0.83267337  1
  Ni  Ni51  1  0.83267203  0.83455884  0.49887340  1
  Ni  Ni52  1  0.66672117  0.66737753  0.66703668  1
  Ni  Ni53  1  0.83300271  0.83397485  0.83123529  1
" 