3168,Ni56Fe36Cr6_0,-238.453541643407, 216.450952219167,Ni56Fe36Cr6,"# generated using pymatgen
 data_Cr5Fe19Ni30
_symmetry_space_group_name_H-M   'P 1'
_cell_length_a   7.41903151
_cell_length_b   7.41903151
_cell_length_c   10.49209498
_cell_angle_alpha   90.00000000
_cell_angle_beta   90.00000000
_cell_angle_gamma   90.00000000
_symmetry_Int_Tables_number   1
_chemical_formula_structural   Cr5Fe19Ni30
_chemical_formula_sum   'Cr5 Fe19 Ni30'
_cell_volume   577.50619063
_cell_formula_units_Z   1
loop_
 _symmetry_equiv_pos_site_id
 _symmetry_equiv_pos_as_xyz
  1  'x, y, z'
loop_
 _atom_site_type_symbol
 _atom_site_label
 _atom_site_symmetry_multiplicity
 _atom_site_fract_x
 _atom_site_fract_y
 _atom_site_fract_z
 _atom_site_occupancy
  Cr  Cr0  1  0.00392670  1.00044704  0.00384625  1
  Fe  Fe1  1  0.16971683  0.17025314  0.17184372  1
  Fe  Fe2  1  1.00299022  1.00303077  0.33685308  1
  Fe  Fe3  1  1.00186448  0.33831518  0.00457515  1
  Ni  Ni4  1  0.16962189  0.50476806  0.17079228  1
  Fe  Fe5  1  0.00438320  0.33670953  0.33679403  1
  Ni  Ni6  1  1.00262342  0.66872122  1.00260163  1
  Ni  Ni7  1  0.17096933  0.83510495  0.17016451  1
  Ni  Ni8  1  1.00278043  0.66980079  0.33677518  1
  Ni  Ni9  1  0.33836569  1.00295700  1.00244486  1
  Fe  Fe10  1  0.50361717  0.16858619  0.16975475  1
  Ni  Ni11  1  0.33642727  0.00487373  0.33636577  1
  Cr  Cr12  1  0.33750012  0.33556812  0.00345837  1
  Ni  Ni13  1  0.50295135  0.50418015  0.17000231  1
  Ni  Ni14  1  0.33517283  0.33573187  0.33696011  1
  Fe  Fe15  1  0.33654870  0.67194072  1.00296580  1
  Fe  Fe16  1  0.50392723  0.83637288  0.16972633  1
  Fe  Fe17  1  0.33659336  0.66987184  0.33665853  1
  Ni  Ni18  1  0.66766192  0.00344458  0.00434705  1
  Ni  Ni19  1  0.83547595  0.17011547  0.16979446  1
  Ni  Ni20  1  0.66973005  1.00215958  0.33616619  1
  Ni  Ni21  1  0.66972776  0.33702173  0.00382822  1
  Ni  Ni22  1  0.83713216  0.50302918  0.16796588  1
  Cr  Cr23  1  0.66905688  0.33671498  0.33679196  1
  Fe  Fe24  1  0.67007602  0.67043469  0.00337199  1
  Ni  Ni25  1  0.83607457  0.83656454  0.17066376  1
  Ni  Ni26  1  0.67181732  0.67104706  0.33644210  1
  Ni  Ni27  1  0.17032425  0.16944386  0.50370754  1
  Ni  Ni28  1  0.00592535  1.00201758  0.66874537  1
  Fe  Fe29  1  0.17200000  0.16796489  0.83455175  1
  Ni  Ni30  1  0.16975080  0.50408577  0.50288572  1
  Fe  Fe31  1  0.00412252  0.33748966  0.66833765  1
  Fe  Fe32  1  0.16924750  0.50516368  0.83576136  1
  Ni  Ni33  1  0.17049344  0.83618066  0.50385561  1
  Ni  Ni34  1  1.00307333  0.66993824  0.67032581  1
  Ni  Ni35  1  0.17142060  0.83517716  0.83568430  1
  Ni  Ni36  1  0.50247101  0.16971863  0.50346781  1
  Ni  Ni37  1  0.33448048  0.00437761  0.67090450  1
  Ni  Ni38  1  0.50243556  0.16944289  0.83705648  1
  Fe  Fe39  1  0.50220498  0.50337566  0.50355880  1
  Fe  Fe40  1  0.33633838  0.33650245  0.66921855  1
  Fe  Fe41  1  0.50437411  0.50475365  0.83608744  1
  Fe  Fe42  1  0.50220170  0.83636541  0.50296595  1
  Ni  Ni43  1  0.33564265  0.66927203  0.66982989  1
  Ni  Ni44  1  0.50139124  0.83648475  0.83808592  1
  Ni  Ni45  1  0.83691350  0.17045267  0.50327715  1
  Cr  Cr46  1  0.66936998  1.00260818  0.66882127  1
  Cr  Cr47  1  0.83541115  0.17086272  0.83651232  1
  Ni  Ni48  1  0.83716781  0.50339233  0.50437264  1
  Fe  Fe49  1  0.66924387  0.33865895  0.66918722  1
  Fe  Fe50  1  0.83608482  0.50584229  0.83653659  1
  Fe  Fe51  1  0.83803306  0.83585425  0.50255895  1
  Ni  Ni52  1  0.67099336  0.66768671  0.67020055  1
  Ni  Ni53  1  0.83689616  0.83386677  0.83629308  1
" 