1479,Ni56Fe40Cr3_4,-240.034631893231, 219.085928267239,Ni56Fe40Cr3,"# generated using pymatgen
 data_CrFe7Ni10
_symmetry_space_group_name_H-M   'P 1'
_cell_length_a   7.41108843
_cell_length_b   7.41108843
_cell_length_c   10.48086176
_cell_angle_alpha   90.00000000
_cell_angle_beta   90.00000000
_cell_angle_gamma   90.00000000
_symmetry_Int_Tables_number   1
_chemical_formula_structural   CrFe7Ni10
_chemical_formula_sum   'Cr3 Fe21 Ni30'
_cell_volume   575.65327950
_cell_formula_units_Z   3
loop_
 _symmetry_equiv_pos_site_id
 _symmetry_equiv_pos_as_xyz
  1  'x, y, z'
loop_
 _atom_site_type_symbol
 _atom_site_label
 _atom_site_symmetry_multiplicity
 _atom_site_fract_x
 _atom_site_fract_y
 _atom_site_fract_z
 _atom_site_occupancy
  Ni  Ni0  1  1.00330945  1.00311576  0.00462550  1
  Ni  Ni1  1  0.17125833  0.17071290  0.17006423  1
  Fe  Fe2  1  1.00315972  0.00397038  0.33689008  1
  Fe  Fe3  1  0.00476374  0.33581726  0.00398767  1
  Ni  Ni4  1  0.17184288  0.50413477  0.16986322  1
  Ni  Ni5  1  0.00384563  0.33666806  0.33875948  1
  Ni  Ni6  1  0.00679050  0.67194479  0.00378955  1
  Fe  Fe7  1  0.17007616  0.83749591  0.17018584  1
  Fe  Fe8  1  0.00395652  0.67069213  0.33830439  1
  Ni  Ni9  1  0.33685682  0.00410153  1.00373757  1
  Ni  Ni10  1  0.50368307  0.16999003  0.16896082  1
  Fe  Fe11  1  0.33756596  0.00461491  0.33674970  1
  Ni  Ni12  1  0.33805424  0.33761208  0.00481906  1
  Fe  Fe13  1  0.50144150  0.50211431  0.17094754  1
  Fe  Fe14  1  0.33755151  0.33710790  0.33722860  1
  Ni  Ni15  1  0.33471802  0.66961324  1.00358189  1
  Fe  Fe16  1  0.50296428  0.83865504  0.17058129  1
  Ni  Ni17  1  0.33639153  0.66988593  0.33700707  1
  Ni  Ni18  1  0.67115896  0.00644650  1.00376828  1
  Ni  Ni19  1  0.83638686  0.16815966  0.17024003  1
  Ni  Ni20  1  0.67112711  0.00472894  0.33693263  1
  Ni  Ni21  1  0.66882878  0.33412935  1.00343386  1
  Cr  Cr22  1  0.83838024  0.50351955  0.17059966  1
  Ni  Ni23  1  0.67019963  0.33556864  0.33784706  1
  Cr  Cr24  1  0.66967827  0.67079909  1.00318310  1
  Ni  Ni25  1  0.83801797  0.83941509  0.17039012  1
  Fe  Fe26  1  0.67015932  0.67070427  0.33817886  1
  Fe  Fe27  1  0.17022316  0.17107947  0.50370209  1
  Ni  Ni28  1  1.00311327  1.00221254  0.66955459  1
  Fe  Fe29  1  0.17148443  0.17026618  0.83758340  1
  Ni  Ni30  1  0.17011909  0.50436941  0.50418028  1
  Fe  Fe31  1  0.00500415  0.33688194  0.66976092  1
  Fe  Fe32  1  0.17148731  0.50360714  0.83732849  1
  Ni  Ni33  1  0.16932996  0.83648259  0.50369226  1
  Ni  Ni34  1  0.00447389  0.67148400  0.66973599  1
  Fe  Fe35  1  0.17085592  0.83745301  0.83704688  1
  Ni  Ni36  1  0.50303553  0.17013119  0.50367595  1
  Fe  Fe37  1  0.33713611  0.00399716  0.67079507  1
  Ni  Ni38  1  0.50372297  0.16948425  0.83868854  1
  Ni  Ni39  1  0.50292806  0.50339430  0.50268652  1
  Ni  Ni40  1  0.33655915  0.33791285  0.66934120  1
  Ni  Ni41  1  0.50187782  0.50378551  0.83776685  1
  Fe  Fe42  1  0.50393841  0.83641114  0.50390211  1
  Fe  Fe43  1  0.33704487  0.67050895  0.67019823  1
  Ni  Ni44  1  0.50301394  0.83805939  0.83576216  1
  Fe  Fe45  1  0.83762435  0.16998251  0.50285956  1
  Ni  Ni46  1  0.67111840  1.00275047  0.67062345  1
  Ni  Ni47  1  0.83726252  0.16936549  0.83864078  1
  Ni  Ni48  1  0.83827995  0.50539268  0.50349914  1
  Cr  Cr49  1  0.66900181  0.33636710  0.67007056  1
  Fe  Fe50  1  0.83741660  0.50357204  0.83699520  1
  Ni  Ni51  1  0.83793584  0.83659292  0.50442059  1
  Fe  Fe52  1  0.67076326  0.67202621  0.67041318  1
  Fe  Fe53  1  0.83695216  0.83858145  0.83628881  1
" 