3232,Ni56Fe11Cr32_13,-227.452474183952, 170.369857310067,Ni56Fe11Cr32,"# generated using pymatgen
 data_Cr3FeNi5
_symmetry_space_group_name_H-M   'P 1'
_cell_length_a   7.47177545
_cell_length_b   7.47177545
_cell_length_c   10.56668617
_cell_angle_alpha   90.00000000
_cell_angle_beta   90.00000000
_cell_angle_gamma   90.00000000
_symmetry_Int_Tables_number   1
_chemical_formula_structural   Cr3FeNi5
_chemical_formula_sum   'Cr18 Fe6 Ni30'
_cell_volume   589.91091490
_cell_formula_units_Z   6
loop_
 _symmetry_equiv_pos_site_id
 _symmetry_equiv_pos_as_xyz
  1  'x, y, z'
loop_
 _atom_site_type_symbol
 _atom_site_label
 _atom_site_symmetry_multiplicity
 _atom_site_fract_x
 _atom_site_fract_y
 _atom_site_fract_z
 _atom_site_occupancy
  Cr  Cr0  1  0.99892096  0.00098284  0.99513773  1
  Cr  Cr1  1  0.16784844  0.16834748  0.16541766  1
  Cr  Cr2  1  0.00051355  -0.00028832  0.33623867  1
  Ni  Ni3  1  0.99950285  0.33356861  0.99844508  1
  Cr  Cr4  1  0.16222009  0.49986464  0.16681023  1
  Ni  Ni5  1  0.99528696  0.33367657  0.33252081  1
  Fe  Fe6  1  0.99694438  0.66403224  0.99681115  1
  Cr  Cr7  1  0.16899126  0.83083508  0.16696184  1
  Ni  Ni8  1  0.99851984  0.66542106  0.33431870  1
  Ni  Ni9  1  0.33373679  0.00131087  0.00019845  1
  Ni  Ni10  1  0.50151644  0.16385429  0.16678638  1
  Ni  Ni11  1  0.33327991  0.99801187  0.33254467  1
  Ni  Ni12  1  0.33196788  0.33226187  0.99886144  1
  Ni  Ni13  1  0.50187218  0.49932459  0.16622426  1
  Cr  Cr14  1  0.33562785  0.33340381  0.33332377  1
  Cr  Cr15  1  0.33556036  0.66504801  0.99893753  1
  Ni  Ni16  1  0.50041180  0.83607630  0.16637492  1
  Ni  Ni17  1  0.33438023  0.66856140  0.33348215  1
  Ni  Ni18  1  0.66628676  0.99827617  0.00172313  1
  Fe  Fe19  1  0.83027896  0.16909954  0.16661461  1
  Fe  Fe20  1  0.66461952  0.00123306  0.33097849  1
  Cr  Cr21  1  0.66726222  0.33551798  0.00046283  1
  Ni  Ni22  1  0.83321447  0.49815279  0.16682266  1
  Ni  Ni23  1  0.66809693  0.33448700  0.33172569  1
  Ni  Ni24  1  0.66756427  0.66635275  -0.00028204  1
  Cr  Cr25  1  0.83082652  0.83071994  0.16506904  1
  Cr  Cr26  1  0.66574723  0.66322421  0.33267304  1
  Ni  Ni27  1  0.16421659  0.16463368  0.49997182  1
  Ni  Ni28  1  0.99812966  0.99926182  0.66723436  1
  Ni  Ni29  1  0.16396182  0.16827153  0.83368241  1
  Cr  Cr30  1  0.16302136  0.50180895  0.49788421  1
  Ni  Ni31  1  0.99823523  0.33209865  0.66788103  1
  Ni  Ni32  1  0.16282555  0.49945861  0.83357788  1
  Ni  Ni33  1  0.16551088  0.83205093  0.49943301  1
  Ni  Ni34  1  0.99779709  0.66756402  0.66730940  1
  Ni  Ni35  1  0.16419347  0.83117361  0.83192460  1
  Cr  Cr36  1  0.50138520  0.16603962  0.49945092  1
  Cr  Cr37  1  0.32722216  0.99879781  0.66640161  1
  Cr  Cr38  1  0.50130925  0.16517213  0.83327405  1
  Ni  Ni39  1  0.50286512  0.50115982  0.50142241  1
  Cr  Cr40  1  0.33177253  0.33568910  0.66765628  1
  Fe  Fe41  1  0.50057440  0.50094331  0.83222302  1
  Cr  Cr42  1  0.49918138  0.83259035  0.49945670  1
  Ni  Ni43  1  0.33321953  0.66498301  0.66636150  1
  Cr  Cr44  1  0.50202526  0.83359395  0.83378040  1
  Cr  Cr45  1  0.83287654  0.16874072  0.50053624  1
  Ni  Ni46  1  0.67202057  0.99743081  0.66703878  1
  Ni  Ni47  1  0.83435539  0.16688226  0.83185094  1
  Ni  Ni48  1  0.83311561  0.49996415  0.49985192  1
  Fe  Fe49  1  0.66994562  0.33620529  0.66663338  1
  Ni  Ni50  1  0.83571790  0.50053174  0.83236129  1
  Fe  Fe51  1  0.83515283  0.83035864  0.50261806  1
  Ni  Ni52  1  0.66821117  0.66450981  0.66658399  1
  Ni  Ni53  1  0.83307473  0.83164453  0.83133242  1
" 