2469,Ni56Fe20Cr22_5,-231.120336803538, 179.227579145599,Ni56Fe20Cr22,"# generated using pymatgen
 data_Cr7(FeNi3)5
_symmetry_space_group_name_H-M   'P 1'
_cell_length_a   7.45837447
_cell_length_b   7.45837447
_cell_length_c   10.54773434
_cell_angle_alpha   90.00000000
_cell_angle_beta   90.00000000
_cell_angle_gamma   90.00000000
_symmetry_Int_Tables_number   1
_chemical_formula_structural   Cr7(FeNi3)5
_chemical_formula_sum   'Cr14 Fe10 Ni30'
_cell_volume   586.74250748
_cell_formula_units_Z   2
loop_
 _symmetry_equiv_pos_site_id
 _symmetry_equiv_pos_as_xyz
  1  'x, y, z'
loop_
 _atom_site_type_symbol
 _atom_site_label
 _atom_site_symmetry_multiplicity
 _atom_site_fract_x
 _atom_site_fract_y
 _atom_site_fract_z
 _atom_site_occupancy
  Ni  Ni0  1  1.00024959  1.00021385  0.99800259  1
  Fe  Fe1  1  0.16744944  0.16518893  0.16794220  1
  Ni  Ni2  1  0.00153279  0.99968962  0.33503085  1
  Fe  Fe3  1  0.99953640  0.33361782  0.99855896  1
  Fe  Fe4  1  0.16487596  0.49917646  0.16726154  1
  Fe  Fe5  1  0.00164061  0.33254305  0.33415164  1
  Fe  Fe6  1  0.99954267  0.66868680  1.00051311  1
  Ni  Ni7  1  0.16393326  0.83378714  0.16991439  1
  Ni  Ni8  1  0.00141931  0.66720415  0.33174750  1
  Cr  Cr9  1  0.33260380  0.00178004  0.99916876  1
  Ni  Ni10  1  0.50009334  0.16837382  0.16746251  1
  Ni  Ni11  1  0.33252616  0.00090628  0.33335343  1
  Ni  Ni12  1  0.33203015  0.33293990  0.99899921  1
  Cr  Cr13  1  0.49834420  0.49797318  0.16506575  1
  Ni  Ni14  1  0.33176406  0.33143036  0.33265549  1
  Cr  Cr15  1  0.33330929  0.66807181  0.99912957  1
  Fe  Fe16  1  0.50171468  0.83745281  0.16715223  1
  Ni  Ni17  1  0.33113158  0.66923586  0.33221275  1
  Ni  Ni18  1  0.66921519  1.00023648  0.00106044  1
  Cr  Cr19  1  0.83360773  0.16481509  0.16565911  1
  Ni  Ni20  1  0.66738568  0.00128047  0.33257510  1
  Ni  Ni21  1  0.66721810  0.33440997  0.99726844  1
  Fe  Fe22  1  0.83546197  0.50124531  0.16478060  1
  Cr  Cr23  1  0.66951391  0.33289931  0.33795567  1
  Ni  Ni24  1  0.67093033  0.66781324  0.99980915  1
  Ni  Ni25  1  0.83840974  0.83549492  0.16522959  1
  Cr  Cr26  1  0.67021062  0.66962171  0.33144779  1
  Ni  Ni27  1  0.16522201  0.16442818  0.49739126  1
  Ni  Ni28  1  1.00040220  0.00069765  0.66844221  1
  Fe  Fe29  1  0.16437552  0.16721314  0.83526793  1
  Cr  Cr30  1  0.16706104  0.50418726  0.49769779  1
  Cr  Cr31  1  0.99943571  0.33261400  0.66718003  1
  Ni  Ni32  1  0.16627088  0.50161337  0.83686400  1
  Ni  Ni33  1  0.16690349  0.83633223  0.49984714  1
  Ni  Ni34  1  0.99790776  0.66717550  0.66987001  1
  Ni  Ni35  1  0.16212725  0.83341918  0.83241620  1
  Fe  Fe36  1  0.49893445  0.16437027  0.49862069  1
  Cr  Cr37  1  0.33129800  0.00078782  0.66865938  1
  Ni  Ni38  1  0.50391655  0.16944965  0.83646545  1
  Cr  Cr39  1  0.50080845  0.50173687  0.50374371  1
  Cr  Cr40  1  0.33383313  0.33113176  0.67047571  1
  Ni  Ni41  1  0.50203645  0.49895027  0.83463100  1
  Ni  Ni42  1  0.49881315  0.83463361  0.49644287  1
  Cr  Cr43  1  0.33404819  0.67011458  0.67050432  1
  Ni  Ni44  1  0.50353039  0.83363287  0.83661306  1
  Ni  Ni45  1  0.83570764  0.16606735  0.49995298  1
  Cr  Cr46  1  0.66746627  1.00041328  0.66769074  1
  Ni  Ni47  1  0.83319801  0.16593008  0.83544964  1
  Ni  Ni48  1  0.83516746  0.49979866  0.50120884  1
  Fe  Fe49  1  0.67036729  0.33414969  0.66919203  1
  Ni  Ni50  1  0.83341631  0.50110761  0.83543452  1
  Cr  Cr51  1  0.83765393  0.83433843  0.50173929  1
  Ni  Ni52  1  0.67001475  0.66615583  0.66997972  1
  Ni  Ni53  1  0.83583071  0.83486002  0.83550866  1
" 