3254,Ni56Fe11Cr32_15,-227.409258344745, 161.193050994822,Ni56Fe11Cr32,"# generated using pymatgen
 data_Cr3FeNi5
_symmetry_space_group_name_H-M   'P 1'
_cell_length_a   7.47900045
_cell_length_b   7.47900045
_cell_length_c   10.57690386
_cell_angle_alpha   90.00000000
_cell_angle_beta   90.00000000
_cell_angle_gamma   90.00000000
_symmetry_Int_Tables_number   1
_chemical_formula_structural   Cr3FeNi5
_chemical_formula_sum   'Cr18 Fe6 Ni30'
_cell_volume   591.62385255
_cell_formula_units_Z   6
loop_
 _symmetry_equiv_pos_site_id
 _symmetry_equiv_pos_as_xyz
  1  'x, y, z'
loop_
 _atom_site_type_symbol
 _atom_site_label
 _atom_site_symmetry_multiplicity
 _atom_site_fract_x
 _atom_site_fract_y
 _atom_site_fract_z
 _atom_site_occupancy
  Ni  Ni0  1  0.00008681  0.99671281  0.99906166  1
  Cr  Cr1  1  0.16904553  0.16550855  0.16467785  1
  Cr  Cr2  1  0.99887830  0.99607381  0.33288635  1
  Cr  Cr3  1  0.99813947  0.33424981  -0.00076579  1
  Ni  Ni4  1  0.16688828  0.50263394  0.16498932  1
  Cr  Cr5  1  0.99619101  0.33634591  0.33208640  1
  Ni  Ni6  1  0.99761928  0.66622974  0.00328899  1
  Ni  Ni7  1  0.16754178  0.83066970  0.16390790  1
  Cr  Cr8  1  -0.00031390  0.66531617  0.33152010  1
  Ni  Ni9  1  0.33393014  0.99888315  0.99870166  1
  Cr  Cr10  1  0.49904593  0.16571086  0.16801408  1
  Ni  Ni11  1  0.33271172  0.99605850  0.33250627  1
  Ni  Ni12  1  0.33410375  0.33128199  0.99774063  1
  Cr  Cr13  1  0.49935133  0.49857479  0.16478147  1
  Fe  Fe14  1  0.33382616  0.33533327  0.33419614  1
  Fe  Fe15  1  0.33357742  0.66741044  0.00040424  1
  Ni  Ni16  1  0.49722445  0.83265547  0.16308367  1
  Ni  Ni17  1  0.33069635  0.66697901  0.33220429  1
  Ni  Ni18  1  0.66357373  0.99767171  0.99905900  1
  Cr  Cr19  1  0.82937850  0.16613259  0.16347578  1
  Cr  Cr20  1  0.66546266  0.99905369  0.33296398  1
  Ni  Ni21  1  0.66456628  0.33386452  0.99633346  1
  Ni  Ni22  1  0.83218421  0.50125685  0.16343220  1
  Ni  Ni23  1  0.66572067  0.33380296  0.33617040  1
  Ni  Ni24  1  0.66677684  0.66624469  0.99903529  1
  Ni  Ni25  1  0.83283148  0.83054711  0.16120549  1
  Cr  Cr26  1  0.66735190  0.66460083  0.33248067  1
  Cr  Cr27  1  0.16598249  0.16592019  0.49909817  1
  Fe  Fe28  1  0.99589588  -0.00035625  0.66471803  1
  Fe  Fe29  1  0.16547424  0.16506597  0.83410391  1
  Ni  Ni30  1  0.16551144  0.50093217  0.49882020  1
  Ni  Ni31  1  0.99571185  0.33376985  0.66607142  1
  Cr  Cr32  1  0.16326278  0.49980489  0.83350748  1
  Ni  Ni33  1  0.16372673  0.83030134  0.49933639  1
  Ni  Ni34  1  0.99669793  0.66319341  0.66160774  1
  Cr  Cr35  1  0.16435418  0.83250158  0.83316855  1
  Ni  Ni36  1  0.50222775  0.16893373  0.49725298  1
  Cr  Cr37  1  0.33502060  -0.00016163  0.66690509  1
  Ni  Ni38  1  0.50145585  0.16593085  0.83461398  1
  Ni  Ni39  1  0.50052080  0.49596811  0.49960562  1
  Cr  Cr40  1  0.33428969  0.33215884  0.66631632  1
  Fe  Fe41  1  0.50363518  0.50006443  0.83332710  1
  Cr  Cr42  1  0.49997739  0.83227607  0.49944157  1
  Cr  Cr43  1  0.33429742  0.66576575  0.66538877  1
  Ni  Ni44  1  0.50154166  0.83493753  0.83493722  1
  Ni  Ni45  1  0.82931327  0.16733137  0.50306147  1
  Ni  Ni46  1  0.66621879  0.00110995  0.66552713  1
  Fe  Fe47  1  0.83006638  0.16592475  0.83189725  1
  Ni  Ni48  1  0.83171717  0.49808827  0.50228616  1
  Ni  Ni49  1  0.66843148  0.33204480  0.66580611  1
  Ni  Ni50  1  0.83083713  0.49837869  0.83177464  1
  Ni  Ni51  1  0.83445688  0.83225151  0.50364541  1
  Ni  Ni52  1  0.66856698  0.66448815  0.66573877  1
  Cr  Cr53  1  0.83126693  0.83042179  0.83144998  1
" 