7746,Ni56Fe22Cr21_11,-231.784722366268, 184.439675669638,Ni56Fe22Cr21,"# generated using pymatgen
 data_Cr13Fe11Ni30
_symmetry_space_group_name_H-M   'P 1'
_cell_length_a   7.45495120
_cell_length_b   7.45495120
_cell_length_c   10.54289310
_cell_angle_alpha   90.00000000
_cell_angle_beta   90.00000000
_cell_angle_gamma   90.00000000
_symmetry_Int_Tables_number   1
_chemical_formula_structural   Cr13Fe11Ni30
_chemical_formula_sum   'Cr13 Fe11 Ni30'
_cell_volume   585.93496217
_cell_formula_units_Z   1
loop_
 _symmetry_equiv_pos_site_id
 _symmetry_equiv_pos_as_xyz
  1  'x, y, z'
loop_
 _atom_site_type_symbol
 _atom_site_label
 _atom_site_symmetry_multiplicity
 _atom_site_fract_x
 _atom_site_fract_y
 _atom_site_fract_z
 _atom_site_occupancy
  Ni  Ni0  1  1.00046796  0.99821512  0.00106132  1
  Ni  Ni1  1  0.16557020  0.16520556  0.16662030  1
  Ni  Ni2  1  1.00016852  0.00093487  0.33342516  1
  Cr  Cr3  1  0.00089124  0.33196720  0.00303467  1
  Ni  Ni4  1  0.16654585  0.50357371  0.16675725  1
  Ni  Ni5  1  0.99800407  0.33186809  0.33352669  1
  Ni  Ni6  1  0.99990896  0.67171340  1.00023156  1
  Ni  Ni7  1  0.16853725  0.83369201  0.16735191  1
  Fe  Fe8  1  0.00089124  0.66969224  0.33392209  1
  Ni  Ni9  1  0.33151162  0.99968150  0.00153307  1
  Cr  Cr10  1  0.50241447  0.16250482  0.16785261  1
  Ni  Ni11  1  0.33317769  0.99715517  0.33476411  1
  Ni  Ni12  1  0.33462918  0.33362590  1.00054989  1
  Cr  Cr13  1  0.50035106  0.50516163  0.16707683  1
  Cr  Cr14  1  0.33420742  0.33375834  0.33254447  1
  Ni  Ni15  1  0.33375501  0.66898650  0.00105826  1
  Ni  Ni16  1  0.50076270  0.83415170  0.16759135  1
  Ni  Ni17  1  0.33553724  0.67095473  0.33500954  1
  Fe  Fe18  1  0.66919502  0.99964099  0.00164742  1
  Ni  Ni19  1  0.83554648  0.16464713  0.16973022  1
  Ni  Ni20  1  0.66924302  0.99912550  0.33561531  1
  Cr  Cr21  1  0.66748453  0.33484265  0.99904471  1
  Cr  Cr22  1  0.83517749  0.50211394  0.17038095  1
  Ni  Ni23  1  0.67055060  0.33439547  0.33831714  1
  Ni  Ni24  1  0.66880935  0.66946410  1.00022218  1
  Fe  Fe25  1  0.83415564  0.83561776  0.16815103  1
  Ni  Ni26  1  0.66704905  0.66882822  0.33576455  1
  Cr  Cr27  1  0.16534346  0.16732961  0.50038916  1
  Ni  Ni28  1  0.99758624  0.99977920  0.66762028  1
  Cr  Cr29  1  0.16771503  0.16590501  0.83468562  1
  Cr  Cr30  1  0.16614535  0.50272964  0.50044874  1
  Fe  Fe31  1  0.99854326  0.33396447  0.66694861  1
  Cr  Cr32  1  0.16748920  0.50351176  0.83440480  1
  Fe  Fe33  1  0.16590169  0.83392663  0.49999311  1
  Fe  Fe34  1  0.00145544  0.67001838  0.66735563  1
  Ni  Ni35  1  0.16627170  0.83254556  0.83353926  1
  Ni  Ni36  1  0.50389499  0.16637691  0.50095542  1
  Cr  Cr37  1  0.33337042  0.99926654  0.66491866  1
  Ni  Ni38  1  0.50321442  0.16720038  0.83389823  1
  Ni  Ni39  1  0.50165004  0.50189166  0.50136404  1
  Ni  Ni40  1  0.33802781  0.33524987  0.66822227  1
  Fe  Fe41  1  0.49965192  0.49999112  0.83386275  1
  Ni  Ni42  1  0.50182508  0.83384918  0.49843655  1
  Ni  Ni43  1  0.33520116  0.66687807  0.66635487  1
  Cr  Cr44  1  0.49995280  0.83516694  0.83685442  1
  Ni  Ni45  1  0.83300661  0.16681598  0.50096365  1
  Fe  Fe46  1  0.66764100  0.00179233  0.66577468  1
  Ni  Ni47  1  0.83226888  0.16587036  0.83198856  1
  Ni  Ni48  1  0.83414343  0.50102974  0.50039778  1
  Fe  Fe49  1  0.66704090  0.33203607  0.66643123  1
  Fe  Fe50  1  0.83411012  0.50158370  0.83381309  1
  Ni  Ni51  1  0.83403068  0.83471146  0.50025995  1
  Cr  Cr52  1  0.66759527  0.66654542  0.66692274  1
  Fe  Fe53  1  0.83619046  0.83632600  0.83422150  1
" 