5619,Ni56Fe40Cr3_12,-240.200367906846, 220.143079747662,Ni56Fe40Cr3,"# generated using pymatgen
 data_CrFe7Ni10
_symmetry_space_group_name_H-M   'P 1'
_cell_length_a   7.41620581
_cell_length_b   7.41620581
_cell_length_c   10.48809884
_cell_angle_alpha   90.00000000
_cell_angle_beta   90.00000000
_cell_angle_gamma   90.00000000
_symmetry_Int_Tables_number   1
_chemical_formula_structural   CrFe7Ni10
_chemical_formula_sum   'Cr3 Fe21 Ni30'
_cell_volume   576.84657602
_cell_formula_units_Z   3
loop_
 _symmetry_equiv_pos_site_id
 _symmetry_equiv_pos_as_xyz
  1  'x, y, z'
loop_
 _atom_site_type_symbol
 _atom_site_label
 _atom_site_symmetry_multiplicity
 _atom_site_fract_x
 _atom_site_fract_y
 _atom_site_fract_z
 _atom_site_occupancy
  Cr  Cr0  1  0.00443697  0.00538350  0.00544523  1
  Ni  Ni1  1  0.17163215  0.17181314  0.17007541  1
  Ni  Ni2  1  1.00134657  0.00442599  0.33705981  1
  Ni  Ni3  1  0.00396327  0.33688610  1.00293592  1
  Ni  Ni4  1  0.17030654  0.50343821  0.16966215  1
  Ni  Ni5  1  0.00469297  0.33548720  0.33647042  1
  Fe  Fe6  1  0.00431450  0.66676713  0.00430081  1
  Ni  Ni7  1  0.16839515  0.83502789  0.17009072  1
  Fe  Fe8  1  1.00289100  0.67058250  0.33653627  1
  Fe  Fe9  1  0.33824771  0.00429710  0.00346282  1
  Ni  Ni10  1  0.50336227  0.17205215  0.16924734  1
  Cr  Cr11  1  0.33594626  0.00470303  0.33657836  1
  Ni  Ni12  1  0.33646013  0.33737971  0.00422970  1
  Ni  Ni13  1  0.50362731  0.50214526  0.17028013  1
  Ni  Ni14  1  0.33559060  0.33825754  0.33589009  1
  Ni  Ni15  1  0.33807435  0.66960867  0.00386506  1
  Fe  Fe16  1  0.50423460  0.83497467  0.16931152  1
  Fe  Fe17  1  0.33647132  0.66848479  0.33610600  1
  Fe  Fe18  1  0.66707431  0.00495659  0.00428168  1
  Fe  Fe19  1  0.83682112  0.17139621  0.17144096  1
  Ni  Ni20  1  0.67282835  1.00200889  0.33589306  1
  Ni  Ni21  1  0.66986193  0.33765498  0.00372842  1
  Ni  Ni22  1  0.83634918  0.50537876  0.16975762  1
  Fe  Fe23  1  0.67007923  0.33590747  0.33615030  1
  Ni  Ni24  1  0.66805988  0.66915019  0.00395969  1
  Ni  Ni25  1  0.83658487  0.83476284  0.17134997  1
  Ni  Ni26  1  0.67006084  0.67088376  0.33678346  1
  Ni  Ni27  1  0.17023031  0.17113392  0.50468112  1
  Ni  Ni28  1  0.00347483  0.00432468  0.66825948  1
  Ni  Ni29  1  0.17264314  0.17093641  0.83552642  1
  Fe  Fe30  1  0.17001292  0.50219283  0.50329230  1
  Fe  Fe31  1  0.00354549  0.33672045  0.66992818  1
  Fe  Fe32  1  0.17084111  0.50315786  0.83705113  1
  Fe  Fe33  1  0.16845606  0.83731085  0.50481031  1
  Ni  Ni34  1  0.00399318  0.67068833  0.66979231  1
  Ni  Ni35  1  0.17127291  0.83580069  0.83521880  1
  Ni  Ni36  1  0.50373687  0.17170519  0.50462953  1
  Fe  Fe37  1  0.33652144  1.00309596  0.67036011  1
  Ni  Ni38  1  0.50237452  0.17120934  0.83640453  1
  Fe  Fe39  1  0.50350906  0.50287866  0.50328894  1
  Ni  Ni40  1  0.33635874  0.33691536  0.67016469  1
  Fe  Fe41  1  0.50242400  0.50351546  0.83736807  1
  Fe  Fe42  1  0.50547228  0.83703188  0.50446653  1
  Ni  Ni43  1  0.33723266  0.66933197  0.66972688  1
  Fe  Fe44  1  0.50129405  0.83696289  0.83650265  1
  Ni  Ni45  1  0.83631558  0.16863766  0.50374005  1
  Ni  Ni46  1  0.67069909  0.00344718  0.66942554  1
  Fe  Fe47  1  0.83654209  0.17177400  0.83556959  1
  Fe  Fe48  1  0.83676007  0.50298880  0.50312346  1
  Fe  Fe49  1  0.66985014  0.33662556  0.67048040  1
  Fe  Fe50  1  0.83701824  0.50166388  0.83751743  1
  Ni  Ni51  1  0.83686999  0.83636729  0.50346451  1
  Ni  Ni52  1  0.66905676  0.67043889  0.66954389  1
  Cr  Cr53  1  0.83687957  0.83442824  0.83586872  1
" 