6981,Ni56Fe20Cr22_14,-231.144241836841, 186.848352339095,Ni56Fe20Cr22,"# generated using pymatgen
 data_Cr7(FeNi3)5
_symmetry_space_group_name_H-M   'P 1'
_cell_length_a   7.45436973
_cell_length_b   7.45436973
_cell_length_c   10.54207078
_cell_angle_alpha   90.00000000
_cell_angle_beta   90.00000000
_cell_angle_gamma   90.00000000
_symmetry_Int_Tables_number   1
_chemical_formula_structural   Cr7(FeNi3)5
_chemical_formula_sum   'Cr14 Fe10 Ni30'
_cell_volume   585.79786854
_cell_formula_units_Z   2
loop_
 _symmetry_equiv_pos_site_id
 _symmetry_equiv_pos_as_xyz
  1  'x, y, z'
loop_
 _atom_site_type_symbol
 _atom_site_label
 _atom_site_symmetry_multiplicity
 _atom_site_fract_x
 _atom_site_fract_y
 _atom_site_fract_z
 _atom_site_occupancy
  Cr  Cr0  1  0.00274700  0.00212187  0.99860472  1
  Ni  Ni1  1  0.16849244  0.17080860  0.16606966  1
  Cr  Cr2  1  1.00026150  0.00260927  0.33741386  1
  Ni  Ni3  1  0.00243858  0.33454852  0.00179645  1
  Ni  Ni4  1  0.16626633  0.49825281  0.16934623  1
  Ni  Ni5  1  0.00115437  0.33455347  0.33374718  1
  Cr  Cr6  1  0.99913563  0.66455763  0.99918222  1
  Cr  Cr7  1  0.16883455  0.83186070  0.16844499  1
  Fe  Fe8  1  1.00071470  0.66397442  0.33651174  1
  Fe  Fe9  1  0.33532530  0.00317010  1.00010778  1
  Cr  Cr10  1  0.50158591  0.16742487  0.16677977  1
  Cr  Cr11  1  0.33398027  0.00155062  0.33607599  1
  Ni  Ni12  1  0.33352060  0.33325477  0.99991783  1
  Cr  Cr13  1  0.50109574  0.49974961  0.16835834  1
  Ni  Ni14  1  0.33251998  0.33469620  0.33446927  1
  Cr  Cr15  1  0.33604522  0.66430297  0.00108720  1
  Fe  Fe16  1  0.50210020  0.83328115  0.16846930  1
  Ni  Ni17  1  0.33542971  0.66708515  0.33479837  1
  Fe  Fe18  1  0.66564159  0.00118458  0.99916492  1
  Cr  Cr19  1  0.83320125  0.17037516  0.16767042  1
  Fe  Fe20  1  0.66638268  0.00174362  0.33771710  1
  Ni  Ni21  1  0.66672328  0.33727295  0.99908389  1
  Ni  Ni22  1  0.83518844  0.50013352  0.16767414  1
  Ni  Ni23  1  0.66883441  0.33599497  0.33616048  1
  Ni  Ni24  1  0.66728312  0.66584351  0.99994150  1
  Cr  Cr25  1  0.83172509  0.83304341  0.16817306  1
  Ni  Ni26  1  0.66753361  0.66759649  0.33485306  1
  Fe  Fe27  1  0.16805679  0.17137050  0.50125305  1
  Cr  Cr28  1  0.00088172  0.00133260  0.66629364  1
  Fe  Fe29  1  0.16989067  0.17190810  0.83406946  1
  Ni  Ni30  1  0.16635406  0.50192155  0.50024050  1
  Ni  Ni31  1  0.00155741  0.33532394  0.66669159  1
  Ni  Ni32  1  0.16716477  0.50041293  0.83305195  1
  Ni  Ni33  1  0.16851670  0.83026574  0.50266441  1
  Ni  Ni34  1  1.00070431  0.66673307  0.66717868  1
  Fe  Fe35  1  0.16830233  0.83225391  0.83165990  1
  Ni  Ni36  1  0.50234677  0.16727104  0.50263097  1
  Fe  Fe37  1  0.33603811  0.00179181  0.66564308  1
  Ni  Ni38  1  0.49985736  0.16830687  0.83371965  1
  Cr  Cr39  1  0.49932096  0.50019805  0.50279957  1
  Ni  Ni40  1  0.33412540  0.33404725  0.66819332  1
  Ni  Ni41  1  0.50062431  0.49895866  0.83309742  1
  Ni  Ni42  1  0.50077632  0.83462510  0.50035797  1
  Ni  Ni43  1  0.33378930  0.66698923  0.66707970  1
  Cr  Cr44  1  0.50040023  0.83488836  0.83326550  1
  Ni  Ni45  1  0.83195395  0.16944505  0.50063234  1
  Ni  Ni46  1  0.66700886  0.00088384  0.66505116  1
  Cr  Cr47  1  0.83195750  0.16988732  0.83414230  1
  Ni  Ni48  1  0.83641618  0.50018771  0.50135616  1
  Ni  Ni49  1  0.66718575  0.33418732  0.66781999  1
  Ni  Ni50  1  0.83483521  0.50025130  0.83358455  1
  Ni  Ni51  1  0.83335179  0.83270315  0.50181778  1
  Ni  Ni52  1  0.66800594  0.66709188  0.66797514  1
  Fe  Fe53  1  0.83233555  0.83169252  0.83203050  1
" 