4588,Ni56Fe20Cr22_6,-231.438456854659, 186.043122480271,Ni56Fe20Cr22,"# generated using pymatgen
 data_Cr7(FeNi3)5
_symmetry_space_group_name_H-M   'P 1'
_cell_length_a   7.45576774
_cell_length_b   7.45576774
_cell_length_c   10.54404786
_cell_angle_alpha   90.00000000
_cell_angle_beta   90.00000000
_cell_angle_gamma   90.00000000
_symmetry_Int_Tables_number   1
_chemical_formula_structural   Cr7(FeNi3)5
_chemical_formula_sum   'Cr14 Fe10 Ni30'
_cell_volume   586.12751533
_cell_formula_units_Z   2
loop_
 _symmetry_equiv_pos_site_id
 _symmetry_equiv_pos_as_xyz
  1  'x, y, z'
loop_
 _atom_site_type_symbol
 _atom_site_label
 _atom_site_symmetry_multiplicity
 _atom_site_fract_x
 _atom_site_fract_y
 _atom_site_fract_z
 _atom_site_occupancy
  Ni  Ni0  1  0.99696274  0.00096939  0.99971239  1
  Cr  Cr1  1  0.16726121  0.16887459  0.16681206  1
  Ni  Ni2  1  0.99799428  0.99844595  0.33573454  1
  Ni  Ni3  1  1.00026249  0.33373259  0.00159345  1
  Fe  Fe4  1  0.16874376  0.50078125  0.16680452  1
  Cr  Cr5  1  0.99911385  0.33323205  0.33235596  1
  Fe  Fe6  1  0.99932828  0.66768747  0.00101600  1
  Cr  Cr7  1  0.16637974  0.83229143  0.16860117  1
  Ni  Ni8  1  0.00275616  0.67089879  0.33413894  1
  Cr  Cr9  1  0.33563952  0.99954864  0.99950345  1
  Ni  Ni10  1  0.50263659  0.16907830  0.16908675  1
  Fe  Fe11  1  0.33547486  0.00106731  0.33484755  1
  Ni  Ni12  1  0.33359548  0.33713776  0.00135139  1
  Ni  Ni13  1  0.49904982  0.50023796  0.16726922  1
  Ni  Ni14  1  0.33800790  0.33559989  0.33373475  1
  Ni  Ni15  1  0.33580873  0.66597330  0.00090163  1
  Fe  Fe16  1  0.50320373  0.83440481  0.16659248  1
  Ni  Ni17  1  0.33293048  0.66622702  0.33352426  1
  Ni  Ni18  1  0.67000701  0.99875660  0.00081776  1
  Ni  Ni19  1  0.83230331  0.16563236  0.16754380  1
  Ni  Ni20  1  0.66925557  0.00352248  0.33324538  1
  Cr  Cr21  1  0.66806545  0.33388976  0.00108136  1
  Fe  Fe22  1  0.83407382  0.50094878  0.16640073  1
  Ni  Ni23  1  0.66458294  0.33083694  0.33425442  1
  Ni  Ni24  1  0.66660110  0.66927443  1.00041321  1
  Ni  Ni25  1  0.83355378  0.83502572  0.16605317  1
  Cr  Cr26  1  0.66662143  0.66736954  0.33314344  1
  Cr  Cr27  1  0.16873838  0.16568514  0.50076201  1
  Cr  Cr28  1  0.00138292  1.00019238  0.66663514  1
  Cr  Cr29  1  0.16702289  0.16737717  0.83469230  1
  Cr  Cr30  1  0.16935515  0.50310292  0.50117986  1
  Ni  Ni31  1  0.99783619  0.33428038  0.66828865  1
  Cr  Cr32  1  0.16693476  0.50149307  0.83480515  1
  Ni  Ni33  1  0.16658969  0.83345837  0.50029204  1
  Fe  Fe34  1  1.00004482  0.66814916  0.66743233  1
  Ni  Ni35  1  0.16903704  0.83289142  0.83337160  1
  Ni  Ni36  1  0.50173431  0.16991379  0.49993250  1
  Ni  Ni37  1  0.33370875  0.99864814  0.66767829  1
  Fe  Fe38  1  0.50162874  0.16748789  0.83341332  1
  Ni  Ni39  1  0.50024633  0.49834105  0.50236564  1
  Fe  Fe40  1  0.33760029  0.33418172  0.66678485  1
  Fe  Fe41  1  0.50174739  0.50248286  0.83344614  1
  Cr  Cr42  1  0.49952614  0.83381734  0.49914704  1
  Ni  Ni43  1  0.33518302  0.66852987  0.66784422  1
  Ni  Ni44  1  0.50030555  0.83233556  0.83525077  1
  Ni  Ni45  1  0.83168019  0.16671690  0.49944037  1
  Cr  Cr46  1  0.66732853  0.00167108  0.66823123  1
  Ni  Ni47  1  0.83370546  0.16906869  0.83528534  1
  Cr  Cr48  1  0.83199797  0.50075809  0.50234469  1
  Ni  Ni49  1  0.66765560  0.33575695  0.66721983  1
  Ni  Ni50  1  0.83314804  0.50067779  0.83334840  1
  Ni  Ni51  1  0.83672820  0.83494269  0.50016029  1
  Ni  Ni52  1  0.66600946  0.66462574  0.66895358  1
  Fe  Fe53  1  0.83375862  0.83281718  0.83600907  1
" 