7874,Ni56Fe36Cr6_4,-238.378325190228, 214.615518418711,Ni56Fe36Cr6,"# generated using pymatgen
 data_Cr5Fe19Ni30
_symmetry_space_group_name_H-M   'P 1'
_cell_length_a   7.41934829
_cell_length_b   7.41934829
_cell_length_c   10.49254298
_cell_angle_alpha   90.00000000
_cell_angle_beta   90.00000000
_cell_angle_gamma   90.00000000
_symmetry_Int_Tables_number   1
_chemical_formula_structural   Cr5Fe19Ni30
_chemical_formula_sum   'Cr5 Fe19 Ni30'
_cell_volume   577.58017100
_cell_formula_units_Z   1
loop_
 _symmetry_equiv_pos_site_id
 _symmetry_equiv_pos_as_xyz
  1  'x, y, z'
loop_
 _atom_site_type_symbol
 _atom_site_label
 _atom_site_symmetry_multiplicity
 _atom_site_fract_x
 _atom_site_fract_y
 _atom_site_fract_z
 _atom_site_occupancy
  Fe  Fe0  1  1.00319639  0.00417573  0.00325609  1
  Fe  Fe1  1  0.17066999  0.17089840  0.16970321  1
  Ni  Ni2  1  1.00294385  0.00330524  0.33727615  1
  Ni  Ni3  1  1.00270578  0.33540624  0.00399165  1
  Ni  Ni4  1  0.16889890  0.50298978  0.16921136  1
  Fe  Fe5  1  1.00244564  0.33596910  0.33645202  1
  Ni  Ni6  1  0.00448521  0.67046389  0.00447389  1
  Fe  Fe7  1  0.16951025  0.83670644  0.16911542  1
  Fe  Fe8  1  1.00113235  0.66993574  0.33658041  1
  Fe  Fe9  1  0.33597988  1.00260348  0.00364267  1
  Ni  Ni10  1  0.50361510  0.16900382  0.17019899  1
  Ni  Ni11  1  0.33633196  0.00479800  0.33616578  1
  Ni  Ni12  1  0.33628338  0.33640953  0.00457415  1
  Ni  Ni13  1  0.50212245  0.50227572  0.16972224  1
  Ni  Ni14  1  0.33679497  0.33472877  0.33649405  1
  Ni  Ni15  1  0.33580201  0.67076033  1.00319343  1
  Ni  Ni16  1  0.50260963  0.83836461  0.16991761  1
  Cr  Cr17  1  0.33743893  0.66978251  0.33597957  1
  Fe  Fe18  1  0.67046610  0.00445077  0.00429829  1
  Ni  Ni19  1  0.83618683  0.17023812  0.16985783  1
  Ni  Ni20  1  0.67036497  1.00307830  0.33621820  1
  Ni  Ni21  1  0.67065551  0.33570081  0.00334923  1
  Ni  Ni22  1  0.83862226  0.50198600  0.17054878  1
  Ni  Ni23  1  0.66996536  0.33651438  0.33638535  1
  Cr  Cr24  1  0.66918429  0.66889359  1.00287057  1
  Fe  Fe25  1  0.83654255  0.83671963  0.17143116  1
  Ni  Ni26  1  0.67145927  0.67005090  0.33680083  1
  Fe  Fe27  1  0.16940454  0.16913460  0.50358935  1
  Fe  Fe28  1  0.00377795  0.00376939  0.66955155  1
  Ni  Ni29  1  0.16730415  0.16884389  0.83640681  1
  Fe  Fe30  1  0.16804453  0.50281673  0.50389572  1
  Ni  Ni31  1  1.00222167  0.33618600  0.66951105  1
  Cr  Cr32  1  0.17001504  0.50288031  0.83682094  1
  Fe  Fe33  1  0.16824155  0.83769134  0.50398171  1
  Ni  Ni34  1  1.00221561  0.66997380  0.66915577  1
  Fe  Fe35  1  0.17046429  0.83817245  0.83654548  1
  Fe  Fe36  1  0.50362994  0.17013507  0.50178296  1
  Ni  Ni37  1  0.33419961  1.00219012  0.66921372  1
  Cr  Cr38  1  0.50328074  0.17056745  0.83757119  1
  Fe  Fe39  1  0.50584892  0.50267137  0.50385234  1
  Fe  Fe40  1  0.33654377  0.33688558  0.66892282  1
  Ni  Ni41  1  0.50329919  0.50516352  0.83547556  1
  Ni  Ni42  1  0.50309628  0.83684136  0.50336040  1
  Fe  Fe43  1  0.33811520  0.67055652  0.66982134  1
  Ni  Ni44  1  0.50169548  0.83463163  0.83636157  1
  Ni  Ni45  1  0.83768454  0.17067573  0.50271860  1
  Cr  Cr46  1  0.66996597  1.00257760  0.66903311  1
  Ni  Ni47  1  0.83933265  0.17045065  0.83706787  1
  Ni  Ni48  1  0.83734346  0.50313171  0.50368877  1
  Ni  Ni49  1  0.67141505  0.33929698  0.66990845  1
  Fe  Fe50  1  0.83548897  0.50179595  0.83547684  1
  Ni  Ni51  1  0.83662261  0.83583603  0.50198747  1
  Ni  Ni52  1  0.67011605  0.66816489  0.67026194  1
  Fe  Fe53  1  0.83780261  0.83633371  0.83591190  1
" 