601,Ni56Fe36Cr6_17,-238.180866286578, 211.951150514117,Ni56Fe36Cr6,"# generated using pymatgen
 data_Cr5Fe19Ni30
_symmetry_space_group_name_H-M   'P 1'
_cell_length_a   7.41744254
_cell_length_b   7.41744254
_cell_length_c   10.48984784
_cell_angle_alpha   90.00000000
_cell_angle_beta   90.00000000
_cell_angle_gamma   90.00000000
_symmetry_Int_Tables_number   1
_chemical_formula_structural   Cr5Fe19Ni30
_chemical_formula_sum   'Cr5 Fe19 Ni30'
_cell_volume   577.13520885
_cell_formula_units_Z   1
loop_
 _symmetry_equiv_pos_site_id
 _symmetry_equiv_pos_as_xyz
  1  'x, y, z'
loop_
 _atom_site_type_symbol
 _atom_site_label
 _atom_site_symmetry_multiplicity
 _atom_site_fract_x
 _atom_site_fract_y
 _atom_site_fract_z
 _atom_site_occupancy
  Cr  Cr0  1  1.00185459  1.00232341  1.00276664  1
  Fe  Fe1  1  0.16852338  0.17231034  0.17042558  1
  Ni  Ni2  1  1.00150897  1.00316378  0.33822712  1
  Fe  Fe3  1  0.00446191  0.33803772  1.00217458  1
  Fe  Fe4  1  0.17110851  0.50371027  0.16947497  1
  Ni  Ni5  1  1.00245643  0.33698501  0.33618806  1
  Fe  Fe6  1  1.00219764  0.66739505  1.00049033  1
  Cr  Cr7  1  0.17013065  0.83584761  0.16795356  1
  Ni  Ni8  1  0.00463893  0.67027394  0.33767025  1
  Fe  Fe9  1  0.33935479  0.00512791  1.00036405  1
  Fe  Fe10  1  0.50584585  0.17148225  0.16943290  1
  Cr  Cr11  1  0.33712529  0.00337805  0.33832627  1
  Ni  Ni12  1  0.33794013  0.33755959  0.00528612  1
  Fe  Fe13  1  0.50223843  0.50246507  0.16967213  1
  Fe  Fe14  1  0.33546306  0.33740266  0.33761717  1
  Ni  Ni15  1  0.33662272  0.66779162  1.00027473  1
  Cr  Cr16  1  0.50561202  0.83410277  0.16900260  1
  Ni  Ni17  1  0.33513946  0.66749443  0.33867830  1
  Fe  Fe18  1  0.66858722  0.00336185  1.00181144  1
  Fe  Fe19  1  0.83513786  0.16851588  0.17078539  1
  Ni  Ni20  1  0.67281351  0.00539942  0.33713290  1
  Ni  Ni21  1  0.66862650  0.33631959  1.00100359  1
  Cr  Cr22  1  0.83555134  0.50273945  0.16833722  1
  Ni  Ni23  1  0.66945119  0.33583840  0.33731219  1
  Ni  Ni24  1  0.66982975  0.66902200  1.00162783  1
  Ni  Ni25  1  0.83593298  0.83656722  0.17245784  1
  Fe  Fe26  1  0.67183194  0.67010786  0.33909144  1
  Ni  Ni27  1  0.16787655  0.17040295  0.50377181  1
  Fe  Fe28  1  1.00282136  0.00409365  0.67059854  1
  Ni  Ni29  1  0.17024494  0.17243773  0.83642159  1
  Fe  Fe30  1  0.16879087  0.50426815  0.50468437  1
  Fe  Fe31  1  0.00363657  0.33700505  0.66977555  1
  Ni  Ni32  1  0.17155782  0.50070358  0.83638628  1
  Ni  Ni33  1  0.17102348  0.83766237  0.50592988  1
  Ni  Ni34  1  0.00335628  0.67070662  0.67196814  1
  Fe  Fe35  1  0.17024729  0.83564306  0.83524282  1
  Fe  Fe36  1  0.50509733  0.17007114  0.50534153  1
  Ni  Ni37  1  0.33641138  0.00396312  0.67201030  1
  Fe  Fe38  1  0.50311335  0.17142559  0.83574106  1
  Ni  Ni39  1  0.50439690  0.50430917  0.50182809  1
  Ni  Ni40  1  0.33774283  0.33684720  0.66811256  1
  Ni  Ni41  1  0.50270246  0.50441767  0.83698110  1
  Ni  Ni42  1  0.50330354  0.83509672  0.50435759  1
  Ni  Ni43  1  0.33635265  0.66957017  0.67028984  1
  Ni  Ni44  1  0.50361196  0.83509939  0.83656385  1
  Ni  Ni45  1  0.83799034  0.17173116  0.50256618  1
  Ni  Ni46  1  0.67055923  0.00453810  0.67081135  1
  Ni  Ni47  1  0.83780954  0.17152786  0.83659108  1
  Ni  Ni48  1  0.83584540  0.50132676  0.50485777  1
  Ni  Ni49  1  0.66971322  0.33662056  0.67108275  1
  Fe  Fe50  1  0.83597090  0.50349684  0.83536128  1
  Fe  Fe51  1  0.83705731  0.83647595  0.50427049  1
  Ni  Ni52  1  0.67004783  0.66941527  0.66945886  1
  Ni  Ni53  1  0.83329949  0.83698687  0.83597604  1
" 