7958,Ni56Fe11Cr32_18,-227.38087801442, 166.651792749974,Ni56Fe11Cr32,"# generated using pymatgen
 data_Cr3FeNi5
_symmetry_space_group_name_H-M   'P 1'
_cell_length_a   7.47731373
_cell_length_b   7.47731373
_cell_length_c   10.57451848
_cell_angle_alpha   90.00000000
_cell_angle_beta   90.00000000
_cell_angle_gamma   90.00000000
_symmetry_Int_Tables_number   1
_chemical_formula_structural   Cr3FeNi5
_chemical_formula_sum   'Cr18 Fe6 Ni30'
_cell_volume   591.22366054
_cell_formula_units_Z   6
loop_
 _symmetry_equiv_pos_site_id
 _symmetry_equiv_pos_as_xyz
  1  'x, y, z'
loop_
 _atom_site_type_symbol
 _atom_site_label
 _atom_site_symmetry_multiplicity
 _atom_site_fract_x
 _atom_site_fract_y
 _atom_site_fract_z
 _atom_site_occupancy
  Cr  Cr0  1  0.00184337  0.99567699  0.99633539  1
  Cr  Cr1  1  0.16299342  0.16616845  0.16903236  1
  Ni  Ni2  1  0.00170490  0.99398769  0.33563519  1
  Ni  Ni3  1  0.99854064  0.33540789  0.99797019  1
  Ni  Ni4  1  0.16594781  0.50217743  0.16620419  1
  Fe  Fe5  1  0.99931067  0.33396264  0.33395204  1
  Cr  Cr6  1  0.00125354  0.66611058  0.99735657  1
  Ni  Ni7  1  0.16769900  0.82977011  0.16926352  1
  Ni  Ni8  1  -0.00019166  0.66851254  0.33351972  1
  Cr  Cr9  1  0.33179238  0.99812391  0.00093498  1
  Ni  Ni10  1  0.50224263  0.16492987  0.16605178  1
  Ni  Ni11  1  0.33270281  0.99766721  0.33470779  1
  Cr  Cr12  1  0.33326595  0.33291275  0.99666976  1
  Cr  Cr13  1  0.49891606  0.50233804  0.16601383  1
  Cr  Cr14  1  0.33570721  0.32941969  0.33374048  1
  Ni  Ni15  1  0.33165457  0.66531730  0.99872225  1
  Cr  Cr16  1  0.49865144  0.83151208  0.16740615  1
  Ni  Ni17  1  0.32962704  0.66999277  0.33214786  1
  Fe  Fe18  1  0.66487284  0.99901079  0.99846612  1
  Cr  Cr19  1  0.83144270  0.16635604  0.16635964  1
  Ni  Ni20  1  0.66367215  -0.00013008  0.33398786  1
  Ni  Ni21  1  0.66486169  0.33388028  0.99763814  1
  Cr  Cr22  1  0.83350776  0.49777398  0.16787166  1
  Ni  Ni23  1  0.66551626  0.33188959  0.33377191  1
  Ni  Ni24  1  0.66616778  0.66261090  0.99512175  1
  Cr  Cr25  1  0.83102923  0.83349440  0.16655525  1
  Ni  Ni26  1  0.66831559  0.66668186  0.33732754  1
  Ni  Ni27  1  0.16748556  0.16161390  0.49995621  1
  Ni  Ni28  1  0.00210350  0.99383043  0.66615725  1
  Ni  Ni29  1  0.16630475  0.16616488  0.82969992  1
  Cr  Cr30  1  0.16509953  0.50129487  0.49869634  1
  Cr  Cr31  1  0.99929406  0.33555159  0.66619490  1
  Ni  Ni32  1  0.16780306  0.49982102  0.83251343  1
  Ni  Ni33  1  0.16664525  0.83449071  0.49919773  1
  Ni  Ni34  1  0.99840172  0.66912476  0.66751026  1
  Ni  Ni35  1  0.16682625  0.83199954  0.82983122  1
  Ni  Ni36  1  0.49809512  0.16193584  0.49978802  1
  Ni  Ni37  1  0.33182301  -0.00020357  0.66388808  1
  Fe  Fe38  1  0.49813878  0.16594864  0.83077493  1
  Cr  Cr39  1  0.49930178  0.50423697  0.49987952  1
  Fe  Fe40  1  0.33156730  0.32959219  0.66717267  1
  Ni  Ni41  1  0.49839895  0.50069750  0.83239957  1
  Ni  Ni42  1  0.49913808  0.83488846  0.49829125  1
  Fe  Fe43  1  0.33042488  0.66908280  0.66667296  1
  Cr  Cr44  1  0.49969727  0.83056448  0.83250029  1
  Cr  Cr45  1  0.83476382  0.16338216  0.49594563  1
  Ni  Ni46  1  0.66407044  0.99760165  0.66535575  1
  Cr  Cr47  1  0.83389285  0.16388713  0.83542640  1
  Ni  Ni48  1  0.83254273  0.50329357  0.49686813  1
  Cr  Cr49  1  0.66295141  0.33477928  0.66531830  1
  Ni  Ni50  1  0.83134515  0.50099373  0.83373019  1
  Ni  Ni51  1  0.83222686  0.83202678  0.50051337  1
  Fe  Fe52  1  0.66964187  0.66924538  0.66569638  1
  Ni  Ni53  1  0.83189806  0.83152943  0.83018726  1
" 