3722,Ni56Cr44_10,-216.836845507332, 133.953142082723,Ni56Cr44,"# generated using pymatgen
 data_Cr5Ni4
_symmetry_space_group_name_H-M   'P 1'
_cell_length_a   7.53226677
_cell_length_b   7.53226677
_cell_length_c   10.65223382
_cell_angle_alpha   90.00000000
_cell_angle_beta   90.00000000
_cell_angle_gamma   90.00000000
_symmetry_Int_Tables_number   1
_chemical_formula_structural   Cr5Ni4
_chemical_formula_sum   'Cr30 Ni24'
_cell_volume   604.35494072
_cell_formula_units_Z   6
loop_
 _symmetry_equiv_pos_site_id
 _symmetry_equiv_pos_as_xyz
  1  'x, y, z'
loop_
 _atom_site_type_symbol
 _atom_site_label
 _atom_site_symmetry_multiplicity
 _atom_site_fract_x
 _atom_site_fract_y
 _atom_site_fract_z
 _atom_site_occupancy
  Cr  Cr0  1  -0.00229066  0.99416232  0.99457847  1
  Ni  Ni1  1  0.16567810  0.15946752  0.16177364  1
  Cr  Cr2  1  -0.00238605  -0.00427951  0.32840175  1
  Cr  Cr3  1  0.99483119  0.33015497  -0.00344789  1
  Cr  Cr4  1  0.16152785  0.49570748  0.16059930  1
  Cr  Cr5  1  0.99457748  0.32943314  0.32749856  1
  Ni  Ni6  1  0.99323712  0.66318260  0.99449321  1
  Ni  Ni7  1  0.16520481  0.83195161  0.16131909  1
  Cr  Cr8  1  -0.00319889  0.66185036  0.32872825  1
  Ni  Ni9  1  0.32798326  -0.00375791  -0.00255463  1
  Cr  Cr10  1  0.49254885  0.16208823  0.16206026  1
  Ni  Ni11  1  0.32919779  0.99405567  0.32635719  1
  Ni  Ni12  1  0.33002147  0.32641091  -0.00377263  1
  Ni  Ni13  1  0.49847217  0.49636246  0.16192933  1
  Cr  Cr14  1  0.32965219  0.33053939  0.33011326  1
  Cr  Cr15  1  0.32895499  0.66441658  -0.00163876  1
  Ni  Ni16  1  0.49257169  0.82819322  0.16204100  1
  Cr  Cr17  1  0.33076667  0.66419239  0.32987975  1
  Cr  Cr18  1  0.66094395  0.99465795  0.99282590  1
  Cr  Cr19  1  0.82949367  0.16486068  0.16520244  1
  Cr  Cr20  1  0.66035793  0.99459673  0.33077735  1
  Cr  Cr21  1  0.66257098  0.33078153  0.99486786  1
  Ni  Ni22  1  0.82620202  0.49683872  0.16128939  1
  Ni  Ni23  1  0.66147546  0.33141041  0.32786274  1
  Ni  Ni24  1  0.66477974  0.66117541  -0.00311370  1
  Cr  Cr25  1  0.82900759  0.82522744  0.16111086  1
  Cr  Cr26  1  0.65943706  0.66113217  0.32898493  1
  Cr  Cr27  1  0.16326442  0.16312556  0.49570028  1
  Ni  Ni28  1  0.99353568  0.99196800  0.66393315  1
  Cr  Cr29  1  0.16520804  0.16116522  0.82904630  1
  Ni  Ni30  1  0.16441311  0.49585371  0.49786532  1
  Cr  Cr31  1  -0.00352863  0.32931496  0.66285040  1
  Cr  Cr32  1  0.16108794  0.49728504  0.82783492  1
  Cr  Cr33  1  0.16077877  0.82849347  0.49652210  1
  Ni  Ni34  1  0.99320774  0.66502320  0.66344940  1
  Ni  Ni35  1  0.15773908  0.82971416  0.82936123  1
  Cr  Cr36  1  0.49479122  0.16319523  0.49511971  1
  Cr  Cr37  1  0.32898937  0.99560932  0.66348035  1
  Ni  Ni38  1  0.49474560  0.16329276  0.82995047  1
  Ni  Ni39  1  0.49486138  0.49660463  0.49639448  1
  Ni  Ni40  1  0.32964670  0.33028670  0.66121791  1
  Cr  Cr41  1  0.49686440  0.49375368  0.82898942  1
  Ni  Ni42  1  0.49753869  0.82690003  0.49490164  1
  Cr  Cr43  1  0.32906100  0.66038929  0.65877260  1
  Cr  Cr44  1  0.49679825  0.82970610  0.83041662  1
  Cr  Cr45  1  0.82898052  0.16028409  0.49428955  1
  Cr  Cr46  1  0.66500810  0.99377556  0.66347290  1
  Ni  Ni47  1  0.82820911  0.16107663  0.82763030  1
  Cr  Cr48  1  0.82840354  0.49830179  0.49539005  1
  Cr  Cr49  1  0.66093436  0.32946610  0.66428213  1
  Ni  Ni50  1  0.82898684  0.49959380  0.82967321  1
  Ni  Ni51  1  0.82798511  0.82754372  0.49910161  1
  Ni  Ni52  1  0.66522499  0.66333303  0.66113556  1
  Ni  Ni53  1  0.83186306  0.82634856  0.82726825  1
" 