6468,Ni56Fe22Cr21_10,-231.852988424749, 189.587216709238,Ni56Fe22Cr21,"# generated using pymatgen
 data_Cr13Fe11Ni30
_symmetry_space_group_name_H-M   'P 1'
_cell_length_a   7.45153148
_cell_length_b   7.45153148
_cell_length_c   10.53805688
_cell_angle_alpha   90.00000000
_cell_angle_beta   90.00000000
_cell_angle_gamma   90.00000000
_symmetry_Int_Tables_number   1
_chemical_formula_structural   Cr13Fe11Ni30
_chemical_formula_sum   'Cr13 Fe11 Ni30'
_cell_volume   585.12899504
_cell_formula_units_Z   1
loop_
 _symmetry_equiv_pos_site_id
 _symmetry_equiv_pos_as_xyz
  1  'x, y, z'
loop_
 _atom_site_type_symbol
 _atom_site_label
 _atom_site_symmetry_multiplicity
 _atom_site_fract_x
 _atom_site_fract_y
 _atom_site_fract_z
 _atom_site_occupancy
  Ni  Ni0  1  0.99979583  0.00382323  0.00348603  1
  Ni  Ni1  1  0.16725958  0.17024385  0.16843760  1
  Fe  Fe2  1  0.00149763  0.00439129  0.33370390  1
  Ni  Ni3  1  0.00135556  0.33239497  0.00145260  1
  Ni  Ni4  1  0.17024594  0.49686567  0.16698573  1
  Ni  Ni5  1  0.00188311  0.33199026  0.33412362  1
  Cr  Cr6  1  0.00446372  0.66651419  0.99964373  1
  Cr  Cr7  1  0.16787617  0.83566249  0.16675625  1
  Cr  Cr8  1  1.00008880  0.66721598  0.33405555  1
  Ni  Ni9  1  0.33483411  1.00092350  0.00170718  1
  Fe  Fe10  1  0.50028319  0.16985986  0.16677787  1
  Fe  Fe11  1  0.33357247  0.00379269  0.33551213  1
  Ni  Ni12  1  0.33405650  0.33619730  0.00301496  1
  Fe  Fe13  1  0.49831177  0.49836896  0.16807616  1
  Ni  Ni14  1  0.33432257  0.33460693  0.33387191  1
  Ni  Ni15  1  0.33417828  0.66602457  0.99952095  1
  Cr  Cr16  1  0.50125676  0.83423590  0.16680773  1
  Ni  Ni17  1  0.33704788  0.66521364  0.33359355  1
  Ni  Ni18  1  0.66843069  0.00377270  0.00162696  1
  Ni  Ni19  1  0.83552907  0.16760534  0.16589375  1
  Cr  Cr20  1  0.66883346  0.00166020  0.33500796  1
  Ni  Ni21  1  0.66762317  0.33157560  0.00216117  1
  Cr  Cr22  1  0.83373516  0.49897403  0.16821414  1
  Fe  Fe23  1  0.66689508  0.33534730  0.33556707  1
  Cr  Cr24  1  0.66531683  0.66777668  1.00052413  1
  Ni  Ni25  1  0.83376940  0.83792625  0.16813433  1
  Fe  Fe26  1  0.66621341  0.66573975  0.33687527  1
  Fe  Fe27  1  0.16803460  0.16819034  0.50092755  1
  Ni  Ni28  1  0.99993134  0.00209871  0.66556579  1
  Cr  Cr29  1  0.16681080  0.16757928  0.83370207  1
  Cr  Cr30  1  0.16685832  0.49810706  0.50164834  1
  Ni  Ni31  1  0.99863872  0.33450584  0.66758075  1
  Ni  Ni32  1  0.16751706  0.50034812  0.83508576  1
  Cr  Cr33  1  0.16721227  0.83702161  0.50132424  1
  Ni  Ni34  1  0.99908071  0.66658549  0.66867052  1
  Ni  Ni35  1  0.16863323  0.83456880  0.83497451  1
  Ni  Ni36  1  0.50020009  0.16861761  0.50182378  1
  Ni  Ni37  1  0.33587020  1.00097308  0.66574957  1
  Cr  Cr38  1  0.50273188  0.16738822  0.83534969  1
  Ni  Ni39  1  0.50408604  0.49923281  0.49940205  1
  Fe  Fe40  1  0.33584756  0.33365107  0.66705729  1
  Ni  Ni41  1  0.50125789  0.50032252  0.83491634  1
  Ni  Ni42  1  0.50328930  0.83529790  0.50189021  1
  Cr  Cr43  1  0.33580559  0.66810145  0.67056522  1
  Ni  Ni44  1  0.50012551  0.83458123  0.83391233  1
  Fe  Fe45  1  0.83402302  0.16884373  0.50193098  1
  Ni  Ni46  1  0.66723865  0.00137646  0.66659107  1
  Fe  Fe47  1  0.83442468  0.16924750  0.83490709  1
  Ni  Ni48  1  0.83212139  0.50044744  0.50257326  1
  Ni  Ni49  1  0.66918324  0.33450632  0.66612268  1
  Fe  Fe50  1  0.83392954  0.49834556  0.83211217  1
  Ni  Ni51  1  0.83262800  0.83393416  0.50181448  1
  Ni  Ni52  1  0.66797817  0.66720848  0.66509742  1
  Cr  Cr53  1  0.83408746  0.83643747  0.83339400  1
" 