129,Ni56Fe36Cr6_12,-238.00998334977, 205.34707259503,Ni56Fe36Cr6,"# generated using pymatgen
 data_Cr5Fe19Ni30
_symmetry_space_group_name_H-M   'P 1'
_cell_length_a   7.42049276
_cell_length_b   7.42049276
_cell_length_c   10.49416150
_cell_angle_alpha   90.00000000
_cell_angle_beta   90.00000000
_cell_angle_gamma   90.00000000
_symmetry_Int_Tables_number   1
_chemical_formula_structural   Cr5Fe19Ni30
_chemical_formula_sum   'Cr5 Fe19 Ni30'
_cell_volume   577.84749497
_cell_formula_units_Z   1
loop_
 _symmetry_equiv_pos_site_id
 _symmetry_equiv_pos_as_xyz
  1  'x, y, z'
loop_
 _atom_site_type_symbol
 _atom_site_label
 _atom_site_symmetry_multiplicity
 _atom_site_fract_x
 _atom_site_fract_y
 _atom_site_fract_z
 _atom_site_occupancy
  Ni  Ni0  1  0.00377648  1.00243266  0.00475271  1
  Fe  Fe1  1  0.16871744  0.16816954  0.16972358  1
  Fe  Fe2  1  1.00081758  1.00220591  0.33625362  1
  Ni  Ni3  1  1.00289783  0.33639088  0.00451680  1
  Ni  Ni4  1  0.16905331  0.50478721  0.17112862  1
  Fe  Fe5  1  1.00089089  0.33716377  0.33616801  1
  Fe  Fe6  1  1.00295307  0.67079395  0.00356054  1
  Ni  Ni7  1  0.16934661  0.83491451  0.17080130  1
  Ni  Ni8  1  1.00280737  0.67033793  0.33666707  1
  Ni  Ni9  1  0.33406527  0.99960168  1.00256257  1
  Cr  Cr10  1  0.50621574  0.16919313  0.16915232  1
  Fe  Fe11  1  0.33708624  1.00069140  0.33644965  1
  Cr  Cr12  1  0.33458584  0.33890956  1.00239172  1
  Ni  Ni13  1  0.50288790  0.50498389  0.17122646  1
  Fe  Fe14  1  0.33683151  0.33855277  0.33717252  1
  Ni  Ni15  1  0.33735229  0.67138172  0.00345754  1
  Ni  Ni16  1  0.50270620  0.83471077  0.16976239  1
  Fe  Fe17  1  0.33813963  0.67008061  0.33618577  1
  Ni  Ni18  1  0.67138621  0.99904250  0.00364756  1
  Ni  Ni19  1  0.83765763  0.17018959  0.17000506  1
  Ni  Ni20  1  0.67012172  1.00165226  0.33690803  1
  Ni  Ni21  1  0.67197446  0.33985971  0.00358951  1
  Fe  Fe22  1  0.83588324  0.50459504  0.16974180  1
  Ni  Ni23  1  0.66973594  0.33731510  0.33731161  1
  Ni  Ni24  1  0.66914324  0.67079277  0.00406158  1
  Ni  Ni25  1  0.83717344  0.83768948  0.17043240  1
  Ni  Ni26  1  0.67033610  0.67057088  0.33564729  1
  Fe  Fe27  1  0.17011218  0.16888549  0.50342435  1
  Ni  Ni28  1  0.00318423  1.00267894  0.66796837  1
  Ni  Ni29  1  0.16718006  0.16714840  0.83682152  1
  Fe  Fe30  1  0.16943207  0.50578465  0.50217761  1
  Ni  Ni31  1  0.00394281  0.33635754  0.66850342  1
  Fe  Fe32  1  0.16735534  0.50602623  0.83688381  1
  Fe  Fe33  1  0.17019523  0.83461946  0.50341509  1
  Ni  Ni34  1  1.00263710  0.67041382  0.67034470  1
  Ni  Ni35  1  0.16923968  0.83649015  0.83565909  1
  Fe  Fe36  1  0.50403700  0.16899730  0.50185438  1
  Fe  Fe37  1  0.33428192  0.99953205  0.66987636  1
  Cr  Cr38  1  0.50442058  0.16775568  0.83631463  1
  Ni  Ni39  1  0.50364841  0.50432938  0.50213176  1
  Cr  Cr40  1  0.33608863  0.33794357  0.67144907  1
  Ni  Ni41  1  0.50565717  0.50661704  0.83620719  1
  Ni  Ni42  1  0.50250601  0.83528738  0.50296852  1
  Ni  Ni43  1  0.33742658  0.66997622  0.66953830  1
  Ni  Ni44  1  0.50233805  0.83396513  0.83650481  1
  Fe  Fe45  1  0.83510943  0.16985942  0.50253634  1
  Fe  Fe46  1  0.67085743  0.99966690  0.66830518  1
  Cr  Cr47  1  0.83797481  0.16991783  0.83666430  1
  Fe  Fe48  1  0.83579914  0.50503241  0.50377995  1
  Fe  Fe49  1  0.67230254  0.34038520  0.66819609  1
  Ni  Ni50  1  0.83680935  0.50421378  0.83632961  1
  Fe  Fe51  1  0.83551375  0.83466894  0.50289066  1
  Ni  Ni52  1  0.66913332  0.67090116  0.66946072  1
  Ni  Ni53  1  0.83766720  0.83492990  0.83590930  1
" 