1248,Ni56Fe22Cr21_6,-231.567523399623, 179.982677980895,Ni56Fe22Cr21,"# generated using pymatgen
 data_Cr13Fe11Ni30
_symmetry_space_group_name_H-M   'P 1'
_cell_length_a   7.45420693
_cell_length_b   7.45420693
_cell_length_c   10.54184053
_cell_angle_alpha   90.00000000
_cell_angle_beta   90.00000000
_cell_angle_gamma   90.00000000
_symmetry_Int_Tables_number   1
_chemical_formula_structural   Cr13Fe11Ni30
_chemical_formula_sum   'Cr13 Fe11 Ni30'
_cell_volume   585.75948712
_cell_formula_units_Z   1
loop_
 _symmetry_equiv_pos_site_id
 _symmetry_equiv_pos_as_xyz
  1  'x, y, z'
loop_
 _atom_site_type_symbol
 _atom_site_label
 _atom_site_symmetry_multiplicity
 _atom_site_fract_x
 _atom_site_fract_y
 _atom_site_fract_z
 _atom_site_occupancy
  Ni  Ni0  1  0.00298258  0.00093555  0.99965258  1
  Ni  Ni1  1  0.16621079  0.16569111  0.16802095  1
  Ni  Ni2  1  0.00159828  0.99984470  0.33485090  1
  Ni  Ni3  1  0.00297793  0.33384170  0.99990921  1
  Fe  Fe4  1  0.16650258  0.50261616  0.16873108  1
  Ni  Ni5  1  0.00328228  0.33410971  0.33478117  1
  Ni  Ni6  1  0.00279720  0.66794480  0.99914504  1
  Ni  Ni7  1  0.16812556  0.83420728  0.16712488  1
  Ni  Ni8  1  0.00213066  0.66847901  0.33618843  1
  Ni  Ni9  1  0.33325444  0.99858854  1.00066880  1
  Cr  Cr10  1  0.49986248  0.16473354  0.16827121  1
  Fe  Fe11  1  0.33180425  0.99832154  0.33421598  1
  Cr  Cr12  1  0.32985823  0.33298218  0.00114904  1
  Cr  Cr13  1  0.50019672  0.50461315  0.16730748  1
  Ni  Ni14  1  0.33302135  0.33511448  0.33486234  1
  Ni  Ni15  1  0.33272864  0.67097986  0.00123972  1
  Ni  Ni16  1  0.49909243  0.83317194  0.16759217  1
  Ni  Ni17  1  0.33414881  0.66766214  0.33500874  1
  Ni  Ni18  1  0.66653480  0.99774666  0.99841375  1
  Cr  Cr19  1  0.83701135  0.16613902  0.16833595  1
  Fe  Fe20  1  0.66696999  0.99900883  0.33605997  1
  Cr  Cr21  1  0.66884576  0.33323638  0.99814026  1
  Cr  Cr22  1  0.83551797  0.50234579  0.16771298  1
  Fe  Fe23  1  0.66776854  0.33594254  0.33708127  1
  Ni  Ni24  1  0.66729233  0.67157496  0.99959265  1
  Cr  Cr25  1  0.83463135  0.83407366  0.16624572  1
  Ni  Ni26  1  0.66616469  0.66930855  0.33633260  1
  Cr  Cr27  1  0.16793685  0.16779295  0.50113965  1
  Cr  Cr28  1  0.00131923  1.00034690  0.66828897  1
  Ni  Ni29  1  0.16677060  0.16802297  0.83422125  1
  Ni  Ni30  1  0.16881030  0.50259935  0.50063513  1
  Ni  Ni31  1  0.00228708  0.33598046  0.66823620  1
  Ni  Ni32  1  0.16534657  0.50197139  0.83390384  1
  Ni  Ni33  1  0.16670611  0.83135839  0.50122603  1
  Fe  Fe34  1  0.00324905  0.66615510  0.66674342  1
  Fe  Fe35  1  0.16979294  0.83490107  0.83529896  1
  Ni  Ni36  1  0.50082358  0.16887724  0.50003411  1
  Ni  Ni37  1  0.33447422  1.00038236  0.66795214  1
  Ni  Ni38  1  0.49914403  0.16401854  0.83374451  1
  Ni  Ni39  1  0.49876321  0.50078173  0.49982998  1
  Ni  Ni40  1  0.33256657  0.33395048  0.66758781  1
  Cr  Cr41  1  0.49764242  0.50322517  0.83486306  1
  Fe  Fe42  1  0.49832711  0.83477884  0.49954965  1
  Fe  Fe43  1  0.33186686  0.66784955  0.66690287  1
  Ni  Ni44  1  0.49981101  0.83495812  0.83589124  1
  Ni  Ni45  1  0.83385268  0.16696304  0.49826595  1
  Cr  Cr46  1  0.66672288  1.00017316  0.66727347  1
  Ni  Ni47  1  0.83683886  0.16661945  0.83609844  1
  Fe  Fe48  1  0.83663916  0.50029472  0.49878030  1
  Cr  Cr49  1  0.66848272  0.33379766  0.66670460  1
  Fe  Fe50  1  0.83731569  0.50086326  0.83523597  1
  Ni  Ni51  1  0.83574787  0.83361722  0.49874516  1
  Cr  Cr52  1  0.66891012  0.66866870  0.66648896  1
  Fe  Fe53  1  0.83505067  0.83434883  0.83623392  1
" 