8628,Ni56Fe27Cr16_3,-233.960371044413, 190.976488261506,Ni56Fe27Cr16,"# generated using pymatgen
 data_Cr5Fe7Ni15
_symmetry_space_group_name_H-M   'P 1'
_cell_length_a   7.44201738
_cell_length_b   7.44201738
_cell_length_c   10.52460191
_cell_angle_alpha   90.00000000
_cell_angle_beta   90.00000000
_cell_angle_gamma   90.00000000
_symmetry_Int_Tables_number   1
_chemical_formula_structural   Cr5Fe7Ni15
_chemical_formula_sum   'Cr10 Fe14 Ni30'
_cell_volume   582.89058134
_cell_formula_units_Z   2
loop_
 _symmetry_equiv_pos_site_id
 _symmetry_equiv_pos_as_xyz
  1  'x, y, z'
loop_
 _atom_site_type_symbol
 _atom_site_label
 _atom_site_symmetry_multiplicity
 _atom_site_fract_x
 _atom_site_fract_y
 _atom_site_fract_z
 _atom_site_occupancy
  Ni  Ni0  1  1.00051823  0.00204502  1.00088865  1
  Fe  Fe1  1  0.17019241  0.16756340  0.16767725  1
  Ni  Ni2  1  0.00182250  0.99980951  0.33584263  1
  Fe  Fe3  1  0.00234872  0.33357996  1.00027854  1
  Ni  Ni4  1  0.17003109  0.50212701  0.16922104  1
  Cr  Cr5  1  0.00368602  0.33415421  0.33645242  1
  Fe  Fe6  1  1.00123812  0.67014358  1.00114901  1
  Ni  Ni7  1  0.16791999  0.83582431  0.16987043  1
  Ni  Ni8  1  0.00402152  0.67132750  0.33554749  1
  Ni  Ni9  1  0.33502645  0.00332879  1.00050163  1
  Fe  Fe10  1  0.49960543  0.16770668  0.16754967  1
  Ni  Ni11  1  0.33440888  1.00115336  0.33534184  1
  Ni  Ni12  1  0.33506850  0.33414486  0.00173852  1
  Ni  Ni13  1  0.49955705  0.50090177  0.16785280  1
  Ni  Ni14  1  0.33526979  0.33542983  0.33524366  1
  Cr  Cr15  1  0.33595190  0.66779284  1.00137833  1
  Ni  Ni16  1  0.50086169  0.83624182  0.16920165  1
  Ni  Ni17  1  0.33373860  0.66846248  0.33504170  1
  Ni  Ni18  1  0.66949974  1.00102604  0.00218449  1
  Fe  Fe19  1  0.83524535  0.16517366  0.16693315  1
  Fe  Fe20  1  0.66818427  1.00150609  0.33532840  1
  Fe  Fe21  1  0.66694768  0.33390507  1.00062116  1
  Cr  Cr22  1  0.83527441  0.50249315  0.16644203  1
  Cr  Cr23  1  0.66615556  0.33332289  0.33557194  1
  Ni  Ni24  1  0.66899601  0.66931642  0.99970671  1
  Fe  Fe25  1  0.83582909  0.83612657  0.16755103  1
  Cr  Cr26  1  0.66717343  0.66997177  0.33626352  1
  Ni  Ni27  1  0.16887218  0.16833696  0.50073573  1
  Cr  Cr28  1  1.00120068  0.00366827  0.66868468  1
  Ni  Ni29  1  0.16844874  0.16872773  0.83619251  1
  Fe  Fe30  1  0.16918711  0.50032514  0.50035423  1
  Ni  Ni31  1  1.00124282  0.33513908  0.66843985  1
  Fe  Fe32  1  0.16785711  0.49898781  0.83573544  1
  Ni  Ni33  1  0.16708771  0.83556593  0.49785991  1
  Cr  Cr34  1  1.00042376  0.66733169  0.66873121  1
  Ni  Ni35  1  0.16742556  0.83691964  0.83731609  1
  Ni  Ni36  1  0.50073305  0.17061134  0.50046427  1
  Cr  Cr37  1  0.33521327  0.00295340  0.66984644  1
  Ni  Ni38  1  0.50084150  0.17018035  0.83656441  1
  Ni  Ni39  1  0.50118100  0.50013405  0.50193440  1
  Ni  Ni40  1  0.33513246  0.33563283  0.66806029  1
  Ni  Ni41  1  0.50404022  0.50022967  0.83525700  1
  Fe  Fe42  1  0.50136000  0.83595751  0.49996616  1
  Cr  Cr43  1  0.33666816  0.66737456  0.66882554  1
  Ni  Ni44  1  0.50269712  0.83463250  0.83572478  1
  Ni  Ni45  1  0.83543833  0.16800461  0.50154664  1
  Cr  Cr46  1  0.66863112  1.00153468  0.66820441  1
  Ni  Ni47  1  0.83575330  0.17007019  0.83617710  1
  Fe  Fe48  1  0.83545639  0.50130548  0.50330486  1
  Fe  Fe49  1  0.66817510  0.33613320  0.66824211  1
  Ni  Ni50  1  0.83346791  0.50125395  0.83486654  1
  Ni  Ni51  1  0.83644659  0.83512150  0.49923572  1
  Fe  Fe52  1  0.66833333  0.66638116  0.66915908  1
  Ni  Ni53  1  0.83492394  0.83371904  0.83800174  1
" 