2384,Ni56Cr44_4,-216.881858388861, 132.212315092945,Ni56Cr44,"# generated using pymatgen
 data_Cr5Ni4
_symmetry_space_group_name_H-M   'P 1'
_cell_length_a   7.53607661
_cell_length_b   7.53607661
_cell_length_c   10.65762175
_cell_angle_alpha   90.00000000
_cell_angle_beta   90.00000000
_cell_angle_gamma   90.00000000
_symmetry_Int_Tables_number   1
_chemical_formula_structural   Cr5Ni4
_chemical_formula_sum   'Cr30 Ni24'
_cell_volume   605.27245698
_cell_formula_units_Z   6
loop_
 _symmetry_equiv_pos_site_id
 _symmetry_equiv_pos_as_xyz
  1  'x, y, z'
loop_
 _atom_site_type_symbol
 _atom_site_label
 _atom_site_symmetry_multiplicity
 _atom_site_fract_x
 _atom_site_fract_y
 _atom_site_fract_z
 _atom_site_occupancy
  Ni  Ni0  1  -0.00396999  -0.00170111  -0.00405422  1
  Ni  Ni1  1  0.16454145  0.16684394  0.15973608  1
  Cr  Cr2  1  -0.00234006  -0.00300798  0.32760212  1
  Ni  Ni3  1  -0.00189289  0.32947308  0.99492289  1
  Ni  Ni4  1  0.16390870  0.49339774  0.16033872  1
  Cr  Cr5  1  0.00034301  0.32953139  0.33005161  1
  Ni  Ni6  1  -0.00085198  0.65841602  -0.00407293  1
  Cr  Cr7  1  0.16041208  0.82618935  0.15915937  1
  Ni  Ni8  1  -0.00253382  0.65864180  0.32866348  1
  Cr  Cr9  1  0.33081441  0.99471543  -0.00007848  1
  Ni  Ni10  1  0.49334850  0.16745166  0.16221889  1
  Cr  Cr11  1  0.32907384  -0.00198035  0.32354126  1
  Ni  Ni12  1  0.32859178  0.33255020  -0.00234587  1
  Ni  Ni13  1  0.49330711  0.49322404  0.16143842  1
  Ni  Ni14  1  0.32966713  0.33101900  0.32586932  1
  Ni  Ni15  1  0.32841436  0.65791012  0.99506505  1
  Ni  Ni16  1  0.49487472  0.82559147  0.16187251  1
  Cr  Cr17  1  0.32864943  0.65953807  0.32625642  1
  Cr  Cr18  1  0.65999493  -0.00401677  0.99498012  1
  Cr  Cr19  1  0.82868963  0.16539424  0.15908348  1
  Cr  Cr20  1  0.65924926  -0.00455383  0.32626400  1
  Ni  Ni21  1  0.65908797  0.32916908  0.99530307  1
  Cr  Cr22  1  0.82805489  0.49546671  0.16246309  1
  Ni  Ni23  1  0.65821125  0.33060302  0.32576017  1
  Cr  Cr24  1  0.65540060  0.66110966  0.99501113  1
  Cr  Cr25  1  0.83033827  0.82538155  0.16244438  1
  Ni  Ni26  1  0.66008262  0.65988251  0.32625271  1
  Cr  Cr27  1  0.16823661  0.16341609  0.49636739  1
  Cr  Cr28  1  0.99390530  -0.00230074  0.66249474  1
  Cr  Cr29  1  0.16377865  0.16385335  0.83071721  1
  Ni  Ni30  1  0.16547699  0.49533169  0.49531530  1
  Cr  Cr31  1  -0.00229851  0.33044476  0.66247305  1
  Ni  Ni32  1  0.16637806  0.49495327  0.83057191  1
  Cr  Cr33  1  0.16408389  0.82697662  0.49670235  1
  Cr  Cr34  1  -0.00206504  0.65804972  0.66096822  1
  Cr  Cr35  1  0.16453876  0.82672357  0.83042645  1
  Cr  Cr36  1  0.49412994  0.16441923  0.49627488  1
  Ni  Ni37  1  0.33143391  0.99459217  0.66325855  1
  Cr  Cr38  1  0.49375280  0.16481377  0.82717582  1
  Cr  Cr39  1  0.49396229  0.49349887  0.49468525  1
  Ni  Ni40  1  0.32805360  0.33271346  0.66267119  1
  Ni  Ni41  1  0.49018798  0.49542339  0.83016925  1
  Cr  Cr42  1  0.49427275  0.82860676  0.49773652  1
  Ni  Ni43  1  0.32893469  0.65911563  0.66472629  1
  Ni  Ni44  1  0.49248404  0.82717765  0.82687031  1
  Cr  Cr45  1  0.82468484  0.16321002  0.49610854  1
  Ni  Ni46  1  0.65953214  0.99519447  0.66474006  1
  Ni  Ni47  1  0.82824896  0.16258969  0.83146660  1
  Cr  Cr48  1  0.82691718  0.49645805  0.48989591  1
  Cr  Cr49  1  0.66332496  0.32971779  0.66511815  1
  Cr  Cr50  1  0.82955879  0.49339459  0.83390936  1
  Cr  Cr51  1  0.82790011  0.82668145  0.49237449  1
  Cr  Cr52  1  0.65946783  0.66205833  0.66482631  1
  Cr  Cr53  1  0.83033652  0.82933156  0.83089434  1
" 