1971,Ni56Fe36Cr6_11,-238.238876418005, 211.132352495356,Ni56Fe36Cr6,"# generated using pymatgen
 data_Cr5Fe19Ni30
_symmetry_space_group_name_H-M   'P 1'
_cell_length_a   7.41942470
_cell_length_b   7.41942470
_cell_length_c   10.49265104
_cell_angle_alpha   90.00000000
_cell_angle_beta   90.00000000
_cell_angle_gamma   90.00000000
_symmetry_Int_Tables_number   1
_chemical_formula_structural   Cr5Fe19Ni30
_chemical_formula_sum   'Cr5 Fe19 Ni30'
_cell_volume   577.59801618
_cell_formula_units_Z   1
loop_
 _symmetry_equiv_pos_site_id
 _symmetry_equiv_pos_as_xyz
  1  'x, y, z'
loop_
 _atom_site_type_symbol
 _atom_site_label
 _atom_site_symmetry_multiplicity
 _atom_site_fract_x
 _atom_site_fract_y
 _atom_site_fract_z
 _atom_site_occupancy
  Fe  Fe0  1  1.00307064  0.00570644  1.00116434  1
  Fe  Fe1  1  0.16961880  0.17219352  0.16950800  1
  Ni  Ni2  1  1.00249293  0.00527228  0.33756933  1
  Ni  Ni3  1  0.00358971  0.33739304  1.00287142  1
  Fe  Fe4  1  0.16966861  0.50194295  0.17103759  1
  Ni  Ni5  1  1.00311852  0.33654184  0.33698381  1
  Ni  Ni6  1  0.00359368  0.66651648  1.00088984  1
  Cr  Cr7  1  0.16674245  0.83586559  0.16984272  1
  Ni  Ni8  1  0.00486025  0.66758353  0.33985326  1
  Ni  Ni9  1  0.33774286  0.00379811  0.00457311  1
  Ni  Ni10  1  0.50322765  0.17251755  0.17032546  1
  Fe  Fe11  1  0.33437507  0.00384407  0.33585869  1
  Ni  Ni12  1  0.33570900  0.33497251  1.00284665  1
  Ni  Ni13  1  0.50289996  0.50108417  0.17036171  1
  Fe  Fe14  1  0.33376631  0.33760841  0.33498145  1
  Fe  Fe15  1  0.33736784  0.66802285  0.00364811  1
  Fe  Fe16  1  0.50359688  0.83726174  0.17020740  1
  Ni  Ni17  1  0.33809233  0.67003419  0.33705315  1
  Ni  Ni18  1  0.66605901  0.00438043  1.00034350  1
  Fe  Fe19  1  0.83484854  0.17103111  0.17006733  1
  Ni  Ni20  1  0.66816050  0.00344421  0.33770920  1
  Ni  Ni21  1  0.66959837  0.33640819  0.00345878  1
  Fe  Fe22  1  0.83738722  0.50188915  0.16860661  1
  Fe  Fe23  1  0.67199013  0.33759767  0.33580411  1
  Ni  Ni24  1  0.66891069  0.66947725  0.00347199  1
  Cr  Cr25  1  0.83796199  0.83683978  0.16752670  1
  Fe  Fe26  1  0.67180465  0.66958045  0.33706142  1
  Ni  Ni27  1  0.16875138  0.17097951  0.50210572  1
  Ni  Ni28  1  0.00641559  0.00384745  0.66983968  1
  Ni  Ni29  1  0.17105158  0.16791548  0.83712400  1
  Ni  Ni30  1  0.17178918  0.50310466  0.50356061  1
  Ni  Ni31  1  0.00456237  0.33540810  0.66984399  1
  Fe  Fe32  1  0.16763019  0.50157688  0.83581881  1
  Fe  Fe33  1  0.17004577  0.83719640  0.50318954  1
  Ni  Ni34  1  0.00403387  0.66940653  0.66864867  1
  Ni  Ni35  1  0.16874041  0.83586641  0.83658202  1
  Cr  Cr36  1  0.50176980  0.17357577  0.50432660  1
  Ni  Ni37  1  0.33601376  1.00245271  0.66919751  1
  Ni  Ni38  1  0.50145384  0.17165654  0.83623908  1
  Ni  Ni39  1  0.50044531  0.50380120  0.50097976  1
  Fe  Fe40  1  0.33318169  0.33741374  0.67153262  1
  Ni  Ni41  1  0.50094443  0.50211537  0.83845010  1
  Fe  Fe42  1  0.50231891  0.83737395  0.50194692  1
  Fe  Fe43  1  0.33432437  0.66936594  0.66938612  1
  Fe  Fe44  1  0.50251107  0.83813529  0.83718508  1
  Ni  Ni45  1  0.83835134  0.16616023  0.50232000  1
  Fe  Fe46  1  0.67392269  1.00273542  0.67097897  1
  Ni  Ni47  1  0.83740530  0.16880884  0.83802811  1
  Fe  Fe48  1  0.83924327  0.50048053  0.50307358  1
  Cr  Cr49  1  0.67288511  0.33654906  0.67185606  1
  Ni  Ni50  1  0.83583441  0.50455085  0.83846002  1
  Ni  Ni51  1  0.83959340  0.83710077  0.50235568  1
  Cr  Cr52  1  0.66997099  0.67058508  0.66883773  1
  Ni  Ni53  1  0.83985970  0.83633413  0.83781168  1
" 