5994,Ni56Fe20Cr22_0,-230.696002927329, 180.835955338917,Ni56Fe20Cr22,"# generated using pymatgen
 data_Cr7(FeNi3)5
_symmetry_space_group_name_H-M   'P 1'
_cell_length_a   7.45686495
_cell_length_b   7.45686495
_cell_length_c   10.54559954
_cell_angle_alpha   90.00000000
_cell_angle_beta   90.00000000
_cell_angle_gamma   90.00000000
_symmetry_Int_Tables_number   1
_chemical_formula_structural   Cr7(FeNi3)5
_chemical_formula_sum   'Cr14 Fe10 Ni30'
_cell_volume   586.38632057
_cell_formula_units_Z   2
loop_
 _symmetry_equiv_pos_site_id
 _symmetry_equiv_pos_as_xyz
  1  'x, y, z'
loop_
 _atom_site_type_symbol
 _atom_site_label
 _atom_site_symmetry_multiplicity
 _atom_site_fract_x
 _atom_site_fract_y
 _atom_site_fract_z
 _atom_site_occupancy
  Ni  Ni0  1  1.00052504  0.00181853  0.00178666  1
  Ni  Ni1  1  0.16730639  0.16888864  0.16784930  1
  Cr  Cr2  1  0.00218108  0.00313118  0.33378938  1
  Ni  Ni3  1  0.00080664  0.33499431  0.00120341  1
  Fe  Fe4  1  0.16860864  0.49996700  0.16722023  1
  Ni  Ni5  1  1.00053209  0.33454664  0.33336109  1
  Ni  Ni6  1  0.00174833  0.66523398  0.00099411  1
  Ni  Ni7  1  0.16880706  0.83302145  0.16710387  1
  Fe  Fe8  1  0.00160682  0.66526246  0.33314509  1
  Cr  Cr9  1  0.33346098  1.00032837  0.00303258  1
  Ni  Ni10  1  0.49825437  0.16829462  0.16826531  1
  Ni  Ni11  1  0.33561036  0.99933482  0.33450479  1
  Ni  Ni12  1  0.33220157  0.33638342  0.00197586  1
  Ni  Ni13  1  0.49827179  0.50251973  0.16719074  1
  Ni  Ni14  1  0.33246235  0.33306928  0.33225514  1
  Ni  Ni15  1  0.33288735  0.66547562  0.00303463  1
  Ni  Ni16  1  0.49913972  0.83123393  0.16954769  1
  Ni  Ni17  1  0.33488111  0.66964325  0.33188569  1
  Cr  Cr18  1  0.66813272  0.00179508  0.00147811  1
  Ni  Ni19  1  0.83648730  0.16802347  0.16700687  1
  Ni  Ni20  1  0.66421572  1.00028144  0.33397462  1
  Cr  Cr21  1  0.66850699  0.33413671  0.00116961  1
  Fe  Fe22  1  0.83493904  0.50052995  0.16710001  1
  Cr  Cr23  1  0.66926818  0.33335630  0.33323074  1
  Ni  Ni24  1  0.66741247  0.66575731  0.00186582  1
  Cr  Cr25  1  0.83385765  0.83360998  0.16597882  1
  Ni  Ni26  1  0.66568946  0.66795136  0.33332208  1
  Fe  Fe27  1  0.16771281  0.16759805  0.50130449  1
  Ni  Ni28  1  1.00014851  0.00240294  0.66651819  1
  Cr  Cr29  1  0.16627705  0.16920955  0.83349939  1
  Cr  Cr30  1  0.16712460  0.49957745  0.50088861  1
  Ni  Ni31  1  0.99765144  0.33396736  0.66748342  1
  Fe  Fe32  1  0.16545008  0.50023710  0.83408778  1
  Fe  Fe33  1  0.16963223  0.83512213  0.50142631  1
  Fe  Fe34  1  0.00079437  0.66560889  0.66777636  1
  Cr  Cr35  1  0.16602369  0.83311509  0.83382142  1
  Ni  Ni36  1  0.49962901  0.16522547  0.50224477  1
  Ni  Ni37  1  0.33499458  1.00002667  0.66446145  1
  Fe  Fe38  1  0.50203780  0.16842018  0.83113323  1
  Cr  Cr39  1  0.50072977  0.50039011  0.50126162  1
  Ni  Ni40  1  0.33438269  0.33323181  0.66781885  1
  Cr  Cr41  1  0.49943930  0.49994134  0.83320794  1
  Fe  Fe42  1  0.50009756  0.83583960  0.50014072  1
  Ni  Ni43  1  0.33318144  0.66878965  0.66712856  1
  Cr  Cr44  1  0.50106231  0.83296259  0.83298592  1
  Ni  Ni45  1  0.83400344  0.16781466  0.50270508  1
  Ni  Ni46  1  0.66690827  0.00360345  0.66671578  1
  Ni  Ni47  1  0.83531065  0.16882238  0.83233414  1
  Ni  Ni48  1  0.83496770  0.50023133  0.50134819  1
  Ni  Ni49  1  0.67001347  0.33215491  0.66754453  1
  Ni  Ni50  1  0.83532261  0.49968661  0.83290588  1
  Cr  Cr51  1  0.83323855  0.83393094  0.50159467  1
  Fe  Fe52  1  0.66797046  0.66610413  0.66678553  1
  Cr  Cr53  1  0.83496405  0.83426639  0.83447458  1
" 