5168,Ni56Cr44_14,-216.538373489419, 127.859740284387,Ni56Cr44,"# generated using pymatgen
 data_Cr5Ni4
_symmetry_space_group_name_H-M   'P 1'
_cell_length_a   7.53869493
_cell_length_b   7.53869493
_cell_length_c   10.66132461
_cell_angle_alpha   90.00000000
_cell_angle_beta   90.00000000
_cell_angle_gamma   90.00000000
_symmetry_Int_Tables_number   1
_chemical_formula_structural   Cr5Ni4
_chemical_formula_sum   'Cr30 Ni24'
_cell_volume   605.90356054
_cell_formula_units_Z   6
loop_
 _symmetry_equiv_pos_site_id
 _symmetry_equiv_pos_as_xyz
  1  'x, y, z'
loop_
 _atom_site_type_symbol
 _atom_site_label
 _atom_site_symmetry_multiplicity
 _atom_site_fract_x
 _atom_site_fract_y
 _atom_site_fract_z
 _atom_site_occupancy
  Cr  Cr0  1  0.99205436  -0.00214953  -0.00454839  1
  Ni  Ni1  1  0.15705462  0.16206628  0.16406102  1
  Ni  Ni2  1  -0.00400454  -0.00354099  0.32772886  1
  Cr  Cr3  1  -0.00437930  0.32752767  0.99321485  1
  Cr  Cr4  1  0.15879484  0.49504532  0.16277603  1
  Ni  Ni5  1  0.99482395  0.32754609  0.32752803  1
  Cr  Cr6  1  0.99182955  0.66021586  0.99400227  1
  Cr  Cr7  1  0.15907865  0.82912049  0.16359522  1
  Ni  Ni8  1  0.99520532  0.66174584  0.32887205  1
  Cr  Cr9  1  0.32742680  -0.00304263  0.99503325  1
  Cr  Cr10  1  0.49697128  0.16242691  0.16194373  1
  Cr  Cr11  1  0.32592086  -0.00333691  0.33126697  1
  Cr  Cr12  1  0.32461605  0.32885125  0.99412677  1
  Cr  Cr13  1  0.49677900  0.49331652  0.16252732  1
  Cr  Cr14  1  0.32629368  0.32709217  0.32951882  1
  Cr  Cr15  1  0.33013298  0.65966618  0.99296876  1
  Cr  Cr16  1  0.49536112  0.82998757  0.15910749  1
  Cr  Cr17  1  0.32753693  0.66183594  0.33027877  1
  Ni  Ni18  1  0.66531564  0.99450920  0.99429393  1
  Ni  Ni19  1  0.83046926  0.16209375  0.16341273  1
  Cr  Cr20  1  0.66372369  0.99513983  0.32815108  1
  Cr  Cr21  1  0.66549092  0.32991571  0.99418000  1
  Ni  Ni22  1  0.83047410  0.49346636  0.16495253  1
  Ni  Ni23  1  0.66506934  0.32702741  0.32786986  1
  Cr  Cr24  1  0.66390442  0.66367834  0.99452715  1
  Ni  Ni25  1  0.83049641  0.83000945  0.16260035  1
  Cr  Cr26  1  0.66431540  0.66203193  0.32571904  1
  Ni  Ni27  1  0.16141312  0.16107193  0.49406624  1
  Cr  Cr28  1  -0.00351903  -0.00399643  0.66242753  1
  Ni  Ni29  1  0.16131137  0.16233022  0.82788320  1
  Ni  Ni30  1  0.15981019  0.49701179  0.49533267  1
  Cr  Cr31  1  -0.00435120  0.32904007  0.66504734  1
  Ni  Ni32  1  0.16166360  0.49581119  0.82647032  1
  Ni  Ni33  1  0.16063742  0.82760594  0.49608040  1
  Ni  Ni34  1  -0.00204004  0.66081289  0.66266793  1
  Cr  Cr35  1  0.16226400  0.82800348  0.82660131  1
  Ni  Ni36  1  0.49432874  0.16329465  0.49628958  1
  Ni  Ni37  1  0.32729799  0.99477983  0.66070177  1
  Cr  Cr38  1  0.49610391  0.16114775  0.82778330  1
  Cr  Cr39  1  0.49700573  0.49244862  0.49566418  1
  Cr  Cr40  1  0.32675761  0.32809114  0.66144768  1
  Ni  Ni41  1  0.49517485  0.49655511  0.82667291  1
  Cr  Cr42  1  0.49247128  0.82962618  0.49800171  1
  Ni  Ni43  1  0.32618890  0.66216003  0.66278295  1
  Ni  Ni44  1  0.49574809  0.82813603  0.82806305  1
  Cr  Cr45  1  0.82738413  0.16476478  0.49449506  1
  Cr  Cr46  1  0.66212996  -0.00455072  0.66311070  1
  Ni  Ni47  1  0.82804551  0.16209428  0.82893847  1
  Cr  Cr48  1  0.83121352  0.49370700  0.49446719  1
  Ni  Ni49  1  0.66158427  0.32875256  0.66374229  1
  Ni  Ni50  1  0.82885420  0.49503708  0.82652141  1
  Cr  Cr51  1  0.83421006  0.82745354  0.49447160  1
  Cr  Cr52  1  0.66339557  0.66133010  0.66493613  1
  Ni  Ni53  1  0.82755448  0.82862849  0.82901817  1
" 