7808,Ni56Fe36Cr6_15,-238.098385080604, 212.795256978783,Ni56Fe36Cr6,"# generated using pymatgen
 data_Cr5Fe19Ni30
_symmetry_space_group_name_H-M   'P 1'
_cell_length_a   7.41846592
_cell_length_b   7.41846592
_cell_length_c   10.49129512
_cell_angle_alpha   90.00000000
_cell_angle_beta   90.00000000
_cell_angle_gamma   90.00000000
_symmetry_Int_Tables_number   1
_chemical_formula_structural   Cr5Fe19Ni30
_chemical_formula_sum   'Cr5 Fe19 Ni30'
_cell_volume   577.37412325
_cell_formula_units_Z   1
loop_
 _symmetry_equiv_pos_site_id
 _symmetry_equiv_pos_as_xyz
  1  'x, y, z'
loop_
 _atom_site_type_symbol
 _atom_site_label
 _atom_site_symmetry_multiplicity
 _atom_site_fract_x
 _atom_site_fract_y
 _atom_site_fract_z
 _atom_site_occupancy
  Fe  Fe0  1  1.00291550  1.00223338  1.00238052  1
  Ni  Ni1  1  0.16741524  0.16884066  0.16856441  1
  Fe  Fe2  1  0.00570731  0.00396398  0.33588728  1
  Ni  Ni3  1  1.00062233  0.33464951  0.00409222  1
  Fe  Fe4  1  0.16927723  0.50419711  0.16798633  1
  Fe  Fe5  1  1.00267997  0.33587028  0.33631094  1
  Ni  Ni6  1  1.00218002  0.67040290  1.00282137  1
  Ni  Ni7  1  0.17077441  0.83684932  0.17000938  1
  Fe  Fe8  1  0.00525729  0.66982638  0.33500369  1
  Ni  Ni9  1  0.33551463  1.00275153  1.00285942  1
  Fe  Fe10  1  0.50243087  0.16724435  0.16917789  1
  Ni  Ni11  1  0.33617616  1.00212076  0.33734730  1
  Fe  Fe12  1  0.33842029  0.33732519  0.00537460  1
  Ni  Ni13  1  0.50393446  0.50481244  0.16958977  1
  Cr  Cr14  1  0.33622921  0.33709802  0.33591687  1
  Ni  Ni15  1  0.33797130  0.67322291  0.00492299  1
  Ni  Ni16  1  0.50269661  0.83523845  0.17051150  1
  Ni  Ni17  1  0.33556307  0.67089215  0.33553122  1
  Fe  Fe18  1  0.66992807  1.00232580  0.00420685  1
  Ni  Ni19  1  0.83702225  0.17058049  0.17083666  1
  Ni  Ni20  1  0.67028331  0.00509094  0.33456702  1
  Ni  Ni21  1  0.67126312  0.33688089  0.00455461  1
  Fe  Fe22  1  0.83730710  0.50386820  0.16949623  1
  Fe  Fe23  1  0.66945323  0.33675393  0.33577068  1
  Ni  Ni24  1  0.66926352  0.66828821  1.00320788  1
  Fe  Fe25  1  0.83628102  0.83710293  0.16929949  1
  Fe  Fe26  1  0.66811316  0.66882694  0.33480883  1
  Fe  Fe27  1  0.16974218  0.16959097  0.50311277  1
  Cr  Cr28  1  0.00478732  0.00425684  0.67128859  1
  Ni  Ni29  1  0.17004439  0.17103454  0.83800528  1
  Ni  Ni30  1  0.16868554  0.50436302  0.50321754  1
  Ni  Ni31  1  1.00153942  0.33542749  0.66835546  1
  Cr  Cr32  1  0.17091279  0.50264591  0.83933717  1
  Ni  Ni33  1  0.17094392  0.83378985  0.50291721  1
  Fe  Fe34  1  1.00225572  0.66770547  0.67068472  1
  Ni  Ni35  1  0.17086437  0.83603163  0.83712115  1
  Ni  Ni36  1  0.50547291  0.17077492  0.50308142  1
  Fe  Fe37  1  0.33858621  0.00545019  0.67218513  1
  Ni  Ni38  1  0.50491188  0.17131153  0.83884928  1
  Fe  Fe39  1  0.50420297  0.50358807  0.50404546  1
  Fe  Fe40  1  0.33778289  0.33678283  0.66904537  1
  Ni  Ni41  1  0.50392365  0.50327815  0.83620159  1
  Cr  Cr42  1  0.50215540  0.83804825  0.50363645  1
  Ni  Ni43  1  0.33705337  0.67103696  0.66966424  1
  Ni  Ni44  1  0.50400115  0.83595610  0.83691027  1
  Ni  Ni45  1  0.83500088  0.17246055  0.50105279  1
  Fe  Fe46  1  0.66963397  0.00524393  0.67144108  1
  Ni  Ni47  1  0.83546567  0.17078672  0.83748337  1
  Ni  Ni48  1  0.83814326  0.50122017  0.50229464  1
  Ni  Ni49  1  0.67113125  0.33688064  0.66862772  1
  Fe  Fe50  1  0.83497734  0.50213221  0.83656462  1
  Cr  Cr51  1  0.83624880  0.83658008  0.50132561  1
  Ni  Ni52  1  0.66896784  0.66695472  0.67131951  1
  Ni  Ni53  1  0.83470050  0.83622688  0.83801192  1
" 