2344,Ni56Fe27Cr16_10,-234.678369813423, 200.773881585183,Ni56Fe27Cr16,"# generated using pymatgen
 data_Cr5Fe7Ni15
_symmetry_space_group_name_H-M   'P 1'
_cell_length_a   7.43785014
_cell_length_b   7.43785014
_cell_length_c   10.51870855
_cell_angle_alpha   90.00000000
_cell_angle_beta   90.00000000
_cell_angle_gamma   90.00000000
_symmetry_Int_Tables_number   1
_chemical_formula_structural   Cr5Fe7Ni15
_chemical_formula_sum   'Cr10 Fe14 Ni30'
_cell_volume   581.91194165
_cell_formula_units_Z   2
loop_
 _symmetry_equiv_pos_site_id
 _symmetry_equiv_pos_as_xyz
  1  'x, y, z'
loop_
 _atom_site_type_symbol
 _atom_site_label
 _atom_site_symmetry_multiplicity
 _atom_site_fract_x
 _atom_site_fract_y
 _atom_site_fract_z
 _atom_site_occupancy
  Fe  Fe0  1  1.00065824  0.00259729  0.00360323  1
  Ni  Ni1  1  0.16781358  0.16618433  0.17073567  1
  Ni  Ni2  1  1.00069492  0.00279464  0.33373078  1
  Fe  Fe3  1  1.00004806  0.33302772  1.00183367  1
  Cr  Cr4  1  0.16922112  0.50046659  0.16989822  1
  Fe  Fe5  1  1.00037672  0.33133718  0.33648896  1
  Cr  Cr6  1  1.00079724  0.66972404  1.00030956  1
  Ni  Ni7  1  0.16818827  0.83772673  0.16763058  1
  Cr  Cr8  1  0.99916797  0.66889100  0.33729172  1
  Ni  Ni9  1  0.33646234  0.99989417  0.00436459  1
  Ni  Ni10  1  0.50355504  0.16913815  0.17048407  1
  Ni  Ni11  1  0.33624319  0.00532091  0.33351160  1
  Cr  Cr12  1  0.33827992  0.33413693  1.00158510  1
  Fe  Fe13  1  0.50536144  0.50143250  0.16831388  1
  Ni  Ni14  1  0.33629971  0.33106763  0.33594193  1
  Ni  Ni15  1  0.33511723  0.67130308  1.00026241  1
  Fe  Fe16  1  0.50336197  0.83840387  0.16753079  1
  Cr  Cr17  1  0.33666136  0.67074616  0.33438859  1
  Ni  Ni18  1  0.66932514  0.00290880  1.00139667  1
  Ni  Ni19  1  0.83436806  0.16762352  0.16828610  1
  Ni  Ni20  1  0.66875997  0.00351658  0.33613418  1
  Ni  Ni21  1  0.67089957  0.33408905  0.00219763  1
  Fe  Fe22  1  0.83335644  0.50011405  0.16781526  1
  Ni  Ni23  1  0.66922554  0.33351679  0.33411113  1
  Fe  Fe24  1  0.66638157  0.66988607  1.00146726  1
  Ni  Ni25  1  0.83388883  0.83650697  0.16937965  1
  Ni  Ni26  1  0.67066589  0.66923575  0.33331977  1
  Ni  Ni27  1  0.16824292  0.16831766  0.50044048  1
  Fe  Fe28  1  1.00069667  0.00386630  0.66801556  1
  Cr  Cr29  1  0.16648958  0.16583883  0.83528849  1
  Fe  Fe30  1  0.16890090  0.49725655  0.50265413  1
  Ni  Ni31  1  1.00033515  0.33481352  0.66860752  1
  Fe  Fe32  1  0.16932767  0.50201202  0.83422383  1
  Cr  Cr33  1  0.16920050  0.83791100  0.50187805  1
  Cr  Cr34  1  1.00075585  0.66815409  0.66865198  1
  Ni  Ni35  1  0.16967060  0.83613389  0.83601233  1
  Ni  Ni36  1  0.50260505  0.16941344  0.50211703  1
  Ni  Ni37  1  0.33619042  1.00185436  0.66795736  1
  Cr  Cr38  1  0.50429626  0.16876309  0.83274854  1
  Cr  Cr39  1  0.50349816  0.50220013  0.50260233  1
  Ni  Ni40  1  0.33475224  0.33477486  0.66810654  1
  Ni  Ni41  1  0.50369297  0.50434515  0.83506959  1
  Fe  Fe42  1  0.50421011  0.83854770  0.50313338  1
  Ni  Ni43  1  0.33552405  0.66931447  0.67155573  1
  Ni  Ni44  1  0.50155214  0.83291769  0.83482204  1
  Ni  Ni45  1  0.83495243  0.16873711  0.50235251  1
  Fe  Fe46  1  0.66919560  1.00195935  0.66830592  1
  Ni  Ni47  1  0.83576836  0.16884456  0.83539704  1
  Fe  Fe48  1  0.83384365  0.49840548  0.50280303  1
  Ni  Ni49  1  0.67046840  0.33477624  0.66964820  1
  Ni  Ni50  1  0.83164118  0.50070558  0.83560194  1
  Fe  Fe51  1  0.83131375  0.83849828  0.50153404  1
  Ni  Ni52  1  0.66929914  0.66941010  0.67003997  1
  Ni  Ni53  1  0.83438607  0.83662722  0.83440860  1
" 