6340,Ni56Fe27Cr16_8,-234.209699884664, 193.995068686233,Ni56Fe27Cr16,"# generated using pymatgen
 data_Cr5Fe7Ni15
_symmetry_space_group_name_H-M   'P 1'
_cell_length_a   7.44094050
_cell_length_b   7.44094050
_cell_length_c   10.52307897
_cell_angle_alpha   90.00000000
_cell_angle_beta   90.00000000
_cell_angle_gamma   90.00000000
_symmetry_Int_Tables_number   1
_chemical_formula_structural   Cr5Fe7Ni15
_chemical_formula_sum   'Cr10 Fe14 Ni30'
_cell_volume   582.63757991
_cell_formula_units_Z   2
loop_
 _symmetry_equiv_pos_site_id
 _symmetry_equiv_pos_as_xyz
  1  'x, y, z'
loop_
 _atom_site_type_symbol
 _atom_site_label
 _atom_site_symmetry_multiplicity
 _atom_site_fract_x
 _atom_site_fract_y
 _atom_site_fract_z
 _atom_site_occupancy
  Ni  Ni0  1  0.00252486  0.00257810  0.00235597  1
  Ni  Ni1  1  0.16856288  0.16739933  0.16826148  1
  Ni  Ni2  1  0.00320387  0.00364045  0.33399028  1
  Ni  Ni3  1  1.00120471  0.33382391  0.00459395  1
  Fe  Fe4  1  0.17109389  0.50007526  0.16892462  1
  Fe  Fe5  1  0.00191877  0.33474940  0.33505276  1
  Cr  Cr6  1  0.00230536  0.66939212  0.00240840  1
  Ni  Ni7  1  0.16970339  0.83681830  0.16830331  1
  Fe  Fe8  1  0.00282834  0.66705675  0.33338047  1
  Ni  Ni9  1  0.33445193  1.00130802  0.00230584  1
  Ni  Ni10  1  0.49965911  0.16988479  0.16737802  1
  Ni  Ni11  1  0.33319685  0.00543420  0.33418732  1
  Ni  Ni12  1  0.33608013  0.33507216  0.00341257  1
  Ni  Ni13  1  0.50333255  0.50075203  0.16889766  1
  Ni  Ni14  1  0.33403768  0.33548513  0.33556936  1
  Ni  Ni15  1  0.33589313  0.66858172  0.00355689  1
  Ni  Ni16  1  0.49811926  0.83460560  0.16940827  1
  Fe  Fe17  1  0.33463822  0.66784661  0.33317677  1
  Cr  Cr18  1  0.66821417  1.00172012  0.00286321  1
  Fe  Fe19  1  0.83609127  0.16996766  0.16794893  1
  Cr  Cr20  1  0.66807787  0.00224496  0.33291563  1
  Ni  Ni21  1  0.66828952  0.33560126  0.00184394  1
  Ni  Ni22  1  0.83492329  0.49955445  0.16931099  1
  Fe  Fe23  1  0.66727989  0.33506462  0.33435013  1
  Cr  Cr24  1  0.66672913  0.66830319  1.00113619  1
  Fe  Fe25  1  0.83615782  0.83453756  0.17021130  1
  Ni  Ni26  1  0.66932927  0.66508062  0.33372170  1
  Fe  Fe27  1  0.16784404  0.16969779  0.50122333  1
  Ni  Ni28  1  0.00182488  0.00434470  0.66885091  1
  Cr  Cr29  1  0.16872933  0.16784095  0.83537588  1
  Ni  Ni30  1  0.16724015  0.50109159  0.50055783  1
  Ni  Ni31  1  1.00174506  0.33483119  0.66621009  1
  Cr  Cr32  1  0.16823602  0.50158171  0.83683273  1
  Cr  Cr33  1  0.16946227  0.83488981  0.50309155  1
  Fe  Fe34  1  0.00296446  0.66711017  0.66923596  1
  Ni  Ni35  1  0.17067204  0.83507435  0.83408670  1
  Ni  Ni36  1  0.50111090  0.17113299  0.50193085  1
  Ni  Ni37  1  0.33440729  0.00341703  0.66851797  1
  Ni  Ni38  1  0.50244049  0.16914833  0.83580183  1
  Fe  Fe39  1  0.50257398  0.50088151  0.50099376  1
  Ni  Ni40  1  0.33457752  0.33597884  0.66633206  1
  Fe  Fe41  1  0.50074513  0.49996137  0.83522315  1
  Cr  Cr42  1  0.49966378  0.83529519  0.50051076  1
  Ni  Ni43  1  0.33701472  0.66587826  0.66845285  1
  Ni  Ni44  1  0.49820250  0.83454176  0.83460432  1
  Ni  Ni45  1  0.83529584  0.17221444  0.50096100  1
  Cr  Cr46  1  0.66843655  0.00219590  0.66944275  1
  Ni  Ni47  1  0.83509121  0.17171002  0.83621899  1
  Ni  Ni48  1  0.83543052  0.49959370  0.50255312  1
  Fe  Fe49  1  0.66769670  0.33508932  0.66899610  1
  Fe  Fe50  1  0.83384586  0.49907539  0.83412188  1
  Cr  Cr51  1  0.83641642  0.83341667  0.50165323  1
  Ni  Ni52  1  0.66815804  0.66534295  0.66997744  1
  Fe  Fe53  1  0.83705871  0.83681733  0.83350857  1
" 