6806,Ni56Fe20Cr22_7,-230.784683556201, 182.215800027199,Ni56Fe20Cr22,"# generated using pymatgen
 data_Cr7(FeNi3)5
_symmetry_space_group_name_H-M   'P 1'
_cell_length_a   7.46029673
_cell_length_b   7.46029673
_cell_length_c   10.55045281
_cell_angle_alpha   90.00000000
_cell_angle_beta   90.00000000
_cell_angle_gamma   90.00000000
_symmetry_Int_Tables_number   1
_chemical_formula_structural   Cr7(FeNi3)5
_chemical_formula_sum   'Cr14 Fe10 Ni30'
_cell_volume   587.19628951
_cell_formula_units_Z   2
loop_
 _symmetry_equiv_pos_site_id
 _symmetry_equiv_pos_as_xyz
  1  'x, y, z'
loop_
 _atom_site_type_symbol
 _atom_site_label
 _atom_site_symmetry_multiplicity
 _atom_site_fract_x
 _atom_site_fract_y
 _atom_site_fract_z
 _atom_site_occupancy
  Ni  Ni0  1  0.00498269  0.99983097  0.99812231  1
  Ni  Ni1  1  0.17051092  0.16749877  0.16791689  1
  Ni  Ni2  1  0.00338500  0.00116738  0.33603816  1
  Cr  Cr3  1  0.00149843  0.33225248  0.00058921  1
  Ni  Ni4  1  0.16796944  0.49983922  0.16835486  1
  Ni  Ni5  1  0.00139989  0.33417299  0.33433030  1
  Fe  Fe6  1  0.00305851  0.66811499  0.00158043  1
  Fe  Fe7  1  0.16827469  0.83551473  0.16683459  1
  Ni  Ni8  1  0.00124215  0.66607654  0.33381771  1
  Ni  Ni9  1  0.33262276  0.00061417  0.00065012  1
  Ni  Ni10  1  0.49695804  0.16616671  0.16975082  1
  Ni  Ni11  1  0.33313493  0.00232613  0.33352154  1
  Ni  Ni12  1  0.33377804  0.33148195  0.00122610  1
  Ni  Ni13  1  0.49734952  0.49854750  0.16638226  1
  Ni  Ni14  1  0.33314889  0.33137853  0.33372848  1
  Fe  Fe15  1  0.33271438  0.66867644  0.00225530  1
  Ni  Ni16  1  0.49862428  0.83676179  0.16561231  1
  Cr  Cr17  1  0.33275163  0.66896692  0.33359188  1
  Ni  Ni18  1  0.66370685  1.00014544  0.99900059  1
  Cr  Cr19  1  0.83324000  0.16548017  0.16855515  1
  Ni  Ni20  1  0.66476692  0.00202202  0.33566380  1
  Cr  Cr21  1  0.66656383  0.33331045  0.99969953  1
  Ni  Ni22  1  0.83615818  0.50133039  0.16992317  1
  Ni  Ni23  1  0.66678817  0.33339943  0.33399591  1
  Cr  Cr24  1  0.66660725  0.66588713  0.00072150  1
  Cr  Cr25  1  0.83489250  0.83579588  0.16849196  1
  Cr  Cr26  1  0.66779544  0.66630769  0.33474628  1
  Ni  Ni27  1  0.16346925  0.16695042  0.49895612  1
  Fe  Fe28  1  1.00027979  0.00213453  0.66623734  1
  Ni  Ni29  1  0.16697517  0.16483000  0.83405023  1
  Fe  Fe30  1  0.16465956  0.49931164  0.49898033  1
  Ni  Ni31  1  0.99909507  0.33314644  0.66700304  1
  Cr  Cr32  1  0.16714377  0.50129684  0.83310015  1
  Ni  Ni33  1  0.16472141  0.83454347  0.49930056  1
  Ni  Ni34  1  1.00025232  0.66669574  0.66548643  1
  Ni  Ni35  1  0.16699127  0.83474656  0.83605500  1
  Fe  Fe36  1  0.50088693  0.16543332  0.49735926  1
  Cr  Cr37  1  0.33295451  0.00047343  0.66672170  1
  Ni  Ni38  1  0.50061933  0.16500054  0.83512057  1
  Ni  Ni39  1  0.50022013  0.49944085  0.49927028  1
  Cr  Cr40  1  0.33147213  0.33090941  0.66583986  1
  Fe  Fe41  1  0.49958108  0.49868568  0.83518422  1
  Ni  Ni42  1  0.50110010  0.83528499  0.50039477  1
  Cr  Cr43  1  0.33304784  0.66996311  0.66630351  1
  Fe  Fe44  1  0.49901081  0.83764075  0.83552995  1
  Ni  Ni45  1  0.83508435  0.16614430  0.50035187  1
  Ni  Ni46  1  0.66766060  0.00085454  0.66673363  1
  Ni  Ni47  1  0.83371647  0.16551034  0.83258294  1
  Fe  Fe48  1  0.83741337  0.49883148  0.49947526  1
  Cr  Cr49  1  0.66970369  0.33184138  0.66903851  1
  Ni  Ni50  1  0.83532845  0.50028816  0.83204021  1
  Fe  Fe51  1  0.83579805  0.83692375  0.49987538  1
  Cr  Cr52  1  0.66760594  0.66826559  0.66580663  1
  Cr  Cr53  1  0.83571781  0.83621844  0.83253362  1
" 