576,Ni56Fe20Cr22_12,-230.921040663177, 182.103307835877,Ni56Fe20Cr22,"# generated using pymatgen
 data_Cr7(FeNi3)5
_symmetry_space_group_name_H-M   'P 1'
_cell_length_a   7.45539484
_cell_length_b   7.45539484
_cell_length_c   10.54352050
_cell_angle_alpha   90.00000000
_cell_angle_beta   90.00000000
_cell_angle_gamma   90.00000000
_symmetry_Int_Tables_number   1
_chemical_formula_structural   Cr7(FeNi3)5
_chemical_formula_sum   'Cr14 Fe10 Ni30'
_cell_volume   586.03957486
_cell_formula_units_Z   2
loop_
 _symmetry_equiv_pos_site_id
 _symmetry_equiv_pos_as_xyz
  1  'x, y, z'
loop_
 _atom_site_type_symbol
 _atom_site_label
 _atom_site_symmetry_multiplicity
 _atom_site_fract_x
 _atom_site_fract_y
 _atom_site_fract_z
 _atom_site_occupancy
  Fe  Fe0  1  0.99840997  0.00167176  0.00244746  1
  Ni  Ni1  1  0.16677794  0.16566719  0.16869917  1
  Fe  Fe2  1  0.99788038  0.00147680  0.33322396  1
  Ni  Ni3  1  0.99789358  0.33610170  1.00072750  1
  Cr  Cr4  1  0.16709584  0.49698559  0.16908939  1
  Ni  Ni5  1  0.99810581  0.33421311  0.33463541  1
  Ni  Ni6  1  1.00041124  0.66593559  1.00015082  1
  Fe  Fe7  1  0.16554916  0.83540399  0.16889323  1
  Cr  Cr8  1  0.99854146  0.66563114  0.33497136  1
  Cr  Cr9  1  0.33655345  1.00062460  0.00156386  1
  Ni  Ni10  1  0.50046664  0.16727452  0.16771222  1
  Ni  Ni11  1  0.33735737  1.00057568  0.33256540  1
  Fe  Fe12  1  0.33393992  0.33240585  0.00124875  1
  Cr  Cr13  1  0.50373008  0.49881817  0.16796797  1
  Ni  Ni14  1  0.33428457  0.33176405  0.33306059  1
  Cr  Cr15  1  0.33142069  0.66974137  1.00066863  1
  Fe  Fe16  1  0.50322905  0.83528408  0.16910065  1
  Ni  Ni17  1  0.33478217  0.67047414  0.33504114  1
  Ni  Ni18  1  0.66710056  0.00395400  0.00193454  1
  Fe  Fe19  1  0.83360204  0.16922881  0.16771124  1
  Ni  Ni20  1  0.66563489  0.00116758  0.33421160  1
  Ni  Ni21  1  0.67091151  0.33082526  0.99991363  1
  Ni  Ni22  1  0.83319997  0.50241714  0.16642213  1
  Ni  Ni23  1  0.66993630  0.33197142  0.33453215  1
  Fe  Fe24  1  0.67100048  0.66778064  0.00196532  1
  Ni  Ni25  1  0.83339119  0.83559684  0.16631495  1
  Ni  Ni26  1  0.66825255  0.66984761  0.33286288  1
  Cr  Cr27  1  0.16766155  0.16712399  0.49796588  1
  Ni  Ni28  1  0.99885963  0.99926060  0.66797757  1
  Cr  Cr29  1  0.16538689  0.16645788  0.83469472  1
  Ni  Ni30  1  0.16787489  0.50171062  0.49964979  1
  Cr  Cr31  1  0.99627877  0.33684587  0.66589795  1
  Ni  Ni32  1  0.16576772  0.50212210  0.83451720  1
  Cr  Cr33  1  0.16620941  0.83544655  0.50247895  1
  Ni  Ni34  1  1.00062155  0.66650662  0.66815970  1
  Fe  Fe35  1  0.16615567  0.83323541  0.83202772  1
  Ni  Ni36  1  0.50224735  0.16604964  0.50070895  1
  Ni  Ni37  1  0.33666927  0.99916063  0.66772410  1
  Ni  Ni38  1  0.50332616  0.16698497  0.83415308  1
  Cr  Cr39  1  0.50164200  0.50049914  0.49871775  1
  Cr  Cr40  1  0.33540827  0.33270186  0.66855814  1
  Cr  Cr41  1  0.50366594  0.49927197  0.83579490  1
  Fe  Fe42  1  0.50304272  0.83540044  0.50049307  1
  Fe  Fe43  1  0.33339714  0.66762582  0.66725214  1
  Cr  Cr44  1  0.50411637  0.83499467  0.83139046  1
  Ni  Ni45  1  0.83168564  0.16492272  0.49978954  1
  Ni  Ni46  1  0.66654551  0.00304468  0.66601417  1
  Ni  Ni47  1  0.83225238  0.16664644  0.83487471  1
  Ni  Ni48  1  0.83244332  0.50234059  0.50052821  1
  Ni  Ni49  1  0.66947761  0.33205853  0.66803093  1
  Ni  Ni50  1  0.83467680  0.50139216  0.83508473  1
  Ni  Ni51  1  0.83190020  0.83496509  0.50204484  1
  Ni  Ni52  1  0.67082277  0.66733714  0.66617239  1
  Cr  Cr53  1  0.83460663  0.83525619  0.83386340  1
" 