6402,Ni56Fe36Cr6_9,-238.315167673397, 216.078004483867,Ni56Fe36Cr6,"# generated using pymatgen
 data_Cr5Fe19Ni30
_symmetry_space_group_name_H-M   'P 1'
_cell_length_a   7.41692324
_cell_length_b   7.41692324
_cell_length_c   10.48911344
_cell_angle_alpha   90.00000000
_cell_angle_beta   90.00000000
_cell_angle_gamma   90.00000000
_symmetry_Int_Tables_number   1
_chemical_formula_structural   Cr5Fe19Ni30
_chemical_formula_sum   'Cr5 Fe19 Ni30'
_cell_volume   577.01400102
_cell_formula_units_Z   1
loop_
 _symmetry_equiv_pos_site_id
 _symmetry_equiv_pos_as_xyz
  1  'x, y, z'
loop_
 _atom_site_type_symbol
 _atom_site_label
 _atom_site_symmetry_multiplicity
 _atom_site_fract_x
 _atom_site_fract_y
 _atom_site_fract_z
 _atom_site_occupancy
  Cr  Cr0  1  1.00327724  1.00251554  1.00315247  1
  Ni  Ni1  1  0.17118028  0.17098474  0.17166066  1
  Ni  Ni2  1  0.00491700  0.00413798  0.33646143  1
  Fe  Fe3  1  1.00135895  0.33874801  0.00379721  1
  Ni  Ni4  1  0.16770920  0.50198186  0.17222067  1
  Ni  Ni5  1  0.00344674  0.33597027  0.33625546  1
  Ni  Ni6  1  1.00168369  0.66965433  1.00327631  1
  Fe  Fe7  1  0.16983838  0.83697303  0.17177987  1
  Fe  Fe8  1  0.00382180  0.66871603  0.33537384  1
  Fe  Fe9  1  0.33899891  1.00296307  0.00385404  1
  Ni  Ni10  1  0.50302445  0.16858395  0.17020045  1
  Ni  Ni11  1  0.33526649  0.00342439  0.33619240  1
  Cr  Cr12  1  0.33722287  0.33590291  1.00320916  1
  Fe  Fe13  1  0.50534214  0.50311652  0.17166441  1
  Ni  Ni14  1  0.33674063  0.33668673  0.33706453  1
  Cr  Cr15  1  0.33656546  0.67076620  0.00364450  1
  Ni  Ni16  1  0.50522539  0.83858960  0.17126807  1
  Fe  Fe17  1  0.33670507  0.66976035  0.33721297  1
  Ni  Ni18  1  0.66979212  1.00324401  0.00358171  1
  Fe  Fe19  1  0.83583419  0.17092525  0.17051233  1
  Fe  Fe20  1  0.66906070  0.00469304  0.33543967  1
  Ni  Ni21  1  0.67082689  0.33691819  1.00322257  1
  Ni  Ni22  1  0.83735295  0.50418250  0.16933657  1
  Ni  Ni23  1  0.66994939  0.33815144  0.33682903  1
  Ni  Ni24  1  0.67180604  0.66997686  1.00261115  1
  Ni  Ni25  1  0.83495101  0.83512151  0.17074189  1
  Ni  Ni26  1  0.66923414  0.66855608  0.33565839  1
  Fe  Fe27  1  0.16914401  0.17092934  0.50218560  1
  Ni  Ni28  1  1.00202275  0.00372908  0.67079194  1
  Ni  Ni29  1  0.16911775  0.17105014  0.83583924  1
  Fe  Fe30  1  0.17035473  0.50360412  0.50351127  1
  Fe  Fe31  1  0.00394794  0.33599895  0.67004680  1
  Ni  Ni32  1  0.16953993  0.50267536  0.83435546  1
  Ni  Ni33  1  0.17045588  0.83696234  0.50222479  1
  Fe  Fe34  1  0.00496128  0.67022890  0.67132524  1
  Ni  Ni35  1  0.16931715  0.83641293  0.83655391  1
  Fe  Fe36  1  0.50407739  0.17126688  0.50202309  1
  Cr  Cr37  1  0.33584460  1.00286236  0.67191727  1
  Fe  Fe38  1  0.50475639  0.16966502  0.83717474  1
  Ni  Ni39  1  0.50340369  0.50239816  0.50260388  1
  Ni  Ni40  1  0.33668447  0.33951184  0.66994293  1
  Ni  Ni41  1  0.50410534  0.50363285  0.83558571  1
  Fe  Fe42  1  0.50272093  0.83509788  0.50269890  1
  Ni  Ni43  1  0.33667836  0.66765395  0.66972120  1
  Ni  Ni44  1  0.50534587  0.83647104  0.83619283  1
  Fe  Fe45  1  0.83691599  0.17157709  0.50384005  1
  Ni  Ni46  1  0.67224396  0.00373565  0.67063058  1
  Ni  Ni47  1  0.83643609  0.16981066  0.83593802  1
  Ni  Ni48  1  0.83576986  0.50185441  0.50378227  1
  Fe  Fe49  1  0.66946656  0.33648638  0.66987053  1
  Fe  Fe50  1  0.83700840  0.50396438  0.83747278  1
  Cr  Cr51  1  0.83708361  0.83701464  0.50354252  1
  Fe  Fe52  1  0.66845666  0.66973579  0.67070834  1
  Ni  Ni53  1  0.83547721  0.83689438  0.83576724  1
" 