7073,Ni56Cr44_9,-216.979943466704, 135.042097561836,Ni56Cr44,"# generated using pymatgen
 data_Cr5Ni4
_symmetry_space_group_name_H-M   'P 1'
_cell_length_a   7.53045951
_cell_length_b   7.53045951
_cell_length_c   10.64967797
_cell_angle_alpha   90.00000000
_cell_angle_beta   90.00000000
_cell_angle_gamma   90.00000000
_symmetry_Int_Tables_number   1
_chemical_formula_structural   Cr5Ni4
_chemical_formula_sum   'Cr30 Ni24'
_cell_volume   603.92002598
_cell_formula_units_Z   6
loop_
 _symmetry_equiv_pos_site_id
 _symmetry_equiv_pos_as_xyz
  1  'x, y, z'
loop_
 _atom_site_type_symbol
 _atom_site_label
 _atom_site_symmetry_multiplicity
 _atom_site_fract_x
 _atom_site_fract_y
 _atom_site_fract_z
 _atom_site_occupancy
  Cr  Cr0  1  0.99564238  -0.00072082  0.99526881  1
  Cr  Cr1  1  0.16240940  0.16050382  0.16346953  1
  Ni  Ni2  1  -0.00395059  -0.00385366  0.33097630  1
  Ni  Ni3  1  0.99576863  0.32629680  0.99352802  1
  Cr  Cr4  1  0.16220478  0.49502637  0.16420436  1
  Cr  Cr5  1  0.99422924  0.32376322  0.32844965  1
  Cr  Cr6  1  -0.00221248  0.66195325  0.99278022  1
  Cr  Cr7  1  0.16503438  0.83225788  0.16557251  1
  Cr  Cr8  1  -0.00264203  0.66732531  0.33199056  1
  Ni  Ni9  1  0.33045358  -0.00371858  0.99571036  1
  Cr  Cr10  1  0.49431613  0.15902894  0.16259382  1
  Ni  Ni11  1  0.32989566  0.99382537  0.33105074  1
  Cr  Cr12  1  0.32634443  0.32921053  0.99395267  1
  Ni  Ni13  1  0.49333872  0.49698534  0.16501127  1
  Ni  Ni14  1  0.33090206  0.32867562  0.32931391  1
  Cr  Cr15  1  0.32950784  0.66236823  -0.00269164  1
  Ni  Ni16  1  0.49433100  0.83044903  0.16246588  1
  Ni  Ni17  1  0.33096945  0.66482418  0.32912294  1
  Ni  Ni18  1  0.66312772  -0.00362643  0.99533338  1
  Ni  Ni19  1  0.82960263  0.16060037  0.16138722  1
  Cr  Cr20  1  0.66438360  -0.00353621  0.33152199  1
  Cr  Cr21  1  0.66358345  0.32666939  -0.00208049  1
  Cr  Cr22  1  0.82934324  0.49458121  0.16229510  1
  Cr  Cr23  1  0.66104861  0.32631773  0.32905019  1
  Cr  Cr24  1  0.66059746  0.66397703  -0.00269505  1
  Cr  Cr25  1  0.82848731  0.83191554  0.16155291  1
  Cr  Cr26  1  0.65935547  0.66420845  0.32906362  1
  Cr  Cr27  1  0.16514823  0.16150111  0.49473384  1
  Cr  Cr28  1  0.99528704  -0.00372892  0.66107248  1
  Ni  Ni29  1  0.16170207  0.16429617  0.82840205  1
  Cr  Cr30  1  0.16197361  0.49539645  0.49669454  1
  Ni  Ni31  1  -0.00245654  0.32740813  0.66511346  1
  Ni  Ni32  1  0.15973842  0.49193390  0.82662704  1
  Ni  Ni33  1  0.16375850  0.83069023  0.49453241  1
  Ni  Ni34  1  -0.00344696  0.66373833  0.66258846  1
  Cr  Cr35  1  0.16304214  0.83178395  0.82846795  1
  Ni  Ni36  1  0.49460094  0.15864954  0.49692597  1
  Ni  Ni37  1  0.32998607  -0.00234318  0.66058565  1
  Cr  Cr38  1  0.49459751  0.15942221  0.82680842  1
  Cr  Cr39  1  0.49372840  0.49356191  0.49519513  1
  Ni  Ni40  1  0.32571296  0.32588024  0.66303654  1
  Cr  Cr41  1  0.49522681  0.49431424  0.82749205  1
  Ni  Ni42  1  0.49400224  0.83332775  0.49555940  1
  Cr  Cr43  1  0.32703349  0.66386788  0.66227567  1
  Cr  Cr44  1  0.49787906  0.83335110  0.83001586  1
  Ni  Ni45  1  0.82894720  0.15931808  0.49663125  1
  Ni  Ni46  1  0.66293227  -0.00392035  0.66094518  1
  Ni  Ni47  1  0.83040432  0.16069365  0.82949152  1
  Cr  Cr48  1  0.83124850  0.49600696  0.49769837  1
  Cr  Cr49  1  0.66273345  0.32353084  0.66006359  1
  Cr  Cr50  1  0.83108295  0.49625563  0.82720291  1
  Ni  Ni51  1  0.82996080  0.83222205  0.49740105  1
  Cr  Cr52  1  0.66317891  0.66754905  0.66109412  1
  Ni  Ni53  1  0.82856608  0.83262565  0.82778683  1
" 