6707,Ni56Fe20Cr22_18,-231.014520662907, 183.203555832511,Ni56Fe20Cr22,"# generated using pymatgen
 data_Cr7(FeNi3)5
_symmetry_space_group_name_H-M   'P 1'
_cell_length_a   7.45954840
_cell_length_b   7.45954840
_cell_length_c   10.54939452
_cell_angle_alpha   90.00000000
_cell_angle_beta   90.00000000
_cell_angle_gamma   90.00000000
_symmetry_Int_Tables_number   1
_chemical_formula_structural   Cr7(FeNi3)5
_chemical_formula_sum   'Cr14 Fe10 Ni30'
_cell_volume   587.01960587
_cell_formula_units_Z   2
loop_
 _symmetry_equiv_pos_site_id
 _symmetry_equiv_pos_as_xyz
  1  'x, y, z'
loop_
 _atom_site_type_symbol
 _atom_site_label
 _atom_site_symmetry_multiplicity
 _atom_site_fract_x
 _atom_site_fract_y
 _atom_site_fract_z
 _atom_site_occupancy
  Ni  Ni0  1  0.00137050  0.00273999  0.00117551  1
  Fe  Fe1  1  0.16820093  0.16601727  0.16803436  1
  Fe  Fe2  1  0.00307234  0.00116339  0.33121301  1
  Ni  Ni3  1  0.99845143  0.33139773  0.00099764  1
  Ni  Ni4  1  0.16548466  0.49960687  0.16886857  1
  Ni  Ni5  1  0.00308912  0.33400878  0.33219895  1
  Cr  Cr6  1  0.99908278  0.66633184  1.00014616  1
  Ni  Ni7  1  0.16538965  0.83528698  0.16757191  1
  Ni  Ni8  1  0.99984932  0.66384645  0.33226512  1
  Ni  Ni9  1  0.33185255  1.00045832  0.00156917  1
  Ni  Ni10  1  0.50095420  0.16865214  0.16751675  1
  Ni  Ni11  1  0.33517424  0.00352745  0.33298076  1
  Cr  Cr12  1  0.33200615  0.33288434  0.00265235  1
  Ni  Ni13  1  0.50246457  0.49856148  0.16745213  1
  Ni  Ni14  1  0.33222974  0.33229620  0.33503391  1
  Cr  Cr15  1  0.33628563  0.66868816  0.00225801  1
  Ni  Ni16  1  0.50114126  0.83459869  0.16601253  1
  Cr  Cr17  1  0.33571266  0.66575928  0.33299671  1
  Cr  Cr18  1  0.66717799  0.99912167  1.00000125  1
  Fe  Fe19  1  0.83452768  0.16806346  0.16660410  1
  Cr  Cr20  1  0.66430176  0.99949959  0.33429311  1
  Ni  Ni21  1  0.66967225  0.33566933  0.00153275  1
  Fe  Fe22  1  0.83281541  0.50094094  0.16812108  1
  Fe  Fe23  1  0.66419795  0.33545025  0.33229674  1
  Ni  Ni24  1  0.66738933  0.66568447  0.00081052  1
  Ni  Ni25  1  0.83535124  0.83342355  0.16768196  1
  Ni  Ni26  1  0.66689966  0.66722896  0.33180846  1
  Ni  Ni27  1  0.16939796  0.16933249  0.49971244  1
  Cr  Cr28  1  1.00023673  0.00314052  0.66826394  1
  Ni  Ni29  1  0.16500361  0.16469104  0.83514089  1
  Ni  Ni30  1  0.16767584  0.49849537  0.50181554  1
  Ni  Ni31  1  0.00186276  0.33368426  0.66815847  1
  Cr  Cr32  1  0.16888904  0.50051050  0.83150151  1
  Cr  Cr33  1  0.16733032  0.83266408  0.49936386  1
  Ni  Ni34  1  0.00178635  0.66433429  0.66807324  1
  Ni  Ni35  1  0.16680884  0.83569254  0.83347489  1
  Ni  Ni36  1  0.49873222  0.16843443  0.50180091  1
  Ni  Ni37  1  0.33514112  0.00098286  0.66672971  1
  Cr  Cr38  1  0.50002964  0.16909705  0.83327142  1
  Ni  Ni39  1  0.49930816  0.49843459  0.50030104  1
  Fe  Fe40  1  0.33331763  0.33361003  0.66561683  1
  Ni  Ni41  1  0.50358446  0.50121430  0.83429518  1
  Ni  Ni42  1  0.49962265  0.83476337  0.50158895  1
  Ni  Ni43  1  0.33467340  0.66689990  0.66650770  1
  Fe  Fe44  1  0.49738812  0.83449773  0.83328241  1
  Cr  Cr45  1  0.83281362  0.16855806  0.49958397  1
  Ni  Ni46  1  0.66453828  0.00156324  0.66748004  1
  Ni  Ni47  1  0.83407167  0.16820723  0.83456258  1
  Cr  Cr48  1  0.83497710  0.50024939  0.49909406  1
  Fe  Fe49  1  0.66702785  0.33372758  0.66811379  1
  Fe  Fe50  1  0.83366157  0.49736552  0.83387800  1
  Cr  Cr51  1  0.83476503  0.83296815  0.49907107  1
  Cr  Cr52  1  0.66589025  0.66856640  0.66824167  1
  Fe  Fe53  1  0.83446432  0.83455104  0.83412589  1
" 