404,Ni56Fe27Cr16_11,-234.303479647605, 194.135732170211,Ni56Fe27Cr16,"# generated using pymatgen
 data_Cr5Fe7Ni15
_symmetry_space_group_name_H-M   'P 1'
_cell_length_a   7.44393629
_cell_length_b   7.44393629
_cell_length_c   10.52731565
_cell_angle_alpha   90.00000000
_cell_angle_beta   90.00000000
_cell_angle_gamma   90.00000000
_symmetry_Int_Tables_number   1
_chemical_formula_structural   Cr5Fe7Ni15
_chemical_formula_sum   'Cr10 Fe14 Ni30'
_cell_volume   583.34158792
_cell_formula_units_Z   2
loop_
 _symmetry_equiv_pos_site_id
 _symmetry_equiv_pos_as_xyz
  1  'x, y, z'
loop_
 _atom_site_type_symbol
 _atom_site_label
 _atom_site_symmetry_multiplicity
 _atom_site_fract_x
 _atom_site_fract_y
 _atom_site_fract_z
 _atom_site_occupancy
  Fe  Fe0  1  0.00166001  0.99989637  0.00250016  1
  Ni  Ni1  1  0.16634438  0.16731644  0.16720782  1
  Cr  Cr2  1  0.00419892  0.00205643  0.33292789  1
  Fe  Fe3  1  0.00168692  0.33475154  0.00282729  1
  Cr  Cr4  1  0.16676387  0.50186227  0.16887737  1
  Ni  Ni5  1  1.00123373  0.33732027  0.33436442  1
  Ni  Ni6  1  0.00172371  0.66907258  0.00159753  1
  Fe  Fe7  1  0.16744680  0.83551765  0.16766394  1
  Ni  Ni8  1  0.00199676  0.66538097  0.33514880  1
  Ni  Ni9  1  0.33407708  1.00117122  1.00074490  1
  Cr  Cr10  1  0.50058974  0.16798282  0.16839846  1
  Ni  Ni11  1  0.33409150  1.00138722  0.33681171  1
  Fe  Fe12  1  0.33501726  0.33446409  0.99987659  1
  Cr  Cr13  1  0.50271252  0.50245703  0.16745975  1
  Ni  Ni14  1  0.33385788  0.33442063  0.33772247  1
  Ni  Ni15  1  0.33345420  0.66950073  0.99929624  1
  Cr  Cr16  1  0.49990273  0.83421828  0.16819451  1
  Ni  Ni17  1  0.33366411  0.66884883  0.33705540  1
  Ni  Ni18  1  0.66856798  0.00173064  1.00037419  1
  Ni  Ni19  1  0.83706977  0.17021784  0.16672043  1
  Cr  Cr20  1  0.66605933  0.00248396  0.33487151  1
  Ni  Ni21  1  0.66899521  0.33427295  0.00245832  1
  Ni  Ni22  1  0.83584872  0.50103136  0.16885087  1
  Fe  Fe23  1  0.66881678  0.33751978  0.33571033  1
  Ni  Ni24  1  0.66948083  0.66865377  1.00080680  1
  Fe  Fe25  1  0.83645005  0.83345469  0.16607487  1
  Fe  Fe26  1  0.66861474  0.66543928  0.33555523  1
  Ni  Ni27  1  0.17095027  0.16857771  0.50210065  1
  Fe  Fe28  1  0.00389332  1.00096699  0.66869828  1
  Fe  Fe29  1  0.17001525  0.16728124  0.83464581  1
  Fe  Fe30  1  0.16872956  0.50161043  0.50132975  1
  Ni  Ni31  1  0.00222126  0.33604848  0.66701802  1
  Ni  Ni32  1  0.16953155  0.50262338  0.83480170  1
  Ni  Ni33  1  0.17151911  0.83439289  0.50118651  1
  Fe  Fe34  1  0.00299754  0.66844055  0.66857226  1
  Ni  Ni35  1  0.16922410  0.83362360  0.83570300  1
  Ni  Ni36  1  0.49868629  0.16881940  0.50145180  1
  Ni  Ni37  1  0.33585088  1.00039889  0.66710011  1
  Ni  Ni38  1  0.50051470  0.16710809  0.83522796  1
  Ni  Ni39  1  0.50183199  0.50169024  0.50115907  1
  Fe  Fe40  1  0.33560433  0.33410974  0.66758499  1
  Fe  Fe41  1  0.50008896  0.50255598  0.83500147  1
  Ni  Ni42  1  0.49812116  0.83414783  0.50197976  1
  Ni  Ni43  1  0.33423643  0.66938167  0.66830407  1
  Ni  Ni44  1  0.50088108  0.83577448  0.83484914  1
  Cr  Cr45  1  0.83511024  0.17154739  0.50328816  1
  Ni  Ni46  1  0.66566362  0.00176428  0.66955643  1
  Cr  Cr47  1  0.83371880  0.16675392  0.83442464  1
  Ni  Ni48  1  0.83477644  0.50111935  0.50050745  1
  Ni  Ni49  1  0.66788747  0.33443358  0.66653300  1
  Cr  Cr50  1  0.83547778  0.50283419  0.83491473  1
  Cr  Cr51  1  0.83510622  0.83210063  0.50403920  1
  Fe  Fe52  1  0.66631082  0.66842788  0.66826843  1
  Ni  Ni53  1  0.83455272  0.83486495  0.83548321  1
" 