3906,Ni56Cr44_0,-216.742711917415, 131.06951741439,Ni56Cr44,"# generated using pymatgen
 data_Cr5Ni4
_symmetry_space_group_name_H-M   'P 1'
_cell_length_a   7.53970016
_cell_length_b   7.53970016
_cell_length_c   10.66274623
_cell_angle_alpha   90.00000000
_cell_angle_beta   90.00000000
_cell_angle_gamma   90.00000000
_symmetry_Int_Tables_number   1
_chemical_formula_structural   Cr5Ni4
_chemical_formula_sum   'Cr30 Ni24'
_cell_volume   606.14597270
_cell_formula_units_Z   6
loop_
 _symmetry_equiv_pos_site_id
 _symmetry_equiv_pos_as_xyz
  1  'x, y, z'
loop_
 _atom_site_type_symbol
 _atom_site_label
 _atom_site_symmetry_multiplicity
 _atom_site_fract_x
 _atom_site_fract_y
 _atom_site_fract_z
 _atom_site_occupancy
  Ni  Ni0  1  -0.00414137  -0.00391924  -0.00398814  1
  Ni  Ni1  1  0.16243053  0.16186100  0.16152134  1
  Cr  Cr2  1  0.99450385  0.99464974  0.32949634  1
  Ni  Ni3  1  0.99513900  0.32871534  0.99502778  1
  Cr  Cr4  1  0.16245761  0.49450320  0.16256538  1
  Cr  Cr5  1  0.99479745  0.32834603  0.32718966  1
  Ni  Ni6  1  0.99508646  0.66070434  0.99124409  1
  Cr  Cr7  1  0.16255601  0.82856258  0.16196292  1
  Cr  Cr8  1  -0.00182839  0.66229758  0.33323672  1
  Cr  Cr9  1  0.32812743  0.99444116  -0.00445098  1
  Ni  Ni10  1  0.49448758  0.16177606  0.16586507  1
  Ni  Ni11  1  0.33015716  0.99504218  0.32660690  1
  Cr  Cr12  1  0.32838393  0.32918374  -0.00442677  1
  Ni  Ni13  1  0.49513760  0.49511561  0.16420939  1
  Ni  Ni14  1  0.33126767  0.32971174  0.32818147  1
  Cr  Cr15  1  0.32951324  0.66172781  -0.00379055  1
  Ni  Ni16  1  0.49527676  0.82848238  0.16360544  1
  Ni  Ni17  1  0.33019474  0.66091716  0.32942084  1
  Cr  Cr18  1  0.66061599  -0.00403412  -0.00235725  1
  Ni  Ni19  1  0.82846293  0.16167288  0.16187893  1
  Ni  Ni20  1  0.65973858  -0.00324142  0.32684248  1
  Cr  Cr21  1  0.66221529  0.32927374  -0.00322229  1
  Cr  Cr22  1  0.82878024  0.49522722  0.15901201  1
  Ni  Ni23  1  0.65745688  0.32672546  0.32655178  1
  Ni  Ni24  1  0.66260828  0.66062719  -0.00420714  1
  Cr  Cr25  1  0.82823229  0.82785896  0.16051123  1
  Cr  Cr26  1  0.65966094  0.66109125  0.32792947  1
  Cr  Cr27  1  0.16569334  0.16348799  0.49415220  1
  Cr  Cr28  1  -0.00391105  0.99105404  0.65987311  1
  Cr  Cr29  1  0.16155643  0.16303010  0.82935715  1
  Ni  Ni30  1  0.16584104  0.49710898  0.49556336  1
  Cr  Cr31  1  -0.00302140  0.33242049  0.66234775  1
  Ni  Ni32  1  0.15821558  0.49713247  0.82805642  1
  Ni  Ni33  1  0.16211097  0.82575250  0.49466821  1
  Ni  Ni34  1  -0.00461009  0.66153335  0.66183171  1
  Ni  Ni35  1  0.15809021  0.82525051  0.82948084  1
  Cr  Cr36  1  0.49357287  0.16415981  0.49542809  1
  Cr  Cr37  1  0.32615050  0.99329258  0.66374837  1
  Cr  Cr38  1  0.49361331  0.16276297  0.82456534  1
  Ni  Ni39  1  0.49242354  0.49480555  0.49422024  1
  Ni  Ni40  1  0.32699410  0.33289108  0.66076822  1
  Cr  Cr41  1  0.49644813  0.49628785  0.82705273  1
  Cr  Cr42  1  0.49568899  0.82812269  0.49368274  1
  Cr  Cr43  1  0.32561490  0.66072195  0.66120066  1
  Cr  Cr44  1  0.49618329  0.82681050  0.82925729  1
  Cr  Cr45  1  0.82595899  0.16079706  0.49300771  1
  Cr  Cr46  1  0.66338162  0.99316426  0.66084371  1
  Cr  Cr47  1  0.83007006  0.16327553  0.82987615  1
  Cr  Cr48  1  0.82720280  0.49671563  0.49606083  1
  Cr  Cr49  1  0.66137981  0.33132381  0.66185581  1
  Ni  Ni50  1  0.83154957  0.49850112  0.82966552  1
  Ni  Ni51  1  0.82897787  0.82663858  0.49654398  1
  Ni  Ni52  1  0.66429654  0.66026491  0.66121806  1
  Cr  Cr53  1  0.82903737  0.82520208  0.82908563  1
" 