7373,Ni56Cr44_7,-216.718360575364, 129.091470865394,Ni56Cr44,"# generated using pymatgen
 data_Cr5Ni4
_symmetry_space_group_name_H-M   'P 1'
_cell_length_a   7.53195474
_cell_length_b   7.53195474
_cell_length_c   10.65179255
_cell_angle_alpha   90.00000000
_cell_angle_beta   90.00000000
_cell_angle_gamma   90.00000000
_symmetry_Int_Tables_number   1
_chemical_formula_structural   Cr5Ni4
_chemical_formula_sum   'Cr30 Ni24'
_cell_volume   604.27983683
_cell_formula_units_Z   6
loop_
 _symmetry_equiv_pos_site_id
 _symmetry_equiv_pos_as_xyz
  1  'x, y, z'
loop_
 _atom_site_type_symbol
 _atom_site_label
 _atom_site_symmetry_multiplicity
 _atom_site_fract_x
 _atom_site_fract_y
 _atom_site_fract_z
 _atom_site_occupancy
  Cr  Cr0  1  -0.00201580  -0.00224761  -0.00254793  1
  Ni  Ni1  1  0.16232024  0.16036174  0.16497417  1
  Ni  Ni2  1  -0.00188462  -0.00418556  0.33005123  1
  Ni  Ni3  1  0.99417713  0.32627236  -0.00238094  1
  Cr  Cr4  1  0.16168911  0.49568213  0.16289339  1
  Cr  Cr5  1  -0.00428365  0.32628690  0.33049595  1
  Cr  Cr6  1  -0.00174483  0.66332738  -0.00390034  1
  Ni  Ni7  1  0.16170922  0.83268093  0.16524923  1
  Ni  Ni8  1  -0.00367291  0.66535498  0.33117697  1
  Cr  Cr9  1  0.32921280  -0.00385489  0.99568820  1
  Ni  Ni10  1  0.49569011  0.16367369  0.16402295  1
  Ni  Ni11  1  0.32574404  -0.00251744  0.32900125  1
  Cr  Cr12  1  0.32840200  0.32571241  -0.00184341  1
  Cr  Cr13  1  0.49663675  0.49262268  0.16465271  1
  Ni  Ni14  1  0.33041091  0.32487518  0.32895335  1
  Cr  Cr15  1  0.32921377  0.66483853  0.99453066  1
  Cr  Cr16  1  0.49376866  0.83213717  0.16426991  1
  Cr  Cr17  1  0.32888855  0.66288823  0.33006766  1
  Cr  Cr18  1  0.65975097  -0.00245480  -0.00414529  1
  Ni  Ni19  1  0.82912658  0.16417450  0.16247712  1
  Cr  Cr20  1  0.66361809  -0.00239870  0.32937069  1
  Ni  Ni21  1  0.66229804  0.32548183  -0.00321979  1
  Cr  Cr22  1  0.82874460  0.49487716  0.16152517  1
  Ni  Ni23  1  0.66201233  0.32752525  0.33004497  1
  Cr  Cr24  1  0.65958699  0.66342791  0.99544550  1
  Cr  Cr25  1  0.83179660  0.83084504  0.16454467  1
  Cr  Cr26  1  0.66344704  0.66112828  0.33322378  1
  Ni  Ni27  1  0.16285918  0.15780706  0.49371313  1
  Cr  Cr28  1  -0.00273506  -0.00423899  0.65889702  1
  Cr  Cr29  1  0.16311624  0.16114322  0.82688811  1
  Cr  Cr30  1  0.16469808  0.49598171  0.49502874  1
  Cr  Cr31  1  0.99344484  0.32776506  0.65940427  1
  Cr  Cr32  1  0.16180739  0.49628220  0.82924722  1
  Ni  Ni33  1  0.16374873  0.83169782  0.49465505  1
  Cr  Cr34  1  -0.00329834  0.66338780  0.66022953  1
  Ni  Ni35  1  0.16655780  0.82975037  0.82684780  1
  Cr  Cr36  1  0.49374806  0.16156511  0.49506233  1
  Ni  Ni37  1  0.32918592  0.99255308  0.66218120  1
  Ni  Ni38  1  0.49603189  0.16122093  0.82836166  1
  Ni  Ni39  1  0.49717174  0.49484588  0.49551083  1
  Cr  Cr40  1  0.32988219  0.32783250  0.66049623  1
  Cr  Cr41  1  0.49617163  0.49426474  0.82762884  1
  Ni  Ni42  1  0.49240867  0.82910861  0.49680545  1
  Ni  Ni43  1  0.33011179  0.66638030  0.66154923  1
  Ni  Ni44  1  0.49155503  0.83135948  0.82636745  1
  Ni  Ni45  1  0.82894508  0.16263757  0.49454645  1
  Cr  Cr46  1  0.66092951  -0.00379805  0.66215725  1
  Cr  Cr47  1  0.82706141  0.16395919  0.82945837  1
  Ni  Ni48  1  0.82684660  0.49443513  0.49462030  1
  Ni  Ni49  1  0.66194803  0.32882600  0.66026747  1
  Cr  Cr50  1  0.82888977  0.49350588  0.83084884  1
  Ni  Ni51  1  0.83109527  0.82997007  0.49329753  1
  Cr  Cr52  1  0.66098321  0.66253899  0.65898284  1
  Cr  Cr53  1  0.82951829  0.83002873  0.82965070  1
" 