811,Ni56Fe27Cr16_17,-234.394955786862, 190.962791249546,Ni56Fe27Cr16,"# generated using pymatgen
 data_Cr5Fe7Ni15
_symmetry_space_group_name_H-M   'P 1'
_cell_length_a   7.44523541
_cell_length_b   7.44523541
_cell_length_c   10.52915290
_cell_angle_alpha   90.00000000
_cell_angle_beta   90.00000000
_cell_angle_gamma   90.00000000
_symmetry_Int_Tables_number   1
_chemical_formula_structural   Cr5Fe7Ni15
_chemical_formula_sum   'Cr10 Fe14 Ni30'
_cell_volume   583.64705883
_cell_formula_units_Z   2
loop_
 _symmetry_equiv_pos_site_id
 _symmetry_equiv_pos_as_xyz
  1  'x, y, z'
loop_
 _atom_site_type_symbol
 _atom_site_label
 _atom_site_symmetry_multiplicity
 _atom_site_fract_x
 _atom_site_fract_y
 _atom_site_fract_z
 _atom_site_occupancy
  Ni  Ni0  1  0.00233836  0.00315842  0.00317087  1
  Ni  Ni1  1  0.16946129  0.16704260  0.16880144  1
  Fe  Fe2  1  0.00200932  0.99975653  0.33494020  1
  Ni  Ni3  1  0.99884689  0.33268854  0.00196060  1
  Cr  Cr4  1  0.16573570  0.50204147  0.16775627  1
  Ni  Ni5  1  1.00083063  0.33458338  0.33549053  1
  Cr  Cr6  1  1.00120065  0.66953318  0.99912564  1
  Ni  Ni7  1  0.16927842  0.83746144  0.16828618  1
  Ni  Ni8  1  1.00075024  0.66659378  0.33513195  1
  Ni  Ni9  1  0.33611739  1.00095126  0.00213680  1
  Ni  Ni10  1  0.50027106  0.16700633  0.16362049  1
  Ni  Ni11  1  0.33461884  1.00095705  0.33524370  1
  Fe  Fe12  1  0.33420223  0.33632723  0.00228874  1
  Fe  Fe13  1  0.50108270  0.50482368  0.16754588  1
  Cr  Cr14  1  0.33540059  0.33434971  0.33594474  1
  Ni  Ni15  1  0.33776837  0.67119874  0.00155249  1
  Ni  Ni16  1  0.50226663  0.83575094  0.16812208  1
  Ni  Ni17  1  0.33440858  0.67120136  0.33424234  1
  Fe  Fe18  1  0.67028573  0.99810169  0.00196742  1
  Fe  Fe19  1  0.83732647  0.16619488  0.16750425  1
  Cr  Cr20  1  0.66708355  0.00253462  0.33557869  1
  Fe  Fe21  1  0.66810407  0.33468610  0.00186823  1
  Ni  Ni22  1  0.83303390  0.50171727  0.16759793  1
  Cr  Cr23  1  0.67076393  0.33649091  0.33285894  1
  Ni  Ni24  1  0.66621823  0.66660271  0.00242673  1
  Ni  Ni25  1  0.83417029  0.83144344  0.16826114  1
  Ni  Ni26  1  0.66875067  0.66827693  0.33467788  1
  Ni  Ni27  1  0.16827594  0.16962827  0.50006979  1
  Cr  Cr28  1  0.00182985  0.99874207  0.66579859  1
  Cr  Cr29  1  0.16960439  0.17082548  0.83458209  1
  Ni  Ni30  1  0.16530466  0.50176998  0.50281782  1
  Ni  Ni31  1  0.99970249  0.33681561  0.66742132  1
  Fe  Fe32  1  0.16805035  0.50342490  0.83518374  1
  Ni  Ni33  1  0.16610744  0.83258807  0.49775538  1
  Ni  Ni34  1  1.00033380  0.66581016  0.67036488  1
  Ni  Ni35  1  0.16854457  0.83605640  0.83746733  1
  Ni  Ni36  1  0.50120763  0.17038288  0.50437648  1
  Cr  Cr37  1  0.33514345  1.00056727  0.66562785  1
  Fe  Fe38  1  0.50349400  0.16686562  0.83638681  1
  Fe  Fe39  1  0.50231024  0.50293881  0.50169525  1
  Fe  Fe40  1  0.33520521  0.33726384  0.66640015  1
  Fe  Fe41  1  0.50210862  0.50313690  0.83544913  1
  Fe  Fe42  1  0.50157138  0.83291674  0.49924983  1
  Cr  Cr43  1  0.33262038  0.67053608  0.66836984  1
  Ni  Ni44  1  0.50381057  0.83371122  0.83668526  1
  Ni  Ni45  1  0.83511698  0.17064328  0.50199653  1
  Cr  Cr46  1  0.66802706  1.00027924  0.66753601  1
  Fe  Fe47  1  0.83516337  0.16627195  0.83515296  1
  Ni  Ni48  1  0.83507842  0.50271176  0.50296149  1
  Ni  Ni49  1  0.66900289  0.33571902  0.66908607  1
  Fe  Fe50  1  0.83330805  0.50076862  0.83449896  1
  Ni  Ni51  1  0.83463999  0.83002910  0.50143671  1
  Ni  Ni52  1  0.66853593  0.66541880  0.66768768  1
  Ni  Ni53  1  0.83267909  0.83180523  0.83494140  1
" 