2401,Ni56Cr44_16,-216.709742019517, 131.069742818389,Ni56Cr44,"# generated using pymatgen
 data_Cr5Ni4
_symmetry_space_group_name_H-M   'P 1'
_cell_length_a   7.53602571
_cell_length_b   7.53602571
_cell_length_c   10.65754977
_cell_angle_alpha   90.00000000
_cell_angle_beta   90.00000000
_cell_angle_gamma   90.00000000
_symmetry_Int_Tables_number   1
_chemical_formula_structural   Cr5Ni4
_chemical_formula_sum   'Cr30 Ni24'
_cell_volume   605.26019353
_cell_formula_units_Z   6
loop_
 _symmetry_equiv_pos_site_id
 _symmetry_equiv_pos_as_xyz
  1  'x, y, z'
loop_
 _atom_site_type_symbol
 _atom_site_label
 _atom_site_symmetry_multiplicity
 _atom_site_fract_x
 _atom_site_fract_y
 _atom_site_fract_z
 _atom_site_occupancy
  Cr  Cr0  1  0.99283796  0.99511686  -0.00388733  1
  Ni  Ni1  1  0.16512222  0.16553828  0.16033482  1
  Cr  Cr2  1  0.99358733  0.99532328  0.32820321  1
  Ni  Ni3  1  -0.00297498  0.32975983  -0.00115959  1
  Ni  Ni4  1  0.16173008  0.49370248  0.16243158  1
  Cr  Cr5  1  -0.00272886  0.33012836  0.32758935  1
  Cr  Cr6  1  0.99397286  0.66207230  -0.00310386  1
  Cr  Cr7  1  0.16318085  0.82803847  0.16604104  1
  Ni  Ni8  1  -0.00333317  0.66134837  0.32786145  1
  Cr  Cr9  1  0.32861568  -0.00051578  -0.00351949  1
  Ni  Ni10  1  0.49387490  0.16413489  0.16039915  1
  Ni  Ni11  1  0.32960226  -0.00235887  0.32806342  1
  Ni  Ni12  1  0.32984982  0.32962509  -0.00154503  1
  Ni  Ni13  1  0.49473088  0.49250377  0.16042408  1
  Cr  Cr14  1  0.32832738  0.32853229  0.32708543  1
  Cr  Cr15  1  0.32936682  0.65629503  0.99430954  1
  Cr  Cr16  1  0.49480611  0.83004298  0.16409349  1
  Ni  Ni17  1  0.32553830  0.65959097  0.32754101  1
  Ni  Ni18  1  0.66339371  -0.00316747  -0.00327413  1
  Cr  Cr19  1  0.82736413  0.16516491  0.15848696  1
  Cr  Cr20  1  0.66327684  -0.00289089  0.33015105  1
  Ni  Ni21  1  0.65953710  0.32936625  -0.00260228  1
  Ni  Ni22  1  0.82975925  0.49591935  0.16097572  1
  Cr  Cr23  1  0.66078710  0.32718769  0.32990163  1
  Cr  Cr24  1  0.66309403  0.66286974  0.99485122  1
  Ni  Ni25  1  0.82867721  0.82668646  0.16195478  1
  Cr  Cr26  1  0.66525852  0.66218046  0.32673640  1
  Cr  Cr27  1  0.16131731  0.16099417  0.49744342  1
  Ni  Ni28  1  0.99390116  0.99460796  0.66134367  1
  Cr  Cr29  1  0.16001775  0.16270053  0.82884520  1
  Ni  Ni30  1  0.15943197  0.49760975  0.49529459  1
  Ni  Ni31  1  0.99412895  0.32831368  0.65979471  1
  Cr  Cr32  1  0.15981728  0.49310572  0.82822563  1
  Cr  Cr33  1  0.16262726  0.82651115  0.49488546  1
  Ni  Ni34  1  0.99424714  0.66338221  0.66056610  1
  Cr  Cr35  1  0.16070543  0.83015449  0.82462608  1
  Ni  Ni36  1  0.49642361  0.16072919  0.49646879  1
  Ni  Ni37  1  0.32757050  -0.00280209  0.66056790  1
  Cr  Cr38  1  0.49719843  0.16407410  0.83007923  1
  Cr  Cr39  1  0.49532869  0.49519320  0.49577351  1
  Cr  Cr40  1  0.32991485  0.32857156  0.66143211  1
  Ni  Ni41  1  0.49716736  0.49144029  0.83030135  1
  Cr  Cr42  1  0.49219179  0.83063629  0.49262061  1
  Cr  Cr43  1  0.32821651  0.65995109  0.66406791  1
  Cr  Cr44  1  0.49536181  0.82992468  0.82931977  1
  Ni  Ni45  1  0.82786560  0.16158807  0.49952687  1
  Cr  Cr46  1  0.66403416  -0.00415196  0.65991132  1
  Cr  Cr47  1  0.82913065  0.16443997  0.82896272  1
  Cr  Cr48  1  0.83213588  0.49384600  0.49698037  1
  Ni  Ni49  1  0.66292510  0.32708902  0.66095265  1
  Cr  Cr50  1  0.82810330  0.49182201  0.82787421  1
  Ni  Ni51  1  0.83231121  0.82916596  0.49652241  1
  Cr  Cr52  1  0.66375222  0.66198760  0.66453466  1
  Ni  Ni53  1  0.82978563  0.82978618  0.82760106  1
" 