1374,Ni56Fe27Cr16_14,-234.374432217076, 199.692926052455,Ni56Fe27Cr16,"# generated using pymatgen
 data_Cr5Fe7Ni15
_symmetry_space_group_name_H-M   'P 1'
_cell_length_a   7.43507197
_cell_length_b   7.43507197
_cell_length_c   10.51477961
_cell_angle_alpha   90.00000000
_cell_angle_beta   90.00000000
_cell_angle_gamma   90.00000000
_symmetry_Int_Tables_number   1
_chemical_formula_structural   Cr5Fe7Ni15
_chemical_formula_sum   'Cr10 Fe14 Ni30'
_cell_volume   581.26012004
_cell_formula_units_Z   2
loop_
 _symmetry_equiv_pos_site_id
 _symmetry_equiv_pos_as_xyz
  1  'x, y, z'
loop_
 _atom_site_type_symbol
 _atom_site_label
 _atom_site_symmetry_multiplicity
 _atom_site_fract_x
 _atom_site_fract_y
 _atom_site_fract_z
 _atom_site_occupancy
  Cr  Cr0  1  0.00277627  1.00052645  1.00167631  1
  Cr  Cr1  1  0.16948139  0.16829130  0.16937594  1
  Ni  Ni2  1  0.00280215  1.00147571  0.33709833  1
  Fe  Fe3  1  1.00141310  0.33892226  0.00233396  1
  Fe  Fe4  1  0.16859722  0.50322113  0.16924840  1
  Ni  Ni5  1  1.00165771  0.33566093  0.33449163  1
  Ni  Ni6  1  1.00149040  0.66882763  0.00283805  1
  Ni  Ni7  1  0.16939530  0.83276431  0.16888343  1
  Fe  Fe8  1  0.00371950  0.66800503  0.33399081  1
  Ni  Ni9  1  0.33595941  1.00091374  1.00091615  1
  Ni  Ni10  1  0.50432873  0.16860646  0.16910518  1
  Ni  Ni11  1  0.33432941  0.00298344  0.33587900  1
  Cr  Cr12  1  0.33781324  0.33498609  0.00232721  1
  Fe  Fe13  1  0.50317916  0.50098652  0.16972844  1
  Ni  Ni14  1  0.33699133  0.33564238  0.33718416  1
  Ni  Ni15  1  0.33491304  0.66943288  1.00078593  1
  Cr  Cr16  1  0.50039366  0.83622495  0.16798928  1
  Fe  Fe17  1  0.33373386  0.66760433  0.33500415  1
  Fe  Fe18  1  0.66721367  1.00152650  1.00190479  1
  Ni  Ni19  1  0.83341223  0.17168580  0.16921871  1
  Ni  Ni20  1  0.66980617  0.00490330  0.33360544  1
  Ni  Ni21  1  0.66853648  0.33709955  0.00296774  1
  Ni  Ni22  1  0.83572772  0.50205858  0.16712485  1
  Ni  Ni23  1  0.66788953  0.33532370  0.33565105  1
  Ni  Ni24  1  0.66984681  0.66683675  1.00162839  1
  Fe  Fe25  1  0.83639014  0.83603223  0.16932147  1
  Fe  Fe26  1  0.66895163  0.66659422  0.33372375  1
  Ni  Ni27  1  0.16879896  0.16945959  0.50082487  1
  Fe  Fe28  1  1.00096014  1.00172237  0.66864300  1
  Ni  Ni29  1  0.17089762  0.17112941  0.83605154  1
  Ni  Ni30  1  0.17077155  0.50276341  0.50064528  1
  Cr  Cr31  1  0.00515892  0.33648263  0.66877895  1
  Ni  Ni32  1  0.16918373  0.50419938  0.83674472  1
  Ni  Ni33  1  0.16881626  0.83373527  0.50257802  1
  Ni  Ni34  1  0.00320593  0.67081119  0.67039016  1
  Fe  Fe35  1  0.16837487  0.83476051  0.83597088  1
  Ni  Ni36  1  0.50304322  0.17003580  0.50091631  1
  Cr  Cr37  1  0.33399586  0.00463736  0.66917184  1
  Ni  Ni38  1  0.50213692  0.16850112  0.83641751  1
  Ni  Ni39  1  0.50037053  0.50113803  0.50255195  1
  Ni  Ni40  1  0.33706769  0.33597182  0.66791405  1
  Fe  Fe41  1  0.50306287  0.50151651  0.83438948  1
  Cr  Cr42  1  0.50211129  0.83437991  0.50158542  1
  Fe  Fe43  1  0.33530018  0.66566142  0.66956924  1
  Fe  Fe44  1  0.50270599  0.83518338  0.83662955  1
  Ni  Ni45  1  0.83432020  0.16873089  0.50147429  1
  Ni  Ni46  1  0.66819103  0.00230355  0.66972502  1
  Cr  Cr47  1  0.83359907  0.16962827  0.83552424  1
  Cr  Cr48  1  0.83456619  0.50105378  0.50357239  1
  Ni  Ni49  1  0.66475044  0.33528251  0.66789128  1
  Fe  Fe50  1  0.83528152  0.50290889  0.83636248  1
  Cr  Cr51  1  0.83542361  0.83656278  0.50107884  1
  Ni  Ni52  1  0.66966253  0.66797426  0.67109755  1
  Ni  Ni53  1  0.83361117  0.83244733  0.83561618  1
" 