841,Ni56Fe27Cr16_4,-234.020066369971, 194.864408262411,Ni56Fe27Cr16,"# generated using pymatgen
 data_Cr5Fe7Ni15
_symmetry_space_group_name_H-M   'P 1'
_cell_length_a   7.44029137
_cell_length_b   7.44029137
_cell_length_c   10.52216097
_cell_angle_alpha   90.00000000
_cell_angle_beta   90.00000000
_cell_angle_gamma   90.00000000
_symmetry_Int_Tables_number   1
_chemical_formula_structural   Cr5Fe7Ni15
_chemical_formula_sum   'Cr10 Fe14 Ni30'
_cell_volume   582.48511009
_cell_formula_units_Z   2
loop_
 _symmetry_equiv_pos_site_id
 _symmetry_equiv_pos_as_xyz
  1  'x, y, z'
loop_
 _atom_site_type_symbol
 _atom_site_label
 _atom_site_symmetry_multiplicity
 _atom_site_fract_x
 _atom_site_fract_y
 _atom_site_fract_z
 _atom_site_occupancy
  Cr  Cr0  1  0.00231515  1.00119135  1.00159515  1
  Ni  Ni1  1  0.17121498  0.17041178  0.16928271  1
  Ni  Ni2  1  0.00250418  0.99922147  0.33567146  1
  Ni  Ni3  1  0.00199978  0.33622746  0.00215334  1
  Ni  Ni4  1  0.16840079  0.50079612  0.16811832  1
  Fe  Fe5  1  0.00399525  0.33551219  0.33515758  1
  Ni  Ni6  1  0.00195398  0.66826444  1.00161894  1
  Fe  Fe7  1  0.16938075  0.83424331  0.16927978  1
  Ni  Ni8  1  0.00318407  0.67094453  0.33567372  1
  Ni  Ni9  1  0.33715044  1.00160659  0.00271310  1
  Ni  Ni10  1  0.49740909  0.16591482  0.16652402  1
  Fe  Fe11  1  0.33449746  1.00117120  0.33434586  1
  Ni  Ni12  1  0.33605166  0.33433170  1.00151899  1
  Cr  Cr13  1  0.49904022  0.50297661  0.16761339  1
  Ni  Ni14  1  0.33528254  0.33581187  0.33503092  1
  Ni  Ni15  1  0.33539331  0.66945721  0.00242114  1
  Ni  Ni16  1  0.50197765  0.83625792  0.16665778  1
  Ni  Ni17  1  0.33387102  0.66900553  0.33498158  1
  Ni  Ni18  1  0.66615066  1.00155951  1.00109480  1
  Cr  Cr19  1  0.83610999  0.16691772  0.16718047  1
  Cr  Cr20  1  0.66912489  1.00154128  0.33557260  1
  Ni  Ni21  1  0.66734245  0.33447083  0.99948395  1
  Cr  Cr22  1  0.83817392  0.50509755  0.16673133  1
  Cr  Cr23  1  0.66727006  0.33472646  0.33733279  1
  Ni  Ni24  1  0.66804545  0.66936369  1.00094988  1
  Ni  Ni25  1  0.83434067  0.83344400  0.16892149  1
  Fe  Fe26  1  0.66874996  0.67055838  0.33637104  1
  Cr  Cr27  1  0.16899036  0.16843236  0.50175362  1
  Ni  Ni28  1  1.00139000  1.00164520  0.66853176  1
  Ni  Ni29  1  0.17003383  0.16876041  0.83425367  1
  Cr  Cr30  1  0.16730090  0.50090602  0.50077023  1
  Ni  Ni31  1  0.99764981  0.33327701  0.66821963  1
  Cr  Cr32  1  0.16805431  0.49961622  0.83690964  1
  Fe  Fe33  1  0.16718943  0.83641219  0.50103327  1
  Fe  Fe34  1  0.99851307  0.66999437  0.66817729  1
  Fe  Fe35  1  0.16916731  0.83712934  0.83508327  1
  Ni  Ni36  1  0.50134287  0.16752932  0.50324730  1
  Ni  Ni37  1  0.33491355  1.00152041  0.66826814  1
  Ni  Ni38  1  0.50059074  0.16857959  0.83562272  1
  Fe  Fe39  1  0.50414735  0.50144861  0.50188522  1
  Fe  Fe40  1  0.33703498  0.33176404  0.66956733  1
  Ni  Ni41  1  0.50320273  0.50068662  0.83563422  1
  Ni  Ni42  1  0.50331208  0.83547345  0.50202391  1
  Cr  Cr43  1  0.33629245  0.67036788  0.66847039  1
  Fe  Fe44  1  0.50190089  0.83619190  0.83648538  1
  Ni  Ni45  1  0.83518106  0.16799590  0.50383252  1
  Fe  Fe46  1  0.66876434  0.00255468  0.66809167  1
  Fe  Fe47  1  0.83428677  0.16982244  0.83406633  1
  Ni  Ni48  1  0.83515814  0.50369362  0.50299171  1
  Ni  Ni49  1  0.66934776  0.33504586  0.66787237  1
  Fe  Fe50  1  0.83334626  0.50085117  0.83525106  1
  Ni  Ni51  1  0.83451313  0.83370818  0.50189197  1
  Fe  Fe52  1  0.67047559  0.66862848  0.66858330  1
  Ni  Ni53  1  0.83406534  0.83403467  0.83458141  1
" 