946,Ni56Fe40Cr3_17,-239.888364616181, 218.954128907145,Ni56Fe40Cr3,"# generated using pymatgen
 data_CrFe7Ni10
_symmetry_space_group_name_H-M   'P 1'
_cell_length_a   7.41140893
_cell_length_b   7.41140893
_cell_length_c   10.48131502
_cell_angle_alpha   90.00000000
_cell_angle_beta   90.00000000
_cell_angle_gamma   90.00000000
_symmetry_Int_Tables_number   1
_chemical_formula_structural   CrFe7Ni10
_chemical_formula_sum   'Cr3 Fe21 Ni30'
_cell_volume   575.72796710
_cell_formula_units_Z   3
loop_
 _symmetry_equiv_pos_site_id
 _symmetry_equiv_pos_as_xyz
  1  'x, y, z'
loop_
 _atom_site_type_symbol
 _atom_site_label
 _atom_site_symmetry_multiplicity
 _atom_site_fract_x
 _atom_site_fract_y
 _atom_site_fract_z
 _atom_site_occupancy
  Ni  Ni0  1  1.00316173  1.00203658  1.00257499  1
  Fe  Fe1  1  0.16778798  0.16927755  0.16985653  1
  Ni  Ni2  1  1.00352027  1.00262704  0.33891292  1
  Fe  Fe3  1  1.00366742  0.33560541  1.00362558  1
  Ni  Ni4  1  0.16928777  0.50507474  0.16920560  1
  Ni  Ni5  1  1.00269887  0.33686830  0.33607659  1
  Ni  Ni6  1  0.00462060  0.67177158  0.00408238  1
  Ni  Ni7  1  0.16943869  0.83648609  0.17183199  1
  Ni  Ni8  1  1.00336563  0.67161283  0.33762552  1
  Ni  Ni9  1  0.33599291  1.00223372  1.00319468  1
  Cr  Cr10  1  0.50479209  0.16927074  0.17038993  1
  Fe  Fe11  1  0.33563357  1.00182980  0.33820629  1
  Ni  Ni12  1  0.33636295  0.33720421  1.00014210  1
  Cr  Cr13  1  0.50436597  0.50398462  0.17026557  1
  Cr  Cr14  1  0.33585552  0.33728225  0.33983039  1
  Ni  Ni15  1  0.33488436  0.67184725  0.00395775  1
  Fe  Fe16  1  0.50404385  0.83703978  0.17091765  1
  Fe  Fe17  1  0.33536649  0.67199292  0.33776250  1
  Ni  Ni18  1  0.67202319  0.00379280  1.00371704  1
  Ni  Ni19  1  0.83762343  0.16961802  0.17174122  1
  Fe  Fe20  1  0.67383033  1.00275643  0.33876089  1
  Ni  Ni21  1  0.67182236  0.33573127  1.00279529  1
  Fe  Fe22  1  0.83883803  0.50401353  0.17112194  1
  Ni  Ni23  1  0.67235064  0.33671012  0.34026413  1
  Fe  Fe24  1  0.67121439  0.67274892  1.00347552  1
  Ni  Ni25  1  0.83897220  0.83784468  0.16970981  1
  Ni  Ni26  1  0.67175627  0.67196455  0.33771051  1
  Ni  Ni27  1  0.16999130  0.17038710  0.50477426  1
  Fe  Fe28  1  1.00263046  0.00377037  0.67055497  1
  Fe  Fe29  1  0.16763239  0.16946491  0.83619852  1
  Fe  Fe30  1  0.16812120  0.50491895  0.50411033  1
  Ni  Ni31  1  1.00233098  0.33850606  0.66986040  1
  Fe  Fe32  1  0.16770171  0.50561459  0.83713139  1
  Fe  Fe33  1  0.16968962  0.83779199  0.50422255  1
  Ni  Ni34  1  0.00492749  0.67022459  0.67000477  1
  Ni  Ni35  1  0.17102579  0.83677606  0.83572787  1
  Ni  Ni36  1  0.50292844  0.16949614  0.50488626  1
  Fe  Fe37  1  0.33702293  1.00368992  0.67020030  1
  Fe  Fe38  1  0.50556224  0.16907782  0.83703973  1
  Fe  Fe39  1  0.50594724  0.50539491  0.50469049  1
  Fe  Fe40  1  0.33660817  0.33768560  0.67037935  1
  Fe  Fe41  1  0.50472396  0.50508758  0.83717049  1
  Ni  Ni42  1  0.50375245  0.83799829  0.50261270  1
  Ni  Ni43  1  0.33651051  0.67075113  0.66896426  1
  Fe  Fe44  1  0.50497837  0.83704187  0.83606197  1
  Fe  Fe45  1  0.83761666  0.16966869  0.50402100  1
  Ni  Ni46  1  0.67013948  0.00417354  0.66936620  1
  Ni  Ni47  1  0.83612379  0.17069235  0.83565151  1
  Ni  Ni48  1  0.83822731  0.50412156  0.50244631  1
  Ni  Ni49  1  0.67044944  0.33581606  0.66898120  1
  Ni  Ni50  1  0.83653511  0.50384131  0.83865339  1
  Ni  Ni51  1  0.83734608  0.83518147  0.50571147  1
  Fe  Fe52  1  0.67226719  0.66966611  0.66940199  1
  Ni  Ni53  1  0.83862568  0.83662882  0.83611454  1
" 