7517,Ni56Fe36Cr6_18,-238.139009341657, 211.63916259375,Ni56Fe36Cr6,"# generated using pymatgen
 data_Cr5Fe19Ni30
_symmetry_space_group_name_H-M   'P 1'
_cell_length_a   7.41698040
_cell_length_b   7.41698040
_cell_length_c   10.48919427
_cell_angle_alpha   90.00000000
_cell_angle_beta   90.00000000
_cell_angle_gamma   90.00000000
_symmetry_Int_Tables_number   1
_chemical_formula_structural   Cr5Fe19Ni30
_chemical_formula_sum   'Cr5 Fe19 Ni30'
_cell_volume   577.02734105
_cell_formula_units_Z   1
loop_
 _symmetry_equiv_pos_site_id
 _symmetry_equiv_pos_as_xyz
  1  'x, y, z'
loop_
 _atom_site_type_symbol
 _atom_site_label
 _atom_site_symmetry_multiplicity
 _atom_site_fract_x
 _atom_site_fract_y
 _atom_site_fract_z
 _atom_site_occupancy
  Fe  Fe0  1  1.00229363  0.00553337  0.00396136  1
  Fe  Fe1  1  0.16827411  0.17084500  0.17046953  1
  Ni  Ni2  1  0.00457267  1.00238757  0.33581912  1
  Ni  Ni3  1  0.00454099  0.33537622  0.00394701  1
  Ni  Ni4  1  0.17054763  0.50233301  0.17045133  1
  Fe  Fe5  1  1.00303656  0.33798872  0.33617993  1
  Cr  Cr6  1  0.00379955  0.66908867  1.00280389  1
  Ni  Ni7  1  0.16899315  0.83633471  0.17172216  1
  Ni  Ni8  1  1.00306258  0.67105669  0.33714715  1
  Cr  Cr9  1  0.33601277  1.00283313  1.00227106  1
  Fe  Fe10  1  0.50325928  0.17045792  0.17195177  1
  Fe  Fe11  1  0.33699292  1.00333012  0.33651033  1
  Fe  Fe12  1  0.33489233  0.33883279  1.00328389  1
  Fe  Fe13  1  0.50313079  0.50493778  0.17104663  1
  Ni  Ni14  1  0.33767473  0.33591953  0.33612993  1
  Fe  Fe15  1  0.33783391  0.66814478  1.00246206  1
  Fe  Fe16  1  0.50452281  0.83472725  0.17043120  1
  Fe  Fe17  1  0.33636569  0.66944177  0.33718234  1
  Fe  Fe18  1  0.67120517  1.00259196  1.00329545  1
  Fe  Fe19  1  0.83859330  0.16945456  0.17027249  1
  Fe  Fe20  1  0.67031885  1.00310314  0.33738682  1
  Cr  Cr21  1  0.67079923  0.33771380  1.00214460  1
  Ni  Ni22  1  0.83732345  0.50391055  0.17140146  1
  Ni  Ni23  1  0.66884965  0.33742955  0.33706231  1
  Ni  Ni24  1  0.66801377  0.67018617  0.00382835  1
  Ni  Ni25  1  0.83602874  0.83760794  0.17055534  1
  Ni  Ni26  1  0.67063145  0.66906362  0.33647371  1
  Fe  Fe27  1  0.17100135  0.16950138  0.50266496  1
  Ni  Ni28  1  0.00489536  1.00233574  0.67071691  1
  Ni  Ni29  1  0.16977881  0.17093951  0.83754723  1
  Ni  Ni30  1  0.17042810  0.50372785  0.50208456  1
  Cr  Cr31  1  1.00233044  0.33699195  0.66993138  1
  Ni  Ni32  1  0.17231302  0.50270014  0.83758645  1
  Fe  Fe33  1  0.16974572  0.83577786  0.50356613  1
  Ni  Ni34  1  0.00486232  0.67135229  0.66932640  1
  Ni  Ni35  1  0.17081325  0.83648758  0.83469720  1
  Ni  Ni36  1  0.50344434  0.17018148  0.50383752  1
  Fe  Fe37  1  0.33743779  1.00263242  0.67076109  1
  Ni  Ni38  1  0.50365987  0.17065168  0.83481577  1
  Ni  Ni39  1  0.50316617  0.50237085  0.50300020  1
  Fe  Fe40  1  0.33866749  0.33730746  0.66980001  1
  Ni  Ni41  1  0.50161954  0.50348182  0.83616216  1
  Ni  Ni42  1  0.50467454  0.83757255  0.50322387  1
  Ni  Ni43  1  0.33675602  0.67104544  0.67092188  1
  Ni  Ni44  1  0.50341036  0.83599186  0.83663146  1
  Fe  Fe45  1  0.83496934  0.16948592  0.50339363  1
  Ni  Ni46  1  0.66852659  0.00460328  0.66993250  1
  Ni  Ni47  1  0.83668631  0.16914905  0.83729205  1
  Ni  Ni48  1  0.83652948  0.50495827  0.50283369  1
  Ni  Ni49  1  0.66821113  0.33648371  0.67031757  1
  Fe  Fe50  1  0.83575222  0.50230792  0.83603678  1
  Ni  Ni51  1  0.83663535  0.83659886  0.50312406  1
  Ni  Ni52  1  0.66850889  0.66903758  0.66982429  1
  Cr  Cr53  1  0.83586594  0.83795468  0.83603843  1
" 