1367,Ni56Fe20Cr22_1,-230.855111116825, 179.825611058295,Ni56Fe20Cr22,"# generated using pymatgen
 data_Cr7(FeNi3)5
_symmetry_space_group_name_H-M   'P 1'
_cell_length_a   7.45919435
_cell_length_b   7.45919435
_cell_length_c   10.54889381
_cell_angle_alpha   90.00000000
_cell_angle_beta   90.00000000
_cell_angle_gamma   90.00000000
_symmetry_Int_Tables_number   1
_chemical_formula_structural   Cr7(FeNi3)5
_chemical_formula_sum   'Cr14 Fe10 Ni30'
_cell_volume   586.93602452
_cell_formula_units_Z   2
loop_
 _symmetry_equiv_pos_site_id
 _symmetry_equiv_pos_as_xyz
  1  'x, y, z'
loop_
 _atom_site_type_symbol
 _atom_site_label
 _atom_site_symmetry_multiplicity
 _atom_site_fract_x
 _atom_site_fract_y
 _atom_site_fract_z
 _atom_site_occupancy
  Ni  Ni0  1  0.00062829  0.00115414  0.00452913  1
  Ni  Ni1  1  0.16689384  0.16393963  0.16590887  1
  Fe  Fe2  1  1.00026782  0.99893540  0.33340989  1
  Cr  Cr3  1  0.00394069  0.33148062  0.00076444  1
  Ni  Ni4  1  0.16631757  0.50229896  0.16632733  1
  Cr  Cr5  1  0.00134540  0.33265292  0.33435915  1
  Fe  Fe6  1  0.00067720  0.66889058  0.00222890  1
  Ni  Ni7  1  0.16519810  0.83527412  0.16765149  1
  Ni  Ni8  1  0.00152810  0.66898021  0.33355650  1
  Ni  Ni9  1  0.33377848  0.00198709  0.00151321  1
  Cr  Cr10  1  0.50148761  0.16603808  0.16745169  1
  Fe  Fe11  1  0.33237764  0.99902854  0.33429169  1
  Ni  Ni12  1  0.33264880  0.33263879  0.99896328  1
  Cr  Cr13  1  0.50099246  0.49913209  0.16518698  1
  Cr  Cr14  1  0.33181509  0.33366069  0.33414875  1
  Cr  Cr15  1  0.33494305  0.66660264  0.00139419  1
  Ni  Ni16  1  0.50126756  0.83645501  0.16616369  1
  Cr  Cr17  1  0.33229193  0.66820197  0.33361103  1
  Ni  Ni18  1  0.66709514  0.99880645  0.00152174  1
  Ni  Ni19  1  0.83305923  0.16350424  0.16695684  1
  Ni  Ni20  1  0.66880078  1.00049701  0.33399345  1
  Ni  Ni21  1  0.66549502  0.33288145  0.00116292  1
  Cr  Cr22  1  0.83349228  0.50114586  0.16654959  1
  Fe  Fe23  1  0.66839743  0.33204329  0.33629878  1
  Ni  Ni24  1  0.66635735  0.66994544  0.00102609  1
  Ni  Ni25  1  0.83505924  0.83597498  0.16626243  1
  Cr  Cr26  1  0.66740924  0.67017832  0.33483609  1
  Ni  Ni27  1  0.16753211  0.16582587  0.50216728  1
  Cr  Cr28  1  0.00063711  0.00323925  0.66540476  1
  Ni  Ni29  1  0.17224230  0.16850962  0.83364871  1
  Ni  Ni30  1  0.16756730  0.50247741  0.50345247  1
  Ni  Ni31  1  0.00289412  0.33521807  0.66561641  1
  Ni  Ni32  1  0.16935440  0.49955853  0.83149090  1
  Ni  Ni33  1  0.16714335  0.83314166  0.50031164  1
  Ni  Ni34  1  0.00154284  0.66424659  0.66463679  1
  Cr  Cr35  1  0.16778272  0.83410233  0.83328260  1
  Fe  Fe36  1  0.49999184  0.16688412  0.50223187  1
  Ni  Ni37  1  0.33622857  0.00119523  0.66605503  1
  Ni  Ni38  1  0.49896440  0.16767718  0.83328719  1
  Ni  Ni39  1  0.50158989  0.49969408  0.50346913  1
  Ni  Ni40  1  0.33263623  0.33442592  0.66805470  1
  Fe  Fe41  1  0.49965089  0.49851970  0.83256761  1
  Fe  Fe42  1  0.49943258  0.83558044  0.50196763  1
  Ni  Ni43  1  0.33492984  0.66600254  0.66583043  1
  Fe  Fe44  1  0.50056927  0.83562992  0.83340085  1
  Ni  Ni45  1  0.83119371  0.16701617  0.50058076  1
  Ni  Ni46  1  0.66423882  0.99987514  0.66618540  1
  Cr  Cr47  1  0.83128760  0.16700535  0.83440793  1
  Fe  Fe48  1  0.83547516  0.50030846  0.50259611  1
  Ni  Ni49  1  0.66607111  0.33381625  0.66449083  1
  Cr  Cr50  1  0.83311235  0.50172064  0.83227698  1
  Fe  Fe51  1  0.83491917  0.83362844  0.50055721  1
  Ni  Ni52  1  0.66514894  0.66785784  0.66564522  1
  Cr  Cr53  1  0.83272442  0.83294110  0.83474179  1
" 