4459,Ni56Fe40Cr3_10,-239.964068427952, 218.275866184332,Ni56Fe40Cr3,"# generated using pymatgen
 data_CrFe7Ni10
_symmetry_space_group_name_H-M   'P 1'
_cell_length_a   7.41274826
_cell_length_b   7.41274826
_cell_length_c   10.48320912
_cell_angle_alpha   90.00000000
_cell_angle_beta   90.00000000
_cell_angle_gamma   90.00000000
_symmetry_Int_Tables_number   1
_chemical_formula_structural   CrFe7Ni10
_chemical_formula_sum   'Cr3 Fe21 Ni30'
_cell_volume   576.04014643
_cell_formula_units_Z   3
loop_
 _symmetry_equiv_pos_site_id
 _symmetry_equiv_pos_as_xyz
  1  'x, y, z'
loop_
 _atom_site_type_symbol
 _atom_site_label
 _atom_site_symmetry_multiplicity
 _atom_site_fract_x
 _atom_site_fract_y
 _atom_site_fract_z
 _atom_site_occupancy
  Ni  Ni0  1  0.00454159  0.00553713  1.00337093  1
  Ni  Ni1  1  0.17221901  0.16952890  0.16794321  1
  Cr  Cr2  1  1.00345518  0.00446667  0.33719763  1
  Ni  Ni3  1  0.00421976  0.33593745  0.00366690  1
  Fe  Fe4  1  0.17169984  0.50312405  0.16934560  1
  Cr  Cr5  1  0.00478923  0.33709667  0.33802348  1
  Fe  Fe6  1  0.00431379  0.66996383  1.00277414  1
  Fe  Fe7  1  0.17153914  0.83754897  0.16944167  1
  Fe  Fe8  1  0.00443922  0.66990022  0.33799441  1
  Ni  Ni9  1  0.33536416  1.00360866  1.00362410  1
  Ni  Ni10  1  0.50252906  0.16956976  0.17125986  1
  Ni  Ni11  1  0.33896532  0.00371522  0.33715533  1
  Ni  Ni12  1  0.33559375  0.33778163  0.00391917  1
  Fe  Fe13  1  0.50381820  0.50323529  0.17083592  1
  Ni  Ni14  1  0.33814852  0.33749645  0.33742759  1
  Ni  Ni15  1  0.33856303  0.66960351  0.00406561  1
  Ni  Ni16  1  0.50228142  0.83736689  0.17168517  1
  Ni  Ni17  1  0.33921530  0.66976683  0.33700054  1
  Cr  Cr18  1  0.67101354  1.00222428  0.00485897  1
  Ni  Ni19  1  0.83622566  0.17229182  0.16953288  1
  Fe  Fe20  1  0.66718086  0.00384585  0.33683627  1
  Fe  Fe21  1  0.67044496  0.33843447  0.00410573  1
  Ni  Ni22  1  0.83647578  0.50408287  0.16925661  1
  Fe  Fe23  1  0.66773980  0.33728470  0.33703650  1
  Ni  Ni24  1  0.66924318  0.66927896  1.00271001  1
  Fe  Fe25  1  0.83625042  0.83631810  0.17026678  1
  Ni  Ni26  1  0.66888117  0.67056878  0.33774772  1
  Ni  Ni27  1  0.17254741  0.16941508  0.50575151  1
  Ni  Ni28  1  1.00218821  0.00485383  0.67043765  1
  Fe  Fe29  1  0.16977674  0.17037767  0.83762950  1
  Ni  Ni30  1  0.16982255  0.50499942  0.50413506  1
  Ni  Ni31  1  0.00374074  0.33658244  0.66975847  1
  Ni  Ni32  1  0.16866771  0.50433673  0.83695930  1
  Ni  Ni33  1  0.17100146  0.83657049  0.50420610  1
  Ni  Ni34  1  0.00423556  0.66955210  0.66953712  1
  Ni  Ni35  1  0.17138389  0.83718494  0.83782203  1
  Ni  Ni36  1  0.50331831  0.16985405  0.50279965  1
  Fe  Fe37  1  0.33601181  1.00300817  0.67012158  1
  Fe  Fe38  1  0.50239391  0.17086777  0.83635402  1
  Ni  Ni39  1  0.50464267  0.50314759  0.50352219  1
  Fe  Fe40  1  0.33600338  0.33707889  0.66953914  1
  Fe  Fe41  1  0.50273763  0.50509115  0.83705837  1
  Fe  Fe42  1  0.50269660  0.83629042  0.50337000  1
  Ni  Ni43  1  0.33740303  0.66957030  0.66992372  1
  Ni  Ni44  1  0.50206606  0.83715234  0.83576007  1
  Fe  Fe45  1  0.83618305  0.17087786  0.50557904  1
  Ni  Ni46  1  0.67120063  1.00346613  0.66934010  1
  Fe  Fe47  1  0.83880876  0.17070490  0.83637220  1
  Ni  Ni48  1  0.83652845  0.50469550  0.50446790  1
  Fe  Fe49  1  0.67135202  0.33723164  0.66984223  1
  Ni  Ni50  1  0.83752889  0.50325955  0.83726140  1
  Fe  Fe51  1  0.83671333  0.83595608  0.50480237  1
  Fe  Fe52  1  0.67140793  0.67035513  0.67042555  1
  Fe  Fe53  1  0.83826689  0.83572042  0.83591956  1
" 