4941,Ni56Fe36Cr6_6,-238.946665066999, 212.738584258411,Ni56Fe36Cr6,"# generated using pymatgen
 data_Cr5Fe19Ni30
_symmetry_space_group_name_H-M   'P 1'
_cell_length_a   7.42621490
_cell_length_b   7.42621490
_cell_length_c   10.50225383
_cell_angle_alpha   90.00000000
_cell_angle_beta   90.00000000
_cell_angle_gamma   90.00000000
_symmetry_Int_Tables_number   1
_chemical_formula_structural   Cr5Fe19Ni30
_chemical_formula_sum   'Cr5 Fe19 Ni30'
_cell_volume   579.18530725
_cell_formula_units_Z   1
loop_
 _symmetry_equiv_pos_site_id
 _symmetry_equiv_pos_as_xyz
  1  'x, y, z'
loop_
 _atom_site_type_symbol
 _atom_site_label
 _atom_site_symmetry_multiplicity
 _atom_site_fract_x
 _atom_site_fract_y
 _atom_site_fract_z
 _atom_site_occupancy
  Ni  Ni0  1  0.00282680  1.00222779  0.00307416  1
  Ni  Ni1  1  0.16866518  0.16876804  0.16935345  1
  Fe  Fe2  1  1.00250624  0.00289708  0.33595713  1
  Ni  Ni3  1  1.00271336  0.33496973  0.00438699  1
  Fe  Fe4  1  0.16951724  0.50204925  0.16911608  1
  Fe  Fe5  1  1.00208496  0.33674927  0.33600729  1
  Ni  Ni6  1  0.00328464  0.67105013  0.00438738  1
  Fe  Fe7  1  0.16797988  0.83614316  0.16870387  1
  Ni  Ni8  1  0.00327719  0.67017468  0.33549141  1
  Ni  Ni9  1  0.33507781  0.00342266  1.00249277  1
  Ni  Ni10  1  0.50216969  0.17065713  0.16879977  1
  Fe  Fe11  1  0.33498739  1.00242124  0.33587436  1
  Ni  Ni12  1  0.33723303  0.33580961  0.00380131  1
  Ni  Ni13  1  0.50366595  0.50175245  0.16920803  1
  Fe  Fe14  1  0.33583410  0.33763391  0.33489017  1
  Ni  Ni15  1  0.33546536  0.66901781  1.00192480  1
  Cr  Cr16  1  0.50146630  0.83549431  0.16875227  1
  Ni  Ni17  1  0.33491937  0.66919022  0.33715389  1
  Fe  Fe18  1  0.66993336  0.00358567  1.00222224  1
  Ni  Ni19  1  0.83741133  0.17087141  0.16895143  1
  Fe  Fe20  1  0.67075154  1.00270472  0.33630215  1
  Ni  Ni21  1  0.66830890  0.33535249  0.00396038  1
  Ni  Ni22  1  0.83634774  0.50196453  0.16936298  1
  Ni  Ni23  1  0.66989782  0.33583776  0.33532705  1
  Ni  Ni24  1  0.66950236  0.66889933  0.00353165  1
  Fe  Fe25  1  0.83751799  0.83611621  0.16901003  1
  Fe  Fe26  1  0.66986234  0.66776955  0.33713676  1
  Fe  Fe27  1  0.16801852  0.16977593  0.50333743  1
  Ni  Ni28  1  0.00412497  0.00456633  0.66861818  1
  Fe  Fe29  1  0.17011100  0.16903052  0.83635052  1
  Fe  Fe30  1  0.17040313  0.50218127  0.50221140  1
  Ni  Ni31  1  0.00298498  0.33323216  0.66754009  1
  Fe  Fe32  1  0.17250133  0.50279171  0.83692117  1
  Fe  Fe33  1  0.17044482  0.83629294  0.50256617  1
  Cr  Cr34  1  0.00334871  0.67047549  0.66888685  1
  Ni  Ni35  1  0.17132327  0.83812416  0.83683528  1
  Cr  Cr36  1  0.50199430  0.16966964  0.50243548  1
  Ni  Ni37  1  0.33394098  1.00190037  0.66941280  1
  Fe  Fe38  1  0.50131731  0.17019097  0.83703870  1
  Ni  Ni39  1  0.50376737  0.50565015  0.50372927  1
  Ni  Ni40  1  0.33607273  0.33688746  0.66963192  1
  Ni  Ni41  1  0.50217501  0.50384911  0.83530954  1
  Ni  Ni42  1  0.50064863  0.83314162  0.50314222  1
  Ni  Ni43  1  0.33812675  0.66946508  0.66916960  1
  Ni  Ni44  1  0.50008686  0.83491336  0.83595892  1
  Ni  Ni45  1  0.83959567  0.17142101  0.50290691  1
  Cr  Cr46  1  0.67013724  1.00220609  0.67064715  1
  Fe  Fe47  1  0.83681801  0.16864448  0.83654965  1
  Ni  Ni48  1  0.83544810  0.50129475  0.50252558  1
  Ni  Ni49  1  0.66919606  0.33741541  0.66895898  1
  Cr  Cr50  1  0.83494631  0.50109721  0.83633216  1
  Fe  Fe51  1  0.83528146  0.83563644  0.50151352  1
  Ni  Ni52  1  0.66653447  0.66832457  0.66702530  1
  Fe  Fe53  1  0.83590240  0.83674993  0.83772368  1
" 