5369,Ni56Cr44_5,-216.630917241359, 126.083413671277,Ni56Cr44,"# generated using pymatgen
 data_Cr5Ni4
_symmetry_space_group_name_H-M   'P 1'
_cell_length_a   7.53633018
_cell_length_b   7.53633018
_cell_length_c   10.65798035
_cell_angle_alpha   90.00000000
_cell_angle_beta   90.00000000
_cell_angle_gamma   90.00000000
_symmetry_Int_Tables_number   1
_chemical_formula_structural   Cr5Ni4
_chemical_formula_sum   'Cr30 Ni24'
_cell_volume   605.33355710
_cell_formula_units_Z   6
loop_
 _symmetry_equiv_pos_site_id
 _symmetry_equiv_pos_as_xyz
  1  'x, y, z'
loop_
 _atom_site_type_symbol
 _atom_site_label
 _atom_site_symmetry_multiplicity
 _atom_site_fract_x
 _atom_site_fract_y
 _atom_site_fract_z
 _atom_site_occupancy
  Ni  Ni0  1  0.99201711  -0.00451570  0.99498298  1
  Cr  Cr1  1  0.15765422  0.16159188  0.16200379  1
  Ni  Ni2  1  0.99165084  0.99378539  0.32726106  1
  Ni  Ni3  1  0.99272548  0.32599651  -0.00348961  1
  Ni  Ni4  1  0.16212078  0.49750133  0.16034708  1
  Cr  Cr5  1  0.99500936  0.32987393  0.32843768  1
  Cr  Cr6  1  -0.00299229  0.66414578  -0.00311453  1
  Ni  Ni7  1  0.16104139  0.82800315  0.16084861  1
  Cr  Cr8  1  0.99497462  0.66272851  0.32892605  1
  Cr  Cr9  1  0.32833189  0.99234875  -0.00307401  1
  Cr  Cr10  1  0.50045773  0.16087921  0.16314739  1
  Cr  Cr11  1  0.32900341  0.99456047  0.32619269  1
  Cr  Cr12  1  0.32830285  0.33032843  -0.00457296  1
  Cr  Cr13  1  0.49578190  0.49641221  0.16039645  1
  Cr  Cr14  1  0.32869309  0.33005239  0.33035626  1
  Ni  Ni15  1  0.32785491  0.66284952  -0.00384387  1
  Ni  Ni16  1  0.49627954  0.82949644  0.16120251  1
  Cr  Cr17  1  0.32759439  0.66157803  0.32651268  1
  Ni  Ni18  1  0.66635628  -0.00355611  -0.00343826  1
  Ni  Ni19  1  0.82811288  0.15932436  0.16088432  1
  Ni  Ni20  1  0.66565823  0.99533233  0.32668208  1
  Ni  Ni21  1  0.66464592  0.32596859  0.99435862  1
  Cr  Cr22  1  0.82928223  0.49256358  0.16111744  1
  Ni  Ni23  1  0.66315473  0.32762524  0.32974852  1
  Cr  Cr24  1  0.66134870  0.66425900  0.99453487  1
  Ni  Ni25  1  0.82895017  0.83374608  0.16252392  1
  Cr  Cr26  1  0.66369313  0.66307072  0.33052773  1
  Cr  Cr27  1  0.16125413  0.16180013  0.49679186  1
  Ni  Ni28  1  0.99390801  0.99349920  0.66397085  1
  Cr  Cr29  1  0.15869206  0.16074831  0.82746859  1
  Ni  Ni30  1  0.16383498  0.49568969  0.49698148  1
  Cr  Cr31  1  -0.00430149  0.32825436  0.66137879  1
  Cr  Cr32  1  0.16415342  0.49724674  0.82939248  1
  Cr  Cr33  1  0.16006437  0.82876024  0.49692777  1
  Cr  Cr34  1  0.99426766  0.66395115  0.66055160  1
  Ni  Ni35  1  0.16025655  0.82874588  0.82869984  1
  Cr  Cr36  1  0.49600850  0.16326961  0.49401860  1
  Cr  Cr37  1  0.32711179  -0.00399777  0.66307080  1
  Cr  Cr38  1  0.49764988  0.16415814  0.82919046  1
  Ni  Ni39  1  0.49465758  0.49467535  0.49688917  1
  Ni  Ni40  1  0.32941514  0.33321665  0.66071730  1
  Ni  Ni41  1  0.49371255  0.49555086  0.82824160  1
  Cr  Cr42  1  0.49665529  0.82774572  0.49477078  1
  Ni  Ni43  1  0.32846288  0.65862731  0.66247301  1
  Cr  Cr44  1  0.49431191  0.82599174  0.82954748  1
  Cr  Cr45  1  0.82904104  0.16020750  0.49331826  1
  Cr  Cr46  1  0.66542512  0.99441416  0.66348486  1
  Ni  Ni47  1  0.82971006  0.15930076  0.83189738  1
  Ni  Ni48  1  0.82771025  0.49597511  0.49436452  1
  Cr  Cr49  1  0.66086554  0.32998297  0.66231737  1
  Cr  Cr50  1  0.82735427  0.49379864  0.83111053  1
  Ni  Ni51  1  0.82973587  0.82941843  0.49466213  1
  Cr  Cr52  1  0.66279085  0.66158431  0.66100427  1
  Ni  Ni53  1  0.83133338  0.83321991  0.82908383  1
" 