4044,Ni56Fe36Cr6_3,-238.481291962953, 211.799538735056,Ni56Fe36Cr6,"# generated using pymatgen
 data_Cr5Fe19Ni30
_symmetry_space_group_name_H-M   'P 1'
_cell_length_a   7.42119237
_cell_length_b   7.42119237
_cell_length_c   10.49515090
_cell_angle_alpha   90.00000000
_cell_angle_beta   90.00000000
_cell_angle_gamma   90.00000000
_symmetry_Int_Tables_number   1
_chemical_formula_structural   Cr5Fe19Ni30
_chemical_formula_sum   'Cr5 Fe19 Ni30'
_cell_volume   578.01094980
_cell_formula_units_Z   1
loop_
 _symmetry_equiv_pos_site_id
 _symmetry_equiv_pos_as_xyz
  1  'x, y, z'
loop_
 _atom_site_type_symbol
 _atom_site_label
 _atom_site_symmetry_multiplicity
 _atom_site_fract_x
 _atom_site_fract_y
 _atom_site_fract_z
 _atom_site_occupancy
  Ni  Ni0  1  0.00499348  1.00273053  0.00325118  1
  Fe  Fe1  1  0.16971646  0.16889384  0.16992837  1
  Ni  Ni2  1  0.00393672  1.00228999  0.33666079  1
  Ni  Ni3  1  0.00524694  0.33621951  1.00252274  1
  Ni  Ni4  1  0.16993281  0.50307412  0.16881603  1
  Fe  Fe5  1  1.00227629  0.33463260  0.33696266  1
  Ni  Ni6  1  0.00554845  0.67031543  1.00186683  1
  Ni  Ni7  1  0.16990481  0.83663311  0.16957481  1
  Ni  Ni8  1  1.00261830  0.67159085  0.33650924  1
  Fe  Fe9  1  0.33445392  0.00341737  0.00404388  1
  Fe  Fe10  1  0.50223498  0.16862930  0.17104391  1
  Ni  Ni11  1  0.33649945  0.00361747  0.33630876  1
  Ni  Ni12  1  0.33558484  0.33595891  1.00242012  1
  Cr  Cr13  1  0.50100331  0.50264934  0.17101610  1
  Fe  Fe14  1  0.33661708  0.33436646  0.33618820  1
  Fe  Fe15  1  0.33338575  0.66941702  1.00261246  1
  Ni  Ni16  1  0.50146642  0.83877836  0.17083422  1
  Fe  Fe17  1  0.33693455  0.67247360  0.33578155  1
  Cr  Cr18  1  0.67027708  0.00360793  0.00408550  1
  Fe  Fe19  1  0.83731694  0.16835314  0.17026667  1
  Ni  Ni20  1  0.66883083  1.00279609  0.33645183  1
  Ni  Ni21  1  0.66843434  0.33540900  1.00075351  1
  Cr  Cr22  1  0.83899945  0.50252692  0.16940654  1
  Ni  Ni23  1  0.66856965  0.33563706  0.33827397  1
  Cr  Cr24  1  0.67076248  0.66952099  1.00201423  1
  Ni  Ni25  1  0.83789195  0.83875335  0.17129602  1
  Ni  Ni26  1  0.66989756  0.67083323  0.33827888  1
  Ni  Ni27  1  0.17006334  0.16881963  0.50311233  1
  Ni  Ni28  1  0.00383834  0.00327119  0.66935344  1
  Fe  Fe29  1  0.16834932  0.17078408  0.83612909  1
  Cr  Cr30  1  0.16859881  0.50266602  0.50218080  1
  Ni  Ni31  1  1.00302618  0.33549162  0.67044686  1
  Ni  Ni32  1  0.17016796  0.50287421  0.83798783  1
  Fe  Fe33  1  0.16877699  0.83910799  0.50249394  1
  Ni  Ni34  1  1.00144205  0.67050828  0.67088979  1
  Fe  Fe35  1  0.16807626  0.83558724  0.83688274  1
  Ni  Ni36  1  0.50286017  0.16858981  0.50282409  1
  Fe  Fe37  1  0.33582302  1.00280251  0.66853722  1
  Fe  Fe38  1  0.50321679  0.17190404  0.83591868  1
  Fe  Fe39  1  0.50609873  0.50274260  0.50318059  1
  Fe  Fe40  1  0.33612653  0.33621666  0.67095773  1
  Ni  Ni41  1  0.50167239  0.50210053  0.83570846  1
  Ni  Ni42  1  0.50392247  0.83741274  0.50268684  1
  Fe  Fe43  1  0.33653105  0.67024562  0.67087643  1
  Fe  Fe44  1  0.50270062  0.83525609  0.83468298  1
  Ni  Ni45  1  0.83634879  0.16933703  0.50266899  1
  Fe  Fe46  1  0.67140046  1.00251126  0.66919549  1
  Ni  Ni47  1  0.83715687  0.17014647  0.83620614  1
  Ni  Ni48  1  0.83553502  0.50328708  0.50340584  1
  Fe  Fe49  1  0.67145713  0.33687495  0.66983362  1
  Ni  Ni50  1  0.83742483  0.50211505  0.83616891  1
  Ni  Ni51  1  0.83530158  0.83664189  0.50258201  1
  Ni  Ni52  1  0.66965499  0.66940610  0.66935806  1
  Ni  Ni53  1  0.83792634  0.83700568  0.83539399  1
" 