3076,Ni56Fe11Cr32_17,-227.683849867403, 171.871873553055,Ni56Fe11Cr32,"# generated using pymatgen
 data_Cr3FeNi5
_symmetry_space_group_name_H-M   'P 1'
_cell_length_a   7.47276491
_cell_length_b   7.47276491
_cell_length_c   10.56808548
_cell_angle_alpha   90.00000000
_cell_angle_beta   90.00000000
_cell_angle_gamma   90.00000000
_symmetry_Int_Tables_number   1
_chemical_formula_structural   Cr3FeNi5
_chemical_formula_sum   'Cr18 Fe6 Ni30'
_cell_volume   590.14530557
_cell_formula_units_Z   6
loop_
 _symmetry_equiv_pos_site_id
 _symmetry_equiv_pos_as_xyz
  1  'x, y, z'
loop_
 _atom_site_type_symbol
 _atom_site_label
 _atom_site_symmetry_multiplicity
 _atom_site_fract_x
 _atom_site_fract_y
 _atom_site_fract_z
 _atom_site_occupancy
  Ni  Ni0  1  0.99899667  0.99917771  0.00217217  1
  Ni  Ni1  1  0.16306422  0.16544999  0.16670411  1
  Ni  Ni2  1  0.99713329  0.00197408  0.33247160  1
  Ni  Ni3  1  0.99902217  0.32956816  0.00101456  1
  Cr  Cr4  1  0.16417080  0.49969490  0.16742965  1
  Ni  Ni5  1  -0.00029793  0.33032287  0.33208789  1
  Fe  Fe6  1  0.99633198  0.66603950  0.00129177  1
  Fe  Fe7  1  0.16459029  0.83424435  0.16416594  1
  Cr  Cr8  1  0.99700650  0.66984072  0.33131151  1
  Fe  Fe9  1  0.33209451  0.00178538  0.00136308  1
  Ni  Ni10  1  0.50045534  0.16587397  0.16541848  1
  Cr  Cr11  1  0.32902877  0.00073851  0.33155744  1
  Cr  Cr12  1  0.33262045  0.33353201  -0.00009732  1
  Ni  Ni13  1  0.49983580  0.50148657  0.16760376  1
  Ni  Ni14  1  0.33102848  0.33261088  0.33008636  1
  Ni  Ni15  1  0.33276930  0.66538754  -0.00001837  1
  Cr  Cr16  1  0.50047287  0.83311228  0.16523363  1
  Ni  Ni17  1  0.33349464  0.66735104  0.33256445  1
  Ni  Ni18  1  0.67160063  0.99951269  0.00194607  1
  Ni  Ni19  1  0.83514083  0.16487062  0.16565600  1
  Ni  Ni20  1  0.66926008  0.99793040  0.33244393  1
  Ni  Ni21  1  0.66690395  0.33371810  0.00311733  1
  Ni  Ni22  1  0.83194086  0.49980201  0.16526979  1
  Cr  Cr23  1  0.66917457  0.33184704  0.32912701  1
  Ni  Ni24  1  0.66613938  0.66634264  0.00115036  1
  Ni  Ni25  1  0.83286109  0.83414478  0.16520948  1
  Ni  Ni26  1  0.66652391  0.66834666  0.33262490  1
  Ni  Ni27  1  0.16218730  0.16414573  0.49981933  1
  Ni  Ni28  1  0.00112643  0.99892908  0.66428937  1
  Ni  Ni29  1  0.16391424  0.16521152  0.83238436  1
  Cr  Cr30  1  0.16292692  0.49741533  0.49805262  1
  Ni  Ni31  1  0.99956843  0.33188637  0.66606065  1
  Fe  Fe32  1  0.16433842  0.49918037  0.83463858  1
  Fe  Fe33  1  0.16457038  0.83402302  0.49957443  1
  Ni  Ni34  1  0.99879700  0.66774312  0.66724675  1
  Cr  Cr35  1  0.16389512  0.83465194  0.83642166  1
  Cr  Cr36  1  0.49986736  0.16400765  0.49920032  1
  Ni  Ni37  1  0.32878903  0.99938599  0.66607894  1
  Cr  Cr38  1  0.50186170  0.16557692  0.83366201  1
  Cr  Cr39  1  0.50109620  0.50064522  0.49517893  1
  Cr  Cr40  1  0.33269057  0.33214421  0.66928610  1
  Ni  Ni41  1  0.50125610  0.50096237  0.83538447  1
  Ni  Ni42  1  0.49850716  0.83363673  0.49735743  1
  Cr  Cr43  1  0.33190239  0.66731333  0.66688203  1
  Cr  Cr44  1  0.50156383  0.83404656  0.83598748  1
  Ni  Ni45  1  0.83772684  0.16702269  0.49936865  1
  Cr  Cr46  1  0.66940973  0.99850416  0.66367750  1
  Cr  Cr47  1  0.83580784  0.16469821  0.83330378  1
  Ni  Ni48  1  0.83553392  0.49897408  0.49953660  1
  Ni  Ni49  1  0.66945879  0.33395655  0.66585109  1
  Cr  Cr50  1  0.83361602  0.49884618  0.83433775  1
  Fe  Fe51  1  0.83419724  0.83403658  0.49801604  1
  Cr  Cr52  1  0.66816171  0.66582898  0.66437638  1
  Ni  Ni53  1  0.83520858  0.83186443  0.83446393  1
" 