2911,Ni56Fe11Cr32_2,-227.215511792445, 166.269299709989,Ni56Fe11Cr32,"# generated using pymatgen
 data_Cr3FeNi5
_symmetry_space_group_name_H-M   'P 1'
_cell_length_a   7.47734134
_cell_length_b   7.47734134
_cell_length_c   10.57455754
_cell_angle_alpha   90.00000000
_cell_angle_beta   90.00000000
_cell_angle_gamma   90.00000000
_symmetry_Int_Tables_number   1
_chemical_formula_structural   Cr3FeNi5
_chemical_formula_sum   'Cr18 Fe6 Ni30'
_cell_volume   591.23021196
_cell_formula_units_Z   6
loop_
 _symmetry_equiv_pos_site_id
 _symmetry_equiv_pos_as_xyz
  1  'x, y, z'
loop_
 _atom_site_type_symbol
 _atom_site_label
 _atom_site_symmetry_multiplicity
 _atom_site_fract_x
 _atom_site_fract_y
 _atom_site_fract_z
 _atom_site_occupancy
  Cr  Cr0  1  -0.00059926  0.00013981  0.00109017  1
  Ni  Ni1  1  0.16676552  0.17088219  0.16519689  1
  Cr  Cr2  1  0.99805458  0.00434796  0.33233225  1
  Ni  Ni3  1  0.99904415  0.33387329  0.00163666  1
  Ni  Ni4  1  0.16696503  0.49650001  0.16588261  1
  Ni  Ni5  1  0.00010097  0.33285626  0.33223683  1
  Ni  Ni6  1  0.00055678  0.66348569  0.00046943  1
  Cr  Cr7  1  0.16625161  0.83117539  0.16622621  1
  Cr  Cr8  1  -0.00067613  0.66063146  0.33301589  1
  Fe  Fe9  1  0.33120256  0.00131478  0.99903798  1
  Ni  Ni10  1  0.49741388  0.16876362  0.16647960  1
  Ni  Ni11  1  0.33341529  0.00268650  0.33307430  1
  Ni  Ni12  1  0.33278196  0.33310589  0.00330747  1
  Ni  Ni13  1  0.49791137  0.49822260  0.16496453  1
  Fe  Fe14  1  0.33139566  0.33123942  0.33150622  1
  Ni  Ni15  1  0.33211047  0.66525107  0.99853048  1
  Cr  Cr16  1  0.49851091  0.83089347  0.16820783  1
  Ni  Ni17  1  0.33166842  0.66416052  0.33377798  1
  Cr  Cr18  1  0.66422584  0.00153114  0.00426737  1
  Ni  Ni19  1  0.83306960  0.16880527  0.16653354  1
  Ni  Ni20  1  0.66407844  0.00220818  0.33088651  1
  Ni  Ni21  1  0.66645426  0.33356297  0.00051941  1
  Ni  Ni22  1  0.83308943  0.49801809  0.16226262  1
  Cr  Cr23  1  0.66852645  0.33072015  0.33226522  1
  Fe  Fe24  1  0.66686794  0.66332104  0.00090270  1
  Ni  Ni25  1  0.83100738  0.83042882  0.16724506  1
  Ni  Ni26  1  0.66604454  0.66379276  0.32918718  1
  Ni  Ni27  1  0.16532002  0.16623896  0.49961851  1
  Fe  Fe28  1  0.00289230  0.00000194  0.66487532  1
  Ni  Ni29  1  0.16543379  0.16536958  0.83332854  1
  Ni  Ni30  1  0.16379204  0.49601552  0.49549864  1
  Ni  Ni31  1  0.99813128  0.33118828  0.66405486  1
  Cr  Cr32  1  0.16479822  0.49513862  0.83639350  1
  Ni  Ni33  1  0.16809047  0.83545484  0.49951279  1
  Cr  Cr34  1  0.00148165  0.66321425  0.66410127  1
  Ni  Ni35  1  0.16806243  0.83433201  0.83367282  1
  Ni  Ni36  1  0.49931710  0.16379259  0.49919845  1
  Ni  Ni37  1  0.33313486  0.00023462  0.66793049  1
  Cr  Cr38  1  0.49829013  0.16665071  0.83277784  1
  Cr  Cr39  1  0.50006439  0.49940570  0.49736619  1
  Cr  Cr40  1  0.32938970  0.33057576  0.66182718  1
  Cr  Cr41  1  0.50207531  0.49958286  0.83402325  1
  Cr  Cr42  1  0.49963934  0.83371512  0.49687444  1
  Cr  Cr43  1  0.33165542  0.66864475  0.66519826  1
  Ni  Ni44  1  0.49860646  0.83252943  0.83309846  1
  Ni  Ni45  1  0.83333818  0.16803368  0.50171881  1
  Ni  Ni46  1  0.66367164  0.00018080  0.66384002  1
  Cr  Cr47  1  0.83503926  0.16979800  0.82913394  1
  Ni  Ni48  1  0.83323358  0.49643870  0.50215361  1
  Fe  Fe49  1  0.66628710  0.33291742  0.66392525  1
  Fe  Fe50  1  0.83398666  0.49870903  0.83381032  1
  Cr  Cr51  1  0.83080995  0.83403553  0.49706855  1
  Ni  Ni52  1  0.66776104  0.66679510  0.66804749  1
  Cr  Cr53  1  0.83229031  0.83191810  0.83273853  1
" 