816,Ni56Fe36Cr6_19,-238.207898925045, 213.051432020706,Ni56Fe36Cr6,"# generated using pymatgen
 data_Cr5Fe19Ni30
_symmetry_space_group_name_H-M   'P 1'
_cell_length_a   7.41764399
_cell_length_b   7.41764399
_cell_length_c   10.49013274
_cell_angle_alpha   90.00000000
_cell_angle_beta   90.00000000
_cell_angle_gamma   90.00000000
_symmetry_Int_Tables_number   1
_chemical_formula_structural   Cr5Fe19Ni30
_chemical_formula_sum   'Cr5 Fe19 Ni30'
_cell_volume   577.18223439
_cell_formula_units_Z   1
loop_
 _symmetry_equiv_pos_site_id
 _symmetry_equiv_pos_as_xyz
  1  'x, y, z'
loop_
 _atom_site_type_symbol
 _atom_site_label
 _atom_site_symmetry_multiplicity
 _atom_site_fract_x
 _atom_site_fract_y
 _atom_site_fract_z
 _atom_site_occupancy
  Fe  Fe0  1  1.00281191  0.00510944  0.00502190  1
  Fe  Fe1  1  0.16938166  0.16891411  0.17013489  1
  Ni  Ni2  1  1.00301791  1.00205253  0.33560318  1
  Ni  Ni3  1  0.00390566  0.33664795  0.00348792  1
  Fe  Fe4  1  0.16890037  0.50252554  0.17001048  1
  Fe  Fe5  1  0.00377634  0.33689761  0.33391896  1
  Fe  Fe6  1  0.00485937  0.67036596  0.00411072  1
  Ni  Ni7  1  0.17064373  0.83623980  0.16979587  1
  Ni  Ni8  1  1.00321724  0.67050990  0.33532053  1
  Ni  Ni9  1  0.33628424  0.00423752  1.00307445  1
  Ni  Ni10  1  0.50294710  0.17096440  0.16942080  1
  Ni  Ni11  1  0.33683099  0.00441296  0.33601373  1
  Fe  Fe12  1  0.33755892  0.33635947  0.00340143  1
  Fe  Fe13  1  0.50410584  0.50304988  0.16912951  1
  Ni  Ni14  1  0.33721342  0.33624616  0.33522399  1
  Fe  Fe15  1  0.33672017  0.67078784  1.00221276  1
  Fe  Fe16  1  0.50375926  0.83860232  0.16848877  1
  Fe  Fe17  1  0.33427696  0.67134705  0.33751845  1
  Ni  Ni18  1  0.66866625  1.00315952  0.00535491  1
  Ni  Ni19  1  0.83503865  0.17016306  0.17131090  1
  Fe  Fe20  1  0.67015303  0.00497431  0.33646335  1
  Fe  Fe21  1  0.67066958  0.33467494  1.00301933  1
  Ni  Ni22  1  0.83674575  0.50263092  0.16711245  1
  Fe  Fe23  1  0.66947524  0.33438703  0.33642688  1
  Ni  Ni24  1  0.67015099  0.66928636  1.00303194  1
  Ni  Ni25  1  0.83856886  0.83700500  0.16873107  1
  Cr  Cr26  1  0.67105479  0.67116052  0.33726818  1
  Cr  Cr27  1  0.17096713  0.17057978  0.50391510  1
  Fe  Fe28  1  1.00315522  1.00278369  0.66964403  1
  Fe  Fe29  1  0.17046424  0.16945270  0.83714821  1
  Ni  Ni30  1  0.17030738  0.50304716  0.50139301  1
  Fe  Fe31  1  0.00410393  0.33688106  0.67337928  1
  Ni  Ni32  1  0.17053267  0.50284378  0.83723435  1
  Ni  Ni33  1  0.16828178  0.83669582  0.50287699  1
  Ni  Ni34  1  0.00362932  0.66935409  0.67057588  1
  Ni  Ni35  1  0.17059711  0.83699997  0.83662773  1
  Ni  Ni36  1  0.50382217  0.17080831  0.50412540  1
  Ni  Ni37  1  0.33765805  0.00463932  0.67116418  1
  Fe  Fe38  1  0.50349886  0.16822613  0.83666314  1
  Ni  Ni39  1  0.50187002  0.49999073  0.50283661  1
  Ni  Ni40  1  0.33705609  0.33554825  0.67158662  1
  Ni  Ni41  1  0.50342269  0.50182351  0.83732493  1
  Ni  Ni42  1  0.50318173  0.83925456  0.50277963  1
  Cr  Cr43  1  0.33691619  0.67044022  0.66730841  1
  Ni  Ni44  1  0.50279512  0.83695890  0.83751885  1
  Fe  Fe45  1  0.83534442  0.16823563  0.50342099  1
  Ni  Ni46  1  0.66837752  0.00393529  0.66809957  1
  Ni  Ni47  1  0.83570988  0.17085035  0.83656455  1
  Cr  Cr48  1  0.83782536  0.50202474  0.50638180  1
  Ni  Ni49  1  0.66872443  0.33570969  0.67159998  1
  Fe  Fe50  1  0.83651442  0.50319816  0.83731947  1
  Ni  Ni51  1  0.83808699  0.83836142  0.50402895  1
  Ni  Ni52  1  0.67024642  0.67005075  0.67066549  1
  Cr  Cr53  1  0.83600428  0.83842154  0.83703719  1
" 