2301,Ni56Fe22Cr21_9,-231.817367336337, 186.748225001152,Ni56Fe22Cr21,"# generated using pymatgen
 data_Cr13Fe11Ni30
_symmetry_space_group_name_H-M   'P 1'
_cell_length_a   7.45024044
_cell_length_b   7.45024044
_cell_length_c   10.53623108
_cell_angle_alpha   90.00000000
_cell_angle_beta   90.00000000
_cell_angle_gamma   90.00000000
_symmetry_Int_Tables_number   1
_chemical_formula_structural   Cr13Fe11Ni30
_chemical_formula_sum   'Cr13 Fe11 Ni30'
_cell_volume   584.82491316
_cell_formula_units_Z   1
loop_
 _symmetry_equiv_pos_site_id
 _symmetry_equiv_pos_as_xyz
  1  'x, y, z'
loop_
 _atom_site_type_symbol
 _atom_site_label
 _atom_site_symmetry_multiplicity
 _atom_site_fract_x
 _atom_site_fract_y
 _atom_site_fract_z
 _atom_site_occupancy
  Ni  Ni0  1  0.00154608  0.00162845  1.00106505  1
  Ni  Ni1  1  0.16702279  0.16702568  0.16857962  1
  Ni  Ni2  1  0.00271150  0.00237977  0.33513788  1
  Ni  Ni3  1  1.00080945  0.33361382  0.00191954  1
  Ni  Ni4  1  0.16322958  0.49895139  0.16996741  1
  Fe  Fe5  1  0.00139592  0.33165736  0.33403622  1
  Cr  Cr6  1  0.00258651  0.66720933  0.99958915  1
  Ni  Ni7  1  0.16813888  0.83705911  0.16791438  1
  Fe  Fe8  1  1.00098225  0.66974884  0.33448950  1
  Ni  Ni9  1  0.33268018  0.99921123  0.00431925  1
  Ni  Ni10  1  0.49976287  0.16358549  0.17061853  1
  Ni  Ni11  1  0.33268081  0.00223325  0.33408211  1
  Cr  Cr12  1  0.33359952  0.33676520  0.00270775  1
  Cr  Cr13  1  0.50319942  0.50137815  0.16964982  1
  Fe  Fe14  1  0.33533083  0.33105700  0.33565683  1
  Fe  Fe15  1  0.33207196  0.66871414  0.00151079  1
  Ni  Ni16  1  0.50022651  0.83899389  0.16771696  1
  Cr  Cr17  1  0.33321703  0.66747322  0.33262936  1
  Ni  Ni18  1  0.66904589  0.00219801  0.00183705  1
  Fe  Fe19  1  0.83586305  0.16758576  0.16809137  1
  Ni  Ni20  1  0.66808922  0.00390951  0.33479579  1
  Cr  Cr21  1  0.67067948  0.33362830  1.00031111  1
  Ni  Ni22  1  0.83775620  0.49897943  0.17039589  1
  Ni  Ni23  1  0.66764137  0.33269548  0.33412577  1
  Cr  Cr24  1  0.66727648  0.66691635  1.00018513  1
  Cr  Cr25  1  0.83324521  0.83423631  0.17027740  1
  Ni  Ni26  1  0.66761455  0.66707340  0.33449708  1
  Ni  Ni27  1  0.16811517  0.16818529  0.50043954  1
  Cr  Cr28  1  1.00063629  1.00065126  0.66760566  1
  Cr  Cr29  1  0.16747300  0.16853366  0.83531423  1
  Fe  Fe30  1  0.16998825  0.49941719  0.50282382  1
  Ni  Ni31  1  0.00119191  0.33467150  0.66831065  1
  Ni  Ni32  1  0.16612329  0.50149835  0.83153946  1
  Fe  Fe33  1  0.16836135  0.83433705  0.50090117  1
  Ni  Ni34  1  0.00232884  0.66856337  0.66710480  1
  Ni  Ni35  1  0.16757391  0.83365631  0.83421765  1
  Ni  Ni36  1  0.49953978  0.16843568  0.50105665  1
  Fe  Fe37  1  0.33291916  0.00121464  0.66568812  1
  Cr  Cr38  1  0.50006359  0.16770046  0.83177983  1
  Ni  Ni39  1  0.50259554  0.49943715  0.50203880  1
  Ni  Ni40  1  0.33524524  0.33686650  0.66452151  1
  Ni  Ni41  1  0.50060861  0.50219688  0.83050980  1
  Cr  Cr42  1  0.50317040  0.83430183  0.50154057  1
  Ni  Ni43  1  0.33345069  0.66561680  0.66961755  1
  Cr  Cr44  1  0.49969779  0.83534855  0.83523235  1
  Fe  Fe45  1  0.83245421  0.16886394  0.50121846  1
  Fe  Fe46  1  0.66930406  0.00231306  0.66715268  1
  Ni  Ni47  1  0.83540685  0.16825388  0.83472655  1
  Cr  Cr48  1  0.83525739  0.50295527  0.50054973  1
  Ni  Ni49  1  0.66729000  0.33491558  0.66834285  1
  Ni  Ni50  1  0.83650106  0.50052144  0.83172856  1
  Fe  Fe51  1  0.83442231  0.83593414  0.50005317  1
  Ni  Ni52  1  0.66814687  0.66609453  0.66862758  1
  Ni  Ni53  1  0.83464078  0.83451773  0.83216142  1
" 