906,Ni56Fe22Cr21_13,-231.952715157238, 184.945162980495,Ni56Fe22Cr21,"# generated using pymatgen
 data_Cr13Fe11Ni30
_symmetry_space_group_name_H-M   'P 1'
_cell_length_a   7.45787738
_cell_length_b   7.45787738
_cell_length_c   10.54703133
_cell_angle_alpha   90.00000000
_cell_angle_beta   90.00000000
_cell_angle_gamma   90.00000000
_symmetry_Int_Tables_number   1
_chemical_formula_structural   Cr13Fe11Ni30
_chemical_formula_sum   'Cr13 Fe11 Ni30'
_cell_volume   586.62519667
_cell_formula_units_Z   1
loop_
 _symmetry_equiv_pos_site_id
 _symmetry_equiv_pos_as_xyz
  1  'x, y, z'
loop_
 _atom_site_type_symbol
 _atom_site_label
 _atom_site_symmetry_multiplicity
 _atom_site_fract_x
 _atom_site_fract_y
 _atom_site_fract_z
 _atom_site_occupancy
  Cr  Cr0  1  0.99880611  1.00015029  1.00004879  1
  Cr  Cr1  1  0.16771975  0.16883243  0.16797302  1
  Ni  Ni2  1  0.00200924  0.00156818  0.33516522  1
  Ni  Ni3  1  0.99820699  0.33624912  0.00166695  1
  Ni  Ni4  1  0.16472903  0.50213186  0.16572004  1
  Ni  Ni5  1  0.99863460  0.33475888  0.33449932  1
  Fe  Fe6  1  1.00034996  0.66554618  0.99996537  1
  Ni  Ni7  1  0.16738813  0.83150817  0.16875195  1
  Ni  Ni8  1  0.00208327  0.66546735  0.33319465  1
  Cr  Cr9  1  0.33623430  0.99713847  0.00084547  1
  Ni  Ni10  1  0.50160046  0.16534463  0.16470132  1
  Ni  Ni11  1  0.33365876  0.99655709  0.33360261  1
  Ni  Ni12  1  0.33480605  0.33668657  0.99952925  1
  Cr  Cr13  1  0.50046387  0.50199479  0.16725526  1
  Cr  Cr14  1  0.33185418  0.33501801  0.33395027  1
  Ni  Ni15  1  0.33395056  0.66678146  0.00114402  1
  Ni  Ni16  1  0.50114558  0.83465199  0.16824825  1
  Ni  Ni17  1  0.33243677  0.67166534  0.33331214  1
  Ni  Ni18  1  0.66717978  0.00078069  0.00080769  1
  Fe  Fe19  1  0.83337658  0.16837504  0.16613981  1
  Fe  Fe20  1  0.66598769  0.99989917  0.33315446  1
  Ni  Ni21  1  0.66885657  0.33391787  0.99973453  1
  Ni  Ni22  1  0.83613056  0.50147445  0.16606433  1
  Cr  Cr23  1  0.67197169  0.33428329  0.33302019  1
  Ni  Ni24  1  0.66603033  0.66715238  0.99908493  1
  Cr  Cr25  1  0.83324706  0.83183362  0.16811349  1
  Ni  Ni26  1  0.66734306  0.66811603  0.33447874  1
  Fe  Fe27  1  0.16603815  0.16545756  0.50073029  1
  Ni  Ni28  1  0.00087427  0.99912138  0.66688020  1
  Cr  Cr29  1  0.16875127  0.16888572  0.83236418  1
  Ni  Ni30  1  0.16480531  0.50026315  0.49996732  1
  Cr  Cr31  1  0.99855971  0.33511074  0.66508726  1
  Fe  Fe32  1  0.16653452  0.50153493  0.83524517  1
  Fe  Fe33  1  0.16747353  0.83318175  0.49946649  1
  Ni  Ni34  1  0.99990085  0.66828486  0.66891463  1
  Fe  Fe35  1  0.16581022  0.83237070  0.83363429  1
  Cr  Cr36  1  0.49897053  0.16543784  0.50374343  1
  Ni  Ni37  1  0.33382278  0.99925464  0.66721799  1
  Fe  Fe38  1  0.50373555  0.16814579  0.83373680  1
  Cr  Cr39  1  0.50174982  0.50309907  0.50109154  1
  Ni  Ni40  1  0.33460745  0.33376917  0.66838279  1
  Ni  Ni41  1  0.50055936  0.49970947  0.83383604  1
  Ni  Ni42  1  0.50139092  0.83564170  0.49994147  1
  Cr  Cr43  1  0.33364657  0.66834817  0.66677410  1
  Fe  Fe44  1  0.50379471  0.83358663  0.83380023  1
  Fe  Fe45  1  0.83422069  0.16713192  0.50171180  1
  Ni  Ni46  1  0.66741745  1.00026838  0.66895381  1
  Ni  Ni47  1  0.83286562  0.16508248  0.83382919  1
  Ni  Ni48  1  0.83627979  0.50294906  0.50164218  1
  Ni  Ni49  1  0.66797211  0.33440228  0.66936489  1
  Fe  Fe50  1  0.83227184  0.50063015  0.83454827  1
  Cr  Cr51  1  0.83347200  0.83304013  0.50100144  1
  Ni  Ni52  1  0.66830957  0.66716547  0.66833395  1
  Ni  Ni53  1  0.83316380  0.83344279  0.83282747  1
" 