6032,Ni56Fe36Cr6_14,-238.438268743883, 213.669357044061,Ni56Fe36Cr6,"# generated using pymatgen
 data_Cr5Fe19Ni30
_symmetry_space_group_name_H-M   'P 1'
_cell_length_a   7.41835328
_cell_length_b   7.41835328
_cell_length_c   10.49113581
_cell_angle_alpha   90.00000000
_cell_angle_beta   90.00000000
_cell_angle_gamma   90.00000000
_symmetry_Int_Tables_number   1
_chemical_formula_structural   Cr5Fe19Ni30
_chemical_formula_sum   'Cr5 Fe19 Ni30'
_cell_volume   577.34782239
_cell_formula_units_Z   1
loop_
 _symmetry_equiv_pos_site_id
 _symmetry_equiv_pos_as_xyz
  1  'x, y, z'
loop_
 _atom_site_type_symbol
 _atom_site_label
 _atom_site_symmetry_multiplicity
 _atom_site_fract_x
 _atom_site_fract_y
 _atom_site_fract_z
 _atom_site_occupancy
  Cr  Cr0  1  1.00266629  1.00138008  1.00305316  1
  Fe  Fe1  1  0.17144581  0.17135957  0.17070293  1
  Ni  Ni2  1  1.00291992  1.00228368  0.33666374  1
  Fe  Fe3  1  1.00304572  0.33723153  0.00360734  1
  Ni  Ni4  1  0.16785395  0.50403293  0.17028601  1
  Ni  Ni5  1  1.00311490  0.33578483  0.33493333  1
  Ni  Ni6  1  1.00174158  0.66924207  0.00381358  1
  Fe  Fe7  1  0.17105799  0.83565769  0.17078981  1
  Ni  Ni8  1  1.00238235  0.67164584  0.33545138  1
  Ni  Ni9  1  0.33761079  0.00533154  0.00329742  1
  Ni  Ni10  1  0.50495977  0.16702732  0.17076457  1
  Fe  Fe11  1  0.33691810  1.00316512  0.33644272  1
  Ni  Ni12  1  0.33806541  0.33516523  1.00260862  1
  Cr  Cr13  1  0.50318767  0.50418408  0.17012315  1
  Ni  Ni14  1  0.33769272  0.33534207  0.33541151  1
  Fe  Fe15  1  0.33547160  0.67091880  1.00323784  1
  Ni  Ni16  1  0.50311527  0.83860503  0.17093747  1
  Ni  Ni17  1  0.33646651  0.67023257  0.33690818  1
  Fe  Fe18  1  0.66830141  0.00440075  0.00351531  1
  Ni  Ni19  1  0.83609118  0.17030998  0.17129181  1
  Ni  Ni20  1  0.67074422  1.00326408  0.33573603  1
  Ni  Ni21  1  0.66875551  0.33635422  1.00167411  1
  Ni  Ni22  1  0.83865371  0.50225673  0.17134648  1
  Ni  Ni23  1  0.66892002  0.33608848  0.33820839  1
  Fe  Fe24  1  0.67035380  0.67051654  1.00250525  1
  Fe  Fe25  1  0.83497109  0.83534952  0.17132959  1
  Ni  Ni26  1  0.67095850  0.67055857  0.33689686  1
  Ni  Ni27  1  0.16735927  0.16739793  0.50165878  1
  Ni  Ni28  1  0.00352640  1.00302836  0.67016783  1
  Ni  Ni29  1  0.16857061  0.16982362  0.83665658  1
  Cr  Cr30  1  0.16996548  0.50221292  0.50147891  1
  Fe  Fe31  1  1.00177289  0.33357877  0.67002010  1
  Ni  Ni32  1  0.16930174  0.50351612  0.83824117  1
  Fe  Fe33  1  0.17087303  0.83868293  0.50219776  1
  Cr  Cr34  1  1.00214044  0.67089420  0.67045418  1
  Fe  Fe35  1  0.17237679  0.83714540  0.83684081  1
  Fe  Fe36  1  0.50300086  0.16963906  0.50251905  1
  Ni  Ni37  1  0.33610093  0.00453143  0.66979177  1
  Ni  Ni38  1  0.50441321  0.16712770  0.83716269  1
  Ni  Ni39  1  0.50536276  0.50620954  0.50265445  1
  Cr  Cr40  1  0.33907003  0.33598685  0.67221764  1
  Ni  Ni41  1  0.50373991  0.50616376  0.83690326  1
  Fe  Fe42  1  0.50351431  0.83734416  0.50338264  1
  Fe  Fe43  1  0.33928509  0.67293260  0.67002560  1
  Ni  Ni44  1  0.50310510  0.83723938  0.83608945  1
  Fe  Fe45  1  0.83651332  0.16956320  0.50273624  1
  Ni  Ni46  1  0.67008382  1.00261831  0.67116149  1
  Ni  Ni47  1  0.83676528  0.16975277  0.83501742  1
  Fe  Fe48  1  0.83501266  0.50233284  0.50180912  1
  Fe  Fe49  1  0.67119330  0.33621000  0.67065560  1
  Ni  Ni50  1  0.83685326  0.50197407  0.83681023  1
  Fe  Fe51  1  0.83553907  0.83789418  0.50260197  1
  Ni  Ni52  1  0.67010231  0.66923372  0.67014605  1
  Fe  Fe53  1  0.83422131  0.83650627  0.83629155  1
" 