8740,Ni56Fe36Cr6_16,-238.591038713372, 211.772026328445,Ni56Fe36Cr6,"# generated using pymatgen
 data_Cr5Fe19Ni30
_symmetry_space_group_name_H-M   'P 1'
_cell_length_a   7.42349368
_cell_length_b   7.42349368
_cell_length_c   10.49840545
_cell_angle_alpha   90.00000000
_cell_angle_beta   90.00000000
_cell_angle_gamma   90.00000000
_symmetry_Int_Tables_number   1
_chemical_formula_structural   Cr5Fe19Ni30
_chemical_formula_sum   'Cr5 Fe19 Ni30'
_cell_volume   578.54884071
_cell_formula_units_Z   1
loop_
 _symmetry_equiv_pos_site_id
 _symmetry_equiv_pos_as_xyz
  1  'x, y, z'
loop_
 _atom_site_type_symbol
 _atom_site_label
 _atom_site_symmetry_multiplicity
 _atom_site_fract_x
 _atom_site_fract_y
 _atom_site_fract_z
 _atom_site_occupancy
  Fe  Fe0  1  0.00341469  0.00378028  1.00241085  1
  Fe  Fe1  1  0.17014601  0.17116681  0.16938467  1
  Cr  Cr2  1  0.00345384  0.00353617  0.33683748  1
  Ni  Ni3  1  1.00235409  0.33628858  0.00383742  1
  Ni  Ni4  1  0.16902535  0.50239870  0.16854602  1
  Ni  Ni5  1  0.00406052  0.33711529  0.33484237  1
  Fe  Fe6  1  0.00546301  0.66846419  0.00346466  1
  Fe  Fe7  1  0.17115076  0.83597385  0.16773411  1
  Cr  Cr8  1  0.00307430  0.66889847  0.33600587  1
  Ni  Ni9  1  0.33599036  1.00214802  1.00261784  1
  Fe  Fe10  1  0.50324132  0.17023922  0.16988601  1
  Ni  Ni11  1  0.33852852  0.00299284  0.33735103  1
  Ni  Ni12  1  0.33587499  0.33629183  1.00279432  1
  Fe  Fe13  1  0.50259527  0.50172872  0.16998895  1
  Ni  Ni14  1  0.33656394  0.33634386  0.33668141  1
  Ni  Ni15  1  0.33510807  0.67035881  0.00348988  1
  Ni  Ni16  1  0.50142324  0.83746438  0.17042366  1
  Fe  Fe17  1  0.33772378  0.66952827  0.33636622  1
  Fe  Fe18  1  0.66851420  0.00540652  1.00273447  1
  Ni  Ni19  1  0.83516826  0.17212142  0.16903841  1
  Ni  Ni20  1  0.66729750  1.00172328  0.33525169  1
  Ni  Ni21  1  0.67057340  0.33540848  1.00265767  1
  Ni  Ni22  1  0.83782507  0.49952609  0.16951759  1
  Ni  Ni23  1  0.66817399  0.33653459  0.33476230  1
  Cr  Cr24  1  0.66924242  0.66944203  0.00315436  1
  Fe  Fe25  1  0.83534552  0.83661949  0.16971387  1
  Fe  Fe26  1  0.66738397  0.67052055  0.33535578  1
  Ni  Ni27  1  0.17212815  0.17088090  0.50371656  1
  Ni  Ni28  1  1.00268158  1.00203901  0.66963846  1
  Fe  Fe29  1  0.17012852  0.16887203  0.83564569  1
  Ni  Ni30  1  0.17109938  0.50229875  0.50362820  1
  Ni  Ni31  1  0.00446448  0.33613927  0.67012001  1
  Fe  Fe32  1  0.17046124  0.50257291  0.83633295  1
  Ni  Ni33  1  0.17244712  0.83562318  0.50409808  1
  Fe  Fe34  1  0.00485355  0.67119498  0.66960805  1
  Ni  Ni35  1  0.17110688  0.83496623  0.83688416  1
  Ni  Ni36  1  0.50130596  0.16818505  0.50245835  1
  Ni  Ni37  1  0.33645551  1.00227762  0.66883376  1
  Ni  Ni38  1  0.50435532  0.16893742  0.83703453  1
  Fe  Fe39  1  0.50041382  0.50284132  0.50297122  1
  Ni  Ni40  1  0.33562560  0.33685364  0.66932630  1
  Fe  Fe41  1  0.50171801  0.50208789  0.83583761  1
  Ni  Ni42  1  0.50206313  0.83723640  0.50294504  1
  Ni  Ni43  1  0.33662103  0.66966606  0.66907183  1
  Ni  Ni44  1  0.50072864  0.83760185  0.83542983  1
  Cr  Cr45  1  0.83549054  0.16970634  0.50319105  1
  Ni  Ni46  1  0.66966378  1.00104302  0.67034644  1
  Ni  Ni47  1  0.83520409  0.17106147  0.83641257  1
  Cr  Cr48  1  0.83726028  0.50207250  0.50316514  1
  Fe  Fe49  1  0.66759618  0.33480246  0.67146689  1
  Fe  Fe50  1  0.83662213  0.50156878  0.83615441  1
  Ni  Ni51  1  0.83428853  0.83620646  0.50448419  1
  Fe  Fe52  1  0.66839717  0.67137830  0.67021675  1
  Fe  Fe53  1  0.83651305  0.83827543  0.83454305  1
" 