7116,Ni56Fe40Cr3_8,-240.521609389581, 219.042022553831,Ni56Fe40Cr3,"# generated using pymatgen
 data_CrFe7Ni10
_symmetry_space_group_name_H-M   'P 1'
_cell_length_a   7.41578165
_cell_length_b   7.41578165
_cell_length_c   10.48749898
_cell_angle_alpha   90.00000000
_cell_angle_beta   90.00000000
_cell_angle_gamma   90.00000000
_symmetry_Int_Tables_number   1
_chemical_formula_structural   CrFe7Ni10
_chemical_formula_sum   'Cr3 Fe21 Ni30'
_cell_volume   576.74760492
_cell_formula_units_Z   3
loop_
 _symmetry_equiv_pos_site_id
 _symmetry_equiv_pos_as_xyz
  1  'x, y, z'
loop_
 _atom_site_type_symbol
 _atom_site_label
 _atom_site_symmetry_multiplicity
 _atom_site_fract_x
 _atom_site_fract_y
 _atom_site_fract_z
 _atom_site_occupancy
  Ni  Ni0  1  0.00415619  0.00388427  1.00237514  1
  Fe  Fe1  1  0.16857464  0.16818827  0.16850047  1
  Ni  Ni2  1  1.00276400  0.00448656  0.33756556  1
  Ni  Ni3  1  0.00394254  0.33600902  1.00280821  1
  Cr  Cr4  1  0.16893524  0.50354507  0.17012715  1
  Ni  Ni5  1  1.00259528  0.33654329  0.33836096  1
  Ni  Ni6  1  1.00267505  0.67063160  0.00397670  1
  Fe  Fe7  1  0.16890044  0.83926284  0.16942659  1
  Fe  Fe8  1  1.00124537  0.67146824  0.33829227  1
  Ni  Ni9  1  0.33726703  0.00395883  1.00309467  1
  Ni  Ni10  1  0.50487658  0.16978816  0.16881688  1
  Cr  Cr11  1  0.33714068  0.00346200  0.33698261  1
  Fe  Fe12  1  0.33732117  0.33527024  1.00247462  1
  Fe  Fe13  1  0.50660687  0.50379771  0.17028832  1
  Fe  Fe14  1  0.33841144  0.33686931  0.33777455  1
  Fe  Fe15  1  0.33722787  0.67239570  1.00281601  1
  Ni  Ni16  1  0.50492664  0.83698761  0.16941519  1
  Fe  Fe17  1  0.33808733  0.66952687  0.33799907  1
  Ni  Ni18  1  0.66885082  1.00252458  1.00338074  1
  Ni  Ni19  1  0.83608581  0.16945760  0.16955201  1
  Ni  Ni20  1  0.67065858  1.00321594  0.33707014  1
  Fe  Fe21  1  0.67051994  0.33460640  0.00456372  1
  Fe  Fe22  1  0.83412892  0.50340048  0.17029304  1
  Ni  Ni23  1  0.67093543  0.33787054  0.33668139  1
  Ni  Ni24  1  0.66953266  0.67065781  0.00350158  1
  Ni  Ni25  1  0.83584239  0.83742132  0.17022886  1
  Ni  Ni26  1  0.66995884  0.66938449  0.33782539  1
  Fe  Fe27  1  0.16870037  0.16979424  0.50472307  1
  Fe  Fe28  1  1.00293216  1.00263584  0.67009757  1
  Ni  Ni29  1  0.17085710  0.17144290  0.83722444  1
  Ni  Ni30  1  0.16970173  0.50368893  0.50401001  1
  Fe  Fe31  1  0.00397712  0.33511409  0.66929336  1
  Fe  Fe32  1  0.17126778  0.50342787  0.83666120  1
  Ni  Ni33  1  0.16991630  0.83399264  0.50365690  1
  Ni  Ni34  1  0.00398536  0.66914902  0.66896600  1
  Fe  Fe35  1  0.16948902  0.83851900  0.83626937  1
  Ni  Ni36  1  0.50465934  0.17008741  0.50389596  1
  Ni  Ni37  1  0.33786204  0.00402352  0.67012570  1
  Ni  Ni38  1  0.50281153  0.16885867  0.83755791  1
  Fe  Fe39  1  0.50459453  0.50397942  0.50302484  1
  Fe  Fe40  1  0.33692455  0.33599112  0.67021767  1
  Fe  Fe41  1  0.50297830  0.50302772  0.83708933  1
  Ni  Ni42  1  0.50386264  0.83735364  0.50387020  1
  Fe  Fe43  1  0.33685345  0.67163593  0.66954795  1
  Ni  Ni44  1  0.50328484  0.83757990  0.83710101  1
  Ni  Ni45  1  0.83543764  0.17036044  0.50356604  1
  Ni  Ni46  1  0.66826379  0.00366689  0.66988108  1
  Ni  Ni47  1  0.83666651  0.16856860  0.83717174  1
  Ni  Ni48  1  0.83900235  0.50319076  0.50214383  1
  Fe  Fe49  1  0.66973060  0.33509093  0.66879795  1
  Cr  Cr50  1  0.83850705  0.50384043  0.83804450  1
  Ni  Ni51  1  0.83644775  0.83681965  0.50338045  1
  Fe  Fe52  1  0.66982321  0.67241348  0.66930584  1
  Ni  Ni53  1  0.83594862  0.83778562  0.83683767  1
" 