5575,Ni56Cr44_11,-216.930402132018, 135.60054267176,Ni56Cr44,"# generated using pymatgen
 data_Cr5Ni4
_symmetry_space_group_name_H-M   'P 1'
_cell_length_a   7.53457453
_cell_length_b   7.53457453
_cell_length_c   10.65549749
_cell_angle_alpha   90.00000000
_cell_angle_beta   90.00000000
_cell_angle_gamma   90.00000000
_symmetry_Int_Tables_number   1
_chemical_formula_structural   Cr5Ni4
_chemical_formula_sum   'Cr30 Ni24'
_cell_volume   604.91060376
_cell_formula_units_Z   6
loop_
 _symmetry_equiv_pos_site_id
 _symmetry_equiv_pos_as_xyz
  1  'x, y, z'
loop_
 _atom_site_type_symbol
 _atom_site_label
 _atom_site_symmetry_multiplicity
 _atom_site_fract_x
 _atom_site_fract_y
 _atom_site_fract_z
 _atom_site_occupancy
  Cr  Cr0  1  0.99257126  -0.00361277  0.99343853  1
  Cr  Cr1  1  0.16517562  0.16281774  0.16653160  1
  Cr  Cr2  1  -0.00406202  0.99452325  0.33056414  1
  Cr  Cr3  1  0.99443622  0.32519167  0.99227760  1
  Cr  Cr4  1  0.16483980  0.49428471  0.16206050  1
  Ni  Ni5  1  0.99372278  0.32998348  0.33100086  1
  Cr  Cr6  1  -0.00405481  0.66487229  -0.00445938  1
  Cr  Cr7  1  0.16326635  0.83088478  0.16012826  1
  Cr  Cr8  1  0.99467201  0.66384041  0.33228227  1
  Ni  Ni9  1  0.33055272  -0.00242346  0.99345197  1
  Ni  Ni10  1  0.49626874  0.16231888  0.16362518  1
  Ni  Ni11  1  0.33399355  -0.00328870  0.32993440  1
  Cr  Cr12  1  0.33364403  0.32838219  -0.00416087  1
  Ni  Ni13  1  0.49650296  0.49437572  0.16460590  1
  Ni  Ni14  1  0.33331499  0.32705995  0.32643816  1
  Ni  Ni15  1  0.33035675  0.66544559  -0.00439069  1
  Cr  Cr16  1  0.49618915  0.83159963  0.16199101  1
  Cr  Cr17  1  0.33244167  0.66320443  0.33017949  1
  Ni  Ni18  1  0.65858319  -0.00389682  -0.00402393  1
  Cr  Cr19  1  0.82600942  0.15975945  0.16536532  1
  Ni  Ni20  1  0.65783344  0.99541796  0.32748732  1
  Cr  Cr21  1  0.66100266  0.32424403  0.99478240  1
  Cr  Cr22  1  0.82948946  0.49541761  0.16607355  1
  Ni  Ni23  1  0.65950192  0.32970489  0.32820076  1
  Cr  Cr24  1  0.66014490  0.65998502  -0.00053725  1
  Ni  Ni25  1  0.82469286  0.83001114  0.16430756  1
  Ni  Ni26  1  0.66139874  0.66188616  0.33001526  1
  Cr  Cr27  1  0.16742241  0.16249312  0.49246882  1
  Cr  Cr28  1  -0.00130654  0.99508739  0.66281458  1
  Ni  Ni29  1  0.16587790  0.15910933  0.82785289  1
  Cr  Cr30  1  0.16256303  0.49098233  0.49414464  1
  Cr  Cr31  1  0.99491486  0.32592285  0.66316778  1
  Cr  Cr32  1  0.16453952  0.49718397  0.83025064  1
  Ni  Ni33  1  0.16713751  0.83223104  0.49535091  1
  Cr  Cr34  1  0.99525664  0.66469522  0.65821655  1
  Ni  Ni35  1  0.16490297  0.83343985  0.82991775  1
  Cr  Cr36  1  0.49614077  0.15899284  0.49610689  1
  Ni  Ni37  1  0.33190561  -0.00302144  0.66262729  1
  Ni  Ni38  1  0.49594308  0.15997091  0.82720748  1
  Cr  Cr39  1  0.49726442  0.49256198  0.49721848  1
  Ni  Ni40  1  0.33124483  0.32455850  0.66530857  1
  Cr  Cr41  1  0.49623406  0.49649103  0.82618390  1
  Ni  Ni42  1  0.49509609  0.82990970  0.49564419  1
  Cr  Cr43  1  0.32827522  0.66579421  0.66012563  1
  Cr  Cr44  1  0.49453080  0.83083614  0.82796397  1
  Cr  Cr45  1  0.82527117  0.16550878  0.49454125  1
  Ni  Ni46  1  0.65902946  -0.00368424  0.66323511  1
  Ni  Ni47  1  0.82468671  0.15834422  0.82646573  1
  Ni  Ni48  1  0.82484213  0.49533581  0.49481028  1
  Ni  Ni49  1  0.66017895  0.32674889  0.66323002  1
  Cr  Cr50  1  0.82726243  0.49451319  0.82415234  1
  Cr  Cr51  1  0.82160692  0.83103511  0.49500262  1
  Ni  Ni52  1  0.66056494  0.66231252  0.65780428  1
  Cr  Cr53  1  0.82414436  0.82867606  0.82903610  1
" 