3351,Ni56Fe20Cr22_9,-230.843193687324, 181.767569470472,Ni56Fe20Cr22,"# generated using pymatgen
 data_Cr7(FeNi3)5
_symmetry_space_group_name_H-M   'P 1'
_cell_length_a   7.45778570
_cell_length_b   7.45778570
_cell_length_c   10.54690169
_cell_angle_alpha   90.00000000
_cell_angle_beta   90.00000000
_cell_angle_gamma   90.00000000
_symmetry_Int_Tables_number   1
_chemical_formula_structural   Cr7(FeNi3)5
_chemical_formula_sum   'Cr14 Fe10 Ni30'
_cell_volume   586.60356455
_cell_formula_units_Z   2
loop_
 _symmetry_equiv_pos_site_id
 _symmetry_equiv_pos_as_xyz
  1  'x, y, z'
loop_
 _atom_site_type_symbol
 _atom_site_label
 _atom_site_symmetry_multiplicity
 _atom_site_fract_x
 _atom_site_fract_y
 _atom_site_fract_z
 _atom_site_occupancy
  Cr  Cr0  1  0.00144157  0.00122882  0.00083666  1
  Ni  Ni1  1  0.16720156  0.16764484  0.16788349  1
  Ni  Ni2  1  0.00240735  1.00028037  0.33386734  1
  Ni  Ni3  1  0.00243042  0.33604701  1.00036601  1
  Ni  Ni4  1  0.16743217  0.50089621  0.16652846  1
  Cr  Cr5  1  1.00013200  0.33477019  0.33422363  1
  Ni  Ni6  1  1.00015141  0.66459567  0.00080216  1
  Fe  Fe7  1  0.16694148  0.83302604  0.16863139  1
  Ni  Ni8  1  0.00314061  0.66739527  0.33320759  1
  Fe  Fe9  1  0.33276605  1.00009450  0.99964095  1
  Cr  Cr10  1  0.49998692  0.16822853  0.16800497  1
  Ni  Ni11  1  0.33293379  0.99900988  0.33378360  1
  Ni  Ni12  1  0.33214102  0.33480025  0.99946986  1
  Ni  Ni13  1  0.49989618  0.50112368  0.16712755  1
  Fe  Fe14  1  0.33299342  0.33420580  0.33254351  1
  Fe  Fe15  1  0.33410231  0.66653672  1.00044231  1
  Ni  Ni16  1  0.49993742  0.83276291  0.16810811  1
  Fe  Fe17  1  0.33186926  0.66889000  0.33373617  1
  Cr  Cr18  1  0.66626792  0.99888406  1.00039437  1
  Ni  Ni19  1  0.83509695  0.16760055  0.16922013  1
  Ni  Ni20  1  0.66652259  0.00132443  0.33368056  1
  Fe  Fe21  1  0.66885434  0.33705473  1.00005457  1
  Ni  Ni22  1  0.83453367  0.50126987  0.16598939  1
  Ni  Ni23  1  0.66813554  0.33311385  0.33278762  1
  Ni  Ni24  1  0.66713341  0.66612522  0.99985720  1
  Ni  Ni25  1  0.83486958  0.83299263  0.16837215  1
  Cr  Cr26  1  0.66731461  0.66731446  0.33278196  1
  Fe  Fe27  1  0.16614674  0.16553787  0.49888352  1
  Fe  Fe28  1  0.99945396  0.00076965  0.66846693  1
  Ni  Ni29  1  0.16776991  0.16684014  0.83451207  1
  Ni  Ni30  1  0.16600567  0.50155406  0.49895126  1
  Cr  Cr31  1  0.00112397  0.33337907  0.66715341  1
  Fe  Fe32  1  0.16705549  0.50024116  0.83720816  1
  Ni  Ni33  1  0.16729470  0.83443942  0.49763315  1
  Cr  Cr34  1  0.99967348  0.66672114  0.66795526  1
  Ni  Ni35  1  0.16687724  0.83500149  0.83521915  1
  Cr  Cr36  1  0.50155360  0.16551202  0.49821535  1
  Cr  Cr37  1  0.33448210  0.99958876  0.66927380  1
  Ni  Ni38  1  0.49978711  0.16771998  0.83514627  1
  Cr  Cr39  1  0.50084680  0.50121753  0.49910539  1
  Cr  Cr40  1  0.33169632  0.33388048  0.66812381  1
  Ni  Ni41  1  0.50195267  0.50079622  0.83558372  1
  Ni  Ni42  1  0.49960577  0.83554518  0.50062539  1
  Cr  Cr43  1  0.33532066  0.66839450  0.66752788  1
  Ni  Ni44  1  0.50145442  0.83334724  0.83313287  1
  Fe  Fe45  1  0.83428065  0.16639371  0.49944588  1
  Ni  Ni46  1  0.66774331  0.99829215  0.66836396  1
  Ni  Ni47  1  0.83430606  0.16733794  0.83268880  1
  Ni  Ni48  1  0.83560662  0.50016541  0.49999654  1
  Cr  Cr49  1  0.66904016  0.33422229  0.66919048  1
  Ni  Ni50  1  0.83265030  0.50168808  0.83587710  1
  Cr  Cr51  1  0.83430796  0.83494746  0.50183386  1
  Ni  Ni52  1  0.66733250  0.66994540  0.66905307  1
  Ni  Ni53  1  0.83352986  0.83283673  0.83202279  1
" 