1191,Ni56Cr44_8,-216.871338183998, 132.85985018756,Ni56Cr44,"# generated using pymatgen
 data_Cr5Ni4
_symmetry_space_group_name_H-M   'P 1'
_cell_length_a   7.53391799
_cell_length_b   7.53391799
_cell_length_c   10.65456900
_cell_angle_alpha   90.00000000
_cell_angle_beta   90.00000000
_cell_angle_gamma   90.00000000
_symmetry_Int_Tables_number   1
_chemical_formula_structural   Cr5Ni4
_chemical_formula_sum   'Cr30 Ni24'
_cell_volume   604.75248782
_cell_formula_units_Z   6
loop_
 _symmetry_equiv_pos_site_id
 _symmetry_equiv_pos_as_xyz
  1  'x, y, z'
loop_
 _atom_site_type_symbol
 _atom_site_label
 _atom_site_symmetry_multiplicity
 _atom_site_fract_x
 _atom_site_fract_y
 _atom_site_fract_z
 _atom_site_occupancy
  Ni  Ni0  1  -0.00436441  0.99270470  0.99464810  1
  Ni  Ni1  1  0.16834859  0.15820426  0.15933732  1
  Cr  Cr2  1  -0.00186691  0.99339576  0.32801572  1
  Cr  Cr3  1  -0.00298317  0.32551760  0.99436575  1
  Cr  Cr4  1  0.16063302  0.49301872  0.15938452  1
  Cr  Cr5  1  -0.00033971  0.32794119  0.32975149  1
  Ni  Ni6  1  0.99281805  0.66648061  0.99246999  1
  Cr  Cr7  1  0.16254381  0.82970737  0.15822506  1
  Cr  Cr8  1  -0.00287158  0.66528797  0.32990090  1
  Ni  Ni9  1  0.32759718  0.99555216  -0.00394846  1
  Ni  Ni10  1  0.49473643  0.15884820  0.16028866  1
  Ni  Ni11  1  0.33147550  -0.00221442  0.32914422  1
  Ni  Ni12  1  0.33098958  0.32377956  -0.00265151  1
  Ni  Ni13  1  0.49299977  0.49191394  0.15844223  1
  Cr  Cr14  1  0.32962993  0.32825935  0.32534519  1
  Cr  Cr15  1  0.32768489  0.65854000  0.99333573  1
  Cr  Cr16  1  0.49775750  0.83133718  0.16129588  1
  Cr  Cr17  1  0.32787419  0.66315949  0.33021678  1
  Ni  Ni18  1  0.66467562  -0.00348796  0.99536060  1
  Cr  Cr19  1  0.83006149  0.16114964  0.16135895  1
  Ni  Ni20  1  0.66186685  -0.00392471  0.32827214  1
  Cr  Cr21  1  0.65941513  0.32956769  0.99214078  1
  Cr  Cr22  1  0.82866108  0.49943952  0.16089851  1
  Cr  Cr23  1  0.65806133  0.32826202  0.32735455  1
  Cr  Cr24  1  0.66290167  0.66361718  0.99369529  1
  Ni  Ni25  1  0.82978406  0.83334175  0.15906062  1
  Cr  Cr26  1  0.66344695  0.66534029  0.32564152  1
  Cr  Cr27  1  0.16215120  0.16318190  0.49730567  1
  Cr  Cr28  1  0.99463955  0.99357305  0.66498807  1
  Cr  Cr29  1  0.16235714  0.15767925  0.83087798  1
  Ni  Ni30  1  0.16265382  0.49963173  0.50000035  1
  Ni  Ni31  1  0.99492648  0.33192829  0.66482662  1
  Cr  Cr32  1  0.16097915  0.49616216  0.82791842  1
  Ni  Ni33  1  0.16260103  0.82856605  0.49906601  1
  Ni  Ni34  1  -0.00330517  0.66437319  0.66333392  1
  Ni  Ni35  1  0.15826873  0.82794525  0.82901842  1
  Ni  Ni36  1  0.49261535  0.15962833  0.49400465  1
  Ni  Ni37  1  0.32640007  0.99189287  0.66104244  1
  Cr  Cr38  1  0.49429865  0.15839457  0.83010969  1
  Cr  Cr39  1  0.49612070  0.49749497  0.49796371  1
  Cr  Cr40  1  0.32954590  0.32831373  0.66256240  1
  Ni  Ni41  1  0.49450558  0.49504677  0.82960954  1
  Cr  Cr42  1  0.49507823  0.83233423  0.49652141  1
  Ni  Ni43  1  0.32407511  0.66410707  0.66369014  1
  Cr  Cr44  1  0.48993542  0.82987901  0.82879525  1
  Cr  Cr45  1  0.82538174  0.16291728  0.49656713  1
  Cr  Cr46  1  0.66287104  -0.00396830  0.66275525  1
  Ni  Ni47  1  0.83009754  0.16168201  0.83028650  1
  Cr  Cr48  1  0.83368146  0.49598929  0.49773976  1
  Cr  Cr49  1  0.66282117  0.32840101  0.66702214  1
  Ni  Ni50  1  0.83100593  0.49751721  0.82844100  1
  Ni  Ni51  1  0.83088510  0.82901287  0.49487605  1
  Cr  Cr52  1  0.66388950  0.66357184  0.66719387  1
  Ni  Ni53  1  0.83033314  0.83035571  0.83248351  1
" 