3258,Ni56Cr44_17,-216.863154782574, 133.531428230503,Ni56Cr44,"# generated using pymatgen
 data_Cr5Ni4
_symmetry_space_group_name_H-M   'P 1'
_cell_length_a   7.53066580
_cell_length_b   7.53066580
_cell_length_c   10.64996971
_cell_angle_alpha   90.00000000
_cell_angle_beta   90.00000000
_cell_angle_gamma   90.00000000
_symmetry_Int_Tables_number   1
_chemical_formula_structural   Cr5Ni4
_chemical_formula_sum   'Cr30 Ni24'
_cell_volume   603.96965997
_cell_formula_units_Z   6
loop_
 _symmetry_equiv_pos_site_id
 _symmetry_equiv_pos_as_xyz
  1  'x, y, z'
loop_
 _atom_site_type_symbol
 _atom_site_label
 _atom_site_symmetry_multiplicity
 _atom_site_fract_x
 _atom_site_fract_y
 _atom_site_fract_z
 _atom_site_occupancy
  Cr  Cr0  1  -0.00107164  -0.00096385  0.99530332  1
  Ni  Ni1  1  0.16472561  0.16220664  0.15897786  1
  Cr  Cr2  1  -0.00069338  0.99558431  0.32812805  1
  Ni  Ni3  1  -0.00033749  0.32721824  0.99371463  1
  Cr  Cr4  1  0.16323015  0.49400943  0.16104051  1
  Cr  Cr5  1  -0.00295237  0.32894535  0.33028868  1
  Cr  Cr6  1  -0.00337056  0.66286444  0.99551219  1
  Ni  Ni7  1  0.16458633  0.82993508  0.16292245  1
  Ni  Ni8  1  -0.00221672  0.66252100  0.33181232  1
  Ni  Ni9  1  0.32835161  -0.00337886  -0.00309522  1
  Cr  Cr10  1  0.49302736  0.16275393  0.16352516  1
  Cr  Cr11  1  0.32749836  0.99497593  0.32841034  1
  Ni  Ni12  1  0.32713288  0.32880001  0.99443992  1
  Ni  Ni13  1  0.49464845  0.49692447  0.16002058  1
  Cr  Cr14  1  0.32922136  0.33014444  0.33173430  1
  Cr  Cr15  1  0.33239890  0.66371021  -0.00407887  1
  Ni  Ni16  1  0.49460843  0.82926218  0.16078264  1
  Cr  Cr17  1  0.32826883  0.66262139  0.32910534  1
  Cr  Cr18  1  0.66142078  0.99358890  0.99439615  1
  Cr  Cr19  1  0.82951555  0.16315346  0.16213211  1
  Ni  Ni20  1  0.66038281  0.99520634  0.32960364  1
  Cr  Cr21  1  0.66252468  0.33212176  0.99521716  1
  Cr  Cr22  1  0.83065953  0.49647005  0.16216850  1
  Cr  Cr23  1  0.66059735  0.33038473  0.33163406  1
  Ni  Ni24  1  0.65882947  0.66232922  -0.00408387  1
  Cr  Cr25  1  0.82882741  0.82792647  0.16442919  1
  Cr  Cr26  1  0.65961292  0.65999899  0.32746892  1
  Ni  Ni27  1  0.16554178  0.16405219  0.49677696  1
  Cr  Cr28  1  -0.00324988  -0.00271970  0.66345311  1
  Ni  Ni29  1  0.16400779  0.16643978  0.83161459  1
  Ni  Ni30  1  0.16182081  0.49621218  0.49721130  1
  Cr  Cr31  1  -0.00226837  0.32886150  0.66322460  1
  Ni  Ni32  1  0.16488979  0.49180923  0.82854205  1
  Ni  Ni33  1  0.16091053  0.82696773  0.49533741  1
  Ni  Ni34  1  -0.00225653  0.66009198  0.65954004  1
  Cr  Cr35  1  0.16437641  0.82755436  0.82819337  1
  Ni  Ni36  1  0.49354840  0.16356367  0.49673808  1
  Cr  Cr37  1  0.32769505  -0.00296582  0.66174579  1
  Cr  Cr38  1  0.49282870  0.16241080  0.82736712  1
  Ni  Ni39  1  0.49392103  0.49344757  0.49689874  1
  Ni  Ni40  1  0.32801544  0.33003726  0.66144531  1
  Ni  Ni41  1  0.49227029  0.49545618  0.83061369  1
  Cr  Cr42  1  0.49635016  0.83248406  0.49666375  1
  Cr  Cr43  1  0.32860843  0.65907806  0.66208241  1
  Ni  Ni44  1  0.49601892  0.82885999  0.83064132  1
  Cr  Cr45  1  0.82572148  0.16058529  0.49555258  1
  Ni  Ni46  1  0.66130568  -0.00301603  0.66349697  1
  Ni  Ni47  1  0.83021186  0.16304354  0.82924932  1
  Ni  Ni48  1  0.83142893  0.49775042  0.49533127  1
  Cr  Cr49  1  0.66067399  0.32963802  0.66078231  1
  Cr  Cr50  1  0.83217504  0.49624312  0.83052133  1
  Cr  Cr51  1  0.82995683  0.82738637  0.49633629  1
  Cr  Cr52  1  0.66035247  0.66024157  0.66456109  1
  Cr  Cr53  1  0.82762549  0.82907952  0.82647620  1
" 