4077,Ni56Fe27Cr16_18,-234.490446993808, 198.092355527639,Ni56Fe27Cr16,"# generated using pymatgen
 data_Cr5Fe7Ni15
_symmetry_space_group_name_H-M   'P 1'
_cell_length_a   7.44621031
_cell_length_b   7.44621031
_cell_length_c   10.53053160
_cell_angle_alpha   90.00000000
_cell_angle_beta   90.00000000
_cell_angle_gamma   90.00000000
_symmetry_Int_Tables_number   1
_chemical_formula_structural   Cr5Fe7Ni15
_chemical_formula_sum   'Cr10 Fe14 Ni30'
_cell_volume   583.87635984
_cell_formula_units_Z   2
loop_
 _symmetry_equiv_pos_site_id
 _symmetry_equiv_pos_as_xyz
  1  'x, y, z'
loop_
 _atom_site_type_symbol
 _atom_site_label
 _atom_site_symmetry_multiplicity
 _atom_site_fract_x
 _atom_site_fract_y
 _atom_site_fract_z
 _atom_site_occupancy
  Cr  Cr0  1  1.00033889  1.00115201  0.00168764  1
  Fe  Fe1  1  0.16869678  0.16870685  0.16876299  1
  Ni  Ni2  1  1.00109859  0.00299824  0.33540309  1
  Ni  Ni3  1  0.00156374  0.33579154  1.00067716  1
  Ni  Ni4  1  0.16809744  0.50194932  0.16670311  1
  Ni  Ni5  1  0.99981460  0.33225056  0.33504923  1
  Ni  Ni6  1  1.00052735  0.66683848  0.00157430  1
  Fe  Fe7  1  0.17055297  0.83447063  0.16861245  1
  Cr  Cr8  1  0.00358787  0.66870764  0.33392155  1
  Fe  Fe9  1  0.33643508  0.00269991  0.00303037  1
  Ni  Ni10  1  0.50401652  0.16673731  0.16739068  1
  Ni  Ni11  1  0.33481578  1.00001337  0.33514174  1
  Ni  Ni12  1  0.33584215  0.33544388  1.00052903  1
  Ni  Ni13  1  0.50047514  0.50219336  0.16673414  1
  Cr  Cr14  1  0.33560257  0.33560849  0.33502297  1
  Ni  Ni15  1  0.33540828  0.66571866  0.00323038  1
  Ni  Ni16  1  0.50053732  0.83526607  0.16755456  1
  Ni  Ni17  1  0.33499936  0.66967388  0.33495161  1
  Fe  Fe18  1  0.66787455  0.00219640  0.00241396  1
  Ni  Ni19  1  0.83389863  0.16864925  0.16999612  1
  Ni  Ni20  1  0.66828443  0.00337143  0.33437502  1
  Ni  Ni21  1  0.66679245  0.33497341  1.00137179  1
  Fe  Fe22  1  0.83385117  0.49911965  0.16640834  1
  Ni  Ni23  1  0.66900696  0.33243344  0.33473355  1
  Ni  Ni24  1  0.66826022  0.66722681  1.00102608  1
  Fe  Fe25  1  0.83317728  0.83539225  0.16688964  1
  Cr  Cr26  1  0.66576315  0.66761336  0.33506406  1
  Ni  Ni27  1  0.16560141  0.16724302  0.50093399  1
  Cr  Cr28  1  0.00222492  1.00106736  0.66735544  1
  Fe  Fe29  1  0.16834127  0.17061954  0.83477228  1
  Ni  Ni30  1  0.16734638  0.50204960  0.50270257  1
  Ni  Ni31  1  0.00174113  0.33662171  0.66847248  1
  Ni  Ni32  1  0.16732377  0.50030070  0.83479088  1
  Ni  Ni33  1  0.17034117  0.83490504  0.50130686  1
  Ni  Ni34  1  0.00141103  0.66668736  0.66809993  1
  Cr  Cr35  1  0.16850232  0.83230924  0.83392388  1
  Fe  Fe36  1  0.50002143  0.16623441  0.49934229  1
  Ni  Ni37  1  0.33466420  1.00064187  0.66676624  1
  Fe  Fe38  1  0.50091852  0.16912840  0.83721007  1
  Ni  Ni39  1  0.50124647  0.50402662  0.50114423  1
  Cr  Cr40  1  0.33383479  0.33508614  0.66855794  1
  Ni  Ni41  1  0.50079221  0.50150990  0.83631985  1
  Ni  Ni42  1  0.49951653  0.83419499  0.50169383  1
  Ni  Ni43  1  0.33414198  0.66805938  0.66601450  1
  Cr  Cr44  1  0.50183168  0.83329972  0.83498524  1
  Fe  Fe45  1  0.83607801  0.16910045  0.49874548  1
  Cr  Cr46  1  0.66751267  1.00066923  0.66792402  1
  Ni  Ni47  1  0.83506731  0.16942250  0.83576247  1
  Fe  Fe48  1  0.83628444  0.50066411  0.50207468  1
  Cr  Cr49  1  0.66817989  0.33595772  0.66797805  1
  Fe  Fe50  1  0.83584917  0.50231422  0.83571349  1
  Fe  Fe51  1  0.83541095  0.83443197  0.50173020  1
  Fe  Fe52  1  0.66819382  0.66756612  0.66773829  1
  Ni  Ni53  1  0.83385946  0.83424859  0.83524142  1
" 