1431,Ni56Fe40Cr3_2,-239.566436403169, 215.895262465973,Ni56Fe40Cr3,"# generated using pymatgen
 data_CrFe7Ni10
_symmetry_space_group_name_H-M   'P 1'
_cell_length_a   7.41126604
_cell_length_b   7.41126604
_cell_length_c   10.48111295
_cell_angle_alpha   90.00000000
_cell_angle_beta   90.00000000
_cell_angle_gamma   90.00000000
_symmetry_Int_Tables_number   1
_chemical_formula_structural   CrFe7Ni10
_chemical_formula_sum   'Cr3 Fe21 Ni30'
_cell_volume   575.69466927
_cell_formula_units_Z   3
loop_
 _symmetry_equiv_pos_site_id
 _symmetry_equiv_pos_as_xyz
  1  'x, y, z'
loop_
 _atom_site_type_symbol
 _atom_site_label
 _atom_site_symmetry_multiplicity
 _atom_site_fract_x
 _atom_site_fract_y
 _atom_site_fract_z
 _atom_site_occupancy
  Fe  Fe0  1  1.00283642  0.00428678  1.00340961  1
  Fe  Fe1  1  0.17024369  0.17091901  0.17026923  1
  Fe  Fe2  1  1.00320095  1.00287039  0.33788459  1
  Ni  Ni3  1  0.00390989  0.33717380  0.00435630  1
  Ni  Ni4  1  0.17003579  0.50494007  0.16976060  1
  Fe  Fe5  1  1.00341166  0.33820295  0.33708888  1
  Ni  Ni6  1  1.00286282  0.67038036  0.00384434  1
  Ni  Ni7  1  0.16978678  0.83565683  0.17003078  1
  Ni  Ni8  1  0.00389082  0.67104785  0.33721183  1
  Fe  Fe9  1  0.33748891  0.00396614  1.00349062  1
  Fe  Fe10  1  0.50337089  0.16958592  0.17006167  1
  Fe  Fe11  1  0.33749028  1.00252387  0.33765534  1
  Ni  Ni12  1  0.33576553  0.33358839  0.00410033  1
  Cr  Cr13  1  0.50271774  0.50402191  0.16996552  1
  Fe  Fe14  1  0.33667957  0.33795415  0.33846897  1
  Fe  Fe15  1  0.33528161  0.67084068  0.00414831  1
  Fe  Fe16  1  0.50341041  0.83800629  0.17055614  1
  Ni  Ni17  1  0.33617980  0.67240548  0.33816753  1
  Fe  Fe18  1  0.67096891  0.00457028  1.00302828  1
  Ni  Ni19  1  0.83705573  0.17009897  0.16981779  1
  Fe  Fe20  1  0.67059786  1.00319384  0.33761744  1
  Ni  Ni21  1  0.67161247  0.33518837  1.00346892  1
  Fe  Fe22  1  0.83926387  0.50399514  0.17005876  1
  Ni  Ni23  1  0.67093314  0.33585628  0.33801396  1
  Ni  Ni24  1  0.67267779  0.67235185  0.00465370  1
  Fe  Fe25  1  0.83793619  0.83595414  0.17036999  1
  Ni  Ni26  1  0.67122193  0.67108060  0.33775788  1
  Ni  Ni27  1  0.16865334  0.17187676  0.50261197  1
  Ni  Ni28  1  1.00253736  0.00412638  0.67026249  1
  Fe  Fe29  1  0.16976360  0.17105222  0.83724555  1
  Ni  Ni30  1  0.17230793  0.50432208  0.50393761  1
  Ni  Ni31  1  0.00395763  0.33631434  0.67033911  1
  Fe  Fe32  1  0.16873445  0.50341438  0.83701137  1
  Ni  Ni33  1  0.16896491  0.83509540  0.50348314  1
  Ni  Ni34  1  1.00286228  0.67084968  0.67023234  1
  Fe  Fe35  1  0.16941768  0.83681842  0.83761857  1
  Ni  Ni36  1  0.50536498  0.17268618  0.50298375  1
  Cr  Cr37  1  0.33724584  0.00424696  0.66975650  1
  Ni  Ni38  1  0.50553602  0.17074477  0.83864986  1
  Ni  Ni39  1  0.50220938  0.50400851  0.50424267  1
  Ni  Ni40  1  0.33632262  0.33657964  0.66887771  1
  Cr  Cr41  1  0.50221113  0.50376174  0.83659576  1
  Ni  Ni42  1  0.50474220  0.83459613  0.50291012  1
  Ni  Ni43  1  0.33710030  0.67026788  0.66958886  1
  Ni  Ni44  1  0.50495460  0.83678340  0.83862373  1
  Ni  Ni45  1  0.83727253  0.16934548  0.50464915  1
  Fe  Fe46  1  0.67242287  1.00332767  0.67064871  1
  Ni  Ni47  1  0.83734364  0.16935011  0.83682418  1
  Fe  Fe48  1  0.83691770  0.50419615  0.50363252  1
  Fe  Fe49  1  0.67124796  0.33625915  0.66944938  1
  Fe  Fe50  1  0.83776020  0.50411074  0.83760110  1
  Ni  Ni51  1  0.83758440  0.83825146  0.50375464  1
  Ni  Ni52  1  0.67132325  0.67169430  0.66887980  1
  Ni  Ni53  1  0.83762765  0.83847768  0.83755005  1
" 