4509,Ni56Fe20Cr22_10,-230.955418261308, 181.719610447138,Ni56Fe20Cr22,"# generated using pymatgen
 data_Cr7(FeNi3)5
_symmetry_space_group_name_H-M   'P 1'
_cell_length_a   7.45411055
_cell_length_b   7.45411055
_cell_length_c   10.54170423
_cell_angle_alpha   90.00000000
_cell_angle_beta   90.00000000
_cell_angle_gamma   90.00000000
_symmetry_Int_Tables_number   1
_chemical_formula_structural   Cr7(FeNi3)5
_chemical_formula_sum   'Cr14 Fe10 Ni30'
_cell_volume   585.73676612
_cell_formula_units_Z   2
loop_
 _symmetry_equiv_pos_site_id
 _symmetry_equiv_pos_as_xyz
  1  'x, y, z'
loop_
 _atom_site_type_symbol
 _atom_site_label
 _atom_site_symmetry_multiplicity
 _atom_site_fract_x
 _atom_site_fract_y
 _atom_site_fract_z
 _atom_site_occupancy
  Fe  Fe0  1  0.00237225  0.00317825  1.00031764  1
  Cr  Cr1  1  0.16893881  0.16832226  0.16703178  1
  Cr  Cr2  1  1.00036009  1.00079076  0.33377803  1
  Ni  Ni3  1  0.99853342  0.33572148  1.00059109  1
  Cr  Cr4  1  0.16732326  0.49954962  0.16936561  1
  Fe  Fe5  1  0.99791228  0.33244127  0.33457334  1
  Ni  Ni6  1  0.99969681  0.66712577  0.00109222  1
  Ni  Ni7  1  0.16781903  0.83425670  0.16656012  1
  Cr  Cr8  1  0.99969981  0.66821669  0.33487762  1
  Ni  Ni9  1  0.33284335  0.00298138  1.00020966  1
  Ni  Ni10  1  0.50221674  0.16830042  0.16866241  1
  Ni  Ni11  1  0.33455575  0.00187474  0.33534627  1
  Ni  Ni12  1  0.33628192  0.33196687  0.99881710  1
  Fe  Fe13  1  0.50147194  0.49603869  0.16718697  1
  Ni  Ni14  1  0.33844199  0.33157819  0.33501202  1
  Cr  Cr15  1  0.33295705  0.66651589  1.00029040  1
  Cr  Cr16  1  0.49951389  0.83579434  0.16881861  1
  Fe  Fe17  1  0.33528001  0.66830215  0.33542567  1
  Cr  Cr18  1  0.66745507  0.00529227  0.00262987  1
  Ni  Ni19  1  0.83197915  0.17045822  0.16820785  1
  Fe  Fe20  1  0.66645429  0.00436277  0.33501776  1
  Ni  Ni21  1  0.66801922  0.33467149  0.00105266  1
  Ni  Ni22  1  0.83326448  0.49892088  0.16652199  1
  Ni  Ni23  1  0.66662717  0.33355866  0.33357363  1
  Fe  Fe24  1  0.66853681  0.66335737  0.00100050  1
  Fe  Fe25  1  0.83610464  0.83471179  0.16538077  1
  Cr  Cr26  1  0.66873073  0.66572273  0.33349034  1
  Ni  Ni27  1  0.16783445  0.16652361  0.49975327  1
  Ni  Ni28  1  1.00054260  1.00020641  0.66789299  1
  Ni  Ni29  1  0.16700690  0.16839206  0.83585632  1
  Cr  Cr30  1  0.16855226  0.49888370  0.49938449  1
  Cr  Cr31  1  1.00080158  0.33273786  0.66735368  1
  Ni  Ni32  1  0.16612604  0.49998200  0.83468206  1
  Ni  Ni33  1  0.16707971  0.83504344  0.50079668  1
  Ni  Ni34  1  0.99938127  0.66906842  0.66746370  1
  Ni  Ni35  1  0.16513762  0.83454412  0.83553397  1
  Ni  Ni36  1  0.50261343  0.16907328  0.50003785  1
  Cr  Cr37  1  0.33249737  0.00508519  0.66820867  1
  Ni  Ni38  1  0.50213890  0.17025399  0.83397311  1
  Ni  Ni39  1  0.50258691  0.49939968  0.50032710  1
  Ni  Ni40  1  0.33723155  0.33329359  0.66890609  1
  Ni  Ni41  1  0.50293716  0.49761914  0.83482070  1
  Fe  Fe42  1  0.50114999  0.83590814  0.50062160  1
  Cr  Cr43  1  0.33340683  0.66527665  0.66728124  1
  Cr  Cr44  1  0.50267494  0.83492747  0.83236379  1
  Ni  Ni45  1  0.83190786  0.16707374  0.50034089  1
  Ni  Ni46  1  0.66905004  0.00355658  0.66444893  1
  Ni  Ni47  1  0.83358723  0.16915261  0.83397381  1
  Fe  Fe48  1  0.83202943  0.49833357  0.50186050  1
  Ni  Ni49  1  0.66588589  0.33418109  0.66795845  1
  Ni  Ni50  1  0.83371553  0.50003129  0.83405402  1
  Fe  Fe51  1  0.83368257  0.83537673  0.50371528  1
  Ni  Ni52  1  0.66932553  0.66479546  0.66666997  1
  Cr  Cr53  1  0.83458662  0.83412867  0.83374908  1
" 