6445,Ni56Fe40Cr3_19,-239.943945048377, 220.816676612171,Ni56Fe40Cr3,"# generated using pymatgen
 data_CrFe7Ni10
_symmetry_space_group_name_H-M   'P 1'
_cell_length_a   7.41208312
_cell_length_b   7.41208312
_cell_length_c   10.48226847
_cell_angle_alpha   90.00000000
_cell_angle_beta   90.00000000
_cell_angle_gamma   90.00000000
_symmetry_Int_Tables_number   1
_chemical_formula_structural   CrFe7Ni10
_chemical_formula_sum   'Cr3 Fe21 Ni30'
_cell_volume   575.88509805
_cell_formula_units_Z   3
loop_
 _symmetry_equiv_pos_site_id
 _symmetry_equiv_pos_as_xyz
  1  'x, y, z'
loop_
 _atom_site_type_symbol
 _atom_site_label
 _atom_site_symmetry_multiplicity
 _atom_site_fract_x
 _atom_site_fract_y
 _atom_site_fract_z
 _atom_site_occupancy
  Fe  Fe0  1  0.00385162  0.00485122  1.00318410  1
  Fe  Fe1  1  0.17088502  0.17043922  0.17063213  1
  Fe  Fe2  1  0.00513151  1.00211293  0.33618055  1
  Fe  Fe3  1  0.00394969  0.33506235  0.00531046  1
  Ni  Ni4  1  0.17160478  0.50305883  0.16965967  1
  Ni  Ni5  1  0.00490671  0.33847224  0.33598707  1
  Fe  Fe6  1  1.00319579  0.67110157  1.00370111  1
  Fe  Fe7  1  0.17055696  0.83565693  0.17001215  1
  Fe  Fe8  1  0.00434956  0.67118086  0.33714240  1
  Ni  Ni9  1  0.33684306  0.00393143  1.00301247  1
  Fe  Fe10  1  0.50497004  0.16997005  0.16886651  1
  Ni  Ni11  1  0.33703194  1.00296116  0.33676411  1
  Ni  Ni12  1  0.33661441  0.33619942  1.00369043  1
  Ni  Ni13  1  0.50235175  0.50478181  0.17107855  1
  Fe  Fe14  1  0.33694209  0.33732371  0.33630557  1
  Fe  Fe15  1  0.33843570  0.67054674  0.00398830  1
  Ni  Ni16  1  0.50388633  0.83642725  0.16965224  1
  Ni  Ni17  1  0.33647255  0.67156622  0.33645711  1
  Ni  Ni18  1  0.66995441  0.00427885  1.00258875  1
  Ni  Ni19  1  0.83756028  0.16945989  0.17049690  1
  Ni  Ni20  1  0.66819700  1.00249865  0.33610269  1
  Ni  Ni21  1  0.67081136  0.33666478  0.00444878  1
  Ni  Ni22  1  0.83723755  0.50336090  0.17102343  1
  Fe  Fe23  1  0.66896834  0.33753859  0.33496280  1
  Fe  Fe24  1  0.66921852  0.67053629  0.00492713  1
  Ni  Ni25  1  0.83546694  0.83850056  0.17098041  1
  Ni  Ni26  1  0.67032820  0.67122078  0.33736112  1
  Ni  Ni27  1  0.17096584  0.17166367  0.50374714  1
  Fe  Fe28  1  0.00437438  1.00078157  0.67120954  1
  Ni  Ni29  1  0.16960712  0.17123233  0.83620056  1
  Ni  Ni30  1  0.17240671  0.50313399  0.50407200  1
  Fe  Fe31  1  0.00601664  0.33812489  0.67027878  1
  Fe  Fe32  1  0.17064617  0.50414319  0.83732698  1
  Ni  Ni33  1  0.17129620  0.83648912  0.50297170  1
  Ni  Ni34  1  0.00607368  0.67022369  0.66916352  1
  Ni  Ni35  1  0.17063780  0.83703950  0.83718133  1
  Fe  Fe36  1  0.50030442  0.16686584  0.50347895  1
  Fe  Fe37  1  0.33694942  1.00221381  0.67071179  1
  Ni  Ni38  1  0.50312165  0.17043381  0.83761711  1
  Fe  Fe39  1  0.50084717  0.50540618  0.50241700  1
  Fe  Fe40  1  0.33582630  0.33790302  0.67186264  1
  Ni  Ni41  1  0.50143805  0.50388112  0.83901072  1
  Ni  Ni42  1  0.50310674  0.83638878  0.50402212  1
  Ni  Ni43  1  0.33408435  0.67100833  0.67139744  1
  Ni  Ni44  1  0.50287107  0.83672223  0.83789914  1
  Cr  Cr45  1  0.83796562  0.16800221  0.50272324  1
  Ni  Ni46  1  0.66911984  0.00387486  0.67202346  1
  Ni  Ni47  1  0.83837534  0.16959244  0.83782512  1
  Fe  Fe48  1  0.84064842  0.50626185  0.50116490  1
  Cr  Cr49  1  0.67026760  0.33560890  0.67050989  1
  Fe  Fe50  1  0.83829770  0.50416776  0.83956633  1
  Ni  Ni51  1  0.83664899  0.83773783  0.50278152  1
  Cr  Cr52  1  0.67092869  0.67262937  0.67101398  1
  Ni  Ni53  1  0.83767118  0.83898566  0.83752540  1
" 