3243,Ni56Fe27Cr16_1,-234.360693059843, 193.803097955548,Ni56Fe27Cr16,"# generated using pymatgen
 data_Cr5Fe7Ni15
_symmetry_space_group_name_H-M   'P 1'
_cell_length_a   7.44253142
_cell_length_b   7.44253142
_cell_length_c   10.52532887
_cell_angle_alpha   90.00000000
_cell_angle_beta   90.00000000
_cell_angle_gamma   90.00000000
_symmetry_Int_Tables_number   1
_chemical_formula_structural   Cr5Fe7Ni15
_chemical_formula_sum   'Cr10 Fe14 Ni30'
_cell_volume   583.01137429
_cell_formula_units_Z   2
loop_
 _symmetry_equiv_pos_site_id
 _symmetry_equiv_pos_as_xyz
  1  'x, y, z'
loop_
 _atom_site_type_symbol
 _atom_site_label
 _atom_site_symmetry_multiplicity
 _atom_site_fract_x
 _atom_site_fract_y
 _atom_site_fract_z
 _atom_site_occupancy
  Cr  Cr0  1  0.00366456  0.00260570  1.00128369  1
  Ni  Ni1  1  0.16960636  0.16955454  0.16926082  1
  Ni  Ni2  1  0.00519924  0.00318236  0.33678853  1
  Fe  Fe3  1  1.00059900  0.33585008  1.00159258  1
  Ni  Ni4  1  0.16936356  0.50040544  0.16722644  1
  Fe  Fe5  1  1.00145486  0.33113292  0.33351574  1
  Ni  Ni6  1  0.00260502  0.66533630  1.00119067  1
  Fe  Fe7  1  0.17082324  0.83542991  0.16866868  1
  Cr  Cr8  1  1.00099458  0.66940406  0.33440910  1
  Ni  Ni9  1  0.33492848  0.00231731  0.00367474  1
  Ni  Ni10  1  0.50027993  0.16901448  0.16708662  1
  Ni  Ni11  1  0.33237751  0.00313845  0.33473421  1
  Fe  Fe12  1  0.33490029  0.33524444  0.00290165  1
  Ni  Ni13  1  0.50144093  0.50187100  0.16823581  1
  Ni  Ni14  1  0.33627305  0.33352233  0.33416683  1
  Fe  Fe15  1  0.33508376  0.66799568  0.00267578  1
  Fe  Fe16  1  0.49993302  0.83466344  0.16747511  1
  Fe  Fe17  1  0.33787515  0.66888883  0.33465410  1
  Ni  Ni18  1  0.66584157  0.00355984  0.00318598  1
  Ni  Ni19  1  0.83505250  0.17076495  0.16769638  1
  Cr  Cr20  1  0.66774016  0.00243745  0.33566946  1
  Ni  Ni21  1  0.66836784  0.33631770  0.00216867  1
  Ni  Ni22  1  0.83413892  0.50035739  0.16695881  1
  Ni  Ni23  1  0.66625816  0.33686980  0.33461471  1
  Ni  Ni24  1  0.66833888  0.66506121  0.00304139  1
  Cr  Cr25  1  0.83312451  0.83445049  0.16770183  1
  Ni  Ni26  1  0.66621629  0.66548813  0.33483926  1
  Ni  Ni27  1  0.16719614  0.16702563  0.50087525  1
  Ni  Ni28  1  1.00106421  0.00196533  0.66698407  1
  Ni  Ni29  1  0.16660894  0.17088583  0.83480737  1
  Cr  Cr30  1  0.17096097  0.49999909  0.50198305  1
  Ni  Ni31  1  0.00263827  0.33387132  0.67012232  1
  Fe  Fe32  1  0.16746399  0.50086307  0.83469731  1
  Ni  Ni33  1  0.16849251  0.83732235  0.50218363  1
  Ni  Ni34  1  1.00129136  0.66910273  0.66960554  1
  Fe  Fe35  1  0.16751148  0.83477521  0.83467352  1
  Fe  Fe36  1  0.50128573  0.16926490  0.50112048  1
  Cr  Cr37  1  0.33320443  0.00310065  0.66615234  1
  Cr  Cr38  1  0.50237839  0.16918419  0.83562347  1
  Ni  Ni39  1  0.50138991  0.50295660  0.50224514  1
  Ni  Ni40  1  0.33459225  0.33608057  0.66853129  1
  Fe  Fe41  1  0.50225459  0.50084035  0.83481839  1
  Ni  Ni42  1  0.50236139  0.83276926  0.50144763  1
  Fe  Fe43  1  0.33482505  0.66714890  0.66761941  1
  Cr  Cr44  1  0.50255204  0.83355979  0.83677768  1
  Ni  Ni45  1  0.83646219  0.16604958  0.50294071  1
  Ni  Ni46  1  0.67082272  1.00152228  0.66615329  1
  Ni  Ni47  1  0.83653135  0.16991927  0.83430854  1
  Cr  Cr48  1  0.83281029  0.50133710  0.50163084  1
  Fe  Fe49  1  0.66935862  0.33460723  0.66816395  1
  Fe  Fe50  1  0.83522521  0.50003323  0.83538984  1
  Ni  Ni51  1  0.83409054  0.83722058  0.50425475  1
  Ni  Ni52  1  0.66862297  0.66756298  0.66706064  1
  Cr  Cr53  1  0.83446290  0.83510755  0.83335173  1
" 