4299,Ni56Fe22Cr21_5,-232.051567139136, 187.905642277494,Ni56Fe22Cr21,"# generated using pymatgen
 data_Cr13Fe11Ni30
_symmetry_space_group_name_H-M   'P 1'
_cell_length_a   7.45480583
_cell_length_b   7.45480583
_cell_length_c   10.54268750
_cell_angle_alpha   90.00000000
_cell_angle_beta   90.00000000
_cell_angle_gamma   90.00000000
_symmetry_Int_Tables_number   1
_chemical_formula_structural   Cr13Fe11Ni30
_chemical_formula_sum   'Cr13 Fe11 Ni30'
_cell_volume   585.90068482
_cell_formula_units_Z   1
loop_
 _symmetry_equiv_pos_site_id
 _symmetry_equiv_pos_as_xyz
  1  'x, y, z'
loop_
 _atom_site_type_symbol
 _atom_site_label
 _atom_site_symmetry_multiplicity
 _atom_site_fract_x
 _atom_site_fract_y
 _atom_site_fract_z
 _atom_site_occupancy
  Fe  Fe0  1  1.00081540  0.00272420  0.00146862  1
  Ni  Ni1  1  0.16498502  0.16737742  0.16554939  1
  Fe  Fe2  1  1.00008670  0.00152120  0.33500455  1
  Ni  Ni3  1  0.00147211  0.33392307  0.99927229  1
  Fe  Fe4  1  0.16856059  0.50157277  0.16599040  1
  Ni  Ni5  1  0.99887657  0.33268996  0.33489790  1
  Ni  Ni6  1  0.00162338  0.66528391  1.00049431  1
  Ni  Ni7  1  0.16911000  0.83359921  0.16806866  1
  Fe  Fe8  1  0.00129589  0.66862718  0.33550481  1
  Cr  Cr9  1  0.33398081  1.00046385  0.00328925  1
  Fe  Fe10  1  0.50216050  0.16843537  0.16759923  1
  Cr  Cr11  1  0.33454699  0.99971046  0.33366389  1
  Ni  Ni12  1  0.33223365  0.33625997  0.00113487  1
  Ni  Ni13  1  0.49974713  0.50228469  0.16589639  1
  Cr  Cr14  1  0.33292052  0.33382543  0.33287368  1
  Ni  Ni15  1  0.33443980  0.66530983  0.00220067  1
  Ni  Ni16  1  0.49848191  0.83085123  0.16799315  1
  Ni  Ni17  1  0.33354126  0.66897438  0.33130515  1
  Cr  Cr18  1  0.66808231  1.00038880  1.00046132  1
  Ni  Ni19  1  0.83567730  0.16864872  0.16835549  1
  Ni  Ni20  1  0.66899434  0.00184872  0.33469393  1
  Ni  Ni21  1  0.66875565  0.33518694  0.00191576  1
  Cr  Cr22  1  0.83291103  0.49845396  0.16778680  1
  Fe  Fe23  1  0.66892315  0.33293424  0.33422556  1
  Ni  Ni24  1  0.66639907  0.66622609  0.99783846  1
  Cr  Cr25  1  0.83502125  0.83523164  0.16733995  1
  Ni  Ni26  1  0.66798253  0.66866368  0.33508525  1
  Ni  Ni27  1  0.16567414  0.16520059  0.50393555  1
  Fe  Fe28  1  0.00167153  1.00031526  0.66598929  1
  Fe  Fe29  1  0.16587171  0.17070897  0.83378432  1
  Cr  Cr30  1  0.16592645  0.50229941  0.50121902  1
  Fe  Fe31  1  0.00122870  0.33436678  0.66806048  1
  Ni  Ni32  1  0.16742416  0.50012481  0.83515505  1
  Ni  Ni33  1  0.16530184  0.83559930  0.50106316  1
  Ni  Ni34  1  0.99984959  0.66677782  0.66620030  1
  Cr  Cr35  1  0.16785104  0.83326114  0.83348550  1
  Ni  Ni36  1  0.50103420  0.16711716  0.50012632  1
  Ni  Ni37  1  0.33200585  0.00150116  0.66559553  1
  Cr  Cr38  1  0.49987799  0.16890876  0.83437555  1
  Cr  Cr39  1  0.50259291  0.50116970  0.50157027  1
  Fe  Fe40  1  0.33249593  0.33421078  0.66837513  1
  Ni  Ni41  1  0.50055298  0.50374176  0.83524713  1
  Cr  Cr42  1  0.50007616  0.83373738  0.50141282  1
  Ni  Ni43  1  0.33311260  0.66863236  0.66895784  1
  Ni  Ni44  1  0.50095810  0.82968123  0.83343077  1
  Ni  Ni45  1  0.83575355  0.16751883  0.49822701  1
  Cr  Cr46  1  0.66759504  0.99921133  0.66735650  1
  Ni  Ni47  1  0.83754543  0.16919287  0.83588127  1
  Ni  Ni48  1  0.83470351  0.50117234  0.50005621  1
  Cr  Cr49  1  0.66962441  0.33561773  0.66620062  1
  Ni  Ni50  1  0.83448521  0.50076575  0.83487066  1
  Ni  Ni51  1  0.83662148  0.83377217  0.50051042  1
  Ni  Ni52  1  0.66950183  0.66771633  0.66954069  1
  Fe  Fe53  1  0.83337640  0.83099893  0.83380041  1
" 