721,Ni56Fe20Cr22_8,-231.352668121674, 186.984185459655,Ni56Fe20Cr22,"# generated using pymatgen
 data_Cr7(FeNi3)5
_symmetry_space_group_name_H-M   'P 1'
_cell_length_a   7.45603971
_cell_length_b   7.45603971
_cell_length_c   10.54443248
_cell_angle_alpha   90.00000000
_cell_angle_beta   90.00000000
_cell_angle_gamma   90.00000000
_symmetry_Int_Tables_number   1
_chemical_formula_structural   Cr7(FeNi3)5
_chemical_formula_sum   'Cr14 Fe10 Ni30'
_cell_volume   586.19165914
_cell_formula_units_Z   2
loop_
 _symmetry_equiv_pos_site_id
 _symmetry_equiv_pos_as_xyz
  1  'x, y, z'
loop_
 _atom_site_type_symbol
 _atom_site_label
 _atom_site_symmetry_multiplicity
 _atom_site_fract_x
 _atom_site_fract_y
 _atom_site_fract_z
 _atom_site_occupancy
  Cr  Cr0  1  0.00157490  0.00131710  1.00006582  1
  Ni  Ni1  1  0.16812078  0.16869119  0.16609430  1
  Cr  Cr2  1  1.00000355  0.00134666  0.33561469  1
  Ni  Ni3  1  0.99892370  0.33526180  1.00041589  1
  Ni  Ni4  1  0.16811267  0.50192771  0.16752081  1
  Cr  Cr5  1  1.00000734  0.33295615  0.33312251  1
  Ni  Ni6  1  1.00071238  0.66630157  1.00049675  1
  Cr  Cr7  1  0.16677364  0.83095399  0.16658845  1
  Fe  Fe8  1  0.99980318  0.66871951  0.33511819  1
  Ni  Ni9  1  0.33530532  0.99814837  0.99959196  1
  Cr  Cr10  1  0.50149030  0.16653655  0.16574116  1
  Cr  Cr11  1  0.33332676  0.99878837  0.33566089  1
  Cr  Cr12  1  0.33150332  0.33522797  0.99892954  1
  Cr  Cr13  1  0.49950668  0.50122369  0.16739236  1
  Fe  Fe14  1  0.33331798  0.33390535  0.33536744  1
  Ni  Ni15  1  0.33457559  0.66927465  0.99932300  1
  Fe  Fe16  1  0.50171785  0.83285588  0.16552604  1
  Ni  Ni17  1  0.33565159  0.66737201  0.33443042  1
  Fe  Fe18  1  0.66777017  0.99893781  0.99864272  1
  Ni  Ni19  1  0.83317205  0.16586503  0.16413083  1
  Cr  Cr20  1  0.66885116  0.99954410  0.33435260  1
  Ni  Ni21  1  0.66982999  0.33472389  0.99890612  1
  Cr  Cr22  1  0.83512961  0.50300756  0.16575217  1
  Cr  Cr23  1  0.66891192  0.33487206  0.33672180  1
  Ni  Ni24  1  0.66730425  0.66815487  0.99976121  1
  Ni  Ni25  1  0.83239438  0.83352531  0.16632257  1
  Fe  Fe26  1  0.66771753  0.66891598  0.33526889  1
  Ni  Ni27  1  0.16813112  0.16712506  0.50324305  1
  Ni  Ni28  1  0.99892797  0.99985457  0.66630642  1
  Fe  Fe29  1  0.16490749  0.16793871  0.83263463  1
  Cr  Cr30  1  0.16750542  0.50225950  0.50092159  1
  Ni  Ni31  1  0.99986747  0.33434239  0.66844303  1
  Ni  Ni32  1  0.16666003  0.50343261  0.83406533  1
  Ni  Ni33  1  0.16591216  0.83264485  0.50189462  1
  Ni  Ni34  1  0.00080837  0.66804110  0.66756240  1
  Ni  Ni35  1  0.16665282  0.83117539  0.83372135  1
  Ni  Ni36  1  0.50023753  0.16841292  0.50130586  1
  Cr  Cr37  1  0.33383251  0.99899309  0.66747530  1
  Ni  Ni38  1  0.50146009  0.16677639  0.83471338  1
  Ni  Ni39  1  0.50019620  0.50192784  0.50133526  1
  Ni  Ni40  1  0.33432213  0.33572031  0.66697156  1
  Fe  Fe41  1  0.50151166  0.50206593  0.83386241  1
  Fe  Fe42  1  0.50148695  0.83178130  0.50212728  1
  Ni  Ni43  1  0.33466630  0.66694435  0.66862435  1
  Fe  Fe44  1  0.50213011  0.83357751  0.83454729  1
  Ni  Ni45  1  0.83368027  0.16581286  0.50359988  1
  Ni  Ni46  1  0.66855714  0.99996943  0.66731192  1
  Ni  Ni47  1  0.83141742  0.16681291  0.83423063  1
  Ni  Ni48  1  0.83309482  0.50424133  0.50185070  1
  Cr  Cr49  1  0.66822674  0.33510616  0.66713034  1
  Ni  Ni50  1  0.83608717  0.50213194  0.83520016  1
  Ni  Ni51  1  0.83452371  0.83276614  0.50256806  1
  Fe  Fe52  1  0.66845655  0.66839289  0.66805319  1
  Ni  Ni53  1  0.83509333  0.83325949  0.83330294  1
" 