3150,Ni56Cr44_2,-216.816391460443, 134.833017797889,Ni56Cr44,"# generated using pymatgen
 data_Cr5Ni4
_symmetry_space_group_name_H-M   'P 1'
_cell_length_a   7.53616470
_cell_length_b   7.53616470
_cell_length_c   10.65774633
_cell_angle_alpha   90.00000000
_cell_angle_beta   90.00000000
_cell_angle_gamma   90.00000000
_symmetry_Int_Tables_number   1
_chemical_formula_structural   Cr5Ni4
_chemical_formula_sum   'Cr30 Ni24'
_cell_volume   605.29368358
_cell_formula_units_Z   6
loop_
 _symmetry_equiv_pos_site_id
 _symmetry_equiv_pos_as_xyz
  1  'x, y, z'
loop_
 _atom_site_type_symbol
 _atom_site_label
 _atom_site_symmetry_multiplicity
 _atom_site_fract_x
 _atom_site_fract_y
 _atom_site_fract_z
 _atom_site_occupancy
  Ni  Ni0  1  0.99112590  0.99332625  -0.00196936  1
  Cr  Cr1  1  0.16087390  0.16094987  0.16318025  1
  Cr  Cr2  1  -0.00309086  -0.00408179  0.32667358  1
  Cr  Cr3  1  0.99180453  0.32706536  0.99514915  1
  Cr  Cr4  1  0.16115700  0.49709708  0.16198701  1
  Ni  Ni5  1  -0.00436790  0.32680035  0.32929659  1
  Ni  Ni6  1  0.99218851  0.66521297  -0.00380777  1
  Ni  Ni7  1  0.16005875  0.82893046  0.16237434  1
  Cr  Cr8  1  -0.00419578  0.66481919  0.32790243  1
  Cr  Cr9  1  0.32843402  0.99449466  0.99449811  1
  Cr  Cr10  1  0.49744358  0.16072672  0.16101449  1
  Ni  Ni11  1  0.32554362  0.99235397  0.33031962  1
  Cr  Cr12  1  0.33297477  0.32951915  0.99304126  1
  Cr  Cr13  1  0.49672082  0.49697535  0.16315752  1
  Cr  Cr14  1  0.32811761  0.32920934  0.32998165  1
  Cr  Cr15  1  0.32919446  0.66230300  0.99457554  1
  Cr  Cr16  1  0.49671308  0.82849287  0.16346775  1
  Ni  Ni17  1  0.32954851  0.66466953  0.32978405  1
  Ni  Ni18  1  0.66536873  -0.00362400  0.99420730  1
  Ni  Ni19  1  0.82907109  0.16009235  0.16007636  1
  Cr  Cr20  1  0.66432961  0.99419195  0.32726170  1
  Ni  Ni21  1  0.66345552  0.32789840  0.99271589  1
  Cr  Cr22  1  0.82836614  0.49629574  0.16175304  1
  Cr  Cr23  1  0.66344762  0.33020296  0.32878605  1
  Ni  Ni24  1  0.66405406  0.66197811  0.99398077  1
  Ni  Ni25  1  0.82951735  0.82955516  0.15918363  1
  Ni  Ni26  1  0.65977164  0.66174290  0.32882552  1
  Ni  Ni27  1  0.16241899  0.16054490  0.49515300  1
  Cr  Cr28  1  -0.00420112  -0.00437979  0.66034700  1
  Cr  Cr29  1  0.16175613  0.16179139  0.82720875  1
  Cr  Cr30  1  0.16061557  0.49459751  0.49573224  1
  Ni  Ni31  1  0.99440665  0.32904618  0.66244360  1
  Cr  Cr32  1  0.15807510  0.49606556  0.82861020  1
  Ni  Ni33  1  0.16448656  0.83039229  0.49508235  1
  Ni  Ni34  1  -0.00434593  0.66054659  0.66230277  1
  Cr  Cr35  1  0.16175543  0.82838065  0.82872990  1
  Cr  Cr36  1  0.49324718  0.15964248  0.49601118  1
  Ni  Ni37  1  0.33000917  -0.00456189  0.66153165  1
  Ni  Ni38  1  0.49936117  0.16011222  0.82874174  1
  Ni  Ni39  1  0.49484595  0.49747635  0.49282260  1
  Cr  Cr40  1  0.32998997  0.32803665  0.66311290  1
  Ni  Ni41  1  0.49950778  0.49525959  0.83090484  1
  Cr  Cr42  1  0.49442232  0.82915358  0.49459048  1
  Cr  Cr43  1  0.32923290  0.66328436  0.66238714  1
  Ni  Ni44  1  0.49772350  0.83095208  0.82842150  1
  Cr  Cr45  1  0.83071808  0.16328780  0.49641547  1
  Ni  Ni46  1  0.65961990  -0.00338903  0.66531607  1
  Ni  Ni47  1  0.82531384  0.16334284  0.82988550  1
  Cr  Cr48  1  0.82950102  0.49572851  0.49572603  1
  Cr  Cr49  1  0.66221789  0.32850647  0.66466275  1
  Ni  Ni50  1  0.82754622  0.49441638  0.82933714  1
  Cr  Cr51  1  0.82786598  0.82739161  0.49693349  1
  Cr  Cr52  1  0.66154833  0.66131625  0.66273963  1
  Cr  Cr53  1  0.82710766  0.82823308  0.82980619  1
" 