3719,Ni56Fe40Cr3_3,-239.373088937786, 217.747509148794,Ni56Fe40Cr3,"# generated using pymatgen
 data_CrFe7Ni10
_symmetry_space_group_name_H-M   'P 1'
_cell_length_a   7.40668801
_cell_length_b   7.40668801
_cell_length_c   10.47463864
_cell_angle_alpha   90.00000000
_cell_angle_beta   90.00000000
_cell_angle_gamma   90.00000000
_symmetry_Int_Tables_number   1
_chemical_formula_structural   CrFe7Ni10
_chemical_formula_sum   'Cr3 Fe21 Ni30'
_cell_volume   574.62848686
_cell_formula_units_Z   3
loop_
 _symmetry_equiv_pos_site_id
 _symmetry_equiv_pos_as_xyz
  1  'x, y, z'
loop_
 _atom_site_type_symbol
 _atom_site_label
 _atom_site_symmetry_multiplicity
 _atom_site_fract_x
 _atom_site_fract_y
 _atom_site_fract_z
 _atom_site_occupancy
  Ni  Ni0  1  1.00336710  1.00367117  1.00291241  1
  Fe  Fe1  1  0.17111429  0.17003670  0.17084854  1
  Ni  Ni2  1  1.00244422  1.00212911  0.33676751  1
  Ni  Ni3  1  0.00505298  0.33856546  0.00543102  1
  Ni  Ni4  1  0.17080930  0.50224124  0.17134005  1
  Fe  Fe5  1  0.00421016  0.33938171  0.33678266  1
  Ni  Ni6  1  1.00318753  0.67012709  1.00376034  1
  Fe  Fe7  1  0.16933584  0.83574939  0.16974145  1
  Ni  Ni8  1  0.00510793  0.67222862  0.33812081  1
  Ni  Ni9  1  0.33740990  0.00566702  1.00315666  1
  Fe  Fe10  1  0.50410425  0.17281347  0.17028623  1
  Fe  Fe11  1  0.33673343  1.00363499  0.33750942  1
  Ni  Ni12  1  0.33765425  0.33810171  1.00386955  1
  Ni  Ni13  1  0.50244785  0.50275504  0.17119382  1
  Ni  Ni14  1  0.33977419  0.33931448  0.33707231  1
  Fe  Fe15  1  0.33481118  0.66965880  1.00378798  1
  Cr  Cr16  1  0.50570989  0.83720127  0.16933941  1
  Ni  Ni17  1  0.33626351  0.66921822  0.33868647  1
  Ni  Ni18  1  0.67120117  1.00402608  1.00239516  1
  Fe  Fe19  1  0.83739802  0.17118648  0.16992171  1
  Fe  Fe20  1  0.67161770  0.00436641  0.33775728  1
  Fe  Fe21  1  0.67126424  0.33653702  0.00429056  1
  Fe  Fe22  1  0.83678036  0.50580737  0.17128330  1
  Ni  Ni23  1  0.66972825  0.33721066  0.33810602  1
  Fe  Fe24  1  0.67165594  0.66952896  1.00232885  1
  Ni  Ni25  1  0.83865522  0.83851977  0.16998155  1
  Fe  Fe26  1  0.67170331  0.66962585  0.33871486  1
  Cr  Cr27  1  0.17115968  0.17240280  0.50506743  1
  Ni  Ni28  1  0.00485156  0.00436361  0.67257738  1
  Fe  Fe29  1  0.16959564  0.17180189  0.83728716  1
  Ni  Ni30  1  0.17019771  0.50466789  0.50446152  1
  Ni  Ni31  1  1.00329955  0.33951605  0.67124226  1
  Ni  Ni32  1  0.17064359  0.50423594  0.83699438  1
  Fe  Fe33  1  0.17047633  0.83671354  0.50497840  1
  Fe  Fe34  1  1.00298697  0.67170954  0.67126011  1
  Ni  Ni35  1  0.17017466  0.83770593  0.83762440  1
  Ni  Ni36  1  0.50378269  0.17001897  0.50200524  1
  Ni  Ni37  1  0.33753767  1.00353508  0.67171270  1
  Ni  Ni38  1  0.50330471  0.17092068  0.83896593  1
  Fe  Fe39  1  0.50475797  0.50446332  0.50382439  1
  Fe  Fe40  1  0.33879675  0.33738003  0.67168078  1
  Ni  Ni41  1  0.50357459  0.50239741  0.83707725  1
  Ni  Ni42  1  0.50457104  0.83799913  0.50308707  1
  Fe  Fe43  1  0.33670021  0.67128937  0.67021894  1
  Fe  Fe44  1  0.50371371  0.83538900  0.83788337  1
  Fe  Fe45  1  0.83729997  0.17172034  0.50384688  1
  Cr  Cr46  1  0.67109009  1.00283121  0.67077846  1
  Ni  Ni47  1  0.83767407  0.17118910  0.83759741  1
  Ni  Ni48  1  0.83906868  0.50545717  0.50343362  1
  Fe  Fe49  1  0.67128478  0.33741710  0.67029429  1
  Ni  Ni50  1  0.83780733  0.50368437  0.83845679  1
  Ni  Ni51  1  0.83715741  0.83648419  0.50329775  1
  Ni  Ni52  1  0.67043960  0.66836435  0.67042684  1
  Ni  Ni53  1  0.83854311  0.83706999  0.83856545  1
" 