2564,Ni56Cr44_15,-216.686009338623, 131.428889809332,Ni56Cr44,"# generated using pymatgen
 data_Cr5Ni4
_symmetry_space_group_name_H-M   'P 1'
_cell_length_a   7.53869128
_cell_length_b   7.53869128
_cell_length_c   10.66131946
_cell_angle_alpha   90.00000000
_cell_angle_beta   90.00000000
_cell_angle_gamma   90.00000000
_symmetry_Int_Tables_number   1
_chemical_formula_structural   Cr5Ni4
_chemical_formula_sum   'Cr30 Ni24'
_cell_volume   605.90268171
_cell_formula_units_Z   6
loop_
 _symmetry_equiv_pos_site_id
 _symmetry_equiv_pos_as_xyz
  1  'x, y, z'
loop_
 _atom_site_type_symbol
 _atom_site_label
 _atom_site_symmetry_multiplicity
 _atom_site_fract_x
 _atom_site_fract_y
 _atom_site_fract_z
 _atom_site_occupancy
  Ni  Ni0  1  -0.00322433  -0.00340032  0.99385085  1
  Ni  Ni1  1  0.16626110  0.16086616  0.15942165  1
  Cr  Cr2  1  0.99484918  -0.00327032  0.32935240  1
  Cr  Cr3  1  0.00045976  0.32603827  -0.00193658  1
  Ni  Ni4  1  0.16553154  0.49233073  0.16078223  1
  Cr  Cr5  1  -0.00362609  0.32721244  0.32837571  1
  Cr  Cr6  1  -0.00394932  0.66452291  -0.00419180  1
  Cr  Cr7  1  0.16410905  0.83172286  0.16127420  1
  Cr  Cr8  1  0.99446730  0.66199796  0.32885326  1
  Ni  Ni9  1  0.33038956  -0.00160944  0.99521060  1
  Ni  Ni10  1  0.49272620  0.15902274  0.16098285  1
  Ni  Ni11  1  0.33129496  -0.00368998  0.32546312  1
  Ni  Ni12  1  0.32957129  0.32523490  -0.00391129  1
  Ni  Ni13  1  0.49385693  0.49495092  0.16169919  1
  Cr  Cr14  1  0.32760355  0.32685467  0.32471604  1
  Cr  Cr15  1  0.33052904  0.66126616  -0.00400083  1
  Ni  Ni16  1  0.49594620  0.83159738  0.16279724  1
  Cr  Cr17  1  0.32940126  0.66222342  0.32551145  1
  Ni  Ni18  1  0.65855321  0.99436731  0.99441659  1
  Cr  Cr19  1  0.82584046  0.15935360  0.16013765  1
  Ni  Ni20  1  0.66071478  0.99330762  0.32818940  1
  Cr  Cr21  1  0.65613966  0.32668832  0.99410473  1
  Cr  Cr22  1  0.82676588  0.49574702  0.16193652  1
  Cr  Cr23  1  0.66216173  0.32695043  0.32986599  1
  Cr  Cr24  1  0.65925313  0.66493238  0.99291093  1
  Cr  Cr25  1  0.82508967  0.83043759  0.16010080  1
  Ni  Ni26  1  0.66186239  0.66414438  0.32844377  1
  Cr  Cr27  1  0.16326711  0.15994622  0.49770219  1
  Ni  Ni28  1  0.99463946  -0.00453748  0.66219396  1
  Ni  Ni29  1  0.16378684  0.15996201  0.82878453  1
  Cr  Cr30  1  0.16073663  0.49570344  0.49781746  1
  Ni  Ni31  1  0.99446464  0.32647217  0.66047352  1
  Cr  Cr32  1  0.16114393  0.49294750  0.82770499  1
  Cr  Cr33  1  0.16309637  0.83032204  0.49764557  1
  Ni  Ni34  1  0.99191463  0.66394131  0.66067705  1
  Cr  Cr35  1  0.16082234  0.83203207  0.82700841  1
  Cr  Cr36  1  0.49514827  0.15894243  0.49398617  1
  Ni  Ni37  1  0.32774168  -0.00366083  0.66496934  1
  Ni  Ni38  1  0.49158144  0.15935239  0.83075937  1
  Cr  Cr39  1  0.49701461  0.49598744  0.49459808  1
  Cr  Cr40  1  0.32977302  0.32609250  0.66511007  1
  Ni  Ni41  1  0.49378461  0.49389314  0.82997125  1
  Cr  Cr42  1  0.49466470  0.83059526  0.49222486  1
  Cr  Cr43  1  0.33037776  0.66421703  0.66427215  1
  Ni  Ni44  1  0.49527848  0.83257857  0.83000643  1
  Ni  Ni45  1  0.82957111  0.16060343  0.49618967  1
  Cr  Cr46  1  0.66196381  0.99485546  0.66294848  1
  Cr  Cr47  1  0.83015107  0.16021453  0.83020495  1
  Ni  Ni48  1  0.82944728  0.49639163  0.49632823  1
  Cr  Cr49  1  0.66229736  0.32700164  0.66195400  1
  Cr  Cr50  1  0.82938183  0.49569351  0.82770531  1
  Ni  Ni51  1  0.82819609  0.82871037  0.49545615  1
  Cr  Cr52  1  0.66203302  0.66399728  0.66366811  1
  Ni  Ni53  1  0.82855032  0.83135134  0.82868952  1
" 