6458,Ni56Fe27Cr16_9,-234.033135293204, 197.250154966339,Ni56Fe27Cr16,"# generated using pymatgen
 data_Cr5Fe7Ni15
_symmetry_space_group_name_H-M   'P 1'
_cell_length_a   7.43540430
_cell_length_b   7.43540430
_cell_length_c   10.51524960
_cell_angle_alpha   90.00000000
_cell_angle_beta   90.00000000
_cell_angle_gamma   90.00000000
_symmetry_Int_Tables_number   1
_chemical_formula_structural   Cr5Fe7Ni15
_chemical_formula_sum   'Cr10 Fe14 Ni30'
_cell_volume   581.33806698
_cell_formula_units_Z   2
loop_
 _symmetry_equiv_pos_site_id
 _symmetry_equiv_pos_as_xyz
  1  'x, y, z'
loop_
 _atom_site_type_symbol
 _atom_site_label
 _atom_site_symmetry_multiplicity
 _atom_site_fract_x
 _atom_site_fract_y
 _atom_site_fract_z
 _atom_site_occupancy
  Ni  Ni0  1  0.00411782  0.00282023  0.00241924  1
  Ni  Ni1  1  0.16707299  0.16836779  0.16937203  1
  Ni  Ni2  1  1.00100196  0.00584678  0.33246344  1
  Ni  Ni3  1  0.00377340  0.33496232  1.00191403  1
  Ni  Ni4  1  0.16957705  0.50188250  0.16828609  1
  Ni  Ni5  1  1.00172734  0.33328492  0.33562166  1
  Ni  Ni6  1  1.00194036  0.66860129  1.00166349  1
  Fe  Fe7  1  0.16896031  0.83616178  0.16773579  1
  Cr  Cr8  1  0.00281207  0.66687082  0.33449767  1
  Ni  Ni9  1  0.33249325  1.00167499  1.00149049  1
  Cr  Cr10  1  0.50166963  0.17042926  0.16894739  1
  Fe  Fe11  1  0.33568872  1.00066686  0.33357515  1
  Ni  Ni12  1  0.33335698  0.33662973  0.00230502  1
  Ni  Ni13  1  0.50241825  0.50391760  0.16940822  1
  Fe  Fe14  1  0.33463898  0.33825708  0.33411915  1
  Fe  Fe15  1  0.33503175  0.66870665  0.00222407  1
  Fe  Fe16  1  0.50171123  0.83279663  0.16950448  1
  Ni  Ni17  1  0.33856531  0.66780652  0.33476369  1
  Cr  Cr18  1  0.67042877  1.00038110  1.00182915  1
  Ni  Ni19  1  0.83790330  0.16912257  0.17062829  1
  Ni  Ni20  1  0.66948256  1.00189902  0.33561786  1
  Fe  Fe21  1  0.67069472  0.33835349  0.00235790  1
  Ni  Ni22  1  0.83438800  0.50213756  0.16839186  1
  Ni  Ni23  1  0.67004212  0.33595480  0.33540704  1
  Ni  Ni24  1  0.66810775  0.66773246  0.00226037  1
  Fe  Fe25  1  0.83571047  0.83505799  0.16857932  1
  Ni  Ni26  1  0.66451694  0.66852876  0.33517746  1
  Cr  Cr27  1  0.16646538  0.16977546  0.50105811  1
  Ni  Ni28  1  1.00102802  0.00345282  0.67150083  1
  Ni  Ni29  1  0.16663590  0.16714466  0.83587990  1
  Ni  Ni30  1  0.16837914  0.50213292  0.50138574  1
  Ni  Ni31  1  0.99994339  0.33469614  0.66884709  1
  Fe  Fe32  1  0.16699771  0.50217131  0.83683117  1
  Cr  Cr33  1  0.16869537  0.83446598  0.50244741  1
  Ni  Ni34  1  1.00074829  0.66822817  0.67007924  1
  Ni  Ni35  1  0.16730310  0.83645948  0.83588191  1
  Cr  Cr36  1  0.50478016  0.16868597  0.50170740  1
  Fe  Fe37  1  0.33481837  1.00049438  0.67129986  1
  Cr  Cr38  1  0.50197114  0.16985656  0.83572741  1
  Fe  Fe39  1  0.50392667  0.50339113  0.50059931  1
  Cr  Cr40  1  0.33423725  0.33623625  0.66919170  1
  Ni  Ni41  1  0.50391775  0.50374389  0.83717374  1
  Fe  Fe42  1  0.50297293  0.83456572  0.50128273  1
  Cr  Cr43  1  0.33641863  0.66941224  0.66997647  1
  Ni  Ni44  1  0.50209780  0.83318412  0.83443096  1
  Ni  Ni45  1  0.83453411  0.17018024  0.50186691  1
  Fe  Fe46  1  0.67098151  1.00151757  0.66946474  1
  Ni  Ni47  1  0.83795366  0.16896341  0.83389105  1
  Fe  Fe48  1  0.83521203  0.49926731  0.50271138  1
  Ni  Ni49  1  0.67170082  0.33639617  0.66904871  1
  Fe  Fe50  1  0.83532764  0.50283341  0.83554409  1
  Cr  Cr51  1  0.83429888  0.83576809  0.50310428  1
  Ni  Ni52  1  0.66874688  0.66868740  0.66894575  1
  Ni  Ni53  1  0.83698102  0.83434327  0.83446736  1
" 