7835,Ni56Fe11Cr32_19,-226.780429240748, 154.410276875922,Ni56Fe11Cr32,"# generated using pymatgen
 data_Cr3FeNi5
_symmetry_space_group_name_H-M   'P 1'
_cell_length_a   7.48267327
_cell_length_b   7.48267327
_cell_length_c   10.58209802
_cell_angle_alpha   90.00000000
_cell_angle_beta   90.00000000
_cell_angle_gamma   90.00000000
_symmetry_Int_Tables_number   1
_chemical_formula_structural   Cr3FeNi5
_chemical_formula_sum   'Cr18 Fe6 Ni30'
_cell_volume   592.49589385
_cell_formula_units_Z   6
loop_
 _symmetry_equiv_pos_site_id
 _symmetry_equiv_pos_as_xyz
  1  'x, y, z'
loop_
 _atom_site_type_symbol
 _atom_site_label
 _atom_site_symmetry_multiplicity
 _atom_site_fract_x
 _atom_site_fract_y
 _atom_site_fract_z
 _atom_site_occupancy
  Cr  Cr0  1  0.99880187  0.99688261  0.00150329  1
  Cr  Cr1  1  0.16798218  0.16427908  0.16743257  1
  Ni  Ni2  1  0.99578528  0.99560639  0.32951561  1
  Ni  Ni3  1  0.99841559  0.33520369  -0.00001972  1
  Cr  Cr4  1  0.16641568  0.50081436  0.16759128  1
  Cr  Cr5  1  0.99497458  0.33271440  0.33203988  1
  Ni  Ni6  1  0.99747370  0.66389380  0.00030659  1
  Ni  Ni7  1  0.16428117  0.83171362  0.16752281  1
  Ni  Ni8  1  0.99540868  0.66890831  0.33073490  1
  Ni  Ni9  1  0.33397545  0.00011659  -0.00008526  1
  Ni  Ni10  1  0.50085435  0.16720087  0.16657238  1
  Ni  Ni11  1  0.33489631  -0.00103527  0.33173163  1
  Ni  Ni12  1  0.33425823  0.33262178  -0.00077779  1
  Ni  Ni13  1  0.50184211  0.49702650  0.16532924  1
  Ni  Ni14  1  0.33778190  0.33183227  0.33111703  1
  Cr  Cr15  1  0.33257066  0.66494308  0.99780731  1
  Cr  Cr16  1  0.49993027  0.83211803  0.16746476  1
  Ni  Ni17  1  0.33423982  0.66584792  0.33062125  1
  Ni  Ni18  1  0.66431248  -0.00082868  0.00222438  1
  Ni  Ni19  1  0.82838864  0.16577621  0.16462034  1
  Ni  Ni20  1  0.66619486  -0.00085153  0.33244223  1
  Fe  Fe21  1  0.66512116  0.33339250  0.00208722  1
  Ni  Ni22  1  0.82935372  0.50045323  0.16639246  1
  Ni  Ni23  1  0.66333218  0.33218902  0.32946876  1
  Ni  Ni24  1  0.66711102  0.66389394  0.00118621  1
  Ni  Ni25  1  0.83177416  0.83084925  0.16625837  1
  Ni  Ni26  1  0.66724261  0.66540341  0.33228056  1
  Cr  Cr27  1  0.16913465  0.16631855  0.49808961  1
  Cr  Cr28  1  0.99863644  0.99722712  0.66615248  1
  Cr  Cr29  1  0.16696116  0.16718161  0.83154275  1
  Cr  Cr30  1  0.16637027  0.49990634  0.49901574  1
  Ni  Ni31  1  0.99882115  0.33638533  0.66578209  1
  Fe  Fe32  1  0.16532176  0.49957341  0.83170438  1
  Cr  Cr33  1  0.16631360  0.83074517  0.49618306  1
  Ni  Ni34  1  0.99893682  0.66398079  0.66570752  1
  Ni  Ni35  1  0.16729214  0.82929142  0.83154303  1
  Fe  Fe36  1  0.49924626  0.16431801  0.49801324  1
  Ni  Ni37  1  0.33543469  0.99801975  0.66456598  1
  Cr  Cr38  1  0.50027674  0.16609202  0.83257691  1
  Cr  Cr39  1  0.49989942  0.49968417  0.49797230  1
  Ni  Ni40  1  0.33402155  0.33371010  0.66682466  1
  Fe  Fe41  1  0.49906410  0.49889675  0.83148545  1
  Fe  Fe42  1  0.49987605  0.83302852  0.49830015  1
  Ni  Ni43  1  0.33266691  0.66491430  0.66793052  1
  Cr  Cr44  1  0.50066143  0.83187447  0.83034501  1
  Cr  Cr45  1  0.82937629  0.16562529  0.50065100  1
  Ni  Ni46  1  0.66230442  0.99826898  0.66264757  1
  Cr  Cr47  1  0.82953279  0.16759754  0.83330084  1
  Fe  Fe48  1  0.83186228  0.50175169  0.49907066  1
  Ni  Ni49  1  0.66395686  0.33353570  0.66498584  1
  Cr  Cr50  1  0.83061606  0.49922284  0.83109436  1
  Ni  Ni51  1  0.82913483  0.83014209  0.49860062  1
  Ni  Ni52  1  0.66518697  0.66533184  0.66320548  1
  Cr  Cr53  1  0.82999303  0.83002818  0.83295783  1
" 