3308,Ni56Fe40Cr3_9,-240.042681632977, 216.8295555465,Ni56Fe40Cr3,"# generated using pymatgen
 data_CrFe7Ni10
_symmetry_space_group_name_H-M   'P 1'
_cell_length_a   7.41256979
_cell_length_b   7.41256979
_cell_length_c   10.48295674
_cell_angle_alpha   90.00000000
_cell_angle_beta   90.00000000
_cell_angle_gamma   90.00000000
_symmetry_Int_Tables_number   1
_chemical_formula_structural   CrFe7Ni10
_chemical_formula_sum   'Cr3 Fe21 Ni30'
_cell_volume   575.99854262
_cell_formula_units_Z   3
loop_
 _symmetry_equiv_pos_site_id
 _symmetry_equiv_pos_as_xyz
  1  'x, y, z'
loop_
 _atom_site_type_symbol
 _atom_site_label
 _atom_site_symmetry_multiplicity
 _atom_site_fract_x
 _atom_site_fract_y
 _atom_site_fract_z
 _atom_site_occupancy
  Fe  Fe0  1  0.00418687  0.00583673  1.00205045  1
  Ni  Ni1  1  0.16937185  0.16756158  0.16895616  1
  Fe  Fe2  1  0.00474247  1.00317089  0.33834532  1
  Ni  Ni3  1  1.00152578  0.33663471  1.00340134  1
  Cr  Cr4  1  0.16895464  0.50378942  0.17045321  1
  Fe  Fe5  1  1.00237227  0.33640898  0.33851665  1
  Cr  Cr6  1  1.00274667  0.67189959  1.00075129  1
  Ni  Ni7  1  0.17176116  0.83947728  0.17127424  1
  Fe  Fe8  1  0.00407161  0.67151247  0.33848821  1
  Ni  Ni9  1  0.33716799  1.00281266  0.00409263  1
  Ni  Ni10  1  0.50501577  0.16718669  0.16853463  1
  Ni  Ni11  1  0.33650184  1.00279680  0.33738900  1
  Fe  Fe12  1  0.33669256  0.33536242  1.00269912  1
  Fe  Fe13  1  0.50435590  0.50421329  0.16985456  1
  Cr  Cr14  1  0.33814995  0.33406979  0.33763852  1
  Fe  Fe15  1  0.33856435  0.67103686  1.00208842  1
  Ni  Ni16  1  0.50443907  0.83814213  0.17059580  1
  Ni  Ni17  1  0.33854786  0.67309152  0.33641189  1
  Fe  Fe18  1  0.67072720  0.00391685  1.00187583  1
  Fe  Fe19  1  0.83732511  0.16966919  0.16937190  1
  Fe  Fe20  1  0.66779775  1.00329131  0.33844310  1
  Ni  Ni21  1  0.67070596  0.33737390  0.00512372  1
  Ni  Ni22  1  0.83515778  0.50322061  0.17145682  1
  Fe  Fe23  1  0.67003412  0.33648605  0.33770736  1
  Fe  Fe24  1  0.66878563  0.67037841  0.00407404  1
  Fe  Fe25  1  0.83728581  0.83831904  0.17175835  1
  Ni  Ni26  1  0.67151625  0.66989805  0.33564138  1
  Ni  Ni27  1  0.16949287  0.16902600  0.50545361  1
  Ni  Ni28  1  0.00465623  0.00390409  0.67144028  1
  Ni  Ni29  1  0.16832757  0.17049000  0.83711931  1
  Ni  Ni30  1  0.16935777  0.50433255  0.50466837  1
  Ni  Ni31  1  1.00285846  0.33741086  0.67053383  1
  Ni  Ni32  1  0.17127806  0.50276875  0.83462721  1
  Fe  Fe33  1  0.17144620  0.83630748  0.50428656  1
  Ni  Ni34  1  0.00395237  0.66976665  0.67012000  1
  Ni  Ni35  1  0.17249361  0.83802079  0.83532800  1
  Ni  Ni36  1  0.50446987  0.16813417  0.50658233  1
  Ni  Ni37  1  0.33686851  1.00366190  0.66970255  1
  Fe  Fe38  1  0.50228109  0.17066753  0.83679413  1
  Ni  Ni39  1  0.50526584  0.50506950  0.50319767  1
  Fe  Fe40  1  0.33725333  0.33767600  0.66922331  1
  Ni  Ni41  1  0.50462940  0.50483566  0.83759916  1
  Fe  Fe42  1  0.50368485  0.83547212  0.50401293  1
  Ni  Ni43  1  0.33736900  0.67113701  0.67013050  1
  Ni  Ni44  1  0.50442501  0.83687282  0.83600137  1
  Fe  Fe45  1  0.83699713  0.17210581  0.50620772  1
  Ni  Ni46  1  0.66933320  0.00410682  0.67065897  1
  Ni  Ni47  1  0.83635196  0.17060739  0.83637175  1
  Ni  Ni48  1  0.83651676  0.50499677  0.50452508  1
  Ni  Ni49  1  0.67027676  0.33765092  0.66977924  1
  Fe  Fe50  1  0.83669822  0.50174575  0.83613746  1
  Fe  Fe51  1  0.83617514  0.83683345  0.50529875  1
  Ni  Ni52  1  0.67034879  0.66930139  0.67165465  1
  Fe  Fe53  1  0.83712109  0.83797394  0.83398466  1
" 