3172,Ni56Fe20Cr22_4,-230.825207127267, 182.1603180348,Ni56Fe20Cr22,"# generated using pymatgen
 data_Cr7(FeNi3)5
_symmetry_space_group_name_H-M   'P 1'
_cell_length_a   7.45890528
_cell_length_b   7.45890528
_cell_length_c   10.54848500
_cell_angle_alpha   90.00000000
_cell_angle_beta   90.00000000
_cell_angle_gamma   90.00000000
_symmetry_Int_Tables_number   1
_chemical_formula_structural   Cr7(FeNi3)5
_chemical_formula_sum   'Cr14 Fe10 Ni30'
_cell_volume   586.86778926
_cell_formula_units_Z   2
loop_
 _symmetry_equiv_pos_site_id
 _symmetry_equiv_pos_as_xyz
  1  'x, y, z'
loop_
 _atom_site_type_symbol
 _atom_site_label
 _atom_site_symmetry_multiplicity
 _atom_site_fract_x
 _atom_site_fract_y
 _atom_site_fract_z
 _atom_site_occupancy
  Ni  Ni0  1  0.99887575  0.99960875  1.00040309  1
  Ni  Ni1  1  0.16580260  0.16790301  0.16670057  1
  Cr  Cr2  1  0.99870850  0.00064566  0.33387039  1
  Ni  Ni3  1  0.99768223  0.33123902  0.00349341  1
  Ni  Ni4  1  0.16587313  0.50035149  0.16983279  1
  Fe  Fe5  1  0.00175151  0.33330566  0.33284425  1
  Fe  Fe6  1  1.00017027  0.66857171  0.00299373  1
  Ni  Ni7  1  0.16616134  0.83304738  0.16844272  1
  Ni  Ni8  1  0.00143558  0.66632888  0.33080601  1
  Cr  Cr9  1  0.33144662  0.99911431  0.00157054  1
  Ni  Ni10  1  0.50287188  0.16734479  0.16894549  1
  Ni  Ni11  1  0.33553202  0.00138132  0.33186790  1
  Cr  Cr12  1  0.33428370  0.33261494  0.00262611  1
  Ni  Ni13  1  0.50032893  0.49921818  0.16809071  1
  Fe  Fe14  1  0.33473891  0.33301189  0.33376025  1
  Cr  Cr15  1  0.33514894  0.66914167  0.00140837  1
  Ni  Ni16  1  0.50147623  0.83532246  0.16889573  1
  Ni  Ni17  1  0.33436305  0.66610987  0.33355142  1
  Fe  Fe18  1  0.66842797  1.00011859  0.00342284  1
  Ni  Ni19  1  0.83281922  0.16728448  0.16742464  1
  Ni  Ni20  1  0.66612073  0.00268127  0.33362174  1
  Ni  Ni21  1  0.66964257  0.33517353  0.00475014  1
  Fe  Fe22  1  0.83422975  0.49965386  0.16733763  1
  Ni  Ni23  1  0.66602497  0.33218319  0.33298390  1
  Fe  Fe24  1  0.66860080  0.66994659  0.00271447  1
  Ni  Ni25  1  0.83456861  0.83561920  0.16519728  1
  Cr  Cr26  1  0.66681480  0.66800777  0.33388429  1
  Ni  Ni27  1  0.16824306  0.16810067  0.50215993  1
  Ni  Ni28  1  1.00019417  0.00149692  0.66743318  1
  Fe  Fe29  1  0.16443491  0.16367570  0.83323748  1
  Ni  Ni30  1  0.16855161  0.49852066  0.49837252  1
  Ni  Ni31  1  0.99847023  0.32988624  0.66499444  1
  Cr  Cr32  1  0.16494648  0.49976237  0.83285875  1
  Cr  Cr33  1  0.16913684  0.83353535  0.49799714  1
  Cr  Cr34  1  0.00055154  0.67000219  0.66669215  1
  Ni  Ni35  1  0.16613651  0.83559975  0.83311671  1
  Ni  Ni36  1  0.50075072  0.16597913  0.49894375  1
  Ni  Ni37  1  0.33307659  0.99840627  0.66808148  1
  Cr  Cr38  1  0.50306404  0.16510716  0.83493398  1
  Ni  Ni39  1  0.49921310  0.49966977  0.50137228  1
  Cr  Cr40  1  0.33402678  0.33281711  0.66626137  1
  Cr  Cr41  1  0.50357968  0.50179592  0.83211371  1
  Ni  Ni42  1  0.50092630  0.83624785  0.50133316  1
  Ni  Ni43  1  0.33676655  0.67042620  0.66576010  1
  Ni  Ni44  1  0.50224227  0.83511236  0.83138015  1
  Fe  Fe45  1  0.83216497  0.16614549  0.50055482  1
  Fe  Fe46  1  0.66712085  0.99963472  0.66474364  1
  Cr  Cr47  1  0.83351086  0.16670572  0.83287766  1
  Cr  Cr48  1  0.83555127  0.49978111  0.49981907  1
  Ni  Ni49  1  0.66795066  0.33325997  0.66438520  1
  Cr  Cr50  1  0.83322085  0.50007091  0.83631944  1
  Ni  Ni51  1  0.83194305  0.83672189  0.50145395  1
  Fe  Fe52  1  0.66649874  0.67028501  0.66572750  1
  Ni  Ni53  1  0.83330063  0.83579800  0.83510990  1
" 