8423,Ni56Fe22Cr21_3,-231.585881807042, 185.146582268006,Ni56Fe22Cr21,"# generated using pymatgen
 data_Cr13Fe11Ni30
_symmetry_space_group_name_H-M   'P 1'
_cell_length_a   7.45241603
_cell_length_b   7.45241603
_cell_length_c   10.53930782
_cell_angle_alpha   90.00000000
_cell_angle_beta   90.00000000
_cell_angle_gamma   90.00000000
_symmetry_Int_Tables_number   1
_chemical_formula_structural   Cr13Fe11Ni30
_chemical_formula_sum   'Cr13 Fe11 Ni30'
_cell_volume   585.33739707
_cell_formula_units_Z   1
loop_
 _symmetry_equiv_pos_site_id
 _symmetry_equiv_pos_as_xyz
  1  'x, y, z'
loop_
 _atom_site_type_symbol
 _atom_site_label
 _atom_site_symmetry_multiplicity
 _atom_site_fract_x
 _atom_site_fract_y
 _atom_site_fract_z
 _atom_site_occupancy
  Ni  Ni0  1  1.00097186  0.00259810  0.99973268  1
  Cr  Cr1  1  0.16816753  0.16591374  0.16547989  1
  Ni  Ni2  1  0.99938534  1.00043074  0.33326439  1
  Ni  Ni3  1  0.99905607  0.33414107  0.99895594  1
  Cr  Cr4  1  0.16712678  0.50103410  0.17237625  1
  Ni  Ni5  1  1.00009584  0.33382556  0.33460085  1
  Cr  Cr6  1  1.00023884  0.66984901  0.00111010  1
  Ni  Ni7  1  0.16884891  0.83640958  0.16934631  1
  Fe  Fe8  1  1.00058343  0.67053442  0.33437436  1
  Ni  Ni9  1  0.33491467  0.00208528  0.99993505  1
  Ni  Ni10  1  0.50105994  0.16681062  0.16887814  1
  Ni  Ni11  1  0.33547514  0.99887118  0.33308685  1
  Ni  Ni12  1  0.33540236  0.33342641  0.99982266  1
  Fe  Fe13  1  0.50080114  0.49968922  0.16829603  1
  Ni  Ni14  1  0.33463509  0.33481963  0.33573397  1
  Cr  Cr15  1  0.33464998  0.66976274  0.99961021  1
  Fe  Fe16  1  0.50034123  0.83506924  0.16904352  1
  Ni  Ni17  1  0.33523894  0.66931592  0.33618523  1
  Cr  Cr18  1  0.66812634  1.00088548  0.00372752  1
  Ni  Ni19  1  0.83396182  0.16840068  0.16863319  1
  Ni  Ni20  1  0.66840561  0.99850654  0.33505668  1
  Fe  Fe21  1  0.66744052  0.33250059  0.00174805  1
  Ni  Ni22  1  0.83136485  0.50087841  0.16664050  1
  Cr  Cr23  1  0.66782041  0.33086026  0.33461131  1
  Fe  Fe24  1  0.66765108  0.66687326  1.00095088  1
  Fe  Fe25  1  0.83580501  0.83584664  0.16948683  1
  Ni  Ni26  1  0.66658444  0.66966074  0.33152269  1
  Cr  Cr27  1  0.16617246  0.16633065  0.49999349  1
  Fe  Fe28  1  1.00041398  1.00082959  0.66784281  1
  Fe  Fe29  1  0.16851541  0.16665687  0.83557809  1
  Ni  Ni30  1  0.16896708  0.50190574  0.49699922  1
  Ni  Ni31  1  1.00063575  0.33279745  0.66939021  1
  Ni  Ni32  1  0.16780367  0.49919463  0.83460934  1
  Ni  Ni33  1  0.16827102  0.83521707  0.49896976  1
  Cr  Cr34  1  0.00303718  0.66749521  0.66781171  1
  Ni  Ni35  1  0.16759216  0.83744554  0.83421776  1
  Fe  Fe36  1  0.50027508  0.16386159  0.49985464  1
  Ni  Ni37  1  0.33664531  0.99975224  0.66960388  1
  Ni  Ni38  1  0.50205526  0.16634145  0.83458057  1
  Ni  Ni39  1  0.49941777  0.50294984  0.49725598  1
  Cr  Cr40  1  0.33337443  0.33473442  0.66649516  1
  Ni  Ni41  1  0.50094081  0.49938707  0.83816873  1
  Fe  Fe42  1  0.50143285  0.83546036  0.49985527  1
  Cr  Cr43  1  0.33357022  0.66871020  0.66760845  1
  Ni  Ni44  1  0.50155150  0.83618754  0.83443861  1
  Ni  Ni45  1  0.83430400  0.16352200  0.50096718  1
  Ni  Ni46  1  0.66816783  1.00082419  0.66581275  1
  Ni  Ni47  1  0.83502900  0.16645898  0.83366724  1
  Cr  Cr48  1  0.83464006  0.50145504  0.50048317  1
  Cr  Cr49  1  0.66779033  0.33063021  0.66706295  1
  Fe  Fe50  1  0.83364026  0.50026522  0.83610139  1
  Ni  Ni51  1  0.83386451  0.83745398  0.49872689  1
  Cr  Cr52  1  0.66671745  0.67033109  0.67015213  1
  Ni  Ni53  1  0.83403143  0.83781267  0.83455258  1
" 