2726,Ni56Fe20Cr22_16,-230.665205468857, 181.152727138584,Ni56Fe20Cr22,"# generated using pymatgen
 data_Cr7(FeNi3)5
_symmetry_space_group_name_H-M   'P 1'
_cell_length_a   7.45621177
_cell_length_b   7.45621177
_cell_length_c   10.54467581
_cell_angle_alpha   90.00000000
_cell_angle_beta   90.00000000
_cell_angle_gamma   90.00000000
_symmetry_Int_Tables_number   1
_chemical_formula_structural   Cr7(FeNi3)5
_chemical_formula_sum   'Cr14 Fe10 Ni30'
_cell_volume   586.23224208
_cell_formula_units_Z   2
loop_
 _symmetry_equiv_pos_site_id
 _symmetry_equiv_pos_as_xyz
  1  'x, y, z'
loop_
 _atom_site_type_symbol
 _atom_site_label
 _atom_site_symmetry_multiplicity
 _atom_site_fract_x
 _atom_site_fract_y
 _atom_site_fract_z
 _atom_site_occupancy
  Ni  Ni0  1  0.99845307  0.99941686  0.99938589  1
  Ni  Ni1  1  0.16829495  0.16872033  0.16787158  1
  Ni  Ni2  1  1.00022435  0.00111447  0.33501665  1
  Cr  Cr3  1  0.00135436  0.33508083  0.00204123  1
  Ni  Ni4  1  0.16747950  0.49795247  0.16875665  1
  Ni  Ni5  1  1.00053042  0.33426574  0.33350843  1
  Ni  Ni6  1  1.00065834  0.66821094  0.99847700  1
  Cr  Cr7  1  0.16586638  0.83526537  0.16825751  1
  Ni  Ni8  1  0.00173232  0.66679806  0.33573186  1
  Fe  Fe9  1  0.33482662  0.00341032  1.00031737  1
  Ni  Ni10  1  0.49947276  0.16765715  0.16681298  1
  Ni  Ni11  1  0.33433741  0.00200893  0.33238225  1
  Ni  Ni12  1  0.33506911  0.33227990  0.00180912  1
  Cr  Cr13  1  0.49983576  0.49908465  0.16860087  1
  Ni  Ni14  1  0.33473041  0.33407529  0.33366123  1
  Cr  Cr15  1  0.33166385  0.66686963  0.99946429  1
  Cr  Cr16  1  0.50232855  0.83550487  0.16812091  1
  Ni  Ni17  1  0.33263479  0.66609758  0.33627617  1
  Ni  Ni18  1  0.66702514  0.00226653  0.99928675  1
  Ni  Ni19  1  0.83441063  0.16624084  0.16784405  1
  Fe  Fe20  1  0.66819416  0.00341599  0.33449786  1
  Fe  Fe21  1  0.66668071  0.33076720  1.00038272  1
  Cr  Cr22  1  0.83506527  0.50121487  0.16771118  1
  Ni  Ni23  1  0.66691922  0.33256726  0.33533694  1
  Fe  Fe24  1  0.67007075  0.66918966  0.99811943  1
  Cr  Cr25  1  0.83398585  0.83478756  0.16819490  1
  Ni  Ni26  1  0.66781324  0.66640058  0.33609770  1
  Cr  Cr27  1  0.16586636  0.16869263  0.50019940  1
  Ni  Ni28  1  0.99949138  0.00086868  0.66777862  1
  Cr  Cr29  1  0.16709797  0.16811871  0.83373731  1
  Ni  Ni30  1  0.16819178  0.50076058  0.49975844  1
  Ni  Ni31  1  0.99887290  0.33475845  0.66756474  1
  Ni  Ni32  1  0.16671696  0.50072648  0.83366683  1
  Fe  Fe33  1  0.16534386  0.83271714  0.49846865  1
  Cr  Cr34  1  0.00106865  0.66697750  0.66738769  1
  Fe  Fe35  1  0.16661299  0.83355295  0.83512454  1
  Ni  Ni36  1  0.50186095  0.17059030  0.49928102  1
  Cr  Cr37  1  0.33435448  0.99958663  0.66909731  1
  Ni  Ni38  1  0.50130510  0.16690222  0.83608323  1
  Ni  Ni39  1  0.50074917  0.50008506  0.50117495  1
  Fe  Fe40  1  0.33491251  0.33623481  0.66674002  1
  Cr  Cr41  1  0.50130485  0.50026007  0.83248786  1
  Cr  Cr42  1  0.50211789  0.83175489  0.49868113  1
  Fe  Fe43  1  0.33422049  0.66525787  0.66722032  1
  Ni  Ni44  1  0.50338565  0.83447353  0.83532262  1
  Ni  Ni45  1  0.83440787  0.16749121  0.50075918  1
  Cr  Cr46  1  0.66871582  0.00221887  0.66682151  1
  Fe  Fe47  1  0.83244055  0.16666061  0.83375864  1
  Ni  Ni48  1  0.83323889  0.50090381  0.50060457  1
  Ni  Ni49  1  0.66793721  0.33479859  0.66709864  1
  Fe  Fe50  1  0.83369296  0.50124574  0.83320787  1
  Ni  Ni51  1  0.83508489  0.83378627  0.49876005  1
  Ni  Ni52  1  0.66707383  0.66524618  0.66825665  1
  Ni  Ni53  1  0.83351426  0.83390447  0.83623284  1
" 