4571,Ni56Fe27Cr16_6,-234.544652378932, 198.598841684428,Ni56Fe27Cr16,"# generated using pymatgen
 data_Cr5Fe7Ni15
_symmetry_space_group_name_H-M   'P 1'
_cell_length_a   7.44007220
_cell_length_b   7.44007220
_cell_length_c   10.52185101
_cell_angle_alpha   90.00000000
_cell_angle_beta   90.00000000
_cell_angle_gamma   90.00000000
_symmetry_Int_Tables_number   1
_chemical_formula_structural   Cr5Fe7Ni15
_chemical_formula_sum   'Cr10 Fe14 Ni30'
_cell_volume   582.43363573
_cell_formula_units_Z   2
loop_
 _symmetry_equiv_pos_site_id
 _symmetry_equiv_pos_as_xyz
  1  'x, y, z'
loop_
 _atom_site_type_symbol
 _atom_site_label
 _atom_site_symmetry_multiplicity
 _atom_site_fract_x
 _atom_site_fract_y
 _atom_site_fract_z
 _atom_site_occupancy
  Ni  Ni0  1  0.00185078  1.00013024  1.00119192  1
  Cr  Cr1  1  0.16962414  0.16763253  0.16909618  1
  Fe  Fe2  1  0.00196642  0.00261731  0.33612616  1
  Fe  Fe3  1  1.00003039  0.33387372  0.00211719  1
  Cr  Cr4  1  0.16991126  0.50166297  0.16690850  1
  Fe  Fe5  1  0.00270793  0.33392242  0.33702718  1
  Fe  Fe6  1  1.00042902  0.67072693  0.00253026  1
  Fe  Fe7  1  0.16906433  0.83578945  0.16774558  1
  Cr  Cr8  1  0.00206010  0.66975005  0.33556195  1
  Fe  Fe9  1  0.33454887  1.00147361  1.00097874  1
  Ni  Ni10  1  0.50153576  0.16882391  0.16781872  1
  Ni  Ni11  1  0.33470919  1.00037561  0.33449609  1
  Ni  Ni12  1  0.33842571  0.33597315  1.00128440  1
  Ni  Ni13  1  0.50279664  0.50228350  0.16723228  1
  Ni  Ni14  1  0.33573941  0.33587768  0.33631696  1
  Ni  Ni15  1  0.33553587  0.66831579  0.00219899  1
  Fe  Fe16  1  0.50181930  0.83406458  0.16973114  1
  Ni  Ni17  1  0.33590618  0.66918350  0.33641920  1
  Cr  Cr18  1  0.67003835  0.00369314  0.00197902  1
  Ni  Ni19  1  0.83461912  0.16761905  0.16792562  1
  Fe  Fe20  1  0.66832372  0.99975831  0.33474027  1
  Ni  Ni21  1  0.66736680  0.33630718  0.00323612  1
  Ni  Ni22  1  0.83264306  0.50277945  0.16605682  1
  Cr  Cr23  1  0.66857137  0.33518511  0.33328636  1
  Ni  Ni24  1  0.66837830  0.66612185  0.00284814  1
  Ni  Ni25  1  0.83439245  0.83503907  0.16819282  1
  Fe  Fe26  1  0.66609017  0.66949467  0.33490125  1
  Ni  Ni27  1  0.16692505  0.16906949  0.50207721  1
  Ni  Ni28  1  1.00108865  0.00206198  0.66782705  1
  Ni  Ni29  1  0.16936869  0.16619222  0.83482590  1
  Ni  Ni30  1  0.17036709  0.49963814  0.50232110  1
  Fe  Fe31  1  0.00423279  0.33132826  0.66629528  1
  Cr  Cr32  1  0.17125343  0.50037228  0.83594440  1
  Ni  Ni33  1  0.17000482  0.83672927  0.50174826  1
  Cr  Cr34  1  0.00319112  0.67111649  0.66703791  1
  Ni  Ni35  1  0.16887054  0.83898321  0.83690631  1
  Cr  Cr36  1  0.49910512  0.16658514  0.50173463  1
  Ni  Ni37  1  0.33371797  1.00096474  0.66997399  1
  Fe  Fe38  1  0.49977155  0.16869383  0.83525997  1
  Ni  Ni39  1  0.49968775  0.50544632  0.50200714  1
  Ni  Ni40  1  0.33479735  0.33585843  0.66783606  1
  Ni  Ni41  1  0.50110866  0.50227264  0.83620047  1
  Ni  Ni42  1  0.50219839  0.83307326  0.50216247  1
  Ni  Ni43  1  0.33603043  0.66861398  0.66682250  1
  Fe  Fe44  1  0.50049344  0.83382589  0.83369739  1
  Ni  Ni45  1  0.83904040  0.16655771  0.50215873  1
  Ni  Ni46  1  0.67063308  1.00082551  0.66867702  1
  Fe  Fe47  1  0.83717196  0.16631552  0.83513291  1
  Ni  Ni48  1  0.83538398  0.50236355  0.50167626  1
  Cr  Cr49  1  0.66764072  0.33453915  0.66901342  1
  Cr  Cr50  1  0.83291356  0.50312924  0.83753528  1
  Ni  Ni51  1  0.83323028  0.83651457  0.50240502  1
  Fe  Fe52  1  0.66565145  0.67134450  0.66783112  1
  Ni  Ni53  1  0.83493077  0.83700362  0.83483803  1
" 