4973,Ni56Cr44_12,-217.000222040862, 137.310932556443,Ni56Cr44,"# generated using pymatgen
 data_Cr5Ni4
_symmetry_space_group_name_H-M   'P 1'
_cell_length_a   7.53239241
_cell_length_b   7.53239241
_cell_length_c   10.65241151
_cell_angle_alpha   90.00000000
_cell_angle_beta   90.00000000
_cell_angle_gamma   90.00000000
_symmetry_Int_Tables_number   1
_chemical_formula_structural   Cr5Ni4
_chemical_formula_sum   'Cr30 Ni24'
_cell_volume   604.38518451
_cell_formula_units_Z   6
loop_
 _symmetry_equiv_pos_site_id
 _symmetry_equiv_pos_as_xyz
  1  'x, y, z'
loop_
 _atom_site_type_symbol
 _atom_site_label
 _atom_site_symmetry_multiplicity
 _atom_site_fract_x
 _atom_site_fract_y
 _atom_site_fract_z
 _atom_site_occupancy
  Ni  Ni0  1  0.99260306  -0.00293768  -0.00369007  1
  Cr  Cr1  1  0.15947571  0.16066949  0.16052299  1
  Ni  Ni2  1  0.99073625  0.99286519  0.32879641  1
  Ni  Ni3  1  0.99278246  0.32688394  0.99563391  1
  Cr  Cr4  1  0.16027083  0.49712154  0.16301040  1
  Cr  Cr5  1  0.99223710  0.32855894  0.33027495  1
  Ni  Ni6  1  0.99266043  0.66243130  -0.00172531  1
  Cr  Cr7  1  0.15707247  0.82918687  0.16250883  1
  Ni  Ni8  1  0.99397573  0.66356395  0.32985467  1
  Ni  Ni9  1  0.32770607  -0.00326514  0.99375901  1
  Cr  Cr10  1  0.49712732  0.16119211  0.16308690  1
  Cr  Cr11  1  0.32698269  0.99072816  0.33167283  1
  Cr  Cr12  1  0.32903455  0.32947825  -0.00423440  1
  Ni  Ni13  1  0.49821333  0.49884148  0.16545460  1
  Cr  Cr14  1  0.32917877  0.33269708  0.32922849  1
  Cr  Cr15  1  0.32994909  0.66455581  -0.00255444  1
  Cr  Cr16  1  0.49868555  0.83057673  0.16407974  1
  Ni  Ni17  1  0.32937268  0.66320287  0.33128460  1
  Ni  Ni18  1  0.66634158  -0.00289425  -0.00338522  1
  Ni  Ni19  1  0.82985340  0.15904501  0.16178565  1
  Ni  Ni20  1  0.66701084  0.99305095  0.32909808  1
  Cr  Cr21  1  0.66626138  0.32980600  -0.00070061  1
  Ni  Ni22  1  0.82993130  0.49809923  0.16290471  1
  Cr  Cr23  1  0.66630390  0.32983927  0.32618736  1
  Cr  Cr24  1  0.66393135  0.66315249  -0.00064494  1
  Ni  Ni25  1  0.82923807  0.82945558  0.16299664  1
  Ni  Ni26  1  0.66398590  0.66360770  0.32795636  1
  Cr  Cr27  1  0.16034473  0.16201361  0.49275251  1
  Cr  Cr28  1  0.99482515  0.99532623  0.66130946  1
  Ni  Ni29  1  0.15858710  0.16104273  0.83310997  1
  Ni  Ni30  1  0.15882939  0.50132875  0.49452425  1
  Cr  Cr31  1  0.99453935  0.32809198  0.66053932  1
  Cr  Cr32  1  0.15854509  0.49512597  0.82986952  1
  Ni  Ni33  1  0.16091141  0.82466005  0.49289279  1
  Ni  Ni34  1  0.99401100  0.66154571  0.65885208  1
  Cr  Cr35  1  0.15780542  0.82885905  0.83244977  1
  Cr  Cr36  1  0.49978950  0.15828363  0.49469313  1
  Cr  Cr37  1  0.32742346  0.99319296  0.66163525  1
  Cr  Cr38  1  0.49727036  0.16014763  0.82894024  1
  Cr  Cr39  1  0.49779423  0.49742403  0.49514376  1
  Cr  Cr40  1  0.32638714  0.32859696  0.66211012  1
  Cr  Cr41  1  0.49818343  0.49659275  0.82737308  1
  Ni  Ni42  1  0.49731586  0.82733576  0.49483954  1
  Cr  Cr43  1  0.32767115  0.66454593  0.66002180  1
  Cr  Cr44  1  0.49980433  0.83081958  0.82783626  1
  Ni  Ni45  1  0.82833153  0.16088108  0.49423653  1
  Ni  Ni46  1  0.66420730  0.99425537  0.66105077  1
  Ni  Ni47  1  0.83100735  0.16034779  0.83085703  1
  Ni  Ni48  1  0.83134745  0.49785282  0.49543630  1
  Cr  Cr49  1  0.66710055  0.32786017  0.66142156  1
  Cr  Cr50  1  0.83110200  0.49831557  0.82727175  1
  Cr  Cr51  1  0.82816614  0.82816637  0.49494350  1
  Ni  Ni52  1  0.66473946  0.66455933  0.65946731  1
  Cr  Cr53  1  0.82880864  0.82908567  0.82903064  1
" 