2581,Ni56Fe40Cr3_18,-239.713261883392, 218.581068133555,Ni56Fe40Cr3,"# generated using pymatgen
 data_CrFe7Ni10
_symmetry_space_group_name_H-M   'P 1'
_cell_length_a   7.41212002
_cell_length_b   7.41212002
_cell_length_c   10.48232066
_cell_angle_alpha   90.00000000
_cell_angle_beta   90.00000000
_cell_angle_gamma   90.00000000
_symmetry_Int_Tables_number   1
_chemical_formula_structural   CrFe7Ni10
_chemical_formula_sum   'Cr3 Fe21 Ni30'
_cell_volume   575.89369902
_cell_formula_units_Z   3
loop_
 _symmetry_equiv_pos_site_id
 _symmetry_equiv_pos_as_xyz
  1  'x, y, z'
loop_
 _atom_site_type_symbol
 _atom_site_label
 _atom_site_symmetry_multiplicity
 _atom_site_fract_x
 _atom_site_fract_y
 _atom_site_fract_z
 _atom_site_occupancy
  Ni  Ni0  1  1.00352161  0.00436746  1.00362027  1
  Fe  Fe1  1  0.17059803  0.16815584  0.16957968  1
  Ni  Ni2  1  1.00294101  1.00333066  0.33687984  1
  Ni  Ni3  1  1.00353994  0.33691472  0.00488810  1
  Fe  Fe4  1  0.17110513  0.50434860  0.16941348  1
  Fe  Fe5  1  1.00204366  0.33680893  0.33753556  1
  Fe  Fe6  1  1.00336520  0.66905309  0.00496264  1
  Ni  Ni7  1  0.16924356  0.83598393  0.16956792  1
  Ni  Ni8  1  0.00441135  0.66965951  0.33653643  1
  Ni  Ni9  1  0.33689475  1.00325516  0.00445022  1
  Ni  Ni10  1  0.50327744  0.17326275  0.17086693  1
  Fe  Fe11  1  0.33803447  0.00439015  0.33628175  1
  Ni  Ni12  1  0.33683607  0.33846847  1.00295202  1
  Fe  Fe13  1  0.50448960  0.50463776  0.17042541  1
  Fe  Fe14  1  0.33730300  0.33679365  0.33722355  1
  Ni  Ni15  1  0.33765249  0.66982916  0.00455815  1
  Ni  Ni16  1  0.50371925  0.83731138  0.17202206  1
  Fe  Fe17  1  0.33794135  0.67050490  0.33605362  1
  Cr  Cr18  1  0.67022810  0.00391482  0.00425572  1
  Fe  Fe19  1  0.83694812  0.16956744  0.17179874  1
  Ni  Ni20  1  0.67124521  1.00359397  0.33749404  1
  Ni  Ni21  1  0.67074464  0.33826738  1.00341641  1
  Fe  Fe22  1  0.83546162  0.50367822  0.17102467  1
  Ni  Ni23  1  0.66995913  0.33693337  0.33691478  1
  Fe  Fe24  1  0.66977105  0.66977203  0.00455916  1
  Ni  Ni25  1  0.83842765  0.83471702  0.17145771  1
  Ni  Ni26  1  0.67076195  0.67076552  0.33780440  1
  Ni  Ni27  1  0.17155245  0.17206787  0.50341173  1
  Fe  Fe28  1  1.00269741  0.00759430  0.67010630  1
  Ni  Ni29  1  0.17202311  0.17333554  0.83732245  1
  Fe  Fe30  1  0.16958352  0.50173878  0.50439333  1
  Ni  Ni31  1  1.00369911  0.33751258  0.66928228  1
  Ni  Ni32  1  0.16938128  0.50232187  0.83674309  1
  Cr  Cr33  1  0.16897929  0.83736151  0.50480901  1
  Fe  Fe34  1  1.00180838  0.66773705  0.67002279  1
  Cr  Cr35  1  0.16995705  0.83712080  0.83726125  1
  Ni  Ni36  1  0.50406226  0.17286104  0.50388489  1
  Ni  Ni37  1  0.33974245  0.00463937  0.67067305  1
  Ni  Ni38  1  0.50278598  0.17264097  0.83629712  1
  Fe  Fe39  1  0.50470714  0.50273243  0.50373331  1
  Ni  Ni40  1  0.33644236  0.33804431  0.67060668  1
  Fe  Fe41  1  0.50239577  0.50432183  0.83690012  1
  Fe  Fe42  1  0.50537513  0.83942909  0.50401356  1
  Ni  Ni43  1  0.33765883  0.66877070  0.66951067  1
  Ni  Ni44  1  0.50497472  0.83675292  0.83608960  1
  Ni  Ni45  1  0.83572147  0.17046234  0.50324534  1
  Ni  Ni46  1  0.67076842  1.00366050  0.66943107  1
  Fe  Fe47  1  0.83844946  0.17053372  0.83580516  1
  Fe  Fe48  1  0.83666355  0.50217262  0.50284236  1
  Ni  Ni49  1  0.67097854  0.33603421  0.67079226  1
  Fe  Fe50  1  0.83719686  0.50219068  0.83714788  1
  Ni  Ni51  1  0.83620086  0.83574912  0.50347369  1
  Fe  Fe52  1  0.66939983  0.66967320  0.66963650  1
  Ni  Ni53  1  0.83641317  0.83433855  0.83610499  1
" 