7175,Ni56Fe27Cr16_16,-234.822551954987, 198.58023372615,Ni56Fe27Cr16,"# generated using pymatgen
 data_Cr5Fe7Ni15
_symmetry_space_group_name_H-M   'P 1'
_cell_length_a   7.44006321
_cell_length_b   7.44006321
_cell_length_c   10.52183829
_cell_angle_alpha   90.00000000
_cell_angle_beta   90.00000000
_cell_angle_gamma   90.00000000
_symmetry_Int_Tables_number   1
_chemical_formula_structural   Cr5Fe7Ni15
_chemical_formula_sum   'Cr10 Fe14 Ni30'
_cell_volume   582.43152441
_cell_formula_units_Z   2
loop_
 _symmetry_equiv_pos_site_id
 _symmetry_equiv_pos_as_xyz
  1  'x, y, z'
loop_
 _atom_site_type_symbol
 _atom_site_label
 _atom_site_symmetry_multiplicity
 _atom_site_fract_x
 _atom_site_fract_y
 _atom_site_fract_z
 _atom_site_occupancy
  Cr  Cr0  1  0.00199399  0.00500387  0.00355737  1
  Ni  Ni1  1  0.16691445  0.16986774  0.16760692  1
  Ni  Ni2  1  1.00042100  1.00155568  0.33491243  1
  Ni  Ni3  1  0.00226170  0.33607522  1.00172497  1
  Ni  Ni4  1  0.16784012  0.50106125  0.16875427  1
  Ni  Ni5  1  1.00034569  0.33578174  0.33388099  1
  Cr  Cr6  1  1.00141561  0.66436895  0.00309630  1
  Fe  Fe7  1  0.16940946  0.83512293  0.16898837  1
  Ni  Ni8  1  0.99970292  0.66810319  0.33425932  1
  Ni  Ni9  1  0.33893528  0.00221151  0.00288942  1
  Ni  Ni10  1  0.50304836  0.16625269  0.16703661  1
  Cr  Cr11  1  0.33573944  1.00149538  0.33460938  1
  Fe  Fe12  1  0.33355392  0.33405675  1.00096273  1
  Cr  Cr13  1  0.50114383  0.50321008  0.16848788  1
  Cr  Cr14  1  0.33375813  0.33340652  0.33414519  1
  Ni  Ni15  1  0.33713421  0.66877347  0.00198951  1
  Ni  Ni16  1  0.50359511  0.83564189  0.16787348  1
  Fe  Fe17  1  0.33401865  0.67086506  0.33349046  1
  Ni  Ni18  1  0.66440646  0.00222838  0.00243091  1
  Ni  Ni19  1  0.83548175  0.16725950  0.17030695  1
  Ni  Ni20  1  0.66927248  1.00035223  0.33517495  1
  Fe  Fe21  1  0.66930538  0.33375910  1.00045920  1
  Fe  Fe22  1  0.83638021  0.50064270  0.16975625  1
  Fe  Fe23  1  0.67246267  0.33354871  0.33537351  1
  Fe  Fe24  1  0.66650702  0.66945887  1.00149620  1
  Ni  Ni25  1  0.83299644  0.83656984  0.17026816  1
  Ni  Ni26  1  0.67100475  0.67032061  0.33437452  1
  Ni  Ni27  1  0.16605142  0.16759435  0.50266002  1
  Ni  Ni28  1  1.00085383  0.00361452  0.66685385  1
  Ni  Ni29  1  0.16774700  0.17227133  0.83517548  1
  Cr  Cr30  1  0.16749411  0.50105631  0.50316398  1
  Ni  Ni31  1  1.00169466  0.33508651  0.66983419  1
  Ni  Ni32  1  0.17052746  0.49832090  0.83375757  1
  Fe  Fe33  1  0.16564898  0.83525515  0.50173537  1
  Fe  Fe34  1  0.99981865  0.66709310  0.66743448  1
  Cr  Cr35  1  0.17004813  0.83541655  0.83405728  1
  Fe  Fe36  1  0.50440805  0.16807265  0.50242759  1
  Cr  Cr37  1  0.33583968  0.00317034  0.66797471  1
  Fe  Fe38  1  0.50277012  0.16947598  0.83597014  1
  Cr  Cr39  1  0.50341916  0.50235066  0.50208362  1
  Ni  Ni40  1  0.33433465  0.33520224  0.67114277  1
  Ni  Ni41  1  0.50105006  0.50261984  0.83457714  1
  Fe  Fe42  1  0.50436077  0.83490289  0.50181221  1
  Fe  Fe43  1  0.33663788  0.66710766  0.67043118  1
  Ni  Ni44  1  0.50309751  0.83333147  0.83597697  1
  Fe  Fe45  1  0.83588739  0.16848924  0.50211022  1
  Ni  Ni46  1  0.66886943  1.00133426  0.66783667  1
  Ni  Ni47  1  0.83537705  0.17022283  0.83349262  1
  Ni  Ni48  1  0.83451355  0.50284872  0.50117944  1
  Ni  Ni49  1  0.66941414  0.33597468  0.66892011  1
  Ni  Ni50  1  0.83386136  0.49910265  0.83426357  1
  Ni  Ni51  1  0.83460595  0.83608021  0.50213737  1
  Ni  Ni52  1  0.66875021  0.66813227  0.66953821  1
  Cr  Cr53  1  0.83179621  0.83680527  0.83347343  1
" 