3242,Ni56Fe20Cr22_15,-230.891611810748, 186.387927897967,Ni56Fe20Cr22,"# generated using pymatgen
 data_Cr7(FeNi3)5
_symmetry_space_group_name_H-M   'P 1'
_cell_length_a   7.45297107
_cell_length_b   7.45297107
_cell_length_c   10.54009276
_cell_angle_alpha   90.00000000
_cell_angle_beta   90.00000000
_cell_angle_gamma   90.00000000
_symmetry_Int_Tables_number   1
_chemical_formula_structural   Cr7(FeNi3)5
_chemical_formula_sum   'Cr14 Fe10 Ni30'
_cell_volume   585.46818988
_cell_formula_units_Z   2
loop_
 _symmetry_equiv_pos_site_id
 _symmetry_equiv_pos_as_xyz
  1  'x, y, z'
loop_
 _atom_site_type_symbol
 _atom_site_label
 _atom_site_symmetry_multiplicity
 _atom_site_fract_x
 _atom_site_fract_y
 _atom_site_fract_z
 _atom_site_occupancy
  Fe  Fe0  1  0.99852527  0.99920628  1.00040105  1
  Ni  Ni1  1  0.16744939  0.16837138  0.16496897  1
  Cr  Cr2  1  0.00101088  0.00334937  0.33430898  1
  Cr  Cr3  1  0.99855178  0.33502886  1.00057245  1
  Cr  Cr4  1  0.16927343  0.50143976  0.16819671  1
  Cr  Cr5  1  0.99861685  0.33209026  0.33606641  1
  Ni  Ni6  1  0.99936542  0.66735840  0.99977269  1
  Cr  Cr7  1  0.16518500  0.83301119  0.16670010  1
  Ni  Ni8  1  0.99878104  0.66688630  0.33385711  1
  Ni  Ni9  1  0.33470268  0.99975685  1.00067465  1
  Cr  Cr10  1  0.50116398  0.16900894  0.16618565  1
  Cr  Cr11  1  0.33443792  0.99943998  0.33671852  1
  Fe  Fe12  1  0.33635508  0.33605916  0.99957991  1
  Ni  Ni13  1  0.50242370  0.50008609  0.16867907  1
  Fe  Fe14  1  0.33482285  0.33607746  0.33550783  1
  Cr  Cr15  1  0.33630985  0.66930075  0.99887009  1
  Ni  Ni16  1  0.50430984  0.83396703  0.16832197  1
  Ni  Ni17  1  0.33847310  0.66843433  0.33524067  1
  Ni  Ni18  1  0.66751798  1.00090377  0.00176082  1
  Ni  Ni19  1  0.83266667  0.16569599  0.16630685  1
  Fe  Fe20  1  0.66888494  0.99851933  0.33397757  1
  Ni  Ni21  1  0.66949014  0.33438244  0.00115750  1
  Fe  Fe22  1  0.83239749  0.50193249  0.16880742  1
  Fe  Fe23  1  0.66805144  0.33635121  0.33470159  1
  Cr  Cr24  1  0.66738709  0.66688183  0.99975495  1
  Ni  Ni25  1  0.83279050  0.83424790  0.16677382  1
  Ni  Ni26  1  0.66526471  0.66610211  0.33309435  1
  Ni  Ni27  1  0.16701524  0.16749582  0.50415770  1
  Ni  Ni28  1  0.00101614  0.00212546  0.66762063  1
  Cr  Cr29  1  0.16785711  0.16745638  0.83414977  1
  Cr  Cr30  1  0.16745595  0.50372343  0.50214951  1
  Ni  Ni31  1  0.99942136  0.33338044  0.66675158  1
  Ni  Ni32  1  0.16676077  0.50280290  0.83258107  1
  Ni  Ni33  1  0.16755506  0.83335983  0.50311138  1
  Ni  Ni34  1  0.00127662  0.66722039  0.66893568  1
  Ni  Ni35  1  0.16522709  0.83266317  0.83348877  1
  Cr  Cr36  1  0.50301109  0.16892005  0.50306905  1
  Fe  Fe37  1  0.33376405  0.99841590  0.66756237  1
  Cr  Cr38  1  0.50376278  0.16809426  0.83436466  1
  Ni  Ni39  1  0.50277984  0.50214403  0.50146735  1
  Ni  Ni40  1  0.33395796  0.33679207  0.66760537  1
  Ni  Ni41  1  0.50147789  0.49994218  0.83229373  1
  Ni  Ni42  1  0.50169660  0.83193758  0.50225497  1
  Ni  Ni43  1  0.33611841  0.66867875  0.66812317  1
  Ni  Ni44  1  0.50202674  0.83507551  0.83253857  1
  Ni  Ni45  1  0.83353527  0.16831358  0.50356575  1
  Ni  Ni46  1  0.66850789  1.00004760  0.66750049  1
  Fe  Fe47  1  0.83308573  0.16664875  0.83293852  1
  Ni  Ni48  1  0.83205468  0.50110062  0.50175086  1
  Ni  Ni49  1  0.66952930  0.33591962  0.66716127  1
  Fe  Fe50  1  0.83424658  0.50168628  0.83164686  1
  Cr  Cr51  1  0.83414122  0.83197732  0.50165206  1
  Ni  Ni52  1  0.66512239  0.66669761  0.66835411  1
  Fe  Fe53  1  0.83438251  0.83448632  0.83324239  1
" 