6588,Ni56Fe11Cr32_3,-227.126686986952, 162.246791366716,Ni56Fe11Cr32,"# generated using pymatgen
 data_Cr3FeNi5
_symmetry_space_group_name_H-M   'P 1'
_cell_length_a   7.47849419
_cell_length_b   7.47849419
_cell_length_c   10.57618791
_cell_angle_alpha   90.00000000
_cell_angle_beta   90.00000000
_cell_angle_gamma   90.00000000
_symmetry_Int_Tables_number   1
_chemical_formula_structural   Cr3FeNi5
_chemical_formula_sum   'Cr18 Fe6 Ni30'
_cell_volume   591.50371963
_cell_formula_units_Z   6
loop_
 _symmetry_equiv_pos_site_id
 _symmetry_equiv_pos_as_xyz
  1  'x, y, z'
loop_
 _atom_site_type_symbol
 _atom_site_label
 _atom_site_symmetry_multiplicity
 _atom_site_fract_x
 _atom_site_fract_y
 _atom_site_fract_z
 _atom_site_occupancy
  Fe  Fe0  1  0.99762651  0.00009466  0.99899748  1
  Cr  Cr1  1  0.16152295  0.16635624  0.16527112  1
  Ni  Ni2  1  0.99797231  0.99770385  0.33037119  1
  Ni  Ni3  1  0.99737385  0.33120142  0.99778020  1
  Cr  Cr4  1  0.16731548  0.49802018  0.16680532  1
  Ni  Ni5  1  0.99469189  0.33247857  0.33250851  1
  Cr  Cr6  1  0.00156592  0.66867411  -0.00022867  1
  Ni  Ni7  1  0.16456183  0.83221352  0.16965636  1
  Ni  Ni8  1  0.99788952  0.66733069  0.33262415  1
  Cr  Cr9  1  0.32962503  0.99789754  0.99686946  1
  Cr  Cr10  1  0.50090843  0.16575449  0.16641874  1
  Ni  Ni11  1  0.33110002  0.99567935  0.33472015  1
  Ni  Ni12  1  0.33367722  0.33430787  0.99540730  1
  Ni  Ni13  1  0.50058708  0.50176408  0.16300211  1
  Cr  Cr14  1  0.33492830  0.33169501  0.33308176  1
  Ni  Ni15  1  0.33165447  0.66450141  0.99860404  1
  Cr  Cr16  1  0.50078814  0.83062678  0.16617706  1
  Ni  Ni17  1  0.33106897  0.66918401  0.33069194  1
  Ni  Ni18  1  0.66860194  0.00226611  -0.00067131  1
  Ni  Ni19  1  0.83375643  0.16436684  0.16514682  1
  Ni  Ni20  1  0.66834087  -0.00047014  0.33328881  1
  Ni  Ni21  1  0.66643405  0.33147797  -0.00047118  1
  Fe  Fe22  1  0.83234867  0.49832960  0.16568900  1
  Cr  Cr23  1  0.66912342  0.33208038  0.33374318  1
  Ni  Ni24  1  0.66560553  0.66380599  0.00089834  1
  Fe  Fe25  1  0.83251833  0.83370515  0.16663672  1
  Ni  Ni26  1  0.66866958  0.66546427  0.33018306  1
  Cr  Cr27  1  0.16369226  0.16524804  0.49900826  1
  Ni  Ni28  1  0.00024338  0.00018762  0.66846733  1
  Fe  Fe29  1  0.16505230  0.16765956  0.83143715  1
  Cr  Cr30  1  0.16234679  0.49846857  0.49889081  1
  Ni  Ni31  1  0.99912078  0.33153824  0.66629145  1
  Ni  Ni32  1  0.16669713  0.49706603  0.83240007  1
  Fe  Fe33  1  0.16313135  0.83321057  0.49880463  1
  Ni  Ni34  1  -0.00051167  0.66608931  0.66529769  1
  Ni  Ni35  1  0.16496110  0.83302625  0.83023052  1
  Fe  Fe36  1  0.50047588  0.16426454  0.50060489  1
  Ni  Ni37  1  0.33153210  0.00161175  0.66592304  1
  Ni  Ni38  1  0.50052423  0.16677897  0.83143633  1
  Cr  Cr39  1  0.49929250  0.50315475  0.49956058  1
  Ni  Ni40  1  0.33180647  0.32973972  0.66977700  1
  Ni  Ni41  1  0.49712192  0.49721166  0.83574171  1
  Cr  Cr42  1  0.49976317  0.83449223  0.49894730  1
  Cr  Cr43  1  0.32977896  0.66629114  0.66897433  1
  Cr  Cr44  1  0.50251304  0.83176654  0.83262209  1
  Ni  Ni45  1  0.83568504  0.16411342  0.49922026  1
  Ni  Ni46  1  0.66621081  0.00264410  0.66583778  1
  Ni  Ni47  1  0.83363555  0.16523763  0.83335984  1
  Ni  Ni48  1  0.83506091  0.49927343  0.49868706  1
  Cr  Cr49  1  0.66619713  0.33149572  0.66397481  1
  Cr  Cr50  1  0.83311827  0.49800230  0.83092677  1
  Cr  Cr51  1  0.83171440  0.83288503  0.50150703  1
  Ni  Ni52  1  0.66795275  0.66495102  0.66636894  1
  Cr  Cr53  1  0.83130052  0.83575571  0.83117447  1
" 