2153,Ni56Cr44_19,-216.657785470763, 128.025496652255,Ni56Cr44,"# generated using pymatgen
 data_Cr5Ni4
_symmetry_space_group_name_H-M   'P 1'
_cell_length_a   7.53592494
_cell_length_b   7.53592494
_cell_length_c   10.65740726
_cell_angle_alpha   90.00000000
_cell_angle_beta   90.00000000
_cell_angle_gamma   90.00000000
_symmetry_Int_Tables_number   1
_chemical_formula_structural   Cr5Ni4
_chemical_formula_sum   'Cr30 Ni24'
_cell_volume   605.23591397
_cell_formula_units_Z   6
loop_
 _symmetry_equiv_pos_site_id
 _symmetry_equiv_pos_as_xyz
  1  'x, y, z'
loop_
 _atom_site_type_symbol
 _atom_site_label
 _atom_site_symmetry_multiplicity
 _atom_site_fract_x
 _atom_site_fract_y
 _atom_site_fract_z
 _atom_site_occupancy
  Ni  Ni0  1  -0.00395414  -0.00118436  0.99230190  1
  Cr  Cr1  1  0.16374265  0.16306989  0.15972284  1
  Cr  Cr2  1  -0.00389352  -0.00447344  0.33188008  1
  Ni  Ni3  1  0.99509115  0.32650357  0.99347280  1
  Ni  Ni4  1  0.16079470  0.49420817  0.16129437  1
  Cr  Cr5  1  -0.00450956  0.32907026  0.32877911  1
  Cr  Cr6  1  -0.00435293  0.66132560  -0.00435846  1
  Cr  Cr7  1  0.16197546  0.83073036  0.16312914  1
  Ni  Ni8  1  -0.00169712  0.66242390  0.32835918  1
  Ni  Ni9  1  0.32792972  -0.00117111  0.99224322  1
  Cr  Cr10  1  0.49370005  0.16057951  0.15878703  1
  Ni  Ni11  1  0.32860391  0.99505609  0.33342322  1
  Ni  Ni12  1  0.32790727  0.32530215  0.99489826  1
  Cr  Cr13  1  0.49460838  0.49337800  0.15895165  1
  Cr  Cr14  1  0.32970347  0.32777311  0.32939692  1
  Cr  Cr15  1  0.32786785  0.66112693  0.99507784  1
  Cr  Cr16  1  0.49597399  0.83210538  0.15975135  1
  Cr  Cr17  1  0.32741536  0.66239147  0.32987567  1
  Ni  Ni18  1  0.66231445  -0.00166775  0.99378213  1
  Cr  Cr19  1  0.82870894  0.16148286  0.15903600  1
  Cr  Cr20  1  0.66003548  -0.00221831  0.33143216  1
  Ni  Ni21  1  0.66310694  0.32709706  0.99225747  1
  Cr  Cr22  1  0.83048085  0.49538546  0.16096994  1
  Cr  Cr23  1  0.66116524  0.32678142  0.33154306  1
  Ni  Ni24  1  0.66326323  0.66081466  0.99435340  1
  Cr  Cr25  1  0.82819809  0.82940345  0.16097701  1
  Cr  Cr26  1  0.66147886  0.66169037  0.32925634  1
  Ni  Ni27  1  0.16262819  0.15980077  0.49532860  1
  Cr  Cr28  1  -0.00294709  -0.00102397  0.66307458  1
  Ni  Ni29  1  0.16087554  0.16120668  0.83196165  1
  Cr  Cr30  1  0.16122834  0.49441330  0.49502155  1
  Ni  Ni31  1  0.99175769  0.32558781  0.66325493  1
  Cr  Cr32  1  0.15979053  0.49123545  0.82907696  1
  Ni  Ni33  1  0.16472737  0.83128683  0.49297003  1
  Cr  Cr34  1  -0.00386561  0.66261903  0.66423696  1
  Ni  Ni35  1  0.16188641  0.83375164  0.83108618  1
  Ni  Ni36  1  0.49483242  0.16183317  0.49508139  1
  Cr  Cr37  1  0.32760349  -0.00431748  0.66150656  1
  Ni  Ni38  1  0.49621310  0.16312264  0.83225547  1
  Ni  Ni39  1  0.49750373  0.49520111  0.49757759  1
  Cr  Cr40  1  0.33026091  0.32574828  0.66118224  1
  Cr  Cr41  1  0.49961904  0.49310279  0.82822666  1
  Ni  Ni42  1  0.49331175  0.82912480  0.49492816  1
  Cr  Cr43  1  0.32993413  0.66454902  0.66076069  1
  Cr  Cr44  1  0.49593060  0.83053234  0.83078807  1
  Ni  Ni45  1  0.82874985  0.16422704  0.49767637  1
  Cr  Cr46  1  0.66148642  -0.00078819  0.66049345  1
  Ni  Ni47  1  0.82911140  0.16622782  0.83072215  1
  Cr  Cr48  1  0.82797781  0.49423062  0.49860675  1
  Ni  Ni49  1  0.66426645  0.32864324  0.66181892  1
  Ni  Ni50  1  0.82685200  0.49096902  0.82866512  1
  Cr  Cr51  1  0.82901105  0.82790553  0.49462232  1
  Ni  Ni52  1  0.66119408  0.65865804  0.66087693  1
  Cr  Cr53  1  0.82762530  0.82839161  0.83082976  1
" 