3625,Ni56Fe22Cr21_17,-231.878948143636, 191.897198505739,Ni56Fe22Cr21,"# generated using pymatgen
 data_Cr13Fe11Ni30
_symmetry_space_group_name_H-M   'P 1'
_cell_length_a   7.45045664
_cell_length_b   7.45045664
_cell_length_c   10.53653682
_cell_angle_alpha   90.00000000
_cell_angle_beta   90.00000000
_cell_angle_gamma   90.00000000
_symmetry_Int_Tables_number   1
_chemical_formula_structural   Cr13Fe11Ni30
_chemical_formula_sum   'Cr13 Fe11 Ni30'
_cell_volume   584.87582709
_cell_formula_units_Z   1
loop_
 _symmetry_equiv_pos_site_id
 _symmetry_equiv_pos_as_xyz
  1  'x, y, z'
loop_
 _atom_site_type_symbol
 _atom_site_label
 _atom_site_symmetry_multiplicity
 _atom_site_fract_x
 _atom_site_fract_y
 _atom_site_fract_z
 _atom_site_occupancy
  Fe  Fe0  1  0.99972522  0.00308426  0.00150796  1
  Ni  Ni1  1  0.16624115  0.16561479  0.16763248  1
  Ni  Ni2  1  0.00177579  0.00160029  0.33338159  1
  Ni  Ni3  1  1.00106309  0.33219359  0.99954839  1
  Cr  Cr4  1  0.16799510  0.50268831  0.16886349  1
  Ni  Ni5  1  0.00288027  0.33253855  0.33458795  1
  Fe  Fe6  1  1.00027214  0.66842323  1.00071026  1
  Ni  Ni7  1  0.16872401  0.83587739  0.16705291  1
  Ni  Ni8  1  0.00294641  0.66955659  0.33654228  1
  Ni  Ni9  1  0.33569862  1.00029332  0.00151297  1
  Ni  Ni10  1  0.50285376  0.16703588  0.16846109  1
  Cr  Cr11  1  0.33481015  1.00080545  0.33384709  1
  Cr  Cr12  1  0.33430954  0.33215855  0.00205188  1
  Ni  Ni13  1  0.50199065  0.50172421  0.16874139  1
  Fe  Fe14  1  0.33436977  0.33392859  0.33460483  1
  Fe  Fe15  1  0.33684361  0.66922446  0.00198473  1
  Ni  Ni16  1  0.50024342  0.83468780  0.16659705  1
  Ni  Ni17  1  0.33479993  0.66883965  0.33330452  1
  Ni  Ni18  1  0.66586024  1.00048335  1.00018648  1
  Ni  Ni19  1  0.83410765  0.16727199  0.16740257  1
  Ni  Ni20  1  0.66722880  1.00074596  0.33432739  1
  Ni  Ni21  1  0.66876145  0.33229319  0.00184777  1
  Cr  Cr22  1  0.83306015  0.49958398  0.16882842  1
  Ni  Ni23  1  0.66668464  0.33262955  0.33181539  1
  Ni  Ni24  1  0.66635227  0.67040483  0.00115815  1
  Cr  Cr25  1  0.83507016  0.83656217  0.16874507  1
  Ni  Ni26  1  0.66577233  0.66984515  0.33418001  1
  Ni  Ni27  1  0.16822642  0.16587183  0.50088451  1
  Ni  Ni28  1  0.00140035  0.99951986  0.66816736  1
  Fe  Fe29  1  0.16798554  0.16568865  0.83556561  1
  Ni  Ni30  1  0.16811352  0.50339480  0.50024153  1
  Cr  Cr31  1  0.00183245  0.33371890  0.66929188  1
  Ni  Ni32  1  0.16662444  0.50286354  0.83434758  1
  Fe  Fe33  1  0.16730098  0.83448595  0.50108597  1
  Ni  Ni34  1  0.00174920  0.67077502  0.66694823  1
  Cr  Cr35  1  0.16846794  0.83433414  0.83598739  1
  Ni  Ni36  1  0.50116321  0.16555120  0.50150862  1
  Fe  Fe37  1  0.33525357  0.99994126  0.66740153  1
  Ni  Ni38  1  0.50268634  0.16449670  0.83353766  1
  Cr  Cr39  1  0.50112285  0.50046350  0.50000866  1
  Cr  Cr40  1  0.33351792  0.33327074  0.66750303  1
  Cr  Cr41  1  0.50090509  0.50199965  0.83480764  1
  Fe  Fe42  1  0.50113067  0.83479750  0.50126690  1
  Ni  Ni43  1  0.33417444  0.67022840  0.66790289  1
  Ni  Ni44  1  0.50212338  0.83727352  0.83395934  1
  Cr  Cr45  1  0.83297268  0.16573457  0.49981439  1
  Fe  Fe46  1  0.66769258  0.99993977  0.66839421  1
  Fe  Fe47  1  0.83311994  0.16518612  0.83581937  1
  Cr  Cr48  1  0.83447716  0.50277220  0.50004382  1
  Ni  Ni49  1  0.66685720  0.33241140  0.66966920  1
  Cr  Cr50  1  0.83438660  0.50243119  0.83464052  1
  Fe  Fe51  1  0.83508148  0.83527997  0.50086950  1
  Ni  Ni52  1  0.66742259  0.67146970  0.66769996  1
  Ni  Ni53  1  0.83389582  0.83612950  0.83333322  1
" 