4804,Ni56Fe11Cr32_16,-226.966615541504, 161.205318782184,Ni56Fe11Cr32,"# generated using pymatgen
 data_Cr3FeNi5
_symmetry_space_group_name_H-M   'P 1'
_cell_length_a   7.47945097
_cell_length_b   7.47945097
_cell_length_c   10.57754100
_cell_angle_alpha   90.00000000
_cell_angle_beta   90.00000000
_cell_angle_gamma   90.00000000
_symmetry_Int_Tables_number   1
_chemical_formula_structural   Cr3FeNi5
_chemical_formula_sum   'Cr18 Fe6 Ni30'
_cell_volume   591.73077465
_cell_formula_units_Z   6
loop_
 _symmetry_equiv_pos_site_id
 _symmetry_equiv_pos_as_xyz
  1  'x, y, z'
loop_
 _atom_site_type_symbol
 _atom_site_label
 _atom_site_symmetry_multiplicity
 _atom_site_fract_x
 _atom_site_fract_y
 _atom_site_fract_z
 _atom_site_occupancy
  Cr  Cr0  1  0.00169319  0.00308817  0.99781409  1
  Fe  Fe1  1  0.16355753  0.16518075  0.16698616  1
  Ni  Ni2  1  0.00048777  0.00015776  0.33343705  1
  Fe  Fe3  1  0.99818314  0.33344810  0.00106781  1
  Ni  Ni4  1  0.16321150  0.50261886  0.16744854  1
  Ni  Ni5  1  0.99904939  0.33056114  0.32998613  1
  Fe  Fe6  1  0.00185474  0.66624379  0.00087170  1
  Ni  Ni7  1  0.16829160  0.83221686  0.16538174  1
  Ni  Ni8  1  0.00030665  0.66672104  0.33204982  1
  Ni  Ni9  1  0.33068357  0.99834503  0.00078792  1
  Ni  Ni10  1  0.49821211  0.16166763  0.16614767  1
  Ni  Ni11  1  0.33010183  0.99680535  0.32889501  1
  Cr  Cr12  1  0.33187579  0.32987394  0.00080031  1
  Cr  Cr13  1  0.49867689  0.50008413  0.16639084  1
  Cr  Cr14  1  0.32831389  0.33146408  0.33201180  1
  Ni  Ni15  1  0.33332414  0.66629763  0.00086180  1
  Fe  Fe16  1  0.49814114  0.83172807  0.16629277  1
  Ni  Ni17  1  0.33110213  0.66974431  0.33235143  1
  Cr  Cr18  1  0.66461473  0.00067609  0.00118137  1
  Ni  Ni19  1  0.83226051  0.16718876  0.16725688  1
  Fe  Fe20  1  0.66591836  0.99858368  0.33226847  1
  Fe  Fe21  1  0.66543787  0.33121772  -0.00016558  1
  Ni  Ni22  1  0.83544298  0.49828486  0.16387771  1
  Cr  Cr23  1  0.66765359  0.33153477  0.32943692  1
  Ni  Ni24  1  0.66619741  0.66158613  -0.00047208  1
  Cr  Cr25  1  0.83505911  0.83194084  0.16817616  1
  Ni  Ni26  1  0.66612041  0.66857810  0.33220038  1
  Ni  Ni27  1  0.16567579  0.16380786  0.49708450  1
  Cr  Cr28  1  0.00026357  -0.00044812  0.66576827  1
  Ni  Ni29  1  0.16820010  0.16455543  0.83311956  1
  Ni  Ni30  1  0.16541158  0.49952595  0.49563539  1
  Cr  Cr31  1  0.00002371  0.33022374  0.66447194  1
  Cr  Cr32  1  0.16593609  0.50066232  0.83343091  1
  Ni  Ni33  1  0.16643184  0.83435018  0.49648894  1
  Cr  Cr34  1  -0.00058818  0.66798497  0.66446742  1
  Ni  Ni35  1  0.16846809  0.83454399  0.83528547  1
  Cr  Cr36  1  0.49855082  0.16381909  0.50201919  1
  Ni  Ni37  1  0.33193999  0.00096707  0.66723227  1
  Ni  Ni38  1  0.49839578  0.16671496  0.83083961  1
  Cr  Cr39  1  0.49697432  0.49831381  0.50037647  1
  Ni  Ni40  1  0.33247105  0.32974974  0.66645735  1
  Ni  Ni41  1  0.50057841  0.49592269  0.83339422  1
  Ni  Ni42  1  0.49814864  0.83580205  0.49488616  1
  Cr  Cr43  1  0.33187186  0.66713983  0.66343325  1
  Cr  Cr44  1  0.49713005  0.83453646  0.83451505  1
  Ni  Ni45  1  0.83334136  0.16278528  0.49775579  1
  Ni  Ni46  1  0.66560611  0.00167080  0.66392508  1
  Ni  Ni47  1  0.83056138  0.16877397  0.83254118  1
  Cr  Cr48  1  0.83442614  0.49803170  0.49613845  1
  Ni  Ni49  1  0.66582396  0.33009193  0.67112481  1
  Ni  Ni50  1  0.83080128  0.49605477  0.83787294  1
  Ni  Ni51  1  0.83256954  0.83571873  0.49540605  1
  Cr  Cr52  1  0.66600150  0.66622613  0.66502957  1
  Cr  Cr53  1  0.83443848  0.83186233  0.83318256  1
" 