7964,Ni56Fe40Cr3_14,-239.853532159756, 216.848882388573,Ni56Fe40Cr3,"# generated using pymatgen
 data_CrFe7Ni10
_symmetry_space_group_name_H-M   'P 1'
_cell_length_a   7.41189372
_cell_length_b   7.41189372
_cell_length_c   10.48200062
_cell_angle_alpha   90.00000000
_cell_angle_beta   90.00000000
_cell_angle_gamma   90.00000000
_symmetry_Int_Tables_number   1
_chemical_formula_structural   CrFe7Ni10
_chemical_formula_sum   'Cr3 Fe21 Ni30'
_cell_volume   575.84095299
_cell_formula_units_Z   3
loop_
 _symmetry_equiv_pos_site_id
 _symmetry_equiv_pos_as_xyz
  1  'x, y, z'
loop_
 _atom_site_type_symbol
 _atom_site_label
 _atom_site_symmetry_multiplicity
 _atom_site_fract_x
 _atom_site_fract_y
 _atom_site_fract_z
 _atom_site_occupancy
  Fe  Fe0  1  0.00628927  0.00436714  0.00402129  1
  Fe  Fe1  1  0.17148178  0.17087342  0.16999382  1
  Fe  Fe2  1  0.00430444  0.00506974  0.33664982  1
  Fe  Fe3  1  0.00556676  0.33687526  1.00357801  1
  Fe  Fe4  1  0.17088462  0.50441842  0.17125190  1
  Ni  Ni5  1  0.00483445  0.33801588  0.33570811  1
  Fe  Fe6  1  0.00529789  0.66945690  0.00395140  1
  Ni  Ni7  1  0.17136536  0.83823265  0.17162311  1
  Ni  Ni8  1  0.00378371  0.66968895  0.33634972  1
  Ni  Ni9  1  0.33707859  0.00400734  1.00363388  1
  Fe  Fe10  1  0.50382521  0.17056566  0.17053000  1
  Ni  Ni11  1  0.33824992  0.00483756  0.33667453  1
  Ni  Ni12  1  0.33732140  0.33732267  0.00381014  1
  Ni  Ni13  1  0.50390365  0.50343198  0.17115710  1
  Ni  Ni14  1  0.33498932  0.33493645  0.33640442  1
  Ni  Ni15  1  0.33554894  0.67028469  0.00448890  1
  Ni  Ni16  1  0.50083673  0.83629913  0.16892841  1
  Fe  Fe17  1  0.33523505  0.67042835  0.33693137  1
  Fe  Fe18  1  0.66860842  0.00426667  0.00479989  1
  Ni  Ni19  1  0.83820903  0.17140803  0.16978822  1
  Ni  Ni20  1  0.66969782  1.00367455  0.33555236  1
  Ni  Ni21  1  0.67056779  0.33660498  0.00456769  1
  Ni  Ni22  1  0.83666613  0.50133275  0.16953832  1
  Fe  Fe23  1  0.67077381  0.33501186  0.33648019  1
  Fe  Fe24  1  0.66758141  0.66830690  0.00409339  1
  Fe  Fe25  1  0.83712019  0.83670876  0.16934566  1
  Cr  Cr26  1  0.67143731  0.67154551  0.33899296  1
  Ni  Ni27  1  0.16972747  0.17014646  0.50378198  1
  Fe  Fe28  1  0.00564367  0.00465875  0.67027142  1
  Ni  Ni29  1  0.16990534  0.16841949  0.83658648  1
  Ni  Ni30  1  0.16959832  0.50424984  0.50457133  1
  Ni  Ni31  1  0.00424959  0.33804118  0.67185491  1
  Fe  Fe32  1  0.17140894  0.50383479  0.83619464  1
  Ni  Ni33  1  0.17142057  0.83694868  0.50380167  1
  Ni  Ni34  1  0.00442313  0.66992309  0.67082184  1
  Ni  Ni35  1  0.17139982  0.83816374  0.83558634  1
  Ni  Ni36  1  0.50433885  0.17008764  0.50265860  1
  Ni  Ni37  1  0.33640570  0.00457293  0.67045379  1
  Fe  Fe38  1  0.50165955  0.17311331  0.83762260  1
  Fe  Fe39  1  0.49949881  0.50067053  0.50396876  1
  Ni  Ni40  1  0.33568334  0.33543606  0.67103073  1
  Ni  Ni41  1  0.50473844  0.50319404  0.83628438  1
  Ni  Ni42  1  0.50023139  0.83789566  0.50351748  1
  Ni  Ni43  1  0.33521916  0.67077960  0.66967786  1
  Fe  Fe44  1  0.50050395  0.83583375  0.83866261  1
  Ni  Ni45  1  0.83775183  0.17275519  0.50345710  1
  Cr  Cr46  1  0.66897264  0.00476079  0.67206827  1
  Fe  Fe47  1  0.83776568  0.17221942  0.83821207  1
  Fe  Fe48  1  0.84056565  0.50182077  0.50367874  1
  Ni  Ni49  1  0.67119694  0.33683653  0.66867708  1
  Ni  Ni50  1  0.83562252  0.50203882  0.83778912  1
  Fe  Fe51  1  0.84034959  0.84067158  0.50283842  1
  Cr  Cr52  1  0.67140589  0.67020843  0.66872141  1
  Fe  Fe53  1  0.83976847  0.83566098  0.83928002  1
" 