6657,Ni56Fe22Cr21_2,-231.945706972215, 186.847076884049,Ni56Fe22Cr21,"# generated using pymatgen
 data_Cr13Fe11Ni30
_symmetry_space_group_name_H-M   'P 1'
_cell_length_a   7.45319374
_cell_length_b   7.45319374
_cell_length_c   10.54040767
_cell_angle_alpha   90.00000000
_cell_angle_beta   90.00000000
_cell_angle_gamma   90.00000000
_symmetry_Int_Tables_number   1
_chemical_formula_structural   Cr13Fe11Ni30
_chemical_formula_sum   'Cr13 Fe11 Ni30'
_cell_volume   585.52066745
_cell_formula_units_Z   1
loop_
 _symmetry_equiv_pos_site_id
 _symmetry_equiv_pos_as_xyz
  1  'x, y, z'
loop_
 _atom_site_type_symbol
 _atom_site_label
 _atom_site_symmetry_multiplicity
 _atom_site_fract_x
 _atom_site_fract_y
 _atom_site_fract_z
 _atom_site_occupancy
  Fe  Fe0  1  0.00140247  1.00056418  0.00217704  1
  Ni  Ni1  1  0.16716338  0.16651537  0.16697564  1
  Ni  Ni2  1  0.00130401  0.99985976  0.33305306  1
  Fe  Fe3  1  1.00014030  0.33529007  1.00091387  1
  Fe  Fe4  1  0.16538852  0.50136313  0.16639099  1
  Fe  Fe5  1  0.99979461  0.33436177  0.33394958  1
  Fe  Fe6  1  1.00037905  0.66693406  0.00118840  1
  Fe  Fe7  1  0.16591801  0.83518312  0.16822721  1
  Ni  Ni8  1  0.00173565  0.66828839  0.33481578  1
  Ni  Ni9  1  0.33159723  1.00069646  0.00173065  1
  Ni  Ni10  1  0.49955967  0.16785253  0.16811090  1
  Ni  Ni11  1  0.33225864  1.00014946  0.33441226  1
  Ni  Ni12  1  0.33231309  0.33427860  0.00218738  1
  Cr  Cr13  1  0.50145890  0.50026191  0.16560652  1
  Cr  Cr14  1  0.33286801  0.33314445  0.33342593  1
  Ni  Ni15  1  0.33180365  0.66781141  0.99965951  1
  Cr  Cr16  1  0.49965704  0.83488318  0.16843460  1
  Ni  Ni17  1  0.32983392  0.66999079  0.33542099  1
  Cr  Cr18  1  0.66929099  0.00096685  1.00054214  1
  Ni  Ni19  1  0.83606631  0.16850091  0.16894920  1
  Ni  Ni20  1  0.66922229  0.00203085  0.33381801  1
  Ni  Ni21  1  0.67014142  0.33533502  0.00143580  1
  Ni  Ni22  1  0.83617726  0.50026410  0.16704130  1
  Ni  Ni23  1  0.67092352  0.33221624  0.33238723  1
  Ni  Ni24  1  0.67033468  0.66644031  0.99985965  1
  Ni  Ni25  1  0.83751372  0.83402330  0.16824042  1
  Cr  Cr26  1  0.67037917  0.66825680  0.33445354  1
  Ni  Ni27  1  0.16713990  0.16828340  0.50019438  1
  Cr  Cr28  1  0.99842304  1.00072902  0.66844707  1
  Cr  Cr29  1  0.16649720  0.16948506  0.83549449  1
  Fe  Fe30  1  0.16546897  0.50199990  0.50255569  1
  Ni  Ni31  1  0.00143896  0.33721024  0.66738356  1
  Ni  Ni32  1  0.16653194  0.50205427  0.83357868  1
  Fe  Fe33  1  0.16762227  0.83287111  0.49851149  1
  Fe  Fe34  1  1.00017165  0.66541921  0.66737222  1
  Fe  Fe35  1  0.16781950  0.83074511  0.83605172  1
  Cr  Cr36  1  0.50003136  0.16560908  0.50084098  1
  Cr  Cr37  1  0.33557101  0.99941825  0.66684064  1
  Cr  Cr38  1  0.50143657  0.16749334  0.83373823  1
  Cr  Cr39  1  0.50105611  0.50328999  0.50278287  1
  Ni  Ni40  1  0.33052416  0.33724249  0.66718102  1
  Cr  Cr41  1  0.50036652  0.50306186  0.83439631  1
  Ni  Ni42  1  0.50047873  0.83350112  0.50108758  1
  Ni  Ni43  1  0.33402607  0.66632949  0.66770791  1
  Ni  Ni44  1  0.50136475  0.83199482  0.83355489  1
  Cr  Cr45  1  0.83591799  0.16781439  0.50005111  1
  Ni  Ni46  1  0.66903308  0.99752787  0.66846770  1
  Ni  Ni47  1  0.83520789  0.16842349  0.83383228  1
  Ni  Ni48  1  0.83693314  0.50276671  0.50178493  1
  Fe  Fe49  1  0.66997464  0.33535610  0.66849631  1
  Ni  Ni50  1  0.83610152  0.50187480  0.83396081  1
  Ni  Ni51  1  0.83403206  0.83207841  0.50070613  1
  Ni  Ni52  1  0.66900188  0.66965409  0.66791708  1
  Ni  Ni53  1  0.83339072  0.83249046  0.83384346  1
" 