4994,Ni56Cr44_6,-216.837171240265, 134.253099558777,Ni56Cr44,"# generated using pymatgen
 data_Cr5Ni4
_symmetry_space_group_name_H-M   'P 1'
_cell_length_a   7.53398869
_cell_length_b   7.53398869
_cell_length_c   10.65466898
_cell_angle_alpha   90.00000000
_cell_angle_beta   90.00000000
_cell_angle_gamma   90.00000000
_symmetry_Int_Tables_number   1
_chemical_formula_structural   Cr5Ni4
_chemical_formula_sum   'Cr30 Ni24'
_cell_volume   604.76951214
_cell_formula_units_Z   6
loop_
 _symmetry_equiv_pos_site_id
 _symmetry_equiv_pos_as_xyz
  1  'x, y, z'
loop_
 _atom_site_type_symbol
 _atom_site_label
 _atom_site_symmetry_multiplicity
 _atom_site_fract_x
 _atom_site_fract_y
 _atom_site_fract_z
 _atom_site_occupancy
  Cr  Cr0  1  0.99494057  0.99318730  -0.00328887  1
  Cr  Cr1  1  0.16459641  0.16457977  0.16270787  1
  Cr  Cr2  1  0.99359041  0.99246647  0.32631516  1
  Cr  Cr3  1  -0.00316007  0.33055393  0.99371854  1
  Ni  Ni4  1  0.16184559  0.50075551  0.16216607  1
  Cr  Cr5  1  0.99505359  0.33264373  0.33101917  1
  Ni  Ni6  1  -0.00341942  0.65954742  -0.00415778  1
  Cr  Cr7  1  0.16480041  0.82485669  0.16336654  1
  Ni  Ni8  1  -0.00332524  0.65995063  0.32905624  1
  Cr  Cr9  1  0.33116688  0.99334608  0.99295593  1
  Cr  Cr10  1  0.49716584  0.16459172  0.16449654  1
  Ni  Ni11  1  0.33365354  0.99363821  0.32882454  1
  Cr  Cr12  1  0.32877474  0.33139689  0.99086775  1
  Cr  Cr13  1  0.49293428  0.49617414  0.16134054  1
  Cr  Cr14  1  0.32869182  0.33199773  0.33310465  1
  Ni  Ni15  1  0.32842607  0.66090824  0.99465773  1
  Ni  Ni16  1  0.49501735  0.82807504  0.16414058  1
  Ni  Ni17  1  0.32832841  0.66195750  0.32876967  1
  Cr  Cr18  1  0.66099373  0.99237960  -0.00324189  1
  Cr  Cr19  1  0.82452556  0.16438954  0.16282546  1
  Ni  Ni20  1  0.65885969  0.99511033  0.32778103  1
  Ni  Ni21  1  0.66058954  0.33070689  0.99180457  1
  Cr  Cr22  1  0.82801150  0.49496235  0.16055505  1
  Ni  Ni23  1  0.66046901  0.32934461  0.33252099  1
  Cr  Cr24  1  0.66072831  0.66291855  0.99424031  1
  Ni  Ni25  1  0.82823509  0.82611771  0.16364703  1
  Cr  Cr26  1  0.66261402  0.66246323  0.32946307  1
  Cr  Cr27  1  0.16526323  0.16016028  0.49492986  1
  Cr  Cr28  1  0.99548961  -0.00380367  0.66412816  1
  Ni  Ni29  1  0.16468825  0.16468244  0.82895194  1
  Ni  Ni30  1  0.16173841  0.49924116  0.49439403  1
  Cr  Cr31  1  -0.00239869  0.33162008  0.66156243  1
  Ni  Ni32  1  0.16174776  0.49751141  0.82997677  1
  Cr  Cr33  1  0.16307714  0.82550860  0.49516791  1
  Ni  Ni34  1  0.99416600  0.65674345  0.66172924  1
  Cr  Cr35  1  0.16323478  0.82540819  0.82775356  1
  Ni  Ni36  1  0.49772192  0.16270636  0.49374599  1
  Cr  Cr37  1  0.33139846  -0.00263094  0.66507142  1
  Ni  Ni38  1  0.49647766  0.16296674  0.82849279  1
  Ni  Ni39  1  0.49658339  0.49513600  0.49448981  1
  Cr  Cr40  1  0.32897635  0.32989560  0.66236279  1
  Ni  Ni41  1  0.49624622  0.49665824  0.82980551  1
  Cr  Cr42  1  0.49534055  0.82921410  0.49614225  1
  Cr  Cr43  1  0.33228651  0.65794398  0.66257059  1
  Ni  Ni44  1  0.49639760  0.82662116  0.82753935  1
  Cr  Cr45  1  0.82440356  0.16297349  0.49482887  1
  Ni  Ni46  1  0.65826928  0.99476455  0.66354748  1
  Cr  Cr47  1  0.82677940  0.16511366  0.82916695  1
  Ni  Ni48  1  0.82834784  0.49782112  0.49627872  1
  Cr  Cr49  1  0.65975196  0.33296316  0.66141050  1
  Ni  Ni50  1  0.82880448  0.49753788  0.82852083  1
  Cr  Cr51  1  0.82905951  0.82726119  0.49969880  1
  Ni  Ni52  1  0.66311283  0.66118317  0.66331367  1
  Cr  Cr53  1  0.82902763  0.82587811  0.82486256  1
" 