2060,Ni56Fe20Cr22_3,-231.329608045329, 185.245461237839,Ni56Fe20Cr22,"# generated using pymatgen
 data_Cr7(FeNi3)5
_symmetry_space_group_name_H-M   'P 1'
_cell_length_a   7.45705569
_cell_length_b   7.45705569
_cell_length_c   10.54586930
_cell_angle_alpha   90.00000000
_cell_angle_beta   90.00000000
_cell_angle_gamma   90.00000000
_symmetry_Int_Tables_number   1
_chemical_formula_structural   Cr7(FeNi3)5
_chemical_formula_sum   'Cr14 Fe10 Ni30'
_cell_volume   586.43132106
_cell_formula_units_Z   2
loop_
 _symmetry_equiv_pos_site_id
 _symmetry_equiv_pos_as_xyz
  1  'x, y, z'
loop_
 _atom_site_type_symbol
 _atom_site_label
 _atom_site_symmetry_multiplicity
 _atom_site_fract_x
 _atom_site_fract_y
 _atom_site_fract_z
 _atom_site_occupancy
  Fe  Fe0  1  0.00227051  0.00301477  0.00105751  1
  Ni  Ni1  1  0.16747324  0.16800794  0.16749648  1
  Ni  Ni2  1  0.00232063  0.00257110  0.33291990  1
  Ni  Ni3  1  0.00261151  0.33441207  1.00032553  1
  Ni  Ni4  1  0.16404369  0.49932597  0.16714551  1
  Ni  Ni5  1  0.00152118  0.33434316  0.33505447  1
  Ni  Ni6  1  0.00398030  0.66633884  0.00279114  1
  Fe  Fe7  1  0.16629320  0.83413424  0.16762025  1
  Ni  Ni8  1  0.00202095  0.66541373  0.33352754  1
  Ni  Ni9  1  0.33258147  0.00335009  1.00044903  1
  Ni  Ni10  1  0.49923771  0.16694001  0.16652149  1
  Ni  Ni11  1  0.33076238  0.00297113  0.33289425  1
  Ni  Ni12  1  0.33223926  0.33195486  0.99988660  1
  Cr  Cr13  1  0.49924588  0.49703607  0.16679822  1
  Fe  Fe14  1  0.33012574  0.33460835  0.33281946  1
  Fe  Fe15  1  0.33064415  0.66529786  1.00039456  1
  Cr  Cr16  1  0.49804214  0.83678333  0.16707231  1
  Ni  Ni17  1  0.33090322  0.66505184  0.33332114  1
  Ni  Ni18  1  0.66680464  0.00473696  0.00098719  1
  Fe  Fe19  1  0.83569952  0.17034195  0.16657198  1
  Cr  Cr20  1  0.66950303  0.00240319  0.33428680  1
  Ni  Ni21  1  0.66705911  0.33074780  0.00174608  1
  Ni  Ni22  1  0.83757080  0.49913117  0.16750981  1
  Fe  Fe23  1  0.66962543  0.33440746  0.33363763  1
  Cr  Cr24  1  0.66833907  0.66589350  1.00058869  1
  Fe  Fe25  1  0.83785516  0.83459443  0.16721909  1
  Cr  Cr26  1  0.66921107  0.66496996  0.33628966  1
  Ni  Ni27  1  0.16628698  0.17001398  0.50012688  1
  Cr  Cr28  1  0.00275376  0.00318355  0.66748073  1
  Ni  Ni29  1  0.16837633  0.16861418  0.83409762  1
  Ni  Ni30  1  0.16669026  0.49915995  0.50023065  1
  Fe  Fe31  1  0.00344121  0.33479917  0.66667699  1
  Ni  Ni32  1  0.16708427  0.50045206  0.83457728  1
  Cr  Cr33  1  0.16733745  0.83411657  0.49919467  1
  Ni  Ni34  1  0.00262859  0.66503760  0.66572418  1
  Ni  Ni35  1  0.16845065  0.83311709  0.83605943  1
  Cr  Cr36  1  0.49630431  0.16858732  0.49836728  1
  Ni  Ni37  1  0.33152253  0.00264452  0.66871126  1
  Ni  Ni38  1  0.49906038  0.16757049  0.83652321  1
  Ni  Ni39  1  0.49883546  0.50047816  0.50081717  1
  Fe  Fe40  1  0.33164953  0.33501528  0.66840469  1
  Fe  Fe41  1  0.49807259  0.49815898  0.83391689  1
  Cr  Cr42  1  0.49842482  0.83277001  0.50223871  1
  Ni  Ni43  1  0.33203967  0.66452321  0.66889385  1
  Cr  Cr44  1  0.49855887  0.83473663  0.83285246  1
  Ni  Ni45  1  0.83726460  0.16964700  0.49868541  1
  Cr  Cr46  1  0.66814419  0.00205056  0.66683951  1
  Ni  Ni47  1  0.83466049  0.16898360  0.83751030  1
  Ni  Ni48  1  0.83630489  0.50041245  0.50058927  1
  Cr  Cr49  1  0.66760183  0.33407125  0.66731125  1
  Cr  Cr50  1  0.83709366  0.49914639  0.83396280  1
  Ni  Ni51  1  0.83620229  0.83214752  0.50057610  1
  Ni  Ni52  1  0.66719704  0.66430934  0.66486691  1
  Cr  Cr53  1  0.83620642  0.83364942  0.83401022  1
" 