5719,Ni56Fe22Cr21_12,-231.694482306854, 184.000991219666,Ni56Fe22Cr21,"# generated using pymatgen
 data_Cr13Fe11Ni30
_symmetry_space_group_name_H-M   'P 1'
_cell_length_a   7.44833151
_cell_length_b   7.44833151
_cell_length_c   10.53353144
_cell_angle_alpha   90.00000000
_cell_angle_beta   90.00000000
_cell_angle_gamma   90.00000000
_symmetry_Int_Tables_number   1
_chemical_formula_structural   Cr13Fe11Ni30
_chemical_formula_sum   'Cr13 Fe11 Ni30'
_cell_volume   584.37549004
_cell_formula_units_Z   1
loop_
 _symmetry_equiv_pos_site_id
 _symmetry_equiv_pos_as_xyz
  1  'x, y, z'
loop_
 _atom_site_type_symbol
 _atom_site_label
 _atom_site_symmetry_multiplicity
 _atom_site_fract_x
 _atom_site_fract_y
 _atom_site_fract_z
 _atom_site_occupancy
  Cr  Cr0  1  1.00035886  0.00250221  0.00238922  1
  Ni  Ni1  1  0.16982298  0.16999920  0.16924031  1
  Cr  Cr2  1  0.00145518  1.00081031  0.33302924  1
  Ni  Ni3  1  0.00155492  0.33339601  1.00046880  1
  Fe  Fe4  1  0.16611744  0.49835565  0.16875083  1
  Ni  Ni5  1  1.00038075  0.33462812  0.33390777  1
  Cr  Cr6  1  0.99998733  0.66775080  0.00164696  1
  Ni  Ni7  1  0.16870431  0.83569112  0.16831123  1
  Ni  Ni8  1  0.99786454  0.66786000  0.33355547  1
  Ni  Ni9  1  0.33492670  0.00495091  0.99964526  1
  Ni  Ni10  1  0.50060301  0.16878917  0.16706004  1
  Ni  Ni11  1  0.33480062  0.00432382  0.33607642  1
  Ni  Ni12  1  0.33393216  0.33124763  0.00263079  1
  Fe  Fe13  1  0.50259069  0.49860443  0.16847691  1
  Ni  Ni14  1  0.33677023  0.33115714  0.33437620  1
  Cr  Cr15  1  0.33326002  0.66748483  1.00007722  1
  Cr  Cr16  1  0.50125593  0.83839756  0.16794988  1
  Cr  Cr17  1  0.33591563  0.66793223  0.33517012  1
  Ni  Ni18  1  0.66795007  0.00337043  1.00054674  1
  Ni  Ni19  1  0.83315490  0.17100336  0.16723902  1
  Fe  Fe20  1  0.66688213  0.00278018  0.33384160  1
  Fe  Fe21  1  0.66917160  0.33248735  0.00267808  1
  Ni  Ni22  1  0.83576443  0.49884334  0.16984355  1
  Ni  Ni23  1  0.66680496  0.33569915  0.33395388  1
  Cr  Cr24  1  0.67041755  0.66848184  0.00167911  1
  Ni  Ni25  1  0.83347148  0.83377890  0.17035230  1
  Ni  Ni26  1  0.67048487  0.66613093  0.33638282  1
  Fe  Fe27  1  0.16815987  0.16519119  0.50074878  1
  Ni  Ni28  1  0.00129669  0.00213244  0.66871730  1
  Ni  Ni29  1  0.16830225  0.16828606  0.83357184  1
  Cr  Cr30  1  0.16400726  0.49948230  0.49953941  1
  Fe  Fe31  1  1.00013698  0.33365992  0.66976426  1
  Ni  Ni32  1  0.16563850  0.49755803  0.83663830  1
  Ni  Ni33  1  0.16850161  0.83640843  0.50160853  1
  Cr  Cr34  1  0.99890080  0.67018377  0.66939814  1
  Ni  Ni35  1  0.16930803  0.83779228  0.83417172  1
  Ni  Ni36  1  0.50090281  0.16595150  0.50019841  1
  Ni  Ni37  1  0.33399773  0.00292998  0.66796221  1
  Fe  Fe38  1  0.50089286  0.16608983  0.83544348  1
  Fe  Fe39  1  0.50502960  0.50127814  0.50047929  1
  Cr  Cr40  1  0.33577184  0.33149794  0.66607014  1
  Cr  Cr41  1  0.50279926  0.50006505  0.83511461  1
  Ni  Ni42  1  0.50255251  0.83784176  0.50174774  1
  Cr  Cr43  1  0.33726604  0.66979063  0.66859445  1
  Ni  Ni44  1  0.50215823  0.83852534  0.83354399  1
  Cr  Cr45  1  0.83405840  0.16944360  0.50148400  1
  Fe  Fe46  1  0.66687534  0.99944237  0.66834746  1
  Fe  Fe47  1  0.83502850  0.16769545  0.83433167  1
  Ni  Ni48  1  0.83356838  0.50120120  0.50096365  1
  Fe  Fe49  1  0.66905639  0.33441232  0.66680262  1
  Ni  Ni50  1  0.83507395  0.49800532  0.83317349  1
  Ni  Ni51  1  0.83275061  0.83332772  0.50043226  1
  Ni  Ni52  1  0.66941121  0.66775607  0.66661842  1
  Ni  Ni53  1  0.83199636  0.83544006  0.83309942  1
" 