4960,Ni56Fe36Cr6_13,-238.643070159575, 217.195597044434,Ni56Fe36Cr6,"# generated using pymatgen
 data_Cr5Fe19Ni30
_symmetry_space_group_name_H-M   'P 1'
_cell_length_a   7.41940379
_cell_length_b   7.41940379
_cell_length_c   10.49262147
_cell_angle_alpha   90.00000000
_cell_angle_beta   90.00000000
_cell_angle_gamma   90.00000000
_symmetry_Int_Tables_number   1
_chemical_formula_structural   Cr5Fe19Ni30
_chemical_formula_sum   'Cr5 Fe19 Ni30'
_cell_volume   577.59313256
_cell_formula_units_Z   1
loop_
 _symmetry_equiv_pos_site_id
 _symmetry_equiv_pos_as_xyz
  1  'x, y, z'
loop_
 _atom_site_type_symbol
 _atom_site_label
 _atom_site_symmetry_multiplicity
 _atom_site_fract_x
 _atom_site_fract_y
 _atom_site_fract_z
 _atom_site_occupancy
  Ni  Ni0  1  0.00403335  0.00448818  0.00333612  1
  Ni  Ni1  1  0.17018286  0.16949187  0.16965759  1
  Ni  Ni2  1  1.00259059  1.00134130  0.33793624  1
  Fe  Fe3  1  0.00380089  0.33589677  0.00332738  1
  Ni  Ni4  1  0.17126683  0.50450918  0.16868340  1
  Cr  Cr5  1  0.00412410  0.33580049  0.33733285  1
  Fe  Fe6  1  0.00448071  0.66931533  0.00399676  1
  Ni  Ni7  1  0.16959436  0.83562929  0.16977480  1
  Ni  Ni8  1  0.00341134  0.67213059  0.33714782  1
  Ni  Ni9  1  0.33580268  0.00351571  1.00272248  1
  Fe  Fe10  1  0.50255014  0.17015408  0.16976019  1
  Fe  Fe11  1  0.33585723  0.00359232  0.33599618  1
  Ni  Ni12  1  0.33639593  0.33689816  1.00288499  1
  Fe  Fe13  1  0.50239629  0.50282735  0.16948319  1
  Ni  Ni14  1  0.33823228  0.33720542  0.33716595  1
  Ni  Ni15  1  0.33683136  0.66921984  1.00171597  1
  Fe  Fe16  1  0.50257468  0.83664938  0.16969566  1
  Ni  Ni17  1  0.33578880  0.66820620  0.33681544  1
  Ni  Ni18  1  0.66979416  0.00404990  0.00330583  1
  Ni  Ni19  1  0.83505773  0.16841796  0.16824948  1
  Ni  Ni20  1  0.67148212  0.00378500  0.33609075  1
  Ni  Ni21  1  0.66972228  0.33688085  1.00224356  1
  Fe  Fe22  1  0.83646320  0.50369292  0.16933016  1
  Ni  Ni23  1  0.66755771  0.33638447  0.33781244  1
  Ni  Ni24  1  0.66875222  0.66870145  0.00383510  1
  Fe  Fe25  1  0.83769215  0.83719296  0.17033686  1
  Ni  Ni26  1  0.67043294  0.66946455  0.33613031  1
  Fe  Fe27  1  0.17037076  0.16671334  0.50274371  1
  Ni  Ni28  1  0.00405718  1.00175863  0.66836082  1
  Ni  Ni29  1  0.17067186  0.16930918  0.83811555  1
  Ni  Ni30  1  0.17066151  0.50624224  0.50208925  1
  Cr  Cr31  1  1.00236961  0.33616535  0.66985950  1
  Ni  Ni32  1  0.17094370  0.50433732  0.83885886  1
  Ni  Ni33  1  0.16723074  0.83488606  0.50386693  1
  Ni  Ni34  1  0.00336238  0.67124288  0.66861820  1
  Fe  Fe35  1  0.17213452  0.83703332  0.83630907  1
  Ni  Ni36  1  0.50537972  0.17117999  0.50183741  1
  Ni  Ni37  1  0.33562683  1.00262414  0.67084535  1
  Ni  Ni38  1  0.50385126  0.16990417  0.83769830  1
  Fe  Fe39  1  0.50402073  0.50243996  0.50204318  1
  Cr  Cr40  1  0.33784453  0.33601250  0.66933429  1
  Ni  Ni41  1  0.50304507  0.50320993  0.83690613  1
  Cr  Cr42  1  0.50350762  0.83707949  0.50362330  1
  Fe  Fe43  1  0.33427261  0.67084067  0.67059295  1
  Fe  Fe44  1  0.50079580  0.83664509  0.83705469  1
  Ni  Ni45  1  0.83386395  0.16774551  0.50409206  1
  Fe  Fe46  1  0.67031295  0.00492747  0.66934149  1
  Fe  Fe47  1  0.83585797  0.17113384  0.83764510  1
  Fe  Fe48  1  0.83530499  0.50525238  0.50299082  1
  Fe  Fe49  1  0.66995515  0.33562178  0.66986042  1
  Fe  Fe50  1  0.83546831  0.50191443  0.83731539  1
  Ni  Ni51  1  0.83857708  0.83720120  0.50191307  1
  Fe  Fe52  1  0.67042059  0.66908519  0.67005253  1
  Cr  Cr53  1  0.83660460  0.83743338  0.83664505  1
" 