3875,Ni56Fe27Cr16_19,-234.396536003066, 194.729869942339,Ni56Fe27Cr16,"# generated using pymatgen
 data_Cr5Fe7Ni15
_symmetry_space_group_name_H-M   'P 1'
_cell_length_a   7.44255822
_cell_length_b   7.44255822
_cell_length_c   10.52536677
_cell_angle_alpha   90.00000000
_cell_angle_beta   90.00000000
_cell_angle_gamma   90.00000000
_symmetry_Int_Tables_number   1
_chemical_formula_structural   Cr5Fe7Ni15
_chemical_formula_sum   'Cr10 Fe14 Ni30'
_cell_volume   583.01767213
_cell_formula_units_Z   2
loop_
 _symmetry_equiv_pos_site_id
 _symmetry_equiv_pos_as_xyz
  1  'x, y, z'
loop_
 _atom_site_type_symbol
 _atom_site_label
 _atom_site_symmetry_multiplicity
 _atom_site_fract_x
 _atom_site_fract_y
 _atom_site_fract_z
 _atom_site_occupancy
  Fe  Fe0  1  0.00378182  0.00260934  1.00070478  1
  Ni  Ni1  1  0.17045881  0.16948696  0.16744795  1
  Fe  Fe2  1  0.00300390  1.00074310  0.33628596  1
  Ni  Ni3  1  0.00281157  0.33614988  1.00130372  1
  Ni  Ni4  1  0.16745613  0.50025845  0.16664024  1
  Ni  Ni5  1  1.00024533  0.33536743  0.33403433  1
  Ni  Ni6  1  1.00138058  0.66714680  0.00395248  1
  Ni  Ni7  1  0.16917764  0.83519307  0.16767978  1
  Fe  Fe8  1  1.00015613  0.66733661  0.33473538  1
  Ni  Ni9  1  0.33687051  1.00138268  0.00336504  1
  Ni  Ni10  1  0.49853916  0.16803707  0.16862160  1
  Fe  Fe11  1  0.33586906  0.00259780  0.33411272  1
  Ni  Ni12  1  0.33311604  0.33319620  0.00371812  1
  Ni  Ni13  1  0.50123006  0.50139565  0.16857999  1
  Ni  Ni14  1  0.33610326  0.33316880  0.33274589  1
  Ni  Ni15  1  0.33480451  0.67035739  0.00447514  1
  Ni  Ni16  1  0.50095430  0.83550330  0.16639563  1
  Cr  Cr17  1  0.33560519  0.66961613  0.33432033  1
  Ni  Ni18  1  0.66579671  0.99994769  0.99986856  1
  Cr  Cr19  1  0.83554757  0.16925554  0.16970814  1
  Fe  Fe20  1  0.66606381  0.00166890  0.33605835  1
  Cr  Cr21  1  0.66837174  0.33396114  0.00322792  1
  Ni  Ni22  1  0.83624878  0.50267361  0.16857332  1
  Fe  Fe23  1  0.66729315  0.33662197  0.33578719  1
  Fe  Fe24  1  0.66750527  0.66969311  0.00260531  1
  Cr  Cr25  1  0.83453978  0.83294115  0.16761272  1
  Ni  Ni26  1  0.66939462  0.66814459  0.33541042  1
  Cr  Cr27  1  0.16918671  0.16777542  0.50276156  1
  Ni  Ni28  1  1.00056601  0.00290538  0.66828985  1
  Ni  Ni29  1  0.16774517  0.16897286  0.83491590  1
  Cr  Cr30  1  0.16793270  0.50107143  0.50313711  1
  Ni  Ni31  1  0.99847112  0.33257623  0.66960048  1
  Cr  Cr32  1  0.16806421  0.49840790  0.83529499  1
  Ni  Ni33  1  0.16774313  0.83626065  0.50215272  1
  Cr  Cr34  1  1.00092297  0.66932772  0.66598789  1
  Cr  Cr35  1  0.16949333  0.83705404  0.83517303  1
  Ni  Ni36  1  0.50301972  0.16798025  0.50202865  1
  Ni  Ni37  1  0.33656964  1.00088035  0.66774026  1
  Ni  Ni38  1  0.50111143  0.16583619  0.83428429  1
  Fe  Fe39  1  0.50370704  0.50162193  0.50233840  1
  Ni  Ni40  1  0.33727623  0.33320036  0.66846827  1
  Cr  Cr41  1  0.50123524  0.50237565  0.83336223  1
  Ni  Ni42  1  0.50334663  0.83618038  0.50348953  1
  Ni  Ni43  1  0.33789696  0.67085584  0.66619088  1
  Ni  Ni44  1  0.50416887  0.83696691  0.83505182  1
  Fe  Fe45  1  0.83393133  0.16793133  0.50202091  1
  Fe  Fe46  1  0.66723886  0.00226694  0.66861061  1
  Fe  Fe47  1  0.83561407  0.16755107  0.83418513  1
  Ni  Ni48  1  0.83308179  0.50179178  0.50110688  1
  Ni  Ni49  1  0.66918593  0.33389430  0.66613614  1
  Fe  Fe50  1  0.83519643  0.50079700  0.83494538  1
  Ni  Ni51  1  0.83384525  0.83450536  0.50131941  1
  Fe  Fe52  1  0.66725157  0.66881704  0.66659262  1
  Fe  Fe53  1  0.83271450  0.83658356  0.83568627  1
" 