5940,Ni56Fe11Cr32_1,-227.225873977904, 163.207487295806,Ni56Fe11Cr32,"# generated using pymatgen
 data_Cr3FeNi5
_symmetry_space_group_name_H-M   'P 1'
_cell_length_a   7.47873634
_cell_length_b   7.47873634
_cell_length_c   10.57653036
_cell_angle_alpha   90.00000000
_cell_angle_beta   90.00000000
_cell_angle_gamma   90.00000000
_symmetry_Int_Tables_number   1
_chemical_formula_structural   Cr3FeNi5
_chemical_formula_sum   'Cr18 Fe6 Ni30'
_cell_volume   591.56117803
_cell_formula_units_Z   6
loop_
 _symmetry_equiv_pos_site_id
 _symmetry_equiv_pos_as_xyz
  1  'x, y, z'
loop_
 _atom_site_type_symbol
 _atom_site_label
 _atom_site_symmetry_multiplicity
 _atom_site_fract_x
 _atom_site_fract_y
 _atom_site_fract_z
 _atom_site_occupancy
  Cr  Cr0  1  0.00037316  0.99862522  0.00087053  1
  Ni  Ni1  1  0.16877221  0.16673607  0.16521745  1
  Cr  Cr2  1  0.00125716  0.99903816  0.33149212  1
  Fe  Fe3  1  0.00182583  0.33339908  0.00186192  1
  Ni  Ni4  1  0.16618271  0.50045539  0.16591035  1
  Cr  Cr5  1  0.00036503  0.33349025  0.33230685  1
  Ni  Ni6  1  0.00323842  0.66348276  -0.00040362  1
  Ni  Ni7  1  0.16799054  0.83070700  0.16516119  1
  Ni  Ni8  1  0.00164118  0.66460610  0.33353871  1
  Ni  Ni9  1  0.33177615  0.99866748  0.00072395  1
  Ni  Ni10  1  0.49759604  0.16806561  0.16760333  1
  Ni  Ni11  1  0.33192746  -0.00068324  0.32918641  1
  Fe  Fe12  1  0.33064586  0.33384561  0.00179207  1
  Ni  Ni13  1  0.49818782  0.49734442  0.16680876  1
  Ni  Ni14  1  0.33399422  0.33375632  0.32973905  1
  Ni  Ni15  1  0.32871521  0.66494611  0.99882803  1
  Cr  Cr16  1  0.49658743  0.83199757  0.16965695  1
  Ni  Ni17  1  0.32973755  0.66464211  0.33101304  1
  Cr  Cr18  1  0.66484428  0.00019764  0.99816820  1
  Ni  Ni19  1  0.83163582  0.16930407  0.16549672  1
  Ni  Ni20  1  0.66619592  0.00242037  0.33255790  1
  Fe  Fe21  1  0.66543000  0.33202692  0.00189209  1
  Ni  Ni22  1  0.83354536  0.49778221  0.16549603  1
  Ni  Ni23  1  0.66643144  0.33292404  0.33011150  1
  Cr  Cr24  1  0.66379340  0.66580947  0.99895686  1
  Cr  Cr25  1  0.83523646  0.82870020  0.17039680  1
  Ni  Ni26  1  0.66687105  0.66264761  0.33219847  1
  Cr  Cr27  1  0.16841883  0.16284989  0.50044446  1
  Ni  Ni28  1  0.99803925  0.99682581  0.66618865  1
  Cr  Cr29  1  0.16501942  0.16734630  0.83166197  1
  Fe  Fe30  1  0.16663216  0.50163462  0.49883622  1
  Cr  Cr31  1  -0.00056570  0.33394693  0.66317774  1
  Ni  Ni32  1  0.16588897  0.50197799  0.83166041  1
  Ni  Ni33  1  0.16492588  0.83027232  0.50016153  1
  Ni  Ni34  1  0.00247788  0.66804693  0.66474060  1
  Fe  Fe35  1  0.16545220  0.83106676  0.83277721  1
  Cr  Cr36  1  0.49830364  0.16524920  0.49879978  1
  Ni  Ni37  1  0.33124498  0.99603199  0.66777761  1
  Cr  Cr38  1  0.49739766  0.16472653  0.83060040  1
  Cr  Cr39  1  0.49807678  0.49941144  0.49753942  1
  Ni  Ni40  1  0.32982564  0.33497858  0.66566431  1
  Cr  Cr41  1  0.49482535  0.50022355  0.83308193  1
  Cr  Cr42  1  0.49641665  0.83318243  0.49642051  1
  Ni  Ni43  1  0.32798667  0.66692850  0.66752879  1
  Ni  Ni44  1  0.49604556  0.83336559  0.83135244  1
  Ni  Ni45  1  0.83205552  0.16532371  0.49985712  1
  Ni  Ni46  1  0.66779809  0.99861319  0.66721129  1
  Ni  Ni47  1  0.83370920  0.16353300  0.83228493  1
  Ni  Ni48  1  0.83444322  0.50188637  0.49654146  1
  Cr  Cr49  1  0.66683091  0.33180380  0.66559673  1
  Cr  Cr50  1  0.83758277  0.49956342  0.83633783  1
  Fe  Fe51  1  0.83360784  0.83307304  0.49853032  1
  Cr  Cr52  1  0.66583516  0.66813356  0.66680655  1
  Ni  Ni53  1  0.83472870  0.83287092  0.82963905  1
" 