8657,Ni56Fe22Cr21_19,-231.95357862147, 189.009145716439,Ni56Fe22Cr21,"# generated using pymatgen
 data_Cr13Fe11Ni30
_symmetry_space_group_name_H-M   'P 1'
_cell_length_a   7.45387206
_cell_length_b   7.45387206
_cell_length_c   10.54136696
_cell_angle_alpha   90.00000000
_cell_angle_beta   90.00000000
_cell_angle_gamma   90.00000000
_symmetry_Int_Tables_number   1
_chemical_formula_structural   Cr13Fe11Ni30
_chemical_formula_sum   'Cr13 Fe11 Ni30'
_cell_volume   585.68054769
_cell_formula_units_Z   1
loop_
 _symmetry_equiv_pos_site_id
 _symmetry_equiv_pos_as_xyz
  1  'x, y, z'
loop_
 _atom_site_type_symbol
 _atom_site_label
 _atom_site_symmetry_multiplicity
 _atom_site_fract_x
 _atom_site_fract_y
 _atom_site_fract_z
 _atom_site_occupancy
  Ni  Ni0  1  0.00131284  1.00055512  0.00147976  1
  Ni  Ni1  1  0.16838368  0.16522164  0.16654519  1
  Ni  Ni2  1  0.00231446  1.00053795  0.33443776  1
  Fe  Fe3  1  0.00354968  0.33274155  0.00331282  1
  Fe  Fe4  1  0.16798597  0.50178983  0.16713832  1
  Cr  Cr5  1  1.00057594  0.33375894  0.33264709  1
  Ni  Ni6  1  0.00124145  0.66841809  0.00198407  1
  Ni  Ni7  1  0.16929304  0.83569093  0.16779448  1
  Ni  Ni8  1  0.00169864  0.66858358  0.33400962  1
  Ni  Ni9  1  0.33472510  0.00143443  0.00142348  1
  Fe  Fe10  1  0.49923700  0.16792362  0.16753902  1
  Ni  Ni11  1  0.33324821  0.00131941  0.33287734  1
  Ni  Ni12  1  0.33424021  0.33375863  1.00071349  1
  Ni  Ni13  1  0.50028759  0.50089417  0.16866872  1
  Ni  Ni14  1  0.33624045  0.33471599  0.33477492  1
  Ni  Ni15  1  0.33485625  0.66744302  0.00197862  1
  Fe  Fe16  1  0.49844026  0.83366364  0.16639254  1
  Ni  Ni17  1  0.33498885  0.66661823  0.33371703  1
  Ni  Ni18  1  0.66663442  0.99993661  0.99944899  1
  Ni  Ni19  1  0.83551196  0.16846845  0.16715804  1
  Cr  Cr20  1  0.66804141  0.00194449  0.33516735  1
  Cr  Cr21  1  0.66635020  0.33413802  0.00319176  1
  Ni  Ni22  1  0.83238270  0.50005842  0.16770798  1
  Ni  Ni23  1  0.66510487  0.33526569  0.33363166  1
  Fe  Fe24  1  0.66540593  0.66964750  1.00048002  1
  Cr  Cr25  1  0.83616632  0.83420835  0.16684407  1
  Ni  Ni26  1  0.66596288  0.66559175  0.33386058  1
  Fe  Fe27  1  0.16596317  0.16859339  0.49959407  1
  Ni  Ni28  1  0.99787767  0.00156528  0.66672063  1
  Fe  Fe29  1  0.16774394  0.16695667  0.83626022  1
  Ni  Ni30  1  0.16993865  0.50060042  0.49988806  1
  Ni  Ni31  1  0.99995869  0.33246572  0.66686551  1
  Cr  Cr32  1  0.16835677  0.49989406  0.83546334  1
  Cr  Cr33  1  0.16575332  0.83392764  0.49860487  1
  Ni  Ni34  1  0.99728074  0.66861064  0.66666084  1
  Cr  Cr35  1  0.16625319  0.83570546  0.83586174  1
  Fe  Fe36  1  0.50201982  0.16928802  0.49969421  1
  Cr  Cr37  1  0.33509804  0.00190780  0.66821011  1
  Fe  Fe38  1  0.50059608  0.16664258  0.83545737  1
  Ni  Ni39  1  0.50039459  0.49988596  0.49977806  1
  Cr  Cr40  1  0.33488569  0.33421311  0.66726690  1
  Ni  Ni41  1  0.50102766  0.50164338  0.83424416  1
  Fe  Fe42  1  0.50346591  0.83229708  0.50017978  1
  Cr  Cr43  1  0.33630383  0.66653128  0.66695538  1
  Ni  Ni44  1  0.50311176  0.83405186  0.83589443  1
  Ni  Ni45  1  0.83378618  0.16562199  0.50238445  1
  Fe  Fe46  1  0.66986382  0.99964637  0.66734905  1
  Cr  Cr47  1  0.83529195  0.16543915  0.83336899  1
  Cr  Cr48  1  0.83257915  0.50099531  0.50195474  1
  Ni  Ni49  1  0.66738775  0.33414967  0.66629301  1
  Cr  Cr50  1  0.83307064  0.50238819  0.83289217  1
  Ni  Ni51  1  0.83450654  0.83635435  0.50281798  1
  Ni  Ni52  1  0.66849222  0.66850575  0.66879425  1
  Ni  Ni53  1  0.83253742  0.83551632  0.83334648  1
" 