4798,Ni56Fe27Cr16_15,-234.194771634125, 195.341261289556,Ni56Fe27Cr16,"# generated using pymatgen
 data_Cr5Fe7Ni15
_symmetry_space_group_name_H-M   'P 1'
_cell_length_a   7.44259323
_cell_length_b   7.44259323
_cell_length_c   10.52541628
_cell_angle_alpha   90.00000000
_cell_angle_beta   90.00000000
_cell_angle_gamma   90.00000000
_symmetry_Int_Tables_number   1
_chemical_formula_structural   Cr5Fe7Ni15
_chemical_formula_sum   'Cr10 Fe14 Ni30'
_cell_volume   583.02589993
_cell_formula_units_Z   2
loop_
 _symmetry_equiv_pos_site_id
 _symmetry_equiv_pos_as_xyz
  1  'x, y, z'
loop_
 _atom_site_type_symbol
 _atom_site_label
 _atom_site_symmetry_multiplicity
 _atom_site_fract_x
 _atom_site_fract_y
 _atom_site_fract_z
 _atom_site_occupancy
  Fe  Fe0  1  0.00176827  0.00172325  0.00221829  1
  Ni  Ni1  1  0.16649382  0.16898908  0.16791063  1
  Ni  Ni2  1  0.99946745  0.00184085  0.33451967  1
  Ni  Ni3  1  0.00231549  0.33559459  0.00254931  1
  Cr  Cr4  1  0.16882310  0.50012255  0.16839383  1
  Ni  Ni5  1  0.99994741  0.33522670  0.33507052  1
  Ni  Ni6  1  0.99866014  0.66795035  1.00016029  1
  Cr  Cr7  1  0.16851377  0.83584481  0.16847759  1
  Ni  Ni8  1  1.00020317  0.66786301  0.33736727  1
  Cr  Cr9  1  0.33505159  0.00232280  0.00176397  1
  Fe  Fe10  1  0.50108912  0.16890098  0.17085714  1
  Ni  Ni11  1  0.33658471  1.00048663  0.33421493  1
  Ni  Ni12  1  0.33417404  0.33519249  1.00107629  1
  Ni  Ni13  1  0.50227420  0.50307987  0.16799163  1
  Ni  Ni14  1  0.33539707  0.33587451  0.33402823  1
  Ni  Ni15  1  0.33712556  0.66765461  1.00054904  1
  Ni  Ni16  1  0.50307946  0.83317302  0.16985962  1
  Ni  Ni17  1  0.33649598  0.66857020  0.33706049  1
  Cr  Cr18  1  0.66817440  0.99882128  0.00261920  1
  Ni  Ni19  1  0.83748646  0.16818674  0.17028517  1
  Ni  Ni20  1  0.66887606  1.00074079  0.33471967  1
  Cr  Cr21  1  0.66801071  0.33791437  0.00286032  1
  Ni  Ni22  1  0.83385376  0.50126250  0.16763180  1
  Fe  Fe23  1  0.66956484  0.33559968  0.33483913  1
  Ni  Ni24  1  0.66913847  0.66819254  0.00178518  1
  Ni  Ni25  1  0.83354117  0.83547984  0.16819902  1
  Fe  Fe26  1  0.66794030  0.66855219  0.33421825  1
  Cr  Cr27  1  0.16673010  0.16678135  0.50058207  1
  Ni  Ni28  1  0.00199094  0.99850531  0.66867365  1
  Fe  Fe29  1  0.17041583  0.16774154  0.83506074  1
  Fe  Fe30  1  0.16937822  0.50374752  0.50023197  1
  Cr  Cr31  1  1.00028992  0.33611505  0.66655984  1
  Cr  Cr32  1  0.16934922  0.50181766  0.83646935  1
  Ni  Ni33  1  0.16898215  0.83393418  0.50220269  1
  Fe  Fe34  1  1.00121496  0.67005656  0.66746540  1
  Fe  Fe35  1  0.16787412  0.83487690  0.83384637  1
  Cr  Cr36  1  0.50330421  0.16802131  0.50208660  1
  Ni  Ni37  1  0.33513479  0.99994859  0.66989047  1
  Fe  Fe38  1  0.49945940  0.17009552  0.83219697  1
  Ni  Ni39  1  0.50188451  0.50373049  0.50247623  1
  Ni  Ni40  1  0.33831667  0.33513252  0.66982117  1
  Ni  Ni41  1  0.50187354  0.50316802  0.83446309  1
  Ni  Ni42  1  0.49997958  0.83303318  0.50141571  1
  Fe  Fe43  1  0.33623548  0.66919672  0.66739644  1
  Ni  Ni44  1  0.50076627  0.83325767  0.83365563  1
  Ni  Ni45  1  0.83521610  0.16841583  0.50077694  1
  Fe  Fe46  1  0.66774528  1.00137890  0.66788190  1
  Cr  Cr47  1  0.83620000  0.16846811  0.83391486  1
  Ni  Ni48  1  0.83430728  0.50118653  0.50136267  1
  Ni  Ni49  1  0.66677654  0.33698462  0.66821935  1
  Ni  Ni50  1  0.83347964  0.50340364  0.83593392  1
  Fe  Fe51  1  0.83514538  0.83538444  0.50080526  1
  Fe  Fe52  1  0.66747374  0.66748024  0.66896945  1
  Fe  Fe53  1  0.83514043  0.83169219  0.83512962  1
" 