3947,Ni56Fe40Cr3_11,-239.891640680494, 216.24679736642,Ni56Fe40Cr3,"# generated using pymatgen
 data_CrFe7Ni10
_symmetry_space_group_name_H-M   'P 1'
_cell_length_a   7.41213114
_cell_length_b   7.41213114
_cell_length_c   10.48233638
_cell_angle_alpha   90.00000000
_cell_angle_beta   90.00000000
_cell_angle_gamma   90.00000000
_symmetry_Int_Tables_number   1
_chemical_formula_structural   CrFe7Ni10
_chemical_formula_sum   'Cr3 Fe21 Ni30'
_cell_volume   575.89629019
_cell_formula_units_Z   3
loop_
 _symmetry_equiv_pos_site_id
 _symmetry_equiv_pos_as_xyz
  1  'x, y, z'
loop_
 _atom_site_type_symbol
 _atom_site_label
 _atom_site_symmetry_multiplicity
 _atom_site_fract_x
 _atom_site_fract_y
 _atom_site_fract_z
 _atom_site_occupancy
  Ni  Ni0  1  1.00332323  0.00539923  0.00396788  1
  Ni  Ni1  1  0.17178117  0.16908002  0.17000489  1
  Cr  Cr2  1  1.00286433  0.00507659  0.33596419  1
  Fe  Fe3  1  0.00374177  0.33430708  1.00321260  1
  Cr  Cr4  1  0.16972901  0.50343050  0.17099560  1
  Ni  Ni5  1  1.00241721  0.33802216  0.33746352  1
  Cr  Cr6  1  0.00413799  0.67179798  1.00315169  1
  Ni  Ni7  1  0.17265487  0.83881378  0.17014234  1
  Fe  Fe8  1  1.00307963  0.66981776  0.33754052  1
  Ni  Ni9  1  0.33683955  0.00384172  0.00392035  1
  Ni  Ni10  1  0.50345320  0.16851330  0.17092107  1
  Ni  Ni11  1  0.33909321  1.00270863  0.33683293  1
  Ni  Ni12  1  0.33760018  0.33676657  1.00305024  1
  Fe  Fe13  1  0.50431939  0.50430112  0.16943551  1
  Fe  Fe14  1  0.33787236  0.33479398  0.33759959  1
  Ni  Ni15  1  0.33965629  0.67050490  1.00276687  1
  Ni  Ni16  1  0.50345589  0.83849980  0.17037314  1
  Ni  Ni17  1  0.33794727  0.67097921  0.33684618  1
  Ni  Ni18  1  0.67095110  1.00334317  0.00422144  1
  Fe  Fe19  1  0.83660329  0.17047850  0.17023031  1
  Ni  Ni20  1  0.66901844  0.00383970  0.33671725  1
  Fe  Fe21  1  0.66920816  0.33698096  1.00345855  1
  Ni  Ni22  1  0.83556648  0.50322245  0.17153292  1
  Fe  Fe23  1  0.67041687  0.33633268  0.33783675  1
  Ni  Ni24  1  0.66838423  0.67075608  1.00362968  1
  Fe  Fe25  1  0.83516115  0.83778327  0.16939731  1
  Fe  Fe26  1  0.67057104  0.67063153  0.33622852  1
  Fe  Fe27  1  0.17041487  0.17221881  0.50432107  1
  Fe  Fe28  1  0.00373076  0.00446293  0.67111117  1
  Ni  Ni29  1  0.17078314  0.17088262  0.83706832  1
  Fe  Fe30  1  0.17005920  0.50261465  0.50417139  1
  Ni  Ni31  1  1.00352712  0.33713885  0.67091887  1
  Ni  Ni32  1  0.17102291  0.50285430  0.83586085  1
  Fe  Fe33  1  0.17134742  0.83628308  0.50403498  1
  Fe  Fe34  1  1.00361397  0.66948625  0.67078222  1
  Ni  Ni35  1  0.17084220  0.83737895  0.83671265  1
  Ni  Ni36  1  0.50418137  0.16959302  0.50346685  1
  Fe  Fe37  1  0.33762046  0.00493374  0.67074312  1
  Ni  Ni38  1  0.50337372  0.17030422  0.83672545  1
  Fe  Fe39  1  0.50408211  0.50292368  0.50465863  1
  Ni  Ni40  1  0.33653516  0.33855297  0.66962150  1
  Ni  Ni41  1  0.50340837  0.50370904  0.83756291  1
  Fe  Fe42  1  0.50448747  0.83766228  0.50320063  1
  Ni  Ni43  1  0.33657959  0.66953053  0.67150129  1
  Ni  Ni44  1  0.50417143  0.83710048  0.83699440  1
  Ni  Ni45  1  0.83528572  0.17221252  0.50430681  1
  Ni  Ni46  1  0.67130556  0.00414568  0.67017031  1
  Fe  Fe47  1  0.83696635  0.16950732  0.83617400  1
  Ni  Ni48  1  0.83815009  0.50336232  0.50381491  1
  Ni  Ni49  1  0.67104999  0.33600934  0.67038375  1
  Fe  Fe50  1  0.83612958  0.50320763  0.83606536  1
  Fe  Fe51  1  0.83528102  0.83731117  0.50501871  1
  Fe  Fe52  1  0.67014491  0.66929649  0.67124683  1
  Ni  Ni53  1  0.83610117  0.83733741  0.83596415  1
" 