4576,Ni56Fe11Cr32_6,-227.424783808432, 165.880300222833,Ni56Fe11Cr32,"# generated using pymatgen
 data_Cr3FeNi5
_symmetry_space_group_name_H-M   'P 1'
_cell_length_a   7.47938422
_cell_length_b   7.47938422
_cell_length_c   10.57744660
_cell_angle_alpha   90.00000000
_cell_angle_beta   90.00000000
_cell_angle_gamma   90.00000000
_symmetry_Int_Tables_number   1
_chemical_formula_structural   Cr3FeNi5
_chemical_formula_sum   'Cr18 Fe6 Ni30'
_cell_volume   591.71493244
_cell_formula_units_Z   6
loop_
 _symmetry_equiv_pos_site_id
 _symmetry_equiv_pos_as_xyz
  1  'x, y, z'
loop_
 _atom_site_type_symbol
 _atom_site_label
 _atom_site_symmetry_multiplicity
 _atom_site_fract_x
 _atom_site_fract_y
 _atom_site_fract_z
 _atom_site_occupancy
  Ni  Ni0  1  0.00076212  0.00023939  -0.00054570  1
  Ni  Ni1  1  0.16461716  0.16779822  0.16379367  1
  Fe  Fe2  1  0.00177936  0.99718284  0.33402736  1
  Ni  Ni3  1  0.00064379  0.33281653  0.99889552  1
  Ni  Ni4  1  0.16700852  0.49805133  0.16618411  1
  Cr  Cr5  1  0.00170272  0.33365025  0.33098236  1
  Cr  Cr6  1  0.00026516  0.66382436  0.99764181  1
  Ni  Ni7  1  0.16284088  0.83173320  0.16785641  1
  Ni  Ni8  1  0.00237122  0.66782425  0.33266465  1
  Cr  Cr9  1  0.33018388  0.99870617  0.99664207  1
  Cr  Cr10  1  0.49751232  0.16838091  0.16652136  1
  Cr  Cr11  1  0.33086742  -0.00075663  0.33582607  1
  Ni  Ni12  1  0.33014315  0.33519546  0.99849231  1
  Ni  Ni13  1  0.49589027  0.49673227  0.16852506  1
  Ni  Ni14  1  0.33381162  0.33392992  0.33339148  1
  Cr  Cr15  1  0.33219917  0.66381430  0.00100177  1
  Cr  Cr16  1  0.49782463  0.83086026  0.16706091  1
  Ni  Ni17  1  0.32963476  0.66459465  0.33191691  1
  Cr  Cr18  1  0.66593226  0.99909935  0.99397665  1
  Cr  Cr19  1  0.83377649  0.16479900  0.16688462  1
  Ni  Ni20  1  0.66521887  -0.00018940  0.33704661  1
  Cr  Cr21  1  0.66612513  0.33549065  0.99893901  1
  Ni  Ni22  1  0.83440693  0.49835117  0.16601794  1
  Ni  Ni23  1  0.66235964  0.33266782  0.33231677  1
  Cr  Cr24  1  0.66490781  0.66293150  0.99682650  1
  Cr  Cr25  1  0.83437706  0.83361373  0.16790757  1
  Cr  Cr26  1  0.66479793  0.66339489  0.33300950  1
  Ni  Ni27  1  0.16907877  0.16554035  0.50078701  1
  Cr  Cr28  1  0.00106687  -0.00018719  0.66345121  1
  Cr  Cr29  1  0.16576878  0.16837421  0.83301360  1
  Cr  Cr30  1  0.16934508  0.50014758  0.50206573  1
  Ni  Ni31  1  0.99746785  0.33431819  0.66872577  1
  Ni  Ni32  1  0.16644017  0.50024943  0.83065313  1
  Ni  Ni33  1  0.16637857  0.83105501  0.49860230  1
  Fe  Fe34  1  0.00016092  0.66736894  0.66660501  1
  Ni  Ni35  1  0.16627804  0.82973811  0.83104259  1
  Ni  Ni36  1  0.49917129  0.16680123  0.50117670  1
  Ni  Ni37  1  0.33553820  0.99548318  0.66506552  1
  Ni  Ni38  1  0.50164478  0.16717200  0.82925748  1
  Ni  Ni39  1  0.49771412  0.49859900  0.49937084  1
  Fe  Fe40  1  0.33535990  0.33077454  0.66607918  1
  Ni  Ni41  1  0.49712964  0.49902842  0.82988834  1
  Ni  Ni42  1  0.49927675  0.83198092  0.50139578  1
  Ni  Ni43  1  0.33341406  0.66792206  0.66637481  1
  Ni  Ni44  1  0.49885635  0.83128609  0.82847815  1
  Cr  Cr45  1  0.83017829  0.16508938  0.49744345  1
  Ni  Ni46  1  0.66299962  -0.00047710  0.66657814  1
  Ni  Ni47  1  0.83209882  0.16670744  0.83247223  1
  Cr  Cr48  1  0.83148374  0.50060432  0.50146120  1
  Ni  Ni49  1  0.66529551  0.33237402  0.66716350  1
  Fe  Fe50  1  0.83335362  0.49676729  0.82987526  1
  Ni  Ni51  1  0.83194859  0.83312467  0.49903468  1
  Fe  Fe52  1  0.66300280  0.66706887  0.66593196  1
  Fe  Fe53  1  0.83305439  0.83381843  0.82966894  1
" 