3505,Ni56Fe20Cr22_11,-230.663597442963, 182.54154389356,Ni56Fe20Cr22,"# generated using pymatgen
 data_Cr7(FeNi3)5
_symmetry_space_group_name_H-M   'P 1'
_cell_length_a   7.45702461
_cell_length_b   7.45702461
_cell_length_c   10.54582534
_cell_angle_alpha   90.00000000
_cell_angle_beta   90.00000000
_cell_angle_gamma   90.00000000
_symmetry_Int_Tables_number   1
_chemical_formula_structural   Cr7(FeNi3)5
_chemical_formula_sum   'Cr14 Fe10 Ni30'
_cell_volume   586.42398889
_cell_formula_units_Z   2
loop_
 _symmetry_equiv_pos_site_id
 _symmetry_equiv_pos_as_xyz
  1  'x, y, z'
loop_
 _atom_site_type_symbol
 _atom_site_label
 _atom_site_symmetry_multiplicity
 _atom_site_fract_x
 _atom_site_fract_y
 _atom_site_fract_z
 _atom_site_occupancy
  Ni  Ni0  1  0.99976319  0.00274018  0.99988244  1
  Cr  Cr1  1  0.16561333  0.16830095  0.16766530  1
  Fe  Fe2  1  0.99999775  0.00080689  0.33455319  1
  Ni  Ni3  1  0.99797174  0.33316137  0.00071575  1
  Fe  Fe4  1  0.16552619  0.50009137  0.16909030  1
  Ni  Ni5  1  0.99934926  0.33663982  0.33302924  1
  Cr  Cr6  1  0.00102760  0.66619645  0.00130513  1
  Ni  Ni7  1  0.16798443  0.83373791  0.16966100  1
  Fe  Fe8  1  0.00275441  0.66594553  0.33520052  1
  Cr  Cr9  1  0.33385325  1.00041289  0.99919919  1
  Cr  Cr10  1  0.50209383  0.16703761  0.16793405  1
  Ni  Ni11  1  0.33533850  0.99740143  0.33444415  1
  Ni  Ni12  1  0.33363040  0.33348178  0.99943242  1
  Cr  Cr13  1  0.50129424  0.49981281  0.16645007  1
  Ni  Ni14  1  0.33299948  0.33514619  0.33545445  1
  Cr  Cr15  1  0.33317193  0.66851459  0.00345988  1
  Ni  Ni16  1  0.49995292  0.83446297  0.16750645  1
  Fe  Fe17  1  0.33207609  0.66852978  0.33517030  1
  Ni  Ni18  1  0.66843803  0.00303751  0.00150089  1
  Ni  Ni19  1  0.83449558  0.16946247  0.16702800  1
  Ni  Ni20  1  0.66588078  0.00211181  0.33529473  1
  Ni  Ni21  1  0.67041191  0.33268379  1.00030434  1
  Ni  Ni22  1  0.83522320  0.49761783  0.16619338  1
  Ni  Ni23  1  0.66966685  0.33188191  0.33545287  1
  Fe  Fe24  1  0.66871580  0.66590533  0.00134795  1
  Cr  Cr25  1  0.83347081  0.83553970  0.16655655  1
  Cr  Cr26  1  0.66742686  0.66785919  0.33541224  1
  Cr  Cr27  1  0.16821274  0.16799854  0.50095705  1
  Ni  Ni28  1  0.00121654  0.00174490  0.66793194  1
  Ni  Ni29  1  0.16704508  0.16667680  0.83374266  1
  Ni  Ni30  1  0.16722684  0.50096590  0.49896752  1
  Ni  Ni31  1  0.99869474  0.33287403  0.66827085  1
  Cr  Cr32  1  0.16614231  0.49705689  0.83370567  1
  Ni  Ni33  1  0.16787967  0.83294333  0.50016745  1
  Cr  Cr34  1  0.00175106  0.66715004  0.66577132  1
  Ni  Ni35  1  0.16642506  0.83881587  0.83218987  1
  Ni  Ni36  1  0.50190175  0.16711495  0.50017893  1
  Fe  Fe37  1  0.33434181  1.00034897  0.66709165  1
  Ni  Ni38  1  0.50005901  0.16865481  0.83403770  1
  Fe  Fe39  1  0.49995520  0.50066857  0.50172680  1
  Fe  Fe40  1  0.33507193  0.33292912  0.66680005  1
  Cr  Cr41  1  0.50395663  0.49828658  0.83294770  1
  Ni  Ni42  1  0.50105979  0.83540752  0.50144625  1
  Ni  Ni43  1  0.33439844  0.66911174  0.66415378  1
  Cr  Cr44  1  0.50211519  0.83512046  0.83332918  1
  Fe  Fe45  1  0.83236548  0.16698322  0.50036698  1
  Ni  Ni46  1  0.66665318  0.00229994  0.66522156  1
  Fe  Fe47  1  0.83448605  0.16879908  0.83466124  1
  Ni  Ni48  1  0.83407071  0.50012220  0.50102002  1
  Ni  Ni49  1  0.66836455  0.33312814  0.66625533  1
  Ni  Ni50  1  0.83225843  0.49782112  0.83480796  1
  Ni  Ni51  1  0.83307574  0.83413020  0.50083135  1
  Ni  Ni52  1  0.66560125  0.66658570  0.66605871  1
  Cr  Cr53  1  0.83383321  0.83403209  0.83440645  1
" 