747,Ni56Fe40Cr3_7,-240.183963452262, 218.831152299455,Ni56Fe40Cr3,"# generated using pymatgen
 data_CrFe7Ni10
_symmetry_space_group_name_H-M   'P 1'
_cell_length_a   7.41317772
_cell_length_b   7.41317772
_cell_length_c   10.48381647
_cell_angle_alpha   90.00000000
_cell_angle_beta   90.00000000
_cell_angle_gamma   90.00000000
_symmetry_Int_Tables_number   1
_chemical_formula_structural   CrFe7Ni10
_chemical_formula_sum   'Cr3 Fe21 Ni30'
_cell_volume   576.14027128
_cell_formula_units_Z   3
loop_
 _symmetry_equiv_pos_site_id
 _symmetry_equiv_pos_as_xyz
  1  'x, y, z'
loop_
 _atom_site_type_symbol
 _atom_site_label
 _atom_site_symmetry_multiplicity
 _atom_site_fract_x
 _atom_site_fract_y
 _atom_site_fract_z
 _atom_site_occupancy
  Fe  Fe0  1  1.00273797  1.00336364  0.00386474  1
  Ni  Ni1  1  0.17015222  0.16993741  0.16984879  1
  Ni  Ni2  1  0.00563672  0.00371964  0.33664340  1
  Ni  Ni3  1  1.00313061  0.33688190  0.00468841  1
  Fe  Fe4  1  0.16997386  0.50318348  0.17015460  1
  Fe  Fe5  1  1.00317079  0.33683760  0.33698565  1
  Ni  Ni6  1  1.00256837  0.67071109  0.00553906  1
  Fe  Fe7  1  0.16997500  0.83747096  0.16983517  1
  Fe  Fe8  1  1.00274089  0.67052559  0.33672616  1
  Fe  Fe9  1  0.33691314  0.00364038  0.00367274  1
  Ni  Ni10  1  0.50226466  0.17074503  0.16965524  1
  Fe  Fe11  1  0.33597507  1.00355875  0.33725578  1
  Fe  Fe12  1  0.33803335  0.33710379  0.00440749  1
  Ni  Ni13  1  0.50432647  0.50388796  0.17049060  1
  Fe  Fe14  1  0.33721796  0.33659744  0.33756349  1
  Fe  Fe15  1  0.33789531  0.67015725  0.00428628  1
  Ni  Ni16  1  0.50351884  0.83626767  0.16885009  1
  Fe  Fe17  1  0.33762140  0.67074078  0.33718311  1
  Fe  Fe18  1  0.67124901  1.00349955  0.00409533  1
  Ni  Ni19  1  0.83848358  0.17074574  0.16949444  1
  Cr  Cr20  1  0.67000245  1.00334655  0.33652043  1
  Ni  Ni21  1  0.67016472  0.33777152  0.00451782  1
  Ni  Ni22  1  0.83669647  0.50416027  0.16970782  1
  Fe  Fe23  1  0.67051064  0.33848322  0.33665255  1
  Ni  Ni24  1  0.67066794  0.66988254  0.00397483  1
  Ni  Ni25  1  0.83750259  0.83599525  0.16941600  1
  Ni  Ni26  1  0.66993140  0.66889667  0.33655928  1
  Ni  Ni27  1  0.17031948  0.17013439  0.50483455  1
  Ni  Ni28  1  0.00467254  0.00499420  0.67048783  1
  Fe  Fe29  1  0.16967991  0.16905358  0.83636429  1
  Ni  Ni30  1  0.17038573  0.50205437  0.50334875  1
  Ni  Ni31  1  0.00386376  0.33500728  0.66936386  1
  Cr  Cr32  1  0.17049715  0.50262822  0.83704963  1
  Fe  Fe33  1  0.17163328  0.83781569  0.50350348  1
  Cr  Cr34  1  1.00236264  0.67041222  0.66924081  1
  Ni  Ni35  1  0.17013576  0.83976082  0.83725072  1
  Ni  Ni36  1  0.50201740  0.17025702  0.50451354  1
  Ni  Ni37  1  0.33685956  0.00446951  0.66945256  1
  Fe  Fe38  1  0.50400865  0.17058452  0.83638601  1
  Ni  Ni39  1  0.50407587  0.50405624  0.50437045  1
  Ni  Ni40  1  0.33767077  0.33553445  0.66966382  1
  Ni  Ni41  1  0.50554112  0.50345214  0.83604051  1
  Ni  Ni42  1  0.50329067  0.83658754  0.50554509  1
  Fe  Fe43  1  0.33950314  0.67083717  0.66943203  1
  Fe  Fe44  1  0.50414527  0.83598091  0.83655550  1
  Fe  Fe45  1  0.83755820  0.17156737  0.50450318  1
  Ni  Ni46  1  0.66936898  1.00322016  0.67029907  1
  Fe  Fe47  1  0.83721104  0.17080460  0.83696142  1
  Ni  Ni48  1  0.83643894  0.50332847  0.50357000  1
  Ni  Ni49  1  0.66936535  0.33759261  0.66976307  1
  Ni  Ni50  1  0.83455943  0.50341634  0.83762510  1
  Fe  Fe51  1  0.83638066  0.83677993  0.50370994  1
  Ni  Ni52  1  0.66884202  0.67008859  0.67036502  1
  Ni  Ni53  1  0.83675417  0.83767292  0.83741337  1
" 