2569,Ni57Fe36Cr6_13,-238.113967060241, 213.658794862212,Ni57Fe36Cr6,"# generated using pymatgen
 data_Cr5Fe19Ni30
_symmetry_space_group_name_H-M   'P 1'
_cell_length_a   7.41417654
_cell_length_b   7.41417654
_cell_length_c   10.48522901
_cell_angle_alpha   90.00000000
_cell_angle_beta   90.00000000
_cell_angle_gamma   90.00000000
_symmetry_Int_Tables_number   1
_chemical_formula_structural   Cr5Fe19Ni30
_chemical_formula_sum   'Cr5 Fe19 Ni30'
_cell_volume   576.37318249
_cell_formula_units_Z   1
loop_
 _symmetry_equiv_pos_site_id
 _symmetry_equiv_pos_as_xyz
  1  'x, y, z'
loop_
 _atom_site_type_symbol
 _atom_site_label
 _atom_site_symmetry_multiplicity
 _atom_site_fract_x
 _atom_site_fract_y
 _atom_site_fract_z
 _atom_site_occupancy
  Fe  Fe0  1  1.00153830  1.00350791  1.00267486  1
  Ni  Ni1  1  0.16934992  0.16981208  0.16702990  1
  Fe  Fe2  1  1.00057680  1.00038999  0.33694098  1
  Ni  Ni3  1  0.00407113  0.33818769  1.00258696  1
  Ni  Ni4  1  0.17326160  0.50501538  0.16916759  1
  Cr  Cr5  1  1.00321630  0.33791756  0.33612594  1
  Ni  Ni6  1  0.00545032  0.66798743  1.00309336  1
  Ni  Ni7  1  0.16706100  0.83567006  0.17000482  1
  Ni  Ni8  1  1.00274377  0.66891067  0.33769451  1
  Ni  Ni9  1  0.33693590  0.00398782  1.00264427  1
  Ni  Ni10  1  0.50422455  0.17348340  0.16979043  1
  Cr  Cr11  1  0.33850267  0.00450425  0.33816116  1
  Fe  Fe12  1  0.33881479  0.33680150  1.00305921  1
  Ni  Ni13  1  0.50262556  0.50408787  0.17038827  1
  Fe  Fe14  1  0.33850370  0.33843583  0.33545655  1
  Fe  Fe15  1  0.33667940  0.67056086  1.00253825  1
  Fe  Fe16  1  0.50283908  0.83883308  0.16977543  1
  Fe  Fe17  1  0.33698724  0.67066986  0.33634379  1
  Ni  Ni18  1  0.66657360  0.00572315  1.00326697  1
  Ni  Ni19  1  0.83649270  0.16671152  0.16952534  1
  Ni  Ni20  1  0.66921039  1.00254535  0.33734943  1
  Ni  Ni21  1  0.67235105  0.33576801  0.00444730  1
  Fe  Fe22  1  0.83856555  0.50298194  0.16896221  1
  Fe  Fe23  1  0.66995270  0.33591344  0.33611585  1
  Cr  Cr24  1  0.67167588  0.67027634  1.00260666  1
  Ni  Ni25  1  0.83871707  0.83795669  0.16973174  1
  Ni  Ni26  1  0.67273865  0.67148783  0.33559063  1
  Cr  Cr27  1  0.16994059  0.17064504  0.50608094  1
  Ni  Ni28  1  1.00315611  1.00239228  0.67106934  1
  Fe  Fe29  1  0.17151871  0.17003395  0.83683630  1
  Fe  Fe30  1  0.16894017  0.50593101  0.50471696  1
  Fe  Fe31  1  1.00323450  0.33545360  0.67202171  1
  Fe  Fe32  1  0.17112030  0.50295776  0.83715545  1
  Fe  Fe33  1  0.16993496  0.83546789  0.50453043  1
  Fe  Fe34  1  1.00309164  0.67059673  0.67116574  1
  Fe  Fe35  1  0.16995786  0.83737383  0.83757306  1
  Ni  Ni36  1  0.50574169  0.17040007  0.50569707  1
  Ni  Ni37  1  0.33829047  1.00255517  0.67031787  1
  Ni  Ni38  1  0.50465319  0.17104547  0.83534893  1
  Cr  Cr39  1  0.50235956  0.50368092  0.50422779  1
  Ni  Ni40  1  0.33718733  0.33720675  0.67180438  1
  Ni  Ni41  1  0.50340713  0.50308209  0.83587869  1
  Ni  Ni42  1  0.50566633  0.83571758  0.50451697  1
  Ni  Ni43  1  0.33443993  0.67142123  0.67100176  1
  Ni  Ni44  1  0.50135603  0.83707114  0.83569409  1
  Ni  Ni45  1  0.83586925  0.16749985  0.50418504  1
  Ni  Ni46  1  0.66944106  0.00452889  0.67010065  1
  Ni  Ni47  1  0.83731406  0.17017393  0.83701152  1
  Fe  Fe48  1  0.83597229  0.50405258  0.50549024  1
  Ni  Ni49  1  0.67182083  0.33590406  0.67026999  1
  Ni  Ni50  1  0.83728205  0.50243162  0.83534156  1
  Ni  Ni51  1  0.83733603  0.83686134  0.50496761  1
  Fe  Fe52  1  0.66874201  0.67185938  0.67186088  1
  Fe  Fe53  1  0.83510541  0.83806741  0.83660174  1
" 