3353,Ni57Fe36Cr6_3,-238.659691161227, 215.643081503866,Ni57Fe36Cr6,"# generated using pymatgen
 data_Cr5Fe19Ni30
_symmetry_space_group_name_H-M   'P 1'
_cell_length_a   7.41911961
_cell_length_b   7.41911961
_cell_length_c   10.49221957
_cell_angle_alpha   90.00000000
_cell_angle_beta   90.00000000
_cell_angle_gamma   90.00000000
_symmetry_Int_Tables_number   1
_chemical_formula_structural   Cr5Fe19Ni30
_chemical_formula_sum   'Cr5 Fe19 Ni30'
_cell_volume   577.52676451
_cell_formula_units_Z   1
loop_
 _symmetry_equiv_pos_site_id
 _symmetry_equiv_pos_as_xyz
  1  'x, y, z'
loop_
 _atom_site_type_symbol
 _atom_site_label
 _atom_site_symmetry_multiplicity
 _atom_site_fract_x
 _atom_site_fract_y
 _atom_site_fract_z
 _atom_site_occupancy
  Ni  Ni0  1  0.00382114  0.00479008  0.00353931  1
  Ni  Ni1  1  0.16862394  0.16923088  0.16919835  1
  Ni  Ni2  1  1.00114377  0.00361499  0.33733148  1
  Ni  Ni3  1  1.00189202  0.33553341  1.00289404  1
  Fe  Fe4  1  0.16951731  0.50494238  0.16990015  1
  Fe  Fe5  1  0.00361676  0.33578597  0.33674581  1
  Ni  Ni6  1  1.00312142  0.66936082  0.00359306  1
  Ni  Ni7  1  0.16894855  0.83703993  0.16792548  1
  Fe  Fe8  1  0.00339629  0.67088925  0.33614053  1
  Fe  Fe9  1  0.33465400  1.00041473  0.00416682  1
  Fe  Fe10  1  0.50460993  0.16948208  0.17062087  1
  Cr  Cr11  1  0.33654633  1.00315231  0.33631052  1
  Cr  Cr12  1  0.33509797  0.33757882  0.00391721  1
  Ni  Ni13  1  0.50431601  0.50420264  0.17039261  1
  Ni  Ni14  1  0.33673936  0.33848460  0.33765844  1
  Ni  Ni15  1  0.33810170  0.67127127  1.00241686  1
  Ni  Ni16  1  0.50386890  0.83500616  0.16807095  1
  Ni  Ni17  1  0.33757358  0.66766121  0.33695379  1
  Fe  Fe18  1  0.67068157  1.00235506  0.00512951  1
  Fe  Fe19  1  0.83688930  0.16898523  0.16974651  1
  Ni  Ni20  1  0.67185754  1.00277689  0.33762492  1
  Fe  Fe21  1  0.67271996  0.33853808  0.00381778  1
  Ni  Ni22  1  0.83562828  0.50388216  0.16830245  1
  Fe  Fe23  1  0.66919906  0.33640434  0.33695545  1
  Ni  Ni24  1  0.66847142  0.66934182  0.00429548  1
  Ni  Ni25  1  0.83687227  0.83613409  0.17050541  1
  Fe  Fe26  1  0.66932616  0.67036341  0.33656586  1
  Ni  Ni27  1  0.16861813  0.17061645  0.50392772  1
  Ni  Ni28  1  1.00291128  0.00560584  0.66881811  1
  Ni  Ni29  1  0.16669118  0.17047737  0.83656891  1
  Fe  Fe30  1  0.17018573  0.50302415  0.50350061  1
  Ni  Ni31  1  1.00299868  0.33538948  0.67041733  1
  Ni  Ni32  1  0.17020692  0.50341996  0.83615083  1
  Ni  Ni33  1  0.16795437  0.83614267  0.50361576  1
  Fe  Fe34  1  0.00357576  0.66940783  0.66918853  1
  Fe  Fe35  1  0.17043010  0.83607631  0.83765853  1
  Ni  Ni36  1  0.50399732  0.17185607  0.50287135  1
  Cr  Cr37  1  0.33523912  1.00292796  0.66876935  1
  Cr  Cr38  1  0.50424161  0.17086138  0.83682880  1
  Ni  Ni39  1  0.50322717  0.50304084  0.50344660  1
  Fe  Fe40  1  0.33553516  0.33847887  0.66906840  1
  Ni  Ni41  1  0.50295292  0.50527752  0.83585627  1
  Ni  Ni42  1  0.50476060  0.83479261  0.50377145  1
  Fe  Fe43  1  0.33641103  0.66844386  0.66983822  1
  Fe  Fe44  1  0.50235485  0.83397533  0.83744449  1
  Ni  Ni45  1  0.83708242  0.16908548  0.50354566  1
  Fe  Fe46  1  0.67218762  0.00343177  0.66756341  1
  Ni  Ni47  1  0.83892676  0.17056587  0.83695991  1
  Ni  Ni48  1  0.83572837  0.50370196  0.50422764  1
  Fe  Fe49  1  0.67123178  0.33711145  0.66891753  1
  Fe  Fe50  1  0.83701012  0.50100334  0.83679111  1
  Ni  Ni51  1  0.83697696  0.83690409  0.50263883  1
  Ni  Ni52  1  0.66846412  0.66867429  0.66882202  1
  Cr  Cr53  1  0.83728715  0.83690641  0.83649477  1
" 