2602,Ni57Fe34Cr8_10,-238.484192863581, 209.945576603085,Ni57Fe34Cr8,"# generated using pymatgen
 data_Cr5Fe18Ni31
_symmetry_space_group_name_H-M   'P 1'
_cell_length_a   7.42616491
_cell_length_b   7.42616491
_cell_length_c   10.50218313
_cell_angle_alpha   90.00000000
_cell_angle_beta   90.00000000
_cell_angle_gamma   90.00000000
_symmetry_Int_Tables_number   1
_chemical_formula_structural   Cr5Fe18Ni31
_chemical_formula_sum   'Cr5 Fe18 Ni31'
_cell_volume   579.17361031
_cell_formula_units_Z   1
loop_
 _symmetry_equiv_pos_site_id
 _symmetry_equiv_pos_as_xyz
  1  'x, y, z'
loop_
 _atom_site_type_symbol
 _atom_site_label
 _atom_site_symmetry_multiplicity
 _atom_site_fract_x
 _atom_site_fract_y
 _atom_site_fract_z
 _atom_site_occupancy
  Fe  Fe0  1  1.00198171  0.00367019  1.00184208  1
  Ni  Ni1  1  0.16851926  0.16995089  0.17062161  1
  Ni  Ni2  1  0.00349601  0.00304582  0.33648353  1
  Ni  Ni3  1  1.00031298  0.33529546  0.00310355  1
  Ni  Ni4  1  0.17074614  0.50366285  0.16991983  1
  Fe  Fe5  1  0.00386835  0.33531343  0.33607124  1
  Fe  Fe6  1  0.00423898  0.66837422  1.00162447  1
  Fe  Fe7  1  0.17071630  0.83588968  0.17064996  1
  Ni  Ni8  1  1.00192990  0.66931404  0.33684073  1
  Cr  Cr9  1  0.33488681  1.00119500  0.00339276  1
  Ni  Ni10  1  0.50421302  0.17052628  0.17088616  1
  Ni  Ni11  1  0.33594166  0.00409726  0.33607606  1
  Cr  Cr12  1  0.33456337  0.33759103  0.00304496  1
  Ni  Ni13  1  0.50180375  0.50289606  0.16960387  1
  Ni  Ni14  1  0.33698612  0.33484738  0.33586246  1
  Ni  Ni15  1  0.33789246  0.66977932  0.00329749  1
  Fe  Fe16  1  0.50140663  0.83568320  0.16962868  1
  Fe  Fe17  1  0.33491969  0.66919439  0.33601812  1
  Fe  Fe18  1  0.67132525  0.00286729  1.00273736  1
  Ni  Ni19  1  0.83552621  0.16915077  0.16867015  1
  Fe  Fe20  1  0.66906498  0.00415369  0.33691437  1
  Fe  Fe21  1  0.67114747  0.33732705  0.00384715  1
  Fe  Fe22  1  0.83626232  0.50016440  0.16957246  1
  Fe  Fe23  1  0.66906264  0.33534221  0.33622163  1
  Ni  Ni24  1  0.66869374  0.66877619  1.00172333  1
  Cr  Cr25  1  0.83715074  0.83715819  0.16932347  1
  Fe  Fe26  1  0.66876749  0.66876349  0.33668090  1
  Ni  Ni27  1  0.17096016  0.16975023  0.50232827  1
  Cr  Cr28  1  0.00335260  0.00327876  0.66931497  1
  Ni  Ni29  1  0.16710102  0.17013871  0.83530408  1
  Ni  Ni30  1  0.17016270  0.50359732  0.50325258  1
  Ni  Ni31  1  1.00256332  0.33746374  0.66889182  1
  Ni  Ni32  1  0.17014615  0.50457860  0.83508739  1
  Ni  Ni33  1  0.16877934  0.83491000  0.50139143  1
  Ni  Ni34  1  1.00177325  0.66763081  0.66996976  1
  Ni  Ni35  1  0.16804995  0.83353633  0.83716663  1
  Ni  Ni36  1  0.50262139  0.17003748  0.50273309  1
  Ni  Ni37  1  0.33724580  1.00261974  0.66848856  1
  Cr  Cr38  1  0.50366963  0.17113831  0.83434522  1
  Ni  Ni39  1  0.50207743  0.50196755  0.50288846  1
  Ni  Ni40  1  0.33565775  0.33645621  0.66899635  1
  Ni  Ni41  1  0.50208475  0.50495440  0.83576651  1
  Fe  Fe42  1  0.50219112  0.83648003  0.50300523  1
  Ni  Ni43  1  0.33699160  0.66918164  0.66972742  1
  Fe  Fe44  1  0.50259962  0.83356606  0.83562575  1
  Ni  Ni45  1  0.83467718  0.16865863  0.50175826  1
  Fe  Fe46  1  0.66900357  1.00232243  0.66860332  1
  Ni  Ni47  1  0.83661645  0.16825290  0.83782850  1
  Ni  Ni48  1  0.83601397  0.50414371  0.50270413  1
  Fe  Fe49  1  0.66972069  0.33702783  0.66818731  1
  Fe  Fe50  1  0.83731761  0.50256288  0.83576485  1
  Ni  Ni51  1  0.83629913  0.83545558  0.50224230  1
  Fe  Fe52  1  0.66929774  0.66890749  0.66972272  1
  Ni  Ni53  1  0.83624314  0.83599386  0.83688777  1
" 