5124,Ni57Fe36Cr6_9,-238.493766676338, 211.242666483234,Ni57Fe36Cr6,"# generated using pymatgen
 data_Cr5Fe19Ni30
_symmetry_space_group_name_H-M   'P 1'
_cell_length_a   7.42135030
_cell_length_b   7.42135030
_cell_length_c   10.49537424
_cell_angle_alpha   90.00000000
_cell_angle_beta   90.00000000
_cell_angle_gamma   90.00000000
_symmetry_Int_Tables_number   1
_chemical_formula_structural   Cr5Fe19Ni30
_chemical_formula_sum   'Cr5 Fe19 Ni30'
_cell_volume   578.04785227
_cell_formula_units_Z   1
loop_
 _symmetry_equiv_pos_site_id
 _symmetry_equiv_pos_as_xyz
  1  'x, y, z'
loop_
 _atom_site_type_symbol
 _atom_site_label
 _atom_site_symmetry_multiplicity
 _atom_site_fract_x
 _atom_site_fract_y
 _atom_site_fract_z
 _atom_site_occupancy
  Ni  Ni0  1  0.00308748  0.00461679  0.00374173  1
  Fe  Fe1  1  0.16842949  0.17031718  0.16791845  1
  Fe  Fe2  1  0.00450092  0.00423610  0.33473589  1
  Ni  Ni3  1  1.00241461  0.33567315  1.00177239  1
  Fe  Fe4  1  0.16693401  0.50194306  0.16733837  1
  Fe  Fe5  1  0.00329698  0.33493760  0.33415418  1
  Ni  Ni6  1  0.00449211  0.66903399  0.00350230  1
  Ni  Ni7  1  0.17071720  0.83791456  0.16768224  1
  Ni  Ni8  1  0.00320863  0.67067808  0.33423135  1
  Fe  Fe9  1  0.33497634  1.00175717  0.00323336  1
  Fe  Fe10  1  0.50295415  0.16948081  0.16987744  1
  Ni  Ni11  1  0.33649326  0.00537715  0.33580795  1
  Fe  Fe12  1  0.33507427  0.33775147  1.00184534  1
  Fe  Fe13  1  0.50316677  0.50149916  0.16859061  1
  Ni  Ni14  1  0.33552944  0.33382145  0.33484128  1
  Ni  Ni15  1  0.33642607  0.66945146  1.00174852  1
  Fe  Fe16  1  0.50440383  0.83795699  0.16847151  1
  Cr  Cr17  1  0.33208322  0.66917779  0.33612164  1
  Fe  Fe18  1  0.66986303  1.00307719  0.00343432  1
  Ni  Ni19  1  0.83605612  0.17141504  0.16829065  1
  Ni  Ni20  1  0.67176801  0.00594978  0.33526370  1
  Fe  Fe21  1  0.67132090  0.33800415  1.00296023  1
  Ni  Ni22  1  0.83592688  0.50208484  0.16992821  1
  Ni  Ni23  1  0.66962510  0.33203082  0.33479841  1
  Ni  Ni24  1  0.66851858  0.66918084  0.00430921  1
  Fe  Fe25  1  0.83830537  0.83680169  0.16905094  1
  Fe  Fe26  1  0.67000952  0.67060871  0.33372998  1
  Fe  Fe27  1  0.17014871  0.16987360  0.50373315  1
  Fe  Fe28  1  0.00356689  0.00371328  0.67017252  1
  Ni  Ni29  1  0.17086955  0.16894041  0.83746432  1
  Fe  Fe30  1  0.16834076  0.50205612  0.50484627  1
  Fe  Fe31  1  1.00253760  0.33659445  0.67290528  1
  Ni  Ni32  1  0.16908960  0.50280068  0.83720487  1
  Ni  Ni33  1  0.16760046  0.83850905  0.50454646  1
  Ni  Ni34  1  0.00558036  0.67087927  0.67085802  1
  Ni  Ni35  1  0.17135327  0.83762162  0.83724336  1
  Ni  Ni36  1  0.50299092  0.17011773  0.50191945  1
  Fe  Fe37  1  0.33710065  0.00399493  0.67095873  1
  Ni  Ni38  1  0.50179953  0.16981547  0.83803196  1
  Cr  Cr39  1  0.50356893  0.49912281  0.50427538  1
  Ni  Ni40  1  0.33595689  0.33506620  0.67092158  1
  Ni  Ni41  1  0.50397244  0.50278336  0.83649169  1
  Cr  Cr42  1  0.50318971  0.83874671  0.50494247  1
  Ni  Ni43  1  0.33321351  0.66836849  0.67264121  1
  Ni  Ni44  1  0.50138105  0.83699654  0.83645710  1
  Ni  Ni45  1  0.83675879  0.16947134  0.50358991  1
  Ni  Ni46  1  0.67134798  0.00626778  0.67021517  1
  Fe  Fe47  1  0.83701851  0.17005767  0.83767090  1
  Cr  Cr48  1  0.83607204  0.50229797  0.50327636  1
  Ni  Ni49  1  0.66869842  0.33197282  0.67303915  1
  Ni  Ni50  1  0.83594780  0.50187584  0.83696005  1
  Ni  Ni51  1  0.83992749  0.83827813  0.50003422  1
  Ni  Ni52  1  0.67063746  0.67111537  0.67068031  1
  Cr  Cr53  1  0.83800214  0.83413907  0.83779370  1
" 