2612,Ni57Fe27Cr15_2,-235.086512877499, 196.370071177072,Ni57Fe27Cr15,"# generated using pymatgen
 data_Cr9Fe14Ni31
_symmetry_space_group_name_H-M   'P 1'
_cell_length_a   7.43836342
_cell_length_b   7.43836342
_cell_length_c   10.51943443
_cell_angle_alpha   90.00000000
_cell_angle_beta   90.00000000
_cell_angle_gamma   90.00000000
_symmetry_Int_Tables_number   1
_chemical_formula_structural   Cr9Fe14Ni31
_chemical_formula_sum   'Cr9 Fe14 Ni31'
_cell_volume   582.03242103
_cell_formula_units_Z   1
loop_
 _symmetry_equiv_pos_site_id
 _symmetry_equiv_pos_as_xyz
  1  'x, y, z'
loop_
 _atom_site_type_symbol
 _atom_site_label
 _atom_site_symmetry_multiplicity
 _atom_site_fract_x
 _atom_site_fract_y
 _atom_site_fract_z
 _atom_site_occupancy
  Ni  Ni0  1  0.00240561  1.00064589  0.00201978  1
  Ni  Ni1  1  0.16946751  0.16728824  0.16894874  1
  Fe  Fe2  1  0.00349355  1.00109661  0.33439245  1
  Cr  Cr3  1  0.00249032  0.33418463  1.00055652  1
  Ni  Ni4  1  0.16861335  0.50224054  0.16916299  1
  Ni  Ni5  1  0.00202536  0.33757166  0.33506349  1
  Cr  Cr6  1  0.00279649  0.67059090  1.00123293  1
  Fe  Fe7  1  0.16850830  0.83568539  0.16902791  1
  Ni  Ni8  1  0.00354883  0.66850453  0.33539482  1
  Fe  Fe9  1  0.33357165  0.00293120  1.00167427  1
  Ni  Ni10  1  0.50053074  0.16969090  0.16770910  1
  Fe  Fe11  1  0.33401800  1.00122551  0.33546028  1
  Ni  Ni12  1  0.33776924  0.33624656  1.00146966  1
  Fe  Fe13  1  0.50190088  0.50091924  0.16656135  1
  Cr  Cr14  1  0.33559098  0.33543504  0.33607724  1
  Ni  Ni15  1  0.33622655  0.66784152  0.00227749  1
  Fe  Fe16  1  0.49964120  0.83435757  0.16772417  1
  Fe  Fe17  1  0.33325713  0.66900824  0.33560232  1
  Cr  Cr18  1  0.66951010  0.00273651  1.00116151  1
  Fe  Fe19  1  0.83639977  0.17019923  0.16903414  1
  Cr  Cr20  1  0.66745010  0.00289107  0.33546442  1
  Ni  Ni21  1  0.66541538  0.33555796  0.00287243  1
  Ni  Ni22  1  0.83478469  0.50173955  0.17021888  1
  Ni  Ni23  1  0.66879886  0.33523089  0.33418263  1
  Fe  Fe24  1  0.66746722  0.66659660  1.00157933  1
  Ni  Ni25  1  0.83718982  0.83440157  0.16855492  1
  Cr  Cr26  1  0.66970254  0.66796210  0.33620432  1
  Fe  Fe27  1  0.16924559  0.16843775  0.50311390  1
  Ni  Ni28  1  1.00152000  1.00130012  0.66945003  1
  Ni  Ni29  1  0.16892635  0.16735162  0.83414413  1
  Ni  Ni30  1  0.16845706  0.50243024  0.50199267  1
  Ni  Ni31  1  0.00534592  0.33501993  0.66929331  1
  Fe  Fe32  1  0.17126965  0.50080112  0.83458180  1
  Ni  Ni33  1  0.16949147  0.83531743  0.49947240  1
  Cr  Cr34  1  1.00184994  0.66875562  0.66887826  1
  Ni  Ni35  1  0.16963214  0.83781707  0.83671450  1
  Ni  Ni36  1  0.49993897  0.16798539  0.50262238  1
  Fe  Fe37  1  0.33507770  0.00274457  0.66864855  1
  Ni  Ni38  1  0.49999862  0.16924793  0.83545274  1
  Ni  Ni39  1  0.50099497  0.50239152  0.50176483  1
  Ni  Ni40  1  0.33409334  0.33536888  0.66876353  1
  Ni  Ni41  1  0.50179890  0.50242608  0.83728139  1
  Ni  Ni42  1  0.50000917  0.83540649  0.50343827  1
  Fe  Fe43  1  0.33653844  0.66866369  0.66874200  1
  Ni  Ni44  1  0.50110204  0.83410724  0.83458225  1
  Cr  Cr45  1  0.83632834  0.16942956  0.50105871  1
  Ni  Ni46  1  0.66769524  0.99921413  0.66904234  1
  Ni  Ni47  1  0.83685681  0.16804843  0.83571572  1
  Ni  Ni48  1  0.83633451  0.50249658  0.50011556  1
  Cr  Cr49  1  0.66673627  0.33453532  0.66852569  1
  Ni  Ni50  1  0.83314818  0.50171763  0.83544745  1
  Ni  Ni51  1  0.83627955  0.83426473  0.50313841  1
  Fe  Fe52  1  0.66782747  0.67004479  0.66841801  1
  Ni  Ni53  1  0.83504794  0.83601524  0.83409186  1
" 