1132,Ni57Fe34Cr8_15,-238.618863499255, 214.306803176684,Ni57Fe34Cr8,"# generated using pymatgen
 data_Cr5Fe18Ni31
_symmetry_space_group_name_H-M   'P 1'
_cell_length_a   7.42193938
_cell_length_b   7.42193938
_cell_length_c   10.49620734
_cell_angle_alpha   90.00000000
_cell_angle_beta   90.00000000
_cell_angle_gamma   90.00000000
_symmetry_Int_Tables_number   1
_chemical_formula_structural   Cr5Fe18Ni31
_chemical_formula_sum   'Cr5 Fe18 Ni31'
_cell_volume   578.18551486
_cell_formula_units_Z   1
loop_
 _symmetry_equiv_pos_site_id
 _symmetry_equiv_pos_as_xyz
  1  'x, y, z'
loop_
 _atom_site_type_symbol
 _atom_site_label
 _atom_site_symmetry_multiplicity
 _atom_site_fract_x
 _atom_site_fract_y
 _atom_site_fract_z
 _atom_site_occupancy
  Fe  Fe0  1  1.00037167  1.00149338  0.00345861  1
  Ni  Ni1  1  0.16922347  0.16749385  0.16895173  1
  Ni  Ni2  1  1.00282166  1.00217957  0.33505147  1
  Ni  Ni3  1  1.00295184  0.33601919  0.00456924  1
  Fe  Fe4  1  0.16836706  0.50412665  0.16815648  1
  Fe  Fe5  1  1.00213628  0.33836177  0.33500968  1
  Ni  Ni6  1  1.00250953  0.67095844  1.00203002  1
  Ni  Ni7  1  0.16922240  0.83614979  0.16892978  1
  Ni  Ni8  1  0.00360707  0.67298255  0.33674909  1
  Fe  Fe9  1  0.33700207  1.00161035  1.00272473  1
  Ni  Ni10  1  0.50187187  0.16896997  0.16862115  1
  Fe  Fe11  1  0.33684876  0.99921082  0.33614195  1
  Fe  Fe12  1  0.33516303  0.33834551  0.00349975  1
  Ni  Ni13  1  0.50264726  0.50572364  0.16782381  1
  Cr  Cr14  1  0.33672851  0.33653607  0.33516263  1
  Fe  Fe15  1  0.33540402  0.66922024  1.00253993  1
  Fe  Fe16  1  0.50336928  0.83724250  0.16865838  1
  Ni  Ni17  1  0.33646422  0.67057012  0.33659401  1
  Fe  Fe18  1  0.67173109  1.00177011  1.00239077  1
  Ni  Ni19  1  0.83767470  0.16742417  0.17030354  1
  Fe  Fe20  1  0.67006680  1.00115974  0.33615743  1
  Cr  Cr21  1  0.66942165  0.33642150  1.00202781  1
  Fe  Fe22  1  0.83806535  0.50468202  0.16908677  1
  Cr  Cr23  1  0.66933490  0.33648622  0.33549040  1
  Ni  Ni24  1  0.67033535  0.67113987  0.00339847  1
  Ni  Ni25  1  0.83705217  0.83502031  0.17026825  1
  Ni  Ni26  1  0.66932136  0.67045760  0.33517706  1
  Cr  Cr27  1  0.16869600  0.16657505  0.50415779  1
  Ni  Ni28  1  1.00148882  1.00104747  0.67158351  1
  Cr  Cr29  1  0.16927553  0.16912443  0.83652005  1
  Fe  Fe30  1  0.16979240  0.50399678  0.50522905  1
  Fe  Fe31  1  1.00244529  0.33926552  0.67058087  1
  Ni  Ni32  1  0.16879107  0.50518587  0.83582762  1
  Ni  Ni33  1  0.16989949  0.83441394  0.50380408  1
  Ni  Ni34  1  1.00228160  0.67216326  0.66982828  1
  Ni  Ni35  1  0.16976976  0.83447967  0.83640226  1
  Ni  Ni36  1  0.50440423  0.16905350  0.50460342  1
  Ni  Ni37  1  0.33655008  1.00236864  0.66953706  1
  Ni  Ni38  1  0.50349507  0.16844746  0.83516465  1
  Ni  Ni39  1  0.50424223  0.50507980  0.50564582  1
  Ni  Ni40  1  0.34022624  0.33661894  0.67122342  1
  Fe  Fe41  1  0.50319383  0.50512022  0.83565994  1
  Fe  Fe42  1  0.50379339  0.83538723  0.50436628  1
  Ni  Ni43  1  0.33622745  0.67011881  0.67069596  1
  Ni  Ni44  1  0.50309248  0.83564764  0.83704007  1
  Ni  Ni45  1  0.83587446  0.17003059  0.50403005  1
  Fe  Fe46  1  0.66890777  1.00157371  0.67070401  1
  Ni  Ni47  1  0.83523182  0.16961836  0.83486753  1
  Ni  Ni48  1  0.83582508  0.50510078  0.50214467  1
  Fe  Fe49  1  0.67084963  0.33678609  0.66941323  1
  Ni  Ni50  1  0.83729233  0.50465824  0.83657025  1
  Fe  Fe51  1  0.83620220  0.83687119  0.50276923  1
  Ni  Ni52  1  0.67072498  0.66876752  0.67063413  1
  Ni  Ni53  1  0.83581097  0.83484090  0.83612140  1
" 