1030,Ni57Fe36Cr6_4,-238.292040124557, 212.845517677295,Ni57Fe36Cr6,"# generated using pymatgen
 data_Cr5Fe19Ni30
_symmetry_space_group_name_H-M   'P 1'
_cell_length_a   7.41992537
_cell_length_b   7.41992537
_cell_length_c   10.49335909
_cell_angle_alpha   90.00000000
_cell_angle_beta   90.00000000
_cell_angle_gamma   90.00000000
_symmetry_Int_Tables_number   1
_chemical_formula_structural   Cr5Fe19Ni30
_chemical_formula_sum   'Cr5 Fe19 Ni30'
_cell_volume   577.71495351
_cell_formula_units_Z   1
loop_
 _symmetry_equiv_pos_site_id
 _symmetry_equiv_pos_as_xyz
  1  'x, y, z'
loop_
 _atom_site_type_symbol
 _atom_site_label
 _atom_site_symmetry_multiplicity
 _atom_site_fract_x
 _atom_site_fract_y
 _atom_site_fract_z
 _atom_site_occupancy
  Fe  Fe0  1  0.00497775  1.00134940  0.00333634  1
  Fe  Fe1  1  0.17018793  0.16847312  0.17133206  1
  Ni  Ni2  1  0.00337450  0.00445549  0.33656233  1
  Cr  Cr3  1  1.00207140  0.33760400  0.00345639  1
  Ni  Ni4  1  0.17053450  0.50604646  0.17125208  1
  Ni  Ni5  1  0.00339054  0.33638108  0.33680207  1
  Ni  Ni6  1  1.00315867  0.67061520  1.00224348  1
  Ni  Ni7  1  0.17038576  0.83519917  0.17004442  1
  Ni  Ni8  1  0.00372470  0.66869039  0.33671950  1
  Ni  Ni9  1  0.33701323  1.00178103  1.00254824  1
  Ni  Ni10  1  0.50494438  0.17002654  0.16996780  1
  Ni  Ni11  1  0.33694080  0.00374106  0.33670444  1
  Cr  Cr12  1  0.33861020  0.33599139  1.00263460  1
  Ni  Ni13  1  0.50276057  0.50302697  0.17110369  1
  Ni  Ni14  1  0.33619985  0.33637350  0.33610606  1
  Ni  Ni15  1  0.33674935  0.67207501  0.00351947  1
  Fe  Fe16  1  0.50117840  0.83629585  0.16961214  1
  Ni  Ni17  1  0.33657864  0.66941185  0.33546537  1
  Fe  Fe18  1  0.66763210  1.00315342  1.00310153  1
  Ni  Ni19  1  0.83495413  0.16987846  0.17109870  1
  Ni  Ni20  1  0.66921357  0.00407515  0.33695542  1
  Ni  Ni21  1  0.66934533  0.33714734  0.00454941  1
  Fe  Fe22  1  0.83582559  0.50242394  0.16989135  1
  Fe  Fe23  1  0.66949019  0.33597287  0.33571199  1
  Ni  Ni24  1  0.66961907  0.66880766  1.00101099  1
  Cr  Cr25  1  0.83781617  0.83711552  0.16910165  1
  Ni  Ni26  1  0.66921724  0.66942848  0.33788190  1
  Fe  Fe27  1  0.17019775  0.17041384  0.50339597  1
  Ni  Ni28  1  1.00295667  1.00198475  0.66968398  1
  Ni  Ni29  1  0.17120317  0.16824462  0.83439067  1
  Ni  Ni30  1  0.16944075  0.50384502  0.50375443  1
  Fe  Fe31  1  0.00585462  0.33740727  0.66913748  1
  Fe  Fe32  1  0.17069541  0.50449681  0.83468885  1
  Fe  Fe33  1  0.16992835  0.83623338  0.50255843  1
  Ni  Ni34  1  0.00363896  0.67045138  0.67055845  1
  Fe  Fe35  1  0.17044467  0.83635578  0.83705822  1
  Ni  Ni36  1  0.50308482  0.16860494  0.50303139  1
  Fe  Fe37  1  0.33668369  0.00342773  0.67047308  1
  Ni  Ni38  1  0.50158601  0.16827927  0.83653104  1
  Fe  Fe39  1  0.50135287  0.50363410  0.50234277  1
  Ni  Ni40  1  0.33566962  0.33674343  0.67097296  1
  Ni  Ni41  1  0.50329217  0.50512051  0.83587867  1
  Fe  Fe42  1  0.50294797  0.83649531  0.50323692  1
  Ni  Ni43  1  0.33570522  0.66874407  0.67054551  1
  Ni  Ni44  1  0.50304742  0.83612529  0.83672843  1
  Fe  Fe45  1  0.83740302  0.16882128  0.50200821  1
  Ni  Ni46  1  0.66983455  1.00194742  0.66986911  1
  Cr  Cr47  1  0.83626893  0.16870501  0.83676599  1
  Fe  Fe48  1  0.83766652  0.50390367  0.50262386  1
  Cr  Cr49  1  0.66781123  0.33626005  0.66979988  1
  Ni  Ni50  1  0.83658759  0.50645958  0.83699103  1
  Fe  Fe51  1  0.83664822  0.83679991  0.50294421  1
  Fe  Fe52  1  0.66976169  0.67146974  0.67054915  1
  Fe  Fe53  1  0.83586435  0.83495628  0.83623869  1
" 