6462,Ni57Fe27Cr15_12,-235.295181763399, 198.876444879622,Ni57Fe27Cr15,"# generated using pymatgen
 data_Cr9Fe14Ni31
_symmetry_space_group_name_H-M   'P 1'
_cell_length_a   7.43458479
_cell_length_b   7.43458479
_cell_length_c   10.51409064
_cell_angle_alpha   90.00000000
_cell_angle_beta   90.00000000
_cell_angle_gamma   90.00000000
_symmetry_Int_Tables_number   1
_chemical_formula_structural   Cr9Fe14Ni31
_chemical_formula_sum   'Cr9 Fe14 Ni31'
_cell_volume   581.14586745
_cell_formula_units_Z   1
loop_
 _symmetry_equiv_pos_site_id
 _symmetry_equiv_pos_as_xyz
  1  'x, y, z'
loop_
 _atom_site_type_symbol
 _atom_site_label
 _atom_site_symmetry_multiplicity
 _atom_site_fract_x
 _atom_site_fract_y
 _atom_site_fract_z
 _atom_site_occupancy
  Fe  Fe0  1  1.00124600  0.99827521  0.00297733  1
  Ni  Ni1  1  0.16960017  0.16956587  0.16991677  1
  Ni  Ni2  1  0.00240771  0.00360097  0.33289898  1
  Cr  Cr3  1  1.00129087  0.33492086  0.00518539  1
  Ni  Ni4  1  0.16963796  0.50143032  0.16882938  1
  Ni  Ni5  1  1.00027058  0.33348080  0.33493876  1
  Ni  Ni6  1  0.00244598  0.67183148  0.00353290  1
  Ni  Ni7  1  0.16966255  0.83555246  0.16848549  1
  Cr  Cr8  1  0.00238123  0.66921353  0.33392116  1
  Ni  Ni9  1  0.33726550  1.00073060  0.00295020  1
  Ni  Ni10  1  0.50165872  0.16855780  0.16948771  1
  Fe  Fe11  1  0.33576414  0.00248442  0.33364811  1
  Fe  Fe12  1  0.33877014  0.33549905  0.00404756  1
  Fe  Fe13  1  0.50216908  0.50213294  0.16946779  1
  Ni  Ni14  1  0.33772436  0.33497951  0.33307587  1
  Ni  Ni15  1  0.33593890  0.67076034  0.00290527  1
  Ni  Ni16  1  0.50257747  0.83557804  0.16928920  1
  Fe  Fe17  1  0.33727409  0.66884321  0.33491639  1
  Ni  Ni18  1  0.66794476  1.00184326  1.00184076  1
  Ni  Ni19  1  0.83529149  0.16858055  0.16991715  1
  Fe  Fe20  1  0.66882978  0.00421139  0.33392491  1
  Fe  Fe21  1  0.66654237  0.33448726  0.00303166  1
  Ni  Ni22  1  0.83531901  0.50235054  0.17020397  1
  Ni  Ni23  1  0.66855299  0.33493871  0.33556831  1
  Ni  Ni24  1  0.66816603  0.67075596  0.00316436  1
  Ni  Ni25  1  0.83431213  0.83561457  0.16711216  1
  Fe  Fe26  1  0.66701810  0.66741988  0.33484055  1
  Cr  Cr27  1  0.16731692  0.16956568  0.50251312  1
  Ni  Ni28  1  1.00156030  0.00318203  0.67068214  1
  Cr  Cr29  1  0.16949136  0.16797762  0.83463884  1
  Cr  Cr30  1  0.17023621  0.50031135  0.50304462  1
  Ni  Ni31  1  0.99941339  0.33219124  0.66641592  1
  Cr  Cr32  1  0.17150607  0.50327040  0.83506375  1
  Fe  Fe33  1  0.17186696  0.83722522  0.50251693  1
  Cr  Cr34  1  0.00257353  0.67097224  0.66934780  1
  Ni  Ni35  1  0.16994278  0.83560552  0.83517150  1
  Fe  Fe36  1  0.50397574  0.16995209  0.50213967  1
  Fe  Fe37  1  0.33710378  1.00052272  0.66979070  1
  Ni  Ni38  1  0.50371239  0.16820818  0.83442242  1
  Ni  Ni39  1  0.50284745  0.50355835  0.50293847  1
  Ni  Ni40  1  0.33922719  0.33562108  0.66967214  1
  Fe  Fe41  1  0.50246353  0.50292335  0.83425947  1
  Ni  Ni42  1  0.50167226  0.83376993  0.50250709  1
  Ni  Ni43  1  0.33876449  0.67058044  0.66855379  1
  Ni  Ni44  1  0.50275439  0.83556318  0.83475286  1
  Ni  Ni45  1  0.83528944  0.17047703  0.50280031  1
  Fe  Fe46  1  0.66842516  0.00325693  0.67052772  1
  Ni  Ni47  1  0.83301226  0.16634338  0.83383178  1
  Fe  Fe48  1  0.83155271  0.49853294  0.50214750  1
  Ni  Ni49  1  0.66790719  0.33447166  0.66829111  1
  Cr  Cr50  1  0.83352972  0.50288963  0.83398686  1
  Cr  Cr51  1  0.83275390  0.83730668  0.50248516  1
  Ni  Ni52  1  0.66507830  0.66843532  0.66855461  1
  Ni  Ni53  1  0.83385490  0.83754069  0.83676002  1
" 