7643,Ni57Fe43_8,-239.437915002039, 219.249229429001,Ni57Fe43,"# generated using pymatgen
 data_Fe31Ni23
_symmetry_space_group_name_H-M   'P 1'
_cell_length_a   7.39739311
_cell_length_b   7.39739311
_cell_length_c   10.46149366
_cell_angle_alpha   90.00000000
_cell_angle_beta   90.00000000
_cell_angle_gamma   90.00000000
_symmetry_Int_Tables_number   1
_chemical_formula_structural   Fe31Ni23
_chemical_formula_sum   'Fe31 Ni23'
_cell_volume   572.46783917
_cell_formula_units_Z   1
loop_
 _symmetry_equiv_pos_site_id
 _symmetry_equiv_pos_as_xyz
  1  'x, y, z'
loop_
 _atom_site_type_symbol
 _atom_site_label
 _atom_site_symmetry_multiplicity
 _atom_site_fract_x
 _atom_site_fract_y
 _atom_site_fract_z
 _atom_site_occupancy
  Fe  Fe0  1  1.00458227  1.00453042  1.00409932  1
  Ni  Ni1  1  0.17224611  0.16982403  0.17210601  1
  Fe  Fe2  1  0.00775460  0.00502513  0.33812414  1
  Fe  Fe3  1  1.00401460  0.33696620  0.00599485  1
  Fe  Fe4  1  0.16998481  0.50431172  0.17199462  1
  Ni  Ni5  1  1.00381562  0.33829968  0.33858530  1
  Ni  Ni6  1  0.00609449  0.67086466  0.00582907  1
  Ni  Ni7  1  0.17284141  0.83923999  0.17062735  1
  Fe  Fe8  1  0.00671562  0.67132809  0.33771047  1
  Ni  Ni9  1  0.33833346  0.00579810  1.00354939  1
  Fe  Fe10  1  0.50362964  0.17094793  0.17233102  1
  Ni  Ni11  1  0.33929897  1.00417608  0.33963940  1
  Fe  Fe12  1  0.33832803  0.33725336  1.00452668  1
  Fe  Fe13  1  0.50341445  0.50483832  0.17088206  1
  Ni  Ni14  1  0.33683167  0.33777772  0.33758009  1
  Fe  Fe15  1  0.33991956  0.67282886  1.00433512  1
  Fe  Fe16  1  0.50439558  0.83837485  0.17009722  1
  Ni  Ni17  1  0.33738714  0.67227702  0.33700349  1
  Ni  Ni18  1  0.67012565  0.00536098  0.00489916  1
  Fe  Fe19  1  0.83938810  0.17127117  0.17101560  1
  Fe  Fe20  1  0.67015473  0.00574791  0.33880615  1
  Ni  Ni21  1  0.67102666  0.33718763  0.00524892  1
  Ni  Ni22  1  0.83590486  0.50411084  0.17181343  1
  Fe  Fe23  1  0.66961503  0.33811153  0.33826697  1
  Ni  Ni24  1  0.67352418  0.67159039  1.00322317  1
  Fe  Fe25  1  0.83913283  0.83785757  0.17086098  1
  Fe  Fe26  1  0.66983112  0.67041510  0.33670934  1
  Fe  Fe27  1  0.17277245  0.17162455  0.50399998  1
  Fe  Fe28  1  0.00543498  0.00480853  0.67186380  1
  Ni  Ni29  1  0.17030226  0.17105923  0.83680538  1
  Fe  Fe30  1  0.17293615  0.50452967  0.50463507  1
  Fe  Fe31  1  1.00441802  0.33848461  0.67089973  1
  Fe  Fe32  1  0.17091531  0.50485586  0.83741522  1
  Ni  Ni33  1  0.17177931  0.83777567  0.50495503  1
  Ni  Ni34  1  0.00509074  0.67200511  0.67067828  1
  Ni  Ni35  1  0.17251424  0.83815390  0.83860912  1
  Ni  Ni36  1  0.50493619  0.17260536  0.50536087  1
  Fe  Fe37  1  0.33841880  1.00438406  0.67125638  1
  Fe  Fe38  1  0.50436614  0.16972715  0.83729595  1
  Fe  Fe39  1  0.50246353  0.50503757  0.50497942  1
  Ni  Ni40  1  0.33809830  0.33773335  0.67118089  1
  Fe  Fe41  1  0.50429443  0.50329918  0.83763267  1
  Fe  Fe42  1  0.50386718  0.83846765  0.50577668  1
  Ni  Ni43  1  0.33556413  0.67117472  0.67175748  1
  Ni  Ni44  1  0.50444038  0.83659726  0.83693148  1
  Fe  Fe45  1  0.83823507  0.17048131  0.50561449  1
  Ni  Ni46  1  0.67181957  0.00533377  0.67238870  1
  Ni  Ni47  1  0.83776324  0.17398173  0.83855164  1
  Fe  Fe48  1  0.83810910  0.50474960  0.50406894  1
  Ni  Ni49  1  0.67141115  0.33655240  0.67122413  1
  Fe  Fe50  1  0.83905887  0.50542895  0.83890584  1
  Fe  Fe51  1  0.83762505  0.83893057  0.50530495  1
  Fe  Fe52  1  0.67031128  0.67015001  0.67225246  1
  Fe  Fe53  1  0.83899732  0.83998732  0.83803049  1
" 