3228,Ni57Fe34Cr8_8,-239.245778559611, 213.01813542895,Ni57Fe34Cr8,"# generated using pymatgen
 data_Cr5Fe18Ni31
_symmetry_space_group_name_H-M   'P 1'
_cell_length_a   7.42631857
_cell_length_b   7.42631857
_cell_length_c   10.50240044
_cell_angle_alpha   90.00000000
_cell_angle_beta   90.00000000
_cell_angle_gamma   90.00000000
_symmetry_Int_Tables_number   1
_chemical_formula_structural   Cr5Fe18Ni31
_chemical_formula_sum   'Cr5 Fe18 Ni31'
_cell_volume   579.20956346
_cell_formula_units_Z   1
loop_
 _symmetry_equiv_pos_site_id
 _symmetry_equiv_pos_as_xyz
  1  'x, y, z'
loop_
 _atom_site_type_symbol
 _atom_site_label
 _atom_site_symmetry_multiplicity
 _atom_site_fract_x
 _atom_site_fract_y
 _atom_site_fract_z
 _atom_site_occupancy
  Ni  Ni0  1  0.00463375  1.00184374  1.00199244  1
  Fe  Fe1  1  0.17003632  0.16920501  0.16972501  1
  Ni  Ni2  1  1.00253387  1.00264293  0.33705088  1
  Fe  Fe3  1  0.00356780  0.33646230  0.00285989  1
  Ni  Ni4  1  0.17026712  0.50335559  0.16935858  1
  Ni  Ni5  1  0.00393210  0.33452189  0.33560566  1
  Ni  Ni6  1  0.00460534  0.66999127  1.00227145  1
  Ni  Ni7  1  0.16767067  0.83576268  0.16841343  1
  Fe  Fe8  1  0.00487654  0.67075625  0.33453075  1
  Ni  Ni9  1  0.33371464  1.00248762  1.00225846  1
  Ni  Ni10  1  0.50107179  0.17143303  0.16881646  1
  Ni  Ni11  1  0.33507533  1.00163102  0.33615757  1
  Ni  Ni12  1  0.33630669  0.33549120  0.00314191  1
  Ni  Ni13  1  0.50106932  0.50077088  0.16910165  1
  Ni  Ni14  1  0.33496474  0.33681345  0.33779545  1
  Ni  Ni15  1  0.33284243  0.67024869  0.00313099  1
  Fe  Fe16  1  0.49986313  0.83545480  0.17044588  1
  Ni  Ni17  1  0.33620918  0.66978215  0.33635934  1
  Cr  Cr18  1  0.66918273  0.00481562  1.00191713  1
  Fe  Fe19  1  0.83795809  0.16946804  0.17001618  1
  Fe  Fe20  1  0.66936177  1.00193808  0.33613688  1
  Ni  Ni21  1  0.67013666  0.33552063  0.00321639  1
  Fe  Fe22  1  0.83769703  0.50292566  0.16870150  1
  Cr  Cr23  1  0.66902548  0.33544686  0.33476984  1
  Cr  Cr24  1  0.66979285  0.66788316  0.00316404  1
  Ni  Ni25  1  0.83921770  0.83576858  0.17145989  1
  Fe  Fe26  1  0.66828737  0.67168639  0.33518755  1
  Ni  Ni27  1  0.17035677  0.16843188  0.50123550  1
  Fe  Fe28  1  0.00341104  1.00243703  0.66903639  1
  Ni  Ni29  1  0.17043641  0.16795388  0.83729983  1
  Fe  Fe30  1  0.17133314  0.50224326  0.50169860  1
  Fe  Fe31  1  0.00388862  0.33498470  0.66958697  1
  Fe  Fe32  1  0.16823680  0.50380689  0.83705725  1
  Ni  Ni33  1  0.16841406  0.83715611  0.50239427  1
  Fe  Fe34  1  0.00353438  0.67080173  0.67103679  1
  Ni  Ni35  1  0.16841927  0.83728103  0.83741710  1
  Ni  Ni36  1  0.50102383  0.17043019  0.50380695  1
  Ni  Ni37  1  0.33597242  1.00141968  0.66981246  1
  Ni  Ni38  1  0.50100601  0.16947873  0.83560274  1
  Ni  Ni39  1  0.50072692  0.50203574  0.50316806  1
  Fe  Fe40  1  0.33615773  0.33461059  0.66831924  1
  Cr  Cr41  1  0.50302311  0.50090356  0.83642497  1
  Fe  Fe42  1  0.50195224  0.83671819  0.50334559  1
  Ni  Ni43  1  0.33519283  0.67122964  0.66873687  1
  Ni  Ni44  1  0.50088966  0.83788451  0.83509856  1
  Ni  Ni45  1  0.83685066  0.16680592  0.50353720  1
  Fe  Fe46  1  0.66841897  1.00269424  0.66953698  1
  Fe  Fe47  1  0.83635909  0.16981129  0.83504110  1
  Cr  Cr48  1  0.83553851  0.50412589  0.50223603  1
  Ni  Ni49  1  0.67048647  0.33454711  0.66986808  1
  Ni  Ni50  1  0.83739531  0.50287367  0.83664801  1
  Ni  Ni51  1  0.83745017  0.83745978  0.50247502  1
  Fe  Fe52  1  0.66879128  0.67104501  0.66978455  1
  Ni  Ni53  1  0.83891318  0.83480152  0.83428900  1
" 