2921,Ni57Fe43_12,-239.693427508858, 219.53868678239,Ni57Fe43,"# generated using pymatgen
 data_Fe31Ni23
_symmetry_space_group_name_H-M   'P 1'
_cell_length_a   7.39732640
_cell_length_b   7.39732640
_cell_length_c   10.46139932
_cell_angle_alpha   90.00000000
_cell_angle_beta   90.00000000
_cell_angle_gamma   90.00000000
_symmetry_Int_Tables_number   1
_chemical_formula_structural   Fe31Ni23
_chemical_formula_sum   'Fe31 Ni23'
_cell_volume   572.45235092
_cell_formula_units_Z   1
loop_
 _symmetry_equiv_pos_site_id
 _symmetry_equiv_pos_as_xyz
  1  'x, y, z'
loop_
 _atom_site_type_symbol
 _atom_site_label
 _atom_site_symmetry_multiplicity
 _atom_site_fract_x
 _atom_site_fract_y
 _atom_site_fract_z
 _atom_site_occupancy
  Fe  Fe0  1  0.00615521  0.00521642  0.00545461  1
  Ni  Ni1  1  0.17106763  0.17144915  0.17224716  1
  Ni  Ni2  1  1.00466272  0.00578095  0.33836891  1
  Fe  Fe3  1  0.00594381  0.33737780  0.00623223  1
  Ni  Ni4  1  0.17015267  0.50408096  0.17236297  1
  Ni  Ni5  1  1.00415446  0.33806842  0.33876512  1
  Fe  Fe6  1  0.00635682  0.67131450  1.00431525  1
  Ni  Ni7  1  0.17273850  0.83872065  0.17240001  1
  Fe  Fe8  1  0.00508045  0.67252007  0.33829078  1
  Ni  Ni9  1  0.33834601  0.00485076  1.00431246  1
  Fe  Fe10  1  0.50286883  0.17122061  0.17044917  1
  Ni  Ni11  1  0.33881969  1.00393262  0.33815920  1
  Ni  Ni12  1  0.33796536  0.33755240  1.00448451  1
  Fe  Fe13  1  0.50340704  0.50529721  0.17138540  1
  Fe  Fe14  1  0.33780298  0.33766746  0.33722222  1
  Fe  Fe15  1  0.33812664  0.67164283  0.00592226  1
  Ni  Ni16  1  0.50509015  0.83922702  0.17133706  1
  Ni  Ni17  1  0.33899597  0.67174141  0.33715616  1
  Fe  Fe18  1  0.66978519  0.00509819  1.00429616  1
  Fe  Fe19  1  0.83889963  0.17083977  0.17176776  1
  Ni  Ni20  1  0.67099729  1.00380133  0.33776146  1
  Fe  Fe21  1  0.67030810  0.33754301  1.00321709  1
  Ni  Ni22  1  0.83808840  0.50359780  0.17211084  1
  Fe  Fe23  1  0.67112628  0.33727614  0.33887827  1
  Fe  Fe24  1  0.66970950  0.67164246  0.00552763  1
  Fe  Fe25  1  0.83942749  0.83699988  0.17136284  1
  Ni  Ni26  1  0.67069932  0.67138700  0.33823160  1
  Fe  Fe27  1  0.17297002  0.17127389  0.50313862  1
  Fe  Fe28  1  1.00361302  0.00499549  0.67109277  1
  Fe  Fe29  1  0.17273772  0.17057051  0.83926132  1
  Ni  Ni30  1  0.17101854  0.50370009  0.50318741  1
  Fe  Fe31  1  1.00409043  0.33863616  0.67030036  1
  Fe  Fe32  1  0.17133306  0.50489894  0.83779856  1
  Fe  Fe33  1  0.17284123  0.83655170  0.50378559  1
  Ni  Ni34  1  0.00478946  0.67137861  0.67122138  1
  Fe  Fe35  1  0.17195673  0.83863440  0.83829067  1
  Fe  Fe36  1  0.50413362  0.17194713  0.50560779  1
  Fe  Fe37  1  0.33853573  1.00437182  0.67163346  1
  Ni  Ni38  1  0.50559711  0.17109636  0.83693468  1
  Ni  Ni39  1  0.50357118  0.50546550  0.50336005  1
  Fe  Fe40  1  0.33808390  0.33982878  0.67205490  1
  Ni  Ni41  1  0.50324436  0.50547502  0.83822496  1
  Ni  Ni42  1  0.50560767  0.83853895  0.50552136  1
  Fe  Fe43  1  0.33849953  0.66998824  0.66990046  1
  Ni  Ni44  1  0.50514242  0.83750289  0.83709582  1
  Fe  Fe45  1  0.83698947  0.17200970  0.50485731  1
  Fe  Fe46  1  0.67240780  1.00463813  0.67157717  1
  Ni  Ni47  1  0.83968208  0.17139154  0.83854508  1
  Fe  Fe48  1  0.83697283  0.50530541  0.50409082  1
  Ni  Ni49  1  0.67090080  0.33858650  0.67187523  1
  Fe  Fe50  1  0.83582240  0.50526249  0.83845131  1
  Fe  Fe51  1  0.83800590  0.83689665  0.50492857  1
  Fe  Fe52  1  0.67126491  0.67063298  0.67115103  1
  Ni  Ni53  1  0.83789208  0.83905542  0.83857437  1
" 