241,Ni57Fe43_15,-239.403483546534, 221.049800491996,Ni57Fe43,"# generated using pymatgen
 data_Fe31Ni23
_symmetry_space_group_name_H-M   'P 1'
_cell_length_a   7.39685323
_cell_length_b   7.39685323
_cell_length_c   10.46073016
_cell_angle_alpha   90.00000000
_cell_angle_beta   90.00000000
_cell_angle_gamma   90.00000000
_symmetry_Int_Tables_number   1
_chemical_formula_structural   Fe31Ni23
_chemical_formula_sum   'Fe31 Ni23'
_cell_volume   572.34250815
_cell_formula_units_Z   1
loop_
 _symmetry_equiv_pos_site_id
 _symmetry_equiv_pos_as_xyz
  1  'x, y, z'
loop_
 _atom_site_type_symbol
 _atom_site_label
 _atom_site_symmetry_multiplicity
 _atom_site_fract_x
 _atom_site_fract_y
 _atom_site_fract_z
 _atom_site_occupancy
  Ni  Ni0  1  1.00277375  0.00574068  0.00484553  1
  Ni  Ni1  1  0.17197655  0.17143438  0.17138899  1
  Fe  Fe2  1  0.00543078  0.00527703  0.33787001  1
  Ni  Ni3  1  1.00430726  0.33727778  0.00527909  1
  Ni  Ni4  1  0.17195416  0.50515851  0.17131857  1
  Fe  Fe5  1  0.00556593  0.33837045  0.33759834  1
  Fe  Fe6  1  1.00453384  0.67189356  0.00531449  1
  Ni  Ni7  1  0.17077847  0.83764461  0.17184424  1
  Fe  Fe8  1  0.00512686  0.67058228  0.33746243  1
  Fe  Fe9  1  0.33738833  0.00500773  1.00462670  1
  Fe  Fe10  1  0.50414511  0.17105942  0.17177192  1
  Fe  Fe11  1  0.33821884  0.00571796  0.33855546  1
  Fe  Fe12  1  0.33766942  0.33745278  0.00482242  1
  Fe  Fe13  1  0.50329224  0.50545604  0.17157692  1
  Ni  Ni14  1  0.33841599  0.33967980  0.33761634  1
  Ni  Ni15  1  0.33818301  0.67049135  0.00501407  1
  Fe  Fe16  1  0.50357519  0.83771682  0.17120350  1
  Ni  Ni17  1  0.33759715  0.67046941  0.33835418  1
  Ni  Ni18  1  0.67327585  0.00492913  0.00502225  1
  Fe  Fe19  1  0.83952612  0.17084044  0.17093118  1
  Fe  Fe20  1  0.67058298  0.00528161  0.33827816  1
  Fe  Fe21  1  0.67189423  0.33774282  1.00424478  1
  Fe  Fe22  1  0.83952468  0.50481608  0.17108978  1
  Ni  Ni23  1  0.67152487  0.33740662  0.33779976  1
  Fe  Fe24  1  0.67231214  0.67161678  1.00454150  1
  Ni  Ni25  1  0.83839728  0.83762129  0.17113524  1
  Fe  Fe26  1  0.67087964  0.67056671  0.33787228  1
  Ni  Ni27  1  0.17206320  0.17115122  0.50513230  1
  Ni  Ni28  1  1.00299997  0.00531170  0.67167330  1
  Fe  Fe29  1  0.17104184  0.17231352  0.83786978  1
  Fe  Fe30  1  0.17223210  0.50345010  0.50418775  1
  Fe  Fe31  1  0.00522184  0.33692952  0.67189195  1
  Fe  Fe32  1  0.17190179  0.50386762  0.83856338  1
  Fe  Fe33  1  0.17174419  0.83936954  0.50483835  1
  Fe  Fe34  1  0.00535552  0.67217817  0.67145962  1
  Fe  Fe35  1  0.17169477  0.83805220  0.83819457  1
  Ni  Ni36  1  0.50445397  0.17151570  0.50509846  1
  Ni  Ni37  1  0.33827377  1.00458190  0.67151127  1
  Ni  Ni38  1  0.50498119  0.17163944  0.83755914  1
  Fe  Fe39  1  0.50413113  0.50324493  0.50477826  1
  Ni  Ni40  1  0.33826956  0.33944593  0.67144253  1
  Ni  Ni41  1  0.50499501  0.50466169  0.83772346  1
  Fe  Fe42  1  0.50440874  0.83936622  0.50515905  1
  Ni  Ni43  1  0.33827092  0.67020300  0.67086870  1
  Fe  Fe44  1  0.50557193  0.83805283  0.83787139  1
  Ni  Ni45  1  0.83772023  0.17116056  0.50472488  1
  Ni  Ni46  1  0.67295728  0.00530977  0.67103957  1
  Ni  Ni47  1  0.83747614  0.17129921  0.83790826  1
  Fe  Fe48  1  0.83787285  0.50316477  0.50486435  1
  Fe  Fe49  1  0.67052234  0.33692894  0.67134551  1
  Ni  Ni50  1  0.83748804  0.50503314  0.83817364  1
  Fe  Fe51  1  0.83808047  0.83993619  0.50459164  1
  Fe  Fe52  1  0.67067655  0.67189419  0.67181827  1
  Fe  Fe53  1  0.83696757  0.83890951  0.83855609  1
" 