5935,Ni57Fe27Cr15_15,-235.045310029949, 195.426002320395,Ni57Fe27Cr15,"# generated using pymatgen
 data_Cr9Fe14Ni31
_symmetry_space_group_name_H-M   'P 1'
_cell_length_a   7.43939243
_cell_length_b   7.43939243
_cell_length_c   10.52088967
_cell_angle_alpha   90.00000000
_cell_angle_beta   90.00000000
_cell_angle_gamma   90.00000000
_symmetry_Int_Tables_number   1
_chemical_formula_structural   Cr9Fe14Ni31
_chemical_formula_sum   'Cr9 Fe14 Ni31'
_cell_volume   582.27400642
_cell_formula_units_Z   1
loop_
 _symmetry_equiv_pos_site_id
 _symmetry_equiv_pos_as_xyz
  1  'x, y, z'
loop_
 _atom_site_type_symbol
 _atom_site_label
 _atom_site_symmetry_multiplicity
 _atom_site_fract_x
 _atom_site_fract_y
 _atom_site_fract_z
 _atom_site_occupancy
  Ni  Ni0  1  1.00092438  0.00477494  1.00003086  1
  Fe  Fe1  1  0.16806588  0.16990944  0.16907903  1
  Ni  Ni2  1  1.00035508  0.00310825  0.33491919  1
  Ni  Ni3  1  0.00235730  0.33295003  1.00183974  1
  Fe  Fe4  1  0.16847113  0.49846883  0.16904558  1
  Ni  Ni5  1  0.00288071  0.33615202  0.33393013  1
  Cr  Cr6  1  1.00120091  0.66810037  1.00033174  1
  Cr  Cr7  1  0.17030006  0.83611625  0.16870894  1
  Ni  Ni8  1  0.99880931  0.66631454  0.33711522  1
  Fe  Fe9  1  0.33601240  0.00327714  0.00227930  1
  Ni  Ni10  1  0.50154211  0.16842883  0.16879805  1
  Ni  Ni11  1  0.33737616  0.00407416  0.33382739  1
  Ni  Ni12  1  0.33562650  0.33556448  0.00201156  1
  Fe  Fe13  1  0.50332222  0.50117696  0.16723370  1
  Ni  Ni14  1  0.33423165  0.33455641  0.33411460  1
  Ni  Ni15  1  0.33758731  0.66667537  1.00137807  1
  Ni  Ni16  1  0.50141180  0.83689430  0.16759720  1
  Cr  Cr17  1  0.33726450  0.66689059  0.33615979  1
  Ni  Ni18  1  0.66876682  0.00281450  1.00164032  1
  Ni  Ni19  1  0.83453269  0.17165640  0.16800468  1
  Ni  Ni20  1  0.66784365  1.00000609  0.33522660  1
  Ni  Ni21  1  0.66759359  0.33465234  1.00160454  1
  Ni  Ni22  1  0.83504016  0.49875891  0.16966600  1
  Fe  Fe23  1  0.66934775  0.33605871  0.33295339  1
  Ni  Ni24  1  0.66615041  0.66810749  0.00224370  1
  Cr  Cr25  1  0.83350661  0.83469324  0.16930946  1
  Ni  Ni26  1  0.66943643  0.66946187  0.33615128  1
  Cr  Cr27  1  0.16913502  0.17007242  0.50066458  1
  Ni  Ni28  1  1.00082372  1.00080713  0.67062363  1
  Fe  Fe29  1  0.16779810  0.16827549  0.83485639  1
  Ni  Ni30  1  0.16671283  0.50150386  0.50250316  1
  Ni  Ni31  1  0.00334094  0.33620857  0.66980434  1
  Fe  Fe32  1  0.16904383  0.50136715  0.83405107  1
  Cr  Cr33  1  0.16779412  0.83413658  0.50224220  1
  Ni  Ni34  1  1.00020191  0.66855767  0.66853886  1
  Ni  Ni35  1  0.16757327  0.83576349  0.83434926  1
  Cr  Cr36  1  0.50139165  0.16781355  0.50139050  1
  Fe  Fe37  1  0.33456952  1.00170219  0.66955280  1
  Ni  Ni38  1  0.50125579  0.17017547  0.83526001  1
  Fe  Fe39  1  0.50267543  0.50330454  0.50267118  1
  Ni  Ni40  1  0.33492852  0.33630797  0.66944794  1
  Fe  Fe41  1  0.50225103  0.50101337  0.83567376  1
  Ni  Ni42  1  0.50369503  0.83487587  0.50200456  1
  Fe  Fe43  1  0.33394696  0.66707698  0.66860347  1
  Cr  Cr44  1  0.50121553  0.83592778  0.83655532  1
  Cr  Cr45  1  0.83505262  0.16954737  0.50155092  1
  Fe  Fe46  1  0.66992069  1.00080930  0.66907927  1
  Fe  Fe47  1  0.83557082  0.16775085  0.83600574  1
  Ni  Ni48  1  0.83631138  0.50398687  0.50126055  1
  Fe  Fe49  1  0.66959125  0.33711131  0.67057764  1
  Ni  Ni50  1  0.83541445  0.50096831  0.83464987  1
  Ni  Ni51  1  0.83368578  0.83205676  0.50153770  1
  Ni  Ni52  1  0.66941691  0.66886966  0.66718197  1
  Ni  Ni53  1  0.83709510  0.83473674  0.83453303  1
" 