5055,Ni57Fe27Cr15_19,-235.363439417024, 199.608478773728,Ni57Fe27Cr15,"# generated using pymatgen
 data_Cr9Fe14Ni31
_symmetry_space_group_name_H-M   'P 1'
_cell_length_a   7.43585885
_cell_length_b   7.43585885
_cell_length_c   10.51589243
_cell_angle_alpha   90.00000000
_cell_angle_beta   90.00000000
_cell_angle_gamma   90.00000000
_symmetry_Int_Tables_number   1
_chemical_formula_structural   Cr9Fe14Ni31
_chemical_formula_sum   'Cr9 Fe14 Ni31'
_cell_volume   581.44469052
_cell_formula_units_Z   1
loop_
 _symmetry_equiv_pos_site_id
 _symmetry_equiv_pos_as_xyz
  1  'x, y, z'
loop_
 _atom_site_type_symbol
 _atom_site_label
 _atom_site_symmetry_multiplicity
 _atom_site_fract_x
 _atom_site_fract_y
 _atom_site_fract_z
 _atom_site_occupancy
  Ni  Ni0  1  1.00067713  1.00128165  1.00187185  1
  Fe  Fe1  1  0.17008033  0.16920998  0.16749581  1
  Cr  Cr2  1  1.00158240  0.00334535  0.33443361  1
  Ni  Ni3  1  1.00011753  0.33432536  0.00383096  1
  Ni  Ni4  1  0.16644892  0.49999870  0.16953599  1
  Fe  Fe5  1  0.00500670  0.33579315  0.33532565  1
  Ni  Ni6  1  1.00145176  0.67053754  0.00413838  1
  Ni  Ni7  1  0.16756578  0.83646015  0.16716530  1
  Fe  Fe8  1  0.00223434  0.66692220  0.33273636  1
  Fe  Fe9  1  0.33493384  0.00464161  0.00217490  1
  Ni  Ni10  1  0.50056179  0.16770547  0.16880458  1
  Ni  Ni11  1  0.33676159  1.00205491  0.33436645  1
  Ni  Ni12  1  0.33751888  0.33510670  0.00462621  1
  Ni  Ni13  1  0.50336241  0.49998810  0.16682769  1
  Fe  Fe14  1  0.33406412  0.33377564  0.33511991  1
  Cr  Cr15  1  0.33559846  0.66921092  0.00269714  1
  Ni  Ni16  1  0.50412970  0.83867587  0.16842002  1
  Cr  Cr17  1  0.33613333  0.66769647  0.33472180  1
  Ni  Ni18  1  0.67027617  0.00344940  0.00366290  1
  Fe  Fe19  1  0.83453074  0.16881115  0.16711443  1
  Fe  Fe20  1  0.66567357  1.00113500  0.33456867  1
  Ni  Ni21  1  0.66867610  0.33455275  1.00174675  1
  Ni  Ni22  1  0.83673344  0.50355994  0.16783501  1
  Cr  Cr23  1  0.66824814  0.33481064  0.33488343  1
  Fe  Fe24  1  0.67163497  0.66816010  0.00291683  1
  Ni  Ni25  1  0.83462193  0.83391628  0.16849694  1
  Fe  Fe26  1  0.66736477  0.67039448  0.33338940  1
  Ni  Ni27  1  0.17126052  0.17229989  0.50224327  1
  Cr  Cr28  1  1.00144042  0.00384266  0.67115273  1
  Ni  Ni29  1  0.17197134  0.16836490  0.83670632  1
  Ni  Ni30  1  0.16963889  0.49830630  0.50288802  1
  Ni  Ni31  1  1.00101201  0.33542558  0.66743497  1
  Cr  Cr32  1  0.16656536  0.49995655  0.83367781  1
  Cr  Cr33  1  0.17082006  0.83503152  0.50445538  1
  Ni  Ni34  1  0.00374325  0.66765244  0.66932057  1
  Ni  Ni35  1  0.16781663  0.83741665  0.83526517  1
  Fe  Fe36  1  0.50092469  0.16803704  0.50330862  1
  Ni  Ni37  1  0.33783045  1.00150893  0.66945889  1
  Ni  Ni38  1  0.50141852  0.16847075  0.83463945  1
  Ni  Ni39  1  0.50067677  0.50175566  0.50445541  1
  Ni  Ni40  1  0.33725944  0.33618110  0.66600805  1
  Fe  Fe41  1  0.50335721  0.50024326  0.83456137  1
  Ni  Ni42  1  0.50302911  0.83716943  0.50304262  1
  Ni  Ni43  1  0.33657900  0.66857512  0.66783099  1
  Fe  Fe44  1  0.50278792  0.83738898  0.83410141  1
  Ni  Ni45  1  0.83449966  0.16977580  0.50363864  1
  Ni  Ni46  1  0.66703230  0.00403635  0.66723005  1
  Fe  Fe47  1  0.83506612  0.16954250  0.83597860  1
  Cr  Cr48  1  0.83693290  0.50230649  0.50347190  1
  Ni  Ni49  1  0.66815536  0.33428522  0.66995891  1
  Ni  Ni50  1  0.83429376  0.50311766  0.83536247  1
  Cr  Cr51  1  0.83175120  0.83507142  0.50174835  1
  Fe  Fe52  1  0.66684207  0.66846577  0.67033948  1
  Ni  Ni53  1  0.83455429  0.83350059  0.83606160  1
" 