4533,Ni57Fe36Cr6_16,-238.453738812621, 215.414624680883,Ni57Fe36Cr6,"# generated using pymatgen
 data_Cr5Fe19Ni30
_symmetry_space_group_name_H-M   'P 1'
_cell_length_a   7.41898556
_cell_length_b   7.41898556
_cell_length_c   10.49203000
_cell_angle_alpha   90.00000000
_cell_angle_beta   90.00000000
_cell_angle_gamma   90.00000000
_symmetry_Int_Tables_number   1
_chemical_formula_structural   Cr5Fe19Ni30
_chemical_formula_sum   'Cr5 Fe19 Ni30'
_cell_volume   577.49546223
_cell_formula_units_Z   1
loop_
 _symmetry_equiv_pos_site_id
 _symmetry_equiv_pos_as_xyz
  1  'x, y, z'
loop_
 _atom_site_type_symbol
 _atom_site_label
 _atom_site_symmetry_multiplicity
 _atom_site_fract_x
 _atom_site_fract_y
 _atom_site_fract_z
 _atom_site_occupancy
  Fe  Fe0  1  1.00174283  0.00324623  0.00413083  1
  Fe  Fe1  1  0.16821703  0.17100575  0.16975197  1
  Fe  Fe2  1  0.00324533  0.00375996  0.33628436  1
  Ni  Ni3  1  0.00406607  0.33716992  1.00187336  1
  Fe  Fe4  1  0.16868566  0.50282710  0.17017318  1
  Ni  Ni5  1  0.00428530  0.33718330  0.33804532  1
  Ni  Ni6  1  1.00290402  0.66883879  0.00559182  1
  Ni  Ni7  1  0.16924850  0.83537748  0.16972851  1
  Ni  Ni8  1  0.00411468  0.66970914  0.33619009  1
  Fe  Fe9  1  0.33792243  1.00263432  0.00534996  1
  Ni  Ni10  1  0.50376816  0.17098448  0.17131994  1
  Fe  Fe11  1  0.33615390  1.00274695  0.33644794  1
  Ni  Ni12  1  0.33517574  0.33719236  0.00466201  1
  Ni  Ni13  1  0.50238802  0.50182901  0.16876975  1
  Ni  Ni14  1  0.33517483  0.33592905  0.33535978  1
  Ni  Ni15  1  0.33645700  0.66890129  0.00393494  1
  Fe  Fe16  1  0.50535161  0.83614567  0.16999738  1
  Ni  Ni17  1  0.33457663  0.66988088  0.33604587  1
  Ni  Ni18  1  0.67053297  1.00224503  1.00322995  1
  Ni  Ni19  1  0.83598525  0.17002284  0.16891171  1
  Ni  Ni20  1  0.66989650  0.00347159  0.33746472  1
  Ni  Ni21  1  0.67033870  0.33583267  0.00544525  1
  Ni  Ni22  1  0.83694996  0.50268475  0.17037216  1
  Fe  Fe23  1  0.67076157  0.33558185  0.33504533  1
  Ni  Ni24  1  0.67057890  0.67202301  0.00416365  1
  Ni  Ni25  1  0.83940809  0.83705629  0.17025523  1
  Fe  Fe26  1  0.66967526  0.67027453  0.33510604  1
  Fe  Fe27  1  0.17129928  0.17114505  0.50320957  1
  Ni  Ni28  1  1.00236417  0.00400969  0.66831958  1
  Fe  Fe29  1  0.16888736  0.16971001  0.83589557  1
  Ni  Ni30  1  0.16903131  0.50341273  0.50255575  1
  Fe  Fe31  1  0.00440460  0.33392997  0.66946434  1
  Ni  Ni32  1  0.17027805  0.50134432  0.83731474  1
  Fe  Fe33  1  0.17125917  0.83801641  0.50132181  1
  Cr  Cr34  1  1.00153467  0.66879657  0.66798653  1
  Cr  Cr35  1  0.17015284  0.83575637  0.83686313  1
  Ni  Ni36  1  0.50446123  0.16815056  0.50167838  1
  Ni  Ni37  1  0.33736066  0.00498399  0.66708173  1
  Cr  Cr38  1  0.50393632  0.16896488  0.83687335  1
  Cr  Cr39  1  0.50065714  0.50322406  0.50321198  1
  Ni  Ni40  1  0.33328250  0.33588221  0.67010029  1
  Fe  Fe41  1  0.50203932  0.50644057  0.83856451  1
  Ni  Ni42  1  0.50303035  0.83828507  0.50386901  1
  Fe  Fe43  1  0.33825238  0.67106796  0.67012886  1
  Ni  Ni44  1  0.50492066  0.83651765  0.83631611  1
  Ni  Ni45  1  0.83734811  0.16834501  0.50315397  1
  Ni  Ni46  1  0.67060785  1.00084018  0.66932091  1
  Fe  Fe47  1  0.83951078  0.16743027  0.83764364  1
  Fe  Fe48  1  0.83595742  0.50279490  0.50015996  1
  Cr  Cr49  1  0.67029547  0.33662022  0.67023623  1
  Fe  Fe50  1  0.83583317  0.50540051  0.84012828  1
  Fe  Fe51  1  0.83442789  0.83753504  0.50187660  1
  Ni  Ni52  1  0.67043774  0.67362069  0.67089851  1
  Ni  Ni53  1  0.83573739  0.83813361  0.83708838  1
" 