8274,Ni57Fe43_14,-239.348700815529, 218.801728490389,Ni57Fe43,"# generated using pymatgen
 data_Fe31Ni23
_symmetry_space_group_name_H-M   'P 1'
_cell_length_a   7.39593093
_cell_length_b   7.39593093
_cell_length_c   10.45942582
_cell_angle_alpha   90.00000000
_cell_angle_beta   90.00000000
_cell_angle_gamma   90.00000000
_symmetry_Int_Tables_number   1
_chemical_formula_structural   Fe31Ni23
_chemical_formula_sum   'Fe31 Ni23'
_cell_volume   572.12844090
_cell_formula_units_Z   1
loop_
 _symmetry_equiv_pos_site_id
 _symmetry_equiv_pos_as_xyz
  1  'x, y, z'
loop_
 _atom_site_type_symbol
 _atom_site_label
 _atom_site_symmetry_multiplicity
 _atom_site_fract_x
 _atom_site_fract_y
 _atom_site_fract_z
 _atom_site_occupancy
  Fe  Fe0  1  0.00529737  0.00502777  0.00488074  1
  Fe  Fe1  1  0.17147791  0.17155166  0.17154935  1
  Ni  Ni2  1  0.00506347  1.00436295  0.33795407  1
  Fe  Fe3  1  0.00515846  0.33820615  0.00532140  1
  Fe  Fe4  1  0.17105680  0.50521058  0.17147020  1
  Ni  Ni5  1  1.00435721  0.33825769  0.33761189  1
  Ni  Ni6  1  1.00452129  0.67228594  1.00480410  1
  Fe  Fe7  1  0.17099506  0.83766144  0.17162803  1
  Ni  Ni8  1  1.00470993  0.67180112  0.33904669  1
  Ni  Ni9  1  0.33885163  0.00513930  0.00495802  1
  Fe  Fe10  1  0.50508192  0.17166863  0.17079186  1
  Fe  Fe11  1  0.33690768  1.00460608  0.33779166  1
  Ni  Ni12  1  0.34001202  0.33662408  1.00444852  1
  Fe  Fe13  1  0.50522161  0.50481270  0.17107075  1
  Fe  Fe14  1  0.33711149  0.33798693  0.33798862  1
  Fe  Fe15  1  0.33861281  0.67140831  1.00407919  1
  Ni  Ni16  1  0.50388780  0.83887121  0.17138416  1
  Fe  Fe17  1  0.33698700  0.67183360  0.33882412  1
  Fe  Fe18  1  0.67057974  0.00488029  1.00455183  1
  Fe  Fe19  1  0.83786664  0.17160982  0.17183331  1
  Fe  Fe20  1  0.67242332  1.00480695  0.33798527  1
  Ni  Ni21  1  0.67025881  0.33778871  0.00500171  1
  Ni  Ni22  1  0.83895208  0.50408581  0.17118573  1
  Fe  Fe23  1  0.67291853  0.33847331  0.33854196  1
  Fe  Fe24  1  0.67072977  0.67126882  1.00444311  1
  Fe  Fe25  1  0.83826430  0.83751707  0.17128071  1
  Fe  Fe26  1  0.67283988  0.67113998  0.33837614  1
  Fe  Fe27  1  0.17126906  0.17222345  0.50429090  1
  Fe  Fe28  1  1.00454116  1.00371747  0.67120225  1
  Fe  Fe29  1  0.17256280  0.17071603  0.83858098  1
  Fe  Fe30  1  0.17141848  0.50487267  0.50485796  1
  Ni  Ni31  1  1.00383589  0.33838281  0.67177315  1
  Fe  Fe32  1  0.17215196  0.50590203  0.83809711  1
  Ni  Ni33  1  0.17047127  0.83859901  0.50426206  1
  Ni  Ni34  1  0.00501090  0.67157705  0.67057662  1
  Ni  Ni35  1  0.17066172  0.83840134  0.83914283  1
  Ni  Ni36  1  0.50463353  0.17252814  0.50435763  1
  Fe  Fe37  1  0.33826187  1.00420670  0.67207207  1
  Ni  Ni38  1  0.50454565  0.17240076  0.83875797  1
  Ni  Ni39  1  0.50617604  0.50330044  0.50408871  1
  Fe  Fe40  1  0.33903931  0.33950591  0.67187152  1
  Ni  Ni41  1  0.50527056  0.50362561  0.83877956  1
  Fe  Fe42  1  0.50478979  0.83733562  0.50489954  1
  Ni  Ni43  1  0.33848795  0.67275048  0.67202024  1
  Ni  Ni44  1  0.50418382  0.83839724  0.83740718  1
  Fe  Fe45  1  0.83814198  0.17228882  0.50464863  1
  Fe  Fe46  1  0.67161467  1.00441711  0.67188326  1
  Fe  Fe47  1  0.83704636  0.17104931  0.83794024  1
  Ni  Ni48  1  0.83814733  0.50446832  0.50511672  1
  Ni  Ni49  1  0.67137355  0.33801736  0.67111293  1
  Fe  Fe50  1  0.83733493  0.50569057  0.83781425  1
  Fe  Fe51  1  0.83800253  0.83747839  0.50512681  1
  Ni  Ni52  1  0.67092610  0.67121166  0.67166152  1
  Ni  Ni53  1  0.83957881  0.83767136  0.83847674  1
" 