6553,Ni57Fe34Cr8_3,-238.33351478576, 209.57035010185,Ni57Fe34Cr8,"# generated using pymatgen
 data_Cr5Fe18Ni31
_symmetry_space_group_name_H-M   'P 1'
_cell_length_a   7.42001106
_cell_length_b   7.42001106
_cell_length_c   10.49348027
_cell_angle_alpha   90.00000000
_cell_angle_beta   90.00000000
_cell_angle_gamma   90.00000000
_symmetry_Int_Tables_number   1
_chemical_formula_structural   Cr5Fe18Ni31
_chemical_formula_sum   'Cr5 Fe18 Ni31'
_cell_volume   577.73496859
_cell_formula_units_Z   1
loop_
 _symmetry_equiv_pos_site_id
 _symmetry_equiv_pos_as_xyz
  1  'x, y, z'
loop_
 _atom_site_type_symbol
 _atom_site_label
 _atom_site_symmetry_multiplicity
 _atom_site_fract_x
 _atom_site_fract_y
 _atom_site_fract_z
 _atom_site_occupancy
  Fe  Fe0  1  1.00301801  1.00245695  0.00375755  1
  Ni  Ni1  1  0.17046706  0.16973018  0.16931941  1
  Ni  Ni2  1  1.00232845  1.00088771  0.33567855  1
  Fe  Fe3  1  0.00357230  0.33591745  0.00356915  1
  Ni  Ni4  1  0.17124027  0.50318987  0.16979073  1
  Cr  Cr5  1  0.00323397  0.33676670  0.33673547  1
  Ni  Ni6  1  0.00434426  0.66963987  0.00441457  1
  Fe  Fe7  1  0.16972358  0.83708634  0.16922428  1
  Fe  Fe8  1  1.00250965  0.67071579  0.33538463  1
  Ni  Ni9  1  0.33683583  1.00223909  1.00247886  1
  Ni  Ni10  1  0.50271165  0.17135691  0.17012424  1
  Fe  Fe11  1  0.33546597  0.00625811  0.33666642  1
  Fe  Fe12  1  0.33687973  0.33650635  0.00405843  1
  Ni  Ni13  1  0.50274015  0.50209109  0.16982899  1
  Ni  Ni14  1  0.33731126  0.33831207  0.33581413  1
  Ni  Ni15  1  0.33368514  0.66968963  1.00233344  1
  Cr  Cr16  1  0.50486732  0.83668761  0.17057590  1
  Fe  Fe17  1  0.33572654  0.66885398  0.33691044  1
  Ni  Ni18  1  0.67056676  0.00529535  1.00186696  1
  Ni  Ni19  1  0.83629997  0.16790733  0.17013265  1
  Ni  Ni20  1  0.67142907  0.00394055  0.33755013  1
  Ni  Ni21  1  0.67070157  0.33504446  0.00388506  1
  Fe  Fe22  1  0.83514589  0.50225922  0.16869292  1
  Ni  Ni23  1  0.66863163  0.33563627  0.33641426  1
  Fe  Fe24  1  0.66970576  0.67048882  1.00247704  1
  Ni  Ni25  1  0.83769837  0.83633746  0.16941832  1
  Fe  Fe26  1  0.67158336  0.66900052  0.33701879  1
  Ni  Ni27  1  0.17076946  0.16807031  0.50325146  1
  Fe  Fe28  1  0.00526590  1.00258619  0.66936144  1
  Ni  Ni29  1  0.16935234  0.16820669  0.83719066  1
  Fe  Fe30  1  0.17032004  0.50487704  0.50239209  1
  Fe  Fe31  1  0.00407522  0.33632222  0.66966746  1
  Fe  Fe32  1  0.16872522  0.50443780  0.83829731  1
  Ni  Ni33  1  0.16858162  0.83761664  0.50149158  1
  Fe  Fe34  1  1.00312882  0.67060192  0.67047992  1
  Ni  Ni35  1  0.16939585  0.83790451  0.83720211  1
  Ni  Ni36  1  0.50045184  0.17050310  0.49991537  1
  Ni  Ni37  1  0.33573801  1.00084308  0.66945108  1
  Ni  Ni38  1  0.50137265  0.16956645  0.83967912  1
  Ni  Ni39  1  0.50386099  0.50397258  0.50134939  1
  Cr  Cr40  1  0.33679511  0.33727956  0.67144906  1
  Ni  Ni41  1  0.50380358  0.50493971  0.83861340  1
  Fe  Fe42  1  0.50209954  0.83608311  0.50279354  1
  Ni  Ni43  1  0.33384454  0.67114619  0.66977722  1
  Ni  Ni44  1  0.50203324  0.83494842  0.83583819  1
  Fe  Fe45  1  0.83714939  0.16862969  0.50171923  1
  Cr  Cr46  1  0.66929515  0.00327025  0.67045648  1
  Ni  Ni47  1  0.83952500  0.17011822  0.83694142  1
  Ni  Ni48  1  0.83556997  0.50576620  0.50293281  1
  Cr  Cr49  1  0.67102238  0.33566844  0.66895114  1
  Ni  Ni50  1  0.83649913  0.50399019  0.83768096  1
  Ni  Ni51  1  0.83812358  0.83458871  0.50304344  1
  Fe  Fe52  1  0.66804079  0.66962393  0.66986391  1
  Ni  Ni53  1  0.83789415  0.83530020  0.83724593  1
" 