5858,Ni57Fe36Cr6_6,-238.668301102559, 215.138132782822,Ni57Fe36Cr6,"# generated using pymatgen
 data_Cr5Fe19Ni30
_symmetry_space_group_name_H-M   'P 1'
_cell_length_a   7.42076022
_cell_length_b   7.42076022
_cell_length_c   10.49453974
_cell_angle_alpha   90.00000000
_cell_angle_beta   90.00000000
_cell_angle_gamma   90.00000000
_symmetry_Int_Tables_number   1
_chemical_formula_structural   Cr5Fe19Ni30
_chemical_formula_sum   'Cr5 Fe19 Ni30'
_cell_volume   577.90997932
_cell_formula_units_Z   1
loop_
 _symmetry_equiv_pos_site_id
 _symmetry_equiv_pos_as_xyz
  1  'x, y, z'
loop_
 _atom_site_type_symbol
 _atom_site_label
 _atom_site_symmetry_multiplicity
 _atom_site_fract_x
 _atom_site_fract_y
 _atom_site_fract_z
 _atom_site_occupancy
  Ni  Ni0  1  1.00282640  0.00450361  1.00254461  1
  Ni  Ni1  1  0.16931928  0.16993495  0.16810069  1
  Ni  Ni2  1  1.00295639  0.00390954  0.33569124  1
  Ni  Ni3  1  1.00214350  0.33505994  0.00413578  1
  Ni  Ni4  1  0.16922919  0.50208045  0.16925676  1
  Ni  Ni5  1  1.00043681  0.33665848  0.33506230  1
  Cr  Cr6  1  0.00372715  0.66995926  1.00263393  1
  Fe  Fe7  1  0.17137146  0.83810396  0.17061531  1
  Fe  Fe8  1  0.00497452  0.66882639  0.33555877  1
  Ni  Ni9  1  0.33647660  1.00260573  1.00292310  1
  Ni  Ni10  1  0.50300441  0.16795455  0.16818898  1
  Ni  Ni11  1  0.33733580  1.00080340  0.33706635  1
  Ni  Ni12  1  0.33716217  0.33667377  1.00305184  1
  Ni  Ni13  1  0.50372336  0.50474591  0.16799999  1
  Cr  Cr14  1  0.33727822  0.33649651  0.33543264  1
  Ni  Ni15  1  0.33797921  0.67030978  0.00407403  1
  Ni  Ni16  1  0.50411738  0.83687190  0.16943546  1
  Fe  Fe17  1  0.33528556  0.67098001  0.33583268  1
  Fe  Fe18  1  0.66957708  0.00433723  1.00233046  1
  Ni  Ni19  1  0.83708663  0.16978371  0.16893243  1
  Fe  Fe20  1  0.66893311  0.00583846  0.33621355  1
  Ni  Ni21  1  0.66984653  0.33620168  0.00325536  1
  Ni  Ni22  1  0.83643441  0.50284840  0.16980792  1
  Fe  Fe23  1  0.67106526  0.33474214  0.33497455  1
  Fe  Fe24  1  0.66887919  0.66959159  1.00278933  1
  Fe  Fe25  1  0.83569240  0.83768262  0.16990308  1
  Fe  Fe26  1  0.66901799  0.66877131  0.33583346  1
  Cr  Cr27  1  0.16928076  0.16983144  0.50435393  1
  Fe  Fe28  1  1.00190857  1.00252669  0.67153327  1
  Ni  Ni29  1  0.17028171  0.17196308  0.83710433  1
  Ni  Ni30  1  0.16708998  0.50391546  0.50297788  1
  Ni  Ni31  1  1.00201755  0.33664365  0.67033284  1
  Ni  Ni32  1  0.16893179  0.50055779  0.83711299  1
  Ni  Ni33  1  0.17049890  0.83519668  0.50329975  1
  Fe  Fe34  1  1.00145157  0.66872659  0.67118321  1
  Fe  Fe35  1  0.17110692  0.83874561  0.83670115  1
  Ni  Ni36  1  0.50500852  0.16811369  0.50417024  1
  Fe  Fe37  1  0.33854749  0.00383346  0.67068885  1
  Ni  Ni38  1  0.50219843  0.16858705  0.83692493  1
  Fe  Fe39  1  0.50521348  0.50333812  0.50251564  1
  Fe  Fe40  1  0.33782577  0.33611536  0.67107474  1
  Fe  Fe41  1  0.50301107  0.50279064  0.83840471  1
  Ni  Ni42  1  0.50324567  0.83764687  0.50251028  1
  Cr  Cr43  1  0.33722770  0.67033209  0.66918849  1
  Ni  Ni44  1  0.50561483  0.83741659  0.83761308  1
  Ni  Ni45  1  0.83500126  0.17164236  0.50367483  1
  Ni  Ni46  1  0.66927580  0.00317253  0.66977284  1
  Fe  Fe47  1  0.83653124  0.16924708  0.83657674  1
  Ni  Ni48  1  0.83732327  0.50232583  0.50359877  1
  Fe  Fe49  1  0.66944268  0.33619488  0.67014984  1
  Fe  Fe50  1  0.83517126  0.50128696  0.83592659  1
  Cr  Cr51  1  0.83599654  0.83606138  0.50241970  1
  Ni  Ni52  1  0.66919093  0.66997400  0.67075569  1
  Ni  Ni53  1  0.83414026  0.83595281  0.83620407  1
" 