2784,Ni57Fe34Cr8_2,-238.212443943556, 215.983010845178,Ni57Fe34Cr8,"# generated using pymatgen
 data_Cr5Fe18Ni31
_symmetry_space_group_name_H-M   'P 1'
_cell_length_a   7.41693513
_cell_length_b   7.41693513
_cell_length_c   10.48913025
_cell_angle_alpha   90.00000000
_cell_angle_beta   90.00000000
_cell_angle_gamma   90.00000000
_symmetry_Int_Tables_number   1
_chemical_formula_structural   Cr5Fe18Ni31
_chemical_formula_sum   'Cr5 Fe18 Ni31'
_cell_volume   577.01677539
_cell_formula_units_Z   1
loop_
 _symmetry_equiv_pos_site_id
 _symmetry_equiv_pos_as_xyz
  1  'x, y, z'
loop_
 _atom_site_type_symbol
 _atom_site_label
 _atom_site_symmetry_multiplicity
 _atom_site_fract_x
 _atom_site_fract_y
 _atom_site_fract_z
 _atom_site_occupancy
  Fe  Fe0  1  0.00349454  1.00213231  0.00377055  1
  Ni  Ni1  1  0.17094083  0.16842410  0.17098215  1
  Ni  Ni2  1  1.00296415  0.00401016  0.33627888  1
  Cr  Cr3  1  0.00395136  0.33679626  1.00232345  1
  Ni  Ni4  1  0.17094581  0.50393213  0.17095190  1
  Fe  Fe5  1  0.00429198  0.33554260  0.33533100  1
  Fe  Fe6  1  1.00286079  0.67180263  1.00331391  1
  Ni  Ni7  1  0.16962644  0.83778223  0.16967762  1
  Fe  Fe8  1  0.00443611  0.67207921  0.33602488  1
  Ni  Ni9  1  0.33642193  1.00328250  0.00393250  1
  Fe  Fe10  1  0.50322526  0.16983702  0.17003103  1
  Ni  Ni11  1  0.33540130  0.00411370  0.33648479  1
  Ni  Ni12  1  0.33649235  0.33747479  0.00439155  1
  Ni  Ni13  1  0.50414696  0.50322058  0.17003501  1
  Fe  Fe14  1  0.33706705  0.33651202  0.33707792  1
  Fe  Fe15  1  0.33772585  0.67009275  0.00356698  1
  Fe  Fe16  1  0.50364351  0.83652454  0.16991653  1
  Ni  Ni17  1  0.33614470  0.66828167  0.33557043  1
  Ni  Ni18  1  0.67072278  1.00171854  0.00439408  1
  Ni  Ni19  1  0.83613782  0.16890854  0.17031429  1
  Ni  Ni20  1  0.67177144  0.00406155  0.33616811  1
  Fe  Fe21  1  0.66872192  0.33771596  0.00410747  1
  Ni  Ni22  1  0.83504180  0.50453770  0.17048816  1
  Fe  Fe23  1  0.66877393  0.33585113  0.33609507  1
  Ni  Ni24  1  0.67010732  0.67045031  1.00237819  1
  Ni  Ni25  1  0.83684659  0.83668935  0.17059577  1
  Ni  Ni26  1  0.66970076  0.66966409  0.33613201  1
  Ni  Ni27  1  0.17076238  0.16945560  0.50368206  1
  Ni  Ni28  1  1.00233048  1.00301843  0.67045315  1
  Ni  Ni29  1  0.16983803  0.16908921  0.83546640  1
  Ni  Ni30  1  0.17115858  0.50285106  0.50390079  1
  Fe  Fe31  1  0.00622606  0.33599265  0.67099705  1
  Fe  Fe32  1  0.17124129  0.50425107  0.83544883  1
  Ni  Ni33  1  0.16871087  0.83782664  0.50382492  1
  Ni  Ni34  1  0.00505607  0.67122716  0.67049169  1
  Fe  Fe35  1  0.17016277  0.83639092  0.83618563  1
  Ni  Ni36  1  0.50178854  0.17026215  0.50251034  1
  Fe  Fe37  1  0.33474877  0.00338416  0.66989397  1
  Cr  Cr38  1  0.50109206  0.16912555  0.83777808  1
  Ni  Ni39  1  0.50173920  0.50238942  0.50341297  1
  Ni  Ni40  1  0.33464639  0.33896734  0.66865299  1
  Ni  Ni41  1  0.50385094  0.50577756  0.83668886  1
  Cr  Cr42  1  0.50340482  0.83707599  0.50417429  1
  Ni  Ni43  1  0.33529549  0.66762402  0.67124983  1
  Ni  Ni44  1  0.50446120  0.83523378  0.83661156  1
  Fe  Fe45  1  0.83752951  0.16739233  0.50227515  1
  Ni  Ni46  1  0.67286704  1.00236958  0.66957352  1
  Fe  Fe47  1  0.83739259  0.16799706  0.83680540  1
  Cr  Cr48  1  0.83702659  0.50526053  0.50216915  1
  Cr  Cr49  1  0.66883024  0.33620739  0.67087694  1
  Ni  Ni50  1  0.83610438  0.50608221  0.83722199  1
  Fe  Fe51  1  0.83848956  0.83863029  0.50351363  1
  Fe  Fe52  1  0.66992864  0.67153156  0.67230271  1
  Ni  Ni53  1  0.83613757  0.83557329  0.83592923  1
" 