6211,Ni57Fe27Cr15_8,-235.645882704253, 198.659010570411,Ni57Fe27Cr15,"# generated using pymatgen
 data_Cr9Fe14Ni31
_symmetry_space_group_name_H-M   'P 1'
_cell_length_a   7.44266187
_cell_length_b   7.44266187
_cell_length_c   10.52551335
_cell_angle_alpha   90.00000000
_cell_angle_beta   90.00000000
_cell_angle_gamma   90.00000000
_symmetry_Int_Tables_number   1
_chemical_formula_structural   Cr9Fe14Ni31
_chemical_formula_sum   'Cr9 Fe14 Ni31'
_cell_volume   583.04203069
_cell_formula_units_Z   1
loop_
 _symmetry_equiv_pos_site_id
 _symmetry_equiv_pos_as_xyz
  1  'x, y, z'
loop_
 _atom_site_type_symbol
 _atom_site_label
 _atom_site_symmetry_multiplicity
 _atom_site_fract_x
 _atom_site_fract_y
 _atom_site_fract_z
 _atom_site_occupancy
  Fe  Fe0  1  1.00091227  0.00204781  0.00226024  1
  Ni  Ni1  1  0.16909549  0.16962474  0.16841306  1
  Fe  Fe2  1  1.00025036  0.00422298  0.33404025  1
  Fe  Fe3  1  0.00247497  0.33572472  0.00245573  1
  Fe  Fe4  1  0.16815424  0.50001295  0.16727219  1
  Ni  Ni5  1  0.00263347  0.33521745  0.33349588  1
  Ni  Ni6  1  0.99930416  0.66623620  0.00188864  1
  Cr  Cr7  1  0.16866579  0.83560341  0.16874263  1
  Ni  Ni8  1  0.00273832  0.66603730  0.33308633  1
  Ni  Ni9  1  0.33571440  0.00399808  0.00354955  1
  Ni  Ni10  1  0.50042539  0.16917081  0.16874244  1
  Ni  Ni11  1  0.33710823  0.00240004  0.33523304  1
  Ni  Ni12  1  0.33400017  0.33479890  0.00240178  1
  Ni  Ni13  1  0.50307915  0.50155739  0.16868287  1
  Fe  Fe14  1  0.33603026  0.33416315  0.33425174  1
  Ni  Ni15  1  0.33557068  0.66594777  0.00276890  1
  Ni  Ni16  1  0.50257105  0.83424451  0.16782597  1
  Fe  Fe17  1  0.33792143  0.66800070  0.33518291  1
  Fe  Fe18  1  0.66884906  1.00027283  0.00425834  1
  Ni  Ni19  1  0.83549359  0.16967922  0.16871919  1
  Ni  Ni20  1  0.66524332  0.00274500  0.33329015  1
  Fe  Fe21  1  0.66695695  0.33770861  0.00368461  1
  Ni  Ni22  1  0.83431332  0.50201885  0.16882091  1
  Ni  Ni23  1  0.66876108  0.33274534  0.33373022  1
  Ni  Ni24  1  0.67010994  0.66787491  1.00163089  1
  Ni  Ni25  1  0.83395040  0.83334127  0.16893168  1
  Ni  Ni26  1  0.66789683  0.66921076  0.33367771  1
  Ni  Ni27  1  0.16986838  0.16841197  0.50115804  1
  Fe  Fe28  1  0.00243604  0.00377421  0.66825049  1
  Ni  Ni29  1  0.16843039  0.16950702  0.83540012  1
  Fe  Fe30  1  0.17094512  0.50035089  0.50030055  1
  Cr  Cr31  1  0.00302421  0.33506286  0.67045906  1
  Ni  Ni32  1  0.17018882  0.49985818  0.83704109  1
  Fe  Fe33  1  0.17024012  0.83687047  0.50006341  1
  Cr  Cr34  1  0.00266518  0.66752550  0.66963539  1
  Cr  Cr35  1  0.16941150  0.83725999  0.83550678  1
  Ni  Ni36  1  0.49997533  0.16729519  0.50048329  1
  Ni  Ni37  1  0.33605785  0.00245335  0.66647650  1
  Cr  Cr38  1  0.49786820  0.16927489  0.83636842  1
  Fe  Fe39  1  0.49999413  0.50058905  0.50028234  1
  Ni  Ni40  1  0.33407148  0.33516950  0.66730853  1
  Ni  Ni41  1  0.50060587  0.50164163  0.83421416  1
  Ni  Ni42  1  0.50032586  0.83511700  0.50197062  1
  Ni  Ni43  1  0.33478551  0.66738396  0.66672767  1
  Cr  Cr44  1  0.50194595  0.83397169  0.83604479  1
  Ni  Ni45  1  0.83562885  0.16772683  0.50031876  1
  Ni  Ni46  1  0.66805976  1.00160943  0.66783928  1
  Fe  Fe47  1  0.83546764  0.16679446  0.83680979  1
  Cr  Cr48  1  0.83337325  0.50087514  0.49861768  1
  Cr  Cr49  1  0.66770854  0.33323962  0.66826035  1
  Ni  Ni50  1  0.83378365  0.50305180  0.83753382  1
  Cr  Cr51  1  0.83346962  0.83571350  0.50042025  1
  Fe  Fe52  1  0.66519642  0.66861613  0.66884247  1
  Ni  Ni53  1  0.83471301  0.83471504  0.83509353  1
" 