4268,Ni57Fe43_13,-239.36655217967, 218.948540758167,Ni57Fe43,"# generated using pymatgen
 data_Fe31Ni23
_symmetry_space_group_name_H-M   'P 1'
_cell_length_a   7.39624122
_cell_length_b   7.39624122
_cell_length_c   10.45986465
_cell_angle_alpha   90.00000000
_cell_angle_beta   90.00000000
_cell_angle_gamma   90.00000000
_symmetry_Int_Tables_number   1
_chemical_formula_structural   Fe31Ni23
_chemical_formula_sum   'Fe31 Ni23'
_cell_volume   572.20045431
_cell_formula_units_Z   1
loop_
 _symmetry_equiv_pos_site_id
 _symmetry_equiv_pos_as_xyz
  1  'x, y, z'
loop_
 _atom_site_type_symbol
 _atom_site_label
 _atom_site_symmetry_multiplicity
 _atom_site_fract_x
 _atom_site_fract_y
 _atom_site_fract_z
 _atom_site_occupancy
  Fe  Fe0  1  1.00472832  0.00512379  0.00545242  1
  Fe  Fe1  1  0.17142110  0.17179260  0.17212806  1
  Ni  Ni2  1  1.00451481  1.00268227  0.33803891  1
  Fe  Fe3  1  1.00391257  0.33757942  1.00441430  1
  Fe  Fe4  1  0.17126684  0.50459741  0.17166038  1
  Fe  Fe5  1  1.00445519  0.33771434  0.33834488  1
  Fe  Fe6  1  1.00473710  0.67165764  0.00545061  1
  Ni  Ni7  1  0.17138295  0.83829932  0.17268099  1
  Ni  Ni8  1  1.00451314  0.67321895  0.33804600  1
  Fe  Fe9  1  0.33844756  1.00464051  1.00410336  1
  Ni  Ni10  1  0.50485704  0.17284501  0.17178776  1
  Fe  Fe11  1  0.33756449  0.00512488  0.33880867  1
  Ni  Ni12  1  0.33854863  0.33857596  1.00371378  1
  Ni  Ni13  1  0.50485127  0.50391830  0.17163513  1
  Ni  Ni14  1  0.33962619  0.33810598  0.33883665  1
  Fe  Fe15  1  0.33878214  0.67179181  1.00436580  1
  Fe  Fe16  1  0.50600203  0.83840212  0.17110101  1
  Fe  Fe17  1  0.33791610  0.67116959  0.33798719  1
  Ni  Ni18  1  0.67199271  1.00443738  1.00435992  1
  Ni  Ni19  1  0.83803885  0.17204979  0.17224298  1
  Fe  Fe20  1  0.67234793  0.00511865  0.33765038  1
  Fe  Fe21  1  0.67132252  0.33791429  0.00491652  1
  Ni  Ni22  1  0.83733816  0.50400801  0.17208680  1
  Ni  Ni23  1  0.67020673  0.33810230  0.33715566  1
  Fe  Fe24  1  0.67084159  0.67097760  1.00463858  1
  Ni  Ni25  1  0.83962073  0.83829702  0.17099500  1
  Fe  Fe26  1  0.67199546  0.67117603  0.33806178  1
  Ni  Ni27  1  0.17066784  0.17174284  0.50451494  1
  Fe  Fe28  1  1.00467089  0.00568343  0.67071329  1
  Fe  Fe29  1  0.17199238  0.17158472  0.83750101  1
  Fe  Fe30  1  0.17098567  0.50485134  0.50437816  1
  Fe  Fe31  1  1.00436288  0.33717419  0.67160158  1
  Fe  Fe32  1  0.17157402  0.50507430  0.83832085  1
  Fe  Fe33  1  0.17070797  0.83919900  0.50466239  1
  Fe  Fe34  1  1.00465574  0.67150495  0.67127043  1
  Ni  Ni35  1  0.17293154  0.83858309  0.83681175  1
  Fe  Fe36  1  0.50511324  0.17098055  0.50432686  1
  Ni  Ni37  1  0.33776690  1.00443544  0.67195332  1
  Fe  Fe38  1  0.50512694  0.17144842  0.83865810  1
  Fe  Fe39  1  0.50538835  0.50403452  0.50458723  1
  Fe  Fe40  1  0.33838097  0.33778596  0.67137581  1
  Ni  Ni41  1  0.50505405  0.50530954  0.83775433  1
  Ni  Ni42  1  0.50434931  0.83721081  0.50396633  1
  Fe  Fe43  1  0.33914294  0.67194621  0.67200437  1
  Ni  Ni44  1  0.50277454  0.83708827  0.83884469  1
  Ni  Ni45  1  0.83942487  0.17165762  0.50416268  1
  Fe  Fe46  1  0.67116718  0.00491978  0.67172096  1
  Ni  Ni47  1  0.83865493  0.17275054  0.83795140  1
  Fe  Fe48  1  0.83798543  0.50473018  0.50480611  1
  Ni  Ni49  1  0.67128969  0.33838276  0.67249672  1
  Ni  Ni50  1  0.83715790  0.50302273  0.83785893  1
  Ni  Ni51  1  0.83783505  0.83871058  0.50551506  1
  Fe  Fe52  1  0.67055602  0.67164167  0.67166107  1
  Fe  Fe53  1  0.83752955  0.83770453  0.83839701  1
" 