6685,Ni57Fe27Cr15_1,-235.044216466738, 201.194913295406,Ni57Fe27Cr15,"# generated using pymatgen
 data_Cr9Fe14Ni31
_symmetry_space_group_name_H-M   'P 1'
_cell_length_a   7.43375025
_cell_length_b   7.43375025
_cell_length_c   10.51291043
_cell_angle_alpha   90.00000000
_cell_angle_beta   90.00000000
_cell_angle_gamma   90.00000000
_symmetry_Int_Tables_number   1
_chemical_formula_structural   Cr9Fe14Ni31
_chemical_formula_sum   'Cr9 Fe14 Ni31'
_cell_volume   580.95018859
_cell_formula_units_Z   1
loop_
 _symmetry_equiv_pos_site_id
 _symmetry_equiv_pos_as_xyz
  1  'x, y, z'
loop_
 _atom_site_type_symbol
 _atom_site_label
 _atom_site_symmetry_multiplicity
 _atom_site_fract_x
 _atom_site_fract_y
 _atom_site_fract_z
 _atom_site_occupancy
  Ni  Ni0  1  0.00349759  0.00326379  1.00207506  1
  Ni  Ni1  1  0.16804434  0.16926675  0.16943343  1
  Fe  Fe2  1  1.00080688  1.00083807  0.33453226  1
  Ni  Ni3  1  1.00073437  0.33447667  0.00369272  1
  Ni  Ni4  1  0.16858333  0.50179401  0.17078002  1
  Fe  Fe5  1  0.00418860  0.33569049  0.33358176  1
  Ni  Ni6  1  1.00211691  0.66897909  0.00237627  1
  Fe  Fe7  1  0.16970710  0.83586065  0.16823391  1
  Fe  Fe8  1  0.00280871  0.67019647  0.33486643  1
  Fe  Fe9  1  0.33349401  1.00035168  1.00186951  1
  Ni  Ni10  1  0.50097211  0.16818676  0.17036856  1
  Ni  Ni11  1  0.33655400  1.00093414  0.33423042  1
  Cr  Cr12  1  0.33571682  0.33572469  0.00260491  1
  Ni  Ni13  1  0.50167039  0.50411442  0.16871667  1
  Fe  Fe14  1  0.33508971  0.33565920  0.33379322  1
  Ni  Ni15  1  0.33641367  0.67020247  0.00345569  1
  Ni  Ni16  1  0.50299226  0.83441879  0.17037479  1
  Ni  Ni17  1  0.33451821  0.66949782  0.33460828  1
  Cr  Cr18  1  0.66908309  1.00201295  0.00239991  1
  Ni  Ni19  1  0.83770280  0.16794405  0.16945738  1
  Ni  Ni20  1  0.66867539  1.00130533  0.33688181  1
  Fe  Fe21  1  0.67066159  0.33783072  1.00188329  1
  Fe  Fe22  1  0.83575950  0.50269142  0.16746881  1
  Cr  Cr23  1  0.66968180  0.33339462  0.33306542  1
  Ni  Ni24  1  0.66818880  0.66744042  0.00229646  1
  Ni  Ni25  1  0.83538510  0.83495639  0.17002817  1
  Ni  Ni26  1  0.66794459  0.67189180  0.33393339  1
  Cr  Cr27  1  0.17135937  0.16901752  0.50177151  1
  Ni  Ni28  1  1.00153079  1.00137675  0.66969381  1
  Ni  Ni29  1  0.16967645  0.16551370  0.83564702  1
  Ni  Ni30  1  0.16886209  0.50289412  0.50070324  1
  Cr  Cr31  1  1.00122443  0.33462427  0.66996740  1
  Cr  Cr32  1  0.16782402  0.50239240  0.83517432  1
  Fe  Fe33  1  0.16867910  0.83497220  0.50212375  1
  Fe  Fe34  1  0.99976342  0.67264892  0.66928262  1
  Ni  Ni35  1  0.16716185  0.83888261  0.83637020  1
  Ni  Ni36  1  0.50181703  0.16660347  0.50319117  1
  Ni  Ni37  1  0.33619175  0.00254052  0.67060677  1
  Ni  Ni38  1  0.50113190  0.16906906  0.83315495  1
  Cr  Cr39  1  0.50076185  0.50143622  0.50305456  1
  Fe  Fe40  1  0.33873293  0.33238761  0.66976469  1
  Ni  Ni41  1  0.50617160  0.50182186  0.83518283  1
  Fe  Fe42  1  0.50306047  0.83772867  0.50117422  1
  Cr  Cr43  1  0.33577017  0.67030398  0.66912105  1
  Ni  Ni44  1  0.50314530  0.83582665  0.83502104  1
  Fe  Fe45  1  0.83372798  0.16614310  0.50220327  1
  Ni  Ni46  1  0.66899437  0.00291202  0.66727252  1
  Fe  Fe47  1  0.83564900  0.16857303  0.83572830  1
  Cr  Cr48  1  0.83660325  0.50589424  0.50235343  1
  Ni  Ni49  1  0.66820318  0.33397274  0.67144826  1
  Ni  Ni50  1  0.83285406  0.50433672  0.83674174  1
  Ni  Ni51  1  0.83527572  0.83646127  0.50270854  1
  Ni  Ni52  1  0.66936642  0.66983518  0.67049042  1
  Ni  Ni53  1  0.83640857  0.83384627  0.83397859  1
" 