8941,Ni57Fe34Cr8_7,-238.20107830835, 211.77513943636,Ni57Fe34Cr8,"# generated using pymatgen
 data_Cr5Fe18Ni31
_symmetry_space_group_name_H-M   'P 1'
_cell_length_a   7.41906708
_cell_length_b   7.41906708
_cell_length_c   10.49214529
_cell_angle_alpha   90.00000000
_cell_angle_beta   90.00000000
_cell_angle_gamma   90.00000000
_symmetry_Int_Tables_number   1
_chemical_formula_structural   Cr5Fe18Ni31
_chemical_formula_sum   'Cr5 Fe18 Ni31'
_cell_volume   577.51449905
_cell_formula_units_Z   1
loop_
 _symmetry_equiv_pos_site_id
 _symmetry_equiv_pos_as_xyz
  1  'x, y, z'
loop_
 _atom_site_type_symbol
 _atom_site_label
 _atom_site_symmetry_multiplicity
 _atom_site_fract_x
 _atom_site_fract_y
 _atom_site_fract_z
 _atom_site_occupancy
  Ni  Ni0  1  0.00434567  0.00419390  1.00157746  1
  Ni  Ni1  1  0.16803217  0.17268676  0.16923660  1
  Ni  Ni2  1  0.00444518  1.00317509  0.33774555  1
  Ni  Ni3  1  1.00281596  0.33597103  0.00481648  1
  Fe  Fe4  1  0.16917687  0.50297179  0.16881776  1
  Fe  Fe5  1  1.00205085  0.33672949  0.33644969  1
  Ni  Ni6  1  1.00229533  0.66945178  1.00301985  1
  Cr  Cr7  1  0.16946805  0.83691338  0.16873682  1
  Ni  Ni8  1  0.00392780  0.67068306  0.33676302  1
  Ni  Ni9  1  0.33586699  1.00289480  1.00205332  1
  Cr  Cr10  1  0.50286184  0.16832101  0.17035929  1
  Fe  Fe11  1  0.33581729  1.00251015  0.33769573  1
  Fe  Fe12  1  0.33354842  0.33805257  1.00202089  1
  Fe  Fe13  1  0.50197617  0.50380133  0.17060558  1
  Fe  Fe14  1  0.33452670  0.33779504  0.33847795  1
  Ni  Ni15  1  0.33781597  0.67082684  0.00339038  1
  Ni  Ni16  1  0.50466338  0.83463857  0.16931308  1
  Fe  Fe17  1  0.33571690  0.66924229  0.33789698  1
  Fe  Fe18  1  0.67202322  1.00038100  1.00199706  1
  Ni  Ni19  1  0.83846214  0.16912013  0.17106182  1
  Fe  Fe20  1  0.67311651  1.00264417  0.33801353  1
  Cr  Cr21  1  0.67173455  0.33762700  1.00165842  1
  Fe  Fe22  1  0.83858714  0.50365867  0.17004239  1
  Ni  Ni23  1  0.66995763  0.33601955  0.33829719  1
  Ni  Ni24  1  0.66960904  0.66950095  0.00333132  1
  Ni  Ni25  1  0.83577326  0.83773087  0.16838805  1
  Cr  Cr26  1  0.67167177  0.66876342  0.33670436  1
  Ni  Ni27  1  0.16780525  0.17208250  0.50255303  1
  Fe  Fe28  1  1.00252316  0.00433607  0.67002959  1
  Ni  Ni29  1  0.16752258  0.17287351  0.83807417  1
  Fe  Fe30  1  0.16906974  0.50424840  0.50488516  1
  Ni  Ni31  1  1.00255335  0.33721604  0.66909684  1
  Ni  Ni32  1  0.17073400  0.50300283  0.83655115  1
  Ni  Ni33  1  0.16882071  0.83561527  0.50303216  1
  Ni  Ni34  1  0.00373487  0.67050525  0.66979527  1
  Ni  Ni35  1  0.16928047  0.83426729  0.83708836  1
  Fe  Fe36  1  0.50402122  0.16946942  0.50273871  1
  Cr  Cr37  1  0.33513734  1.00210821  0.66966535  1
  Fe  Fe38  1  0.50283619  0.16825313  0.83615910  1
  Ni  Ni39  1  0.50207430  0.50232692  0.50469319  1
  Ni  Ni40  1  0.33669052  0.33678716  0.67035679  1
  Fe  Fe41  1  0.50229751  0.50453730  0.83459520  1
  Ni  Ni42  1  0.50369750  0.83385933  0.50241462  1
  Ni  Ni43  1  0.33540407  0.66991894  0.66898855  1
  Ni  Ni44  1  0.50438026  0.83367397  0.83778873  1
  Ni  Ni45  1  0.83726987  0.17061912  0.50272065  1
  Ni  Ni46  1  0.67008254  0.00404784  0.66921415  1
  Ni  Ni47  1  0.83789122  0.16983550  0.83572908  1
  Fe  Fe48  1  0.83750500  0.50347656  0.50405906  1
  Ni  Ni49  1  0.67044948  0.33565039  0.66909042  1
  Fe  Fe50  1  0.83993944  0.50476761  0.83564144  1
  Ni  Ni51  1  0.83735275  0.83790715  0.50483603  1
  Fe  Fe52  1  0.66925241  0.67008995  0.66993365  1
  Ni  Ni53  1  0.83600162  0.83683385  0.83641317  1
" 