195,Ni57Fe43_19,-239.542985058395, 221.449419737336,Ni57Fe43,"# generated using pymatgen
 data_Fe31Ni23
_symmetry_space_group_name_H-M   'P 1'
_cell_length_a   7.39645771
_cell_length_b   7.39645771
_cell_length_c   10.46017080
_cell_angle_alpha   90.00000000
_cell_angle_beta   90.00000000
_cell_angle_gamma   90.00000000
_symmetry_Int_Tables_number   1
_chemical_formula_structural   Fe31Ni23
_chemical_formula_sum   'Fe31 Ni23'
_cell_volume   572.25070026
_cell_formula_units_Z   1
loop_
 _symmetry_equiv_pos_site_id
 _symmetry_equiv_pos_as_xyz
  1  'x, y, z'
loop_
 _atom_site_type_symbol
 _atom_site_label
 _atom_site_symmetry_multiplicity
 _atom_site_fract_x
 _atom_site_fract_y
 _atom_site_fract_z
 _atom_site_occupancy
  Ni  Ni0  1  1.00471872  0.00521940  0.00515563  1
  Fe  Fe1  1  0.17078207  0.17152032  0.17131838  1
  Fe  Fe2  1  1.00458300  1.00416485  0.33830074  1
  Fe  Fe3  1  0.00502383  0.33790174  0.00479799  1
  Fe  Fe4  1  0.17028173  0.50483476  0.17139760  1
  Fe  Fe5  1  1.00402670  0.33798259  0.33783556  1
  Ni  Ni6  1  0.00508918  0.67081233  1.00368013  1
  Fe  Fe7  1  0.17043040  0.83795864  0.17080944  1
  Ni  Ni8  1  1.00426825  0.67028718  0.33864877  1
  Ni  Ni9  1  0.33796272  0.00521375  1.00325062  1
  Fe  Fe10  1  0.50550880  0.17137396  0.17178504  1
  Ni  Ni11  1  0.33897359  0.00584097  0.33917598  1
  Fe  Fe12  1  0.33744768  0.33790197  1.00424076  1
  Fe  Fe13  1  0.50564337  0.50463013  0.17089482  1
  Fe  Fe14  1  0.33857423  0.33770103  0.33858296  1
  Ni  Ni15  1  0.33760117  0.67080888  0.00540666  1
  Fe  Fe16  1  0.50564700  0.83831649  0.17226401  1
  Fe  Fe17  1  0.33865255  0.67272361  0.33857443  1
  Fe  Fe18  1  0.67156737  1.00452141  1.00472505  1
  Ni  Ni19  1  0.83819619  0.17240117  0.17190469  1
  Ni  Ni20  1  0.67064433  0.00538310  0.33800320  1
  Fe  Fe21  1  0.67184411  0.33825289  1.00437118  1
  Ni  Ni22  1  0.83784147  0.50460749  0.17143334  1
  Fe  Fe23  1  0.67171304  0.33806220  0.33768156  1
  Fe  Fe24  1  0.67156387  0.67155110  0.00519619  1
  Fe  Fe25  1  0.83823843  0.83782224  0.17179854  1
  Ni  Ni26  1  0.67223188  0.67110098  0.33845973  1
  Ni  Ni27  1  0.17184695  0.16995870  0.50424552  1
  Ni  Ni28  1  1.00390320  0.00573355  0.67096565  1
  Ni  Ni29  1  0.17142626  0.16936782  0.83855155  1
  Fe  Fe30  1  0.17244931  0.50508604  0.50461532  1
  Fe  Fe31  1  1.00462470  0.33730425  0.67168826  1
  Fe  Fe32  1  0.17180092  0.50443246  0.83830091  1
  Ni  Ni33  1  0.17220285  0.83853647  0.50378911  1
  Fe  Fe34  1  0.00483560  0.67244700  0.67148707  1
  Ni  Ni35  1  0.17179552  0.83872104  0.83819018  1
  Ni  Ni36  1  0.50446353  0.17067128  0.50425957  1
  Fe  Fe37  1  0.33782261  1.00455595  0.67100529  1
  Ni  Ni38  1  0.50458740  0.17169485  0.83846128  1
  Fe  Fe39  1  0.50361335  0.50516555  0.50531582  1
  Fe  Fe40  1  0.33838255  0.33702362  0.67149303  1
  Ni  Ni41  1  0.50609468  0.50506271  0.83837167  1
  Ni  Ni42  1  0.50375343  0.83818780  0.50470662  1
  Ni  Ni43  1  0.33800241  0.67028147  0.67097976  1
  Fe  Fe44  1  0.50450335  0.83841209  0.83770875  1
  Fe  Fe45  1  0.83789719  0.16982756  0.50504140  1
  Ni  Ni46  1  0.67203709  0.00609684  0.67182706  1
  Ni  Ni47  1  0.83829944  0.17240771  0.83819000  1
  Fe  Fe48  1  0.83825626  0.50524148  0.50414559  1
  Fe  Fe49  1  0.67131005  0.33766038  0.67227166  1
  Ni  Ni50  1  0.83714086  0.50470695  0.83876904  1
  Fe  Fe51  1  0.83781972  0.83924835  0.50448708  1
  Fe  Fe52  1  0.67130434  0.67188852  0.67109060  1
  Fe  Fe53  1  0.83845184  0.83906545  0.83803030  1
" 