4583,Ni57Fe27Cr15_6,-235.39912715577, 199.854634848801,Ni57Fe27Cr15,"# generated using pymatgen
 data_Cr9Fe14Ni31
_symmetry_space_group_name_H-M   'P 1'
_cell_length_a   7.43725415
_cell_length_b   7.43725415
_cell_length_c   10.51786569
_cell_angle_alpha   90.00000000
_cell_angle_beta   90.00000000
_cell_angle_gamma   90.00000000
_symmetry_Int_Tables_number   1
_chemical_formula_structural   Cr9Fe14Ni31
_chemical_formula_sum   'Cr9 Fe14 Ni31'
_cell_volume   581.77206765
_cell_formula_units_Z   1
loop_
 _symmetry_equiv_pos_site_id
 _symmetry_equiv_pos_as_xyz
  1  'x, y, z'
loop_
 _atom_site_type_symbol
 _atom_site_label
 _atom_site_symmetry_multiplicity
 _atom_site_fract_x
 _atom_site_fract_y
 _atom_site_fract_z
 _atom_site_occupancy
  Cr  Cr0  1  1.00178978  1.00165058  1.00128172  1
  Ni  Ni1  1  0.17088785  0.17006273  0.16928104  1
  Fe  Fe2  1  0.00342603  1.00130280  0.33532925  1
  Ni  Ni3  1  0.00500092  0.33586957  1.00143839  1
  Ni  Ni4  1  0.17010013  0.50173749  0.16839585  1
  Ni  Ni5  1  0.00521704  0.33889996  0.33547715  1
  Cr  Cr6  1  0.00371503  0.66862607  0.00237500  1
  Fe  Fe7  1  0.17030180  0.83541351  0.17044076  1
  Ni  Ni8  1  0.00313395  0.66908154  0.33576466  1
  Fe  Fe9  1  0.33570836  0.00352688  1.00173637  1
  Ni  Ni10  1  0.50057691  0.16883040  0.16845173  1
  Fe  Fe11  1  0.33456822  0.00239654  0.33548783  1
  Ni  Ni12  1  0.33548576  0.33696237  0.00278263  1
  Ni  Ni13  1  0.50108387  0.50272458  0.16829683  1
  Ni  Ni14  1  0.33393600  0.33714083  0.33423362  1
  Fe  Fe15  1  0.33774690  0.66783489  0.00273239  1
  Fe  Fe16  1  0.50159803  0.83634213  0.16910034  1
  Ni  Ni17  1  0.33329948  0.66812831  0.33512623  1
  Ni  Ni18  1  0.66711840  1.00015515  1.00039069  1
  Cr  Cr19  1  0.83570461  0.16864235  0.16877296  1
  Ni  Ni20  1  0.66788062  0.99911239  0.33582806  1
  Ni  Ni21  1  0.66611988  0.33499831  0.00314141  1
  Fe  Fe22  1  0.83576129  0.50131117  0.16993627  1
  Ni  Ni23  1  0.66722703  0.33538453  0.33358064  1
  Fe  Fe24  1  0.66645009  0.66806095  0.00241133  1
  Ni  Ni25  1  0.83393308  0.83351397  0.16965012  1
  Fe  Fe26  1  0.66867301  0.66768213  0.33528314  1
  Ni  Ni27  1  0.16916656  0.16938152  0.50067400  1
  Cr  Cr28  1  0.00250153  0.99992151  0.66922011  1
  Ni  Ni29  1  0.16844973  0.16894146  0.83579752  1
  Ni  Ni30  1  0.16742564  0.50272042  0.50356329  1
  Fe  Fe31  1  0.00262381  0.33528091  0.66838354  1
  Fe  Fe32  1  0.17189694  0.50084696  0.83509798  1
  Ni  Ni33  1  0.16950396  0.83418234  0.50025769  1
  Fe  Fe34  1  0.00253405  0.66805106  0.66718890  1
  Ni  Ni35  1  0.17202222  0.83425421  0.83532428  1
  Cr  Cr36  1  0.50051734  0.16738527  0.50260339  1
  Ni  Ni37  1  0.33437507  1.00084707  0.66818314  1
  Cr  Cr38  1  0.50236280  0.16928060  0.83445677  1
  Cr  Cr39  1  0.50180038  0.50327489  0.50240688  1
  Ni  Ni40  1  0.33280448  0.33650594  0.66925839  1
  Ni  Ni41  1  0.50111978  0.50459701  0.83543318  1
  Ni  Ni42  1  0.50164569  0.83490790  0.50170943  1
  Fe  Fe43  1  0.33633069  0.67068313  0.66857833  1
  Ni  Ni44  1  0.50026620  0.83296698  0.83581832  1
  Cr  Cr45  1  0.83509557  0.16995532  0.50148628  1
  Ni  Ni46  1  0.66800674  0.99864939  0.67011006  1
  Ni  Ni47  1  0.83571325  0.16971144  0.83584361  1
  Ni  Ni48  1  0.83699858  0.50391960  0.50012626  1
  Ni  Ni49  1  0.66793864  0.33722492  0.66913936  1
  Cr  Cr50  1  0.83407779  0.50027729  0.83549713  1
  Ni  Ni51  1  0.83490670  0.83289080  0.50206258  1
  Ni  Ni52  1  0.66925095  0.67040665  0.66819860  1
  Fe  Fe53  1  0.83238218  0.83570461  0.83501593  1
" 