5438,Ni57Fe34Cr8_4,-238.86656592631, 211.595255017601,Ni57Fe34Cr8,"# generated using pymatgen
 data_Cr5Fe18Ni31
_symmetry_space_group_name_H-M   'P 1'
_cell_length_a   7.42337709
_cell_length_b   7.42337709
_cell_length_c   10.49824055
_cell_angle_alpha   90.00000000
_cell_angle_beta   90.00000000
_cell_angle_gamma   90.00000000
_symmetry_Int_Tables_number   1
_chemical_formula_structural   Cr5Fe18Ni31
_chemical_formula_sum   'Cr5 Fe18 Ni31'
_cell_volume   578.52158011
_cell_formula_units_Z   1
loop_
 _symmetry_equiv_pos_site_id
 _symmetry_equiv_pos_as_xyz
  1  'x, y, z'
loop_
 _atom_site_type_symbol
 _atom_site_label
 _atom_site_symmetry_multiplicity
 _atom_site_fract_x
 _atom_site_fract_y
 _atom_site_fract_z
 _atom_site_occupancy
  Fe  Fe0  1  1.00287344  0.00360276  0.00303928  1
  Fe  Fe1  1  0.16664074  0.16891729  0.16827854  1
  Fe  Fe2  1  1.00178039  0.00400404  0.33598032  1
  Ni  Ni3  1  0.00447024  0.33704074  0.00387039  1
  Ni  Ni4  1  0.16853757  0.50405319  0.16772828  1
  Ni  Ni5  1  0.00307398  0.33517250  0.33580067  1
  Ni  Ni6  1  0.00454411  0.66908344  1.00238887  1
  Ni  Ni7  1  0.17067127  0.83531066  0.16931144  1
  Cr  Cr8  1  1.00199299  0.66853364  0.33637555  1
  Ni  Ni9  1  0.33599652  1.00283733  1.00208698  1
  Cr  Cr10  1  0.50533556  0.16833666  0.16791375  1
  Fe  Fe11  1  0.33601912  1.00040706  0.33632446  1
  Ni  Ni12  1  0.33406543  0.33598464  1.00137094  1
  Fe  Fe13  1  0.50360659  0.50511548  0.17008257  1
  Cr  Cr14  1  0.33388427  0.33695908  0.33685605  1
  Fe  Fe15  1  0.33434901  0.66970110  0.00294231  1
  Ni  Ni16  1  0.50186236  0.83640257  0.17195299  1
  Fe  Fe17  1  0.33784497  0.67075664  0.33624589  1
  Ni  Ni18  1  0.66936494  1.00291064  1.00214416  1
  Ni  Ni19  1  0.83659912  0.17019557  0.17032569  1
  Ni  Ni20  1  0.66990660  1.00029015  0.33660110  1
  Ni  Ni21  1  0.67028706  0.33490268  1.00280459  1
  Ni  Ni22  1  0.83768901  0.50096239  0.17094090  1
  Fe  Fe23  1  0.67223170  0.33709782  0.33694195  1
  Cr  Cr24  1  0.67073490  0.67114340  1.00292701  1
  Ni  Ni25  1  0.83628978  0.83766900  0.16887136  1
  Ni  Ni26  1  0.66836785  0.67188338  0.33642476  1
  Fe  Fe27  1  0.16922425  0.17008488  0.50416470  1
  Fe  Fe28  1  1.00222560  0.00352345  0.66980640  1
  Ni  Ni29  1  0.17048810  0.17014043  0.83624594  1
  Ni  Ni30  1  0.16911784  0.50225868  0.50404545  1
  Ni  Ni31  1  0.00427190  0.33640094  0.66915576  1
  Ni  Ni32  1  0.16785584  0.50264798  0.83705008  1
  Fe  Fe33  1  0.17007106  0.83725978  0.50286166  1
  Fe  Fe34  1  1.00093767  0.66860790  0.67006400  1
  Ni  Ni35  1  0.16967843  0.83603698  0.83688303  1
  Ni  Ni36  1  0.50390980  0.16925906  0.50454837  1
  Fe  Fe37  1  0.33733460  0.00539628  0.67069798  1
  Ni  Ni38  1  0.50355252  0.16877056  0.83578443  1
  Ni  Ni39  1  0.50364107  0.50185689  0.50253611  1
  Ni  Ni40  1  0.33493815  0.33475870  0.67005855  1
  Fe  Fe41  1  0.50272246  0.50048438  0.83545255  1
  Fe  Fe42  1  0.50455555  0.83646611  0.50207678  1
  Cr  Cr43  1  0.33659979  0.66873337  0.66989910  1
  Ni  Ni44  1  0.50254295  0.83923029  0.83571598  1
  Fe  Fe45  1  0.83571525  0.17017877  0.50298426  1
  Ni  Ni46  1  0.66955621  1.00196980  0.67008129  1
  Ni  Ni47  1  0.83478227  0.17059257  0.83631019  1
  Fe  Fe48  1  0.83492483  0.50215108  0.50385258  1
  Ni  Ni49  1  0.66961342  0.33578323  0.66905319  1
  Ni  Ni50  1  0.83797269  0.50163808  0.83439514  1
  Ni  Ni51  1  0.83542119  0.83693052  0.50418887  1
  Ni  Ni52  1  0.67119761  0.67107134  0.66912055  1
  Fe  Fe53  1  0.83696604  0.83733075  0.83527286  1
" 