5642,Ni57Fe27Cr15_5,-236.102593966981, 203.575613712917,Ni57Fe27Cr15,"# generated using pymatgen
 data_Cr9Fe14Ni31
_symmetry_space_group_name_H-M   'P 1'
_cell_length_a   7.44055106
_cell_length_b   7.44055106
_cell_length_c   10.52252822
_cell_angle_alpha   90.00000000
_cell_angle_beta   90.00000000
_cell_angle_gamma   90.00000000
_symmetry_Int_Tables_number   1
_chemical_formula_structural   Cr9Fe14Ni31
_chemical_formula_sum   'Cr9 Fe14 Ni31'
_cell_volume   582.54610353
_cell_formula_units_Z   1
loop_
 _symmetry_equiv_pos_site_id
 _symmetry_equiv_pos_as_xyz
  1  'x, y, z'
loop_
 _atom_site_type_symbol
 _atom_site_label
 _atom_site_symmetry_multiplicity
 _atom_site_fract_x
 _atom_site_fract_y
 _atom_site_fract_z
 _atom_site_occupancy
  Fe  Fe0  1  0.00205670  0.00262095  1.00083066  1
  Ni  Ni1  1  0.16828481  0.16880575  0.16805532  1
  Cr  Cr2  1  0.00406756  0.00317219  0.33718267  1
  Fe  Fe3  1  0.00386459  0.33547233  1.00042986  1
  Fe  Fe4  1  0.16926624  0.50289008  0.16761383  1
  Ni  Ni5  1  1.00086383  0.33561476  0.33461488  1
  Fe  Fe6  1  0.00406379  0.66721093  1.00033471  1
  Ni  Ni7  1  0.16989890  0.83551164  0.17086834  1
  Ni  Ni8  1  0.00396242  0.66640808  0.33569299  1
  Cr  Cr9  1  0.33591174  0.00218365  0.00239134  1
  Ni  Ni10  1  0.50041880  0.16854497  0.16884124  1
  Ni  Ni11  1  0.33511430  1.00042531  0.33522171  1
  Ni  Ni12  1  0.33398696  0.33583395  0.99950495  1
  Cr  Cr13  1  0.50402851  0.50307337  0.16978998  1
  Cr  Cr14  1  0.33339174  0.33468775  0.33576311  1
  Ni  Ni15  1  0.33606925  0.66653233  0.00252653  1
  Ni  Ni16  1  0.50058326  0.83479148  0.16864783  1
  Ni  Ni17  1  0.33392549  0.67075850  0.33415132  1
  Fe  Fe18  1  0.66717091  0.00213297  1.00021003  1
  Fe  Fe19  1  0.83472736  0.16884837  0.16619001  1
  Cr  Cr20  1  0.66646859  0.00319406  0.33477899  1
  Fe  Fe21  1  0.66547898  0.33501228  0.99953556  1
  Cr  Cr22  1  0.83541101  0.50104458  0.16914793  1
  Ni  Ni23  1  0.67077388  0.33456625  0.33617099  1
  Ni  Ni24  1  0.66772757  0.66919326  0.99751338  1
  Cr  Cr25  1  0.83413387  0.83187682  0.16732136  1
  Ni  Ni26  1  0.66781129  0.66813269  0.33899809  1
  Ni  Ni27  1  0.16853117  0.16828276  0.50421768  1
  Ni  Ni28  1  1.00166126  0.00300912  0.66887549  1
  Ni  Ni29  1  0.16794180  0.17037713  0.83272144  1
  Ni  Ni30  1  0.16544882  0.50089567  0.50110556  1
  Ni  Ni31  1  1.00044298  0.33625399  0.66946776  1
  Ni  Ni32  1  0.16842648  0.49998676  0.83553350  1
  Fe  Fe33  1  0.16988706  0.83268970  0.50311222  1
  Ni  Ni34  1  0.00192586  0.66591525  0.66891766  1
  Cr  Cr35  1  0.16879671  0.83595947  0.83208798  1
  Fe  Fe36  1  0.50036296  0.17028235  0.50296795  1
  Ni  Ni37  1  0.33570421  1.00149632  0.66741151  1
  Ni  Ni38  1  0.50051232  0.17004820  0.83384968  1
  Fe  Fe39  1  0.50106070  0.50257764  0.50289906  1
  Fe  Fe40  1  0.33306542  0.33576658  0.66940400  1
  Ni  Ni41  1  0.50202510  0.50179710  0.83307974  1
  Ni  Ni42  1  0.49990865  0.83422636  0.50051139  1
  Ni  Ni43  1  0.33552909  0.66707931  0.66896051  1
  Ni  Ni44  1  0.50262591  0.83345787  0.83580716  1
  Fe  Fe45  1  0.83657637  0.17241506  0.50383292  1
  Cr  Cr46  1  0.66876556  0.00209391  0.67054782  1
  Ni  Ni47  1  0.83645472  0.16951466  0.83672357  1
  Ni  Ni48  1  0.83517298  0.50144003  0.50120994  1
  Ni  Ni49  1  0.66972110  0.33663624  0.66941904  1
  Ni  Ni50  1  0.83490375  0.50180339  0.83442173  1
  Fe  Fe51  1  0.83730838  0.83210621  0.50337892  1
  Fe  Fe52  1  0.66910660  0.66745047  0.66852585  1
  Ni  Ni53  1  0.83482137  0.83404884  0.83483200  1
" 