7134,Ni57Fe36Cr6_17,-238.409080200386, 207.260465569878,Ni57Fe36Cr6,"# generated using pymatgen
 data_Cr5Fe19Ni30
_symmetry_space_group_name_H-M   'P 1'
_cell_length_a   7.42484153
_cell_length_b   7.42484153
_cell_length_c   10.50031159
_cell_angle_alpha   90.00000000
_cell_angle_beta   90.00000000
_cell_angle_gamma   90.00000000
_symmetry_Int_Tables_number   1
_chemical_formula_structural   Cr5Fe19Ni30
_chemical_formula_sum   'Cr5 Fe19 Ni30'
_cell_volume   578.86403117
_cell_formula_units_Z   1
loop_
 _symmetry_equiv_pos_site_id
 _symmetry_equiv_pos_as_xyz
  1  'x, y, z'
loop_
 _atom_site_type_symbol
 _atom_site_label
 _atom_site_symmetry_multiplicity
 _atom_site_fract_x
 _atom_site_fract_y
 _atom_site_fract_z
 _atom_site_occupancy
  Ni  Ni0  1  1.00236556  1.00217523  0.00354087  1
  Ni  Ni1  1  0.16955857  0.16850348  0.16933778  1
  Ni  Ni2  1  0.00414255  1.00166144  0.33566859  1
  Fe  Fe3  1  1.00205726  0.33623612  1.00282202  1
  Fe  Fe4  1  0.16935139  0.50351286  0.16980054  1
  Fe  Fe5  1  1.00208173  0.33667220  0.33579342  1
  Ni  Ni6  1  0.00431155  0.67005114  1.00251199  1
  Ni  Ni7  1  0.16802687  0.83759015  0.16921653  1
  Ni  Ni8  1  0.00461882  0.66972995  0.33699982  1
  Fe  Fe9  1  0.33556419  0.00313242  1.00239249  1
  Ni  Ni10  1  0.50127285  0.17199826  0.16797991  1
  Ni  Ni11  1  0.33335787  1.00117024  0.33469894  1
  Fe  Fe12  1  0.33628336  0.33595830  0.00339323  1
  Ni  Ni13  1  0.50378140  0.50098573  0.16891416  1
  Fe  Fe14  1  0.33607689  0.33760865  0.33451157  1
  Ni  Ni15  1  0.33449567  0.66850032  1.00193236  1
  Cr  Cr16  1  0.50197155  0.83544326  0.16928130  1
  Ni  Ni17  1  0.33424688  0.66885792  0.33811335  1
  Ni  Ni18  1  0.67072841  0.00535630  1.00158312  1
  Ni  Ni19  1  0.83769311  0.17092391  0.16832699  1
  Cr  Cr20  1  0.67114226  0.00455271  0.33712865  1
  Ni  Ni21  1  0.66917600  0.33536096  0.00295610  1
  Ni  Ni22  1  0.83564668  0.50252265  0.16939108  1
  Ni  Ni23  1  0.67015375  0.33802331  0.33594783  1
  Fe  Fe24  1  0.67086481  0.66912027  1.00166734  1
  Ni  Ni25  1  0.83914494  0.83508188  0.16761614  1
  Fe  Fe26  1  0.67034450  0.66766238  0.33772080  1
  Cr  Cr27  1  0.16861792  0.16807350  0.50134083  1
  Ni  Ni28  1  0.00311420  1.00102268  0.66931697  1
  Fe  Fe29  1  0.17004663  0.16815218  0.83671385  1
  Ni  Ni30  1  0.16988639  0.50534039  0.50247081  1
  Cr  Cr31  1  1.00058407  0.33663214  0.66901401  1
  Fe  Fe32  1  0.17024362  0.50439722  0.83689636  1
  Ni  Ni33  1  0.16961610  0.83504604  0.50345954  1
  Fe  Fe34  1  1.00212991  0.67092592  0.66893758  1
  Fe  Fe35  1  0.16933989  0.83597346  0.83644111  1
  Cr  Cr36  1  0.50322810  0.16971721  0.50367944  1
  Ni  Ni37  1  0.33560642  1.00047807  0.67084013  1
  Fe  Fe38  1  0.50365541  0.16956597  0.83641943  1
  Ni  Ni39  1  0.50344563  0.50473306  0.50379281  1
  Fe  Fe40  1  0.33781273  0.33744131  0.67062121  1
  Fe  Fe41  1  0.50368620  0.50321491  0.83615845  1
  Ni  Ni42  1  0.50171585  0.83365121  0.50387694  1
  Fe  Fe43  1  0.33678009  0.66999777  0.66891645  1
  Ni  Ni44  1  0.50226929  0.83672779  0.83603479  1
  Ni  Ni45  1  0.83658890  0.16987125  0.50352281  1
  Fe  Fe46  1  0.67026132  1.00183998  0.67017688  1
  Fe  Fe47  1  0.83482248  0.16866205  0.83698287  1
  Ni  Ni48  1  0.83519492  0.50368766  0.50221036  1
  Ni  Ni49  1  0.66903117  0.33768265  0.66962427  1
  Ni  Ni50  1  0.83565477  0.50316141  0.83692290  1
  Ni  Ni51  1  0.83719515  0.83496716  0.50456964  1
  Ni  Ni52  1  0.66848805  0.66818203  0.66883318  1
  Fe  Fe53  1  0.83600532  0.83594283  0.83645937  1
" 