1866,Ni57Fe43_0,-239.862197766144, 218.210894759002,Ni57Fe43,"# generated using pymatgen
 data_Fe31Ni23
_symmetry_space_group_name_H-M   'P 1'
_cell_length_a   7.39868833
_cell_length_b   7.39868833
_cell_length_c   10.46332539
_cell_angle_alpha   90.00000000
_cell_angle_beta   90.00000000
_cell_angle_gamma   90.00000000
_symmetry_Int_Tables_number   1
_chemical_formula_structural   Fe31Ni23
_chemical_formula_sum   'Fe31 Ni23'
_cell_volume   572.76859523
_cell_formula_units_Z   1
loop_
 _symmetry_equiv_pos_site_id
 _symmetry_equiv_pos_as_xyz
  1  'x, y, z'
loop_
 _atom_site_type_symbol
 _atom_site_label
 _atom_site_symmetry_multiplicity
 _atom_site_fract_x
 _atom_site_fract_y
 _atom_site_fract_z
 _atom_site_occupancy
  Fe  Fe0  1  1.00404941  1.00421970  1.00408575  1
  Fe  Fe1  1  0.17314728  0.17134510  0.17051814  1
  Ni  Ni2  1  0.00515699  0.00465177  0.33668567  1
  Fe  Fe3  1  1.00422048  0.33786486  1.00380421  1
  Fe  Fe4  1  0.17310197  0.50463930  0.17282116  1
  Fe  Fe5  1  1.00381541  0.33851585  0.33793711  1
  Fe  Fe6  1  0.00504739  0.67151336  0.00539810  1
  Fe  Fe7  1  0.17275872  0.83820161  0.17113740  1
  Ni  Ni8  1  1.00338078  0.67239021  0.33713591  1
  Ni  Ni9  1  0.33674837  0.00634852  1.00454303  1
  Ni  Ni10  1  0.50502899  0.17086911  0.17111820  1
  Fe  Fe11  1  0.33879477  1.00416511  0.33692342  1
  Fe  Fe12  1  0.33950613  0.33851797  1.00450163  1
  Ni  Ni13  1  0.50528277  0.50495446  0.17246932  1
  Ni  Ni14  1  0.33809207  0.33731354  0.33740580  1
  Fe  Fe15  1  0.33955544  0.67211798  0.00503733  1
  Ni  Ni16  1  0.50437114  0.83800215  0.17179135  1
  Fe  Fe17  1  0.33776951  0.67147579  0.33816312  1
  Fe  Fe18  1  0.66983688  1.00440372  0.00566557  1
  Fe  Fe19  1  0.83610009  0.17077360  0.17091102  1
  Ni  Ni20  1  0.67215770  1.00362527  0.33811697  1
  Fe  Fe21  1  0.67020401  0.33777021  1.00320540  1
  Fe  Fe22  1  0.83578755  0.50527514  0.17108753  1
  Fe  Fe23  1  0.67134331  0.33728578  0.33884383  1
  Ni  Ni24  1  0.67183834  0.67049451  0.00482754  1
  Fe  Fe25  1  0.83546751  0.83758496  0.17192764  1
  Ni  Ni26  1  0.67167750  0.67088360  0.33789335  1
  Fe  Fe27  1  0.17189033  0.17360295  0.50536007  1
  Ni  Ni28  1  0.00553207  1.00400258  0.67160076  1
  Ni  Ni29  1  0.17092556  0.16977840  0.83786941  1
  Ni  Ni30  1  0.17063835  0.50547723  0.50471733  1
  Fe  Fe31  1  1.00310361  0.33828173  0.67191992  1
  Fe  Fe32  1  0.17155172  0.50210013  0.83736518  1
  Fe  Fe33  1  0.17089447  0.83780669  0.50445029  1
  Fe  Fe34  1  1.00398109  0.66999379  0.67039728  1
  Fe  Fe35  1  0.17131236  0.83833730  0.83810037  1
  Ni  Ni36  1  0.50403130  0.17031618  0.50416217  1
  Fe  Fe37  1  0.33961311  0.00528933  0.67249296  1
  Ni  Ni38  1  0.50471443  0.17084547  0.83881524  1
  Ni  Ni39  1  0.50434027  0.50374200  0.50348213  1
  Ni  Ni40  1  0.33848998  0.33761795  0.67298336  1
  Ni  Ni41  1  0.50535337  0.50544193  0.83813360  1
  Fe  Fe42  1  0.50562095  0.83597833  0.50369535  1
  Fe  Fe43  1  0.33889194  0.67011119  0.67103950  1
  Fe  Fe44  1  0.50593875  0.83823867  0.83951705  1
  Fe  Fe45  1  0.83781195  0.17231685  0.50540020  1
  Fe  Fe46  1  0.67106051  0.00636802  0.67057577  1
  Ni  Ni47  1  0.83792150  0.17120513  0.83746560  1
  Ni  Ni48  1  0.83846090  0.50564760  0.50389077  1
  Ni  Ni49  1  0.66910426  0.33998741  0.67135951  1
  Ni  Ni50  1  0.83820637  0.50554309  0.83787872  1
  Fe  Fe51  1  0.83757083  0.83745637  0.50419562  1
  Ni  Ni52  1  0.67150000  0.67038449  0.67116925  1
  Fe  Fe53  1  0.83676274  0.83838921  0.83747030  1
" 