6221,Ni57Fe36Cr6_7,-238.401823787302, 212.619513548655,Ni57Fe36Cr6,"# generated using pymatgen
 data_Cr5Fe19Ni30
_symmetry_space_group_name_H-M   'P 1'
_cell_length_a   7.42079978
_cell_length_b   7.42079978
_cell_length_c   10.49459569
_cell_angle_alpha   90.00000000
_cell_angle_beta   90.00000000
_cell_angle_gamma   90.00000000
_symmetry_Int_Tables_number   1
_chemical_formula_structural   Cr5Fe19Ni30
_chemical_formula_sum   'Cr5 Fe19 Ni30'
_cell_volume   577.91922252
_cell_formula_units_Z   1
loop_
 _symmetry_equiv_pos_site_id
 _symmetry_equiv_pos_as_xyz
  1  'x, y, z'
loop_
 _atom_site_type_symbol
 _atom_site_label
 _atom_site_symmetry_multiplicity
 _atom_site_fract_x
 _atom_site_fract_y
 _atom_site_fract_z
 _atom_site_occupancy
  Fe  Fe0  1  1.00271900  0.00414892  1.00300451  1
  Ni  Ni1  1  0.17059206  0.17046883  0.17057295  1
  Ni  Ni2  1  0.00436336  0.00655746  0.33510840  1
  Fe  Fe3  1  1.00294313  0.33571923  1.00219901  1
  Fe  Fe4  1  0.16793097  0.50379252  0.16686111  1
  Ni  Ni5  1  1.00253397  0.33445000  0.33455093  1
  Fe  Fe6  1  1.00028569  0.66998558  1.00264135  1
  Ni  Ni7  1  0.16930860  0.84102394  0.16782857  1
  Cr  Cr8  1  0.00473018  0.66863821  0.33574191  1
  Fe  Fe9  1  0.33706611  0.00447382  0.00369603  1
  Fe  Fe10  1  0.50458197  0.16781320  0.16924471  1
  Ni  Ni11  1  0.33626759  0.00380650  0.33505818  1
  Fe  Fe12  1  0.33701057  0.33438856  1.00170370  1
  Cr  Cr13  1  0.50369070  0.50084710  0.16938384  1
  Fe  Fe14  1  0.33601557  0.33355012  0.33722082  1
  Ni  Ni15  1  0.33374284  0.67108440  1.00203261  1
  Ni  Ni16  1  0.50407917  0.83656516  0.16922524  1
  Cr  Cr17  1  0.33518492  0.67288657  0.33797686  1
  Ni  Ni18  1  0.66988579  0.00497846  0.00326311  1
  Fe  Fe19  1  0.83602885  0.16938113  0.16943826  1
  Ni  Ni20  1  0.66813933  0.00519119  0.33455808  1
  Ni  Ni21  1  0.67240076  0.33444957  1.00047240  1
  Ni  Ni22  1  0.83430648  0.50227400  0.16923240  1
  Ni  Ni23  1  0.67233283  0.33430237  0.33816964  1
  Fe  Fe24  1  0.66974765  0.67057020  1.00226185  1
  Ni  Ni25  1  0.83498935  0.83730699  0.17000118  1
  Ni  Ni26  1  0.66867819  0.66896368  0.33558744  1
  Ni  Ni27  1  0.16941215  0.16936760  0.50326097  1
  Ni  Ni28  1  0.00375009  0.00551317  0.67140025  1
  Ni  Ni29  1  0.17037240  0.16921094  0.83535808  1
  Ni  Ni30  1  0.17258996  0.49944013  0.50422121  1
  Ni  Ni31  1  1.00269196  0.33598970  0.67079173  1
  Ni  Ni32  1  0.17155380  0.50112841  0.83752789  1
  Ni  Ni33  1  0.17046109  0.83933378  0.50641460  1
  Ni  Ni34  1  0.00661089  0.66692217  0.67165825  1
  Fe  Fe35  1  0.16796052  0.83542713  0.83607973  1
  Fe  Fe36  1  0.50219187  0.16795983  0.50311556  1
  Ni  Ni37  1  0.33675560  1.00243281  0.67191987  1
  Fe  Fe38  1  0.50422523  0.17096579  0.83685224  1
  Fe  Fe39  1  0.50327267  0.50062990  0.50339050  1
  Fe  Fe40  1  0.33507772  0.33543215  0.67057327  1
  Ni  Ni41  1  0.50157512  0.50280540  0.83667650  1
  Fe  Fe42  1  0.50164841  0.84080274  0.50316385  1
  Ni  Ni43  1  0.33487111  0.66983886  0.67006421  1
  Fe  Fe44  1  0.50209802  0.83741700  0.83841490  1
  Ni  Ni45  1  0.83699648  0.16995619  0.50315799  1
  Ni  Ni46  1  0.66839234  0.00632249  0.67163727  1
  Ni  Ni47  1  0.83778744  0.16822186  0.83588242  1
  Fe  Fe48  1  0.84014671  0.50049961  0.50302461  1
  Fe  Fe49  1  0.67060346  0.33437359  0.67068415  1
  Ni  Ni50  1  0.83587460  0.50263780  0.83608255  1
  Cr  Cr51  1  0.83705441  0.84019122  0.50237085  1
  Cr  Cr52  1  0.66881247  0.66956135  0.67064583  1
  Ni  Ni53  1  0.83592698  0.83826975  0.83686476  1
" 