3949,Ni57Fe34Cr8_13,-238.534450557255, 211.280844251211,Ni57Fe34Cr8,"# generated using pymatgen
 data_Cr5Fe18Ni31
_symmetry_space_group_name_H-M   'P 1'
_cell_length_a   7.42076171
_cell_length_b   7.42076171
_cell_length_c   10.49454185
_cell_angle_alpha   90.00000000
_cell_angle_beta   90.00000000
_cell_angle_gamma   90.00000000
_symmetry_Int_Tables_number   1
_chemical_formula_structural   Cr5Fe18Ni31
_chemical_formula_sum   'Cr5 Fe18 Ni31'
_cell_volume   577.91032806
_cell_formula_units_Z   1
loop_
 _symmetry_equiv_pos_site_id
 _symmetry_equiv_pos_as_xyz
  1  'x, y, z'
loop_
 _atom_site_type_symbol
 _atom_site_label
 _atom_site_symmetry_multiplicity
 _atom_site_fract_x
 _atom_site_fract_y
 _atom_site_fract_z
 _atom_site_occupancy
  Ni  Ni0  1  0.00439483  1.00308159  0.00514399  1
  Ni  Ni1  1  0.17000220  0.16944158  0.16844376  1
  Fe  Fe2  1  1.00186768  0.00366084  0.33615903  1
  Ni  Ni3  1  1.00276382  0.33665172  0.00322857  1
  Fe  Fe4  1  0.16853470  0.50179331  0.16970745  1
  Ni  Ni5  1  0.00394375  0.33547997  0.33557810  1
  Fe  Fe6  1  1.00290470  0.66819709  0.00395219  1
  Ni  Ni7  1  0.16879556  0.83482587  0.17041126  1
  Fe  Fe8  1  1.00260940  0.66948697  0.33595914  1
  Ni  Ni9  1  0.33534379  1.00171057  0.00421693  1
  Ni  Ni10  1  0.50242467  0.17120954  0.16916030  1
  Cr  Cr11  1  0.33629861  0.00342894  0.33660488  1
  Ni  Ni12  1  0.33540615  0.33641039  0.00314135  1
  Fe  Fe13  1  0.50224507  0.50356592  0.16978516  1
  Ni  Ni14  1  0.33412237  0.33751568  0.33668921  1
  Fe  Fe15  1  0.33590200  0.66830751  0.00372071  1
  Fe  Fe16  1  0.50442190  0.83680026  0.16936452  1
  Ni  Ni17  1  0.33696433  0.66961518  0.33581640  1
  Fe  Fe18  1  0.66966848  0.00442665  0.00595610  1
  Ni  Ni19  1  0.83686657  0.16915686  0.16999829  1
  Ni  Ni20  1  0.67094810  1.00090328  0.33644125  1
  Ni  Ni21  1  0.67094234  0.33964612  0.00489367  1
  Ni  Ni22  1  0.83644918  0.50475462  0.17005373  1
  Cr  Cr23  1  0.67130270  0.33610112  0.33636180  1
  Fe  Fe24  1  0.67055559  0.66937803  1.00308058  1
  Ni  Ni25  1  0.83772939  0.83543323  0.16934543  1
  Ni  Ni26  1  0.66952743  0.67114066  0.33647043  1
  Ni  Ni27  1  0.16934408  0.17029830  0.50442481  1
  Ni  Ni28  1  0.00448115  0.00434162  0.66831987  1
  Ni  Ni29  1  0.17029776  0.17023727  0.83659603  1
  Fe  Fe30  1  0.16952658  0.50218145  0.50338317  1
  Ni  Ni31  1  1.00267137  0.33588350  0.67047857  1
  Ni  Ni32  1  0.17026307  0.50306811  0.83610738  1
  Fe  Fe33  1  0.16986682  0.83586602  0.50381398  1
  Fe  Fe34  1  1.00245371  0.66893842  0.66914048  1
  Cr  Cr35  1  0.16830149  0.83726968  0.83602899  1
  Ni  Ni36  1  0.50277257  0.17170260  0.50475057  1
  Ni  Ni37  1  0.33518230  1.00158234  0.66875419  1
  Cr  Cr38  1  0.50194529  0.17103622  0.83478706  1
  Ni  Ni39  1  0.50168233  0.50420564  0.50306440  1
  Fe  Fe40  1  0.33549195  0.33813220  0.66918281  1
  Ni  Ni41  1  0.50321080  0.50379437  0.83692884  1
  Fe  Fe42  1  0.50474135  0.83640428  0.50364003  1
  Ni  Ni43  1  0.33845425  0.67043068  0.66941021  1
  Fe  Fe44  1  0.50348514  0.83531973  0.83633215  1
  Ni  Ni45  1  0.83723715  0.16760772  0.50275826  1
  Fe  Fe46  1  0.67028563  1.00227233  0.66688844  1
  Cr  Cr47  1  0.83707775  0.16935853  0.83699523  1
  Fe  Fe48  1  0.83668403  0.50257146  0.50364493  1
  Ni  Ni49  1  0.67176959  0.33955480  0.66808525  1
  Ni  Ni50  1  0.83598084  0.50486967  0.83566686  1
  Ni  Ni51  1  0.83765273  0.83508154  0.50326498  1
  Ni  Ni52  1  0.66892707  0.66870942  0.67007598  1
  Fe  Fe53  1  0.83568639  0.83556709  0.83620079  1
" 