1487,Ni57Fe43_7,-239.496168785802, 219.692601329336,Ni57Fe43,"# generated using pymatgen
 data_Fe31Ni23
_symmetry_space_group_name_H-M   'P 1'
_cell_length_a   7.39488248
_cell_length_b   7.39488248
_cell_length_c   10.45794309
_cell_angle_alpha   90.00000000
_cell_angle_beta   90.00000000
_cell_angle_gamma   90.00000000
_symmetry_Int_Tables_number   1
_chemical_formula_structural   Fe31Ni23
_chemical_formula_sum   'Fe31 Ni23'
_cell_volume   571.88516026
_cell_formula_units_Z   1
loop_
 _symmetry_equiv_pos_site_id
 _symmetry_equiv_pos_as_xyz
  1  'x, y, z'
loop_
 _atom_site_type_symbol
 _atom_site_label
 _atom_site_symmetry_multiplicity
 _atom_site_fract_x
 _atom_site_fract_y
 _atom_site_fract_z
 _atom_site_occupancy
  Fe  Fe0  1  0.00552077  1.00448538  1.00480031  1
  Fe  Fe1  1  0.17179151  0.17154858  0.17186072  1
  Fe  Fe2  1  0.00564194  0.00588736  0.33873349  1
  Ni  Ni3  1  1.00369012  0.33833433  1.00440926  1
  Fe  Fe4  1  0.17221352  0.50524171  0.17166874  1
  Ni  Ni5  1  1.00388961  0.33765234  0.33961432  1
  Fe  Fe6  1  1.00472082  0.67200536  1.00432567  1
  Ni  Ni7  1  0.17244018  0.83832771  0.17080926  1
  Fe  Fe8  1  0.00513254  0.67025902  0.33820291  1
  Ni  Ni9  1  0.33958593  1.00286650  0.00496089  1
  Ni  Ni10  1  0.50414579  0.17100984  0.17180503  1
  Fe  Fe11  1  0.33825890  0.00604426  0.33737248  1
  Fe  Fe12  1  0.33832461  0.33721109  0.00492332  1
  Fe  Fe13  1  0.50432599  0.50552179  0.17267020  1
  Ni  Ni14  1  0.33839909  0.33885315  0.33763517  1
  Ni  Ni15  1  0.33803653  0.67305558  1.00460305  1
  Ni  Ni16  1  0.50334665  0.83913372  0.17185689  1
  Ni  Ni17  1  0.33802702  0.67201976  0.33848171  1
  Ni  Ni18  1  0.67137165  1.00478486  0.00497997  1
  Fe  Fe19  1  0.83780411  0.17140931  0.17202205  1
  Fe  Fe20  1  0.67073469  0.00609806  0.33773847  1
  Fe  Fe21  1  0.67136208  0.33801272  0.00508512  1
  Ni  Ni22  1  0.83884560  0.50450422  0.17194305  1
  Ni  Ni23  1  0.67234918  0.33691190  0.33774981  1
  Fe  Fe24  1  0.67149289  0.67223617  1.00459914  1
  Fe  Fe25  1  0.83752621  0.83856372  0.17094314  1
  Fe  Fe26  1  0.67108756  0.66989352  0.33792841  1
  Ni  Ni27  1  0.17164765  0.17172420  0.50442446  1
  Fe  Fe28  1  0.00523226  0.00499628  0.67110501  1
  Fe  Fe29  1  0.17111786  0.17134993  0.83802106  1
  Fe  Fe30  1  0.17252801  0.50359364  0.50496072  1
  Fe  Fe31  1  0.00523674  0.33889830  0.67157872  1
  Fe  Fe32  1  0.17126444  0.50611913  0.83800928  1
  Fe  Fe33  1  0.17207369  0.83848653  0.50460371  1
  Ni  Ni34  1  0.00561295  0.67227970  0.67153559  1
  Fe  Fe35  1  0.17140092  0.83717007  0.83861211  1
  Ni  Ni36  1  0.50414972  0.17254976  0.50523866  1
  Fe  Fe37  1  0.33825819  0.00516716  0.67189968  1
  Fe  Fe38  1  0.50599365  0.17105437  0.83829594  1
  Ni  Ni39  1  0.50490256  0.50445506  0.50478151  1
  Ni  Ni40  1  0.33921837  0.33875181  0.67156128  1
  Fe  Fe41  1  0.50528001  0.50584960  0.83700760  1
  Fe  Fe42  1  0.50446856  0.83876188  0.50487978  1
  Ni  Ni43  1  0.33721038  0.67182091  0.67155111  1
  Ni  Ni44  1  0.50458908  0.83841475  0.83789162  1
  Ni  Ni45  1  0.83884361  0.17245319  0.50515976  1
  Fe  Fe46  1  0.67114681  1.00465051  0.67210284  1
  Fe  Fe47  1  0.83752923  0.17119024  0.83801917  1
  Fe  Fe48  1  0.83779857  0.50302495  0.50480540  1
  Ni  Ni49  1  0.67173328  0.33681421  0.67165839  1
  Ni  Ni50  1  0.83884136  0.50531695  0.83717540  1
  Fe  Fe51  1  0.83809344  0.83921293  0.50572116  1
  Fe  Fe52  1  0.67122345  0.67065202  0.67211116  1
  Ni  Ni53  1  0.83802719  0.83685739  0.83905370  1
" 