6584,Ni57Fe27Cr15_10,-235.84756233903, 200.212699248128,Ni57Fe27Cr15,"# generated using pymatgen
 data_Cr9Fe14Ni31
_symmetry_space_group_name_H-M   'P 1'
_cell_length_a   7.44019077
_cell_length_b   7.44019077
_cell_length_c   10.52201869
_cell_angle_alpha   90.00000000
_cell_angle_beta   90.00000000
_cell_angle_gamma   90.00000000
_symmetry_Int_Tables_number   1
_chemical_formula_structural   Cr9Fe14Ni31
_chemical_formula_sum   'Cr9 Fe14 Ni31'
_cell_volume   582.46148288
_cell_formula_units_Z   1
loop_
 _symmetry_equiv_pos_site_id
 _symmetry_equiv_pos_as_xyz
  1  'x, y, z'
loop_
 _atom_site_type_symbol
 _atom_site_label
 _atom_site_symmetry_multiplicity
 _atom_site_fract_x
 _atom_site_fract_y
 _atom_site_fract_z
 _atom_site_occupancy
  Ni  Ni0  1  0.00313192  0.00336415  0.00290481  1
  Ni  Ni1  1  0.16868393  0.16672695  0.16821679  1
  Fe  Fe2  1  1.00166492  1.00031844  0.33435636  1
  Ni  Ni3  1  0.00232638  0.33325011  1.00110119  1
  Cr  Cr4  1  0.16784829  0.50165930  0.16797225  1
  Fe  Fe5  1  0.00202724  0.33557458  0.33537656  1
  Fe  Fe6  1  0.99972030  0.66883668  0.00258357  1
  Ni  Ni7  1  0.16841509  0.83732107  0.16888719  1
  Ni  Ni8  1  1.00158862  0.66992327  0.33574847  1
  Ni  Ni9  1  0.33330119  1.00142667  0.00423532  1
  Ni  Ni10  1  0.50009808  0.16696412  0.16883358  1
  Fe  Fe11  1  0.33509009  0.00180987  0.33404576  1
  Fe  Fe12  1  0.33353381  0.33427957  0.00257982  1
  Ni  Ni13  1  0.50255109  0.50305512  0.16847998  1
  Ni  Ni14  1  0.33416745  0.33368407  0.33460235  1
  Fe  Fe15  1  0.33695278  0.66910067  0.00186925  1
  Ni  Ni16  1  0.50205163  0.83539387  0.16848592  1
  Ni  Ni17  1  0.33345274  0.66918564  0.33381453  1
  Fe  Fe18  1  0.66940866  0.99955322  0.00325196  1
  Ni  Ni19  1  0.83663349  0.16722790  0.16821057  1
  Ni  Ni20  1  0.66924478  1.00139279  0.33360264  1
  Cr  Cr21  1  0.66930236  0.33702413  0.00418574  1
  Ni  Ni22  1  0.83470609  0.50332093  0.16902532  1
  Cr  Cr23  1  0.66839782  0.33469460  0.33318372  1
  Ni  Ni24  1  0.66795224  0.66890145  0.00211877  1
  Ni  Ni25  1  0.83494747  0.83486506  0.16829665  1
  Ni  Ni26  1  0.67037514  0.66975030  0.33332773  1
  Fe  Fe27  1  0.16924394  0.16901228  0.50157321  1
  Cr  Cr28  1  1.00177513  0.00364687  0.66770841  1
  Ni  Ni29  1  0.16744576  0.17030898  0.83563635  1
  Fe  Fe30  1  0.16767001  0.50207392  0.50068264  1
  Ni  Ni31  1  1.00105627  0.33500677  0.66852028  1
  Fe  Fe32  1  0.16951859  0.49924535  0.83560192  1
  Ni  Ni33  1  0.16768258  0.83557099  0.50015195  1
  Cr  Cr34  1  1.00152477  0.66662449  0.66794219  1
  Cr  Cr35  1  0.17006379  0.83641200  0.83668737  1
  Ni  Ni36  1  0.50059201  0.16783057  0.50324868  1
  Ni  Ni37  1  0.33625865  0.00209621  0.66692694  1
  Cr  Cr38  1  0.50059210  0.16721227  0.83343585  1
  Cr  Cr39  1  0.50257888  0.50097812  0.50307707  1
  Fe  Fe40  1  0.33473670  0.33478140  0.66820671  1
  Ni  Ni41  1  0.50262911  0.50434805  0.83360649  1
  Cr  Cr42  1  0.50187216  0.83674546  0.50284596  1
  Ni  Ni43  1  0.33657097  0.66841325  0.66972396  1
  Ni  Ni44  1  0.50298097  0.83335505  0.83391625  1
  Fe  Fe45  1  0.83423790  0.16795826  0.50203134  1
  Ni  Ni46  1  0.66728977  0.00249032  0.66938937  1
  Fe  Fe47  1  0.83661744  0.16915766  0.83529049  1
  Ni  Ni48  1  0.83716407  0.50199574  0.50186922  1
  Ni  Ni49  1  0.67002578  0.33531624  0.66818415  1
  Ni  Ni50  1  0.83484978  0.50161432  0.83452146  1
  Ni  Ni51  1  0.83631967  0.83423909  0.50095963  1
  Ni  Ni52  1  0.66739532  0.66760581  0.66996801  1
  Fe  Fe53  1  0.83119613  0.83481781  0.83645913  1
" 