7932,Ni57Fe27Cr15_11,-235.234508775975, 196.931388636282,Ni57Fe27Cr15,"# generated using pymatgen
 data_Cr9Fe14Ni31
_symmetry_space_group_name_H-M   'P 1'
_cell_length_a   7.44515772
_cell_length_b   7.44515772
_cell_length_c   10.52904302
_cell_angle_alpha   90.00000000
_cell_angle_beta   90.00000000
_cell_angle_gamma   90.00000000
_symmetry_Int_Tables_number   1
_chemical_formula_structural   Cr9Fe14Ni31
_chemical_formula_sum   'Cr9 Fe14 Ni31'
_cell_volume   583.62878598
_cell_formula_units_Z   1
loop_
 _symmetry_equiv_pos_site_id
 _symmetry_equiv_pos_as_xyz
  1  'x, y, z'
loop_
 _atom_site_type_symbol
 _atom_site_label
 _atom_site_symmetry_multiplicity
 _atom_site_fract_x
 _atom_site_fract_y
 _atom_site_fract_z
 _atom_site_occupancy
  Fe  Fe0  1  0.00166208  1.00106581  1.00082335  1
  Fe  Fe1  1  0.16729221  0.16769661  0.16685339  1
  Ni  Ni2  1  0.00276989  0.99970669  0.33565913  1
  Ni  Ni3  1  0.00488779  0.33721694  1.00053616  1
  Ni  Ni4  1  0.16715143  0.50342143  0.16655037  1
  Ni  Ni5  1  1.00103293  0.33641633  0.33592439  1
  Ni  Ni6  1  0.00215968  0.66750656  0.00186404  1
  Ni  Ni7  1  0.16826508  0.83211997  0.16749304  1
  Ni  Ni8  1  1.00067885  0.66845941  0.33410721  1
  Ni  Ni9  1  0.33501633  0.00262135  0.00212070  1
  Ni  Ni10  1  0.50057027  0.16783381  0.16530636  1
  Cr  Cr11  1  0.33201232  0.99979437  0.33488555  1
  Ni  Ni12  1  0.33235352  0.33288768  0.00199466  1
  Fe  Fe13  1  0.50094204  0.50325700  0.16881977  1
  Cr  Cr14  1  0.33353468  0.33518357  0.33335355  1
  Fe  Fe15  1  0.33349190  0.66777420  0.00224307  1
  Ni  Ni16  1  0.49929744  0.83471723  0.16721379  1
  Ni  Ni17  1  0.33474191  0.66836966  0.33492174  1
  Ni  Ni18  1  0.66569536  0.99983791  1.00021693  1
  Cr  Cr19  1  0.83531347  0.16890992  0.16910551  1
  Cr  Cr20  1  0.66927776  0.99830874  0.33472418  1
  Cr  Cr21  1  0.66809910  0.33572589  1.00140510  1
  Ni  Ni22  1  0.83826494  0.50233702  0.17014867  1
  Ni  Ni23  1  0.66962033  0.33905508  0.33461926  1
  Cr  Cr24  1  0.67180497  0.66961818  0.00336144  1
  Ni  Ni25  1  0.83688150  0.83313495  0.16753519  1
  Ni  Ni26  1  0.66902939  0.66684533  0.33417044  1
  Ni  Ni27  1  0.16206043  0.16802320  0.50106239  1
  Ni  Ni28  1  1.00025938  1.00082425  0.66788294  1
  Fe  Fe29  1  0.16568102  0.16938888  0.83576083  1
  Fe  Fe30  1  0.16535562  0.50362940  0.50052760  1
  Ni  Ni31  1  1.00020800  0.33561834  0.66783402  1
  Fe  Fe32  1  0.16593768  0.50160841  0.83645603  1
  Ni  Ni33  1  0.16664524  0.83229579  0.50152054  1
  Ni  Ni34  1  1.00016698  0.66799631  0.66820304  1
  Fe  Fe35  1  0.16619657  0.83334623  0.83555961  1
  Cr  Cr36  1  0.50603796  0.16891497  0.50282631  1
  Cr  Cr37  1  0.33368848  1.00071411  0.66681675  1
  Fe  Fe38  1  0.50355140  0.16840094  0.83612126  1
  Fe  Fe39  1  0.50372457  0.50492776  0.50191430  1
  Cr  Cr40  1  0.33294669  0.33551235  0.66838285  1
  Ni  Ni41  1  0.50010273  0.50266059  0.83397477  1
  Ni  Ni42  1  0.50152393  0.82973943  0.50305713  1
  Fe  Fe43  1  0.33474538  0.66816246  0.66738581  1
  Fe  Fe44  1  0.50305892  0.83450994  0.83477348  1
  Ni  Ni45  1  0.83774838  0.16961696  0.50312403  1
  Ni  Ni46  1  0.67012919  0.99969172  0.66951211  1
  Ni  Ni47  1  0.83557622  0.16806468  0.83282886  1
  Fe  Fe48  1  0.83514492  0.50211646  0.50152798  1
  Ni  Ni49  1  0.67026182  0.33651658  0.66920335  1
  Ni  Ni50  1  0.83600454  0.49997463  0.83280865  1
  Ni  Ni51  1  0.83621794  0.83450755  0.50279507  1
  Ni  Ni52  1  0.66937663  0.66830217  0.66790419  1
  Fe  Fe53  1  0.83518629  0.83449836  0.83366320  1
" 