4817,Ni57Fe34Cr8_19,-238.516894530413, 213.049274410984,Ni57Fe34Cr8,"# generated using pymatgen
 data_Cr5Fe18Ni31
_symmetry_space_group_name_H-M   'P 1'
_cell_length_a   7.41749396
_cell_length_b   7.41749396
_cell_length_c   10.48992056
_cell_angle_alpha   90.00000000
_cell_angle_beta   90.00000000
_cell_angle_gamma   90.00000000
_symmetry_Int_Tables_number   1
_chemical_formula_structural   Cr5Fe18Ni31
_chemical_formula_sum   'Cr5 Fe18 Ni31'
_cell_volume   577.14721257
_cell_formula_units_Z   1
loop_
 _symmetry_equiv_pos_site_id
 _symmetry_equiv_pos_as_xyz
  1  'x, y, z'
loop_
 _atom_site_type_symbol
 _atom_site_label
 _atom_site_symmetry_multiplicity
 _atom_site_fract_x
 _atom_site_fract_y
 _atom_site_fract_z
 _atom_site_occupancy
  Fe  Fe0  1  0.00363496  1.00260151  0.00434023  1
  Fe  Fe1  1  0.16766503  0.17037186  0.16931680  1
  Ni  Ni2  1  1.00150731  0.00489267  0.33592920  1
  Fe  Fe3  1  0.00443388  0.33644248  1.00284991  1
  Fe  Fe4  1  0.17164957  0.50385591  0.17034773  1
  Ni  Ni5  1  0.00433638  0.33551334  0.33669448  1
  Fe  Fe6  1  0.00338009  0.67098819  1.00200497  1
  Ni  Ni7  1  0.16783181  0.83649180  0.16978198  1
  Fe  Fe8  1  0.00382317  0.67179701  0.33761589  1
  Ni  Ni9  1  0.33595376  0.00340565  1.00201651  1
  Cr  Cr10  1  0.50394667  0.17176873  0.16930805  1
  Cr  Cr11  1  0.33614846  1.00195972  0.33817582  1
  Ni  Ni12  1  0.33545867  0.33713177  1.00302717  1
  Ni  Ni13  1  0.50189910  0.50367737  0.17034497  1
  Fe  Fe14  1  0.33627836  0.33898863  0.33800794  1
  Fe  Fe15  1  0.33789610  0.66954194  0.00399433  1
  Fe  Fe16  1  0.50446986  0.83404979  0.16939703  1
  Ni  Ni17  1  0.33780028  0.66800029  0.33549685  1
  Ni  Ni18  1  0.66985371  1.00131595  0.00415758  1
  Fe  Fe19  1  0.83790072  0.16811964  0.17022064  1
  Ni  Ni20  1  0.67272320  1.00166839  0.33653924  1
  Ni  Ni21  1  0.66927272  0.33813961  1.00252338  1
  Cr  Cr22  1  0.83534519  0.50472355  0.17008637  1
  Fe  Fe23  1  0.66958599  0.33670358  0.33762082  1
  Ni  Ni24  1  0.66958002  0.67055900  1.00246842  1
  Ni  Ni25  1  0.83793053  0.83822398  0.17003614  1
  Ni  Ni26  1  0.66826673  0.67083656  0.33699444  1
  Ni  Ni27  1  0.17046950  0.17079649  0.50411302  1
  Ni  Ni28  1  0.00405085  0.00352924  0.66924743  1
  Ni  Ni29  1  0.17296855  0.16996873  0.83669024  1
  Ni  Ni30  1  0.17002797  0.50223260  0.50160712  1
  Ni  Ni31  1  0.00490452  0.33745849  0.67002824  1
  Ni  Ni32  1  0.16971966  0.50242403  0.83796049  1
  Fe  Fe33  1  0.16906315  0.83686521  0.50296884  1
  Ni  Ni34  1  1.00104509  0.66903435  0.66975176  1
  Fe  Fe35  1  0.16922577  0.83749646  0.83749927  1
  Ni  Ni36  1  0.50307500  0.17127759  0.50486875  1
  Ni  Ni37  1  0.33669692  0.00587457  0.67036212  1
  Ni  Ni38  1  0.50081184  0.17048307  0.83600906  1
  Ni  Ni39  1  0.50333439  0.50155666  0.50183781  1
  Ni  Ni40  1  0.33543422  0.33472839  0.66987710  1
  Ni  Ni41  1  0.50385108  0.50168543  0.83784436  1
  Fe  Fe42  1  0.50465821  0.83667831  0.50321779  1
  Cr  Cr43  1  0.33721743  0.66949889  0.67071385  1
  Fe  Fe44  1  0.50458700  0.83758004  0.83740920  1
  Fe  Fe45  1  0.83712447  0.17007574  0.50311661  1
  Ni  Ni46  1  0.66927767  1.00199718  0.66932686  1
  Cr  Cr47  1  0.83586984  0.16890927  0.83662387  1
  Fe  Fe48  1  0.83693431  0.50300994  0.50378208  1
  Fe  Fe49  1  0.66886081  0.33730035  0.66997899  1
  Ni  Ni50  1  0.83645064  0.50653209  0.83570958  1
  Ni  Ni51  1  0.83715800  0.83673738  0.50294326  1
  Ni  Ni52  1  0.67201747  0.67028488  0.67055750  1
  Ni  Ni53  1  0.83697079  0.83459310  0.83703535  1
" 