5886,Ni57Fe34Cr8_12,-237.713175570154, 209.957849001128,Ni57Fe34Cr8,"# generated using pymatgen
 data_Cr5Fe18Ni31
_symmetry_space_group_name_H-M   'P 1'
_cell_length_a   7.41477069
_cell_length_b   7.41477069
_cell_length_c   10.48606927
_cell_angle_alpha   90.00000000
_cell_angle_beta   90.00000000
_cell_angle_gamma   90.00000000
_symmetry_Int_Tables_number   1
_chemical_formula_structural   Cr5Fe18Ni31
_chemical_formula_sum   'Cr5 Fe18 Ni31'
_cell_volume   576.51176118
_cell_formula_units_Z   1
loop_
 _symmetry_equiv_pos_site_id
 _symmetry_equiv_pos_as_xyz
  1  'x, y, z'
loop_
 _atom_site_type_symbol
 _atom_site_label
 _atom_site_symmetry_multiplicity
 _atom_site_fract_x
 _atom_site_fract_y
 _atom_site_fract_z
 _atom_site_occupancy
  Fe  Fe0  1  1.00244333  1.00347078  1.00327255  1
  Ni  Ni1  1  0.16814422  0.16868466  0.16969688  1
  Ni  Ni2  1  0.00633355  0.00478910  0.33498171  1
  Ni  Ni3  1  1.00178568  0.33726335  1.00209207  1
  Cr  Cr4  1  0.16957696  0.50472617  0.17186784  1
  Ni  Ni5  1  1.00089958  0.33633600  0.33832694  1
  Ni  Ni6  1  1.00055233  0.66981933  1.00274891  1
  Fe  Fe7  1  0.16886666  0.83813830  0.17023819  1
  Ni  Ni8  1  1.00346745  0.66955469  0.33734164  1
  Ni  Ni9  1  0.33709265  0.00398280  1.00257276  1
  Ni  Ni10  1  0.50515088  0.16956746  0.17118280  1
  Ni  Ni11  1  0.33668104  0.00439495  0.33800448  1
  Cr  Cr12  1  0.33794046  0.33432986  0.00484577  1
  Ni  Ni13  1  0.50598079  0.50367987  0.17082046  1
  Fe  Fe14  1  0.33627836  0.33602718  0.33717080  1
  Fe  Fe15  1  0.33686548  0.67048422  1.00247066  1
  Cr  Cr16  1  0.50295125  0.83651616  0.17043894  1
  Ni  Ni17  1  0.33814922  0.67195966  0.33889058  1
  Ni  Ni18  1  0.66905319  1.00300102  1.00256986  1
  Ni  Ni19  1  0.83724183  0.16984373  0.17009046  1
  Fe  Fe20  1  0.67071564  0.00579048  0.33644380  1
  Fe  Fe21  1  0.67155541  0.33617079  0.00462394  1
  Ni  Ni22  1  0.83695886  0.50301342  0.16983417  1
  Ni  Ni23  1  0.66975493  0.33786341  0.33548110  1
  Ni  Ni24  1  0.67158076  0.66924653  0.00384813  1
  Fe  Fe25  1  0.83814056  0.83660494  0.17002713  1
  Fe  Fe26  1  0.67027525  0.66810950  0.33717409  1
  Ni  Ni27  1  0.17071108  0.17177520  0.50355943  1
  Cr  Cr28  1  0.00788146  0.00403169  0.67122907  1
  Fe  Fe29  1  0.17157262  0.17178073  0.83681548  1
  Ni  Ni30  1  0.16971749  0.50350195  0.50384829  1
  Ni  Ni31  1  1.00272978  0.33880234  0.67009737  1
  Ni  Ni32  1  0.16946251  0.50603876  0.83574228  1
  Ni  Ni33  1  0.17082020  0.83577411  0.50187678  1
  Ni  Ni34  1  1.00177036  0.66773626  0.66996371  1
  Ni  Ni35  1  0.16988885  0.83456712  0.83839075  1
  Ni  Ni36  1  0.50418379  0.17006646  0.50301078  1
  Ni  Ni37  1  0.33912500  0.00402326  0.67036492  1
  Ni  Ni38  1  0.50686202  0.17039787  0.83641647  1
  Ni  Ni39  1  0.50257696  0.50323979  0.50234326  1
  Fe  Fe40  1  0.33693595  0.33773135  0.67063127  1
  Ni  Ni41  1  0.50362527  0.50391517  0.83764666  1
  Ni  Ni42  1  0.50338211  0.83750690  0.50554475  1
  Fe  Fe43  1  0.33519290  0.67045027  0.66921933  1
  Fe  Fe44  1  0.50299071  0.83664273  0.83662232  1
  Fe  Fe45  1  0.83685453  0.17255436  0.50256109  1
  Fe  Fe46  1  0.67045756  0.00361400  0.67148798  1
  Ni  Ni47  1  0.83559731  0.17042540  0.83743702  1
  Fe  Fe48  1  0.83634902  0.50208458  0.50289297  1
  Fe  Fe49  1  0.66980802  0.33699846  0.66949007  1
  Fe  Fe50  1  0.83648971  0.50264982  0.83715392  1
  Cr  Cr51  1  0.83689839  0.83802764  0.50203812  1
  Ni  Ni52  1  0.66869502  0.66790084  0.67007315  1
  Fe  Fe53  1  0.83534520  0.83475469  0.83684627  1
" 