2242,Ni57Fe43_2,-240.055381096843, 218.648137173668,Ni57Fe43,"# generated using pymatgen
 data_Fe31Ni23
_symmetry_space_group_name_H-M   'P 1'
_cell_length_a   7.40045551
_cell_length_b   7.40045551
_cell_length_c   10.46582455
_cell_angle_alpha   90.00000000
_cell_angle_beta   90.00000000
_cell_angle_gamma   90.00000000
_symmetry_Int_Tables_number   1
_chemical_formula_structural   Fe31Ni23
_chemical_formula_sum   'Fe31 Ni23'
_cell_volume   573.17911045
_cell_formula_units_Z   1
loop_
 _symmetry_equiv_pos_site_id
 _symmetry_equiv_pos_as_xyz
  1  'x, y, z'
loop_
 _atom_site_type_symbol
 _atom_site_label
 _atom_site_symmetry_multiplicity
 _atom_site_fract_x
 _atom_site_fract_y
 _atom_site_fract_z
 _atom_site_occupancy
  Ni  Ni0  1  1.00373827  1.00433031  1.00416365  1
  Fe  Fe1  1  0.17075936  0.17123332  0.17183149  1
  Ni  Ni2  1  0.00466973  1.00433240  0.33782522  1
  Fe  Fe3  1  1.00396351  0.33810472  1.00398677  1
  Ni  Ni4  1  0.17132969  0.50501237  0.17191979  1
  Fe  Fe5  1  0.00494369  0.33828468  0.33828632  1
  Ni  Ni6  1  0.00628450  0.67207912  1.00331218  1
  Fe  Fe7  1  0.17083367  0.83688599  0.17123789  1
  Ni  Ni8  1  0.00644343  0.67227050  0.33910609  1
  Fe  Fe9  1  0.33797235  1.00423627  1.00423602  1
  Fe  Fe10  1  0.50479487  0.17182292  0.17051354  1
  Fe  Fe11  1  0.33709881  1.00423452  0.33830358  1
  Fe  Fe12  1  0.33805130  0.33784218  0.00451171  1
  Fe  Fe13  1  0.50396020  0.50442734  0.17137955  1
  Fe  Fe14  1  0.33720350  0.33829567  0.33796420  1
  Ni  Ni15  1  0.33722783  0.67064270  1.00416717  1
  Fe  Fe16  1  0.50377475  0.83724689  0.17110494  1
  Ni  Ni17  1  0.33724785  0.67083395  0.33825311  1
  Ni  Ni18  1  0.67209139  0.00653586  1.00397843  1
  Fe  Fe19  1  0.83794134  0.17142133  0.17065720  1
  Fe  Fe20  1  0.67150086  1.00399684  0.33716547  1
  Ni  Ni21  1  0.67065644  0.33664969  1.00330947  1
  Fe  Fe22  1  0.83830426  0.50435770  0.17092719  1
  Ni  Ni23  1  0.67048250  0.33723228  0.33868108  1
  Fe  Fe24  1  0.67189115  0.67148924  1.00344463  1
  Fe  Fe25  1  0.83889353  0.83772173  0.17065406  1
  Fe  Fe26  1  0.67149144  0.67101066  0.33869968  1
  Ni  Ni27  1  0.17080743  0.16981181  0.50382882  1
  Ni  Ni28  1  1.00441745  0.00585782  0.67150491  1
  Fe  Fe29  1  0.17003806  0.17101129  0.83696930  1
  Fe  Fe30  1  0.17171780  0.50483392  0.50383667  1
  Ni  Ni31  1  1.00407443  0.33603998  0.67117385  1
  Fe  Fe32  1  0.17078963  0.50485289  0.83849485  1
  Ni  Ni33  1  0.17047978  0.83868578  0.50316204  1
  Fe  Fe34  1  1.00436272  0.67157504  0.67156742  1
  Ni  Ni35  1  0.17008950  0.83800260  0.83850989  1
  Fe  Fe36  1  0.50384758  0.17131769  0.50446667  1
  Fe  Fe37  1  0.33694994  1.00423178  0.67095332  1
  Ni  Ni38  1  0.50522500  0.17226624  0.83765772  1
  Ni  Ni39  1  0.50512039  0.50433682  0.50339580  1
  Fe  Fe40  1  0.33783529  0.33809895  0.67102076  1
  Ni  Ni41  1  0.50522057  0.50356764  0.83893999  1
  Fe  Fe42  1  0.50336717  0.83720515  0.50455550  1
  Ni  Ni43  1  0.33895065  0.67092042  0.67107792  1
  Fe  Fe44  1  0.50539926  0.83742908  0.83783723  1
  Fe  Fe45  1  0.83870371  0.17116153  0.50473367  1
  Fe  Fe46  1  0.67170157  1.00422655  0.67222254  1
  Ni  Ni47  1  0.83708718  0.17083056  0.83808463  1
  Fe  Fe48  1  0.83819133  0.50435787  0.50480876  1
  Fe  Fe49  1  0.67129219  0.33857890  0.67169652  1
  Ni  Ni50  1  0.83675032  0.50466395  0.83841384  1
  Fe  Fe51  1  0.83856821  0.83797781  0.50474141  1
  Ni  Ni52  1  0.66912919  0.67057740  0.67159992  1
  Ni  Ni53  1  0.83928961  0.83800559  0.83808182  1
" 