3064,Ni57Fe34Cr8_18,-238.839692418707, 213.851194274577,Ni57Fe34Cr8,"# generated using pymatgen
 data_Cr5Fe18Ni31
_symmetry_space_group_name_H-M   'P 1'
_cell_length_a   7.42283319
_cell_length_b   7.42283319
_cell_length_c   10.49747137
_cell_angle_alpha   90.00000000
_cell_angle_beta   90.00000000
_cell_angle_gamma   90.00000000
_symmetry_Int_Tables_number   1
_chemical_formula_structural   Cr5Fe18Ni31
_chemical_formula_sum   'Cr5 Fe18 Ni31'
_cell_volume   578.39442924
_cell_formula_units_Z   1
loop_
 _symmetry_equiv_pos_site_id
 _symmetry_equiv_pos_as_xyz
  1  'x, y, z'
loop_
 _atom_site_type_symbol
 _atom_site_label
 _atom_site_symmetry_multiplicity
 _atom_site_fract_x
 _atom_site_fract_y
 _atom_site_fract_z
 _atom_site_occupancy
  Ni  Ni0  1  0.00413835  1.00203965  1.00172089  1
  Ni  Ni1  1  0.17060627  0.16900346  0.16916679  1
  Ni  Ni2  1  0.00528538  1.00189220  0.33849137  1
  Ni  Ni3  1  0.00487393  0.33602409  1.00232482  1
  Ni  Ni4  1  0.16711587  0.50228572  0.16951204  1
  Ni  Ni5  1  0.00457110  0.33613894  0.33804152  1
  Fe  Fe6  1  0.00502685  0.66894113  1.00264034  1
  Ni  Ni7  1  0.17183663  0.83620433  0.16880835  1
  Fe  Fe8  1  0.00417628  0.66832949  0.33695760  1
  Ni  Ni9  1  0.33506496  1.00274439  0.00397178  1
  Fe  Fe10  1  0.50033186  0.16975075  0.17091450  1
  Ni  Ni11  1  0.33429254  1.00272532  0.33661908  1
  Ni  Ni12  1  0.33314879  0.33637897  0.00422319  1
  Fe  Fe13  1  0.50010728  0.50362166  0.17245711  1
  Ni  Ni14  1  0.33484925  0.33523900  0.33549453  1
  Ni  Ni15  1  0.33538564  0.66909828  0.00478356  1
  Ni  Ni16  1  0.50238025  0.83743238  0.17195709  1
  Fe  Fe17  1  0.33567048  0.66813781  0.33587602  1
  Ni  Ni18  1  0.67025773  1.00127457  0.00566565  1
  Cr  Cr19  1  0.83899874  0.17198095  0.17221358  1
  Fe  Fe20  1  0.66862320  0.00447079  0.33794012  1
  Cr  Cr21  1  0.66780366  0.33665431  1.00191758  1
  Ni  Ni22  1  0.83780343  0.50466904  0.17183501  1
  Ni  Ni23  1  0.66862507  0.34003816  0.33824334  1
  Cr  Cr24  1  0.67002035  0.67030338  0.00307811  1
  Fe  Fe25  1  0.83967802  0.83627876  0.17214242  1
  Ni  Ni26  1  0.66988626  0.67011191  0.33683129  1
  Ni  Ni27  1  0.17029628  0.16895152  0.50274894  1
  Fe  Fe28  1  0.00540581  0.00312630  0.66816353  1
  Ni  Ni29  1  0.16996369  0.16945649  0.83688241  1
  Fe  Fe30  1  0.17021375  0.50117509  0.50293888  1
  Ni  Ni31  1  0.00357941  0.33606559  0.66860388  1
  Fe  Fe32  1  0.17106124  0.50205907  0.83599861  1
  Fe  Fe33  1  0.17001660  0.83515244  0.50231444  1
  Ni  Ni34  1  0.00400711  0.66983463  0.66929688  1
  Fe  Fe35  1  0.16880434  0.83559324  0.83671867  1
  Ni  Ni36  1  0.49932943  0.17114209  0.50162444  1
  Fe  Fe37  1  0.33407490  0.00479639  0.66820535  1
  Ni  Ni38  1  0.49991205  0.16860214  0.83769463  1
  Ni  Ni39  1  0.50427468  0.50278608  0.50452297  1
  Ni  Ni40  1  0.33569218  0.33619663  0.66972470  1
  Fe  Fe41  1  0.50013952  0.50092348  0.83326405  1
  Fe  Fe42  1  0.50247252  0.83497638  0.50145330  1
  Ni  Ni43  1  0.33477374  0.66887948  0.66679960  1
  Cr  Cr44  1  0.50068160  0.83624208  0.83380083  1
  Fe  Fe45  1  0.83659846  0.17217592  0.50065542  1
  Cr  Cr46  1  0.67087284  0.00501637  0.66618586  1
  Fe  Fe47  1  0.83712649  0.17022896  0.83694752  1
  Ni  Ni48  1  0.83640188  0.50437901  0.50341306  1
  Ni  Ni49  1  0.66945877  0.33726915  0.66995088  1
  Ni  Ni50  1  0.83908947  0.50389212  0.83371450  1
  Ni  Ni51  1  0.83734609  0.83340584  0.50174810  1
  Ni  Ni52  1  0.67037372  0.66853700  0.66888336  1
  Fe  Fe53  1  0.83830188  0.83819372  0.83474413  1
" 