8051,Ni57Fe36Cr6_0,-238.163928403884, 213.152299529561,Ni57Fe36Cr6,"# generated using pymatgen
 data_Cr5Fe19Ni30
_symmetry_space_group_name_H-M   'P 1'
_cell_length_a   7.41905172
_cell_length_b   7.41905172
_cell_length_c   10.49212357
_cell_angle_alpha   90.00000000
_cell_angle_beta   90.00000000
_cell_angle_gamma   90.00000000
_symmetry_Int_Tables_number   1
_chemical_formula_structural   Cr5Fe19Ni30
_chemical_formula_sum   'Cr5 Fe19 Ni30'
_cell_volume   577.51091162
_cell_formula_units_Z   1
loop_
 _symmetry_equiv_pos_site_id
 _symmetry_equiv_pos_as_xyz
  1  'x, y, z'
loop_
 _atom_site_type_symbol
 _atom_site_label
 _atom_site_symmetry_multiplicity
 _atom_site_fract_x
 _atom_site_fract_y
 _atom_site_fract_z
 _atom_site_occupancy
  Fe  Fe0  1  1.00283274  0.00415626  1.00311937  1
  Ni  Ni1  1  0.16989042  0.16934831  0.16905887  1
  Fe  Fe2  1  0.00404262  1.00110117  0.33698829  1
  Ni  Ni3  1  1.00320765  0.33600605  0.00446048  1
  Fe  Fe4  1  0.16899605  0.50362428  0.16945231  1
  Fe  Fe5  1  0.00378758  0.33660394  0.33486535  1
  Ni  Ni6  1  1.00216445  0.67119623  0.00389456  1
  Fe  Fe7  1  0.16903691  0.83570592  0.16969772  1
  Ni  Ni8  1  0.00329932  0.67057079  0.33563979  1
  Ni  Ni9  1  0.33719135  0.00458977  0.00482017  1
  Fe  Fe10  1  0.50541754  0.16961137  0.17067255  1
  Fe  Fe11  1  0.33685928  1.00149713  0.33584762  1
  Ni  Ni12  1  0.33670267  0.33447442  0.00446199  1
  Ni  Ni13  1  0.50356716  0.50502205  0.16891020  1
  Ni  Ni14  1  0.33468656  0.33563860  0.33534737  1
  Ni  Ni15  1  0.33612811  0.67014036  0.00557768  1
  Ni  Ni16  1  0.50301199  0.83542473  0.17115157  1
  Ni  Ni17  1  0.33569742  0.66791353  0.33719355  1
  Ni  Ni18  1  0.67050013  0.00403438  0.00474263  1
  Ni  Ni19  1  0.83840637  0.17023369  0.17186438  1
  Ni  Ni20  1  0.67126643  1.00309256  0.33686203  1
  Ni  Ni21  1  0.67009432  0.33485398  1.00268010  1
  Ni  Ni22  1  0.83521637  0.50356470  0.16836989  1
  Fe  Fe23  1  0.66746825  0.33808761  0.33431711  1
  Ni  Ni24  1  0.67112075  0.67071515  0.00451733  1
  Ni  Ni25  1  0.83499153  0.83644395  0.16891472  1
  Ni  Ni26  1  0.67008667  0.67329831  0.33475361  1
  Ni  Ni27  1  0.17160332  0.16728176  0.50190113  1
  Ni  Ni28  1  1.00195968  1.00131972  0.66999403  1
  Ni  Ni29  1  0.16852603  0.16735805  0.83831934  1
  Fe  Fe30  1  0.17067194  0.50478096  0.50121612  1
  Cr  Cr31  1  0.00533500  0.33480381  0.66830239  1
  Cr  Cr32  1  0.16977187  0.50544326  0.83941467  1
  Ni  Ni33  1  0.17010056  0.83705800  0.50410452  1
  Ni  Ni34  1  1.00254749  0.67313816  0.67012120  1
  Ni  Ni35  1  0.16989667  0.83872549  0.83734839  1
  Ni  Ni36  1  0.50286965  0.17023771  0.50252942  1
  Fe  Fe37  1  0.33480449  1.00200883  0.66962522  1
  Fe  Fe38  1  0.50328265  0.16845413  0.83745657  1
  Fe  Fe39  1  0.50138815  0.50453412  0.50105260  1
  Cr  Cr40  1  0.33802449  0.33591705  0.67088707  1
  Fe  Fe41  1  0.50494380  0.50213798  0.83952246  1
  Fe  Fe42  1  0.50404402  0.83788972  0.50206407  1
  Fe  Fe43  1  0.33577020  0.67237692  0.66842954  1
  Cr  Cr44  1  0.50288045  0.83532136  0.83677607  1
  Fe  Fe45  1  0.83634392  0.16583260  0.50204741  1
  Ni  Ni46  1  0.67077699  1.00286715  0.66838488  1
  Ni  Ni47  1  0.83621508  0.17071579  0.83587860  1
  Cr  Cr48  1  0.83456818  0.50363445  0.50164900  1
  Fe  Fe49  1  0.67090391  0.33602430  0.67119142  1
  Fe  Fe50  1  0.83602836  0.50462743  0.83787789  1
  Ni  Ni51  1  0.83709285  0.83562540  0.50412960  1
  Ni  Ni52  1  0.67006154  0.67148836  0.66978413  1
  Fe  Fe53  1  0.83858849  0.83811865  0.83648144  1
" 