3515,Ni57Fe27Cr15_18,-235.456600307195, 200.486882617574,Ni57Fe27Cr15,"# generated using pymatgen
 data_Cr9Fe14Ni31
_symmetry_space_group_name_H-M   'P 1'
_cell_length_a   7.43745674
_cell_length_b   7.43745674
_cell_length_c   10.51815220
_cell_angle_alpha   90.00000000
_cell_angle_beta   90.00000000
_cell_angle_gamma   90.00000000
_symmetry_Int_Tables_number   1
_chemical_formula_structural   Cr9Fe14Ni31
_chemical_formula_sum   'Cr9 Fe14 Ni31'
_cell_volume   581.81961234
_cell_formula_units_Z   1
loop_
 _symmetry_equiv_pos_site_id
 _symmetry_equiv_pos_as_xyz
  1  'x, y, z'
loop_
 _atom_site_type_symbol
 _atom_site_label
 _atom_site_symmetry_multiplicity
 _atom_site_fract_x
 _atom_site_fract_y
 _atom_site_fract_z
 _atom_site_occupancy
  Fe  Fe0  1  1.00018178  1.00155550  1.00108978  1
  Ni  Ni1  1  0.16766581  0.16593474  0.16580665  1
  Ni  Ni2  1  0.99839115  0.99953602  0.33437512  1
  Cr  Cr3  1  1.00090294  0.33736521  0.00295239  1
  Fe  Fe4  1  0.16663974  0.50535756  0.16840260  1
  Cr  Cr5  1  0.99995392  0.33630625  0.33344468  1
  Ni  Ni6  1  0.99840133  0.66967567  1.00065061  1
  Cr  Cr7  1  0.16735189  0.83427093  0.16811494  1
  Ni  Ni8  1  0.99978912  0.67022537  0.33658045  1
  Ni  Ni9  1  0.33597164  1.00110617  1.00197997  1
  Fe  Fe10  1  0.50583588  0.16653288  0.16607401  1
  Cr  Cr11  1  0.33689172  0.99890381  0.33595970  1
  Ni  Ni12  1  0.33540020  0.33328757  0.00323886  1
  Cr  Cr13  1  0.50497383  0.50418304  0.16689213  1
  Cr  Cr14  1  0.33621902  0.33786401  0.33392546  1
  Fe  Fe15  1  0.33611268  0.66779101  0.99879117  1
  Ni  Ni16  1  0.50413768  0.83516057  0.16678139  1
  Ni  Ni17  1  0.33627639  0.67013053  0.33697875  1
  Fe  Fe18  1  0.66915917  1.00097414  0.00201439  1
  Ni  Ni19  1  0.83450245  0.16749156  0.16870718  1
  Fe  Fe20  1  0.67119621  0.99953531  0.33502504  1
  Ni  Ni21  1  0.66955526  0.33685120  1.00189865  1
  Ni  Ni22  1  0.83365918  0.50376874  0.16881215  1
  Ni  Ni23  1  0.67131947  0.33562066  0.33510937  1
  Ni  Ni24  1  0.67073149  0.67023156  1.00105455  1
  Ni  Ni25  1  0.83464093  0.83463511  0.16798552  1
  Fe  Fe26  1  0.66942805  0.66972786  0.33622519  1
  Cr  Cr27  1  0.16557830  0.16533564  0.50656511  1
  Ni  Ni28  1  1.00021397  1.00062658  0.67095180  1
  Fe  Fe29  1  0.16937700  0.16851904  0.83426840  1
  Ni  Ni30  1  0.16706266  0.50681016  0.50373042  1
  Ni  Ni31  1  0.99989152  0.33602106  0.66970193  1
  Fe  Fe32  1  0.17082966  0.50448770  0.83398858  1
  Ni  Ni33  1  0.16661292  0.83292831  0.50313943  1
  Fe  Fe34  1  1.00145761  0.66848922  0.66933361  1
  Ni  Ni35  1  0.16729569  0.83741112  0.83513580  1
  Cr  Cr36  1  0.50554052  0.16985711  0.50506490  1
  Ni  Ni37  1  0.33491795  0.99721104  0.66912747  1
  Cr  Cr38  1  0.50234001  0.17002362  0.83401692  1
  Ni  Ni39  1  0.50495018  0.50450215  0.50425065  1
  Ni  Ni40  1  0.33422515  0.33950695  0.66916267  1
  Ni  Ni41  1  0.50549877  0.50275339  0.83418882  1
  Ni  Ni42  1  0.50196324  0.83230488  0.50354955  1
  Ni  Ni43  1  0.33698831  0.67014784  0.66887827  1
  Ni  Ni44  1  0.50016820  0.83390317  0.83552688  1
  Fe  Fe45  1  0.83493293  0.16793703  0.50320795  1
  Ni  Ni46  1  0.67034189  0.99779350  0.66856574  1
  Fe  Fe47  1  0.83467620  0.16802553  0.83390676  1
  Ni  Ni48  1  0.83406147  0.50237635  0.50251196  1
  Ni  Ni49  1  0.67215112  0.33788782  0.66878988  1
  Ni  Ni50  1  0.83394213  0.50201320  0.83479926  1
  Fe  Fe51  1  0.83577085  0.83405874  0.50220838  1
  Ni  Ni52  1  0.66810326  0.66917722  0.66846574  1
  Fe  Fe53  1  0.83324251  0.83329157  0.83551536  1
" 