3523,Ni57Fe27Cr15_3,-235.197206552876, 200.547172145017,Ni57Fe27Cr15,"# generated using pymatgen
 data_Cr9Fe14Ni31
_symmetry_space_group_name_H-M   'P 1'
_cell_length_a   7.43970731
_cell_length_b   7.43970731
_cell_length_c   10.52133498
_cell_angle_alpha   90.00000000
_cell_angle_beta   90.00000000
_cell_angle_gamma   90.00000000
_symmetry_Int_Tables_number   1
_chemical_formula_structural   Cr9Fe14Ni31
_chemical_formula_sum   'Cr9 Fe14 Ni31'
_cell_volume   582.34794564
_cell_formula_units_Z   1
loop_
 _symmetry_equiv_pos_site_id
 _symmetry_equiv_pos_as_xyz
  1  'x, y, z'
loop_
 _atom_site_type_symbol
 _atom_site_label
 _atom_site_symmetry_multiplicity
 _atom_site_fract_x
 _atom_site_fract_y
 _atom_site_fract_z
 _atom_site_occupancy
  Cr  Cr0  1  0.99921274  1.00152287  1.00097904  1
  Ni  Ni1  1  0.16659562  0.17031372  0.17127758  1
  Ni  Ni2  1  1.00138134  0.00494531  0.33573976  1
  Cr  Cr3  1  0.00246446  0.33583569  0.00356573  1
  Fe  Fe4  1  0.16836762  0.49868116  0.16988488  1
  Ni  Ni5  1  0.00254795  0.33198681  0.33440202  1
  Ni  Ni6  1  0.99955023  0.66800829  1.00105078  1
  Cr  Cr7  1  0.16882989  0.83537195  0.16950612  1
  Cr  Cr8  1  1.00154567  0.66767373  0.33540193  1
  Cr  Cr9  1  0.33703400  0.00362695  1.00028017  1
  Cr  Cr10  1  0.50277133  0.16854555  0.16726651  1
  Fe  Fe11  1  0.33484536  0.00200525  0.33625964  1
  Ni  Ni12  1  0.33507264  0.33501390  1.00027557  1
  Cr  Cr13  1  0.50319980  0.50256536  0.16886203  1
  Ni  Ni14  1  0.33333693  0.33527374  0.33620771  1
  Cr  Cr15  1  0.33501268  0.66720575  1.00057849  1
  Ni  Ni16  1  0.50452608  0.83428621  0.17090630  1
  Ni  Ni17  1  0.33746219  0.66874899  0.33653333  1
  Ni  Ni18  1  0.66906898  1.00067314  0.00210765  1
  Ni  Ni19  1  0.83586881  0.16912190  0.17039025  1
  Fe  Fe20  1  0.66941716  1.00143212  0.33569602  1
  Ni  Ni21  1  0.66832163  0.33456138  0.99989304  1
  Fe  Fe22  1  0.83465086  0.50138052  0.16830298  1
  Ni  Ni23  1  0.66962740  0.33477463  0.33702271  1
  Ni  Ni24  1  0.67045597  0.67027760  1.00126544  1
  Fe  Fe25  1  0.83170024  0.83604218  0.16868869  1
  Ni  Ni26  1  0.66616724  0.66991842  0.33592805  1
  Fe  Fe27  1  0.16841618  0.16978759  0.50142187  1
  Fe  Fe28  1  1.00138062  0.00188241  0.66847605  1
  Ni  Ni29  1  0.16937932  0.16842156  0.83309424  1
  Ni  Ni30  1  0.16854848  0.50122118  0.50143344  1
  Ni  Ni31  1  0.00221554  0.33488717  0.66796528  1
  Fe  Fe32  1  0.16700426  0.50088370  0.83387633  1
  Ni  Ni33  1  0.16770868  0.83623078  0.50204667  1
  Ni  Ni34  1  1.00077125  0.66881301  0.66892616  1
  Ni  Ni35  1  0.16770395  0.83563136  0.83383934  1
  Ni  Ni36  1  0.50184269  0.16992129  0.50215562  1
  Fe  Fe37  1  0.33543851  0.00341877  0.66915752  1
  Fe  Fe38  1  0.50294312  0.16917783  0.83414146  1
  Ni  Ni39  1  0.50322200  0.49993048  0.50101984  1
  Ni  Ni40  1  0.33453095  0.33338028  0.66902166  1
  Fe  Fe41  1  0.50369070  0.49984179  0.83506360  1
  Fe  Fe42  1  0.50311410  0.83432637  0.50101217  1
  Cr  Cr43  1  0.33499837  0.66813522  0.66784888  1
  Ni  Ni44  1  0.50312858  0.83571203  0.83500119  1
  Fe  Fe45  1  0.83506243  0.16937097  0.50169613  1
  Ni  Ni46  1  0.66877332  0.00187601  0.66868093  1
  Ni  Ni47  1  0.83366951  0.16998174  0.83369561  1
  Ni  Ni48  1  0.83374224  0.50158233  0.50233740  1
  Ni  Ni49  1  0.66876520  0.33402206  0.66858896  1
  Ni  Ni50  1  0.83374576  0.50212162  0.83492948  1
  Ni  Ni51  1  0.83559813  0.83484905  0.50312472  1
  Ni  Ni52  1  0.67027549  0.66961315  0.66832368  1
  Fe  Fe53  1  0.83451853  0.83440989  0.83407208  1
" 