1581,Ni57Fe36Cr6_14,-238.122895539458, 210.902841115549,Ni57Fe36Cr6,"# generated using pymatgen
 data_Cr5Fe19Ni30
_symmetry_space_group_name_H-M   'P 1'
_cell_length_a   7.42172437
_cell_length_b   7.42172437
_cell_length_c   10.49590326
_cell_angle_alpha   90.00000000
_cell_angle_beta   90.00000000
_cell_angle_gamma   90.00000000
_symmetry_Int_Tables_number   1
_chemical_formula_structural   Cr5Fe19Ni30
_chemical_formula_sum   'Cr5 Fe19 Ni30'
_cell_volume   578.13526623
_cell_formula_units_Z   1
loop_
 _symmetry_equiv_pos_site_id
 _symmetry_equiv_pos_as_xyz
  1  'x, y, z'
loop_
 _atom_site_type_symbol
 _atom_site_label
 _atom_site_symmetry_multiplicity
 _atom_site_fract_x
 _atom_site_fract_y
 _atom_site_fract_z
 _atom_site_occupancy
  Ni  Ni0  1  1.00188751  0.00551288  0.00364278  1
  Ni  Ni1  1  0.16887089  0.16917279  0.16942542  1
  Ni  Ni2  1  1.00275335  0.00439849  0.33529717  1
  Fe  Fe3  1  0.00380841  0.33371086  1.00205309  1
  Ni  Ni4  1  0.17242402  0.50256361  0.17034849  1
  Fe  Fe5  1  0.00417698  0.33617947  0.33734992  1
  Cr  Cr6  1  0.00472532  0.67076462  1.00294798  1
  Fe  Fe7  1  0.17009540  0.83700647  0.17076542  1
  Fe  Fe8  1  0.00361770  0.67097632  0.33768229  1
  Fe  Fe9  1  0.33525773  1.00239866  1.00169578  1
  Cr  Cr10  1  0.50222341  0.17004026  0.16925043  1
  Fe  Fe11  1  0.33526256  1.00208611  0.33799291  1
  Fe  Fe12  1  0.33560436  0.33679535  1.00257711  1
  Ni  Ni13  1  0.50118007  0.50470900  0.16945033  1
  Fe  Fe14  1  0.33565222  0.33758932  0.33707152  1
  Ni  Ni15  1  0.33799969  0.66829769  0.00405563  1
  Fe  Fe16  1  0.50319234  0.83451819  0.16960152  1
  Ni  Ni17  1  0.33717416  0.66846669  0.33553814  1
  Ni  Ni18  1  0.67155386  0.00406833  1.00277816  1
  Ni  Ni19  1  0.83817208  0.16686301  0.16942022  1
  Fe  Fe20  1  0.67080579  1.00156698  0.33692739  1
  Fe  Fe21  1  0.66973949  0.33621242  1.00126230  1
  Cr  Cr22  1  0.83536246  0.50417269  0.17008886  1
  Fe  Fe23  1  0.66934421  0.33699585  0.33793115  1
  Fe  Fe24  1  0.66803898  0.67110971  1.00233317  1
  Ni  Ni25  1  0.83606342  0.83824880  0.17019359  1
  Ni  Ni26  1  0.66763059  0.66931386  0.33615576  1
  Ni  Ni27  1  0.17197732  0.16982825  0.50255585  1
  Cr  Cr28  1  1.00260956  0.00396945  0.67028059  1
  Ni  Ni29  1  0.17117872  0.16974623  0.83718884  1
  Ni  Ni30  1  0.16970547  0.50330385  0.50391504  1
  Ni  Ni31  1  0.00399725  0.33767357  0.66997685  1
  Fe  Fe32  1  0.16987773  0.50197505  0.83547006  1
  Ni  Ni33  1  0.16931562  0.83604819  0.50244688  1
  Ni  Ni34  1  0.00372857  0.66771082  0.66885762  1
  Fe  Fe35  1  0.17097270  0.83650839  0.83584838  1
  Ni  Ni36  1  0.50119488  0.16906214  0.50308391  1
  Ni  Ni37  1  0.33770944  1.00276705  0.66971791  1
  Ni  Ni38  1  0.50138807  0.16904129  0.83680373  1
  Ni  Ni39  1  0.50262472  0.50312503  0.50209342  1
  Fe  Fe40  1  0.33529645  0.33627718  0.66953402  1
  Ni  Ni41  1  0.50269511  0.50370504  0.83759519  1
  Fe  Fe42  1  0.50248078  0.83553261  0.50343158  1
  Ni  Ni43  1  0.33640093  0.66947442  0.66959375  1
  Fe  Fe44  1  0.50383122  0.83690505  0.83610632  1
  Fe  Fe45  1  0.83706554  0.17008897  0.50169009  1
  Ni  Ni46  1  0.66817880  1.00255076  0.66907319  1
  Ni  Ni47  1  0.83658018  0.16873411  0.83813314  1
  Ni  Ni48  1  0.83683114  0.50586619  0.50283596  1
  Cr  Cr49  1  0.67044972  0.33593922  0.66935821  1
  Ni  Ni50  1  0.83589393  0.50470606  0.83610065  1
  Ni  Ni51  1  0.83609503  0.83460646  0.50280191  1
  Ni  Ni52  1  0.66900796  0.67024323  0.67040981  1
  Ni  Ni53  1  0.83518067  0.83575748  0.83614508  1
" 