1880,Ni57Fe34Cr8_11,-238.052937420159, 204.711150571721,Ni57Fe34Cr8,"# generated using pymatgen
 data_Cr5Fe18Ni31
_symmetry_space_group_name_H-M   'P 1'
_cell_length_a   7.42233071
_cell_length_b   7.42233071
_cell_length_c   10.49676076
_cell_angle_alpha   90.00000000
_cell_angle_beta   90.00000000
_cell_angle_gamma   90.00000000
_symmetry_Int_Tables_number   1
_chemical_formula_structural   Cr5Fe18Ni31
_chemical_formula_sum   'Cr5 Fe18 Ni31'
_cell_volume   578.27697519
_cell_formula_units_Z   1
loop_
 _symmetry_equiv_pos_site_id
 _symmetry_equiv_pos_as_xyz
  1  'x, y, z'
loop_
 _atom_site_type_symbol
 _atom_site_label
 _atom_site_symmetry_multiplicity
 _atom_site_fract_x
 _atom_site_fract_y
 _atom_site_fract_z
 _atom_site_occupancy
  Fe  Fe0  1  1.00219153  0.00390417  0.00305054  1
  Cr  Cr1  1  0.17007102  0.17036659  0.16968009  1
  Ni  Ni2  1  1.00036231  1.00086868  0.33577432  1
  Ni  Ni3  1  0.00363098  0.33676428  1.00193199  1
  Fe  Fe4  1  0.17165324  0.50375730  0.16930265  1
  Fe  Fe5  1  1.00213809  0.33673993  0.33748098  1
  Ni  Ni6  1  0.00648549  0.66968770  0.00358350  1
  Fe  Fe7  1  0.16959419  0.83506443  0.17029440  1
  Fe  Fe8  1  0.00374896  0.67039239  0.33750335  1
  Fe  Fe9  1  0.33759603  1.00294808  1.00206863  1
  Ni  Ni10  1  0.50380241  0.16928157  0.16926696  1
  Fe  Fe11  1  0.33825774  1.00184250  0.33665303  1
  Ni  Ni12  1  0.33672006  0.33734020  1.00275838  1
  Fe  Fe13  1  0.50057575  0.50100717  0.17060834  1
  Ni  Ni14  1  0.33824377  0.33934280  0.33617953  1
  Fe  Fe15  1  0.33515081  0.66867733  1.00251841  1
  Fe  Fe16  1  0.50257621  0.83775539  0.17042776  1
  Ni  Ni17  1  0.33542223  0.66855333  0.33559010  1
  Ni  Ni18  1  0.66922812  0.00540157  0.00452705  1
  Fe  Fe19  1  0.83412372  0.16821458  0.16960043  1
  Ni  Ni20  1  0.67115539  0.00368845  0.33599517  1
  Ni  Ni21  1  0.66868435  0.33320528  1.00244979  1
  Cr  Cr22  1  0.83669231  0.50221041  0.16952615  1
  Ni  Ni23  1  0.66817167  0.33453449  0.33646753  1
  Cr  Cr24  1  0.66850428  0.66996967  1.00280556  1
  Fe  Fe25  1  0.83686720  0.83935926  0.17048582  1
  Fe  Fe26  1  0.66853109  0.67034453  0.33794540  1
  Cr  Cr27  1  0.16948266  0.16990797  0.50367124  1
  Ni  Ni28  1  1.00275253  1.00243948  0.67001140  1
  Fe  Fe29  1  0.16999646  0.17035246  0.83608785  1
  Ni  Ni30  1  0.16990335  0.50394594  0.50193136  1
  Ni  Ni31  1  1.00231626  0.33727613  0.67013693  1
  Ni  Ni32  1  0.17039082  0.50211394  0.83738633  1
  Ni  Ni33  1  0.16984801  0.83536320  0.50334156  1
  Ni  Ni34  1  0.00418133  0.66932107  0.66827591  1
  Fe  Fe35  1  0.17121803  0.83573196  0.83553107  1
  Fe  Fe36  1  0.50494594  0.16994700  0.50249876  1
  Ni  Ni37  1  0.33701222  1.00161096  0.66984262  1
  Fe  Fe38  1  0.50331246  0.17008620  0.83691072  1
  Ni  Ni39  1  0.50313003  0.50385932  0.50238633  1
  Ni  Ni40  1  0.33698167  0.33763861  0.67009921  1
  Ni  Ni41  1  0.50129450  0.50276051  0.83667873  1
  Ni  Ni42  1  0.50342427  0.83568962  0.50303424  1
  Ni  Ni43  1  0.33594380  0.66978595  0.67024934  1
  Ni  Ni44  1  0.50128704  0.83652845  0.83611627  1
  Ni  Ni45  1  0.83568005  0.16943476  0.50184617  1
  Ni  Ni46  1  0.66927725  0.00347729  0.66851351  1
  Ni  Ni47  1  0.83697616  0.17077970  0.83798654  1
  Ni  Ni48  1  0.83600143  0.50306756  0.50439762  1
  Ni  Ni49  1  0.66974198  0.33621036  0.67012427  1
  Fe  Fe50  1  0.83685122  0.50087255  0.83554494  1
  Ni  Ni51  1  0.83576542  0.83653366  0.50252630  1
  Ni  Ni52  1  0.66891207  0.66935042  0.66824478  1
  Cr  Cr53  1  0.83585945  0.83735825  0.83481547  1
" 