1886,Ni57Fe36Cr6_1,-238.380656544442, 212.998887561279,Ni57Fe36Cr6,"# generated using pymatgen
 data_Cr5Fe19Ni30
_symmetry_space_group_name_H-M   'P 1'
_cell_length_a   7.41871977
_cell_length_b   7.41871977
_cell_length_c   10.49165411
_cell_angle_alpha   90.00000000
_cell_angle_beta   90.00000000
_cell_angle_gamma   90.00000000
_symmetry_Int_Tables_number   1
_chemical_formula_structural   Cr5Fe19Ni30
_chemical_formula_sum   'Cr5 Fe19 Ni30'
_cell_volume   577.43339518
_cell_formula_units_Z   1
loop_
 _symmetry_equiv_pos_site_id
 _symmetry_equiv_pos_as_xyz
  1  'x, y, z'
loop_
 _atom_site_type_symbol
 _atom_site_label
 _atom_site_symmetry_multiplicity
 _atom_site_fract_x
 _atom_site_fract_y
 _atom_site_fract_z
 _atom_site_occupancy
  Ni  Ni0  1  1.00212207  1.00129398  1.00311407  1
  Cr  Cr1  1  0.17219803  0.16863127  0.17025388  1
  Fe  Fe2  1  0.00587684  1.00068734  0.33807587  1
  Fe  Fe3  1  1.00058609  0.33798737  1.00023194  1
  Cr  Cr4  1  0.16885884  0.50291474  0.17045205  1
  Ni  Ni5  1  1.00270484  0.33837907  0.33975592  1
  Ni  Ni6  1  1.00203540  0.67160250  1.00166538  1
  Ni  Ni7  1  0.16767828  0.83639563  0.17049093  1
  Ni  Ni8  1  0.00335970  0.66996977  0.33753341  1
  Fe  Fe9  1  0.33775328  1.00239294  1.00240752  1
  Ni  Ni10  1  0.50294469  0.17186787  0.16762094  1
  Ni  Ni11  1  0.33894126  1.00244446  0.33719801  1
  Fe  Fe12  1  0.33889887  0.33558875  1.00094023  1
  Fe  Fe13  1  0.50525364  0.50308444  0.17131683  1
  Ni  Ni14  1  0.33801878  0.33694694  0.33793654  1
  Cr  Cr15  1  0.33548732  0.67052618  1.00262550  1
  Fe  Fe16  1  0.50267720  0.83811541  0.16992622  1
  Ni  Ni17  1  0.33624138  0.67038540  0.33850396  1
  Ni  Ni18  1  0.66997297  0.00330620  1.00198484  1
  Cr  Cr19  1  0.83669812  0.16977286  0.17002338  1
  Cr  Cr20  1  0.66996609  0.00355531  0.33805351  1
  Ni  Ni21  1  0.66855197  0.33663757  1.00249701  1
  Fe  Fe22  1  0.83564058  0.50447313  0.17046509  1
  Fe  Fe23  1  0.66777995  0.33894304  0.33692269  1
  Ni  Ni24  1  0.67067617  0.66963477  0.00434149  1
  Ni  Ni25  1  0.83675262  0.83353572  0.16824007  1
  Fe  Fe26  1  0.66963746  0.66862251  0.33686387  1
  Ni  Ni27  1  0.17117668  0.17106952  0.50177101  1
  Ni  Ni28  1  1.00139961  0.00357601  0.66827800  1
  Ni  Ni29  1  0.17002649  0.17071494  0.83837613  1
  Ni  Ni30  1  0.16966902  0.50246261  0.50458717  1
  Ni  Ni31  1  0.00380549  0.33570978  0.67028017  1
  Fe  Fe32  1  0.16895725  0.50490829  0.83423103  1
  Ni  Ni33  1  0.16968134  0.83619553  0.50303397  1
  Ni  Ni34  1  0.00449091  0.67054530  0.67016280  1
  Ni  Ni35  1  0.16847293  0.83894059  0.83583429  1
  Ni  Ni36  1  0.50147542  0.17147789  0.50520271  1
  Fe  Fe37  1  0.33307495  1.00324215  0.66929519  1
  Fe  Fe38  1  0.50295501  0.16799200  0.83635876  1
  Ni  Ni39  1  0.50365531  0.50290169  0.50317232  1
  Ni  Ni40  1  0.33682362  0.33742101  0.67004501  1
  Fe  Fe41  1  0.50398572  0.50427634  0.83521092  1
  Ni  Ni42  1  0.50332627  0.83547705  0.50465427  1
  Ni  Ni43  1  0.33671343  0.66958872  0.66850034  1
  Ni  Ni44  1  0.50545975  0.83619596  0.83593604  1
  Fe  Fe45  1  0.83742260  0.17093774  0.50434825  1
  Fe  Fe46  1  0.66988466  1.00238620  0.66970448  1
  Fe  Fe47  1  0.83766460  0.16727103  0.83685620  1
  Ni  Ni48  1  0.83664156  0.50419808  0.50283568  1
  Fe  Fe49  1  0.67093544  0.33777503  0.66989840  1
  Fe  Fe50  1  0.83698980  0.50445282  0.83629465  1
  Ni  Ni51  1  0.83711319  0.83374800  0.50445789  1
  Fe  Fe52  1  0.67098623  0.66930982  0.66991703  1
  Ni  Ni53  1  0.83578666  0.83541712  0.83720249  1
" 