6165,Ni57Fe36Cr6_10,-238.431530713379, 212.379121263166,Ni57Fe36Cr6,"# generated using pymatgen
 data_Cr5Fe19Ni30
_symmetry_space_group_name_H-M   'P 1'
_cell_length_a   7.42195270
_cell_length_b   7.42195270
_cell_length_c   10.49622617
_cell_angle_alpha   90.00000000
_cell_angle_beta   90.00000000
_cell_angle_gamma   90.00000000
_symmetry_Int_Tables_number   1
_chemical_formula_structural   Cr5Fe19Ni30
_chemical_formula_sum   'Cr5 Fe19 Ni30'
_cell_volume   578.18862738
_cell_formula_units_Z   1
loop_
 _symmetry_equiv_pos_site_id
 _symmetry_equiv_pos_as_xyz
  1  'x, y, z'
loop_
 _atom_site_type_symbol
 _atom_site_label
 _atom_site_symmetry_multiplicity
 _atom_site_fract_x
 _atom_site_fract_y
 _atom_site_fract_z
 _atom_site_occupancy
  Fe  Fe0  1  1.00081721  1.00234432  0.00394718  1
  Ni  Ni1  1  0.17102469  0.16856008  0.16768976  1
  Fe  Fe2  1  1.00217809  1.00216045  0.33570823  1
  Ni  Ni3  1  0.00374967  0.33445648  1.00163511  1
  Fe  Fe4  1  0.16970012  0.50087874  0.16838213  1
  Cr  Cr5  1  1.00279633  0.33529792  0.33731774  1
  Ni  Ni6  1  1.00196899  0.66904103  0.00310513  1
  Fe  Fe7  1  0.16821003  0.83814125  0.17078493  1
  Fe  Fe8  1  0.00333301  0.67067551  0.33677252  1
  Fe  Fe9  1  0.33774352  0.00464216  0.00340251  1
  Ni  Ni10  1  0.50230767  0.17016983  0.17042483  1
  Ni  Ni11  1  0.33641868  1.00228187  0.33545775  1
  Fe  Fe12  1  0.33654224  0.33636095  1.00250708  1
  Fe  Fe13  1  0.50407031  0.50165160  0.17084936  1
  Ni  Ni14  1  0.33704990  0.33549541  0.33513534  1
  Cr  Cr15  1  0.33882319  0.67031357  0.00415769  1
  Fe  Fe16  1  0.50607559  0.83842946  0.17054426  1
  Fe  Fe17  1  0.33752730  0.66853225  0.33705896  1
  Fe  Fe18  1  0.67074573  1.00295796  1.00231882  1
  Ni  Ni19  1  0.83541308  0.16831343  0.16942113  1
  Fe  Fe20  1  0.66875452  0.00435782  0.33678618  1
  Fe  Fe21  1  0.66938807  0.33599182  1.00202560  1
  Cr  Cr22  1  0.83457384  0.50379447  0.16762230  1
  Ni  Ni23  1  0.66877798  0.33638505  0.33679704  1
  Ni  Ni24  1  0.67042173  0.67224042  1.00103361  1
  Ni  Ni25  1  0.83683293  0.83636086  0.17020043  1
  Ni  Ni26  1  0.66965939  0.67129579  0.33691184  1
  Cr  Cr27  1  0.17245484  0.16738362  0.50589512  1
  Fe  Fe28  1  1.00037604  1.00287333  0.66935808  1
  Fe  Fe29  1  0.16996586  0.17122977  0.83639972  1
  Fe  Fe30  1  0.17162615  0.50353899  0.50452208  1
  Fe  Fe31  1  1.00101700  0.33691109  0.67082443  1
  Ni  Ni32  1  0.16897961  0.50270732  0.83549389  1
  Ni  Ni33  1  0.17002486  0.83536626  0.50209414  1
  Fe  Fe34  1  1.00219502  0.66885666  0.66942510  1
  Cr  Cr35  1  0.16967486  0.83672043  0.83564410  1
  Ni  Ni36  1  0.50361515  0.17018667  0.50264887  1
  Ni  Ni37  1  0.33825498  1.00264576  0.67081656  1
  Ni  Ni38  1  0.50292540  0.16978911  0.83588628  1
  Ni  Ni39  1  0.50453612  0.50270525  0.50252283  1
  Ni  Ni40  1  0.33710193  0.33702068  0.67108022  1
  Ni  Ni41  1  0.50388814  0.50245802  0.83593807  1
  Ni  Ni42  1  0.50118941  0.83636981  0.50324200  1
  Ni  Ni43  1  0.33780010  0.66964432  0.66836662  1
  Ni  Ni44  1  0.50402647  0.83724451  0.83571729  1
  Ni  Ni45  1  0.83407397  0.17051773  0.50250280  1
  Ni  Ni46  1  0.66937793  1.00297479  0.66913615  1
  Ni  Ni47  1  0.83557171  0.16998242  0.83697584  1
  Ni  Ni48  1  0.83458346  0.50404375  0.50422003  1
  Ni  Ni49  1  0.67013114  0.33603315  0.66960631  1
  Ni  Ni50  1  0.83626367  0.50319452  0.83709507  1
  Fe  Fe51  1  0.83441314  0.83641513  0.50318258  1
  Ni  Ni52  1  0.66932693  0.67023888  0.67124097  1
  Ni  Ni53  1  0.83575110  0.83586635  0.83621622  1
" 