7205,Ni57Fe36Cr6_11,-238.564553664793, 214.800838578022,Ni57Fe36Cr6,"# generated using pymatgen
 data_Cr5Fe19Ni30
_symmetry_space_group_name_H-M   'P 1'
_cell_length_a   7.41859514
_cell_length_b   7.41859514
_cell_length_c   10.49147786
_cell_angle_alpha   90.00000000
_cell_angle_beta   90.00000000
_cell_angle_gamma   90.00000000
_symmetry_Int_Tables_number   1
_chemical_formula_structural   Cr5Fe19Ni30
_chemical_formula_sum   'Cr5 Fe19 Ni30'
_cell_volume   577.40429499
_cell_formula_units_Z   1
loop_
 _symmetry_equiv_pos_site_id
 _symmetry_equiv_pos_as_xyz
  1  'x, y, z'
loop_
 _atom_site_type_symbol
 _atom_site_label
 _atom_site_symmetry_multiplicity
 _atom_site_fract_x
 _atom_site_fract_y
 _atom_site_fract_z
 _atom_site_occupancy
  Ni  Ni0  1  1.00289414  1.00215771  0.00409948  1
  Ni  Ni1  1  0.16959351  0.17064814  0.17046819  1
  Fe  Fe2  1  1.00312453  1.00272025  0.33629906  1
  Fe  Fe3  1  1.00253488  0.33636972  0.00472161  1
  Fe  Fe4  1  0.16914862  0.50421007  0.17075124  1
  Fe  Fe5  1  1.00322737  0.33756900  0.33658577  1
  Ni  Ni6  1  1.00151736  0.67111432  0.00333056  1
  Ni  Ni7  1  0.16842733  0.83647604  0.17090914  1
  Ni  Ni8  1  0.00365203  0.67029642  0.33694949  1
  Cr  Cr9  1  0.33573205  0.00415690  1.00213477  1
  Fe  Fe10  1  0.50449664  0.17032435  0.17112807  1
  Fe  Fe11  1  0.33740014  1.00315453  0.33653794  1
  Fe  Fe12  1  0.33726946  0.33660868  0.00343793  1
  Fe  Fe13  1  0.50331214  0.50381625  0.17027725  1
  Ni  Ni14  1  0.33644105  0.33545910  0.33582741  1
  Fe  Fe15  1  0.33757888  0.67046810  0.00381796  1
  Fe  Fe16  1  0.50451584  0.83565500  0.17087724  1
  Ni  Ni17  1  0.33491740  0.66995871  0.33529698  1
  Ni  Ni18  1  0.67106450  1.00292425  1.00310079  1
  Fe  Fe19  1  0.83704469  0.16901972  0.16973015  1
  Ni  Ni20  1  0.66989654  0.00422846  0.33693074  1
  Fe  Fe21  1  0.66999194  0.33764936  0.00378194  1
  Ni  Ni22  1  0.83606882  0.50438743  0.17017865  1
  Ni  Ni23  1  0.66955703  0.33497935  0.33540351  1
  Ni  Ni24  1  0.67132842  0.66923024  1.00248037  1
  Ni  Ni25  1  0.83653130  0.83591752  0.16925919  1
  Ni  Ni26  1  0.67122678  0.67058672  0.33619556  1
  Ni  Ni27  1  0.17028755  0.17152708  0.50374498  1
  Ni  Ni28  1  0.00487365  1.00189771  0.67008605  1
  Ni  Ni29  1  0.17110319  0.17000678  0.83558316  1
  Ni  Ni30  1  0.16864131  0.50179890  0.50241431  1
  Fe  Fe31  1  0.00566015  0.33751827  0.66849343  1
  Cr  Cr32  1  0.16998129  0.50229258  0.83693601  1
  Fe  Fe33  1  0.17028025  0.83612133  0.50305515  1
  Ni  Ni34  1  1.00248349  0.67186125  0.66951681  1
  Fe  Fe35  1  0.16883084  0.83725218  0.83624726  1
  Ni  Ni36  1  0.50160651  0.16761562  0.50246652  1
  Fe  Fe37  1  0.33672084  1.00312248  0.67019113  1
  Ni  Ni38  1  0.50094423  0.16975829  0.83636558  1
  Cr  Cr39  1  0.50182307  0.50475813  0.50264030  1
  Ni  Ni40  1  0.33584680  0.33440424  0.67071372  1
  Ni  Ni41  1  0.50367070  0.50460557  0.83776530  1
  Ni  Ni42  1  0.50513176  0.83801377  0.50276459  1
  Ni  Ni43  1  0.33619532  0.67077179  0.67067870  1
  Ni  Ni44  1  0.50556861  0.83543125  0.83558471  1
  Fe  Fe45  1  0.83685024  0.16862120  0.50245648  1
  Fe  Fe46  1  0.66868662  0.99977037  0.66910912  1
  Cr  Cr47  1  0.83819328  0.16792293  0.83814640  1
  Fe  Fe48  1  0.83856076  0.50448718  0.50231804  1
  Cr  Cr49  1  0.66827924  0.33719196  0.67018844  1
  Ni  Ni50  1  0.83561052  0.50683535  0.83670801  1
  Ni  Ni51  1  0.83553696  0.83636976  0.50321007  1
  Ni  Ni52  1  0.67111946  0.67145517  0.67112009  1
  Ni  Ni53  1  0.83536290  0.83484546  0.83732757  1
" 