7896,Ni57Fe43_3,-239.628185522186, 217.208227488837,Ni57Fe43,"# generated using pymatgen
 data_Fe31Ni23
_symmetry_space_group_name_H-M   'P 1'
_cell_length_a   7.39856533
_cell_length_b   7.39856533
_cell_length_c   10.46315143
_cell_angle_alpha   90.00000000
_cell_angle_beta   90.00000000
_cell_angle_gamma   90.00000000
_symmetry_Int_Tables_number   1
_chemical_formula_structural   Fe31Ni23
_chemical_formula_sum   'Fe31 Ni23'
_cell_volume   572.74002772
_cell_formula_units_Z   1
loop_
 _symmetry_equiv_pos_site_id
 _symmetry_equiv_pos_as_xyz
  1  'x, y, z'
loop_
 _atom_site_type_symbol
 _atom_site_label
 _atom_site_symmetry_multiplicity
 _atom_site_fract_x
 _atom_site_fract_y
 _atom_site_fract_z
 _atom_site_occupancy
  Fe  Fe0  1  1.00393599  0.00531918  0.00483669  1
  Ni  Ni1  1  0.17156153  0.17264869  0.17065176  1
  Fe  Fe2  1  1.00454861  0.00608760  0.33796274  1
  Ni  Ni3  1  1.00380842  0.33930755  0.00471587  1
  Ni  Ni4  1  0.17156164  0.50367368  0.17111764  1
  Fe  Fe5  1  0.00549090  0.33663967  0.33718965  1
  Ni  Ni6  1  0.00571978  0.67086143  1.00446638  1
  Fe  Fe7  1  0.17137139  0.83891986  0.17106458  1
  Fe  Fe8  1  0.00468628  0.67115677  0.33809721  1
  Fe  Fe9  1  0.33748464  0.00553086  0.00552839  1
  Ni  Ni10  1  0.50481260  0.17074604  0.17202789  1
  Ni  Ni11  1  0.33847675  0.00470499  0.33850771  1
  Fe  Fe12  1  0.33691021  0.33844198  0.00552902  1
  Fe  Fe13  1  0.50449508  0.50253384  0.17198510  1
  Ni  Ni14  1  0.33848609  0.33743693  0.33768289  1
  Fe  Fe15  1  0.33719929  0.66990853  1.00407033  1
  Fe  Fe16  1  0.50391637  0.83943415  0.17211737  1
  Fe  Fe17  1  0.33914810  0.67079193  0.33886338  1
  Fe  Fe18  1  0.67246095  0.00502590  0.00476326  1
  Ni  Ni19  1  0.83750837  0.17038785  0.17085449  1
  Ni  Ni20  1  0.67041585  0.00578450  0.33758309  1
  Ni  Ni21  1  0.67190159  0.33704132  0.00507889  1
  Fe  Fe22  1  0.83838683  0.50274767  0.17016321  1
  Ni  Ni23  1  0.67077715  0.33672541  0.33778872  1
  Fe  Fe24  1  0.67262067  0.67054315  1.00421132  1
  Fe  Fe25  1  0.83859815  0.83885542  0.17129581  1
  Fe  Fe26  1  0.67005050  0.67173452  0.33858948  1
  Ni  Ni27  1  0.17154948  0.17265307  0.50438282  1
  Fe  Fe28  1  1.00391127  1.00406960  0.67108299  1
  Fe  Fe29  1  0.17020035  0.17169584  0.83817315  1
  Ni  Ni30  1  0.17236915  0.50306494  0.50488668  1
  Fe  Fe31  1  0.00485704  0.33865437  0.67185392  1
  Ni  Ni32  1  0.17094975  0.50397529  0.83787981  1
  Fe  Fe33  1  0.17198153  0.83719096  0.50491207  1
  Ni  Ni34  1  0.00652538  0.67138076  0.67152746  1
  Fe  Fe35  1  0.17025346  0.83634949  0.83790891  1
  Fe  Fe36  1  0.50470413  0.17129468  0.50380208  1
  Fe  Fe37  1  0.33838466  1.00428667  0.67062315  1
  Fe  Fe38  1  0.50588987  0.17190989  0.83831280  1
  Ni  Ni39  1  0.50364207  0.50542722  0.50489729  1
  Fe  Fe40  1  0.33781076  0.33880467  0.67039734  1
  Fe  Fe41  1  0.50539637  0.50481733  0.83726689  1
  Ni  Ni42  1  0.50672168  0.83770401  0.50489917  1
  Ni  Ni43  1  0.33560551  0.67173929  0.67101979  1
  Fe  Fe44  1  0.50481367  0.83715602  0.83713491  1
  Fe  Fe45  1  0.83698365  0.17135368  0.50422252  1
  Ni  Ni46  1  0.67102735  0.00599977  0.67122364  1
  Fe  Fe47  1  0.83779093  0.17227723  0.83844338  1
  Fe  Fe48  1  0.83775713  0.50484153  0.50532078  1
  Ni  Ni49  1  0.67138793  0.33651385  0.67101513  1
  Ni  Ni50  1  0.83878073  0.50588564  0.83777307  1
  Ni  Ni51  1  0.83597603  0.83852627  0.50479241  1
  Fe  Fe52  1  0.67143321  0.67173729  0.67108559  1
  Ni  Ni53  1  0.83687942  0.83761743  0.83833563  1
" 