1039,Ni57Fe27Cr15_16,-234.825028234768, 198.838136870289,Ni57Fe27Cr15,"# generated using pymatgen
 data_Cr9Fe14Ni31
_symmetry_space_group_name_H-M   'P 1'
_cell_length_a   7.43432902
_cell_length_b   7.43432902
_cell_length_c   10.51372893
_cell_angle_alpha   90.00000000
_cell_angle_beta   90.00000000
_cell_angle_gamma   90.00000000
_symmetry_Int_Tables_number   1
_chemical_formula_structural   Cr9Fe14Ni31
_chemical_formula_sum   'Cr9 Fe14 Ni31'
_cell_volume   581.08589136
_cell_formula_units_Z   1
loop_
 _symmetry_equiv_pos_site_id
 _symmetry_equiv_pos_as_xyz
  1  'x, y, z'
loop_
 _atom_site_type_symbol
 _atom_site_label
 _atom_site_symmetry_multiplicity
 _atom_site_fract_x
 _atom_site_fract_y
 _atom_site_fract_z
 _atom_site_occupancy
  Ni  Ni0  1  1.00194284  0.00245741  0.00250412  1
  Ni  Ni1  1  0.17053207  0.16701486  0.16692614  1
  Cr  Cr2  1  0.00220742  1.00067519  0.33589670  1
  Fe  Fe3  1  1.00174444  0.33333630  1.00042772  1
  Cr  Cr4  1  0.16991529  0.50279813  0.16788375  1
  Cr  Cr5  1  1.00161568  0.33534221  0.33782725  1
  Fe  Fe6  1  1.00120678  0.67157950  1.00103859  1
  Fe  Fe7  1  0.16817778  0.83636618  0.16836179  1
  Ni  Ni8  1  0.00221763  0.67099684  0.33645341  1
  Ni  Ni9  1  0.33395131  0.00270853  1.00179565  1
  Fe  Fe10  1  0.50223858  0.16823905  0.16726244  1
  Ni  Ni11  1  0.33588653  1.00084309  0.33630204  1
  Fe  Fe12  1  0.33719818  0.33401447  1.00110859  1
  Fe  Fe13  1  0.50215275  0.50270647  0.16714173  1
  Cr  Cr14  1  0.33666555  0.33506335  0.33565506  1
  Ni  Ni15  1  0.33581984  0.66856732  1.00089293  1
  Cr  Cr16  1  0.50267082  0.83575144  0.16950662  1
  Ni  Ni17  1  0.33528059  0.67047382  0.33726463  1
  Ni  Ni18  1  0.67070950  0.00363353  0.00255928  1
  Fe  Fe19  1  0.83512578  0.16638364  0.16627925  1
  Fe  Fe20  1  0.66824795  1.00101796  0.33623414  1
  Ni  Ni21  1  0.66846631  0.33519897  1.00138218  1
  Cr  Cr22  1  0.83425709  0.50473626  0.16777049  1
  Cr  Cr23  1  0.66832163  0.33463771  0.33660260  1
  Ni  Ni24  1  0.66871630  0.66777070  1.00110209  1
  Ni  Ni25  1  0.83542385  0.83560258  0.16853332  1
  Fe  Fe26  1  0.66916333  0.67037371  0.33723197  1
  Ni  Ni27  1  0.17024678  0.16731869  0.50454272  1
  Ni  Ni28  1  0.00340127  0.00466258  0.66860883  1
  Ni  Ni29  1  0.16949573  0.16765221  0.83512557  1
  Fe  Fe30  1  0.16921106  0.50262528  0.50260983  1
  Ni  Ni31  1  0.00227251  0.33355481  0.66815285  1
  Fe  Fe32  1  0.16949979  0.50112331  0.83599477  1
  Ni  Ni33  1  0.17020058  0.83633165  0.50038138  1
  Cr  Cr34  1  1.00177668  0.66909202  0.66904620  1
  Ni  Ni35  1  0.16950395  0.83720620  0.83756401  1
  Ni  Ni36  1  0.50032692  0.16892691  0.50184376  1
  Ni  Ni37  1  0.33382901  0.00296340  0.66850533  1
  Ni  Ni38  1  0.50054312  0.17028573  0.83697497  1
  Ni  Ni39  1  0.50286324  0.50342094  0.50243529  1
  Ni  Ni40  1  0.33523970  0.33554141  0.66860728  1
  Ni  Ni41  1  0.50308053  0.50226179  0.83657308  1
  Fe  Fe42  1  0.50132131  0.83511539  0.50139272  1
  Ni  Ni43  1  0.33742413  0.66809789  0.66844624  1
  Fe  Fe44  1  0.50172239  0.83499639  0.83670156  1
  Ni  Ni45  1  0.83602298  0.16933738  0.50311532  1
  Cr  Cr46  1  0.66961263  1.00209920  0.66924840  1
  Ni  Ni47  1  0.83656244  0.16967992  0.83669006  1
  Ni  Ni48  1  0.83394730  0.50346675  0.50245143  1
  Fe  Fe49  1  0.66848116  0.33709102  0.66900858  1
  Ni  Ni50  1  0.83340852  0.50225433  0.83628560  1
  Ni  Ni51  1  0.83555417  0.83379727  0.50034931  1
  Ni  Ni52  1  0.66738420  0.66696815  0.66850582  1
  Ni  Ni53  1  0.83603946  0.83466756  0.83772200  1
" 