8883,Ni57Fe43_6,-238.951218257453, 214.037210853057,Ni57Fe43,"# generated using pymatgen
 data_Fe31Ni23
_symmetry_space_group_name_H-M   'P 1'
_cell_length_a   7.39729140
_cell_length_b   7.39729140
_cell_length_c   10.46134983
_cell_angle_alpha   90.00000000
_cell_angle_beta   90.00000000
_cell_angle_gamma   90.00000000
_symmetry_Int_Tables_number   1
_chemical_formula_structural   Fe31Ni23
_chemical_formula_sum   'Fe31 Ni23'
_cell_volume   572.44422660
_cell_formula_units_Z   1
loop_
 _symmetry_equiv_pos_site_id
 _symmetry_equiv_pos_as_xyz
  1  'x, y, z'
loop_
 _atom_site_type_symbol
 _atom_site_label
 _atom_site_symmetry_multiplicity
 _atom_site_fract_x
 _atom_site_fract_y
 _atom_site_fract_z
 _atom_site_occupancy
  Ni  Ni0  1  1.00171046  0.00509982  1.00415575  1
  Fe  Fe1  1  0.17152782  0.17150510  0.17127819  1
  Ni  Ni2  1  1.00371461  1.00462418  0.33846244  1
  Fe  Fe3  1  0.00651165  0.33975782  0.00488185  1
  Fe  Fe4  1  0.17345829  0.50531736  0.17206615  1
  Ni  Ni5  1  0.00629146  0.33731792  0.33756641  1
  Ni  Ni6  1  1.00420602  0.67286732  0.00493826  1
  Fe  Fe7  1  0.17047930  0.83729152  0.17247739  1
  Ni  Ni8  1  1.00345247  0.67239906  0.33808573  1
  Fe  Fe9  1  0.33507861  1.00328326  0.00567455  1
  Ni  Ni10  1  0.50432637  0.17021182  0.17175889  1
  Ni  Ni11  1  0.33760864  0.00532212  0.33768764  1
  Ni  Ni12  1  0.34099283  0.33780885  0.00526146  1
  Fe  Fe13  1  0.50589435  0.50452271  0.17096186  1
  Ni  Ni14  1  0.33993532  0.33770941  0.33828872  1
  Ni  Ni15  1  0.33870822  0.66949120  1.00437977  1
  Ni  Ni16  1  0.50192344  0.83853495  0.17081766  1
  Ni  Ni17  1  0.34009776  0.67065124  0.33793218  1
  Fe  Fe18  1  0.66927384  1.00412154  0.00507655  1
  Fe  Fe19  1  0.83700493  0.17021321  0.17240073  1
  Fe  Fe20  1  0.67009652  1.00382383  0.33872242  1
  Fe  Fe21  1  0.67344289  0.33905156  0.00525184  1
  Ni  Ni22  1  0.84077828  0.50388144  0.17174102  1
  Fe  Fe23  1  0.67236984  0.33901065  0.33736640  1
  Fe  Fe24  1  0.67217514  0.67031160  0.00596479  1
  Fe  Fe25  1  0.83616990  0.83791141  0.17135189  1
  Ni  Ni26  1  0.67041186  0.67239414  0.33737128  1
  Fe  Fe27  1  0.17099348  0.17054817  0.50481132  1
  Ni  Ni28  1  1.00295703  1.00411939  0.67115946  1
  Fe  Fe29  1  0.17154435  0.17299026  0.83836597  1
  Fe  Fe30  1  0.17083827  0.50455566  0.50426087  1
  Ni  Ni31  1  0.00680717  0.33806074  0.67222902  1
  Fe  Fe32  1  0.17230691  0.50487242  0.83810815  1
  Ni  Ni33  1  0.17196515  0.83745941  0.50329985  1
  Ni  Ni34  1  1.00281040  0.67224977  0.67071764  1
  Fe  Fe35  1  0.16989840  0.83614473  0.83778219  1
  Fe  Fe36  1  0.50445611  0.17036231  0.50388541  1
  Fe  Fe37  1  0.33487004  0.00489275  0.67057131  1
  Fe  Fe38  1  0.50489811  0.17344723  0.83916711  1
  Fe  Fe39  1  0.50458988  0.50520311  0.50550688  1
  Ni  Ni40  1  0.34088670  0.33792309  0.67115967  1
  Ni  Ni41  1  0.50653549  0.50526840  0.83825214  1
  Ni  Ni42  1  0.50240336  0.83774375  0.50556551  1
  Fe  Fe43  1  0.33525222  0.67062396  0.67169560  1
  Fe  Fe44  1  0.50533498  0.83632894  0.83796123  1
  Ni  Ni45  1  0.83901901  0.17472225  0.50415798  1
  Fe  Fe46  1  0.67158490  0.00602050  0.67027785  1
  Fe  Fe47  1  0.83787730  0.17153703  0.83705412  1
  Fe  Fe48  1  0.83944694  0.50651022  0.50412852  1
  Fe  Fe49  1  0.67412284  0.33837836  0.67163486  1
  Ni  Ni50  1  0.83910985  0.50413362  0.83771263  1
  Fe  Fe51  1  0.83761240  0.83973294  0.50447374  1
  Fe  Fe52  1  0.67147925  0.67009996  0.67067366  1
  Fe  Fe53  1  0.83736777  0.83624506  0.83807454  1
" 