5385,Ni57Fe43_18,-239.657909536931, 219.436238840944,Ni57Fe43,"# generated using pymatgen
 data_Fe31Ni23
_symmetry_space_group_name_H-M   'P 1'
_cell_length_a   7.40514476
_cell_length_b   7.40514476
_cell_length_c   10.47245615
_cell_angle_alpha   90.00000000
_cell_angle_beta   90.00000000
_cell_angle_gamma   90.00000000
_symmetry_Int_Tables_number   1
_chemical_formula_structural   Fe31Ni23
_chemical_formula_sum   'Fe31 Ni23'
_cell_volume   574.26937387
_cell_formula_units_Z   1
loop_
 _symmetry_equiv_pos_site_id
 _symmetry_equiv_pos_as_xyz
  1  'x, y, z'
loop_
 _atom_site_type_symbol
 _atom_site_label
 _atom_site_symmetry_multiplicity
 _atom_site_fract_x
 _atom_site_fract_y
 _atom_site_fract_z
 _atom_site_occupancy
  Ni  Ni0  1  1.00193911  0.00419908  0.00458752  1
  Ni  Ni1  1  0.17191514  0.17040589  0.16928221  1
  Fe  Fe2  1  0.00424086  1.00415839  0.33623846  1
  Fe  Fe3  1  0.00469749  0.33786149  0.00418029  1
  Fe  Fe4  1  0.16945201  0.50349591  0.17071652  1
  Fe  Fe5  1  1.00394701  0.33617850  0.33705797  1
  Fe  Fe6  1  0.00545046  0.67113460  1.00306221  1
  Ni  Ni7  1  0.17117228  0.83719944  0.17121976  1
  Fe  Fe8  1  1.00317491  0.67216602  0.33829681  1
  Fe  Fe9  1  0.33582399  1.00360283  0.00452437  1
  Ni  Ni10  1  0.50373416  0.17188780  0.17095451  1
  Fe  Fe11  1  0.33753633  0.00434828  0.33783907  1
  Ni  Ni12  1  0.33840328  0.33887349  1.00380653  1
  Fe  Fe13  1  0.50394573  0.50402390  0.17121781  1
  Fe  Fe14  1  0.33774082  0.33621853  0.33712194  1
  Ni  Ni15  1  0.33800224  0.67002521  0.00505633  1
  Fe  Fe16  1  0.50490744  0.83896405  0.17179412  1
  Fe  Fe17  1  0.33804652  0.67197627  0.33851623  1
  Fe  Fe18  1  0.66965120  0.00435569  0.00530104  1
  Ni  Ni19  1  0.83671508  0.17152341  0.17047319  1
  Ni  Ni20  1  0.67216415  0.00465832  0.33714461  1
  Fe  Fe21  1  0.67086300  0.33773222  0.00434579  1
  Ni  Ni22  1  0.83649076  0.50453309  0.17046569  1
  Fe  Fe23  1  0.67088167  0.33753515  0.33714048  1
  Fe  Fe24  1  0.67124146  0.67058346  1.00410214  1
  Ni  Ni25  1  0.83806452  0.83663398  0.16967280  1
  Fe  Fe26  1  0.67147034  0.67181086  0.33782732  1
  Ni  Ni27  1  0.17084699  0.17107625  0.50508194  1
  Fe  Fe28  1  0.00458207  1.00265146  0.67207283  1
  Fe  Fe29  1  0.16814654  0.17084056  0.83840870  1
  Ni  Ni30  1  0.17225253  0.50356499  0.50313960  1
  Fe  Fe31  1  0.00508159  0.33910832  0.67122927  1
  Ni  Ni32  1  0.17162471  0.50476159  0.83795036  1
  Ni  Ni33  1  0.17044982  0.83786911  0.50419854  1
  Ni  Ni34  1  0.00526608  0.67084138  0.67083060  1
  Ni  Ni35  1  0.17181131  0.83675668  0.83727802  1
  Fe  Fe36  1  0.50325798  0.16955482  0.50319965  1
  Fe  Fe37  1  0.33658485  1.00238860  0.67017041  1
  Fe  Fe38  1  0.50402761  0.17099805  0.83854949  1
  Ni  Ni39  1  0.50459622  0.50335237  0.50435372  1
  Fe  Fe40  1  0.33644232  0.33878040  0.67128102  1
  Fe  Fe41  1  0.50421745  0.50549187  0.83699773  1
  Ni  Ni42  1  0.50472905  0.83658950  0.50405821  1
  Ni  Ni43  1  0.33661782  0.67003616  0.66983553  1
  Fe  Fe44  1  0.50421976  0.83586157  0.83665063  1
  Fe  Fe45  1  0.83809100  0.17004683  0.50430539  1
  Fe  Fe46  1  0.67130423  1.00237668  0.67029587  1
  Ni  Ni47  1  0.83561335  0.17096377  0.83799396  1
  Fe  Fe48  1  0.83905247  0.50582622  0.50433440  1
  Fe  Fe49  1  0.67104826  0.33911936  0.67118094  1
  Ni  Ni50  1  0.83765023  0.50419998  0.83701655  1
  Ni  Ni51  1  0.83745322  0.83808341  0.50470191  1
  Fe  Fe52  1  0.67143275  0.67099496  0.67045313  1
  Ni  Ni53  1  0.83763268  0.83748410  0.83819073  1
" 