1721,Ni57Fe27Cr15_4,-235.312504981298, 201.445154244411,Ni57Fe27Cr15,"# generated using pymatgen
 data_Cr9Fe14Ni31
_symmetry_space_group_name_H-M   'P 1'
_cell_length_a   7.43463708
_cell_length_b   7.43463708
_cell_length_c   10.51416460
_cell_angle_alpha   90.00000000
_cell_angle_beta   90.00000000
_cell_angle_gamma   90.00000000
_symmetry_Int_Tables_number   1
_chemical_formula_structural   Cr9Fe14Ni31
_chemical_formula_sum   'Cr9 Fe14 Ni31'
_cell_volume   581.15813163
_cell_formula_units_Z   1
loop_
 _symmetry_equiv_pos_site_id
 _symmetry_equiv_pos_as_xyz
  1  'x, y, z'
loop_
 _atom_site_type_symbol
 _atom_site_label
 _atom_site_symmetry_multiplicity
 _atom_site_fract_x
 _atom_site_fract_y
 _atom_site_fract_z
 _atom_site_occupancy
  Fe  Fe0  1  0.00471915  1.00065194  0.00280070  1
  Ni  Ni1  1  0.16858956  0.16989080  0.16797566  1
  Cr  Cr2  1  0.00278425  0.00255461  0.33323690  1
  Ni  Ni3  1  0.00397433  0.33491655  1.00198970  1
  Fe  Fe4  1  0.17041694  0.50180989  0.16795948  1
  Fe  Fe5  1  0.00242433  0.33660858  0.33597955  1
  Ni  Ni6  1  0.00225092  0.66840007  0.00242010  1
  Fe  Fe7  1  0.17064532  0.83416102  0.16760312  1
  Fe  Fe8  1  1.00216158  0.66771730  0.33650503  1
  Ni  Ni9  1  0.33406284  1.00214130  0.00282654  1
  Cr  Cr10  1  0.50095105  0.17205744  0.16977506  1
  Fe  Fe11  1  0.33632395  1.00092767  0.33611505  1
  Ni  Ni12  1  0.33325323  0.33648807  1.00185147  1
  Ni  Ni13  1  0.50017472  0.50359227  0.16815521  1
  Ni  Ni14  1  0.33418183  0.33768957  0.33605233  1
  Ni  Ni15  1  0.33581197  0.66779145  1.00184131  1
  Ni  Ni16  1  0.50089563  0.83224435  0.16826293  1
  Ni  Ni17  1  0.33662489  0.66719531  0.33542600  1
  Cr  Cr18  1  0.67015025  1.00038731  1.00184246  1
  Ni  Ni19  1  0.83806863  0.16986558  0.16654524  1
  Cr  Cr20  1  0.67042457  1.00012093  0.33676413  1
  Fe  Fe21  1  0.66775947  0.33810154  1.00112182  1
  Cr  Cr22  1  0.83437342  0.50254490  0.16919083  1
  Ni  Ni23  1  0.66838696  0.33739333  0.33609602  1
  Ni  Ni24  1  0.66852407  0.66919358  0.00247001  1
  Ni  Ni25  1  0.83728657  0.83399430  0.16809533  1
  Ni  Ni26  1  0.66697617  0.66841711  0.33563362  1
  Fe  Fe27  1  0.16927803  0.16966298  0.49971957  1
  Cr  Cr28  1  0.00237581  0.00227094  0.67009608  1
  Fe  Fe29  1  0.16929269  0.16948682  0.83819978  1
  Ni  Ni30  1  0.16810933  0.50412056  0.50180106  1
  Ni  Ni31  1  1.00108375  0.33705007  0.66747987  1
  Ni  Ni32  1  0.16771198  0.50429001  0.83609114  1
  Ni  Ni33  1  0.16886198  0.83111441  0.50121179  1
  Ni  Ni34  1  0.00293536  0.66760340  0.66795700  1
  Ni  Ni35  1  0.16715439  0.83245633  0.83733353  1
  Ni  Ni36  1  0.50445824  0.17080455  0.50126359  1
  Cr  Cr37  1  0.33592003  1.00075598  0.66739278  1
  Ni  Ni38  1  0.50343693  0.17047113  0.83610810  1
  Ni  Ni39  1  0.50087177  0.50138272  0.50058793  1
  Cr  Cr40  1  0.33479727  0.33842109  0.66876936  1
  Ni  Ni41  1  0.50106895  0.50046324  0.83791207  1
  Ni  Ni42  1  0.50101946  0.83437575  0.50248611  1
  Ni  Ni43  1  0.33423124  0.66829615  0.66972442  1
  Fe  Fe44  1  0.49963622  0.83359440  0.83702427  1
  Ni  Ni45  1  0.83396421  0.17099464  0.50338878  1
  Fe  Fe46  1  0.66928490  0.00334408  0.66869713  1
  Fe  Fe47  1  0.83619963  0.17193402  0.83554825  1
  Fe  Fe48  1  0.83465251  0.50224421  0.50125137  1
  Ni  Ni49  1  0.66991073  0.33531416  0.66925754  1
  Fe  Fe50  1  0.83692789  0.50251442  0.83653260  1
  Ni  Ni51  1  0.83688694  0.83490401  0.50228231  1
  Cr  Cr52  1  0.66714187  0.66807665  0.66875549  1
  Ni  Ni53  1  0.83829496  0.83490016  0.83629615  1
" 