638,Ni57Fe43_9,-239.070073227462, 215.466762684887,Ni57Fe43,"# generated using pymatgen
 data_Fe31Ni23
_symmetry_space_group_name_H-M   'P 1'
_cell_length_a   7.39726085
_cell_length_b   7.39726085
_cell_length_c   10.46130662
_cell_angle_alpha   90.00000000
_cell_angle_beta   90.00000000
_cell_angle_gamma   90.00000000
_symmetry_Int_Tables_number   1
_chemical_formula_structural   Fe31Ni23
_chemical_formula_sum   'Fe31 Ni23'
_cell_volume   572.43713370
_cell_formula_units_Z   1
loop_
 _symmetry_equiv_pos_site_id
 _symmetry_equiv_pos_as_xyz
  1  'x, y, z'
loop_
 _atom_site_type_symbol
 _atom_site_label
 _atom_site_symmetry_multiplicity
 _atom_site_fract_x
 _atom_site_fract_y
 _atom_site_fract_z
 _atom_site_occupancy
  Fe  Fe0  1  1.00401578  1.00395160  1.00450071  1
  Fe  Fe1  1  0.17212448  0.17030949  0.17146023  1
  Ni  Ni2  1  1.00427674  0.00685084  0.33731401  1
  Ni  Ni3  1  0.00485936  0.33816237  1.00462802  1
  Fe  Fe4  1  0.17183570  0.50564561  0.17188820  1
  Ni  Ni5  1  0.00513946  0.33826526  0.33698247  1
  Ni  Ni6  1  1.00383741  0.66995655  0.00486778  1
  Ni  Ni7  1  0.17041449  0.83745850  0.17182738  1
  Fe  Fe8  1  0.00555241  0.67234661  0.33770629  1
  Fe  Fe9  1  0.33675830  1.00445255  0.00539447  1
  Ni  Ni10  1  0.50467126  0.17189339  0.17081754  1
  Ni  Ni11  1  0.33866709  0.00495217  0.33764258  1
  Fe  Fe12  1  0.33736521  0.33901497  0.00550191  1
  Ni  Ni13  1  0.50425734  0.50327346  0.17255520  1
  Ni  Ni14  1  0.33637861  0.33813581  0.33775873  1
  Fe  Fe15  1  0.33676610  0.67063324  0.00628730  1
  Ni  Ni16  1  0.50450662  0.83868944  0.17089952  1
  Ni  Ni17  1  0.33984397  0.67105424  0.33770372  1
  Fe  Fe18  1  0.67334882  1.00449921  0.00499201  1
  Fe  Fe19  1  0.83727570  0.17045613  0.17068249  1
  Ni  Ni20  1  0.67122656  1.00314800  0.33814087  1
  Fe  Fe21  1  0.67256270  0.33842600  1.00467045  1
  Fe  Fe22  1  0.83718483  0.50552440  0.17212383  1
  Fe  Fe23  1  0.67046517  0.33667374  0.33858988  1
  Fe  Fe24  1  0.67260170  0.67119270  0.00553636  1
  Ni  Ni25  1  0.83934999  0.83800900  0.17174723  1
  Ni  Ni26  1  0.67104950  0.67160353  0.33690517  1
  Fe  Fe27  1  0.17117823  0.17233718  0.50418761  1
  Ni  Ni28  1  0.00512546  0.00596603  0.67201672  1
  Fe  Fe29  1  0.16994061  0.17091205  0.83803819  1
  Ni  Ni30  1  0.17067004  0.50584606  0.50461883  1
  Fe  Fe31  1  1.00387266  0.33761506  0.67117764  1
  Fe  Fe32  1  0.16962354  0.50455342  0.83757940  1
  Fe  Fe33  1  0.17154390  0.83919908  0.50366826  1
  Fe  Fe34  1  1.00424696  0.67384964  0.67194552  1
  Fe  Fe35  1  0.17038175  0.83900270  0.83889619  1
  Ni  Ni36  1  0.50463554  0.17012633  0.50476044  1
  Ni  Ni37  1  0.33776829  0.00523166  0.67146945  1
  Fe  Fe38  1  0.50565133  0.17007964  0.83779029  1
  Fe  Fe39  1  0.50535129  0.50455798  0.50378347  1
  Fe  Fe40  1  0.33895232  0.33734172  0.67025690  1
  Fe  Fe41  1  0.50617430  0.50501895  0.83890088  1
  Fe  Fe42  1  0.50509816  0.83710732  0.50443500  1
  Fe  Fe43  1  0.33804109  0.67331572  0.67067913  1
  Fe  Fe44  1  0.50602527  0.83889406  0.83831997  1
  Fe  Fe45  1  0.83860578  0.17187220  0.50517090  1
  Ni  Ni46  1  0.67130429  1.00290742  0.67129013  1
  Ni  Ni47  1  0.83760012  0.17075442  0.83741401  1
  Ni  Ni48  1  0.83921074  0.50581453  0.50504835  1
  Fe  Fe49  1  0.67139636  0.33618948  0.67116204  1
  Fe  Fe50  1  0.83835766  0.50462375  0.83750684  1
  Fe  Fe51  1  0.83758774  0.83802530  0.50503006  1
  Ni  Ni52  1  0.67114217  0.67054484  0.67263315  1
  Ni  Ni53  1  0.83890073  0.83845632  0.83781794  1
" 