4503,Ni57Fe27Cr15_13,-235.215300350486, 199.633262893131,Ni57Fe27Cr15,"# generated using pymatgen
 data_Cr9Fe14Ni31
_symmetry_space_group_name_H-M   'P 1'
_cell_length_a   7.43289240
_cell_length_b   7.43289240
_cell_length_c   10.51169724
_cell_angle_alpha   90.00000000
_cell_angle_beta   90.00000000
_cell_angle_gamma   90.00000000
_symmetry_Int_Tables_number   1
_chemical_formula_structural   Cr9Fe14Ni31
_chemical_formula_sum   'Cr9 Fe14 Ni31'
_cell_volume   580.74908712
_cell_formula_units_Z   1
loop_
 _symmetry_equiv_pos_site_id
 _symmetry_equiv_pos_as_xyz
  1  'x, y, z'
loop_
 _atom_site_type_symbol
 _atom_site_label
 _atom_site_symmetry_multiplicity
 _atom_site_fract_x
 _atom_site_fract_y
 _atom_site_fract_z
 _atom_site_occupancy
  Fe  Fe0  1  0.99910758  0.00249216  0.00275976  1
  Ni  Ni1  1  0.16946303  0.16850691  0.17047519  1
  Fe  Fe2  1  0.00301550  1.00163793  0.33485733  1
  Fe  Fe3  1  0.00287082  0.33415989  1.00097458  1
  Cr  Cr4  1  0.17020533  0.50164072  0.16809259  1
  Ni  Ni5  1  0.00489051  0.33543628  0.33638670  1
  Ni  Ni6  1  1.00174029  0.66955843  1.00152312  1
  Ni  Ni7  1  0.16756142  0.83672399  0.16949927  1
  Ni  Ni8  1  1.00088100  0.66983234  0.33759325  1
  Cr  Cr9  1  0.33585825  0.00327388  0.00268209  1
  Ni  Ni10  1  0.50157369  0.16808619  0.17063711  1
  Ni  Ni11  1  0.33564747  0.00483839  0.33646235  1
  Fe  Fe12  1  0.33496956  0.33634416  1.00173575  1
  Fe  Fe13  1  0.50185691  0.50266699  0.16863363  1
  Ni  Ni14  1  0.33353097  0.33135886  0.33449175  1
  Fe  Fe15  1  0.33736641  0.66816398  1.00174931  1
  Fe  Fe16  1  0.50425062  0.83691034  0.16863909  1
  Cr  Cr17  1  0.33444046  0.67067858  0.33474270  1
  Ni  Ni18  1  0.67029227  1.00120267  0.00237575  1
  Ni  Ni19  1  0.83585374  0.16509904  0.16893817  1
  Ni  Ni20  1  0.66759722  1.00082757  0.33385891  1
  Cr  Cr21  1  0.66874469  0.33428860  1.00174243  1
  Cr  Cr22  1  0.83545635  0.50440478  0.17093867  1
  Cr  Cr23  1  0.66854066  0.33441177  0.33477529  1
  Ni  Ni24  1  0.66957043  0.67094975  1.00174204  1
  Ni  Ni25  1  0.83476144  0.83714110  0.16852706  1
  Ni  Ni26  1  0.67168699  0.67195843  0.33512218  1
  Ni  Ni27  1  0.17141613  0.17004665  0.50141460  1
  Ni  Ni28  1  1.00228651  1.00177774  0.66969006  1
  Ni  Ni29  1  0.16820547  0.17239743  0.83500383  1
  Ni  Ni30  1  0.16781083  0.50151756  0.50288095  1
  Fe  Fe31  1  0.00299528  0.33668652  0.66973823  1
  Ni  Ni32  1  0.16941247  0.50047215  0.83584383  1
  Fe  Fe33  1  0.16805835  0.83642667  0.50284425  1
  Ni  Ni34  1  1.00204313  0.66863454  0.66777739  1
  Cr  Cr35  1  0.16840115  0.83426425  0.83447701  1
  Ni  Ni36  1  0.49961301  0.16717403  0.50317923  1
  Fe  Fe37  1  0.33673394  0.00295781  0.66799217  1
  Fe  Fe38  1  0.50304806  0.16883325  0.83388212  1
  Cr  Cr39  1  0.50177064  0.50191064  0.50298668  1
  Ni  Ni40  1  0.33512807  0.33467309  0.67005543  1
  Fe  Fe41  1  0.50208011  0.50336944  0.83422880  1
  Fe  Fe42  1  0.50316353  0.83821319  0.50340209  1
  Ni  Ni43  1  0.33453061  0.66831845  0.67000509  1
  Ni  Ni44  1  0.50553415  0.83432727  0.83457852  1
  Cr  Cr45  1  0.83549091  0.16754982  0.50233618  1
  Ni  Ni46  1  0.66851480  0.00237618  0.67065786  1
  Ni  Ni47  1  0.83580805  0.16823034  0.83541604  1
  Fe  Fe48  1  0.83805522  0.50434795  0.50303205  1
  Ni  Ni49  1  0.66819818  0.33491758  0.67064086  1
  Ni  Ni50  1  0.83611419  0.50312910  0.83365570  1
  Ni  Ni51  1  0.83505866  0.83378932  0.50201710  1
  Ni  Ni52  1  0.67032278  0.66960144  0.67002689  1
  Ni  Ni53  1  0.83254104  0.83553271  0.83634985  1
" 