8833,Ni57Fe34Cr8_9,-238.231842732844, 211.405512942474,Ni57Fe34Cr8,"# generated using pymatgen
 data_Cr5Fe18Ni31
_symmetry_space_group_name_H-M   'P 1'
_cell_length_a   7.41933978
_cell_length_b   7.41933978
_cell_length_c   10.49253094
_cell_angle_alpha   90.00000000
_cell_angle_beta   90.00000000
_cell_angle_gamma   90.00000000
_symmetry_Int_Tables_number   1
_chemical_formula_structural   Cr5Fe18Ni31
_chemical_formula_sum   'Cr5 Fe18 Ni31'
_cell_volume   577.57818277
_cell_formula_units_Z   1
loop_
 _symmetry_equiv_pos_site_id
 _symmetry_equiv_pos_as_xyz
  1  'x, y, z'
loop_
 _atom_site_type_symbol
 _atom_site_label
 _atom_site_symmetry_multiplicity
 _atom_site_fract_x
 _atom_site_fract_y
 _atom_site_fract_z
 _atom_site_occupancy
  Ni  Ni0  1  0.00464117  0.00463784  0.00394340  1
  Ni  Ni1  1  0.16944334  0.17062451  0.16815967  1
  Fe  Fe2  1  1.00129467  1.00226676  0.33642862  1
  Ni  Ni3  1  1.00263393  0.33715702  0.00363667  1
  Ni  Ni4  1  0.16968800  0.50352892  0.17033790  1
  Fe  Fe5  1  1.00315951  0.33672172  0.33581502  1
  Fe  Fe6  1  0.00399345  0.67041934  1.00278115  1
  Fe  Fe7  1  0.16924862  0.83635037  0.16892936  1
  Ni  Ni8  1  0.00349398  0.66794735  0.33574200  1
  Ni  Ni9  1  0.33572560  1.00264033  0.00397251  1
  Ni  Ni10  1  0.50299901  0.17032560  0.17010030  1
  Cr  Cr11  1  0.33853764  1.00247174  0.33528730  1
  Fe  Fe12  1  0.33495143  0.33502464  1.00236882  1
  Cr  Cr13  1  0.50171358  0.50252767  0.16960216  1
  Fe  Fe14  1  0.33610673  0.33758958  0.33747706  1
  Ni  Ni15  1  0.33563136  0.67068888  1.00271235  1
  Fe  Fe16  1  0.50278022  0.83736716  0.17026953  1
  Ni  Ni17  1  0.33508472  0.66892541  0.33787793  1
  Cr  Cr18  1  0.66931658  0.00379809  1.00299752  1
  Ni  Ni19  1  0.83720294  0.16879808  0.17063977  1
  Ni  Ni20  1  0.67057732  0.00422259  0.33674636  1
  Fe  Fe21  1  0.67077039  0.33613710  1.00214372  1
  Fe  Fe22  1  0.83882316  0.50219161  0.16985649  1
  Fe  Fe23  1  0.67037057  0.33565067  0.33781862  1
  Fe  Fe24  1  0.67120390  0.66978193  1.00181648  1
  Ni  Ni25  1  0.83806613  0.83689306  0.17097860  1
  Fe  Fe26  1  0.67062425  0.67139633  0.33831149  1
  Fe  Fe27  1  0.17016673  0.16927927  0.50344905  1
  Ni  Ni28  1  1.00308554  1.00126301  0.66945737  1
  Fe  Fe29  1  0.16968092  0.16878032  0.83776741  1
  Fe  Fe30  1  0.17068681  0.50473269  0.50224593  1
  Cr  Cr31  1  0.00402372  0.33742472  0.66954690  1
  Ni  Ni32  1  0.17098840  0.50497043  0.83692858  1
  Ni  Ni33  1  0.16870089  0.83521365  0.50395531  1
  Ni  Ni34  1  1.00262668  0.67099956  0.67039155  1
  Ni  Ni35  1  0.16911516  0.83573254  0.83719101  1
  Ni  Ni36  1  0.50347117  0.17072791  0.50292751  1
  Ni  Ni37  1  0.33741011  0.00339460  0.67024090  1
  Ni  Ni38  1  0.50199395  0.17053258  0.83661758  1
  Ni  Ni39  1  0.50180294  0.50329352  0.50321181  1
  Ni  Ni40  1  0.33664476  0.33607221  0.66965893  1
  Fe  Fe41  1  0.50281676  0.50419770  0.83688778  1
  Ni  Ni42  1  0.50352497  0.83562891  0.50421972  1
  Fe  Fe43  1  0.33625633  0.67061032  0.66963682  1
  Fe  Fe44  1  0.50275672  0.83591708  0.83540578  1
  Ni  Ni45  1  0.83575539  0.16775473  0.50161528  1
  Ni  Ni46  1  0.66914672  1.00134871  0.66940281  1
  Ni  Ni47  1  0.83611640  0.16865531  0.83738970  1
  Ni  Ni48  1  0.83616169  0.50500742  0.50109958  1
  Cr  Cr49  1  0.66934069  0.33634975  0.67026657  1
  Ni  Ni50  1  0.83689844  0.50502524  0.83921343  1
  Ni  Ni51  1  0.83741761  0.83688067  0.50422935  1
  Ni  Ni52  1  0.67046165  0.67176851  0.66947589  1
  Ni  Ni53  1  0.83848203  0.83596969  0.83443201  1
" 