4098,Ni57Fe43_1,-239.316872995967, 218.097929461777,Ni57Fe43,"# generated using pymatgen
 data_Fe31Ni23
_symmetry_space_group_name_H-M   'P 1'
_cell_length_a   7.39673331
_cell_length_b   7.39673331
_cell_length_c   10.46056057
_cell_angle_alpha   90.00000000
_cell_angle_beta   90.00000000
_cell_angle_gamma   90.00000000
_symmetry_Int_Tables_number   1
_chemical_formula_structural   Fe31Ni23
_chemical_formula_sum   'Fe31 Ni23'
_cell_volume   572.31467199
_cell_formula_units_Z   1
loop_
 _symmetry_equiv_pos_site_id
 _symmetry_equiv_pos_as_xyz
  1  'x, y, z'
loop_
 _atom_site_type_symbol
 _atom_site_label
 _atom_site_symmetry_multiplicity
 _atom_site_fract_x
 _atom_site_fract_y
 _atom_site_fract_z
 _atom_site_occupancy
  Fe  Fe0  1  1.00378694  0.00483357  0.00499941  1
  Ni  Ni1  1  0.17109849  0.17087018  0.17142374  1
  Ni  Ni2  1  0.00516620  1.00421208  0.33827882  1
  Fe  Fe3  1  1.00376386  0.33841985  0.00516173  1
  Fe  Fe4  1  0.17259856  0.50453771  0.17188792  1
  Ni  Ni5  1  0.00518103  0.33808912  0.33828991  1
  Ni  Ni6  1  1.00433878  0.67206288  0.00541029  1
  Fe  Fe7  1  0.17259946  0.83829915  0.17237219  1
  Ni  Ni8  1  0.00516723  0.67195671  0.33743858  1
  Fe  Fe9  1  0.33861702  1.00431616  0.00585991  1
  Ni  Ni10  1  0.50392799  0.17160096  0.17059685  1
  Ni  Ni11  1  0.33822315  0.00531413  0.33843702  1
  Fe  Fe12  1  0.33884033  0.33914190  0.00501059  1
  Ni  Ni13  1  0.50550378  0.50549329  0.17199767  1
  Ni  Ni14  1  0.33857829  0.33734762  0.33761651  1
  Fe  Fe15  1  0.33935874  0.67080220  0.00520654  1
  Ni  Ni16  1  0.50476770  0.83716104  0.17142482  1
  Ni  Ni17  1  0.33747754  0.67159381  0.33783119  1
  Fe  Fe18  1  0.67185094  1.00431996  1.00431588  1
  Fe  Fe19  1  0.83723919  0.17154963  0.17083237  1
  Fe  Fe20  1  0.67078943  0.00481276  0.33835932  1
  Ni  Ni21  1  0.67029780  0.33788143  1.00460114  1
  Fe  Fe22  1  0.83739473  0.50455273  0.17161516  1
  Fe  Fe23  1  0.67116217  0.33823770  0.33809245  1
  Ni  Ni24  1  0.67223767  0.67086426  1.00392922  1
  Fe  Fe25  1  0.83752003  0.83815657  0.17118292  1
  Fe  Fe26  1  0.67122040  0.67121013  0.33724512  1
  Ni  Ni27  1  0.17180028  0.17005576  0.50531042  1
  Fe  Fe28  1  1.00454360  0.00550865  0.67104887  1
  Fe  Fe29  1  0.17170475  0.17211348  0.83804092  1
  Fe  Fe30  1  0.17132498  0.50442312  0.50449315  1
  Fe  Fe31  1  1.00398151  0.33774301  0.67088224  1
  Fe  Fe32  1  0.17114483  0.50463684  0.83787619  1
  Ni  Ni33  1  0.17098790  0.83890653  0.50427189  1
  Ni  Ni34  1  0.00495584  0.67206722  0.67141641  1
  Fe  Fe35  1  0.17084788  0.83751290  0.83760293  1
  Ni  Ni36  1  0.50383847  0.17160595  0.50492397  1
  Fe  Fe37  1  0.33829640  0.00528788  0.67039380  1
  Fe  Fe38  1  0.50566518  0.17225899  0.83744158  1
  Fe  Fe39  1  0.50378340  0.50383710  0.50498700  1
  Ni  Ni40  1  0.33933082  0.33746165  0.67151534  1
  Ni  Ni41  1  0.50548086  0.50540163  0.83778517  1
  Fe  Fe42  1  0.50421281  0.83886854  0.50413910  1
  Fe  Fe43  1  0.33871403  0.67108356  0.67124677  1
  Fe  Fe44  1  0.50564941  0.83823997  0.83865067  1
  Fe  Fe45  1  0.83840392  0.17128155  0.50547300  1
  Ni  Ni46  1  0.67115514  0.00591716  0.67203471  1
  Ni  Ni47  1  0.83864112  0.17151390  0.83762972  1
  Ni  Ni48  1  0.83786979  0.50530008  0.50557393  1
  Ni  Ni49  1  0.66996816  0.33663047  0.67157075  1
  Fe  Fe50  1  0.83761996  0.50461294  0.83788473  1
  Fe  Fe51  1  0.83899341  0.83855693  0.50491541  1
  Fe  Fe52  1  0.67127693  0.67051996  0.67197991  1
  Fe  Fe53  1  0.83776665  0.83768218  0.83815962  1
" 