3928,Ni57Fe36Cr6_18,-238.469197615995, 214.047585247233,Ni57Fe36Cr6,"# generated using pymatgen
 data_Cr5Fe19Ni30
_symmetry_space_group_name_H-M   'P 1'
_cell_length_a   7.41858486
_cell_length_b   7.41858486
_cell_length_c   10.49146332
_cell_angle_alpha   90.00000000
_cell_angle_beta   90.00000000
_cell_angle_gamma   90.00000000
_symmetry_Int_Tables_number   1
_chemical_formula_structural   Cr5Fe19Ni30
_chemical_formula_sum   'Cr5 Fe19 Ni30'
_cell_volume   577.40189448
_cell_formula_units_Z   1
loop_
 _symmetry_equiv_pos_site_id
 _symmetry_equiv_pos_as_xyz
  1  'x, y, z'
loop_
 _atom_site_type_symbol
 _atom_site_label
 _atom_site_symmetry_multiplicity
 _atom_site_fract_x
 _atom_site_fract_y
 _atom_site_fract_z
 _atom_site_occupancy
  Ni  Ni0  1  0.00524406  1.00297084  0.00499128  1
  Ni  Ni1  1  0.17101211  0.17092477  0.16995747  1
  Fe  Fe2  1  0.00382592  0.00444623  0.33518448  1
  Ni  Ni3  1  0.00411794  0.33630455  1.00092915  1
  Fe  Fe4  1  0.17080028  0.50284460  0.17052823  1
  Ni  Ni5  1  1.00301406  0.33790724  0.33754604  1
  Ni  Ni6  1  0.00432333  0.67053097  0.00359902  1
  Ni  Ni7  1  0.17102826  0.83734338  0.17072707  1
  Ni  Ni8  1  0.00393395  0.67130441  0.33745468  1
  Ni  Ni9  1  0.33669685  0.00368001  1.00260986  1
  Ni  Ni10  1  0.50074338  0.16789748  0.17058935  1
  Ni  Ni11  1  0.33764801  1.00261633  0.33542519  1
  Fe  Fe12  1  0.33595058  0.33514077  1.00276115  1
  Fe  Fe13  1  0.50064903  0.50406356  0.16896927  1
  Ni  Ni14  1  0.33688978  0.33703408  0.33556639  1
  Fe  Fe15  1  0.33444705  0.67175858  0.00375297  1
  Ni  Ni16  1  0.50284119  0.83695344  0.16819870  1
  Ni  Ni17  1  0.33460738  0.67025994  0.33608457  1
  Ni  Ni18  1  0.66778623  0.00391074  0.00395651  1
  Ni  Ni19  1  0.83793423  0.16883768  0.16755883  1
  Fe  Fe20  1  0.67076664  1.00263336  0.33471702  1
  Fe  Fe21  1  0.66986143  0.33391114  1.00156865  1
  Cr  Cr22  1  0.83897298  0.50414905  0.16814234  1
  Cr  Cr23  1  0.66978391  0.33497589  0.33609022  1
  Ni  Ni24  1  0.66847354  0.66951281  0.00357077  1
  Ni  Ni25  1  0.83557759  0.83660741  0.17145838  1
  Fe  Fe26  1  0.66885217  0.67051298  0.33603271  1
  Cr  Cr27  1  0.17167909  0.17113568  0.50299926  1
  Ni  Ni28  1  0.00455168  1.00108532  0.67013694  1
  Ni  Ni29  1  0.17207923  0.17015653  0.83630044  1
  Ni  Ni30  1  0.16927840  0.50343764  0.50269979  1
  Fe  Fe31  1  0.00397949  0.33689334  0.67090551  1
  Ni  Ni32  1  0.16868702  0.50288726  0.83636730  1
  Fe  Fe33  1  0.16783177  0.83562741  0.50332955  1
  Ni  Ni34  1  0.00369269  0.66960259  0.66916460  1
  Ni  Ni35  1  0.17142884  0.83670665  0.83549445  1
  Fe  Fe36  1  0.50358724  0.17190254  0.50463266  1
  Ni  Ni37  1  0.33597549  0.00358008  0.67179274  1
  Ni  Ni38  1  0.50226086  0.16883243  0.83527848  1
  Fe  Fe39  1  0.50185108  0.50148336  0.50378177  1
  Ni  Ni40  1  0.33953877  0.33690173  0.66977784  1
  Fe  Fe41  1  0.50223269  0.50273680  0.83666435  1
  Cr  Cr42  1  0.50216481  0.83818460  0.50455612  1
  Fe  Fe43  1  0.33376639  0.66813348  0.67005996  1
  Fe  Fe44  1  0.50094727  0.83635947  0.83785005  1
  Ni  Ni45  1  0.83639727  0.17040922  0.50530292  1
  Fe  Fe46  1  0.67059434  0.00649894  0.67083207  1
  Fe  Fe47  1  0.83881834  0.17078006  0.83676702  1
  Ni  Ni48  1  0.83753951  0.50408406  0.50512628  1
  Ni  Ni49  1  0.66952642  0.33736155  0.67106760  1
  Ni  Ni50  1  0.83659618  0.50297649  0.83578952  1
  Fe  Fe51  1  0.83957570  0.83665972  0.50313013  1
  Fe  Fe52  1  0.66988221  0.66763016  0.67070363  1
  Cr  Cr53  1  0.83613593  0.83530121  0.83789932  1
" 