1584,Ni57Fe43_11,-239.571052373811, 217.760478782113,Ni57Fe43,"# generated using pymatgen
 data_Fe31Ni23
_symmetry_space_group_name_H-M   'P 1'
_cell_length_a   7.39775720
_cell_length_b   7.39775720
_cell_length_c   10.46200856
_cell_angle_alpha   90.00000000
_cell_angle_beta   90.00000000
_cell_angle_gamma   90.00000000
_symmetry_Int_Tables_number   1
_chemical_formula_structural   Fe31Ni23
_chemical_formula_sum   'Fe31 Ni23'
_cell_volume   572.55237034
_cell_formula_units_Z   1
loop_
 _symmetry_equiv_pos_site_id
 _symmetry_equiv_pos_as_xyz
  1  'x, y, z'
loop_
 _atom_site_type_symbol
 _atom_site_label
 _atom_site_symmetry_multiplicity
 _atom_site_fract_x
 _atom_site_fract_y
 _atom_site_fract_z
 _atom_site_occupancy
  Fe  Fe0  1  1.00374777  0.00710690  0.00492213  1
  Fe  Fe1  1  0.17158254  0.17361880  0.17245416  1
  Ni  Ni2  1  0.00520877  1.00217941  0.33713507  1
  Ni  Ni3  1  0.00477753  0.33950933  1.00387227  1
  Fe  Fe4  1  0.17117791  0.50247127  0.17054480  1
  Fe  Fe5  1  1.00402960  0.33628662  0.33734443  1
  Ni  Ni6  1  0.00469786  0.67312411  0.00544177  1
  Fe  Fe7  1  0.17137864  0.83805083  0.17069610  1
  Fe  Fe8  1  0.00514317  0.67032231  0.33751961  1
  Fe  Fe9  1  0.33736863  0.00550486  0.00574328  1
  Ni  Ni10  1  0.50511409  0.17257628  0.17208834  1
  Ni  Ni11  1  0.33636622  0.00552863  0.33794965  1
  Ni  Ni12  1  0.33887053  0.33720591  1.00456518  1
  Ni  Ni13  1  0.50412145  0.50478710  0.17204219  1
  Ni  Ni14  1  0.33873989  0.33728795  0.33840802  1
  Fe  Fe15  1  0.33840625  0.66995338  1.00416083  1
  Fe  Fe16  1  0.50630414  0.83863469  0.17236455  1
  Fe  Fe17  1  0.33927191  0.67135479  0.33801735  1
  Ni  Ni18  1  0.67103524  1.00457205  0.00570807  1
  Ni  Ni19  1  0.83815164  0.17188866  0.17202871  1
  Fe  Fe20  1  0.67115290  0.00602876  0.33720815  1
  Ni  Ni21  1  0.67053948  0.33653336  1.00455403  1
  Ni  Ni22  1  0.83685335  0.50336479  0.17082900  1
  Ni  Ni23  1  0.67021769  0.33915597  0.33775240  1
  Fe  Fe24  1  0.67164123  0.66937123  0.00528801  1
  Fe  Fe25  1  0.83649930  0.83765851  0.17072548  1
  Ni  Ni26  1  0.67319194  0.67090143  0.33840308  1
  Ni  Ni27  1  0.17035556  0.17120537  0.50449528  1
  Fe  Fe28  1  1.00429434  0.00669810  0.67066588  1
  Fe  Fe29  1  0.17163339  0.17161657  0.83724394  1
  Fe  Fe30  1  0.17094630  0.50251693  0.50540018  1
  Fe  Fe31  1  1.00393233  0.33818080  0.67154350  1
  Fe  Fe32  1  0.16998795  0.50536122  0.83783374  1
  Fe  Fe33  1  0.17053706  0.83934886  0.50512007  1
  Ni  Ni34  1  1.00411722  0.67348867  0.67043956  1
  Ni  Ni35  1  0.17141397  0.83831473  0.83728307  1
  Fe  Fe36  1  0.50452264  0.17177360  0.50387205  1
  Fe  Fe37  1  0.33756165  0.00473740  0.67025642  1
  Fe  Fe38  1  0.50539705  0.17060740  0.83919393  1
  Fe  Fe39  1  0.50490974  0.50238237  0.50457167  1
  Ni  Ni40  1  0.33914177  0.33648821  0.67173798  1
  Ni  Ni41  1  0.50398417  0.50462784  0.83842680  1
  Fe  Fe42  1  0.50501902  0.83978618  0.50361786  1
  Fe  Fe43  1  0.33829333  0.66958724  0.67191684  1
  Fe  Fe44  1  0.50615706  0.83869124  0.83831584  1
  Ni  Ni45  1  0.83810644  0.17129511  0.50347894  1
  Fe  Fe46  1  0.67246177  0.00565496  0.67250822  1
  Ni  Ni47  1  0.83849749  0.17135872  0.83825225  1
  Fe  Fe48  1  0.83834167  0.50312657  0.50408241  1
  Ni  Ni49  1  0.67023222  0.33710831  0.67218065  1
  Fe  Fe50  1  0.83814626  0.50586544  0.83860444  1
  Fe  Fe51  1  0.83867680  0.83907763  0.50497748  1
  Fe  Fe52  1  0.67102909  0.66982690  0.67082198  1
  Ni  Ni53  1  0.83960708  0.83918874  0.83828538  1
" 