6131,Ni57Fe27Cr15_14,-235.352904347195, 198.551687370001,Ni57Fe27Cr15,"# generated using pymatgen
 data_Cr9Fe14Ni31
_symmetry_space_group_name_H-M   'P 1'
_cell_length_a   7.43576340
_cell_length_b   7.43576340
_cell_length_c   10.51575744
_cell_angle_alpha   90.00000000
_cell_angle_beta   90.00000000
_cell_angle_gamma   90.00000000
_symmetry_Int_Tables_number   1
_chemical_formula_structural   Cr9Fe14Ni31
_chemical_formula_sum   'Cr9 Fe14 Ni31'
_cell_volume   581.42230007
_cell_formula_units_Z   1
loop_
 _symmetry_equiv_pos_site_id
 _symmetry_equiv_pos_as_xyz
  1  'x, y, z'
loop_
 _atom_site_type_symbol
 _atom_site_label
 _atom_site_symmetry_multiplicity
 _atom_site_fract_x
 _atom_site_fract_y
 _atom_site_fract_z
 _atom_site_occupancy
  Ni  Ni0  1  1.00161889  0.00432887  1.00107063  1
  Ni  Ni1  1  0.16680683  0.16913791  0.16757211  1
  Ni  Ni2  1  0.00211472  0.00502460  0.33541352  1
  Fe  Fe3  1  0.00273169  0.33313462  0.00267469  1
  Ni  Ni4  1  0.16914566  0.49936631  0.16787530  1
  Fe  Fe5  1  1.00036764  0.33404938  0.33603159  1
  Cr  Cr6  1  0.00237943  0.66959899  1.00092805  1
  Cr  Cr7  1  0.17163650  0.83746972  0.16935448  1
  Cr  Cr8  1  0.00465813  0.66801462  0.33707298  1
  Ni  Ni9  1  0.33551437  0.00249445  1.00148418  1
  Fe  Fe10  1  0.50287064  0.16871450  0.16832708  1
  Fe  Fe11  1  0.33665665  1.00102233  0.33624799  1
  Fe  Fe12  1  0.33579863  0.33586537  0.00251861  1
  Ni  Ni13  1  0.50310365  0.50342207  0.16649078  1
  Cr  Cr14  1  0.33601107  0.33680515  0.33620673  1
  Ni  Ni15  1  0.33799325  0.66742310  1.00183300  1
  Ni  Ni16  1  0.50286088  0.83561194  0.16820477  1
  Ni  Ni17  1  0.33584673  0.66888835  0.33641755  1
  Ni  Ni18  1  0.66917690  0.00232710  1.00138676  1
  Fe  Fe19  1  0.83520996  0.16913412  0.16880141  1
  Ni  Ni20  1  0.66896263  0.00494425  0.33526344  1
  Ni  Ni21  1  0.66735088  0.33521892  0.00293224  1
  Ni  Ni22  1  0.83405866  0.49897650  0.16792816  1
  Ni  Ni23  1  0.66960451  0.33365540  0.33665572  1
  Ni  Ni24  1  0.66552381  0.66876908  0.00325766  1
  Fe  Fe25  1  0.83326801  0.83726196  0.16745187  1
  Cr  Cr26  1  0.66560835  0.66726280  0.33458874  1
  Ni  Ni27  1  0.16758838  0.16769923  0.50285593  1
  Ni  Ni28  1  0.00313313  0.00386467  0.66983014  1
  Fe  Fe29  1  0.16799848  0.16834291  0.83551502  1
  Ni  Ni30  1  0.16779409  0.50153464  0.50232287  1
  Ni  Ni31  1  0.00230334  0.33326915  0.66688510  1
  Ni  Ni32  1  0.17068781  0.50049014  0.83611229  1
  Ni  Ni33  1  0.17097341  0.83707667  0.50210820  1
  Fe  Fe34  1  0.00324646  0.66793443  0.66850930  1
  Fe  Fe35  1  0.16852651  0.83661026  0.83554579  1
  Ni  Ni36  1  0.50326369  0.16773029  0.50307747  1
  Fe  Fe37  1  0.33537131  0.00405119  0.66840039  1
  Fe  Fe38  1  0.50336116  0.16901256  0.83542658  1
  Ni  Ni39  1  0.50231183  0.50076309  0.50191364  1
  Fe  Fe40  1  0.33497782  0.33428908  0.66815981  1
  Ni  Ni41  1  0.50005964  0.50164962  0.83790747  1
  Ni  Ni42  1  0.49910303  0.83781845  0.50032350  1
  Cr  Cr43  1  0.33461651  0.66830994  0.66771645  1
  Ni  Ni44  1  0.50243792  0.83684566  0.83777771  1
  Ni  Ni45  1  0.83546197  0.17090613  0.50148777  1
  Fe  Fe46  1  0.66890026  0.00489782  0.66951845  1
  Ni  Ni47  1  0.83593457  0.16622535  0.83566730  1
  Ni  Ni48  1  0.83620377  0.49737519  0.50323846  1
  Ni  Ni49  1  0.66861295  0.33355560  0.66672303  1
  Cr  Cr50  1  0.83524588  0.50058380  0.83482146  1
  Cr  Cr51  1  0.83586467  0.83751907  0.50296866  1
  Cr  Cr52  1  0.66795988  0.66761806  0.66841068  1
  Ni  Ni53  1  0.83477854  0.83970069  0.83638255  1
" 