6260,Ni57Fe34Cr8_14,-238.080736614432, 210.258498954872,Ni57Fe34Cr8,"# generated using pymatgen
 data_Cr5Fe18Ni31
_symmetry_space_group_name_H-M   'P 1'
_cell_length_a   7.41846653
_cell_length_b   7.41846653
_cell_length_c   10.49129598
_cell_angle_alpha   90.00000000
_cell_angle_beta   90.00000000
_cell_angle_gamma   90.00000000
_symmetry_Int_Tables_number   1
_chemical_formula_structural   Cr5Fe18Ni31
_chemical_formula_sum   'Cr5 Fe18 Ni31'
_cell_volume   577.37426584
_cell_formula_units_Z   1
loop_
 _symmetry_equiv_pos_site_id
 _symmetry_equiv_pos_as_xyz
  1  'x, y, z'
loop_
 _atom_site_type_symbol
 _atom_site_label
 _atom_site_symmetry_multiplicity
 _atom_site_fract_x
 _atom_site_fract_y
 _atom_site_fract_z
 _atom_site_occupancy
  Ni  Ni0  1  1.00216156  0.00366713  0.00334980  1
  Ni  Ni1  1  0.16768475  0.16947465  0.16984050  1
  Ni  Ni2  1  1.00067891  1.00303665  0.33616461  1
  Fe  Fe3  1  1.00198086  0.33773813  0.00428786  1
  Ni  Ni4  1  0.16981484  0.50473927  0.17094518  1
  Ni  Ni5  1  1.00274413  0.33783282  0.33466184  1
  Ni  Ni6  1  1.00168733  0.66969900  1.00325441  1
  Fe  Fe7  1  0.16848670  0.83745738  0.16969287  1
  Ni  Ni8  1  1.00243339  0.66897286  0.33738256  1
  Ni  Ni9  1  0.33657479  1.00312400  0.00332711  1
  Fe  Fe10  1  0.50352239  0.16767428  0.17112010  1
  Ni  Ni11  1  0.33875607  1.00297347  0.33536826  1
  Cr  Cr12  1  0.33599047  0.33644804  0.00370160  1
  Fe  Fe13  1  0.50408788  0.50434243  0.16995212  1
  Ni  Ni14  1  0.33621764  0.33665416  0.33517352  1
  Ni  Ni15  1  0.33715790  0.66996194  0.00331854  1
  Ni  Ni16  1  0.50307362  0.83484226  0.16866341  1
  Ni  Ni17  1  0.33597098  0.66995202  0.33460687  1
  Fe  Fe18  1  0.66982208  1.00242512  0.00421446  1
  Ni  Ni19  1  0.83772154  0.16968364  0.16976208  1
  Ni  Ni20  1  0.67015314  1.00295691  0.33682272  1
  Fe  Fe21  1  0.67192311  0.33699970  1.00264578  1
  Fe  Fe22  1  0.83766964  0.50457763  0.17043921  1
  Fe  Fe23  1  0.67178123  0.33491248  0.33579928  1
  Ni  Ni24  1  0.67090429  0.66908314  0.00382257  1
  Ni  Ni25  1  0.83595368  0.83722570  0.17009379  1
  Fe  Fe26  1  0.67079537  0.67202935  0.33568147  1
  Cr  Cr27  1  0.16819886  0.16922394  0.50263396  1
  Ni  Ni28  1  1.00089449  0.00332545  0.67031481  1
  Fe  Fe29  1  0.16853448  0.16918232  0.83691084  1
  Fe  Fe30  1  0.16870256  0.50364540  0.50220488  1
  Ni  Ni31  1  1.00281497  0.33768492  0.67153014  1
  Fe  Fe32  1  0.16968748  0.50394982  0.83694835  1
  Ni  Ni33  1  0.16982368  0.83416844  0.50087542  1
  Fe  Fe34  1  0.00465131  0.67101048  0.66953531  1
  Ni  Ni35  1  0.16888913  0.83523423  0.83899857  1
  Ni  Ni36  1  0.50536206  0.17061697  0.50127787  1
  Cr  Cr37  1  0.33709457  1.00316629  0.67062125  1
  Ni  Ni38  1  0.50572955  0.17244333  0.83744815  1
  Cr  Cr39  1  0.50351881  0.50344176  0.50251574  1
  Ni  Ni40  1  0.33574288  0.33878163  0.67109704  1
  Ni  Ni41  1  0.50447359  0.50463653  0.83617481  1
  Ni  Ni42  1  0.50142591  0.83473498  0.50279522  1
  Ni  Ni43  1  0.33694784  0.66795084  0.67164188  1
  Fe  Fe44  1  0.50346060  0.83511959  0.83859716  1
  Ni  Ni45  1  0.83684241  0.17246789  0.50252208  1
  Cr  Cr46  1  0.67174019  1.00156588  0.66936189  1
  Ni  Ni47  1  0.83779301  0.17085149  0.83784487  1
  Ni  Ni48  1  0.83745824  0.50234164  0.50365945  1
  Fe  Fe49  1  0.67067098  0.33673725  0.67091212  1
  Fe  Fe50  1  0.83581275  0.50383366  0.83596491  1
  Fe  Fe51  1  0.83672400  0.83630694  0.50141134  1
  Ni  Ni52  1  0.67118053  0.66964110  0.67021551  1
  Fe  Fe53  1  0.83689087  0.83626711  0.83870798  1
" 