4428,Ni57Fe27Cr15_9,-235.660310787539, 198.761646210667,Ni57Fe27Cr15,"# generated using pymatgen
 data_Cr9Fe14Ni31
_symmetry_space_group_name_H-M   'P 1'
_cell_length_a   7.44813172
_cell_length_b   7.44813172
_cell_length_c   10.53324889
_cell_angle_alpha   90.00000000
_cell_angle_beta   90.00000000
_cell_angle_gamma   90.00000000
_symmetry_Int_Tables_number   1
_chemical_formula_structural   Cr9Fe14Ni31
_chemical_formula_sum   'Cr9 Fe14 Ni31'
_cell_volume   584.32846534
_cell_formula_units_Z   1
loop_
 _symmetry_equiv_pos_site_id
 _symmetry_equiv_pos_as_xyz
  1  'x, y, z'
loop_
 _atom_site_type_symbol
 _atom_site_label
 _atom_site_symmetry_multiplicity
 _atom_site_fract_x
 _atom_site_fract_y
 _atom_site_fract_z
 _atom_site_occupancy
  Cr  Cr0  1  0.00132227  0.00229079  1.00117025  1
  Fe  Fe1  1  0.16886788  0.16736797  0.17013155  1
  Ni  Ni2  1  1.00056449  1.00109398  0.33415199  1
  Cr  Cr3  1  1.00023434  0.33486153  0.99983611  1
  Ni  Ni4  1  0.16813948  0.50239736  0.17123792  1
  Ni  Ni5  1  0.00156259  0.33528747  0.33413290  1
  Cr  Cr6  1  0.99930531  0.66665807  1.00111282  1
  Fe  Fe7  1  0.16897144  0.83602807  0.17035839  1
  Ni  Ni8  1  0.00135392  0.66743007  0.33423009  1
  Ni  Ni9  1  0.33632678  0.00232438  0.00132449  1
  Ni  Ni10  1  0.50180037  0.16727137  0.16944794  1
  Ni  Ni11  1  0.33495448  0.00156907  0.33370033  1
  Cr  Cr12  1  0.33574889  0.33303547  1.00060463  1
  Fe  Fe13  1  0.50287118  0.50001945  0.16991952  1
  Ni  Ni14  1  0.33442891  0.33528243  0.33370779  1
  Cr  Cr15  1  0.33597385  0.66778071  1.00051953  1
  Fe  Fe16  1  0.50081857  0.83546837  0.16990118  1
  Ni  Ni17  1  0.33416112  0.66695780  0.33495868  1
  Cr  Cr18  1  0.66670494  0.00206452  1.00053660  1
  Ni  Ni19  1  0.83276282  0.16784655  0.17055709  1
  Ni  Ni20  1  0.66829088  0.00136094  0.33433154  1
  Ni  Ni21  1  0.66762923  0.33550586  1.00024726  1
  Fe  Fe22  1  0.83306543  0.49991719  0.16985504  1
  Ni  Ni23  1  0.66781842  0.33449138  0.33449536  1
  Fe  Fe24  1  0.66796203  0.66620656  1.00032971  1
  Fe  Fe25  1  0.83401903  0.83447197  0.17090007  1
  Ni  Ni26  1  0.66829516  0.66795477  0.33370353  1
  Fe  Fe27  1  0.16646636  0.16797711  0.50095795  1
  Ni  Ni28  1  0.99936474  0.00393165  0.66839581  1
  Ni  Ni29  1  0.16837245  0.16715689  0.83420748  1
  Ni  Ni30  1  0.16861714  0.50178892  0.49971000  1
  Ni  Ni31  1  1.00038599  0.33327188  0.66944150  1
  Ni  Ni32  1  0.16836575  0.50013650  0.83286188  1
  Fe  Fe33  1  0.16842787  0.83406842  0.50047574  1
  Cr  Cr34  1  1.00042007  0.66611783  0.66781357  1
  Cr  Cr35  1  0.16895797  0.83631742  0.83282502  1
  Fe  Fe36  1  0.50235072  0.16772655  0.49996044  1
  Ni  Ni37  1  0.33605894  1.00074975  0.66878916  1
  Ni  Ni38  1  0.50189428  0.16735421  0.83459391  1
  Ni  Ni39  1  0.50124338  0.50222394  0.49953161  1
  Cr  Cr40  1  0.33354938  0.33578029  0.66909778  1
  Ni  Ni41  1  0.50351270  0.50155226  0.83472701  1
  Fe  Fe42  1  0.50173737  0.83297091  0.50135970  1
  Ni  Ni43  1  0.33725981  0.66792932  0.66776916  1
  Fe  Fe44  1  0.50272954  0.83481079  0.83254768  1
  Fe  Fe45  1  0.83499053  0.16870411  0.50096590  1
  Ni  Ni46  1  0.66838886  1.00038670  0.66877491  1
  Ni  Ni47  1  0.83354343  0.16819441  0.83187229  1
  Ni  Ni48  1  0.83394936  0.50141001  0.49979307  1
  Fe  Fe49  1  0.66935324  0.33477391  0.66867281  1
  Ni  Ni50  1  0.83193077  0.50071798  0.83471728  1
  Ni  Ni51  1  0.83408933  0.83572736  0.49980523  1
  Ni  Ni52  1  0.66652965  0.66895221  0.66968782  1
  Ni  Ni53  1  0.83212799  0.83489598  0.83381441  1
" 