5244,Ni57Fe34Cr8_0,-238.778588214665, 211.606716415612,Ni57Fe34Cr8,"# generated using pymatgen
 data_Cr5Fe18Ni31
_symmetry_space_group_name_H-M   'P 1'
_cell_length_a   7.42073429
_cell_length_b   7.42073429
_cell_length_c   10.49450307
_cell_angle_alpha   90.00000000
_cell_angle_beta   90.00000000
_cell_angle_gamma   90.00000000
_symmetry_Int_Tables_number   1
_chemical_formula_structural   Cr5Fe18Ni31
_chemical_formula_sum   'Cr5 Fe18 Ni31'
_cell_volume   577.90392120
_cell_formula_units_Z   1
loop_
 _symmetry_equiv_pos_site_id
 _symmetry_equiv_pos_as_xyz
  1  'x, y, z'
loop_
 _atom_site_type_symbol
 _atom_site_label
 _atom_site_symmetry_multiplicity
 _atom_site_fract_x
 _atom_site_fract_y
 _atom_site_fract_z
 _atom_site_occupancy
  Ni  Ni0  1  1.00245107  1.00281474  1.00289445  1
  Ni  Ni1  1  0.17129592  0.17003640  0.16995575  1
  Ni  Ni2  1  0.00334368  0.00390894  0.33741979  1
  Fe  Fe3  1  0.00460171  0.33765096  1.00300500  1
  Fe  Fe4  1  0.16890327  0.50224558  0.16922811  1
  Ni  Ni5  1  0.00465147  0.33585492  0.33701210  1
  Ni  Ni6  1  1.00241182  0.67147781  1.00213994  1
  Ni  Ni7  1  0.17046039  0.83960355  0.16928248  1
  Cr  Cr8  1  1.00163847  0.67104228  0.33565164  1
  Fe  Fe9  1  0.33583350  0.00362153  0.00381294  1
  Fe  Fe10  1  0.50261583  0.16964004  0.17120065  1
  Ni  Ni11  1  0.33595240  0.00489030  0.33652782  1
  Ni  Ni12  1  0.33739846  0.33434993  0.00362038  1
  Ni  Ni13  1  0.50362100  0.50246684  0.17176765  1
  Ni  Ni14  1  0.33624888  0.33629382  0.33607411  1
  Cr  Cr15  1  0.33570458  0.66760654  0.00362767  1
  Ni  Ni16  1  0.50264488  0.83692826  0.17193774  1
  Fe  Fe17  1  0.33745264  0.67057226  0.33610446  1
  Fe  Fe18  1  0.66909598  0.00322792  1.00264221  1
  Cr  Cr19  1  0.83867296  0.17035711  0.17119699  1
  Ni  Ni20  1  0.67006165  1.00243083  0.33677190  1
  Fe  Fe21  1  0.66988045  0.33653510  0.00342557  1
  Ni  Ni22  1  0.83600147  0.50284740  0.16958585  1
  Ni  Ni23  1  0.66890485  0.33685371  0.33758565  1
  Cr  Cr24  1  0.67098987  0.67021784  0.00369253  1
  Ni  Ni25  1  0.83596028  0.83635439  0.16983146  1
  Ni  Ni26  1  0.66920130  0.66969233  0.33641964  1
  Ni  Ni27  1  0.17038884  0.17087120  0.50300918  1
  Ni  Ni28  1  1.00207750  0.00364330  0.66911878  1
  Ni  Ni29  1  0.17071802  0.17046929  0.83616932  1
  Fe  Fe30  1  0.16945048  0.50074568  0.50353933  1
  Fe  Fe31  1  1.00290429  0.33585161  0.66920049  1
  Ni  Ni32  1  0.16755328  0.49986337  0.83683851  1
  Fe  Fe33  1  0.16888505  0.83976567  0.50254005  1
  Fe  Fe34  1  1.00103599  0.66991076  0.67056246  1
  Fe  Fe35  1  0.16709990  0.83734611  0.83683006  1
  Ni  Ni36  1  0.50205646  0.16842056  0.50286446  1
  Fe  Fe37  1  0.33752356  0.00431793  0.66878728  1
  Fe  Fe38  1  0.50340111  0.17060285  0.83532607  1
  Fe  Fe39  1  0.50503513  0.50145372  0.50198867  1
  Ni  Ni40  1  0.33628043  0.33571043  0.66983620  1
  Fe  Fe41  1  0.50391616  0.50102918  0.83640495  1
  Ni  Ni42  1  0.50399938  0.83684911  0.50186547  1
  Cr  Cr43  1  0.33711797  0.66792136  0.66972615  1
  Ni  Ni44  1  0.50361017  0.83894203  0.83563324  1
  Ni  Ni45  1  0.83700583  0.17028083  0.50299372  1
  Ni  Ni46  1  0.67180029  1.00264545  0.66981277  1
  Fe  Fe47  1  0.83785404  0.16881931  0.83600757  1
  Ni  Ni48  1  0.83615518  0.50293272  0.50364153  1
  Fe  Fe49  1  0.66997380  0.33581957  0.66857832  1
  Ni  Ni50  1  0.83758102  0.50269823  0.83567932  1
  Ni  Ni51  1  0.83375250  0.83614294  0.50345212  1
  Ni  Ni52  1  0.67017946  0.67012645  0.66986317  1
  Ni  Ni53  1  0.83515426  0.83580791  0.83582522  1
" 