8217,Ni57Fe27Cr15_0,-235.050714254907, 198.695340119845,Ni57Fe27Cr15,"# generated using pymatgen
 data_Cr9Fe14Ni31
_symmetry_space_group_name_H-M   'P 1'
_cell_length_a   7.43561517
_cell_length_b   7.43561517
_cell_length_c   10.51554782
_cell_angle_alpha   90.00000000
_cell_angle_beta   90.00000000
_cell_angle_gamma   90.00000000
_symmetry_Int_Tables_number   1
_chemical_formula_structural   Cr9Fe14Ni31
_chemical_formula_sum   'Cr9 Fe14 Ni31'
_cell_volume   581.38753043
_cell_formula_units_Z   1
loop_
 _symmetry_equiv_pos_site_id
 _symmetry_equiv_pos_as_xyz
  1  'x, y, z'
loop_
 _atom_site_type_symbol
 _atom_site_label
 _atom_site_symmetry_multiplicity
 _atom_site_fract_x
 _atom_site_fract_y
 _atom_site_fract_z
 _atom_site_occupancy
  Fe  Fe0  1  0.00296277  0.00399002  1.00175157  1
  Ni  Ni1  1  0.16896585  0.16813607  0.16688074  1
  Cr  Cr2  1  1.00142027  0.00220720  0.33368012  1
  Ni  Ni3  1  1.00139146  0.33544853  1.00053627  1
  Fe  Fe4  1  0.16919327  0.50003775  0.16894271  1
  Ni  Ni5  1  0.00368778  0.33461567  0.33495017  1
  Cr  Cr6  1  0.00273719  0.66836706  0.00311690  1
  Ni  Ni7  1  0.17182317  0.83680992  0.16722243  1
  Cr  Cr8  1  0.00348147  0.67067900  0.33628447  1
  Ni  Ni9  1  0.33673433  1.00154501  0.99985175  1
  Ni  Ni10  1  0.50057904  0.16746397  0.17069432  1
  Fe  Fe11  1  0.33461093  0.00281667  0.33597360  1
  Cr  Cr12  1  0.33509797  0.33615995  1.00006921  1
  Fe  Fe13  1  0.50092067  0.50063222  0.17066621  1
  Ni  Ni14  1  0.33573319  0.33578376  0.33585984  1
  Ni  Ni15  1  0.33457910  0.67007919  1.00028236  1
  Cr  Cr16  1  0.50010737  0.83416202  0.16703878  1
  Ni  Ni17  1  0.33524285  0.66709686  0.33642295  1
  Ni  Ni18  1  0.66946957  0.00236452  1.00106763  1
  Ni  Ni19  1  0.83692599  0.17279079  0.16742149  1
  Cr  Cr20  1  0.66977465  0.00312228  0.33820141  1
  Cr  Cr21  1  0.66866499  0.33308932  1.00161632  1
  Ni  Ni22  1  0.83444131  0.50070269  0.16992729  1
  Ni  Ni23  1  0.66717554  0.33478137  0.33505804  1
  Fe  Fe24  1  0.66843460  0.66815356  1.00147432  1
  Fe  Fe25  1  0.83479057  0.83737398  0.16672376  1
  Ni  Ni26  1  0.66711949  0.66839019  0.33476639  1
  Ni  Ni27  1  0.16815125  0.16773872  0.50244875  1
  Ni  Ni28  1  0.99989751  1.00045033  0.66935594  1
  Fe  Fe29  1  0.16633269  0.16886935  0.83505008  1
  Fe  Fe30  1  0.16981180  0.50237040  0.50371390  1
  Ni  Ni31  1  1.00138026  0.33424097  0.67051615  1
  Ni  Ni32  1  0.16764366  0.50400273  0.83393495  1
  Ni  Ni33  1  0.17158632  0.83769010  0.50373405  1
  Ni  Ni34  1  0.00397543  0.67176022  0.66846125  1
  Fe  Fe35  1  0.16909876  0.83587571  0.83465808  1
  Fe  Fe36  1  0.50240055  0.16875863  0.50254447  1
  Fe  Fe37  1  0.33357159  0.00224422  0.66937236  1
  Ni  Ni38  1  0.50261077  0.16591037  0.83424671  1
  Ni  Ni39  1  0.50223035  0.50415797  0.50008770  1
  Cr  Cr40  1  0.33758344  0.33810622  0.67030149  1
  Ni  Ni41  1  0.50303987  0.50460740  0.83599051  1
  Ni  Ni42  1  0.49949544  0.83333798  0.50392411  1
  Ni  Ni43  1  0.33528469  0.67036676  0.66964025  1
  Fe  Fe44  1  0.50344568  0.83467745  0.83564060  1
  Ni  Ni45  1  0.83781493  0.16946360  0.50422760  1
  Fe  Fe46  1  0.66993610  1.00129361  0.66897214  1
  Ni  Ni47  1  0.83574667  0.16843249  0.83470896  1
  Cr  Cr48  1  0.83447875  0.49968578  0.50457627  1
  Ni  Ni49  1  0.66830110  0.33244122  0.67004149  1
  Ni  Ni50  1  0.83573329  0.50197960  0.83263570  1
  Ni  Ni51  1  0.83460029  0.83539136  0.50380251  1
  Fe  Fe52  1  0.66890890  0.66795896  0.66906154  1
  Ni  Ni53  1  0.83501112  0.83552488  0.83600800  1
" 