8299,Ni57Fe43_4,-239.809686433289, 223.456991425331,Ni57Fe43,"# generated using pymatgen
 data_Fe31Ni23
_symmetry_space_group_name_H-M   'P 1'
_cell_length_a   7.40240049
_cell_length_b   7.40240049
_cell_length_c   10.46857517
_cell_angle_alpha   90.00000000
_cell_angle_beta   90.00000000
_cell_angle_gamma   90.00000000
_symmetry_Int_Tables_number   1
_chemical_formula_structural   Fe31Ni23
_chemical_formula_sum   'Fe31 Ni23'
_cell_volume   573.63115635
_cell_formula_units_Z   1
loop_
 _symmetry_equiv_pos_site_id
 _symmetry_equiv_pos_as_xyz
  1  'x, y, z'
loop_
 _atom_site_type_symbol
 _atom_site_label
 _atom_site_symmetry_multiplicity
 _atom_site_fract_x
 _atom_site_fract_y
 _atom_site_fract_z
 _atom_site_occupancy
  Ni  Ni0  1  1.00411485  1.00360056  0.00456838  1
  Ni  Ni1  1  0.17040695  0.17140995  0.17158253  1
  Fe  Fe2  1  1.00386521  0.00538528  0.33770218  1
  Fe  Fe3  1  1.00415761  0.33705584  1.00400591  1
  Fe  Fe4  1  0.17153335  0.50394303  0.17125574  1
  Fe  Fe5  1  1.00422688  0.33720936  0.33756354  1
  Ni  Ni6  1  1.00410620  0.67207165  1.00392254  1
  Fe  Fe7  1  0.17100959  0.83853111  0.17046376  1
  Fe  Fe8  1  1.00415094  0.67050381  0.33750924  1
  Fe  Fe9  1  0.33651010  1.00403620  1.00410573  1
  Ni  Ni10  1  0.50400215  0.17210528  0.17058484  1
  Fe  Fe11  1  0.33867584  0.00534142  0.33817299  1
  Fe  Fe12  1  0.33688905  0.33756267  0.00519892  1
  Ni  Ni13  1  0.50399867  0.50472107  0.17167843  1
  Ni  Ni14  1  0.33944249  0.33760475  0.33803839  1
  Fe  Fe15  1  0.33730223  0.67150377  1.00381494  1
  Ni  Ni16  1  0.50446766  0.83627324  0.17117685  1
  Fe  Fe17  1  0.33859823  0.67033802  0.33824903  1
  Fe  Fe18  1  0.67222125  1.00396220  0.00522832  1
  Ni  Ni19  1  0.83869079  0.17094105  0.17103329  1
  Fe  Fe20  1  0.67056017  0.00526722  0.33769841  1
  Fe  Fe21  1  0.67205083  0.33784834  0.00462258  1
  Fe  Fe22  1  0.83679535  0.50403769  0.17055729  1
  Ni  Ni23  1  0.66998512  0.33759692  0.33725113  1
  Fe  Fe24  1  0.67171492  0.67129159  0.00457929  1
  Ni  Ni25  1  0.83789623  0.83776700  0.17073490  1
  Fe  Fe26  1  0.67035122  0.67070178  0.33741500  1
  Fe  Fe27  1  0.17124536  0.16943838  0.50457912  1
  Ni  Ni28  1  0.00452736  1.00421000  0.67108085  1
  Ni  Ni29  1  0.16998178  0.16982780  0.83680446  1
  Fe  Fe30  1  0.17138551  0.50493657  0.50414624  1
  Fe  Fe31  1  0.00481660  0.33684895  0.67152965  1
  Fe  Fe32  1  0.17056145  0.50431761  0.83769810  1
  Ni  Ni33  1  0.17121681  0.83705003  0.50392447  1
  Fe  Fe34  1  0.00534679  0.67228814  0.67136522  1
  Ni  Ni35  1  0.17114117  0.83825740  0.83789342  1
  Ni  Ni36  1  0.50463131  0.17159605  0.50456781  1
  Ni  Ni37  1  0.33689836  1.00373798  0.67093232  1
  Fe  Fe38  1  0.50415399  0.17146934  0.83741476  1
  Fe  Fe39  1  0.50463192  0.50462877  0.50415780  1
  Fe  Fe40  1  0.33743716  0.33708706  0.67084515  1
  Ni  Ni41  1  0.50482256  0.50500690  0.83715073  1
  Ni  Ni42  1  0.50346932  0.83716760  0.50457605  1
  Ni  Ni43  1  0.33805592  0.67136922  0.67103469  1
  Fe  Fe44  1  0.50391666  0.83760604  0.83720058  1
  Ni  Ni45  1  0.83760294  0.17125450  0.50427212  1
  Fe  Fe46  1  0.67070102  1.00410879  0.67017515  1
  Ni  Ni47  1  0.83909927  0.17179545  0.83779453  1
  Fe  Fe48  1  0.83708385  0.50470159  0.50463087  1
  Fe  Fe49  1  0.67084565  0.33708497  0.67091983  1
  Ni  Ni50  1  0.83678427  0.50385127  0.83779396  1
  Ni  Ni51  1  0.83841429  0.83786331  0.50535620  1
  Fe  Fe52  1  0.67046247  0.67191046  0.67110942  1
  Fe  Fe53  1  0.83884044  0.83777316  0.83813045  1
" 