4198,Ni57Fe36Cr6_19,-238.235227584927, 208.726414099306,Ni57Fe36Cr6,"# generated using pymatgen
 data_Cr5Fe19Ni30
_symmetry_space_group_name_H-M   'P 1'
_cell_length_a   7.42336428
_cell_length_b   7.42336428
_cell_length_c   10.49822245
_cell_angle_alpha   90.00000000
_cell_angle_beta   90.00000000
_cell_angle_gamma   90.00000000
_symmetry_Int_Tables_number   1
_chemical_formula_structural   Cr5Fe19Ni30
_chemical_formula_sum   'Cr5 Fe19 Ni30'
_cell_volume   578.51858662
_cell_formula_units_Z   1
loop_
 _symmetry_equiv_pos_site_id
 _symmetry_equiv_pos_as_xyz
  1  'x, y, z'
loop_
 _atom_site_type_symbol
 _atom_site_label
 _atom_site_symmetry_multiplicity
 _atom_site_fract_x
 _atom_site_fract_y
 _atom_site_fract_z
 _atom_site_occupancy
  Ni  Ni0  1  1.00085987  1.00190224  1.00275557  1
  Cr  Cr1  1  0.16792965  0.17092287  0.16974006  1
  Ni  Ni2  1  0.99966860  1.00233686  0.33740091  1
  Ni  Ni3  1  0.99980710  0.33548527  1.00208153  1
  Ni  Ni4  1  0.16706863  0.50428826  0.17123103  1
  Ni  Ni5  1  1.00069534  0.33637905  0.33642842  1
  Fe  Fe6  1  1.00161894  0.66800369  0.00305417  1
  Ni  Ni7  1  0.16777524  0.83475803  0.16912875  1
  Fe  Fe8  1  1.00251669  0.66868609  0.33605573  1
  Fe  Fe9  1  0.33673803  0.00369517  1.00234123  1
  Ni  Ni10  1  0.50628102  0.16914242  0.16896162  1
  Cr  Cr11  1  0.33707699  1.00195011  0.33536554  1
  Cr  Cr12  1  0.33757658  0.33788926  0.00445735  1
  Ni  Ni13  1  0.50540121  0.50347567  0.17182606  1
  Ni  Ni14  1  0.33777084  0.33915765  0.33651659  1
  Cr  Cr15  1  0.33711810  0.67039442  0.00375352  1
  Ni  Ni16  1  0.50532896  0.83645607  0.16839084  1
  Ni  Ni17  1  0.33706105  0.66847498  0.33647807  1
  Fe  Fe18  1  0.67020534  0.00438166  0.00359385  1
  Fe  Fe19  1  0.83524493  0.16967875  0.16965180  1
  Ni  Ni20  1  0.67174216  0.00326725  0.33562675  1
  Ni  Ni21  1  0.67138351  0.33623536  0.00334052  1
  Ni  Ni22  1  0.83652572  0.50347253  0.16792779  1
  Ni  Ni23  1  0.67036345  0.33585310  0.33585956  1
  Fe  Fe24  1  0.67200535  0.66865733  1.00280241  1
  Ni  Ni25  1  0.83570790  0.83549116  0.16938674  1
  Fe  Fe26  1  0.66993184  0.66954729  0.33675291  1
  Ni  Ni27  1  0.16890070  0.17180948  0.50532628  1
  Ni  Ni28  1  1.00193299  0.00467027  0.66868502  1
  Fe  Fe29  1  0.16745206  0.16961050  0.83519621  1
  Ni  Ni30  1  0.16938431  0.50160493  0.50212854  1
  Ni  Ni31  1  1.00236005  0.33452647  0.67044464  1
  Ni  Ni32  1  0.16886680  0.50227130  0.83563115  1
  Fe  Fe33  1  0.17022147  0.83729910  0.50284932  1
  Cr  Cr34  1  1.00227790  0.66997441  0.66930072  1
  Fe  Fe35  1  0.16885622  0.83848945  0.83639427  1
  Ni  Ni36  1  0.50350921  0.16809497  0.50426319  1
  Ni  Ni37  1  0.33567074  1.00268045  0.67089534  1
  Fe  Fe38  1  0.50369612  0.17012472  0.83552548  1
  Fe  Fe39  1  0.50322786  0.50148306  0.50269496  1
  Ni  Ni40  1  0.33647393  0.33690991  0.66938145  1
  Fe  Fe41  1  0.50470914  0.50206138  0.83519715  1
  Ni  Ni42  1  0.50403979  0.83592759  0.50420957  1
  Ni  Ni43  1  0.33820665  0.66922216  0.66908432  1
  Fe  Fe44  1  0.50389998  0.83673296  0.83465178  1
  Ni  Ni45  1  0.83628820  0.17037530  0.50255120  1
  Fe  Fe46  1  0.66989037  0.00317827  0.66871303  1
  Ni  Ni47  1  0.83568880  0.16890935  0.83617292  1
  Ni  Ni48  1  0.83668681  0.50176989  0.50403760  1
  Fe  Fe49  1  0.67026890  0.33576967  0.66928167  1
  Fe  Fe50  1  0.83547857  0.50103819  0.83642575  1
  Fe  Fe51  1  0.83515228  0.83745662  0.50211831  1
  Ni  Ni52  1  0.66830009  0.66948401  0.66970486  1
  Fe  Fe53  1  0.83604049  0.83742649  0.83710944  1
" 