4336,Ni57Fe36Cr6_12,-238.631680168898, 215.351318241745,Ni57Fe36Cr6,"# generated using pymatgen
 data_Cr5Fe19Ni30
_symmetry_space_group_name_H-M   'P 1'
_cell_length_a   7.41909548
_cell_length_b   7.41909548
_cell_length_c   10.49218546
_cell_angle_alpha   90.00000000
_cell_angle_beta   90.00000000
_cell_angle_gamma   90.00000000
_symmetry_Int_Tables_number   1
_chemical_formula_structural   Cr5Fe19Ni30
_chemical_formula_sum   'Cr5 Fe19 Ni30'
_cell_volume   577.52113125
_cell_formula_units_Z   1
loop_
 _symmetry_equiv_pos_site_id
 _symmetry_equiv_pos_as_xyz
  1  'x, y, z'
loop_
 _atom_site_type_symbol
 _atom_site_label
 _atom_site_symmetry_multiplicity
 _atom_site_fract_x
 _atom_site_fract_y
 _atom_site_fract_z
 _atom_site_occupancy
  Ni  Ni0  1  1.00320591  0.00398291  0.00338681  1
  Ni  Ni1  1  0.16697487  0.16823416  0.16962655  1
  Fe  Fe2  1  1.00310374  0.00380981  0.33614604  1
  Ni  Ni3  1  1.00287025  0.33587301  0.00363304  1
  Fe  Fe4  1  0.16930379  0.50406907  0.16911298  1
  Ni  Ni5  1  1.00100971  0.33609685  0.33664427  1
  Ni  Ni6  1  0.00590265  0.66984077  0.00360821  1
  Ni  Ni7  1  0.17083063  0.83695744  0.16912654  1
  Fe  Fe8  1  1.00275348  0.66952744  0.33660671  1
  Fe  Fe9  1  0.33526720  1.00226819  1.00225654  1
  Cr  Cr10  1  0.50416703  0.16924037  0.16779629  1
  Fe  Fe11  1  0.33625575  1.00130617  0.33776245  1
  Fe  Fe12  1  0.33566336  0.33728539  1.00259808  1
  Ni  Ni13  1  0.50443833  0.50526602  0.16987134  1
  Cr  Cr14  1  0.33600992  0.33760367  0.33778184  1
  Ni  Ni15  1  0.33494486  0.67021601  0.00324434  1
  Ni  Ni16  1  0.50092653  0.83523648  0.17090137  1
  Ni  Ni17  1  0.33657906  0.67198626  0.33676478  1
  Ni  Ni18  1  0.67065518  0.00483358  1.00190420  1
  Ni  Ni19  1  0.83869748  0.17174324  0.16941624  1
  Ni  Ni20  1  0.67077557  1.00294569  0.33775466  1
  Ni  Ni21  1  0.67103360  0.33498647  0.00340406  1
  Ni  Ni22  1  0.83697938  0.50141504  0.17060321  1
  Ni  Ni23  1  0.67288656  0.33612901  0.33689327  1
  Cr  Cr24  1  0.66894157  0.66985675  0.00387159  1
  Fe  Fe25  1  0.83711356  0.83798449  0.17045339  1
  Fe  Fe26  1  0.66973371  0.66917753  0.33695317  1
  Fe  Fe27  1  0.16854334  0.16867404  0.50435654  1
  Fe  Fe28  1  0.00369962  0.00429712  0.66990460  1
  Ni  Ni29  1  0.16934228  0.16968796  0.83597251  1
  Fe  Fe30  1  0.16942254  0.50369281  0.50326372  1
  Ni  Ni31  1  0.00409760  0.33494698  0.66941915  1
  Fe  Fe32  1  0.17083220  0.50271911  0.83732383  1
  Ni  Ni33  1  0.17157882  0.83736804  0.50310394  1
  Cr  Cr34  1  0.00326189  0.66944215  0.67045492  1
  Fe  Fe35  1  0.17124047  0.83652278  0.83745544  1
  Ni  Ni36  1  0.50317445  0.16812144  0.50388752  1
  Ni  Ni37  1  0.33679488  1.00229675  0.66912822  1
  Fe  Fe38  1  0.50279449  0.16944610  0.83708983  1
  Fe  Fe39  1  0.50396161  0.50540437  0.50323690  1
  Fe  Fe40  1  0.33522549  0.33678190  0.67004339  1
  Ni  Ni41  1  0.50293123  0.50437368  0.83615984  1
  Ni  Ni42  1  0.50214080  0.83674817  0.50341382  1
  Ni  Ni43  1  0.33827398  0.67140234  0.66968413  1
  Ni  Ni44  1  0.50211353  0.83638908  0.83537743  1
  Ni  Ni45  1  0.83737541  0.17072224  0.50279949  1
  Fe  Fe46  1  0.66933910  1.00098136  0.66918732  1
  Fe  Fe47  1  0.83699350  0.16985512  0.83797987  1
  Ni  Ni48  1  0.83675697  0.50238800  0.50180699  1
  Cr  Cr49  1  0.67092153  0.33661102  0.66937889  1
  Ni  Ni50  1  0.83687665  0.50225921  0.83728892  1
  Ni  Ni51  1  0.83597480  0.83658134  0.50290665  1
  Ni  Ni52  1  0.66774586  0.67139170  0.66922704  1
  Fe  Fe53  1  0.83607341  0.83753351  0.83653727  1
" 