3673,Ni57Fe34Cr8_16,-238.423549652859, 212.354037122066,Ni57Fe34Cr8,"# generated using pymatgen
 data_Cr5Fe18Ni31
_symmetry_space_group_name_H-M   'P 1'
_cell_length_a   7.41927959
_cell_length_b   7.41927959
_cell_length_c   10.49244581
_cell_angle_alpha   90.00000000
_cell_angle_beta   90.00000000
_cell_angle_gamma   90.00000000
_symmetry_Int_Tables_number   1
_chemical_formula_structural   Cr5Fe18Ni31
_chemical_formula_sum   'Cr5 Fe18 Ni31'
_cell_volume   577.56412500
_cell_formula_units_Z   1
loop_
 _symmetry_equiv_pos_site_id
 _symmetry_equiv_pos_as_xyz
  1  'x, y, z'
loop_
 _atom_site_type_symbol
 _atom_site_label
 _atom_site_symmetry_multiplicity
 _atom_site_fract_x
 _atom_site_fract_y
 _atom_site_fract_z
 _atom_site_occupancy
  Fe  Fe0  1  0.00587651  1.00311752  1.00282760  1
  Ni  Ni1  1  0.17052996  0.16814248  0.16918064  1
  Ni  Ni2  1  1.00161318  0.00400324  0.33526664  1
  Ni  Ni3  1  0.00438038  0.33642557  1.00160233  1
  Fe  Fe4  1  0.17043067  0.50359005  0.16840655  1
  Cr  Cr5  1  0.00438441  0.33474661  0.33770671  1
  Ni  Ni6  1  0.00329065  0.67042853  0.00422829  1
  Ni  Ni7  1  0.17101752  0.83836163  0.16978081  1
  Fe  Fe8  1  1.00049204  0.67350238  0.33595273  1
  Ni  Ni9  1  0.33812548  0.00363244  0.00384008  1
  Fe  Fe10  1  0.50439570  0.16908124  0.16942869  1
  Fe  Fe11  1  0.33772597  0.00434013  0.33565703  1
  Ni  Ni12  1  0.33582420  0.33566760  0.00429091  1
  Ni  Ni13  1  0.50200701  0.50318535  0.16964652  1
  Fe  Fe14  1  0.34037542  0.33422842  0.33573563  1
  Ni  Ni15  1  0.33614476  0.67020001  1.00307429  1
  Fe  Fe16  1  0.50425398  0.83688614  0.16957006  1
  Fe  Fe17  1  0.33913877  0.67103212  0.33427450  1
  Fe  Fe18  1  0.67005045  1.00281604  1.00259086  1
  Ni  Ni19  1  0.83696232  0.16846072  0.16764831  1
  Ni  Ni20  1  0.67007110  1.00196841  0.33678394  1
  Fe  Fe21  1  0.66816229  0.33601782  1.00175915  1
  Cr  Cr22  1  0.83266299  0.50283974  0.16982226  1
  Fe  Fe23  1  0.66820992  0.33427406  0.33768268  1
  Fe  Fe24  1  0.66800155  0.67042964  1.00221972  1
  Ni  Ni25  1  0.83698089  0.83850966  0.16914031  1
  Ni  Ni26  1  0.66836306  0.67157380  0.33742341  1
  Ni  Ni27  1  0.17031872  0.16887093  0.50460498  1
  Ni  Ni28  1  1.00203084  0.00436196  0.67105532  1
  Ni  Ni29  1  0.17066506  0.16926539  0.83603135  1
  Cr  Cr30  1  0.17258492  0.50214561  0.50372617  1
  Fe  Fe31  1  1.00083199  0.33360768  0.67082509  1
  Fe  Fe32  1  0.16933526  0.50336095  0.83788444  1
  Cr  Cr33  1  0.17175892  0.84086816  0.50347784  1
  Cr  Cr34  1  0.99957415  0.67044296  0.67001571  1
  Ni  Ni35  1  0.17224655  0.83910471  0.83710161  1
  Fe  Fe36  1  0.50390360  0.16903089  0.50388513  1
  Ni  Ni37  1  0.33834399  0.00555100  0.66986436  1
  Fe  Fe38  1  0.50380452  0.16814281  0.83621751  1
  Ni  Ni39  1  0.50496244  0.50400954  0.50381219  1
  Ni  Ni40  1  0.33761615  0.33492755  0.67068665  1
  Fe  Fe41  1  0.50303105  0.50236772  0.83654041  1
  Ni  Ni42  1  0.50429339  0.83536870  0.50333794  1
  Fe  Fe43  1  0.34039714  0.67104132  0.67197318  1
  Ni  Ni44  1  0.50234406  0.83577450  0.83675994  1
  Ni  Ni45  1  0.83648296  0.16879550  0.50453471  1
  Ni  Ni46  1  0.66978006  1.00224455  0.66964906  1
  Ni  Ni47  1  0.83714248  0.17072178  0.83702455  1
  Ni  Ni48  1  0.83198034  0.50237333  0.50288137  1
  Ni  Ni49  1  0.66852382  0.33675964  0.66885897  1
  Ni  Ni50  1  0.83379960  0.50161199  0.83700580  1
  Ni  Ni51  1  0.83372200  0.83830757  0.50238948  1
  Ni  Ni52  1  0.66944442  0.67020245  0.67009258  1
  Ni  Ni53  1  0.83544622  0.83711524  0.83805884  1
" 