6492,Ni57Fe36Cr6_8,-238.060887351974, 213.073516774922,Ni57Fe36Cr6,"# generated using pymatgen
 data_Cr5Fe19Ni30
_symmetry_space_group_name_H-M   'P 1'
_cell_length_a   7.41809389
_cell_length_b   7.41809389
_cell_length_c   10.49076898
_cell_angle_alpha   90.00000000
_cell_angle_beta   90.00000000
_cell_angle_gamma   90.00000000
_symmetry_Int_Tables_number   1
_chemical_formula_structural   Cr5Fe19Ni30
_chemical_formula_sum   'Cr5 Fe19 Ni30'
_cell_volume   577.28726223
_cell_formula_units_Z   1
loop_
 _symmetry_equiv_pos_site_id
 _symmetry_equiv_pos_as_xyz
  1  'x, y, z'
loop_
 _atom_site_type_symbol
 _atom_site_label
 _atom_site_symmetry_multiplicity
 _atom_site_fract_x
 _atom_site_fract_y
 _atom_site_fract_z
 _atom_site_occupancy
  Ni  Ni0  1  0.00511282  1.00295516  1.00321445  1
  Ni  Ni1  1  0.16950258  0.16885938  0.16876968  1
  Fe  Fe2  1  1.00290840  1.00257012  0.33617779  1
  Fe  Fe3  1  0.00421956  0.33683220  1.00246218  1
  Ni  Ni4  1  0.17106280  0.50384211  0.16936607  1
  Fe  Fe5  1  1.00175534  0.33673859  0.33746539  1
  Ni  Ni6  1  1.00300140  0.67044560  1.00194143  1
  Ni  Ni7  1  0.16887675  0.83719995  0.16994020  1
  Ni  Ni8  1  1.00231777  0.67029141  0.33728905  1
  Ni  Ni9  1  0.33528350  0.00377771  1.00304357  1
  Fe  Fe10  1  0.50334171  0.16902307  0.16909903  1
  Ni  Ni11  1  0.33599618  1.00262390  0.33682346  1
  Fe  Fe12  1  0.33543322  0.33639900  0.00408613  1
  Ni  Ni13  1  0.50400986  0.50376880  0.16930482  1
  Cr  Cr14  1  0.33632731  0.33549526  0.33733794  1
  Ni  Ni15  1  0.33548811  0.67154727  0.00415075  1
  Fe  Fe16  1  0.50215931  0.83621140  0.16997012  1
  Fe  Fe17  1  0.33725212  0.67130322  0.33682065  1
  Fe  Fe18  1  0.67051300  1.00220908  1.00299746  1
  Fe  Fe19  1  0.83703855  0.17017843  0.16952544  1
  Ni  Ni20  1  0.66940530  1.00300409  0.33699150  1
  Ni  Ni21  1  0.67060169  0.33670083  0.00366166  1
  Fe  Fe22  1  0.83703690  0.50407608  0.17049448  1
  Ni  Ni23  1  0.67130396  0.33725087  0.33790493  1
  Ni  Ni24  1  0.67140948  0.66937456  0.00447188  1
  Ni  Ni25  1  0.83650749  0.83715193  0.17015301  1
  Ni  Ni26  1  0.67179319  0.66964839  0.33638603  1
  Ni  Ni27  1  0.16812399  0.16892151  0.50257111  1
  Fe  Fe28  1  1.00170187  0.00380871  0.67049504  1
  Ni  Ni29  1  0.16849634  0.17028714  0.83856226  1
  Ni  Ni30  1  0.17002601  0.50469828  0.50367301  1
  Ni  Ni31  1  1.00137989  0.33658922  0.66996704  1
  Ni  Ni32  1  0.16933624  0.50384994  0.83685539  1
  Ni  Ni33  1  0.16867741  0.83627726  0.50271846  1
  Fe  Fe34  1  0.00511829  0.66903079  0.66941309  1
  Fe  Fe35  1  0.16938844  0.83645045  0.83801054  1
  Fe  Fe36  1  0.50559275  0.16957632  0.50255318  1
  Cr  Cr37  1  0.33584802  1.00213641  0.67022015  1
  Ni  Ni38  1  0.50532461  0.16925080  0.83822628  1
  Ni  Ni39  1  0.50422754  0.50356944  0.50266933  1
  Cr  Cr40  1  0.33558229  0.33657508  0.66946985  1
  Cr  Cr41  1  0.50189090  0.50265355  0.83780323  1
  Fe  Fe42  1  0.50260919  0.83574919  0.50150387  1
  Ni  Ni43  1  0.33399924  0.67130130  0.66823243  1
  Fe  Fe44  1  0.50269477  0.83867692  0.83842434  1
  Fe  Fe45  1  0.83701820  0.17108293  0.50392545  1
  Fe  Fe46  1  0.67174072  0.00533440  0.67009864  1
  Ni  Ni47  1  0.83608351  0.16789264  0.83575599  1
  Ni  Ni48  1  0.83564907  0.50302426  0.50277478  1
  Ni  Ni49  1  0.67333482  0.33487573  0.66833112  1
  Fe  Fe50  1  0.83899947  0.50113410  0.83705135  1
  Ni  Ni51  1  0.83723863  0.83770936  0.50247367  1
  Cr  Cr52  1  0.67122691  0.66947592  0.66927926  1
  Ni  Ni53  1  0.83721182  0.83876920  0.83727133  1
" 