7293,Ni57Fe43_17,-239.340112157329, 221.500421109614,Ni57Fe43,"# generated using pymatgen
 data_Fe31Ni23
_symmetry_space_group_name_H-M   'P 1'
_cell_length_a   7.39265346
_cell_length_b   7.39265346
_cell_length_c   10.45479079
_cell_angle_alpha   90.00000000
_cell_angle_beta   90.00000000
_cell_angle_gamma   90.00000000
_symmetry_Int_Tables_number   1
_chemical_formula_structural   Fe31Ni23
_chemical_formula_sum   'Fe31 Ni23'
_cell_volume   571.36817096
_cell_formula_units_Z   1
loop_
 _symmetry_equiv_pos_site_id
 _symmetry_equiv_pos_as_xyz
  1  'x, y, z'
loop_
 _atom_site_type_symbol
 _atom_site_label
 _atom_site_symmetry_multiplicity
 _atom_site_fract_x
 _atom_site_fract_y
 _atom_site_fract_z
 _atom_site_occupancy
  Fe  Fe0  1  0.00515801  0.00606587  1.00457790  1
  Ni  Ni1  1  0.17124539  0.17188091  0.17154733  1
  Fe  Fe2  1  0.00601849  1.00495950  0.33803583  1
  Ni  Ni3  1  0.00595814  0.33743652  1.00406835  1
  Fe  Fe4  1  0.17140202  0.50383941  0.17150342  1
  Ni  Ni5  1  1.00453635  0.33846111  0.33877347  1
  Fe  Fe6  1  0.00530650  0.67058676  1.00466959  1
  Fe  Fe7  1  0.17183130  0.83913971  0.17207297  1
  Ni  Ni8  1  1.00498984  0.67094823  0.33759827  1
  Fe  Fe9  1  0.33844113  0.00577162  0.00551170  1
  Ni  Ni10  1  0.50492087  0.17068786  0.17224280  1
  Ni  Ni11  1  0.33942036  1.00486486  0.33791162  1
  Ni  Ni12  1  0.33733329  0.33668894  0.00550416  1
  Fe  Fe13  1  0.50540723  0.50442352  0.17181480  1
  Fe  Fe14  1  0.33771453  0.33844009  0.33803784  1
  Fe  Fe15  1  0.33817051  0.67099548  0.00523354  1
  Ni  Ni16  1  0.50453488  0.83825881  0.17213026  1
  Ni  Ni17  1  0.33858907  0.67334510  0.33826038  1
  Fe  Fe18  1  0.67149222  0.00613573  0.00532597  1
  Ni  Ni19  1  0.83892921  0.17309536  0.17206749  1
  Fe  Fe20  1  0.67115345  1.00474803  0.33815877  1
  Fe  Fe21  1  0.67190691  0.33816736  1.00476040  1
  Ni  Ni22  1  0.83930232  0.50493638  0.17185364  1
  Fe  Fe23  1  0.67157944  0.33856521  0.33888082  1
  Ni  Ni24  1  0.67180972  0.67254342  1.00494238  1
  Fe  Fe25  1  0.83778683  0.83884819  0.17161487  1
  Fe  Fe26  1  0.67128557  0.67178166  0.33827654  1
  Fe  Fe27  1  0.17316791  0.17161801  0.50445821  1
  Fe  Fe28  1  1.00411115  1.00466710  0.67247994  1
  Ni  Ni29  1  0.17116535  0.17197528  0.83796083  1
  Fe  Fe30  1  0.17266214  0.50553018  0.50502169  1
  Fe  Fe31  1  1.00417704  0.33906262  0.67231297  1
  Ni  Ni32  1  0.17079751  0.50613770  0.83818291  1
  Fe  Fe33  1  0.17307788  0.83795089  0.50510151  1
  Ni  Ni34  1  1.00441445  0.67197053  0.67234998  1
  Ni  Ni35  1  0.17154066  0.83697473  0.83831026  1
  Ni  Ni36  1  0.50530741  0.17142295  0.50455943  1
  Fe  Fe37  1  0.33905619  1.00467722  0.67134544  1
  Ni  Ni38  1  0.50589089  0.17160509  0.83830392  1
  Ni  Ni39  1  0.50529671  0.50593366  0.50454764  1
  Fe  Fe40  1  0.33914857  0.33920643  0.67247138  1
  Fe  Fe41  1  0.50445973  0.50413560  0.83780672  1
  Ni  Ni42  1  0.50493760  0.83774131  0.50562118  1
  Fe  Fe43  1  0.33876830  0.67121072  0.67113596  1
  Fe  Fe44  1  0.50454528  0.83884801  0.83852489  1
  Fe  Fe45  1  0.83690035  0.17211470  0.50511553  1
  Fe  Fe46  1  0.67192628  0.00504215  0.67161854  1
  Ni  Ni47  1  0.83803867  0.17235026  0.83836266  1
  Fe  Fe48  1  0.83711053  0.50531871  0.50475541  1
  Ni  Ni49  1  0.67130730  0.33827756  0.67280330  1
  Fe  Fe50  1  0.83912657  0.50450657  0.83856595  1
  Fe  Fe51  1  0.83719633  0.83766133  0.50547456  1
  Ni  Ni52  1  0.67214306  0.67150591  0.67114222  1
  Fe  Fe53  1  0.83921040  0.83864700  0.83799970  1
" 