5420,Ni57Fe43_10,-239.275173320363, 220.697928284386,Ni57Fe43,"# generated using pymatgen
 data_Fe31Ni23
_symmetry_space_group_name_H-M   'P 1'
_cell_length_a   7.39310786
_cell_length_b   7.39310786
_cell_length_c   10.45543340
_cell_angle_alpha   90.00000000
_cell_angle_beta   90.00000000
_cell_angle_gamma   90.00000000
_symmetry_Int_Tables_number   1
_chemical_formula_structural   Fe31Ni23
_chemical_formula_sum   'Fe31 Ni23'
_cell_volume   571.47353673
_cell_formula_units_Z   1
loop_
 _symmetry_equiv_pos_site_id
 _symmetry_equiv_pos_as_xyz
  1  'x, y, z'
loop_
 _atom_site_type_symbol
 _atom_site_label
 _atom_site_symmetry_multiplicity
 _atom_site_fract_x
 _atom_site_fract_y
 _atom_site_fract_z
 _atom_site_occupancy
  Fe  Fe0  1  1.00431408  0.00544164  1.00479487  1
  Fe  Fe1  1  0.17159336  0.17159037  0.17118324  1
  Fe  Fe2  1  1.00499750  1.00320548  0.33833288  1
  Fe  Fe3  1  1.00394810  0.33866580  1.00451313  1
  Ni  Ni4  1  0.17112571  0.50371499  0.17109296  1
  Fe  Fe5  1  0.00577560  0.33976311  0.33861585  1
  Fe  Fe6  1  1.00381757  0.67089298  0.00568867  1
  Fe  Fe7  1  0.17130587  0.83730717  0.17196172  1
  Ni  Ni8  1  1.00433593  0.67100196  0.33824313  1
  Fe  Fe9  1  0.33971963  0.00508096  1.00451079  1
  Fe  Fe10  1  0.50548387  0.17174212  0.17125637  1
  Ni  Ni11  1  0.33825932  1.00485484  0.33815161  1
  Ni  Ni12  1  0.33766287  0.33814739  0.00508818  1
  Fe  Fe13  1  0.50569345  0.50594821  0.17194474  1
  Fe  Fe14  1  0.33804377  0.33991849  0.33861773  1
  Fe  Fe15  1  0.33980254  0.67167155  0.00540558  1
  Ni  Ni16  1  0.50610187  0.83924195  0.17251122  1
  Ni  Ni17  1  0.33788473  0.67220356  0.33822966  1
  Ni  Ni18  1  0.67203474  1.00415118  0.00545393  1
  Fe  Fe19  1  0.83792316  0.17166858  0.17125826  1
  Fe  Fe20  1  0.67154358  1.00300333  0.33821126  1
  Ni  Ni21  1  0.67157033  0.33852079  1.00436236  1
  Ni  Ni22  1  0.83897194  0.50528539  0.17315783  1
  Fe  Fe23  1  0.67118234  0.33955747  0.33793114  1
  Ni  Ni24  1  0.67277930  0.67233032  0.00527615  1
  Ni  Ni25  1  0.83657420  0.83804638  0.17072777  1
  Ni  Ni26  1  0.67278057  0.67174016  0.33806869  1
  Fe  Fe27  1  0.17207813  0.17215520  0.50597689  1
  Fe  Fe28  1  0.00569170  0.00585730  0.67187283  1
  Ni  Ni29  1  0.17212239  0.17150748  0.83796546  1
  Ni  Ni30  1  0.17258665  0.50381536  0.50583979  1
  Ni  Ni31  1  0.00609937  0.33928714  0.67202585  1
  Fe  Fe32  1  0.17186310  0.50486977  0.83804777  1
  Fe  Fe33  1  0.17206897  0.83743508  0.50499195  1
  Fe  Fe34  1  0.00548407  0.67174220  0.67118339  1
  Ni  Ni35  1  0.17296153  0.84008278  0.83833385  1
  Fe  Fe36  1  0.50466841  0.17174351  0.50541203  1
  Ni  Ni37  1  0.33899639  0.00562589  0.67220535  1
  Fe  Fe38  1  0.50450689  0.17117497  0.83833304  1
  Ni  Ni39  1  0.50397414  0.50455790  0.50463315  1
  Ni  Ni40  1  0.33659612  0.33770754  0.67131679  1
  Fe  Fe41  1  0.50444178  0.50500478  0.83826038  1
  Fe  Fe42  1  0.50480248  0.83772345  0.50479346  1
  Fe  Fe43  1  0.33833577  0.67166813  0.67118378  1
  Ni  Ni44  1  0.50484170  0.83924324  0.83759570  1
  Fe  Fe45  1  0.83825402  0.17222786  0.50549429  1
  Ni  Ni46  1  0.67110438  1.00405459  0.67167913  1
  Fe  Fe47  1  0.83841627  0.17110812  0.83824918  1
  Fe  Fe48  1  0.83854257  0.50554171  0.50487768  1
  Fe  Fe49  1  0.67126029  0.33776616  0.67198869  1
  Ni  Ni50  1  0.83794356  0.50415761  0.83758237  1
  Ni  Ni51  1  0.83770275  0.83907867  0.50547474  1
  Fe  Fe52  1  0.67118188  0.67159224  0.67166700  1
  Fe  Fe53  1  0.83828045  0.83860682  0.83845739  1
" 