8539,Ni57Fe43_16,-239.340845216281, 220.581056678997,Ni57Fe43,"# generated using pymatgen
 data_Fe31Ni23
_symmetry_space_group_name_H-M   'P 1'
_cell_length_a   7.39547966
_cell_length_b   7.39547966
_cell_length_c   10.45878764
_cell_angle_alpha   90.00000000
_cell_angle_beta   90.00000000
_cell_angle_gamma   90.00000000
_symmetry_Int_Tables_number   1
_chemical_formula_structural   Fe31Ni23
_chemical_formula_sum   'Fe31 Ni23'
_cell_volume   572.02372196
_cell_formula_units_Z   1
loop_
 _symmetry_equiv_pos_site_id
 _symmetry_equiv_pos_as_xyz
  1  'x, y, z'
loop_
 _atom_site_type_symbol
 _atom_site_label
 _atom_site_symmetry_multiplicity
 _atom_site_fract_x
 _atom_site_fract_y
 _atom_site_fract_z
 _atom_site_occupancy
  Fe  Fe0  1  1.00374496  0.00542341  1.00442321  1
  Fe  Fe1  1  0.17142281  0.17201337  0.17150765  1
  Fe  Fe2  1  0.00534631  1.00282153  0.33858868  1
  Ni  Ni3  1  1.00448982  0.33867292  0.00495492  1
  Ni  Ni4  1  0.17200611  0.50438086  0.17202057  1
  Fe  Fe5  1  0.00563323  0.33930911  0.33771405  1
  Fe  Fe6  1  1.00419231  0.67107327  0.00542556  1
  Fe  Fe7  1  0.17170838  0.83710784  0.17230826  1
  Ni  Ni8  1  0.00538445  0.67118779  0.33809083  1
  Fe  Fe9  1  0.33868252  0.00557204  0.00499593  1
  Fe  Fe10  1  0.50505326  0.17171596  0.17163048  1
  Ni  Ni11  1  0.33847330  1.00375060  0.33855815  1
  Fe  Fe12  1  0.33845382  0.33823563  1.00479727  1
  Ni  Ni13  1  0.50415943  0.50399434  0.17110942  1
  Fe  Fe14  1  0.33860363  0.33951854  0.33842641  1
  Fe  Fe15  1  0.33845363  0.67070497  1.00437587  1
  Fe  Fe16  1  0.50484944  0.83732164  0.17176525  1
  Ni  Ni17  1  0.33809864  0.67243140  0.33760272  1
  Ni  Ni18  1  0.67120476  0.00509404  0.00560903  1
  Fe  Fe19  1  0.83804118  0.17237478  0.17053789  1
  Fe  Fe20  1  0.67094743  1.00312051  0.33821742  1
  Ni  Ni21  1  0.67245119  0.33743649  0.00494239  1
  Fe  Fe22  1  0.83825494  0.50519080  0.17150812  1
  Fe  Fe23  1  0.67028217  0.33939434  0.33838454  1
  Fe  Fe24  1  0.67186972  0.67130431  0.00571884  1
  Ni  Ni25  1  0.83836042  0.83932136  0.17132191  1
  Ni  Ni26  1  0.67103216  0.67157187  0.33780914  1
  Fe  Fe27  1  0.17285180  0.17099667  0.50510265  1
  Ni  Ni28  1  1.00418071  0.00509205  0.67179617  1
  Fe  Fe29  1  0.17141082  0.17143680  0.83790846  1
  Fe  Fe30  1  0.17306586  0.50540386  0.50505016  1
  Ni  Ni31  1  0.00502845  0.33761347  0.67146387  1
  Ni  Ni32  1  0.17083864  0.50452521  0.83756891  1
  Ni  Ni33  1  0.17110239  0.83814630  0.50473100  1
  Fe  Fe34  1  0.00541206  0.67122119  0.67138291  1
  Ni  Ni35  1  0.17131356  0.83780063  0.83875035  1
  Ni  Ni36  1  0.50577543  0.17199042  0.50514162  1
  Fe  Fe37  1  0.33830382  0.00527113  0.67079102  1
  Fe  Fe38  1  0.50457008  0.17112689  0.83770525  1
  Ni  Ni39  1  0.50501598  0.50400572  0.50551463  1
  Ni  Ni40  1  0.33798785  0.33970257  0.67169294  1
  Fe  Fe41  1  0.50382859  0.50550705  0.83782593  1
  Ni  Ni42  1  0.50453873  0.83852237  0.50434629  1
  Ni  Ni43  1  0.33799271  0.67135185  0.67074559  1
  Ni  Ni44  1  0.50505603  0.83903980  0.83797558  1
  Fe  Fe45  1  0.83724993  0.17108993  0.50593952  1
  Ni  Ni46  1  0.67196358  0.00508555  0.67098876  1
  Fe  Fe47  1  0.83853503  0.17121907  0.83804230  1
  Fe  Fe48  1  0.83716532  0.50517118  0.50475648  1
  Ni  Ni49  1  0.67150185  0.33723468  0.67187963  1
  Fe  Fe50  1  0.83876217  0.50489599  0.83825253  1
  Fe  Fe51  1  0.83717303  0.83825176  0.50409038  1
  Fe  Fe52  1  0.67101140  0.67114101  0.67079175  1
  Fe  Fe53  1  0.83845006  0.83839906  0.83870670  1
" 