7672,Ni57Fe36Cr6_5,-238.45080717182, 216.0140700155,Ni57Fe36Cr6,"# generated using pymatgen
 data_Cr5Fe19Ni30
_symmetry_space_group_name_H-M   'P 1'
_cell_length_a   7.41807685
_cell_length_b   7.41807685
_cell_length_c   10.49074488
_cell_angle_alpha   90.00000000
_cell_angle_beta   90.00000000
_cell_angle_gamma   90.00000000
_symmetry_Int_Tables_number   1
_chemical_formula_structural   Cr5Fe19Ni30
_chemical_formula_sum   'Cr5 Fe19 Ni30'
_cell_volume   577.28328405
_cell_formula_units_Z   1
loop_
 _symmetry_equiv_pos_site_id
 _symmetry_equiv_pos_as_xyz
  1  'x, y, z'
loop_
 _atom_site_type_symbol
 _atom_site_label
 _atom_site_symmetry_multiplicity
 _atom_site_fract_x
 _atom_site_fract_y
 _atom_site_fract_z
 _atom_site_occupancy
  Ni  Ni0  1  0.00384678  0.00336336  1.00163155  1
  Ni  Ni1  1  0.17068894  0.17079868  0.16933270  1
  Ni  Ni2  1  1.00262391  0.00367800  0.33885403  1
  Fe  Fe3  1  0.00392463  0.33679184  1.00298070  1
  Ni  Ni4  1  0.16940668  0.50250005  0.16958039  1
  Ni  Ni5  1  0.00359634  0.33593893  0.33589723  1
  Fe  Fe6  1  1.00148581  0.67015275  1.00262730  1
  Cr  Cr7  1  0.17016979  0.83711237  0.16959142  1
  Fe  Fe8  1  0.00404666  0.66960275  0.33635844  1
  Ni  Ni9  1  0.33656654  0.00383074  0.00358883  1
  Fe  Fe10  1  0.50272259  0.16984349  0.16860434  1
  Fe  Fe11  1  0.33539788  0.00382425  0.33703548  1
  Fe  Fe12  1  0.33711124  0.33563701  0.00369118  1
  Ni  Ni13  1  0.50474058  0.50429783  0.16967969  1
  Cr  Cr14  1  0.33565490  0.33790550  0.33752154  1
  Fe  Fe15  1  0.33802464  0.66978758  1.00247370  1
  Fe  Fe16  1  0.50480740  0.83572761  0.16941702  1
  Ni  Ni17  1  0.33708808  0.66903420  0.33618937  1
  Ni  Ni18  1  0.66949173  1.00202993  1.00291139  1
  Cr  Cr19  1  0.83687217  0.17029019  0.16949401  1
  Fe  Fe20  1  0.67044583  0.00355789  0.33696037  1
  Ni  Ni21  1  0.66924522  0.33842124  0.00349768  1
  Ni  Ni22  1  0.83575838  0.50457250  0.16971747  1
  Fe  Fe23  1  0.67024713  0.33668522  0.33670635  1
  Ni  Ni24  1  0.66970947  0.66945071  0.00382066  1
  Ni  Ni25  1  0.83445054  0.83482781  0.17084838  1
  Fe  Fe26  1  0.67052391  0.66966159  0.33391893  1
  Ni  Ni27  1  0.16907367  0.16913785  0.50393109  1
  Ni  Ni28  1  0.00330986  0.00375025  0.66941416  1
  Ni  Ni29  1  0.17047377  0.17005651  0.83664220  1
  Ni  Ni30  1  0.16991451  0.50426304  0.50350887  1
  Ni  Ni31  1  0.00356278  0.33540473  0.67037392  1
  Ni  Ni32  1  0.16945907  0.50330871  0.83681308  1
  Ni  Ni33  1  0.16960096  0.83649921  0.50369085  1
  Fe  Fe34  1  0.00455845  0.67120958  0.67091084  1
  Ni  Ni35  1  0.17021011  0.83653218  0.83617939  1
  Ni  Ni36  1  0.50466919  0.16989864  0.50371933  1
  Ni  Ni37  1  0.33544714  1.00269915  0.66983073  1
  Ni  Ni38  1  0.50375195  0.16906716  0.83676957  1
  Fe  Fe39  1  0.50160828  0.50209832  0.50361242  1
  Fe  Fe40  1  0.33628324  0.33540494  0.66974933  1
  Fe  Fe41  1  0.50293995  0.50387214  0.83707680  1
  Cr  Cr42  1  0.50217767  0.83760256  0.50353167  1
  Ni  Ni43  1  0.33595924  0.66919192  0.67051629  1
  Ni  Ni44  1  0.50399465  0.83752925  0.83748371  1
  Ni  Ni45  1  0.83615848  0.16958517  0.50369480  1
  Ni  Ni46  1  0.67115372  0.00453010  0.67083719  1
  Fe  Fe47  1  0.83685568  0.16903642  0.83602951  1
  Cr  Cr48  1  0.83743544  0.50211550  0.50270024  1
  Ni  Ni49  1  0.66960056  0.33592327  0.66973814  1
  Fe  Fe50  1  0.83657337  0.50320875  0.83691553  1
  Fe  Fe51  1  0.83903324  0.83963629  0.50330351  1
  Fe  Fe52  1  0.67008962  0.67083362  0.67220762  1
  Ni  Ni53  1  0.83569933  0.83652241  0.83613074  1
" 