2956,Ni57Fe34Cr8_17,-238.929996165192, 212.947039802394,Ni57Fe34Cr8,"# generated using pymatgen
 data_Cr5Fe18Ni31
_symmetry_space_group_name_H-M   'P 1'
_cell_length_a   7.43310059
_cell_length_b   7.43310059
_cell_length_c   10.51199167
_cell_angle_alpha   90.00000000
_cell_angle_beta   90.00000000
_cell_angle_gamma   90.00000000
_symmetry_Int_Tables_number   1
_chemical_formula_structural   Cr5Fe18Ni31
_chemical_formula_sum   'Cr5 Fe18 Ni31'
_cell_volume   580.79788732
_cell_formula_units_Z   1
loop_
 _symmetry_equiv_pos_site_id
 _symmetry_equiv_pos_as_xyz
  1  'x, y, z'
loop_
 _atom_site_type_symbol
 _atom_site_label
 _atom_site_symmetry_multiplicity
 _atom_site_fract_x
 _atom_site_fract_y
 _atom_site_fract_z
 _atom_site_occupancy
  Ni  Ni0  1  0.00234292  1.00149874  0.00270877  1
  Ni  Ni1  1  0.17058096  0.16997873  0.16922367  1
  Cr  Cr2  1  0.00253141  1.00181162  0.33545526  1
  Fe  Fe3  1  1.00216295  0.33530678  1.00212009  1
  Fe  Fe4  1  0.16840592  0.50235059  0.16914328  1
  Ni  Ni5  1  1.00130951  0.33689457  0.33434225  1
  Ni  Ni6  1  1.00193887  0.66985712  0.00316496  1
  Fe  Fe7  1  0.16777695  0.83528896  0.16801906  1
  Ni  Ni8  1  0.00282578  0.66785315  0.33456415  1
  Ni  Ni9  1  0.33456027  0.00355542  1.00147020  1
  Ni  Ni10  1  0.50093825  0.16904056  0.16901407  1
  Ni  Ni11  1  0.33620711  0.00346332  0.33645894  1
  Ni  Ni12  1  0.33662476  0.33539061  0.00290857  1
  Fe  Fe13  1  0.50221393  0.49949381  0.16715136  1
  Fe  Fe14  1  0.33624005  0.33391436  0.33441231  1
  Ni  Ni15  1  0.33486102  0.66790217  1.00212288  1
  Cr  Cr16  1  0.50251389  0.83759591  0.16796126  1
  Fe  Fe17  1  0.33410838  0.66920037  0.33577851  1
  Ni  Ni18  1  0.66994676  0.00326295  0.00258408  1
  Fe  Fe19  1  0.83418090  0.16938526  0.16801938  1
  Ni  Ni20  1  0.66743430  0.00497357  0.33578290  1
  Ni  Ni21  1  0.66799045  0.33579349  0.00271897  1
  Ni  Ni22  1  0.83738057  0.50242934  0.16904157  1
  Ni  Ni23  1  0.66880550  0.33454346  0.33573577  1
  Ni  Ni24  1  0.67004819  0.66779502  1.00132218  1
  Ni  Ni25  1  0.83643914  0.83432851  0.16752098  1
  Cr  Cr26  1  0.67056197  0.66749987  0.33630922  1
  Fe  Fe27  1  0.16920859  0.16867335  0.50343805  1
  Ni  Ni28  1  0.00458478  0.00231933  0.66844175  1
  Ni  Ni29  1  0.16854031  0.16843972  0.83419936  1
  Cr  Cr30  1  0.16716394  0.50169251  0.50279838  1
  Ni  Ni31  1  1.00163702  0.33507424  0.66983261  1
  Fe  Fe32  1  0.16929277  0.50209408  0.83514938  1
  Fe  Fe33  1  0.16923702  0.83571263  0.50334197  1
  Ni  Ni34  1  1.00142934  0.66945760  0.66912318  1
  Fe  Fe35  1  0.16898823  0.83563811  0.83548902  1
  Fe  Fe36  1  0.50196895  0.17014572  0.50079673  1
  Ni  Ni37  1  0.33323780  0.00250065  0.66892067  1
  Fe  Fe38  1  0.50189615  0.17033417  0.83698251  1
  Fe  Fe39  1  0.50360610  0.50140637  0.50415826  1
  Ni  Ni40  1  0.33631151  0.33501908  0.66941616  1
  Ni  Ni41  1  0.50294700  0.50404656  0.83491965  1
  Fe  Fe42  1  0.50089212  0.83529962  0.50272793  1
  Ni  Ni43  1  0.33633267  0.66933053  0.66941834  1
  Ni  Ni44  1  0.50105440  0.83421308  0.83592778  1
  Fe  Fe45  1  0.83567044  0.17139465  0.50271971  1
  Cr  Cr46  1  0.66920034  0.00249713  0.66921652  1
  Ni  Ni47  1  0.83780103  0.17033262  0.83646861  1
  Ni  Ni48  1  0.83546179  0.50173912  0.50340357  1
  Ni  Ni49  1  0.66890662  0.33817307  0.66839428  1
  Ni  Ni50  1  0.83513008  0.50207271  0.83440326  1
  Fe  Fe51  1  0.83672208  0.83407687  0.50255159  1
  Ni  Ni52  1  0.66908769  0.66638708  0.66897922  1
  Fe  Fe53  1  0.83606970  0.83483033  0.83703608  1
" 