7965,Ni57Fe34Cr8_1,-238.860585414402, 214.391543019562,Ni57Fe34Cr8,"# generated using pymatgen
 data_Cr5Fe18Ni31
_symmetry_space_group_name_H-M   'P 1'
_cell_length_a   7.42293877
_cell_length_b   7.42293877
_cell_length_c   10.49762068
_cell_angle_alpha   90.00000000
_cell_angle_beta   90.00000000
_cell_angle_gamma   90.00000000
_symmetry_Int_Tables_number   1
_chemical_formula_structural   Cr5Fe18Ni31
_chemical_formula_sum   'Cr5 Fe18 Ni31'
_cell_volume   578.41910925
_cell_formula_units_Z   1
loop_
 _symmetry_equiv_pos_site_id
 _symmetry_equiv_pos_as_xyz
  1  'x, y, z'
loop_
 _atom_site_type_symbol
 _atom_site_label
 _atom_site_symmetry_multiplicity
 _atom_site_fract_x
 _atom_site_fract_y
 _atom_site_fract_z
 _atom_site_occupancy
  Fe  Fe0  1  0.00407466  0.00300242  1.00269250  1
  Ni  Ni1  1  0.17098848  0.17083833  0.16874595  1
  Cr  Cr2  1  0.00374598  0.00575511  0.33656285  1
  Ni  Ni3  1  0.00393364  0.33460281  0.00397350  1
  Ni  Ni4  1  0.16670406  0.50232076  0.17031536  1
  Ni  Ni5  1  0.00405414  0.33675586  0.33701508  1
  Fe  Fe6  1  1.00285582  0.66914779  0.00297598  1
  Ni  Ni7  1  0.17010925  0.83588831  0.16786080  1
  Ni  Ni8  1  0.00322528  0.66832945  0.33622358  1
  Ni  Ni9  1  0.33662344  0.00408201  1.00212272  1
  Cr  Cr10  1  0.50237471  0.16916750  0.16989681  1
  Fe  Fe11  1  0.33497139  1.00105210  0.33675158  1
  Ni  Ni12  1  0.33354452  0.33569799  1.00235097  1
  Fe  Fe13  1  0.50140266  0.50388968  0.17227095  1
  Fe  Fe14  1  0.33429824  0.33787269  0.33758500  1
  Cr  Cr15  1  0.33678459  0.66891393  1.00243098  1
  Ni  Ni16  1  0.50278057  0.83800763  0.17176329  1
  Ni  Ni17  1  0.33704934  0.66919784  0.33645167  1
  Ni  Ni18  1  0.67073950  1.00211125  1.00282648  1
  Fe  Fe19  1  0.83833723  0.16928929  0.16860773  1
  Fe  Fe20  1  0.67020076  1.00154335  0.33790146  1
  Fe  Fe21  1  0.66955221  0.33567943  1.00214984  1
  Ni  Ni22  1  0.83768404  0.50220269  0.17027580  1
  Fe  Fe23  1  0.67166668  0.33850584  0.33821737  1
  Cr  Cr24  1  0.66933477  0.67053327  0.00335185  1
  Ni  Ni25  1  0.83630730  0.83389314  0.16976338  1
  Ni  Ni26  1  0.66819231  0.66999133  0.33661591  1
  Ni  Ni27  1  0.17100666  0.17008453  0.50352348  1
  Ni  Ni28  1  1.00181328  0.00532482  0.66976639  1
  Ni  Ni29  1  0.17068036  0.17046055  0.83671026  1
  Ni  Ni30  1  0.16854337  0.50340381  0.50346766  1
  Ni  Ni31  1  0.00513802  0.33490759  0.66830519  1
  Fe  Fe32  1  0.16691957  0.50191290  0.83530496  1
  Ni  Ni33  1  0.17058824  0.83545934  0.50489407  1
  Ni  Ni34  1  0.00307926  0.66886638  0.66933104  1
  Fe  Fe35  1  0.16650714  0.83788545  0.83485558  1
  Ni  Ni36  1  0.50294226  0.16851695  0.50415829  1
  Fe  Fe37  1  0.33460461  1.00296230  0.66986463  1
  Fe  Fe38  1  0.50516161  0.16867002  0.83663677  1
  Ni  Ni39  1  0.50248711  0.50221785  0.50201919  1
  Fe  Fe40  1  0.33608198  0.33582889  0.66935900  1
  Fe  Fe41  1  0.50344614  0.49993855  0.83446721  1
  Ni  Ni42  1  0.50107633  0.83779065  0.50120655  1
  Fe  Fe43  1  0.33411088  0.67049474  0.66858873  1
  Ni  Ni44  1  0.50156596  0.83860224  0.83545344  1
  Ni  Ni45  1  0.83554465  0.17201220  0.50372940  1
  Ni  Ni46  1  0.66946016  0.00374926  0.66876751  1
  Ni  Ni47  1  0.83745091  0.17026379  0.83775609  1
  Ni  Ni48  1  0.83805471  0.50249077  0.50231839  1
  Fe  Fe49  1  0.67329656  0.33504143  0.66897388  1
  Ni  Ni50  1  0.83830113  0.50130687  0.83627337  1
  Fe  Fe51  1  0.83750421  0.83653468  0.50324246  1
  Cr  Cr52  1  0.66808675  0.67082736  0.66816507  1
  Ni  Ni53  1  0.83545292  0.83661462  0.83560234  1
" 