1879,Ni57Fe34Cr8_6,-238.401679593105, 209.671639200406,Ni57Fe34Cr8,"# generated using pymatgen
 data_Cr5Fe18Ni31
_symmetry_space_group_name_H-M   'P 1'
_cell_length_a   7.42076262
_cell_length_b   7.42076262
_cell_length_c   10.49454313
_cell_angle_alpha   90.00000000
_cell_angle_beta   90.00000000
_cell_angle_gamma   90.00000000
_symmetry_Int_Tables_number   1
_chemical_formula_structural   Cr5Fe18Ni31
_chemical_formula_sum   'Cr5 Fe18 Ni31'
_cell_volume   577.91053966
_cell_formula_units_Z   1
loop_
 _symmetry_equiv_pos_site_id
 _symmetry_equiv_pos_as_xyz
  1  'x, y, z'
loop_
 _atom_site_type_symbol
 _atom_site_label
 _atom_site_symmetry_multiplicity
 _atom_site_fract_x
 _atom_site_fract_y
 _atom_site_fract_z
 _atom_site_occupancy
  Ni  Ni0  1  0.00331427  0.00365080  0.00398527  1
  Ni  Ni1  1  0.17335831  0.16912726  0.17023736  1
  Ni  Ni2  1  0.00679275  1.00272309  0.33608322  1
  Fe  Fe3  1  1.00176180  0.33774625  0.00391154  1
  Ni  Ni4  1  0.17019371  0.50378181  0.16845850  1
  Cr  Cr5  1  0.00354823  0.33558935  0.33488390  1
  Ni  Ni6  1  0.00455536  0.66806448  1.00173146  1
  Ni  Ni7  1  0.17159147  0.83635976  0.17061838  1
  Fe  Fe8  1  0.00493956  0.67076369  0.33622127  1
  Ni  Ni9  1  0.33790069  1.00102798  0.00382252  1
  Ni  Ni10  1  0.50027227  0.17088797  0.16962060  1
  Ni  Ni11  1  0.33516893  1.00133451  0.33714228  1
  Fe  Fe12  1  0.33779943  0.33656189  1.00306515  1
  Fe  Fe13  1  0.50153420  0.50442073  0.16931570  1
  Fe  Fe14  1  0.33823044  0.33497992  0.33699129  1
  Ni  Ni15  1  0.33649185  0.66976278  1.00199386  1
  Ni  Ni16  1  0.50047633  0.83622654  0.16927452  1
  Ni  Ni17  1  0.33684288  0.66925535  0.33631476  1
  Ni  Ni18  1  0.66821556  0.00378073  1.00129397  1
  Fe  Fe19  1  0.83670457  0.17058648  0.16742659  1
  Cr  Cr20  1  0.66829506  0.00449333  0.33519643  1
  Fe  Fe21  1  0.66978511  0.33676479  0.00350635  1
  Ni  Ni22  1  0.83548569  0.50373082  0.17054879  1
  Ni  Ni23  1  0.66778410  0.33951252  0.33628783  1
  Ni  Ni24  1  0.66808345  0.66901843  0.00318372  1
  Cr  Cr25  1  0.83720387  0.83357500  0.16828645  1
  Fe  Fe26  1  0.66855087  0.66840230  0.33752285  1
  Ni  Ni27  1  0.17324990  0.16951902  0.50316042  1
  Ni  Ni28  1  1.00201556  1.00310588  0.66959273  1
  Cr  Cr29  1  0.17100170  0.16849571  0.83649823  1
  Fe  Fe30  1  0.17068522  0.50321588  0.50336755  1
  Ni  Ni31  1  0.00499960  0.33789458  0.67080803  1
  Fe  Fe32  1  0.17053241  0.50448255  0.83651201  1
  Fe  Fe33  1  0.16950675  0.83841793  0.50268966  1
  Fe  Fe34  1  1.00213620  0.67018620  0.67089741  1
  Ni  Ni35  1  0.16924955  0.83540822  0.83645267  1
  Ni  Ni36  1  0.49948207  0.17160914  0.50478386  1
  Fe  Fe37  1  0.33755623  1.00294312  0.66939503  1
  Ni  Ni38  1  0.50391699  0.17074961  0.83475174  1
  Fe  Fe39  1  0.50329276  0.50294624  0.50390689  1
  Ni  Ni40  1  0.33571683  0.33902817  0.66835935  1
  Ni  Ni41  1  0.50406478  0.50315816  0.83653946  1
  Fe  Fe42  1  0.50270561  0.83729727  0.50386463  1
  Fe  Fe43  1  0.33645235  0.67022533  0.67070617  1
  Ni  Ni44  1  0.50325968  0.83555325  0.83619947  1
  Cr  Cr45  1  0.83625549  0.16831795  0.50521619  1
  Ni  Ni46  1  0.66950451  1.00071136  0.67175907  1
  Ni  Ni47  1  0.83522376  0.17035820  0.83672594  1
  Fe  Fe48  1  0.83540410  0.50365072  0.50410441  1
  Fe  Fe49  1  0.66910682  0.33649545  0.67081989  1
  Ni  Ni50  1  0.83516530  0.50427063  0.83506876  1
  Ni  Ni51  1  0.83791872  0.83229738  0.50358463  1
  Ni  Ni52  1  0.66850869  0.67074396  0.66915171  1
  Ni  Ni53  1  0.83661280  0.83519470  0.83656473  1
" 