2236,Ni57Fe34Cr8_5,-238.223483573442, 211.559337256822,Ni57Fe34Cr8,"# generated using pymatgen
 data_Cr5Fe18Ni31
_symmetry_space_group_name_H-M   'P 1'
_cell_length_a   7.41807033
_cell_length_b   7.41807033
_cell_length_c   10.49073567
_cell_angle_alpha   90.00000000
_cell_angle_beta   90.00000000
_cell_angle_gamma   90.00000000
_symmetry_Int_Tables_number   1
_chemical_formula_structural   Cr5Fe18Ni31
_chemical_formula_sum   'Cr5 Fe18 Ni31'
_cell_volume   577.28176237
_cell_formula_units_Z   1
loop_
 _symmetry_equiv_pos_site_id
 _symmetry_equiv_pos_as_xyz
  1  'x, y, z'
loop_
 _atom_site_type_symbol
 _atom_site_label
 _atom_site_symmetry_multiplicity
 _atom_site_fract_x
 _atom_site_fract_y
 _atom_site_fract_z
 _atom_site_occupancy
  Fe  Fe0  1  1.00287956  0.00346146  0.00344529  1
  Ni  Ni1  1  0.17052460  0.17145202  0.16941403  1
  Ni  Ni2  1  1.00104148  1.00290089  0.33573359  1
  Fe  Fe3  1  0.00339620  0.33837445  1.00274024  1
  Ni  Ni4  1  0.16773745  0.50323594  0.16870771  1
  Fe  Fe5  1  0.00396610  0.33862858  0.33635318  1
  Ni  Ni6  1  1.00252627  0.67218309  1.00322000  1
  Fe  Fe7  1  0.16934388  0.83615988  0.16992807  1
  Ni  Ni8  1  1.00222092  0.67120499  0.33629841  1
  Fe  Fe9  1  0.33597921  0.00391811  1.00311969  1
  Ni  Ni10  1  0.50293948  0.16791233  0.16847606  1
  Fe  Fe11  1  0.33634739  1.00242713  0.33618080  1
  Ni  Ni12  1  0.33725828  0.33542716  1.00260175  1
  Fe  Fe13  1  0.50359265  0.50366532  0.16784638  1
  Cr  Cr14  1  0.33788548  0.33704370  0.33788522  1
  Ni  Ni15  1  0.33527421  0.66813625  0.00533485  1
  Ni  Ni16  1  0.50355449  0.83697586  0.16969436  1
  Ni  Ni17  1  0.33704174  0.66897956  0.33494042  1
  Fe  Fe18  1  0.67089833  1.00298845  1.00314647  1
  Fe  Fe19  1  0.83662358  0.16991685  0.16946326  1
  Fe  Fe20  1  0.66866699  1.00124258  0.33647675  1
  Ni  Ni21  1  0.66921511  0.33497295  0.00367053  1
  Ni  Ni22  1  0.83836762  0.50385699  0.16962830  1
  Fe  Fe23  1  0.67131049  0.33785009  0.33459048  1
  Ni  Ni24  1  0.67193328  0.66922227  0.00454114  1
  Ni  Ni25  1  0.83492223  0.83467274  0.16973428  1
  Fe  Fe26  1  0.67050362  0.67038813  0.33637673  1
  Ni  Ni27  1  0.17104854  0.17193512  0.50452150  1
  Fe  Fe28  1  0.00369500  1.00301961  0.67167315  1
  Ni  Ni29  1  0.17050323  0.17103300  0.83567754  1
  Ni  Ni30  1  0.16690723  0.50202414  0.50378976  1
  Ni  Ni31  1  0.00474559  0.33730300  0.67023689  1
  Fe  Fe32  1  0.16879116  0.50250260  0.83760987  1
  Cr  Cr33  1  0.16914793  0.83718732  0.50292114  1
  Ni  Ni34  1  1.00024166  0.66888772  0.67086527  1
  Ni  Ni35  1  0.16849281  0.83674509  0.83818118  1
  Ni  Ni36  1  0.50311786  0.16857178  0.50508073  1
  Ni  Ni37  1  0.33782146  0.00695248  0.66915618  1
  Ni  Ni38  1  0.50306301  0.17151520  0.83598461  1
  Fe  Fe39  1  0.50498081  0.50339066  0.50366997  1
  Ni  Ni40  1  0.33626214  0.33422022  0.66999373  1
  Fe  Fe41  1  0.50441665  0.50183396  0.83815487  1
  Ni  Ni42  1  0.50548987  0.83768926  0.50238235  1
  Cr  Cr43  1  0.33604075  0.66778629  0.66992096  1
  Cr  Cr44  1  0.50404902  0.83699464  0.83734062  1
  Cr  Cr45  1  0.83734084  0.17087782  0.50311075  1
  Ni  Ni46  1  0.67087088  0.00351622  0.67019796  1
  Ni  Ni47  1  0.83646877  0.17089731  0.83771524  1
  Ni  Ni48  1  0.83787290  0.50473431  0.50346529  1
  Fe  Fe49  1  0.66944915  0.33790481  0.67154875  1
  Fe  Fe50  1  0.83647616  0.50306231  0.83709135  1
  Ni  Ni51  1  0.83436451  0.83421270  0.50431587  1
  Ni  Ni52  1  0.67318176  0.67084814  0.66853334  1
  Ni  Ni53  1  0.83747526  0.83542207  0.83557870  1
" 