6461,Ni57Fe43_5,-239.679066401199, 222.488814122997,Ni57Fe43,"# generated using pymatgen
 data_Fe31Ni23
_symmetry_space_group_name_H-M   'P 1'
_cell_length_a   7.39756997
_cell_length_b   7.39756997
_cell_length_c   10.46174379
_cell_angle_alpha   90.00000000
_cell_angle_beta   90.00000000
_cell_angle_gamma   90.00000000
_symmetry_Int_Tables_number   1
_chemical_formula_structural   Fe31Ni23
_chemical_formula_sum   'Fe31 Ni23'
_cell_volume   572.50890152
_cell_formula_units_Z   1
loop_
 _symmetry_equiv_pos_site_id
 _symmetry_equiv_pos_as_xyz
  1  'x, y, z'
loop_
 _atom_site_type_symbol
 _atom_site_label
 _atom_site_symmetry_multiplicity
 _atom_site_fract_x
 _atom_site_fract_y
 _atom_site_fract_z
 _atom_site_occupancy
  Ni  Ni0  1  1.00466445  0.00536362  0.00533539  1
  Ni  Ni1  1  0.17239439  0.16995428  0.17115691  1
  Fe  Fe2  1  1.00396937  0.00566361  0.33769095  1
  Fe  Fe3  1  1.00402355  0.33686330  0.00487017  1
  Fe  Fe4  1  0.17139444  0.50352053  0.17147694  1
  Ni  Ni5  1  0.00560684  0.33835189  0.33755215  1
  Fe  Fe6  1  0.00494693  0.67251581  1.00408734  1
  Ni  Ni7  1  0.17263861  0.83784604  0.17267088  1
  Fe  Fe8  1  1.00362761  0.67215035  0.33867316  1
  Ni  Ni9  1  0.33791217  0.00470447  1.00363640  1
  Ni  Ni10  1  0.50403632  0.17084356  0.17184403  1
  Ni  Ni11  1  0.33762277  1.00421079  0.33823686  1
  Fe  Fe12  1  0.33796622  0.33575427  1.00376612  1
  Fe  Fe13  1  0.50485246  0.50389060  0.17192782  1
  Fe  Fe14  1  0.33931018  0.33619325  0.33911221  1
  Fe  Fe15  1  0.33709751  0.67316197  1.00420068  1
  Ni  Ni16  1  0.50266290  0.83795118  0.17148584  1
  Fe  Fe17  1  0.33883868  0.67130554  0.33890151  1
  Fe  Fe18  1  0.67129085  0.00608960  0.00535421  1
  Ni  Ni19  1  0.83773422  0.17372026  0.17197858  1
  Ni  Ni20  1  0.66997974  1.00428273  0.33620923  1
  Fe  Fe21  1  0.67189144  0.33623154  0.00488151  1
  Ni  Ni22  1  0.83786519  0.50526738  0.17160952  1
  Ni  Ni23  1  0.67282424  0.33837294  0.33885811  1
  Fe  Fe24  1  0.67208518  0.67231828  0.00585861  1
  Fe  Fe25  1  0.83801602  0.83991588  0.17210337  1
  Ni  Ni26  1  0.67126065  0.67146703  0.33786883  1
  Ni  Ni27  1  0.17206225  0.17133380  0.50534829  1
  Fe  Fe28  1  0.00595091  1.00441271  0.67157694  1
  Fe  Fe29  1  0.17022437  0.17213873  0.83812872  1
  Fe  Fe30  1  0.17029668  0.50474139  0.50623001  1
  Ni  Ni31  1  1.00443731  0.33791946  0.67202778  1
  Fe  Fe32  1  0.17112767  0.50330800  0.83686824  1
  Ni  Ni33  1  0.17119256  0.83803262  0.50491469  1
  Ni  Ni34  1  0.00490974  0.67101180  0.67194382  1
  Fe  Fe35  1  0.17037552  0.83868534  0.83812755  1
  Fe  Fe36  1  0.50475987  0.16971398  0.50435040  1
  Fe  Fe37  1  0.33643580  0.00473920  0.67146111  1
  Ni  Ni38  1  0.50417869  0.17092245  0.83694654  1
  Fe  Fe39  1  0.50374514  0.50549820  0.50490790  1
  Ni  Ni40  1  0.33765939  0.33796064  0.67138269  1
  Fe  Fe41  1  0.50557191  0.50337635  0.83745973  1
  Fe  Fe42  1  0.50436164  0.83866542  0.50349128  1
  Ni  Ni43  1  0.33822973  0.67225684  0.67222980  1
  Fe  Fe44  1  0.50618463  0.83839416  0.83874073  1
  Fe  Fe45  1  0.83980090  0.16980327  0.50410003  1
  Fe  Fe46  1  0.67170824  0.00483003  0.67060719  1
  Ni  Ni47  1  0.83711706  0.17295325  0.83700645  1
  Fe  Fe48  1  0.84020910  0.50446320  0.50428005  1
  Fe  Fe49  1  0.67095918  0.33923905  0.67112790  1
  Ni  Ni50  1  0.83811317  0.50531866  0.83722362  1
  Ni  Ni51  1  0.83825876  0.83646215  0.50462487  1
  Fe  Fe52  1  0.67161868  0.66994604  0.67018162  1
  Fe  Fe53  1  0.83758093  0.83954531  0.83694747  1
" 