6128,Ni57Fe36Cr6_15,-238.0483369876, 212.669259689205,Ni57Fe36Cr6,"# generated using pymatgen
 data_Cr5Fe19Ni30
_symmetry_space_group_name_H-M   'P 1'
_cell_length_a   7.41944369
_cell_length_b   7.41944369
_cell_length_c   10.49267790
_cell_angle_alpha   90.00000000
_cell_angle_beta   90.00000000
_cell_angle_gamma   90.00000000
_symmetry_Int_Tables_number   1
_chemical_formula_structural   Cr5Fe19Ni30
_chemical_formula_sum   'Cr5 Fe19 Ni30'
_cell_volume   577.60245117
_cell_formula_units_Z   1
loop_
 _symmetry_equiv_pos_site_id
 _symmetry_equiv_pos_as_xyz
  1  'x, y, z'
loop_
 _atom_site_type_symbol
 _atom_site_label
 _atom_site_symmetry_multiplicity
 _atom_site_fract_x
 _atom_site_fract_y
 _atom_site_fract_z
 _atom_site_occupancy
  Fe  Fe0  1  0.00352761  1.00152929  0.00325020  1
  Ni  Ni1  1  0.16980030  0.16889450  0.16864101  1
  Cr  Cr2  1  0.00399067  0.00406644  0.33637606  1
  Cr  Cr3  1  0.00550862  0.33807915  0.00445243  1
  Ni  Ni4  1  0.16987688  0.50588941  0.16907733  1
  Ni  Ni5  1  1.00272518  0.33755614  0.33625602  1
  Ni  Ni6  1  1.00313720  0.67058575  1.00312634  1
  Ni  Ni7  1  0.17148009  0.83461418  0.16830318  1
  Ni  Ni8  1  1.00150260  0.66928100  0.33620151  1
  Ni  Ni9  1  0.33766127  0.00460238  0.00458804  1
  Ni  Ni10  1  0.50595071  0.16848632  0.16831661  1
  Fe  Fe11  1  0.33736972  1.00143432  0.33586199  1
  Ni  Ni12  1  0.33701103  0.33526092  1.00274143  1
  Fe  Fe13  1  0.50179061  0.50231980  0.16996934  1
  Cr  Cr14  1  0.33483403  0.33281957  0.33602386  1
  Fe  Fe15  1  0.33576207  0.67083402  1.00268629  1
  Ni  Ni16  1  0.50208985  0.83741176  0.17086771  1
  Fe  Fe17  1  0.33720259  0.67125503  0.33604117  1
  Ni  Ni18  1  0.66791487  1.00199510  1.00284185  1
  Ni  Ni19  1  0.83377769  0.17056204  0.16957561  1
  Ni  Ni20  1  0.66771525  1.00212811  0.33698365  1
  Fe  Fe21  1  0.66827512  0.33521026  0.00336948  1
  Fe  Fe22  1  0.83713901  0.50369253  0.17255580  1
  Ni  Ni23  1  0.66998173  0.33680350  0.33587329  1
  Cr  Cr24  1  0.67112283  0.67195191  0.00436206  1
  Fe  Fe25  1  0.83677763  0.83832327  0.17085445  1
  Ni  Ni26  1  0.67020298  0.67081572  0.33710950  1
  Ni  Ni27  1  0.16829108  0.16795661  0.50504253  1
  Ni  Ni28  1  0.00421684  0.00321510  0.67098841  1
  Fe  Fe29  1  0.17275866  0.16838343  0.83532975  1
  Cr  Cr30  1  0.16879534  0.50542746  0.50484910  1
  Ni  Ni31  1  0.00450640  0.33631319  0.66945784  1
  Fe  Fe32  1  0.17148231  0.50533201  0.83619594  1
  Ni  Ni33  1  0.17025814  0.83737725  0.50401501  1
  Ni  Ni34  1  1.00115434  0.67003517  0.67034958  1
  Ni  Ni35  1  0.17013445  0.83704576  0.83721165  1
  Fe  Fe36  1  0.50480547  0.16915442  0.50301446  1
  Ni  Ni37  1  0.33720502  0.00447449  0.66806211  1
  Fe  Fe38  1  0.50238376  0.16758690  0.83730539  1
  Ni  Ni39  1  0.50608590  0.50428195  0.50387673  1
  Fe  Fe40  1  0.33799618  0.33588072  0.67085725  1
  Ni  Ni41  1  0.50351004  0.50230139  0.83684640  1
  Fe  Fe42  1  0.50411290  0.83644646  0.50346281  1
  Fe  Fe43  1  0.33706859  0.67263697  0.67111407  1
  Ni  Ni44  1  0.50132203  0.83641802  0.83531093  1
  Ni  Ni45  1  0.83559882  0.17042468  0.50395713  1
  Ni  Ni46  1  0.66820099  1.00126290  0.66960204  1
  Fe  Fe47  1  0.83483741  0.16798962  0.83546631  1
  Ni  Ni48  1  0.83428083  0.50235628  0.50285506  1
  Fe  Fe49  1  0.67102640  0.33608687  0.66929810  1
  Fe  Fe50  1  0.83678538  0.50480392  0.83409832  1
  Ni  Ni51  1  0.83674742  0.83669972  0.50469342  1
  Ni  Ni52  1  0.66958933  0.67002608  0.66900584  1
  Fe  Fe53  1  0.83595260  0.83691498  0.83466243  1
" 