716,Ni57Fe36Cr6_2,-238.582760037488, 213.924225700299,Ni57Fe36Cr6,"# generated using pymatgen
 data_Cr5Fe19Ni30
_symmetry_space_group_name_H-M   'P 1'
_cell_length_a   7.41959991
_cell_length_b   7.41959991
_cell_length_c   10.49289881
_cell_angle_alpha   90.00000000
_cell_angle_beta   90.00000000
_cell_angle_gamma   90.00000000
_symmetry_Int_Tables_number   1
_chemical_formula_structural   Cr5Fe19Ni30
_chemical_formula_sum   'Cr5 Fe19 Ni30'
_cell_volume   577.63893556
_cell_formula_units_Z   1
loop_
 _symmetry_equiv_pos_site_id
 _symmetry_equiv_pos_as_xyz
  1  'x, y, z'
loop_
 _atom_site_type_symbol
 _atom_site_label
 _atom_site_symmetry_multiplicity
 _atom_site_fract_x
 _atom_site_fract_y
 _atom_site_fract_z
 _atom_site_occupancy
  Fe  Fe0  1  1.00312170  0.00430750  0.00338039  1
  Fe  Fe1  1  0.16867589  0.17104600  0.16915248  1
  Fe  Fe2  1  1.00097199  1.00305784  0.33681399  1
  Ni  Ni3  1  1.00251296  0.33772541  1.00280358  1
  Ni  Ni4  1  0.16845854  0.50251596  0.16941536  1
  Ni  Ni5  1  1.00282237  0.33713651  0.33664035  1
  Ni  Ni6  1  1.00277751  0.66904755  0.00416127  1
  Fe  Fe7  1  0.16790138  0.83647430  0.16820968  1
  Fe  Fe8  1  1.00277333  0.66975319  0.33633253  1
  Ni  Ni9  1  0.33700697  1.00281183  1.00311752  1
  Ni  Ni10  1  0.50393984  0.16971840  0.16916341  1
  Cr  Cr11  1  0.33774916  0.00352202  0.33798798  1
  Ni  Ni12  1  0.33636359  0.33574961  0.00395900  1
  Fe  Fe13  1  0.50404943  0.50130988  0.16766273  1
  Fe  Fe14  1  0.33562447  0.33535139  0.33608572  1
  Fe  Fe15  1  0.33635916  0.66902056  0.00337204  1
  Ni  Ni16  1  0.50394273  0.83847416  0.16749068  1
  Cr  Cr17  1  0.33471828  0.67039775  0.33602867  1
  Fe  Fe18  1  0.66963028  0.00433707  0.00371218  1
  Ni  Ni19  1  0.83598485  0.16981268  0.17048791  1
  Ni  Ni20  1  0.67092762  0.00418817  0.33680900  1
  Ni  Ni21  1  0.67071925  0.33681933  0.00399847  1
  Ni  Ni22  1  0.83909527  0.50251567  0.16912039  1
  Fe  Fe23  1  0.67098778  0.33355231  0.33542609  1
  Fe  Fe24  1  0.66981461  0.66894035  1.00291778  1
  Ni  Ni25  1  0.83710165  0.83726513  0.16876545  1
  Cr  Cr26  1  0.67180677  0.67149144  0.33615283  1
  Ni  Ni27  1  0.17036649  0.17060119  0.50404971  1
  Fe  Fe28  1  1.00300640  0.00342075  0.66939968  1
  Fe  Fe29  1  0.17102987  0.17042693  0.83627842  1
  Ni  Ni30  1  0.16613966  0.50160520  0.50344972  1
  Fe  Fe31  1  1.00268893  0.33649914  0.66950464  1
  Fe  Fe32  1  0.16960740  0.50159808  0.83789508  1
  Ni  Ni33  1  0.16733437  0.83738629  0.50342326  1
  Fe  Fe34  1  1.00104162  0.66967343  0.66953173  1
  Fe  Fe35  1  0.16972546  0.83756790  0.83717114  1
  Ni  Ni36  1  0.50279715  0.16825250  0.50443444  1
  Ni  Ni37  1  0.33714646  0.00445531  0.66885682  1
  Ni  Ni38  1  0.50281224  0.16955697  0.83599434  1
  Cr  Cr39  1  0.50389420  0.50049553  0.50370776  1
  Ni  Ni40  1  0.33541600  0.33365289  0.66977024  1
  Ni  Ni41  1  0.50397800  0.50234347  0.83808520  1
  Ni  Ni42  1  0.50472625  0.84082201  0.50530991  1
  Cr  Cr43  1  0.33664195  0.67134638  0.66998191  1
  Ni  Ni44  1  0.50315173  0.83768953  0.83678925  1
  Fe  Fe45  1  0.83651860  0.16950434  0.50302217  1
  Ni  Ni46  1  0.66908293  1.00277391  0.66908208  1
  Ni  Ni47  1  0.83647086  0.17073587  0.83645962  1
  Ni  Ni48  1  0.83987140  0.50353500  0.50405243  1
  Ni  Ni49  1  0.67138478  0.33590081  0.66977559  1
  Ni  Ni50  1  0.83687455  0.50273903  0.83641685  1
  Ni  Ni51  1  0.83752260  0.83659935  0.50422452  1
  Ni  Ni52  1  0.67254167  0.67091610  0.67060206  1
  Fe  Fe53  1  0.83505372  0.83622278  0.83622658  1
" 