3699,Ni57Fe27Cr15_7,-235.326086380251, 199.0896209306,Ni57Fe27Cr15,"# generated using pymatgen
 data_Cr9Fe14Ni31
_symmetry_space_group_name_H-M   'P 1'
_cell_length_a   7.43845653
_cell_length_b   7.43845653
_cell_length_c   10.51956611
_cell_angle_alpha   90.00000000
_cell_angle_beta   90.00000000
_cell_angle_gamma   90.00000000
_symmetry_Int_Tables_number   1
_chemical_formula_structural   Cr9Fe14Ni31
_chemical_formula_sum   'Cr9 Fe14 Ni31'
_cell_volume   582.05427953
_cell_formula_units_Z   1
loop_
 _symmetry_equiv_pos_site_id
 _symmetry_equiv_pos_as_xyz
  1  'x, y, z'
loop_
 _atom_site_type_symbol
 _atom_site_label
 _atom_site_symmetry_multiplicity
 _atom_site_fract_x
 _atom_site_fract_y
 _atom_site_fract_z
 _atom_site_occupancy
  Fe  Fe0  1  1.00102510  0.00676942  1.00011497  1
  Cr  Cr1  1  0.16921232  0.17112145  0.16979929  1
  Ni  Ni2  1  1.00110298  0.00215244  0.33852784  1
  Ni  Ni3  1  0.00214292  0.33564981  1.00170241  1
  Ni  Ni4  1  0.16900700  0.50101080  0.16917910  1
  Ni  Ni5  1  0.00360966  0.33729111  0.33582278  1
  Cr  Cr6  1  0.00452217  0.66529657  0.99983974  1
  Cr  Cr7  1  0.16962590  0.83450697  0.16903913  1
  Ni  Ni8  1  0.00252427  0.66655049  0.33717205  1
  Fe  Fe9  1  0.33683453  0.00517579  1.00058600  1
  Ni  Ni10  1  0.50186779  0.16778181  0.16659127  1
  Fe  Fe11  1  0.33679461  0.00236246  0.33819173  1
  Ni  Ni12  1  0.33604352  0.33560428  1.00156191  1
  Fe  Fe13  1  0.49981281  0.50091549  0.16850967  1
  Fe  Fe14  1  0.33489224  0.33571410  0.33674152  1
  Fe  Fe15  1  0.33579245  0.66462129  1.00108622  1
  Fe  Fe16  1  0.50107037  0.83591668  0.17036001  1
  Fe  Fe17  1  0.33537084  0.66772530  0.33777331  1
  Ni  Ni18  1  0.66613282  0.00671582  0.00444935  1
  Fe  Fe19  1  0.83538475  0.17049102  0.16811663  1
  Ni  Ni20  1  0.66646808  1.00093608  0.33541112  1
  Ni  Ni21  1  0.66758459  0.33218277  1.00171965  1
  Ni  Ni22  1  0.83649959  0.50042033  0.16887302  1
  Cr  Cr23  1  0.66823142  0.33379746  0.33496444  1
  Cr  Cr24  1  0.66728522  0.66627521  0.00307341  1
  Cr  Cr25  1  0.83430462  0.83623841  0.17088855  1
  Ni  Ni26  1  0.66778289  0.66993127  0.33667520  1
  Ni  Ni27  1  0.16859063  0.16885681  0.50213148  1
  Ni  Ni28  1  0.00230382  0.00455493  0.66803487  1
  Fe  Fe29  1  0.16874507  0.17042616  0.83393826  1
  Ni  Ni30  1  0.16936152  0.50032923  0.50029486  1
  Ni  Ni31  1  0.00251018  0.33395614  0.66831522  1
  Fe  Fe32  1  0.17090096  0.49771355  0.83464773  1
  Ni  Ni33  1  0.16907898  0.83661467  0.50167807  1
  Cr  Cr34  1  0.00330812  0.66723396  0.66664305  1
  Fe  Fe35  1  0.17051905  0.83759743  0.83366919  1
  Ni  Ni36  1  0.50021998  0.16755010  0.50376646  1
  Ni  Ni37  1  0.33582894  0.00292767  0.66746447  1
  Ni  Ni38  1  0.50143123  0.17081504  0.83524904  1
  Ni  Ni39  1  0.50074822  0.50279536  0.50334056  1
  Ni  Ni40  1  0.33562555  0.33536335  0.66769151  1
  Ni  Ni41  1  0.50077897  0.49843648  0.83510411  1
  Ni  Ni42  1  0.50225504  0.83535822  0.50136094  1
  Ni  Ni43  1  0.33582543  0.66738107  0.66834495  1
  Cr  Cr44  1  0.50048896  0.83628681  0.83432223  1
  Ni  Ni45  1  0.83690533  0.16718990  0.50199034  1
  Ni  Ni46  1  0.66781907  0.00443998  0.66594492  1
  Ni  Ni47  1  0.83532849  0.17084457  0.83737506  1
  Ni  Ni48  1  0.83547315  0.50233016  0.50205699  1
  Fe  Fe49  1  0.66837672  0.33382302  0.66902444  1
  Ni  Ni50  1  0.83428191  0.49689313  0.83450968  1
  Ni  Ni51  1  0.83442321  0.83612403  0.50091627  1
  Fe  Fe52  1  0.66635692  0.66683139  0.66612171  1
  Cr  Cr53  1  0.83536857  0.83795168  0.83307272  1
" 