1343,Ni57Fe27Cr15_17,-234.998111087459, 193.321700497583,Ni57Fe27Cr15,"# generated using pymatgen
 data_Cr9Fe14Ni31
_symmetry_space_group_name_H-M   'P 1'
_cell_length_a   7.43798063
_cell_length_b   7.43798063
_cell_length_c   10.51889308
_cell_angle_alpha   90.00000000
_cell_angle_beta   90.00000000
_cell_angle_gamma   90.00000000
_symmetry_Int_Tables_number   1
_chemical_formula_structural   Cr9Fe14Ni31
_chemical_formula_sum   'Cr9 Fe14 Ni31'
_cell_volume   581.94256824
_cell_formula_units_Z   1
loop_
 _symmetry_equiv_pos_site_id
 _symmetry_equiv_pos_as_xyz
  1  'x, y, z'
loop_
 _atom_site_type_symbol
 _atom_site_label
 _atom_site_symmetry_multiplicity
 _atom_site_fract_x
 _atom_site_fract_y
 _atom_site_fract_z
 _atom_site_occupancy
  Cr  Cr0  1  0.00310313  1.00098259  0.00300573  1
  Ni  Ni1  1  0.16984872  0.16949960  0.16981442  1
  Ni  Ni2  1  1.00140559  0.99967427  0.33619766  1
  Cr  Cr3  1  1.00122012  0.33718659  0.00477746  1
  Ni  Ni4  1  0.17213248  0.50435263  0.16760145  1
  Cr  Cr5  1  0.00261496  0.33593273  0.33333486  1
  Ni  Ni6  1  1.00038912  0.66844050  1.00110270  1
  Ni  Ni7  1  0.16355538  0.83264564  0.17146931  1
  Ni  Ni8  1  0.00200685  0.66858306  0.33568383  1
  Cr  Cr9  1  0.33588094  0.00235374  0.00399101  1
  Ni  Ni10  1  0.50440970  0.17176711  0.16738633  1
  Cr  Cr11  1  0.33595508  0.00226489  0.33342711  1
  Fe  Fe12  1  0.33731472  0.33650145  0.00238899  1
  Ni  Ni13  1  0.50182808  0.50154089  0.16898771  1
  Ni  Ni14  1  0.33531256  0.33616271  0.33483053  1
  Cr  Cr15  1  0.33446968  0.67146847  0.99840968  1
  Fe  Fe16  1  0.50322039  0.83496742  0.16961462  1
  Fe  Fe17  1  0.33501976  0.66680838  0.33586745  1
  Ni  Ni18  1  0.66742694  1.00129000  1.00010895  1
  Ni  Ni19  1  0.83246433  0.16277203  0.16890891  1
  Ni  Ni20  1  0.66859611  1.00058097  0.33679744  1
  Ni  Ni21  1  0.66906467  0.33634970  1.00181545  1
  Fe  Fe22  1  0.83494952  0.50282310  0.16835890  1
  Cr  Cr23  1  0.66809899  0.33651500  0.33806769  1
  Ni  Ni24  1  0.66872998  0.66799653  0.00319420  1
  Ni  Ni25  1  0.83426368  0.83358833  0.16914928  1
  Fe  Fe26  1  0.66914393  0.67009051  0.33600178  1
  Ni  Ni27  1  0.16855077  0.16913813  0.50149046  1
  Fe  Fe28  1  1.00063804  0.00511090  0.66809971  1
  Ni  Ni29  1  0.17031953  0.16882655  0.83525134  1
  Ni  Ni30  1  0.16932456  0.50010040  0.50355417  1
  Ni  Ni31  1  1.00057537  0.33607120  0.66804776  1
  Fe  Fe32  1  0.16718287  0.50085295  0.83336862  1
  Fe  Fe33  1  0.16926254  0.83245510  0.50144959  1
  Fe  Fe34  1  1.00176238  0.66693684  0.66818464  1
  Ni  Ni35  1  0.16378556  0.83497321  0.83161122  1
  Ni  Ni36  1  0.50049890  0.16919535  0.50297801  1
  Cr  Cr37  1  0.33625638  0.99822106  0.66837205  1
  Ni  Ni38  1  0.50263523  0.17148201  0.83571259  1
  Ni  Ni39  1  0.49951022  0.50084914  0.50225190  1
  Ni  Ni40  1  0.33457981  0.33300195  0.66905245  1
  Ni  Ni41  1  0.50300376  0.49871590  0.83490481  1
  Ni  Ni42  1  0.50512394  0.83410408  0.50089872  1
  Fe  Fe43  1  0.33500987  0.66387284  0.66914899  1
  Fe  Fe44  1  0.50387351  0.83551967  0.83456800  1
  Fe  Fe45  1  0.83498427  0.16943103  0.50221204  1
  Fe  Fe46  1  0.67014619  0.00532670  0.66817471  1
  Fe  Fe47  1  0.83461463  0.17053395  0.83520266  1
  Ni  Ni48  1  0.83624211  0.50585924  0.50146509  1
  Ni  Ni49  1  0.66984114  0.33666045  0.66738082  1
  Ni  Ni50  1  0.83393117  0.50472260  0.83678166  1
  Ni  Ni51  1  0.83728800  0.83698817  0.50147604  1
  Cr  Cr52  1  0.66825761  0.66842411  0.66788933  1
  Ni  Ni53  1  0.83588989  0.83500127  0.83569282  1
" 