8350,Ni58Fe33Cr8_11,-238.321066966189, 214.6067206684,Ni58Fe33Cr8,"# generated using pymatgen
 data_Cr5Fe18Ni31
_symmetry_space_group_name_H-M   'P 1'
_cell_length_a   7.41545660
_cell_length_b   7.41545660
_cell_length_c   10.48703930
_cell_angle_alpha   90.00000000
_cell_angle_beta   90.00000000
_cell_angle_gamma   90.00000000
_symmetry_Int_Tables_number   1
_chemical_formula_structural   Cr5Fe18Ni31
_chemical_formula_sum   'Cr5 Fe18 Ni31'
_cell_volume   576.67176899
_cell_formula_units_Z   1
loop_
 _symmetry_equiv_pos_site_id
 _symmetry_equiv_pos_as_xyz
  1  'x, y, z'
loop_
 _atom_site_type_symbol
 _atom_site_label
 _atom_site_symmetry_multiplicity
 _atom_site_fract_x
 _atom_site_fract_y
 _atom_site_fract_z
 _atom_site_occupancy
  Fe  Fe0  1  1.00327541  0.00467854  0.00418087  1
  Ni  Ni1  1  0.17024386  0.17067542  0.16950952  1
  Ni  Ni2  1  0.00380959  1.00189367  0.33667458  1
  Ni  Ni3  1  0.00446000  0.33792602  0.00371331  1
  Ni  Ni4  1  0.16947855  0.50218250  0.16994409  1
  Fe  Fe5  1  0.00493454  0.33697013  0.33647794  1
  Ni  Ni6  1  1.00202585  0.66932275  0.00434807  1
  Fe  Fe7  1  0.16757891  0.83630454  0.17107164  1
  Ni  Ni8  1  0.00372171  0.67148005  0.33662072  1
  Fe  Fe9  1  0.33537278  0.00555505  0.00398876  1
  Fe  Fe10  1  0.50256895  0.17331218  0.17145241  1
  Ni  Ni11  1  0.33612455  0.00460215  0.33756144  1
  Ni  Ni12  1  0.33660773  0.33636640  0.00362650  1
  Fe  Fe13  1  0.50362191  0.50155542  0.17006257  1
  Ni  Ni14  1  0.33821295  0.33623242  0.33675558  1
  Fe  Fe15  1  0.33689816  0.66702723  0.00363018  1
  Cr  Cr16  1  0.50337648  0.83590211  0.17099132  1
  Ni  Ni17  1  0.33538141  0.66960088  0.33806648  1
  Cr  Cr18  1  0.67117024  0.00353100  1.00221953  1
  Fe  Fe19  1  0.83815016  0.17148976  0.17042637  1
  Fe  Fe20  1  0.67013576  0.00397064  0.33770584  1
  Ni  Ni21  1  0.66936691  0.33827658  1.00257069  1
  Ni  Ni22  1  0.83709022  0.50372696  0.16934519  1
  Ni  Ni23  1  0.66862260  0.33631994  0.33656150  1
  Ni  Ni24  1  0.67207402  0.66869879  1.00265683  1
  Ni  Ni25  1  0.83826855  0.83574304  0.17058968  1
  Fe  Fe26  1  0.67037329  0.66960475  0.33746939  1
  Ni  Ni27  1  0.16955532  0.17037858  0.50369383  1
  Ni  Ni28  1  1.00252771  0.00370832  0.67008316  1
  Fe  Fe29  1  0.16841448  0.17363142  0.83738514  1
  Ni  Ni30  1  0.17063598  0.50333304  0.50402812  1
  Ni  Ni31  1  0.00487986  0.33762962  0.67006020  1
  Ni  Ni32  1  0.17065953  0.50177978  0.83646412  1
  Ni  Ni33  1  0.16974169  0.83672450  0.50164928  1
  Ni  Ni34  1  1.00174700  0.66910064  0.66946641  1
  Cr  Cr35  1  0.16868222  0.83601267  0.83819731  1
  Ni  Ni36  1  0.50326146  0.17120344  0.50143249  1
  Cr  Cr37  1  0.33647335  0.00542881  0.66905279  1
  Fe  Fe38  1  0.50322574  0.17353535  0.83750886  1
  Ni  Ni39  1  0.50327590  0.50360068  0.50311986  1
  Ni  Ni40  1  0.33609209  0.33794936  0.67005349  1
  Ni  Ni41  1  0.50398194  0.50319545  0.83725579  1
  Ni  Ni42  1  0.50334426  0.83562971  0.50275728  1
  Fe  Fe43  1  0.33688836  0.66738050  0.66856283  1
  Fe  Fe44  1  0.50553158  0.83342686  0.83739415  1
  Fe  Fe45  1  0.83783382  0.17078574  0.50327895  1
  Cr  Cr46  1  0.67110215  1.00229976  0.66987156  1
  Ni  Ni47  1  0.83795652  0.17126481  0.83704193  1
  Fe  Fe48  1  0.83681836  0.50368542  0.50364777  1
  Fe  Fe49  1  0.67068994  0.33855466  0.67031646  1
  Ni  Ni50  1  0.83579619  0.50300654  0.83690932  1
  Fe  Fe51  1  0.83816545  0.83596351  0.50304923  1
  Ni  Ni52  1  0.67108024  0.66951987  0.67057500  1
  Ni  Ni53  1  0.83653889  0.83616711  0.83676876  1
" 