6879,Ni58Fe33Cr8_16,-238.612776427728, 213.279960709105,Ni58Fe33Cr8,"# generated using pymatgen
 data_Cr5Fe18Ni31
_symmetry_space_group_name_H-M   'P 1'
_cell_length_a   7.41862616
_cell_length_b   7.41862616
_cell_length_c   10.49152174
_cell_angle_alpha   90.00000000
_cell_angle_beta   90.00000000
_cell_angle_gamma   90.00000000
_symmetry_Int_Tables_number   1
_chemical_formula_structural   Cr5Fe18Ni31
_chemical_formula_sum   'Cr5 Fe18 Ni31'
_cell_volume   577.41153888
_cell_formula_units_Z   1
loop_
 _symmetry_equiv_pos_site_id
 _symmetry_equiv_pos_as_xyz
  1  'x, y, z'
loop_
 _atom_site_type_symbol
 _atom_site_label
 _atom_site_symmetry_multiplicity
 _atom_site_fract_x
 _atom_site_fract_y
 _atom_site_fract_z
 _atom_site_occupancy
  Cr  Cr0  1  0.00475399  0.00593890  0.00420240  1
  Ni  Ni1  1  0.17231128  0.17050451  0.17128435  1
  Fe  Fe2  1  1.00275760  0.00460515  0.33611781  1
  Fe  Fe3  1  0.00334125  0.33740400  0.00432186  1
  Fe  Fe4  1  0.17063062  0.50263464  0.17036580  1
  Ni  Ni5  1  1.00256807  0.33630289  0.33657973  1
  Fe  Fe6  1  0.00479751  0.66958410  0.00530386  1
  Ni  Ni7  1  0.17095213  0.83593884  0.16976263  1
  Ni  Ni8  1  0.00478236  0.66782003  0.33398889  1
  Ni  Ni9  1  0.33652802  1.00254073  0.00330022  1
  Ni  Ni10  1  0.50196388  0.17025212  0.16914697  1
  Fe  Fe11  1  0.33601722  0.00353049  0.33647772  1
  Fe  Fe12  1  0.33756124  0.33486881  0.00443067  1
  Ni  Ni13  1  0.50274690  0.50185940  0.17051791  1
  Fe  Fe14  1  0.33743426  0.33659179  0.33677510  1
  Ni  Ni15  1  0.33677307  0.67130216  0.00521940  1
  Ni  Ni16  1  0.50231489  0.83737855  0.17077398  1
  Fe  Fe17  1  0.33697790  0.66958453  0.33640863  1
  Fe  Fe18  1  0.66701493  0.00420199  0.00456868  1
  Ni  Ni19  1  0.83512478  0.17107988  0.16960778  1
  Ni  Ni20  1  0.66767207  0.00501339  0.33353742  1
  Fe  Fe21  1  0.66912689  0.33474112  0.00339331  1
  Ni  Ni22  1  0.83679887  0.50339608  0.17005056  1
  Ni  Ni23  1  0.67125491  0.33656029  0.33569209  1
  Cr  Cr24  1  0.66816821  0.66815544  0.00464944  1
  Ni  Ni25  1  0.83626122  0.83546387  0.17201009  1
  Ni  Ni26  1  0.66868328  0.66825339  0.33637445  1
  Ni  Ni27  1  0.17170785  0.17055361  0.50401795  1
  Ni  Ni28  1  0.00566487  0.00616444  0.66905761  1
  Ni  Ni29  1  0.17368438  0.17008390  0.83428205  1
  Ni  Ni30  1  0.16923613  0.50338142  0.50294587  1
  Ni  Ni31  1  1.00139128  0.33588319  0.66919737  1
  Cr  Cr32  1  0.16954868  0.50273885  0.83748036  1
  Ni  Ni33  1  0.17040080  0.83566188  0.50469633  1
  Ni  Ni34  1  0.00629397  0.66809476  0.67019291  1
  Fe  Fe35  1  0.17278916  0.83776650  0.83564878  1
  Ni  Ni36  1  0.50308994  0.16977913  0.50293916  1
  Ni  Ni37  1  0.33671496  1.00179813  0.67035678  1
  Ni  Ni38  1  0.50168920  0.16934953  0.83767515  1
  Fe  Fe39  1  0.50333669  0.50200182  0.50260375  1
  Fe  Fe40  1  0.33689057  0.33493043  0.66869541  1
  Fe  Fe41  1  0.50321731  0.50142499  0.83620993  1
  Fe  Fe42  1  0.50209334  0.83832973  0.50262435  1
  Ni  Ni43  1  0.33770500  0.67110478  0.66921160  1
  Fe  Fe44  1  0.50003316  0.83721123  0.83662008  1
  Ni  Ni45  1  0.83488254  0.17106081  0.50441468  1
  Ni  Ni46  1  0.66706691  0.00688866  0.67134589  1
  Fe  Fe47  1  0.83678102  0.17305390  0.83530181  1
  Ni  Ni48  1  0.83740543  0.50325247  0.50414696  1
  Ni  Ni49  1  0.67026470  0.33696560  0.67030219  1
  Ni  Ni50  1  0.83637158  0.50310954  0.83549135  1
  Cr  Cr51  1  0.83670068  0.83594406  0.50265682  1
  Fe  Fe52  1  0.66878647  0.66848364  0.66933304  1
  Cr  Cr53  1  0.83716531  0.83570516  0.83391933  1
" 