2984,Ni58Fe23Cr18_8,-233.62366668306, 188.692255163361,Ni58Fe23Cr18,"# generated using pymatgen
 data_Cr11Fe12Ni31
_symmetry_space_group_name_H-M   'P 1'
_cell_length_a   7.44604487
_cell_length_b   7.44604487
_cell_length_c   10.53029764
_cell_angle_alpha   90.00000000
_cell_angle_beta   90.00000000
_cell_angle_gamma   90.00000000
_symmetry_Int_Tables_number   1
_chemical_formula_structural   Cr11Fe12Ni31
_chemical_formula_sum   'Cr11 Fe12 Ni31'
_cell_volume   583.83744362
_cell_formula_units_Z   1
loop_
 _symmetry_equiv_pos_site_id
 _symmetry_equiv_pos_as_xyz
  1  'x, y, z'
loop_
 _atom_site_type_symbol
 _atom_site_label
 _atom_site_symmetry_multiplicity
 _atom_site_fract_x
 _atom_site_fract_y
 _atom_site_fract_z
 _atom_site_occupancy
  Fe  Fe0  1  0.00293459  0.00195746  1.00013686  1
  Fe  Fe1  1  0.16710864  0.16996522  0.16724131  1
  Cr  Cr2  1  0.00191072  0.00416851  0.33471210  1
  Ni  Ni3  1  0.00220433  0.33380198  0.00241798  1
  Ni  Ni4  1  0.16636077  0.50226427  0.16794245  1
  Ni  Ni5  1  0.00356656  0.33537767  0.33543740  1
  Ni  Ni6  1  0.00333473  0.66782808  1.00090115  1
  Ni  Ni7  1  0.16832736  0.83401599  0.16643784  1
  Fe  Fe8  1  0.00331250  0.66648921  0.33512283  1
  Ni  Ni9  1  0.33378098  1.00002538  1.00086561  1
  Cr  Cr10  1  0.49978046  0.16577417  0.16797099  1
  Fe  Fe11  1  0.33427425  0.00169193  0.33543874  1
  Ni  Ni12  1  0.33053698  0.33304083  0.00153117  1
  Cr  Cr13  1  0.49883250  0.50059090  0.16715077  1
  Ni  Ni14  1  0.33131485  0.33719920  0.33624257  1
  Ni  Ni15  1  0.33111262  0.67115031  0.00168803  1
  Fe  Fe16  1  0.49894155  0.83459718  0.16816749  1
  Ni  Ni17  1  0.33352416  0.66922067  0.33487118  1
  Ni  Ni18  1  0.66882410  0.00187227  0.99976906  1
  Fe  Fe19  1  0.83700770  0.16879653  0.16821687  1
  Ni  Ni20  1  0.66786288  0.99933654  0.33684523  1
  Cr  Cr21  1  0.67186306  0.33181920  0.99964201  1
  Ni  Ni22  1  0.83923010  0.50216159  0.16872782  1
  Cr  Cr23  1  0.67099702  0.33339151  0.33639524  1
  Cr  Cr24  1  0.66771772  0.66978504  1.00020379  1
  Cr  Cr25  1  0.83567244  0.83463626  0.16786995  1
  Fe  Fe26  1  0.66805576  0.66771766  0.33672111  1
  Ni  Ni27  1  0.16962866  0.16796899  0.50145406  1
  Ni  Ni28  1  0.00190997  0.00158922  0.66849910  1
  Ni  Ni29  1  0.16982092  0.16667746  0.83545771  1
  Ni  Ni30  1  0.16730001  0.50121664  0.50025856  1
  Fe  Fe31  1  1.00073976  0.33303040  0.66651947  1
  Cr  Cr32  1  0.16595475  0.50046290  0.83545752  1
  Ni  Ni33  1  0.16612503  0.83528847  0.50185600  1
  Fe  Fe34  1  1.00029084  0.66930981  0.66780332  1
  Ni  Ni35  1  0.16583622  0.83750031  0.83568681  1
  Ni  Ni36  1  0.50056120  0.16765846  0.50255000  1
  Fe  Fe37  1  0.33469662  0.00310060  0.66913423  1
  Ni  Ni38  1  0.50025404  0.16569664  0.83362942  1
  Ni  Ni39  1  0.50060477  0.49859115  0.50035964  1
  Ni  Ni40  1  0.33416669  0.33329148  0.66614611  1
  Cr  Cr41  1  0.50014867  0.49728586  0.83617051  1
  Fe  Fe42  1  0.50123289  0.83604464  0.50055296  1
  Cr  Cr43  1  0.33294222  0.66960066  0.66875248  1
  Ni  Ni44  1  0.50142243  0.84051802  0.83687749  1
  Ni  Ni45  1  0.83435592  0.16691234  0.50249340  1
  Ni  Ni46  1  0.67036344  0.00273020  0.66804345  1
  Fe  Fe47  1  0.83636891  0.16680378  0.83306178  1
  Ni  Ni48  1  0.83638696  0.50210343  0.50107269  1
  Ni  Ni49  1  0.66878298  0.33263979  0.66743126  1
  Ni  Ni50  1  0.83744316  0.50179740  0.83419338  1
  Ni  Ni51  1  0.83605202  0.83499847  0.50128675  1
  Cr  Cr52  1  0.66758136  0.66866262  0.66780219  1
  Ni  Ni53  1  0.83679797  0.83600245  0.83493991  1
" 