9010,Ni58Fe33Cr8_3,-238.201039890652, 214.765644596028,Ni58Fe33Cr8,"# generated using pymatgen
 data_Cr5Fe18Ni31
_symmetry_space_group_name_H-M   'P 1'
_cell_length_a   7.41707952
_cell_length_b   7.41707952
_cell_length_c   10.48933445
_cell_angle_alpha   90.00000000
_cell_angle_beta   90.00000000
_cell_angle_gamma   90.00000000
_symmetry_Int_Tables_number   1
_chemical_formula_structural   Cr5Fe18Ni31
_chemical_formula_sum   'Cr5 Fe18 Ni31'
_cell_volume   577.05047506
_cell_formula_units_Z   1
loop_
 _symmetry_equiv_pos_site_id
 _symmetry_equiv_pos_as_xyz
  1  'x, y, z'
loop_
 _atom_site_type_symbol
 _atom_site_label
 _atom_site_symmetry_multiplicity
 _atom_site_fract_x
 _atom_site_fract_y
 _atom_site_fract_z
 _atom_site_occupancy
  Ni  Ni0  1  0.00468975  1.00110627  0.00429457  1
  Fe  Fe1  1  0.17045779  0.16867324  0.17176994  1
  Ni  Ni2  1  0.00393911  1.00290732  0.33608602  1
  Cr  Cr3  1  0.00545275  0.33782573  0.00388411  1
  Ni  Ni4  1  0.16971616  0.50622407  0.17159177  1
  Ni  Ni5  1  0.00378182  0.33685092  0.33809717  1
  Ni  Ni6  1  1.00224155  0.67100538  1.00280007  1
  Ni  Ni7  1  0.17120405  0.83543500  0.16943065  1
  Ni  Ni8  1  1.00236855  0.67003585  0.33742381  1
  Ni  Ni9  1  0.33662535  0.00521570  0.00372421  1
  Ni  Ni10  1  0.50520853  0.16913787  0.16834091  1
  Ni  Ni11  1  0.33806519  0.00405600  0.33789729  1
  Fe  Fe12  1  0.33772385  0.33719438  0.00380377  1
  Fe  Fe13  1  0.50311688  0.50389941  0.17007220  1
  Ni  Ni14  1  0.33715891  0.33443875  0.33457715  1
  Fe  Fe15  1  0.33587299  0.67017133  0.00484136  1
  Ni  Ni16  1  0.50092873  0.83753239  0.17098714  1
  Ni  Ni17  1  0.33658697  0.67139994  0.33671656  1
  Ni  Ni18  1  0.66883342  1.00247595  0.00447832  1
  Ni  Ni19  1  0.83593084  0.17027122  0.17085725  1
  Fe  Fe20  1  0.66935011  0.00369748  0.33676476  1
  Ni  Ni21  1  0.66736606  0.33797264  1.00313241  1
  Ni  Ni22  1  0.83762913  0.50168679  0.17010397  1
  Fe  Fe23  1  0.67058763  0.33509501  0.33545873  1
  Ni  Ni24  1  0.67051330  0.66963220  0.00479092  1
  Fe  Fe25  1  0.83717347  0.83637233  0.17017922  1
  Fe  Fe26  1  0.67131440  0.67146566  0.33666822  1
  Fe  Fe27  1  0.17031797  0.16938223  0.50286685  1
  Ni  Ni28  1  0.00465966  0.00375957  0.66962287  1
  Fe  Fe29  1  0.17223223  0.16891239  0.83573823  1
  Fe  Fe30  1  0.16981780  0.50222467  0.50186775  1
  Ni  Ni31  1  0.00610773  0.33594449  0.66841234  1
  Ni  Ni32  1  0.17195780  0.50492595  0.83609934  1
  Ni  Ni33  1  0.17079916  0.83673875  0.50275408  1
  Cr  Cr34  1  1.00122591  0.67040151  0.66934714  1
  Ni  Ni35  1  0.16998535  0.83651575  0.83815439  1
  Ni  Ni36  1  0.50479021  0.16950915  0.50484622  1
  Fe  Fe37  1  0.33461798  1.00333058  0.66888035  1
  Fe  Fe38  1  0.50041432  0.17137814  0.83768666  1
  Cr  Cr39  1  0.50224986  0.50317633  0.50161162  1
  Ni  Ni40  1  0.33709972  0.33483201  0.67112955  1
  Ni  Ni41  1  0.50236440  0.50313907  0.83791487  1
  Ni  Ni42  1  0.50181542  0.83807510  0.50383711  1
  Fe  Fe43  1  0.33505445  0.66897168  0.66946312  1
  Cr  Cr44  1  0.50184116  0.83663262  0.83556891  1
  Ni  Ni45  1  0.83720960  0.17079756  0.50263386  1
  Fe  Fe46  1  0.67122976  0.00347100  0.66787296  1
  Cr  Cr47  1  0.83577827  0.16939436  0.83649911  1
  Ni  Ni48  1  0.83737174  0.50076590  0.50360688  1
  Fe  Fe49  1  0.67087430  0.33771617  0.67031441  1
  Fe  Fe50  1  0.83509298  0.50541544  0.83704075  1
  Ni  Ni51  1  0.83712932  0.83864896  0.50249306  1
  Ni  Ni52  1  0.66902311  0.67053665  0.66927234  1
  Fe  Fe53  1  0.83699872  0.83552132  0.83758890  1
" 