6871,Ni58Fe16Cr24_11,-230.942025618475, 181.190914879267,Ni58Fe16Cr24,"# generated using pymatgen
 data_Cr14Fe9Ni31
_symmetry_space_group_name_H-M   'P 1'
_cell_length_a   7.45595688
_cell_length_b   7.45595688
_cell_length_c   10.54431534
_cell_angle_alpha   90.00000000
_cell_angle_beta   90.00000000
_cell_angle_gamma   90.00000000
_symmetry_Int_Tables_number   1
_chemical_formula_structural   Cr14Fe9Ni31
_chemical_formula_sum   'Cr14 Fe9 Ni31'
_cell_volume   586.17212371
_cell_formula_units_Z   1
loop_
 _symmetry_equiv_pos_site_id
 _symmetry_equiv_pos_as_xyz
  1  'x, y, z'
loop_
 _atom_site_type_symbol
 _atom_site_label
 _atom_site_symmetry_multiplicity
 _atom_site_fract_x
 _atom_site_fract_y
 _atom_site_fract_z
 _atom_site_occupancy
  Cr  Cr0  1  0.99990507  0.99921858  0.99845924  1
  Ni  Ni1  1  0.16876907  0.16946166  0.16851034  1
  Ni  Ni2  1  0.00443250  0.99829518  0.33338692  1
  Ni  Ni3  1  0.00206342  0.33582184  1.00045381  1
  Ni  Ni4  1  0.16872967  0.49894754  0.16841359  1
  Fe  Fe5  1  0.00279893  0.33373733  0.33504114  1
  Cr  Cr6  1  0.00137569  0.66736150  0.00184358  1
  Ni  Ni7  1  0.16657374  0.83158112  0.17126388  1
  Fe  Fe8  1  0.00294122  0.66443332  0.33398856  1
  Cr  Cr9  1  0.33047566  0.00226649  0.00080863  1
  Ni  Ni10  1  0.50040205  0.16985315  0.16827531  1
  Ni  Ni11  1  0.33029526  0.00333411  0.33519302  1
  Ni  Ni12  1  0.33291354  0.33608742  0.00383359  1
  Fe  Fe13  1  0.49954463  0.49907612  0.16956225  1
  Ni  Ni14  1  0.33534498  0.33325916  0.33397308  1
  Fe  Fe15  1  0.33192459  0.66560817  0.00114092  1
  Cr  Cr16  1  0.50055154  0.83513028  0.16956255  1
  Fe  Fe17  1  0.33327976  0.66503624  0.33584365  1
  Ni  Ni18  1  0.66847847  0.00106107  0.00243274  1
  Cr  Cr19  1  0.83459458  0.16783821  0.16852956  1
  Fe  Fe20  1  0.66616765  0.00350370  0.33396881  1
  Ni  Ni21  1  0.66735696  0.33519730  0.00272618  1
  Fe  Fe22  1  0.83594284  0.49971580  0.16985330  1
  Ni  Ni23  1  0.66536230  0.33753906  0.33517026  1
  Cr  Cr24  1  0.67046763  0.66630470  0.00123417  1
  Ni  Ni25  1  0.83432635  0.83312540  0.17120722  1
  Ni  Ni26  1  0.66979538  0.66386723  0.33434190  1
  Ni  Ni27  1  0.16727553  0.16764129  0.49842558  1
  Cr  Cr28  1  0.00374146  0.00251414  0.66974625  1
  Ni  Ni29  1  0.16505564  0.17119157  0.83465331  1
  Ni  Ni30  1  0.16611266  0.49993593  0.50022004  1
  Ni  Ni31  1  0.99903901  0.33708916  0.66660345  1
  Ni  Ni32  1  0.16438015  0.49988368  0.83394816  1
  Ni  Ni33  1  0.16767256  0.83324685  0.49989265  1
  Ni  Ni34  1  0.00106120  0.66577688  0.66724101  1
  Ni  Ni35  1  0.16706641  0.83092259  0.83120722  1
  Ni  Ni36  1  0.50056088  0.16890069  0.49790346  1
  Ni  Ni37  1  0.33104173  0.99974408  0.66555299  1
  Cr  Cr38  1  0.50145951  0.16829688  0.83649894  1
  Ni  Ni39  1  0.50188915  0.49952302  0.49955352  1
  Cr  Cr40  1  0.33348449  0.33183378  0.66404256  1
  Cr  Cr41  1  0.49884224  0.50032511  0.83346424  1
  Cr  Cr42  1  0.49862714  0.83358735  0.50155783  1
  Ni  Ni43  1  0.32902561  0.66600675  0.66535675  1
  Cr  Cr44  1  0.49952774  0.83301241  0.83053536  1
  Fe  Fe45  1  0.83599410  0.17106885  0.49853569  1
  Cr  Cr46  1  0.66835069  0.00632065  0.66624897  1
  Ni  Ni47  1  0.83427781  0.17179067  0.83529398  1
  Ni  Ni48  1  0.83504802  0.49883365  0.50033443  1
  Ni  Ni49  1  0.67006188  0.33758922  0.66469290  1
  Ni  Ni50  1  0.83594317  0.49842849  0.83247166  1
  Cr  Cr51  1  0.83669335  0.83235249  0.49824550  1
  Fe  Fe52  1  0.66930629  0.66456624  0.66578578  1
  Ni  Ni53  1  0.83381058  0.83311837  0.83313206  1
" 