6797,Ni58Fe16Cr24_4,-231.009614245999, 182.504738536589,Ni58Fe16Cr24,"# generated using pymatgen
 data_Cr14Fe9Ni31
_symmetry_space_group_name_H-M   'P 1'
_cell_length_a   7.45546798
_cell_length_b   7.45546798
_cell_length_c   10.54362392
_cell_angle_alpha   90.00000000
_cell_angle_beta   90.00000000
_cell_angle_gamma   90.00000000
_symmetry_Int_Tables_number   1
_chemical_formula_structural   Cr14Fe9Ni31
_chemical_formula_sum   'Cr14 Fe9 Ni31'
_cell_volume   586.05682103
_cell_formula_units_Z   1
loop_
 _symmetry_equiv_pos_site_id
 _symmetry_equiv_pos_as_xyz
  1  'x, y, z'
loop_
 _atom_site_type_symbol
 _atom_site_label
 _atom_site_symmetry_multiplicity
 _atom_site_fract_x
 _atom_site_fract_y
 _atom_site_fract_z
 _atom_site_occupancy
  Ni  Ni0  1  0.99976304  0.00212019  1.00042029  1
  Ni  Ni1  1  0.16575129  0.16813347  0.16790107  1
  Ni  Ni2  1  0.00404397  0.00085850  0.33447277  1
  Ni  Ni3  1  0.00211437  0.33364109  1.00051188  1
  Ni  Ni4  1  0.16685785  0.50061727  0.16490292  1
  Ni  Ni5  1  0.00291191  0.33437466  0.33360682  1
  Ni  Ni6  1  0.00237771  0.66657954  1.00014938  1
  Ni  Ni7  1  0.16679523  0.83343321  0.16714305  1
  Ni  Ni8  1  0.00164983  0.66698696  0.33614795  1
  Cr  Cr9  1  0.33479896  0.00116064  0.00265849  1
  Ni  Ni10  1  0.50069152  0.16757965  0.16557957  1
  Fe  Fe11  1  0.33115081  1.00014883  0.33232794  1
  Ni  Ni12  1  0.33284321  0.33366366  0.00081434  1
  Fe  Fe13  1  0.49926862  0.50030767  0.16586870  1
  Cr  Cr14  1  0.33172591  0.33370062  0.33470105  1
  Fe  Fe15  1  0.33275860  0.66592552  0.00150765  1
  Ni  Ni16  1  0.49939946  0.83514417  0.16662078  1
  Cr  Cr17  1  0.33341956  0.66723335  0.33233994  1
  Ni  Ni18  1  0.66762632  0.00254777  0.99931351  1
  Ni  Ni19  1  0.83556608  0.16749641  0.16475918  1
  Cr  Cr20  1  0.66745147  0.99952894  0.33164508  1
  Ni  Ni21  1  0.66714965  0.33107498  0.00139822  1
  Cr  Cr22  1  0.83774427  0.49929016  0.16773440  1
  Cr  Cr23  1  0.66852796  0.33713957  0.33242274  1
  Cr  Cr24  1  0.66756619  0.66923196  1.00031310  1
  Cr  Cr25  1  0.83730568  0.83535029  0.16827906  1
  Ni  Ni26  1  0.66819481  0.66729890  0.33656977  1
  Fe  Fe27  1  0.16486934  0.16796295  0.50058957  1
  Fe  Fe28  1  0.99844693  0.99907110  0.66748293  1
  Fe  Fe29  1  0.16727043  0.16910536  0.83518337  1
  Ni  Ni30  1  0.16585399  0.50151914  0.50274845  1
  Ni  Ni31  1  0.00173428  0.33550914  0.66817524  1
  Ni  Ni32  1  0.16520785  0.49898897  0.83456567  1
  Ni  Ni33  1  0.16406238  0.83277063  0.50031125  1
  Ni  Ni34  1  1.00038922  0.66567971  0.66648633  1
  Cr  Cr35  1  0.16542986  0.83012109  0.83521361  1
  Cr  Cr36  1  0.50031608  0.16927469  0.50240085  1
  Cr  Cr37  1  0.33213324  0.00108995  0.66719863  1
  Ni  Ni38  1  0.50318602  0.16828529  0.83408227  1
  Ni  Ni39  1  0.50073198  0.50083545  0.50304689  1
  Fe  Fe40  1  0.33273055  0.33677079  0.66816342  1
  Cr  Cr41  1  0.49817721  0.49953092  0.83341737  1
  Cr  Cr42  1  0.50154038  0.83310020  0.50214470  1
  Ni  Ni43  1  0.33255158  0.66683999  0.66762504  1
  Ni  Ni44  1  0.50305171  0.83563653  0.83302530  1
  Cr  Cr45  1  0.83466316  0.16721375  0.50078748  1
  Ni  Ni46  1  0.66833569  1.00005723  0.67095081  1
  Fe  Fe47  1  0.83428325  0.16840112  0.83480860  1
  Ni  Ni48  1  0.83590532  0.50196880  0.50167081  1
  Ni  Ni49  1  0.66964327  0.33498232  0.66804949  1
  Fe  Fe50  1  0.83530449  0.50119522  0.83318554  1
  Ni  Ni51  1  0.83705595  0.83228678  0.50171985  1
  Ni  Ni52  1  0.66934829  0.66751362  0.66609889  1
  Ni  Ni53  1  0.83425894  0.83565700  0.83269368  1
" 