7759,Ni58Fe33Cr8_10,-238.595194215562, 214.347187705078,Ni58Fe33Cr8,"# generated using pymatgen
 data_Cr5Fe18Ni31
_symmetry_space_group_name_H-M   'P 1'
_cell_length_a   7.41790598
_cell_length_b   7.41790598
_cell_length_c   10.49050324
_cell_angle_alpha   90.00000000
_cell_angle_beta   90.00000000
_cell_angle_gamma   90.00000000
_symmetry_Int_Tables_number   1
_chemical_formula_structural   Cr5Fe18Ni31
_chemical_formula_sum   'Cr5 Fe18 Ni31'
_cell_volume   577.24339381
_cell_formula_units_Z   1
loop_
 _symmetry_equiv_pos_site_id
 _symmetry_equiv_pos_as_xyz
  1  'x, y, z'
loop_
 _atom_site_type_symbol
 _atom_site_label
 _atom_site_symmetry_multiplicity
 _atom_site_fract_x
 _atom_site_fract_y
 _atom_site_fract_z
 _atom_site_occupancy
  Fe  Fe0  1  0.00362681  1.00170966  1.00235835  1
  Fe  Fe1  1  0.17113583  0.16953893  0.17025628  1
  Ni  Ni2  1  0.00537840  1.00106721  0.33642594  1
  Ni  Ni3  1  0.00367799  0.33799915  1.00215550  1
  Fe  Fe4  1  0.16959183  0.50372911  0.16999944  1
  Fe  Fe5  1  0.00537999  0.33871545  0.33689308  1
  Ni  Ni6  1  1.00311331  0.66953130  0.00351921  1
  Fe  Fe7  1  0.16831136  0.83667034  0.17029076  1
  Ni  Ni8  1  1.00260691  0.67065700  0.33690651  1
  Ni  Ni9  1  0.33662958  0.00431074  1.00182732  1
  Ni  Ni10  1  0.50207161  0.17135378  0.17103503  1
  Ni  Ni11  1  0.33569130  0.00538935  0.33897942  1
  Fe  Fe12  1  0.33714731  0.33652332  1.00313994  1
  Fe  Fe13  1  0.50463682  0.50206726  0.17051865  1
  Ni  Ni14  1  0.33711957  0.33482042  0.33509943  1
  Ni  Ni15  1  0.33559491  0.66973470  1.00206410  1
  Cr  Cr16  1  0.50359323  0.83693901  0.17031150  1
  Ni  Ni17  1  0.33506954  0.66973037  0.33734165  1
  Ni  Ni18  1  0.66912236  0.00374379  1.00231929  1
  Cr  Cr19  1  0.83556359  0.16981587  0.16906305  1
  Fe  Fe20  1  0.66859780  1.00240552  0.33720040  1
  Ni  Ni21  1  0.66932724  0.33696504  1.00165330  1
  Ni  Ni22  1  0.83684759  0.50516575  0.17092339  1
  Ni  Ni23  1  0.66794347  0.33759007  0.33647142  1
  Ni  Ni24  1  0.67122752  0.66922667  1.00242102  1
  Ni  Ni25  1  0.83790950  0.83442292  0.17038991  1
  Ni  Ni26  1  0.67226301  0.66922766  0.33671444  1
  Ni  Ni27  1  0.17076649  0.16885640  0.50204985  1
  Ni  Ni28  1  0.00349135  1.00227937  0.67156405  1
  Ni  Ni29  1  0.17001531  0.16921460  0.83732304  1
  Ni  Ni30  1  0.16806962  0.50501226  0.50240767  1
  Ni  Ni31  1  0.00338363  0.33787398  0.66977901  1
  Ni  Ni32  1  0.16864310  0.50449970  0.83718911  1
  Ni  Ni33  1  0.17009703  0.83607138  0.50305517  1
  Ni  Ni34  1  1.00316853  0.66978590  0.66951602  1
  Ni  Ni35  1  0.16970869  0.83622321  0.83708333  1
  Ni  Ni36  1  0.50298467  0.16783885  0.50139060  1
  Fe  Fe37  1  0.33552248  1.00249409  0.66993475  1
  Ni  Ni38  1  0.50416267  0.16916633  0.83751016  1
  Cr  Cr39  1  0.50351467  0.50358295  0.50198110  1
  Cr  Cr40  1  0.33497354  0.33538327  0.67095407  1
  Fe  Fe41  1  0.50371360  0.50435163  0.83773169  1
  Fe  Fe42  1  0.50214742  0.83846823  0.50281280  1
  Fe  Fe43  1  0.33430523  0.67238610  0.67060444  1
  Fe  Fe44  1  0.50301168  0.83675481  0.83738514  1
  Cr  Cr45  1  0.83645463  0.17031654  0.50357975  1
  Ni  Ni46  1  0.66917674  1.00259913  0.67005544  1
  Fe  Fe47  1  0.83749630  0.17005700  0.83645117  1
  Fe  Fe48  1  0.83893319  0.50429503  0.50310897  1
  Fe  Fe49  1  0.67232316  0.33597395  0.67143453  1
  Ni  Ni50  1  0.83687113  0.50374409  0.83602640  1
  Fe  Fe51  1  0.83764070  0.83567523  0.50332662  1
  Fe  Fe52  1  0.67229373  0.67095482  0.67098975  1
  Ni  Ni53  1  0.83682006  0.83595849  0.83734477  1
" 