6338,Ni58Fe19Cr22_9,-231.781222363256, 182.816565860063,Ni58Fe19Cr22,"# generated using pymatgen
 data_Cr13Fe10Ni31
_symmetry_space_group_name_H-M   'P 1'
_cell_length_a   7.45937147
_cell_length_b   7.45937147
_cell_length_c   10.54914430
_cell_angle_alpha   90.00000000
_cell_angle_beta   90.00000000
_cell_angle_gamma   90.00000000
_symmetry_Int_Tables_number   1
_chemical_formula_structural   Cr13Fe10Ni31
_chemical_formula_sum   'Cr13 Fe10 Ni31'
_cell_volume   586.97783658
_cell_formula_units_Z   1
loop_
 _symmetry_equiv_pos_site_id
 _symmetry_equiv_pos_as_xyz
  1  'x, y, z'
loop_
 _atom_site_type_symbol
 _atom_site_label
 _atom_site_symmetry_multiplicity
 _atom_site_fract_x
 _atom_site_fract_y
 _atom_site_fract_z
 _atom_site_occupancy
  Ni  Ni0  1  0.00148276  0.00122063  0.00189827  1
  Fe  Fe1  1  0.16940685  0.16843322  0.16522036  1
  Fe  Fe2  1  1.00036938  0.99751112  0.33508593  1
  Ni  Ni3  1  0.99887401  0.33346236  0.00077472  1
  Fe  Fe4  1  0.16944421  0.50049571  0.16695556  1
  Cr  Cr5  1  0.00192123  0.33583022  0.33424243  1
  Cr  Cr6  1  0.99941560  0.66624157  0.00113315  1
  Ni  Ni7  1  0.16672115  0.83355096  0.16662055  1
  Ni  Ni8  1  0.00052109  0.66783894  0.33450253  1
  Ni  Ni9  1  0.33453889  1.00014794  0.00203438  1
  Ni  Ni10  1  0.49853026  0.16970827  0.16637204  1
  Cr  Cr11  1  0.33507438  0.00089991  0.33356196  1
  Ni  Ni12  1  0.33597555  0.33364508  0.00191829  1
  Ni  Ni13  1  0.49980705  0.50071059  0.16645277  1
  Ni  Ni14  1  0.33389180  0.33515122  0.33482408  1
  Ni  Ni15  1  0.33628017  0.66788396  0.00221230  1
  Fe  Fe16  1  0.50061069  0.83213529  0.16825244  1
  Ni  Ni17  1  0.33306330  0.66659185  0.33403665  1
  Cr  Cr18  1  0.66541718  0.00083325  0.99860772  1
  Cr  Cr19  1  0.83357468  0.16629361  0.16708164  1
  Ni  Ni20  1  0.66673130  0.99827660  0.33646909  1
  Ni  Ni21  1  0.66684641  0.33528314  0.99940585  1
  Ni  Ni22  1  0.83167463  0.50264016  0.16502295  1
  Cr  Cr23  1  0.66600565  0.33356241  0.33549291  1
  Fe  Fe24  1  0.66533168  0.66498947  0.00064497  1
  Fe  Fe25  1  0.83299182  0.83234977  0.16913411  1
  Ni  Ni26  1  0.66776974  0.66866302  0.33327104  1
  Ni  Ni27  1  0.16624651  0.16717309  0.50124437  1
  Ni  Ni28  1  0.99758071  0.00098155  0.66516383  1
  Cr  Cr29  1  0.16593749  0.16705674  0.83599445  1
  Fe  Fe30  1  0.16674376  0.50064229  0.50047366  1
  Ni  Ni31  1  0.99944619  0.33381335  0.66606317  1
  Cr  Cr32  1  0.16895319  0.49972899  0.83285795  1
  Ni  Ni33  1  0.16406115  0.83319524  0.50033933  1
  Ni  Ni34  1  0.99918790  0.66657875  0.66502863  1
  Cr  Cr35  1  0.16502060  0.83474568  0.83359868  1
  Ni  Ni36  1  0.50030535  0.16806264  0.50054403  1
  Cr  Cr37  1  0.33701690  0.00111272  0.66641096  1
  Ni  Ni38  1  0.50220921  0.16992321  0.83475866  1
  Ni  Ni39  1  0.49896382  0.50059719  0.49812349  1
  Fe  Fe40  1  0.33397021  0.33317713  0.66550009  1
  Ni  Ni41  1  0.50119680  0.49914570  0.83735525  1
  Ni  Ni42  1  0.50195969  0.83284686  0.49875590  1
  Cr  Cr43  1  0.33352566  0.66727477  0.66476450  1
  Fe  Fe44  1  0.50190474  0.83455422  0.83478854  1
  Ni  Ni45  1  0.83502962  0.16420203  0.50181444  1
  Ni  Ni46  1  0.66865673  0.00130322  0.66655254  1
  Ni  Ni47  1  0.83340532  0.16566998  0.83362198  1
  Ni  Ni48  1  0.83445926  0.50271202  0.50121645  1
  Cr  Cr49  1  0.66812393  0.33151733  0.66672798  1
  Fe  Fe50  1  0.83347183  0.49852718  0.83443706  1
  Ni  Ni51  1  0.83552739  0.83443852  0.49878793  1
  Cr  Cr52  1  0.66846296  0.66881543  0.66845063  1
  Ni  Ni53  1  0.83414626  0.83563854  0.83318144  1
" 