1690,Ni58Fe33Cr8_13,-238.543673219264, 216.180778683301,Ni58Fe33Cr8,"# generated using pymatgen
 data_Cr5Fe18Ni31
_symmetry_space_group_name_H-M   'P 1'
_cell_length_a   7.42159534
_cell_length_b   7.42159534
_cell_length_c   10.49572079
_cell_angle_alpha   90.00000000
_cell_angle_beta   90.00000000
_cell_angle_gamma   90.00000000
_symmetry_Int_Tables_number   1
_chemical_formula_structural   Cr5Fe18Ni31
_chemical_formula_sum   'Cr5 Fe18 Ni31'
_cell_volume   578.10511412
_cell_formula_units_Z   1
loop_
 _symmetry_equiv_pos_site_id
 _symmetry_equiv_pos_as_xyz
  1  'x, y, z'
loop_
 _atom_site_type_symbol
 _atom_site_label
 _atom_site_symmetry_multiplicity
 _atom_site_fract_x
 _atom_site_fract_y
 _atom_site_fract_z
 _atom_site_occupancy
  Fe  Fe0  1  0.00381127  0.00380839  1.00139758  1
  Ni  Ni1  1  0.16907663  0.17144926  0.16916993  1
  Fe  Fe2  1  0.00427137  0.00326680  0.33815888  1
  Fe  Fe3  1  0.00455239  0.33702043  1.00219227  1
  Ni  Ni4  1  0.17085337  0.49989735  0.16989545  1
  Ni  Ni5  1  0.00404396  0.33925510  0.33654265  1
  Cr  Cr6  1  1.00285836  0.67004666  0.00337061  1
  Fe  Fe7  1  0.16871019  0.83753747  0.17063737  1
  Ni  Ni8  1  1.00198893  0.66990962  0.33594742  1
  Fe  Fe9  1  0.33592902  0.00345669  1.00177404  1
  Fe  Fe10  1  0.50127999  0.17001319  0.17078266  1
  Ni  Ni11  1  0.33597228  0.00478173  0.33648257  1
  Ni  Ni12  1  0.33651568  0.33287405  1.00303720  1
  Cr  Cr13  1  0.50153850  0.50326946  0.17097575  1
  Ni  Ni14  1  0.33572739  0.33233523  0.33765133  1
  Ni  Ni15  1  0.33449852  0.67058797  1.00229134  1
  Cr  Cr16  1  0.50578579  0.83516234  0.16916121  1
  Fe  Fe17  1  0.33449213  0.66805001  0.33829248  1
  Fe  Fe18  1  0.66941902  1.00257285  1.00044535  1
  Cr  Cr19  1  0.83808839  0.16823446  0.17118325  1
  Fe  Fe20  1  0.66977727  0.00341481  0.33972048  1
  Ni  Ni21  1  0.66945527  0.33496043  1.00196335  1
  Fe  Fe22  1  0.83671688  0.50367725  0.17159051  1
  Ni  Ni23  1  0.66929178  0.33677858  0.33891365  1
  Ni  Ni24  1  0.67236228  0.66945580  1.00157485  1
  Ni  Ni25  1  0.83563849  0.83777008  0.17060661  1
  Ni  Ni26  1  0.67381278  0.66961833  0.33817339  1
  Ni  Ni27  1  0.16797395  0.17097295  0.50303122  1
  Ni  Ni28  1  0.00360764  1.00232346  0.66927190  1
  Ni  Ni29  1  0.16751267  0.17059845  0.83684893  1
  Ni  Ni30  1  0.17013767  0.50116608  0.50328130  1
  Ni  Ni31  1  1.00305026  0.33764264  0.67051895  1
  Ni  Ni32  1  0.17076421  0.50069667  0.83619157  1
  Fe  Fe33  1  0.16961962  0.83674708  0.50410781  1
  Ni  Ni34  1  1.00261548  0.66936810  0.67002628  1
  Ni  Ni35  1  0.16987709  0.83785135  0.83604454  1
  Ni  Ni36  1  0.50260451  0.16945533  0.50228983  1
  Ni  Ni37  1  0.33749422  0.00363825  0.67085230  1
  Fe  Fe38  1  0.50136923  0.16751026  0.83575860  1
  Ni  Ni39  1  0.50199532  0.50413218  0.50300230  1
  Fe  Fe40  1  0.33367618  0.33370449  0.66824443  1
  Cr  Cr41  1  0.50143631  0.50514006  0.83467999  1
  Ni  Ni42  1  0.50418939  0.83540057  0.50341993  1
  Fe  Fe43  1  0.33366476  0.67246464  0.66971146  1
  Ni  Ni44  1  0.50456429  0.83599349  0.83704908  1
  Ni  Ni45  1  0.83858198  0.16895353  0.50368559  1
  Ni  Ni46  1  0.66790661  0.00319053  0.66941919  1
  Fe  Fe47  1  0.83718541  0.16908267  0.83499915  1
  Ni  Ni48  1  0.83704623  0.50295068  0.50249682  1
  Fe  Fe49  1  0.67151708  0.33414986  0.66733616  1
  Fe  Fe50  1  0.83788611  0.50363227  0.83472266  1
  Ni  Ni51  1  0.83557919  0.83758263  0.50270346  1
  Fe  Fe52  1  0.67217862  0.67275994  0.66815532  1
  Ni  Ni53  1  0.83485482  0.83904429  0.83557584  1
" 