6499,Ni58Fe16Cr24_0,-230.969553804609, 181.889174522106,Ni58Fe16Cr24,"# generated using pymatgen
 data_Cr14Fe9Ni31
_symmetry_space_group_name_H-M   'P 1'
_cell_length_a   7.45547242
_cell_length_b   7.45547242
_cell_length_c   10.54363021
_cell_angle_alpha   90.00000000
_cell_angle_beta   90.00000000
_cell_angle_gamma   90.00000000
_symmetry_Int_Tables_number   1
_chemical_formula_structural   Cr14Fe9Ni31
_chemical_formula_sum   'Cr14 Fe9 Ni31'
_cell_volume   586.05786992
_cell_formula_units_Z   1
loop_
 _symmetry_equiv_pos_site_id
 _symmetry_equiv_pos_as_xyz
  1  'x, y, z'
loop_
 _atom_site_type_symbol
 _atom_site_label
 _atom_site_symmetry_multiplicity
 _atom_site_fract_x
 _atom_site_fract_y
 _atom_site_fract_z
 _atom_site_occupancy
  Ni  Ni0  1  1.00024158  0.00133822  0.99890329  1
  Cr  Cr1  1  0.16724833  0.16783941  0.16686674  1
  Cr  Cr2  1  1.00039778  0.00081388  0.33409842  1
  Ni  Ni3  1  0.99945222  0.33289294  1.00051510  1
  Ni  Ni4  1  0.16798723  0.50196144  0.16651582  1
  Ni  Ni5  1  1.00055813  0.33588656  0.33440372  1
  Fe  Fe6  1  0.00205580  0.66805242  1.00027910  1
  Ni  Ni7  1  0.17055517  0.83208318  0.16568202  1
  Ni  Ni8  1  0.99943455  0.66579689  0.33445261  1
  Ni  Ni9  1  0.33485737  0.99897191  1.00011368  1
  Ni  Ni10  1  0.50183784  0.16528268  0.16641926  1
  Ni  Ni11  1  0.33748151  1.00008431  0.33474825  1
  Ni  Ni12  1  0.33497168  0.33458386  0.00182148  1
  Fe  Fe13  1  0.49951478  0.50139589  0.16493986  1
  Cr  Cr14  1  0.33286008  0.33258852  0.33306101  1
  Ni  Ni15  1  0.33380541  0.66877133  0.00347049  1
  Ni  Ni16  1  0.49948978  0.83532498  0.16735749  1
  Cr  Cr17  1  0.33419277  0.66962323  0.33078339  1
  Ni  Ni18  1  0.66723032  0.00250631  0.00093480  1
  Ni  Ni19  1  0.83203742  0.16785501  0.16559250  1
  Ni  Ni20  1  0.66446806  0.99896039  0.33391090  1
  Ni  Ni21  1  0.66790608  0.33183984  0.00082801  1
  Cr  Cr22  1  0.83535644  0.49953681  0.16729881  1
  Cr  Cr23  1  0.66870752  0.33285955  0.33327208  1
  Fe  Fe24  1  0.66644674  0.66831506  0.99978987  1
  Cr  Cr25  1  0.83273490  0.83569139  0.16819305  1
  Ni  Ni26  1  0.66827307  0.67034346  0.33597874  1
  Ni  Ni27  1  0.16883821  0.16763352  0.50224832  1
  Ni  Ni28  1  0.00253901  0.00115781  0.66910409  1
  Ni  Ni29  1  0.16685005  0.16580871  0.83347601  1
  Cr  Cr30  1  0.16436002  0.49852613  0.50195274  1
  Ni  Ni31  1  0.99995962  0.33352243  0.66740841  1
  Cr  Cr32  1  0.16671586  0.49974143  0.83371224  1
  Cr  Cr33  1  0.16743679  0.83607111  0.50191130  1
  Ni  Ni34  1  0.99926826  0.66764801  0.66771596  1
  Fe  Fe35  1  0.16610363  0.83571489  0.83442313  1
  Fe  Fe36  1  0.49916784  0.16477525  0.50054224  1
  Fe  Fe37  1  0.33263584  0.00118606  0.66754013  1
  Fe  Fe38  1  0.50126823  0.16738841  0.83604610  1
  Cr  Cr39  1  0.50336632  0.50258814  0.50295470  1
  Fe  Fe40  1  0.33326532  0.33196639  0.66762008  1
  Cr  Cr41  1  0.50224824  0.50104320  0.83433755  1
  Ni  Ni42  1  0.50285688  0.83508330  0.50029369  1
  Ni  Ni43  1  0.33474953  0.66931009  0.66779981  1
  Fe  Fe44  1  0.50070786  0.83463611  0.83493425  1
  Cr  Cr45  1  0.83588348  0.16802433  0.49999258  1
  Cr  Cr46  1  0.66779611  1.00031025  0.66754171  1
  Ni  Ni47  1  0.83565914  0.16738790  0.83585527  1
  Ni  Ni48  1  0.83421788  0.50319553  0.50208494  1
  Ni  Ni49  1  0.66863359  0.33545541  0.66820708  1
  Ni  Ni50  1  0.83334613  0.50082740  0.83283579  1
  Ni  Ni51  1  0.83129816  0.83087405  0.50016772  1
  Ni  Ni52  1  0.66830921  0.66673025  0.66666194  1
  Ni  Ni53  1  0.83433579  0.83411400  0.83432129  1
" 