8523,Ni58Fe19Cr22_11,-231.943832941135, 182.833093286416,Ni58Fe19Cr22,"# generated using pymatgen
 data_Cr13Fe10Ni31
_symmetry_space_group_name_H-M   'P 1'
_cell_length_a   7.45588999
_cell_length_b   7.45588999
_cell_length_c   10.54422074
_cell_angle_alpha   90.00000000
_cell_angle_beta   90.00000000
_cell_angle_gamma   90.00000000
_symmetry_Int_Tables_number   1
_chemical_formula_structural   Cr13Fe10Ni31
_chemical_formula_sum   'Cr13 Fe10 Ni31'
_cell_volume   586.15634753
_cell_formula_units_Z   1
loop_
 _symmetry_equiv_pos_site_id
 _symmetry_equiv_pos_as_xyz
  1  'x, y, z'
loop_
 _atom_site_type_symbol
 _atom_site_label
 _atom_site_symmetry_multiplicity
 _atom_site_fract_x
 _atom_site_fract_y
 _atom_site_fract_z
 _atom_site_occupancy
  Ni  Ni0  1  0.00156812  0.99911151  0.00152331  1
  Ni  Ni1  1  0.16772066  0.16902620  0.16716823  1
  Fe  Fe2  1  0.00099025  0.99944985  0.33418236  1
  Fe  Fe3  1  0.00135262  0.33284534  0.00208502  1
  Ni  Ni4  1  0.16829065  0.49915437  0.16798984  1
  Ni  Ni5  1  0.00252039  0.33610704  0.33165976  1
  Fe  Fe6  1  0.00104984  0.66670743  0.00253146  1
  Cr  Cr7  1  0.16859798  0.83489674  0.16765263  1
  Ni  Ni8  1  0.00083421  0.66718993  0.33339229  1
  Ni  Ni9  1  0.33350767  0.99975345  1.00004643  1
  Cr  Cr10  1  0.49794781  0.16588166  0.16695188  1
  Ni  Ni11  1  0.33565078  0.99975148  0.33371120  1
  Ni  Ni12  1  0.33624950  0.33439343  0.00241368  1
  Ni  Ni13  1  0.49943871  0.50327245  0.16744377  1
  Ni  Ni14  1  0.33253868  0.33504581  0.33337759  1
  Fe  Fe15  1  0.33627335  0.66749209  0.00138041  1
  Ni  Ni16  1  0.50235824  0.83231232  0.16718463  1
  Ni  Ni17  1  0.33434905  0.66746155  0.33408724  1
  Fe  Fe18  1  0.66566135  0.00163504  1.00073983  1
  Cr  Cr19  1  0.83570773  0.16526523  0.16836202  1
  Ni  Ni20  1  0.66628555  0.99734010  0.33496270  1
  Ni  Ni21  1  0.66709833  0.33669464  0.99863024  1
  Ni  Ni22  1  0.83453617  0.50299404  0.16516116  1
  Cr  Cr23  1  0.66556358  0.33455513  0.33607168  1
  Fe  Fe24  1  0.66488300  0.66770121  0.00206197  1
  Ni  Ni25  1  0.83230576  0.83263499  0.16783682  1
  Ni  Ni26  1  0.66711651  0.66977826  0.33219827  1
  Cr  Cr27  1  0.16832306  0.16884690  0.49889066  1
  Ni  Ni28  1  0.00091061  0.99909862  0.66609645  1
  Cr  Cr29  1  0.16763497  0.16686066  0.83470803  1
  Ni  Ni30  1  0.17125618  0.50162897  0.49931072  1
  Cr  Cr31  1  0.99906311  0.33336262  0.66788730  1
  Cr  Cr32  1  0.17008091  0.50083907  0.83458045  1
  Fe  Fe33  1  0.16956624  0.83381766  0.49942166  1
  Cr  Cr34  1  0.00356814  0.67040587  0.66691694  1
  Fe  Fe35  1  0.16987658  0.83509897  0.83493203  1
  Ni  Ni36  1  0.49966509  0.16453336  0.50241980  1
  Ni  Ni37  1  0.33533484  0.99836558  0.66861123  1
  Fe  Fe38  1  0.50089721  0.16675038  0.83495084  1
  Ni  Ni39  1  0.49515142  0.50293934  0.50004860  1
  Ni  Ni40  1  0.33654607  0.33453196  0.66652531  1
  Ni  Ni41  1  0.49891258  0.50227551  0.83465861  1
  Ni  Ni42  1  0.50122351  0.83453235  0.49999802  1
  Ni  Ni43  1  0.33442248  0.66946275  0.66731629  1
  Ni  Ni44  1  0.49997937  0.83357616  0.83495969  1
  Ni  Ni45  1  0.83419656  0.16191107  0.50067657  1
  Ni  Ni46  1  0.66636664  0.00105030  0.66782033  1
  Ni  Ni47  1  0.83380448  0.16541613  0.83484945  1
  Cr  Cr48  1  0.83523538  0.50279043  0.49912579  1
  Cr  Cr49  1  0.66524887  0.33205551  0.66764236  1
  Fe  Fe50  1  0.83212906  0.50042401  0.83721014  1
  Ni  Ni51  1  0.83275755  0.83760750  0.49868914  1
  Cr  Cr52  1  0.66511487  0.66798061  0.66625099  1
  Cr  Cr53  1  0.83274280  0.83579149  0.83510125  1
" 