1635,Ni58Fe19Cr22_5,-231.761831289905, 183.063440111372,Ni58Fe19Cr22,"# generated using pymatgen
 data_Cr13Fe10Ni31
_symmetry_space_group_name_H-M   'P 1'
_cell_length_a   7.44954489
_cell_length_b   7.44954489
_cell_length_c   10.53524742
_cell_angle_alpha   90.00000000
_cell_angle_beta   90.00000000
_cell_angle_gamma   90.00000000
_symmetry_Int_Tables_number   1
_chemical_formula_structural   Cr13Fe10Ni31
_chemical_formula_sum   'Cr13 Fe10 Ni31'
_cell_volume   584.66113214
_cell_formula_units_Z   1
loop_
 _symmetry_equiv_pos_site_id
 _symmetry_equiv_pos_as_xyz
  1  'x, y, z'
loop_
 _atom_site_type_symbol
 _atom_site_label
 _atom_site_symmetry_multiplicity
 _atom_site_fract_x
 _atom_site_fract_y
 _atom_site_fract_z
 _atom_site_occupancy
  Ni  Ni0  1  1.00085153  0.00301691  0.00213265  1
  Ni  Ni1  1  0.16969726  0.16608216  0.16536229  1
  Cr  Cr2  1  0.00475567  0.00155262  0.33209791  1
  Ni  Ni3  1  0.99679387  0.33169971  1.00100511  1
  Cr  Cr4  1  0.16864501  0.49709581  0.16407395  1
  Cr  Cr5  1  0.99624314  0.33244552  0.33476011  1
  Ni  Ni6  1  0.99945450  0.66844531  0.00325883  1
  Ni  Ni7  1  0.16890830  0.83675614  0.16522092  1
  Cr  Cr8  1  1.00033019  0.66837306  0.33191477  1
  Ni  Ni9  1  0.33419809  0.00337742  0.00162237  1
  Ni  Ni10  1  0.50055450  0.16941450  0.16934914  1
  Ni  Ni11  1  0.33665105  0.00317748  0.33660931  1
  Fe  Fe12  1  0.33705239  0.33122624  0.99998274  1
  Ni  Ni13  1  0.50326091  0.49851132  0.16623651  1
  Fe  Fe14  1  0.33452756  0.33050789  0.33441317  1
  Ni  Ni15  1  0.33598020  0.66799446  1.00092754  1
  Cr  Cr16  1  0.50426615  0.83675876  0.16615586  1
  Cr  Cr17  1  0.33501392  0.67103696  0.33409711  1
  Ni  Ni18  1  0.66889127  0.00491206  0.00176996  1
  Ni  Ni19  1  0.83248347  0.16791281  0.16699031  1
  Fe  Fe20  1  0.66730589  0.00360953  0.33379894  1
  Ni  Ni21  1  0.66774730  0.33350082  1.00035760  1
  Ni  Ni22  1  0.83126514  0.50047851  0.16731334  1
  Ni  Ni23  1  0.66513834  0.33413061  0.33441329  1
  Ni  Ni24  1  0.66954768  0.66443713  0.00179201  1
  Ni  Ni25  1  0.83457250  0.83523109  0.16472208  1
  Fe  Fe26  1  0.66822597  0.66713042  0.33325180  1
  Ni  Ni27  1  0.16961441  0.16560284  0.50375936  1
  Ni  Ni28  1  0.00121105  0.00458577  0.66795795  1
  Ni  Ni29  1  0.16740940  0.16905537  0.83472353  1
  Cr  Cr30  1  0.16635586  0.49546932  0.50335783  1
  Ni  Ni31  1  0.99971992  0.33100262  0.66724214  1
  Cr  Cr32  1  0.16687529  0.49703694  0.83584883  1
  Fe  Fe33  1  0.16968660  0.83621954  0.50259041  1
  Cr  Cr34  1  0.99896052  0.66883442  0.66781270  1
  Cr  Cr35  1  0.16667613  0.83779830  0.83519465  1
  Fe  Fe36  1  0.50254376  0.16770604  0.50180500  1
  Fe  Fe37  1  0.33574105  0.00441121  0.66754664  1
  Ni  Ni38  1  0.50204758  0.16813248  0.83387707  1
  Cr  Cr39  1  0.50288879  0.50174223  0.50193047  1
  Ni  Ni40  1  0.33670429  0.33162091  0.66905463  1
  Fe  Fe41  1  0.50367602  0.49899533  0.83525961  1
  Ni  Ni42  1  0.50095297  0.83774363  0.50293580  1
  Fe  Fe43  1  0.33673673  0.66771477  0.66863145  1
  Cr  Cr44  1  0.50544949  0.83621725  0.83521206  1
  Fe  Fe45  1  0.83272479  0.16995708  0.50293186  1
  Ni  Ni46  1  0.66783388  0.00309583  0.66761069  1
  Ni  Ni47  1  0.83445676  0.16742849  0.83288057  1
  Ni  Ni48  1  0.83196609  0.50008585  0.50191605  1
  Ni  Ni49  1  0.66809099  0.33436802  0.66883083  1
  Ni  Ni50  1  0.83351913  0.50010498  0.83428318  1
  Cr  Cr51  1  0.82960294  0.83655540  0.50122554  1
  Ni  Ni52  1  0.66665170  0.66729005  0.66874201  1
  Ni  Ni53  1  0.83297861  0.83584662  0.83664603  1
" 