2803,Ni58Fe23Cr18_6,-233.603518841902, 191.41185453085,Ni58Fe23Cr18,"# generated using pymatgen
 data_Cr11Fe12Ni31
_symmetry_space_group_name_H-M   'P 1'
_cell_length_a   7.44447710
_cell_length_b   7.44447710
_cell_length_c   10.52808048
_cell_angle_alpha   90.00000000
_cell_angle_beta   90.00000000
_cell_angle_gamma   90.00000000
_symmetry_Int_Tables_number   1
_chemical_formula_structural   Cr11Fe12Ni31
_chemical_formula_sum   'Cr11 Fe12 Ni31'
_cell_volume   583.46873954
_cell_formula_units_Z   1
loop_
 _symmetry_equiv_pos_site_id
 _symmetry_equiv_pos_as_xyz
  1  'x, y, z'
loop_
 _atom_site_type_symbol
 _atom_site_label
 _atom_site_symmetry_multiplicity
 _atom_site_fract_x
 _atom_site_fract_y
 _atom_site_fract_z
 _atom_site_occupancy
  Ni  Ni0  1  0.99878097  0.99891462  0.00182901  1
  Fe  Fe1  1  0.16813906  0.16753605  0.16858639  1
  Ni  Ni2  1  0.00276434  0.99836937  0.33619080  1
  Fe  Fe3  1  0.00312325  0.33501875  0.00317142  1
  Ni  Ni4  1  0.16757077  0.50252977  0.16577490  1
  Fe  Fe5  1  0.00153078  0.33536796  0.33625798  1
  Ni  Ni6  1  0.00201111  0.67010632  0.00394586  1
  Fe  Fe7  1  0.16659974  0.83376184  0.16957518  1
  Ni  Ni8  1  1.00038156  0.66938952  0.33470608  1
  Cr  Cr9  1  0.33639236  1.00121042  0.00325245  1
  Ni  Ni10  1  0.50106692  0.16628611  0.16804150  1
  Ni  Ni11  1  0.33414762  1.00068398  0.33505845  1
  Ni  Ni12  1  0.33601079  0.33666581  0.00263189  1
  Fe  Fe13  1  0.50175290  0.50221329  0.16884091  1
  Cr  Cr14  1  0.33671088  0.33331882  0.33540162  1
  Ni  Ni15  1  0.33404548  0.66579144  0.00422113  1
  Ni  Ni16  1  0.50148546  0.83576756  0.17036318  1
  Fe  Fe17  1  0.33363323  0.66977887  0.33508386  1
  Ni  Ni18  1  0.66975023  1.00120522  1.00064131  1
  Cr  Cr19  1  0.83463862  0.16668991  0.16889485  1
  Fe  Fe20  1  0.66763499  1.00097106  0.33549268  1
  Cr  Cr21  1  0.66547824  0.33356110  1.00041476  1
  Ni  Ni22  1  0.83835398  0.50303029  0.17059800  1
  Ni  Ni23  1  0.66816761  0.33638992  0.33580129  1
  Cr  Cr24  1  0.66851899  0.67031607  0.00165086  1
  Ni  Ni25  1  0.83473542  0.83438636  0.16738341  1
  Fe  Fe26  1  0.66888243  0.66905785  0.33433235  1
  Ni  Ni27  1  0.16832753  0.16663042  0.50132675  1
  Ni  Ni28  1  0.99965390  0.99838103  0.66664619  1
  Cr  Cr29  1  0.16738614  0.16886182  0.83452681  1
  Ni  Ni30  1  0.16956295  0.50350058  0.50291267  1
  Cr  Cr31  1  0.00174945  0.33421342  0.66385746  1
  Cr  Cr32  1  0.17161444  0.50243881  0.83509039  1
  Ni  Ni33  1  0.16741138  0.83442427  0.50155827  1
  Ni  Ni34  1  1.00103974  0.67178236  0.66592619  1
  Cr  Cr35  1  0.16763475  0.83320277  0.83394593  1
  Ni  Ni36  1  0.50186310  0.16755387  0.50241654  1
  Ni  Ni37  1  0.33633233  1.00129159  0.66586835  1
  Fe  Fe38  1  0.50244604  0.16652316  0.83389408  1
  Ni  Ni39  1  0.50026919  0.50257453  0.50136202  1
  Ni  Ni40  1  0.33781377  0.33533206  0.66704970  1
  Ni  Ni41  1  0.49804160  0.50318618  0.83514683  1
  Fe  Fe42  1  0.50030778  0.83616138  0.50194841  1
  Ni  Ni43  1  0.33562159  0.66800304  0.66627254  1
  Ni  Ni44  1  0.50374923  0.83430917  0.83255541  1
  Ni  Ni45  1  0.83442463  0.16529472  0.49958468  1
  Ni  Ni46  1  0.66858397  1.00064819  0.66893706  1
  Ni  Ni47  1  0.83380480  0.16281239  0.83626041  1
  Fe  Fe48  1  0.83535369  0.50276604  0.49890302  1
  Cr  Cr49  1  0.66557813  0.33392284  0.66815273  1
  Cr  Cr50  1  0.83601089  0.50340668  0.83448624  1
  Ni  Ni51  1  0.83539820  0.83596756  0.50239559  1
  Fe  Fe52  1  0.66667308  0.67145199  0.66789065  1
  Ni  Ni53  1  0.83289982  0.83890072  0.83480280  1
" 