6168,Ni58Fe16Cr24_12,-230.485821276866, 178.83116778195,Ni58Fe16Cr24,"# generated using pymatgen
 data_Cr14Fe9Ni31
_symmetry_space_group_name_H-M   'P 1'
_cell_length_a   7.45436397
_cell_length_b   7.45436397
_cell_length_c   10.54206263
_cell_angle_alpha   90.00000000
_cell_angle_beta   90.00000000
_cell_angle_gamma   90.00000000
_symmetry_Int_Tables_number   1
_chemical_formula_structural   Cr14Fe9Ni31
_chemical_formula_sum   'Cr14 Fe9 Ni31'
_cell_volume   585.79651041
_cell_formula_units_Z   1
loop_
 _symmetry_equiv_pos_site_id
 _symmetry_equiv_pos_as_xyz
  1  'x, y, z'
loop_
 _atom_site_type_symbol
 _atom_site_label
 _atom_site_symmetry_multiplicity
 _atom_site_fract_x
 _atom_site_fract_y
 _atom_site_fract_z
 _atom_site_occupancy
  Cr  Cr0  1  0.99968439  0.00163595  0.99965786  1
  Cr  Cr1  1  0.16858798  0.17002214  0.16676939  1
  Cr  Cr2  1  0.99927457  0.00213024  0.33655357  1
  Ni  Ni3  1  0.99968482  0.33687627  1.00059255  1
  Ni  Ni4  1  0.16647170  0.50146670  0.16588020  1
  Ni  Ni5  1  0.99875373  0.33582408  0.33475542  1
  Fe  Fe6  1  0.00271552  0.66408451  1.00061628  1
  Ni  Ni7  1  0.17005751  0.83164815  0.16571491  1
  Cr  Cr8  1  0.00119440  0.66505568  0.33323165  1
  Ni  Ni9  1  0.33674929  1.00051743  0.00221038  1
  Ni  Ni10  1  0.50296883  0.16634309  0.16704497  1
  Cr  Cr11  1  0.33620569  1.00074276  0.33385194  1
  Ni  Ni12  1  0.33420275  0.33506138  0.99892275  1
  Cr  Cr13  1  0.50032850  0.49866726  0.16797921  1
  Ni  Ni14  1  0.33473874  0.33496504  0.33599221  1
  Ni  Ni15  1  0.33181827  0.66697304  0.00186687  1
  Fe  Fe16  1  0.49991125  0.83676016  0.16677527  1
  Cr  Cr17  1  0.33363124  0.66709865  0.33394624  1
  Ni  Ni18  1  0.66592738  0.00382520  0.00122746  1
  Ni  Ni19  1  0.83056301  0.16992876  0.16807579  1
  Ni  Ni20  1  0.66697481  0.00243612  0.33412208  1
  Ni  Ni21  1  0.66866415  0.33194618  0.99994563  1
  Ni  Ni22  1  0.83604607  0.49803926  0.16783810  1
  Ni  Ni23  1  0.66906286  0.33287868  0.33437523  1
  Cr  Cr24  1  0.66792640  0.66661039  0.99970299  1
  Cr  Cr25  1  0.83283423  0.83466478  0.16747073  1
  Fe  Fe26  1  0.66799711  0.66695577  0.33597969  1
  Ni  Ni27  1  0.16837614  0.16886597  0.50216478  1
  Ni  Ni28  1  0.00172003  0.99815440  0.66625946  1
  Fe  Fe29  1  0.16899959  0.16951244  0.83365486  1
  Ni  Ni30  1  0.16848115  0.49896822  0.50084555  1
  Cr  Cr31  1  0.00162681  0.33441914  0.66776230  1
  Ni  Ni32  1  0.16853003  0.50000908  0.83582581  1
  Fe  Fe33  1  0.16630662  0.83451708  0.50382525  1
  Ni  Ni34  1  1.00026888  0.66911544  0.66757912  1
  Cr  Cr35  1  0.16656208  0.83362666  0.83285027  1
  Fe  Fe36  1  0.50033455  0.16827136  0.49991449  1
  Ni  Ni37  1  0.33250702  0.00150647  0.66592388  1
  Ni  Ni38  1  0.49983518  0.16932208  0.83595698  1
  Fe  Fe39  1  0.50105399  0.50022144  0.50090094  1
  Ni  Ni40  1  0.33430000  0.33464839  0.66763784  1
  Ni  Ni41  1  0.49897187  0.49834256  0.83320401  1
  Ni  Ni42  1  0.50214697  0.83369875  0.50067722  1
  Fe  Fe43  1  0.33334444  0.66613480  0.66655525  1
  Cr  Cr44  1  0.50104986  0.83482291  0.83543349  1
  Ni  Ni45  1  0.83503252  0.16677658  0.49812403  1
  Cr  Cr46  1  0.66883557  1.00058776  0.66796440  1
  Ni  Ni47  1  0.83332299  0.16737767  0.83635543  1
  Ni  Ni48  1  0.83401329  0.50197080  0.49936744  1
  Cr  Cr49  1  0.66609201  0.33561546  0.66889456  1
  Ni  Ni50  1  0.83505087  0.50114501  0.83534620  1
  Ni  Ni51  1  0.83232237  0.83380567  0.50236294  1
  Fe  Fe52  1  0.66889106  0.66731843  0.66697425  1
  Ni  Ni53  1  0.83498953  0.83402842  0.83248052  1
" 