8418,Ni58Fe33Cr8_6,-238.657647595149, 213.151135886911,Ni58Fe33Cr8,"# generated using pymatgen
 data_Cr5Fe18Ni31
_symmetry_space_group_name_H-M   'P 1'
_cell_length_a   7.42279710
_cell_length_b   7.42279710
_cell_length_c   10.49742033
_cell_angle_alpha   90.00000000
_cell_angle_beta   90.00000000
_cell_angle_gamma   90.00000000
_symmetry_Int_Tables_number   1
_chemical_formula_structural   Cr5Fe18Ni31
_chemical_formula_sum   'Cr5 Fe18 Ni31'
_cell_volume   578.38599178
_cell_formula_units_Z   1
loop_
 _symmetry_equiv_pos_site_id
 _symmetry_equiv_pos_as_xyz
  1  'x, y, z'
loop_
 _atom_site_type_symbol
 _atom_site_label
 _atom_site_symmetry_multiplicity
 _atom_site_fract_x
 _atom_site_fract_y
 _atom_site_fract_z
 _atom_site_occupancy
  Ni  Ni0  1  1.00045342  1.00200167  0.00377728  1
  Fe  Fe1  1  0.17010569  0.17019036  0.16927114  1
  Fe  Fe2  1  0.00541049  1.00164280  0.33578709  1
  Fe  Fe3  1  1.00212386  0.33595506  0.00448622  1
  Ni  Ni4  1  0.16724468  0.50297751  0.16875175  1
  Ni  Ni5  1  0.00442277  0.33698380  0.33508415  1
  Ni  Ni6  1  1.00257179  0.67051384  0.00351488  1
  Fe  Fe7  1  0.16970764  0.83520991  0.16988656  1
  Ni  Ni8  1  0.00370014  0.66799049  0.33599676  1
  Fe  Fe9  1  0.33717437  1.00126220  0.00311532  1
  Ni  Ni10  1  0.50153394  0.16834261  0.16765994  1
  Ni  Ni11  1  0.33634187  0.00464923  0.33510132  1
  Ni  Ni12  1  0.33587097  0.33586214  1.00205995  1
  Cr  Cr13  1  0.50265545  0.50192071  0.17047563  1
  Ni  Ni14  1  0.33350340  0.33472343  0.33816031  1
  Fe  Fe15  1  0.33584034  0.67099947  1.00200995  1
  Ni  Ni16  1  0.50158137  0.83914261  0.16863743  1
  Ni  Ni17  1  0.33341484  0.66973288  0.33690472  1
  Ni  Ni18  1  0.66977189  1.00213811  1.00193921  1
  Fe  Fe19  1  0.83625210  0.17031397  0.16780902  1
  Cr  Cr20  1  0.66948611  1.00248724  0.33616682  1
  Fe  Fe21  1  0.66992967  0.33477150  1.00278136  1
  Ni  Ni22  1  0.83953874  0.50302479  0.16977282  1
  Fe  Fe23  1  0.66970666  0.33560211  0.33734706  1
  Ni  Ni24  1  0.67041948  0.67305736  0.00341930  1
  Ni  Ni25  1  0.83855107  0.83558347  0.16740077  1
  Cr  Cr26  1  0.67162195  0.67105995  0.33715482  1
  Fe  Fe27  1  0.16926298  0.16978382  0.50330972  1
  Fe  Fe28  1  0.00388795  1.00077274  0.66982373  1
  Cr  Cr29  1  0.16980304  0.16808181  0.83524988  1
  Ni  Ni30  1  0.16824165  0.50406141  0.50399733  1
  Ni  Ni31  1  0.00378617  0.33674570  0.66930322  1
  Fe  Fe32  1  0.17235545  0.50414780  0.83588513  1
  Ni  Ni33  1  0.16924970  0.83598961  0.50176966  1
  Ni  Ni34  1  1.00271560  0.66933383  0.66951791  1
  Ni  Ni35  1  0.16960866  0.83516229  0.83664077  1
  Ni  Ni36  1  0.50164537  0.17050741  0.50399474  1
  Ni  Ni37  1  0.33841840  0.00327544  0.66928896  1
  Ni  Ni38  1  0.50422501  0.16955603  0.83703331  1
  Fe  Fe39  1  0.50141130  0.50344187  0.50447652  1
  Ni  Ni40  1  0.33602545  0.33612638  0.66882059  1
  Ni  Ni41  1  0.50266347  0.50302811  0.83585813  1
  Fe  Fe42  1  0.50052597  0.83572080  0.50450773  1
  Ni  Ni43  1  0.33631619  0.66954544  0.67053409  1
  Ni  Ni44  1  0.50167376  0.83656656  0.83594704  1
  Fe  Fe45  1  0.83860243  0.17070093  0.50451142  1
  Fe  Fe46  1  0.66889139  0.00318838  0.67012336  1
  Ni  Ni47  1  0.83481694  0.16877664  0.83575606  1
  Ni  Ni48  1  0.83812373  0.50270399  0.50246349  1
  Fe  Fe49  1  0.66814168  0.33686026  0.66900375  1
  Cr  Cr50  1  0.83650886  0.50331125  0.83701421  1
  Ni  Ni51  1  0.83991337  0.83515791  0.50589090  1
  Ni  Ni52  1  0.66976729  0.67201580  0.66900385  1
  Fe  Fe53  1  0.83544219  0.83825726  0.83676164  1
" 