7754,Ni58Fe23Cr18_1,-233.412470938691, 191.18129150076,Ni58Fe23Cr18,"# generated using pymatgen
 data_Cr11Fe12Ni31
_symmetry_space_group_name_H-M   'P 1'
_cell_length_a   7.44693868
_cell_length_b   7.44693868
_cell_length_c   10.53156168
_cell_angle_alpha   90.00000000
_cell_angle_beta   90.00000000
_cell_angle_gamma   90.00000000
_symmetry_Int_Tables_number   1
_chemical_formula_structural   Cr11Fe12Ni31
_chemical_formula_sum   'Cr11 Fe12 Ni31'
_cell_volume   584.04771741
_cell_formula_units_Z   1
loop_
 _symmetry_equiv_pos_site_id
 _symmetry_equiv_pos_as_xyz
  1  'x, y, z'
loop_
 _atom_site_type_symbol
 _atom_site_label
 _atom_site_symmetry_multiplicity
 _atom_site_fract_x
 _atom_site_fract_y
 _atom_site_fract_z
 _atom_site_occupancy
  Fe  Fe0  1  0.00139920  0.00179666  0.00165972  1
  Ni  Ni1  1  0.16774858  0.16953544  0.16794607  1
  Ni  Ni2  1  1.00096446  1.00010036  0.33480537  1
  Ni  Ni3  1  0.00261533  0.33378948  0.00184444  1
  Ni  Ni4  1  0.16713625  0.50025083  0.16600561  1
  Ni  Ni5  1  0.99953489  0.33431446  0.33434151  1
  Fe  Fe6  1  0.00220694  0.66841844  0.00366122  1
  Ni  Ni7  1  0.16733207  0.83426435  0.16840060  1
  Fe  Fe8  1  0.99787096  0.66879152  0.33395974  1
  Cr  Cr9  1  0.33371714  0.00156451  0.00271060  1
  Fe  Fe10  1  0.50108337  0.16716427  0.16829152  1
  Fe  Fe11  1  0.33593157  1.00103823  0.33362296  1
  Ni  Ni12  1  0.33410610  0.33602198  0.00185538  1
  Fe  Fe13  1  0.50213766  0.50228369  0.16604021  1
  Cr  Cr14  1  0.33563132  0.33375928  0.33220233  1
  Ni  Ni15  1  0.33427808  0.66675928  0.00197626  1
  Ni  Ni16  1  0.50351524  0.83414920  0.16830554  1
  Cr  Cr17  1  0.33546309  0.67006080  0.33449386  1
  Ni  Ni18  1  0.66937660  1.00128521  0.00215855  1
  Cr  Cr19  1  0.83490944  0.16767064  0.16856808  1
  Ni  Ni20  1  0.66850732  0.99992862  0.33532150  1
  Ni  Ni21  1  0.66732848  0.33471055  1.00067834  1
  Fe  Fe22  1  0.83532979  0.50307800  0.16838094  1
  Ni  Ni23  1  0.66949973  0.33492410  0.33617079  1
  Ni  Ni24  1  0.66714088  0.66805536  0.00340707  1
  Ni  Ni25  1  0.83320080  0.83353828  0.16747784  1
  Ni  Ni26  1  0.66943738  0.66919884  0.33528431  1
  Cr  Cr27  1  0.16742421  0.16769344  0.50142446  1
  Fe  Fe28  1  1.00100915  0.00301658  0.66826531  1
  Ni  Ni29  1  0.16634168  0.16822003  0.83428461  1
  Cr  Cr30  1  0.16716996  0.50027606  0.50264582  1
  Ni  Ni31  1  1.00053796  0.33137917  0.66786267  1
  Cr  Cr32  1  0.17120600  0.49958164  0.83515309  1
  Fe  Fe33  1  0.16855874  0.83543203  0.50147323  1
  Cr  Cr34  1  0.00190149  0.66925892  0.66615885  1
  Ni  Ni35  1  0.16871919  0.83685089  0.83425125  1
  Ni  Ni36  1  0.50340803  0.16684547  0.50184813  1
  Fe  Fe37  1  0.33531943  0.00163326  0.66811494  1
  Fe  Fe38  1  0.50225307  0.17058118  0.83359698  1
  Ni  Ni39  1  0.50496792  0.50201000  0.50359608  1
  Ni  Ni40  1  0.33635112  0.33455229  0.66968195  1
  Ni  Ni41  1  0.50072086  0.50026174  0.83436914  1
  Ni  Ni42  1  0.50392130  0.83519625  0.50214516  1
  Ni  Ni43  1  0.33646489  0.66874045  0.66788516  1
  Cr  Cr44  1  0.50170294  0.83235231  0.83355129  1
  Fe  Fe45  1  0.83190549  0.16844961  0.50141196  1
  Ni  Ni46  1  0.66822165  0.00275911  0.66656890  1
  Ni  Ni47  1  0.83567407  0.16800248  0.83375768  1
  Ni  Ni48  1  0.83210531  0.50124760  0.49986808  1
  Ni  Ni49  1  0.66715907  0.33331003  0.66720095  1
  Cr  Cr50  1  0.83185112  0.49894386  0.83576331  1
  Ni  Ni51  1  0.83196155  0.83476654  0.50027070  1
  Ni  Ni52  1  0.66504620  0.66798198  0.66536078  1
  Cr  Cr53  1  0.83360290  0.83711264  0.83682708  1
" 