6225,Ni58Fe19Cr22_7,-231.45011975582, 180.809889981,Ni58Fe19Cr22,"# generated using pymatgen
 data_Cr13Fe10Ni31
_symmetry_space_group_name_H-M   'P 1'
_cell_length_a   7.45591555
_cell_length_b   7.45591555
_cell_length_c   10.54425689
_cell_angle_alpha   90.00000000
_cell_angle_beta   90.00000000
_cell_angle_gamma   90.00000000
_symmetry_Int_Tables_number   1
_chemical_formula_structural   Cr13Fe10Ni31
_chemical_formula_sum   'Cr13 Fe10 Ni31'
_cell_volume   586.16237496
_cell_formula_units_Z   1
loop_
 _symmetry_equiv_pos_site_id
 _symmetry_equiv_pos_as_xyz
  1  'x, y, z'
loop_
 _atom_site_type_symbol
 _atom_site_label
 _atom_site_symmetry_multiplicity
 _atom_site_fract_x
 _atom_site_fract_y
 _atom_site_fract_z
 _atom_site_occupancy
  Ni  Ni0  1  0.00384625  0.00144956  0.00106547  1
  Ni  Ni1  1  0.16609570  0.16677985  0.16516344  1
  Ni  Ni2  1  0.99926049  0.99945355  0.33328376  1
  Ni  Ni3  1  1.00057941  0.33396179  1.00055125  1
  Ni  Ni4  1  0.16846038  0.50166280  0.16575180  1
  Cr  Cr5  1  0.99932450  0.33268938  0.33317747  1
  Ni  Ni6  1  0.00343949  0.66682833  1.00006159  1
  Ni  Ni7  1  0.16750748  0.83379732  0.16659316  1
  Cr  Cr8  1  1.00021965  0.66901164  0.33378038  1
  Ni  Ni9  1  0.33108389  0.99948731  0.00130836  1
  Ni  Ni10  1  0.50143580  0.16738782  0.16650505  1
  Cr  Cr11  1  0.33443917  0.99934315  0.33314819  1
  Fe  Fe12  1  0.33236714  0.33476328  0.00224264  1
  Ni  Ni13  1  0.49967811  0.50166150  0.16711927  1
  Cr  Cr14  1  0.33583337  0.33481787  0.33240670  1
  Ni  Ni15  1  0.33209835  0.66818559  0.00144804  1
  Ni  Ni16  1  0.50002310  0.83319112  0.16936071  1
  Fe  Fe17  1  0.33660326  0.66826118  0.33235356  1
  Cr  Cr18  1  0.66732741  0.00201088  0.00117309  1
  Ni  Ni19  1  0.83470693  0.16643239  0.16781748  1
  Ni  Ni20  1  0.66824127  0.99894048  0.33489233  1
  Ni  Ni21  1  0.66866777  0.33497510  0.00206480  1
  Fe  Fe22  1  0.83402919  0.50012481  0.16574331  1
  Cr  Cr23  1  0.66707999  0.33438563  0.33340148  1
  Cr  Cr24  1  0.66704207  0.66547426  0.99990783  1
  Fe  Fe25  1  0.83493255  0.83552095  0.16862780  1
  Ni  Ni26  1  0.66597143  0.66870885  0.33475091  1
  Cr  Cr27  1  0.16778497  0.16686812  0.50224914  1
  Cr  Cr28  1  0.00154494  0.00168914  0.66850298  1
  Ni  Ni29  1  0.16657403  0.16828448  0.83480808  1
  Cr  Cr30  1  0.16758052  0.50073522  0.50104303  1
  Ni  Ni31  1  0.99818518  0.33375017  0.66856467  1
  Ni  Ni32  1  0.16606796  0.49966396  0.83533422  1
  Fe  Fe33  1  0.16793387  0.83479658  0.50007278  1
  Cr  Cr34  1  0.99863264  0.66641579  0.66902346  1
  Ni  Ni35  1  0.16803803  0.83429198  0.83604876  1
  Ni  Ni36  1  0.50254365  0.16665042  0.50262260  1
  Ni  Ni37  1  0.33526409  0.00077132  0.66738478  1
  Cr  Cr38  1  0.50001689  0.16710159  0.83375641  1
  Ni  Ni39  1  0.50348357  0.50126637  0.50151845  1
  Fe  Fe40  1  0.33482779  0.33335260  0.66750310  1
  Fe  Fe41  1  0.50137353  0.50137531  0.83397582  1
  Fe  Fe42  1  0.50313076  0.83357699  0.50078962  1
  Cr  Cr43  1  0.33607451  0.66935393  0.66768128  1
  Ni  Ni44  1  0.50022407  0.83369879  0.83237456  1
  Fe  Fe45  1  0.83151110  0.16747627  0.50123826  1
  Fe  Fe46  1  0.66691023  1.00003673  0.66667317  1
  Ni  Ni47  1  0.83572079  0.16910324  0.83297939  1
  Ni  Ni48  1  0.83089277  0.50226626  0.50216466  1
  Ni  Ni49  1  0.66852254  0.33556642  0.66595358  1
  Ni  Ni50  1  0.83512903  0.49994389  0.83358511  1
  Ni  Ni51  1  0.83128642  0.83406233  0.49927828  1
  Ni  Ni52  1  0.66678432  0.66571517  0.66717455  1
  Ni  Ni53  1  0.83398005  0.83319291  0.83431178  1
" 