7374,Ni58Fe33Cr8_17,-238.743030490357, 211.476795637861,Ni58Fe33Cr8,"# generated using pymatgen
 data_Cr5Fe18Ni31
_symmetry_space_group_name_H-M   'P 1'
_cell_length_a   7.42514131
_cell_length_b   7.42514131
_cell_length_c   10.50073555
_cell_angle_alpha   90.00000000
_cell_angle_beta   90.00000000
_cell_angle_gamma   90.00000000
_symmetry_Int_Tables_number   1
_chemical_formula_structural   Cr5Fe18Ni31
_chemical_formula_sum   'Cr5 Fe18 Ni31'
_cell_volume   578.93414955
_cell_formula_units_Z   1
loop_
 _symmetry_equiv_pos_site_id
 _symmetry_equiv_pos_as_xyz
  1  'x, y, z'
loop_
 _atom_site_type_symbol
 _atom_site_label
 _atom_site_symmetry_multiplicity
 _atom_site_fract_x
 _atom_site_fract_y
 _atom_site_fract_z
 _atom_site_occupancy
  Fe  Fe0  1  0.00455077  0.00442388  1.00245360  1
  Ni  Ni1  1  0.16730395  0.16949665  0.16937325  1
  Ni  Ni2  1  1.00249164  0.00329551  0.33672826  1
  Ni  Ni3  1  1.00051233  0.33654614  0.00328935  1
  Ni  Ni4  1  0.16750260  0.50248618  0.17080211  1
  Fe  Fe5  1  0.00282272  0.33616913  0.33538911  1
  Fe  Fe6  1  0.00367712  0.66830324  1.00198591  1
  Ni  Ni7  1  0.17034529  0.83648139  0.17072093  1
  Ni  Ni8  1  0.00415562  0.66902703  0.33588295  1
  Ni  Ni9  1  0.33713620  1.00239411  0.00317830  1
  Fe  Fe10  1  0.50271948  0.16675390  0.17040069  1
  Fe  Fe11  1  0.33670477  1.00233958  0.33577189  1
  Cr  Cr12  1  0.33405200  0.33318915  1.00234413  1
  Cr  Cr13  1  0.50287915  0.50381697  0.17141045  1
  Ni  Ni14  1  0.33608971  0.33642302  0.33657549  1
  Cr  Cr15  1  0.33421633  0.67293816  0.00331852  1
  Ni  Ni16  1  0.50215271  0.83713849  0.16983288  1
  Ni  Ni17  1  0.33507451  0.66909962  0.33632918  1
  Fe  Fe18  1  0.66807014  0.00430709  1.00175223  1
  Ni  Ni19  1  0.83704943  0.17060319  0.16974001  1
  Ni  Ni20  1  0.66951931  0.00431034  0.33652404  1
  Fe  Fe21  1  0.67263184  0.33372327  0.00289927  1
  Fe  Fe22  1  0.83844397  0.50145163  0.16952983  1
  Ni  Ni23  1  0.66959388  0.33476169  0.33598996  1
  Fe  Fe24  1  0.67095129  0.67043788  1.00256640  1
  Cr  Cr25  1  0.83589451  0.83751324  0.16924538  1
  Ni  Ni26  1  0.66923826  0.66939079  0.33789164  1
  Ni  Ni27  1  0.16833473  0.17061951  0.50345775  1
  Ni  Ni28  1  1.00202038  1.00270131  0.67040923  1
  Fe  Fe29  1  0.16948991  0.16800714  0.83562499  1
  Ni  Ni30  1  0.17078060  0.50255068  0.50257628  1
  Fe  Fe31  1  0.00353950  0.33552889  0.67006320  1
  Ni  Ni32  1  0.16688744  0.50374634  0.83508508  1
  Fe  Fe33  1  0.16951130  0.83639218  0.50321865  1
  Ni  Ni34  1  0.00372253  0.66917005  0.67063954  1
  Ni  Ni35  1  0.16870506  0.83583373  0.83555886  1
  Ni  Ni36  1  0.50366620  0.17002038  0.50236831  1
  Ni  Ni37  1  0.33705277  1.00267157  0.67016387  1
  Ni  Ni38  1  0.50493068  0.16710828  0.83609607  1
  Ni  Ni39  1  0.50163420  0.50356093  0.50309314  1
  Fe  Fe40  1  0.33490712  0.33510500  0.66797433  1
  Cr  Cr41  1  0.50222595  0.50329831  0.83378258  1
  Ni  Ni42  1  0.50436414  0.83488401  0.50267395  1
  Ni  Ni43  1  0.33480058  0.66975004  0.66916880  1
  Ni  Ni44  1  0.50323662  0.83810855  0.83596103  1
  Ni  Ni45  1  0.83646403  0.16789104  0.50235169  1
  Ni  Ni46  1  0.66939458  0.00379458  0.67009075  1
  Ni  Ni47  1  0.83602976  0.16892274  0.83637402  1
  Fe  Fe48  1  0.83552650  0.50290729  0.50239290  1
  Fe  Fe49  1  0.67001896  0.33419158  0.66832035  1
  Fe  Fe50  1  0.83797896  0.50283791  0.83654640  1
  Ni  Ni51  1  0.83545417  0.83732972  0.50330795  1
  Fe  Fe52  1  0.66972052  0.67215091  0.66802739  1
  Fe  Fe53  1  0.83620691  0.83647970  0.83513072  1
" 