680,Ni58Fe16Cr24_6,-230.860434299863, 178.003448540606,Ni58Fe16Cr24,"# generated using pymatgen
 data_Cr14Fe9Ni31
_symmetry_space_group_name_H-M   'P 1'
_cell_length_a   7.46233290
_cell_length_b   7.46233290
_cell_length_c   10.55333239
_cell_angle_alpha   90.00000000
_cell_angle_beta   90.00000000
_cell_angle_gamma   90.00000000
_symmetry_Int_Tables_number   1
_chemical_formula_structural   Cr14Fe9Ni31
_chemical_formula_sum   'Cr14 Fe9 Ni31'
_cell_volume   587.67721896
_cell_formula_units_Z   1
loop_
 _symmetry_equiv_pos_site_id
 _symmetry_equiv_pos_as_xyz
  1  'x, y, z'
loop_
 _atom_site_type_symbol
 _atom_site_label
 _atom_site_symmetry_multiplicity
 _atom_site_fract_x
 _atom_site_fract_y
 _atom_site_fract_z
 _atom_site_occupancy
  Ni  Ni0  1  0.99995569  0.00423325  0.00324080  1
  Fe  Fe1  1  0.16501013  0.17066474  0.16655876  1
  Fe  Fe2  1  0.99837507  0.00040293  0.33215035  1
  Ni  Ni3  1  0.00116240  0.33122636  0.99732087  1
  Ni  Ni4  1  0.16820107  0.49934014  0.16898587  1
  Ni  Ni5  1  0.00141539  0.33459398  0.33500807  1
  Cr  Cr6  1  0.99987411  0.66507902  1.00018848  1
  Ni  Ni7  1  0.16401621  0.83353445  0.16865430  1
  Ni  Ni8  1  0.00143835  0.66551780  0.33384022  1
  Cr  Cr9  1  0.33416415  0.00369794  0.99990644  1
  Ni  Ni10  1  0.50226859  0.17006763  0.16735393  1
  Cr  Cr11  1  0.33397797  0.00214475  0.33126584  1
  Ni  Ni12  1  0.33426714  0.33263267  0.00147919  1
  Ni  Ni13  1  0.49883908  0.49611041  0.16724190  1
  Fe  Fe14  1  0.33432415  0.33616263  0.33305808  1
  Cr  Cr15  1  0.33591724  0.66428511  0.00064183  1
  Fe  Fe16  1  0.50166099  0.83181035  0.16655303  1
  Ni  Ni17  1  0.33169236  0.66505613  0.33280755  1
  Fe  Fe18  1  0.66715608  0.00267030  0.00120804  1
  Fe  Fe19  1  0.83379858  0.16855088  0.16652046  1
  Ni  Ni20  1  0.66800162  0.00169804  0.33087064  1
  Ni  Ni21  1  0.66534441  0.33348610  0.99917039  1
  Cr  Cr22  1  0.83370324  0.49843339  0.16521013  1
  Ni  Ni23  1  0.66740848  0.33300336  0.33327386  1
  Ni  Ni24  1  0.66568403  0.66575490  1.00012157  1
  Ni  Ni25  1  0.83511361  0.83676330  0.16767668  1
  Cr  Cr26  1  0.66722047  0.66556140  0.33400388  1
  Ni  Ni27  1  0.16736601  0.16984666  0.49953054  1
  Cr  Cr28  1  0.00033829  0.00393244  0.66656263  1
  Ni  Ni29  1  0.16753052  0.17048421  0.83424050  1
  Fe  Fe30  1  0.16772343  0.49772281  0.49909462  1
  Fe  Fe31  1  0.99939576  0.33285337  0.66796136  1
  Ni  Ni32  1  0.16853266  0.49502687  0.83263504  1
  Cr  Cr33  1  0.16713971  0.83365240  0.50042350  1
  Cr  Cr34  1  0.99741842  0.66166600  0.66630232  1
  Cr  Cr35  1  0.16928901  0.83418429  0.83248621  1
  Cr  Cr36  1  0.49975354  0.16986996  0.50148348  1
  Ni  Ni37  1  0.33471964  0.00441254  0.66932399  1
  Ni  Ni38  1  0.50097484  0.16895504  0.83232931  1
  Ni  Ni39  1  0.50005641  0.49874639  0.50001067  1
  Ni  Ni40  1  0.33319731  0.33302429  0.66702710  1
  Ni  Ni41  1  0.50119123  0.49824360  0.83358940  1
  Cr  Cr42  1  0.50117815  0.83348973  0.50320266  1
  Fe  Fe43  1  0.33726683  0.66366390  0.66811158  1
  Ni  Ni44  1  0.50219672  0.83362737  0.83222611  1
  Cr  Cr45  1  0.83210158  0.16767100  0.49899709  1
  Ni  Ni46  1  0.66540518  0.00091666  0.66913561  1
  Ni  Ni47  1  0.83222624  0.16969515  0.83542801  1
  Ni  Ni48  1  0.83297543  0.49940086  0.50028777  1
  Ni  Ni49  1  0.66596797  0.33610181  0.66822374  1
  Ni  Ni50  1  0.83147543  0.49643934  0.83384718  1
  Ni  Ni51  1  0.83368837  0.83258064  0.49861947  1
  Ni  Ni52  1  0.66679486  0.66392405  0.66685082  1
  Cr  Cr53  1  0.83116448  0.83444526  0.83481676  1
" 