1114,Ni58Fe33Cr8_8,-238.356082920115, 214.971490351868,Ni58Fe33Cr8,"# generated using pymatgen
 data_Cr5Fe18Ni31
_symmetry_space_group_name_H-M   'P 1'
_cell_length_a   7.41875652
_cell_length_b   7.41875652
_cell_length_c   10.49170608
_cell_angle_alpha   90.00000000
_cell_angle_beta   90.00000000
_cell_angle_gamma   90.00000000
_symmetry_Int_Tables_number   1
_chemical_formula_structural   Cr5Fe18Ni31
_chemical_formula_sum   'Cr5 Fe18 Ni31'
_cell_volume   577.44197617
_cell_formula_units_Z   1
loop_
 _symmetry_equiv_pos_site_id
 _symmetry_equiv_pos_as_xyz
  1  'x, y, z'
loop_
 _atom_site_type_symbol
 _atom_site_label
 _atom_site_symmetry_multiplicity
 _atom_site_fract_x
 _atom_site_fract_y
 _atom_site_fract_z
 _atom_site_occupancy
  Ni  Ni0  1  1.00212426  1.00223804  1.00301733  1
  Cr  Cr1  1  0.16883945  0.16854013  0.16886605  1
  Fe  Fe2  1  1.00254160  0.00359948  0.33735647  1
  Ni  Ni3  1  1.00230368  0.33624042  1.00215142  1
  Cr  Cr4  1  0.16995900  0.50422899  0.16816203  1
  Fe  Fe5  1  1.00023432  0.33493165  0.33860361  1
  Ni  Ni6  1  1.00284572  0.67128831  1.00225896  1
  Ni  Ni7  1  0.17135745  0.83710251  0.16864363  1
  Cr  Cr8  1  1.00311634  0.67129200  0.33761840  1
  Fe  Fe9  1  0.33657896  1.00147642  0.00328671  1
  Fe  Fe10  1  0.50557968  0.16817707  0.16922408  1
  Ni  Ni11  1  0.33787740  1.00085854  0.33686170  1
  Ni  Ni12  1  0.33747965  0.33752272  1.00264436  1
  Fe  Fe13  1  0.50510474  0.50493938  0.16918475  1
  Cr  Cr14  1  0.33850180  0.33683897  0.33869288  1
  Ni  Ni15  1  0.33702668  0.67008862  1.00265898  1
  Ni  Ni16  1  0.50382402  0.83631093  0.17001866  1
  Ni  Ni17  1  0.33770603  0.67248814  0.33811962  1
  Ni  Ni18  1  0.67117720  1.00269177  0.00390030  1
  Fe  Fe19  1  0.83489417  0.16883743  0.16958276  1
  Ni  Ni20  1  0.66964897  0.00393722  0.33709732  1
  Ni  Ni21  1  0.66997983  0.33680139  0.00435364  1
  Fe  Fe22  1  0.83453470  0.50344165  0.16899910  1
  Ni  Ni23  1  0.67094039  0.33566710  0.33660398  1
  Ni  Ni24  1  0.66989069  0.67027055  0.00466015  1
  Ni  Ni25  1  0.83458054  0.83743426  0.16863287  1
  Fe  Fe26  1  0.66741144  0.67051816  0.33704716  1
  Fe  Fe27  1  0.16907323  0.16909258  0.50492408  1
  Ni  Ni28  1  0.00353598  1.00304802  0.66911623  1
  Ni  Ni29  1  0.16763651  0.17110787  0.83679919  1
  Ni  Ni30  1  0.17019323  0.50287612  0.50495552  1
  Ni  Ni31  1  0.00403027  0.33656410  0.66911332  1
  Fe  Fe32  1  0.16994141  0.50225857  0.83667546  1
  Ni  Ni33  1  0.17153898  0.83685855  0.50324708  1
  Ni  Ni34  1  1.00209591  0.67015307  0.67006070  1
  Fe  Fe35  1  0.16966716  0.83773505  0.83663054  1
  Fe  Fe36  1  0.50414612  0.16912517  0.50366806  1
  Ni  Ni37  1  0.33569603  0.00366323  0.66876222  1
  Cr  Cr38  1  0.50345570  0.16918266  0.83698551  1
  Ni  Ni39  1  0.50338573  0.50447076  0.50389938  1
  Ni  Ni40  1  0.33567563  0.33641742  0.66864257  1
  Fe  Fe41  1  0.50324164  0.50407574  0.83671064  1
  Ni  Ni42  1  0.50281523  0.83604216  0.50277699  1
  Fe  Fe43  1  0.33599650  0.67011248  0.66921382  1
  Ni  Ni44  1  0.50342613  0.83476859  0.83696960  1
  Ni  Ni45  1  0.83700476  0.17059592  0.50279716  1
  Fe  Fe46  1  0.67124965  1.00231233  0.66908542  1
  Ni  Ni47  1  0.83897992  0.17058905  0.83760988  1
  Ni  Ni48  1  0.83618124  0.50132980  0.50350581  1
  Fe  Fe49  1  0.67149482  0.33731711  0.66867746  1
  Fe  Fe50  1  0.83658032  0.50287648  0.83644674  1
  Ni  Ni51  1  0.83540696  0.83783766  0.50444116  1
  Ni  Ni52  1  0.67067907  0.67017582  0.66894050  1
  Fe  Fe53  1  0.83656495  0.83740358  0.83684980  1
" 