5651,Ni58Fe19Cr22_8,-231.979653206937, 185.711542940317,Ni58Fe19Cr22,"# generated using pymatgen
 data_Cr13Fe10Ni31
_symmetry_space_group_name_H-M   'P 1'
_cell_length_a   7.45177375
_cell_length_b   7.45177375
_cell_length_c   10.53839950
_cell_angle_alpha   90.00000000
_cell_angle_beta   90.00000000
_cell_angle_gamma   90.00000000
_symmetry_Int_Tables_number   1
_chemical_formula_structural   Cr13Fe10Ni31
_chemical_formula_sum   'Cr13 Fe10 Ni31'
_cell_volume   585.18606906
_cell_formula_units_Z   1
loop_
 _symmetry_equiv_pos_site_id
 _symmetry_equiv_pos_as_xyz
  1  'x, y, z'
loop_
 _atom_site_type_symbol
 _atom_site_label
 _atom_site_symmetry_multiplicity
 _atom_site_fract_x
 _atom_site_fract_y
 _atom_site_fract_z
 _atom_site_occupancy
  Ni  Ni0  1  0.00495171  1.00077174  0.00129433  1
  Ni  Ni1  1  0.17053387  0.16690046  0.16895505  1
  Ni  Ni2  1  0.00396026  1.00055504  0.33387126  1
  Cr  Cr3  1  0.00206883  0.33195821  0.99845729  1
  Ni  Ni4  1  0.16884289  0.49988577  0.16775507  1
  Ni  Ni5  1  0.00209272  0.33431167  0.33699996  1
  Cr  Cr6  1  0.00369154  0.66991202  0.00233487  1
  Ni  Ni7  1  0.16742474  0.83605897  0.16718748  1
  Ni  Ni8  1  0.00304109  0.66793636  0.33381621  1
  Ni  Ni9  1  0.33221155  0.00165988  1.00042511  1
  Ni  Ni10  1  0.49672237  0.16774325  0.16770209  1
  Ni  Ni11  1  0.33391303  0.00169913  0.33542467  1
  Ni  Ni12  1  0.33515435  0.33280043  0.00228743  1
  Cr  Cr13  1  0.49911455  0.49875889  0.16613158  1
  Fe  Fe14  1  0.33026684  0.33205457  0.33519780  1
  Ni  Ni15  1  0.33401316  0.66810938  0.99852083  1
  Cr  Cr16  1  0.50070139  0.83572085  0.16685194  1
  Cr  Cr17  1  0.33223539  0.66894034  0.33597817  1
  Cr  Cr18  1  0.66742416  0.00355640  1.00095842  1
  Cr  Cr19  1  0.83524878  0.16641328  0.16721862  1
  Fe  Fe20  1  0.66723848  0.00102943  0.33571873  1
  Ni  Ni21  1  0.66470390  0.33456320  0.99793538  1
  Cr  Cr22  1  0.83473010  0.50276242  0.16818344  1
  Cr  Cr23  1  0.66568388  0.33269121  0.33662360  1
  Ni  Ni24  1  0.66612838  0.66654749  1.00018530  1
  Ni  Ni25  1  0.83622565  0.83428059  0.16973007  1
  Fe  Fe26  1  0.66860543  0.66946678  0.33585504  1
  Fe  Fe27  1  0.16658826  0.16656069  0.50114032  1
  Ni  Ni28  1  0.00266430  0.00322069  0.66788379  1
  Ni  Ni29  1  0.17006200  0.16667728  0.83281038  1
  Ni  Ni30  1  0.16737754  0.49948295  0.50139274  1
  Ni  Ni31  1  0.00264978  0.33275890  0.66711825  1
  Fe  Fe32  1  0.16973768  0.49822117  0.83344246  1
  Ni  Ni33  1  0.16956849  0.83490937  0.50162304  1
  Cr  Cr34  1  0.00278119  0.66631519  0.66758773  1
  Ni  Ni35  1  0.17149503  0.83636059  0.83429042  1
  Ni  Ni36  1  0.49861804  0.16601429  0.50041718  1
  Fe  Fe37  1  0.33460064  0.00225890  0.66762250  1
  Ni  Ni38  1  0.49805811  0.16861700  0.83529221  1
  Fe  Fe39  1  0.50035487  0.50193319  0.50235307  1
  Ni  Ni40  1  0.33393381  0.33398315  0.66570027  1
  Fe  Fe41  1  0.49918500  0.50066651  0.83507339  1
  Ni  Ni42  1  0.49952318  0.83632141  0.50335597  1
  Fe  Fe43  1  0.33473800  0.66781390  0.66741678  1
  Fe  Fe44  1  0.50008875  0.83523546  0.83321928  1
  Ni  Ni45  1  0.83503014  0.16818747  0.50273044  1
  Ni  Ni46  1  0.66560918  0.00180436  0.66676332  1
  Ni  Ni47  1  0.83501590  0.16857138  0.83270981  1
  Ni  Ni48  1  0.83634897  0.50046226  0.50064489  1
  Cr  Cr49  1  0.66784826  0.33323340  0.66848914  1
  Ni  Ni50  1  0.83201562  0.50032181  0.83419824  1
  Cr  Cr51  1  0.83535162  0.83558386  0.49997761  1
  Ni  Ni52  1  0.66452297  0.66753057  0.66661530  1
  Cr  Cr53  1  0.83464542  0.83520825  0.83387350  1
" 