965,Ni58Fe16Cr24_17,-230.760409511377, 182.226245145567,Ni58Fe16Cr24,"# generated using pymatgen
 data_Cr14Fe9Ni31
_symmetry_space_group_name_H-M   'P 1'
_cell_length_a   7.45530919
_cell_length_b   7.45530919
_cell_length_c   10.54339936
_cell_angle_alpha   90.00000000
_cell_angle_beta   90.00000000
_cell_angle_gamma   90.00000000
_symmetry_Int_Tables_number   1
_chemical_formula_structural   Cr14Fe9Ni31
_chemical_formula_sum   'Cr14 Fe9 Ni31'
_cell_volume   586.01937583
_cell_formula_units_Z   1
loop_
 _symmetry_equiv_pos_site_id
 _symmetry_equiv_pos_as_xyz
  1  'x, y, z'
loop_
 _atom_site_type_symbol
 _atom_site_label
 _atom_site_symmetry_multiplicity
 _atom_site_fract_x
 _atom_site_fract_y
 _atom_site_fract_z
 _atom_site_occupancy
  Ni  Ni0  1  0.00220596  1.00032461  0.99866370  1
  Ni  Ni1  1  0.16960158  0.16801233  0.16678563  1
  Cr  Cr2  1  0.00274049  0.00111879  0.33662584  1
  Ni  Ni3  1  0.00221085  0.33346591  0.99985384  1
  Cr  Cr4  1  0.16754277  0.49831587  0.16758730  1
  Ni  Ni5  1  0.00175133  0.33503398  0.33585125  1
  Fe  Fe6  1  0.00086382  0.66775340  0.99931559  1
  Ni  Ni7  1  0.17035878  0.83577986  0.16596478  1
  Cr  Cr8  1  0.00234014  0.66656572  0.33562414  1
  Fe  Fe9  1  0.33202150  0.00252832  1.00063883  1
  Fe  Fe10  1  0.49743798  0.16703655  0.16796308  1
  Ni  Ni11  1  0.33443887  0.00145571  0.33327080  1
  Ni  Ni12  1  0.33333430  0.33442720  0.99935542  1
  Fe  Fe13  1  0.49983926  0.50132598  0.16675465  1
  Ni  Ni14  1  0.33333046  0.33297884  0.33483453  1
  Ni  Ni15  1  0.33295359  0.66665552  1.00005492  1
  Cr  Cr16  1  0.50016236  0.83411934  0.16833750  1
  Ni  Ni17  1  0.33311435  0.66792662  0.33436237  1
  Ni  Ni18  1  0.66872831  1.00070560  0.99893307  1
  Cr  Cr19  1  0.83615007  0.16843465  0.16734152  1
  Ni  Ni20  1  0.66523829  0.00165867  0.33624342  1
  Cr  Cr21  1  0.66658216  0.33429462  1.00000589  1
  Ni  Ni22  1  0.83335687  0.50098656  0.16661291  1
  Cr  Cr23  1  0.66787899  0.33331856  0.33312098  1
  Ni  Ni24  1  0.66776774  0.66666100  1.00021658  1
  Cr  Cr25  1  0.83254533  0.83298535  0.16575816  1
  Fe  Fe26  1  0.66753278  0.66721705  0.33435159  1
  Ni  Ni27  1  0.16822236  0.16936970  0.50115013  1
  Fe  Fe28  1  1.00058406  0.00161661  0.66815402  1
  Ni  Ni29  1  0.16686731  0.16904627  0.83442533  1
  Ni  Ni30  1  0.16576197  0.49705675  0.49936041  1
  Ni  Ni31  1  0.00150781  0.33304913  0.66665574  1
  Ni  Ni32  1  0.16820144  0.49807494  0.83553304  1
  Ni  Ni33  1  0.16724336  0.83593632  0.49988259  1
  Cr  Cr34  1  1.00075302  0.66756599  0.66768911  1
  Ni  Ni35  1  0.16572172  0.83524259  0.83651431  1
  Ni  Ni36  1  0.49871100  0.16508717  0.50010448  1
  Ni  Ni37  1  0.33313410  0.00325225  0.66738261  1
  Ni  Ni38  1  0.49971269  0.16777331  0.83447714  1
  Cr  Cr39  1  0.49941075  0.50107910  0.49976353  1
  Fe  Fe40  1  0.33240525  0.33143548  0.66845014  1
  Ni  Ni41  1  0.49949212  0.50045987  0.83548809  1
  Cr  Cr42  1  0.50280803  0.83625187  0.50015811  1
  Cr  Cr43  1  0.33226671  0.66769000  0.66784626  1
  Cr  Cr44  1  0.50316557  0.83426753  0.83386339  1
  Fe  Fe45  1  0.83544146  0.16685053  0.50170100  1
  Ni  Ni46  1  0.66822350  0.00156410  0.66718735  1
  Ni  Ni47  1  0.83577870  0.16529256  0.83379702  1
  Ni  Ni48  1  0.83636350  0.50138485  0.50032531  1
  Cr  Cr49  1  0.66815735  0.33282676  0.66923420  1
  Fe  Fe50  1  0.83510199  0.50106697  0.83473255  1
  Ni  Ni51  1  0.83208087  0.83441528  0.50123946  1
  Ni  Ni52  1  0.66997021  0.66830754  0.66766901  1
  Ni  Ni53  1  0.83339587  0.83546155  0.83529901  1
" 