6015,Ni58Fe19Cr22_1,-231.856165146458, 183.953684368922,Ni58Fe19Cr22,"# generated using pymatgen
 data_Cr13Fe10Ni31
_symmetry_space_group_name_H-M   'P 1'
_cell_length_a   7.45552297
_cell_length_b   7.45552297
_cell_length_c   10.54370169
_cell_angle_alpha   90.00000000
_cell_angle_beta   90.00000000
_cell_angle_gamma   90.00000000
_symmetry_Int_Tables_number   1
_chemical_formula_structural   Cr13Fe10Ni31
_chemical_formula_sum   'Cr13 Fe10 Ni31'
_cell_volume   586.06978947
_cell_formula_units_Z   1
loop_
 _symmetry_equiv_pos_site_id
 _symmetry_equiv_pos_as_xyz
  1  'x, y, z'
loop_
 _atom_site_type_symbol
 _atom_site_label
 _atom_site_symmetry_multiplicity
 _atom_site_fract_x
 _atom_site_fract_y
 _atom_site_fract_z
 _atom_site_occupancy
  Fe  Fe0  1  0.00246701  0.00241938  0.00080176  1
  Ni  Ni1  1  0.16589624  0.16581420  0.16696769  1
  Ni  Ni2  1  0.99957479  0.00150028  0.33277641  1
  Ni  Ni3  1  0.99966021  0.33214846  1.00044208  1
  Cr  Cr4  1  0.16832786  0.49988966  0.16691507  1
  Fe  Fe5  1  0.99956936  0.33320466  0.33511193  1
  Ni  Ni6  1  0.00206387  0.66898720  0.99977169  1
  Ni  Ni7  1  0.16829753  0.83635420  0.16617942  1
  Fe  Fe8  1  0.99900176  0.66713970  0.33570032  1
  Ni  Ni9  1  0.33350679  0.99899470  1.00025440  1
  Cr  Cr10  1  0.50083264  0.16781587  0.16740654  1
  Fe  Fe11  1  0.33524074  0.00160885  0.33272516  1
  Ni  Ni12  1  0.33497992  0.33393305  1.00019719  1
  Ni  Ni13  1  0.50119753  0.50168521  0.16628392  1
  Ni  Ni14  1  0.33534117  0.33420921  0.33514717  1
  Ni  Ni15  1  0.33476973  0.66939030  0.00096626  1
  Ni  Ni16  1  0.49957906  0.83313008  0.16657608  1
  Cr  Cr17  1  0.33573452  0.66684731  0.33418172  1
  Ni  Ni18  1  0.66727251  0.00139661  0.99981943  1
  Ni  Ni19  1  0.83597256  0.16743237  0.16761841  1
  Fe  Fe20  1  0.66745840  0.00104176  0.33605650  1
  Ni  Ni21  1  0.66767829  0.33341133  0.99903962  1
  Cr  Cr22  1  0.83244532  0.49922924  0.16688634  1
  Ni  Ni23  1  0.66715711  0.33428075  0.33621366  1
  Fe  Fe24  1  0.66456181  0.66683390  0.99989144  1
  Cr  Cr25  1  0.83377401  0.83522974  0.16738942  1
  Ni  Ni26  1  0.66684740  0.66716319  0.33593400  1
  Cr  Cr27  1  0.16724844  0.16911729  0.50121171  1
  Fe  Fe28  1  0.99871636  0.00284177  0.66839233  1
  Ni  Ni29  1  0.16596230  0.16540198  0.83477655  1
  Ni  Ni30  1  0.16552189  0.49934352  0.49960734  1
  Ni  Ni31  1  0.99976626  0.33201153  0.66634947  1
  Cr  Cr32  1  0.16699065  0.49998814  0.83569142  1
  Cr  Cr33  1  0.16686770  0.83394744  0.50083255  1
  Cr  Cr34  1  1.00032803  0.66728796  0.66588688  1
  Ni  Ni35  1  0.16772943  0.83654793  0.83581583  1
  Ni  Ni36  1  0.50294468  0.16632902  0.49993200  1
  Fe  Fe37  1  0.33607831  0.00097940  0.66975067  1
  Ni  Ni38  1  0.50162376  0.16580539  0.83506350  1
  Ni  Ni39  1  0.50189455  0.50022637  0.49827911  1
  Cr  Cr40  1  0.33417854  0.33343798  0.66722836  1
  Ni  Ni41  1  0.50221624  0.50117234  0.83776146  1
  Ni  Ni42  1  0.50395794  0.83576417  0.50042561  1
  Cr  Cr43  1  0.33518896  0.66830497  0.66682519  1
  Ni  Ni44  1  0.50065809  0.83534088  0.83531673  1
  Ni  Ni45  1  0.83279437  0.16725545  0.50002442  1
  Ni  Ni46  1  0.66783341  0.00097818  0.66586017  1
  Ni  Ni47  1  0.83473235  0.16695816  0.83467347  1
  Ni  Ni48  1  0.83489911  0.50035760  0.49899632  1
  Cr  Cr49  1  0.66852194  0.33181352  0.66728071  1
  Fe  Fe50  1  0.83365074  0.49910927  0.83620217  1
  Ni  Ni51  1  0.83191061  0.83470547  0.49974458  1
  Cr  Cr52  1  0.66680009  0.66921452  0.66742045  1
  Fe  Fe53  1  0.83351333  0.83640477  0.83513362  1
" 