2616,Ni58Fe33Cr8_9,-238.291748031242, 207.582384485267,Ni58Fe33Cr8,"# generated using pymatgen
 data_Cr5Fe18Ni31
_symmetry_space_group_name_H-M   'P 1'
_cell_length_a   7.42253202
_cell_length_b   7.42253202
_cell_length_c   10.49704545
_cell_angle_alpha   90.00000000
_cell_angle_beta   90.00000000
_cell_angle_gamma   90.00000000
_symmetry_Int_Tables_number   1
_chemical_formula_structural   Cr5Fe18Ni31
_chemical_formula_sum   'Cr5 Fe18 Ni31'
_cell_volume   578.32402954
_cell_formula_units_Z   1
loop_
 _symmetry_equiv_pos_site_id
 _symmetry_equiv_pos_as_xyz
  1  'x, y, z'
loop_
 _atom_site_type_symbol
 _atom_site_label
 _atom_site_symmetry_multiplicity
 _atom_site_fract_x
 _atom_site_fract_y
 _atom_site_fract_z
 _atom_site_occupancy
  Ni  Ni0  1  0.00350956  0.00361771  1.00289223  1
  Ni  Ni1  1  0.16755249  0.16960284  0.16797197  1
  Fe  Fe2  1  0.00305968  0.00403237  0.33413581  1
  Ni  Ni3  1  1.00278785  0.33543079  0.00488744  1
  Ni  Ni4  1  0.16922784  0.50380637  0.16715818  1
  Ni  Ni5  1  0.00318063  0.33748990  0.33714189  1
  Ni  Ni6  1  1.00164202  0.67005030  0.00408703  1
  Ni  Ni7  1  0.16823083  0.83541804  0.16945067  1
  Ni  Ni8  1  0.00350792  0.66802233  0.33453540  1
  Ni  Ni9  1  0.33650219  0.00352201  0.00451523  1
  Ni  Ni10  1  0.50571070  0.16944681  0.16748296  1
  Fe  Fe11  1  0.33555747  1.00079769  0.33531829  1
  Fe  Fe12  1  0.33751442  0.33574668  0.00389492  1
  Ni  Ni13  1  0.50424251  0.50363373  0.16919168  1
  Cr  Cr14  1  0.33423397  0.33445017  0.33363524  1
  Ni  Ni15  1  0.33799248  0.67201608  0.00354681  1
  Ni  Ni16  1  0.50472642  0.83589063  0.16976194  1
  Fe  Fe17  1  0.33648673  0.66974659  0.33503491  1
  Ni  Ni18  1  0.66832270  1.00216479  1.00231407  1
  Ni  Ni19  1  0.83562466  0.16858527  0.17064414  1
  Ni  Ni20  1  0.66728290  1.00228242  0.33452178  1
  Fe  Fe21  1  0.67010248  0.33651362  0.00397047  1
  Fe  Fe22  1  0.83671591  0.50307505  0.17013203  1
  Ni  Ni23  1  0.67152054  0.33689864  0.33597255  1
  Ni  Ni24  1  0.66929911  0.67009969  0.00335934  1
  Ni  Ni25  1  0.83587560  0.83737891  0.16819038  1
  Ni  Ni26  1  0.66975013  0.67017832  0.33519871  1
  Ni  Ni27  1  0.16787458  0.16957438  0.50430747  1
  Fe  Fe28  1  0.00462301  0.00441586  0.67107307  1
  Ni  Ni29  1  0.16875332  0.16894168  0.83636895  1
  Ni  Ni30  1  0.17003133  0.50300842  0.50404662  1
  Ni  Ni31  1  0.00313177  0.33444819  0.66760474  1
  Cr  Cr32  1  0.17261474  0.50201076  0.83902959  1
  Ni  Ni33  1  0.17065542  0.83634494  0.50238761  1
  Cr  Cr34  1  1.00141370  0.66874820  0.67118517  1
  Ni  Ni35  1  0.16912230  0.83887795  0.83710098  1
  Cr  Cr36  1  0.50515916  0.16945683  0.50293322  1
  Ni  Ni37  1  0.33650711  0.00324975  0.66956566  1
  Fe  Fe38  1  0.50032369  0.16951819  0.83685366  1
  Fe  Fe39  1  0.50212819  0.50523320  0.50347401  1
  Ni  Ni40  1  0.33532478  0.33385633  0.67037150  1
  Ni  Ni41  1  0.50574992  0.50247984  0.83521812  1
  Ni  Ni42  1  0.50306936  0.83508997  0.50377965  1
  Fe  Fe43  1  0.33748644  0.66975579  0.66990111  1
  Fe  Fe44  1  0.50056461  0.83596684  0.83677678  1
  Fe  Fe45  1  0.83843789  0.17030473  0.50102982  1
  Fe  Fe46  1  0.66962971  0.00299912  0.67177640  1
  Fe  Fe47  1  0.83770946  0.17091011  0.83799388  1
  Fe  Fe48  1  0.83592316  0.50211894  0.50181663  1
  Fe  Fe49  1  0.67035182  0.33781277  0.67038760  1
  Fe  Fe50  1  0.83604118  0.50148064  0.83756214  1
  Cr  Cr51  1  0.83536969  0.83861023  0.50123565  1
  Ni  Ni52  1  0.66825037  0.67050849  0.67041065  1
  Fe  Fe53  1  0.83552224  0.83630881  0.83879193  1
" 