2209,Ni58Fe19Cr22_4,-231.716003383578, 181.739172778005,Ni58Fe19Cr22,"# generated using pymatgen
 data_Cr13Fe10Ni31
_symmetry_space_group_name_H-M   'P 1'
_cell_length_a   7.45092004
_cell_length_b   7.45092004
_cell_length_c   10.53719217
_cell_angle_alpha   90.00000000
_cell_angle_beta   90.00000000
_cell_angle_gamma   90.00000000
_symmetry_Int_Tables_number   1
_chemical_formula_structural   Cr13Fe10Ni31
_chemical_formula_sum   'Cr13 Fe10 Ni31'
_cell_volume   584.98496754
_cell_formula_units_Z   1
loop_
 _symmetry_equiv_pos_site_id
 _symmetry_equiv_pos_as_xyz
  1  'x, y, z'
loop_
 _atom_site_type_symbol
 _atom_site_label
 _atom_site_symmetry_multiplicity
 _atom_site_fract_x
 _atom_site_fract_y
 _atom_site_fract_z
 _atom_site_occupancy
  Cr  Cr0  1  0.00299358  0.00152501  0.00131173  1
  Ni  Ni1  1  0.17115261  0.16641319  0.16729974  1
  Cr  Cr2  1  0.00276281  0.99859315  0.33360287  1
  Cr  Cr3  1  0.00316428  0.33553811  0.00147647  1
  Fe  Fe4  1  0.17320518  0.50055404  0.16777068  1
  Cr  Cr5  1  0.00160740  0.33683235  0.33081837  1
  Cr  Cr6  1  0.00223268  0.66606638  0.00279696  1
  Ni  Ni7  1  0.17200111  0.83579838  0.16813843  1
  Cr  Cr8  1  0.00201508  0.66756025  0.33495980  1
  Ni  Ni9  1  0.33630289  0.00128004  1.00056184  1
  Ni  Ni10  1  0.49876152  0.16832195  0.16897719  1
  Ni  Ni11  1  0.33607911  0.99971390  0.33474800  1
  Ni  Ni12  1  0.33572700  0.33343437  1.00061905  1
  Ni  Ni13  1  0.50183321  0.50193080  0.16809031  1
  Ni  Ni14  1  0.33787694  0.33541364  0.33406890  1
  Fe  Fe15  1  0.33578566  0.66727551  1.00041941  1
  Ni  Ni16  1  0.49866954  0.83294030  0.16574521  1
  Ni  Ni17  1  0.33660600  0.66818443  0.33370745  1
  Fe  Fe18  1  0.66414566  0.00115101  0.00199002  1
  Ni  Ni19  1  0.83313254  0.16908600  0.16683150  1
  Cr  Cr20  1  0.66389340  0.99953946  0.33244734  1
  Cr  Cr21  1  0.66558826  0.33532738  1.00024719  1
  Ni  Ni22  1  0.83035330  0.50131455  0.16904619  1
  Ni  Ni23  1  0.66489330  0.33662887  0.33463083  1
  Ni  Ni24  1  0.66529929  0.66766745  1.00089082  1
  Fe  Fe25  1  0.83098006  0.83327027  0.16719466  1
  Ni  Ni26  1  0.66546479  0.66618582  0.33534129  1
  Cr  Cr27  1  0.17061183  0.16655175  0.50141150  1
  Ni  Ni28  1  0.00288958  0.99877654  0.66874857  1
  Fe  Fe29  1  0.17189527  0.16701674  0.83405619  1
  Ni  Ni30  1  0.17060939  0.50317117  0.50074799  1
  Cr  Cr31  1  0.00150105  0.33755365  0.67056768  1
  Ni  Ni32  1  0.16990943  0.50233480  0.83485555  1
  Ni  Ni33  1  0.17013754  0.83319357  0.50327918  1
  Ni  Ni34  1  0.00294775  0.66741819  0.66637533  1
  Ni  Ni35  1  0.17013446  0.83472753  0.83206421  1
  Fe  Fe36  1  0.49956130  0.16894536  0.50078266  1
  Ni  Ni37  1  0.33518584  0.99913369  0.66815847  1
  Ni  Ni38  1  0.49878343  0.16797336  0.83384448  1
  Ni  Ni39  1  0.50101242  0.50193901  0.50138226  1
  Fe  Fe40  1  0.33567285  0.33599697  0.66856683  1
  Ni  Ni41  1  0.50034948  0.50148590  0.83383500  1
  Ni  Ni42  1  0.49862538  0.83167716  0.50097986  1
  Ni  Ni43  1  0.33459459  0.66799746  0.66886913  1
  Ni  Ni44  1  0.49814780  0.83419467  0.83639406  1
  Cr  Cr45  1  0.83361082  0.16894972  0.50137869  1
  Cr  Cr46  1  0.66365303  1.00062925  0.66798021  1
  Fe  Fe47  1  0.83299145  0.16812901  0.83375231  1
  Ni  Ni48  1  0.83154485  0.50316345  0.50222200  1
  Fe  Fe49  1  0.66445050  0.33695784  0.66826653  1
  Ni  Ni50  1  0.83287794  0.50158242  0.83239341  1
  Ni  Ni51  1  0.83420745  0.83146923  0.50212714  1
  Fe  Fe52  1  0.66590624  0.66712900  0.66742790  1
  Cr  Cr53  1  0.83410281  0.83279763  0.83424232  1
" 