5960,Ni58Fe33Cr8_5,-238.227117730663, 211.582983686367,Ni58Fe33Cr8,"# generated using pymatgen
 data_Cr5Fe18Ni31
_symmetry_space_group_name_H-M   'P 1'
_cell_length_a   7.41759356
_cell_length_b   7.41759356
_cell_length_c   10.49006141
_cell_angle_alpha   90.00000000
_cell_angle_beta   90.00000000
_cell_angle_gamma   90.00000000
_symmetry_Int_Tables_number   1
_chemical_formula_structural   Cr5Fe18Ni31
_chemical_formula_sum   'Cr5 Fe18 Ni31'
_cell_volume   577.17046150
_cell_formula_units_Z   1
loop_
 _symmetry_equiv_pos_site_id
 _symmetry_equiv_pos_as_xyz
  1  'x, y, z'
loop_
 _atom_site_type_symbol
 _atom_site_label
 _atom_site_symmetry_multiplicity
 _atom_site_fract_x
 _atom_site_fract_y
 _atom_site_fract_z
 _atom_site_occupancy
  Ni  Ni0  1  1.00261933  1.00238362  0.00478568  1
  Ni  Ni1  1  0.17043699  0.16874485  0.16995625  1
  Fe  Fe2  1  1.00287876  1.00293203  0.33555712  1
  Ni  Ni3  1  1.00263691  0.33604682  1.00225003  1
  Cr  Cr4  1  0.17099749  0.50280166  0.16949114  1
  Fe  Fe5  1  1.00260951  0.33559004  0.33681265  1
  Ni  Ni6  1  0.00451942  0.67157510  1.00140637  1
  Fe  Fe7  1  0.16900081  0.83853038  0.16982720  1
  Ni  Ni8  1  0.00340509  0.67165903  0.33763824  1
  Ni  Ni9  1  0.33668943  1.00317965  0.00430062  1
  Fe  Fe10  1  0.50332817  0.17002824  0.17095376  1
  Ni  Ni11  1  0.33789219  1.00291457  0.33590950  1
  Ni  Ni12  1  0.33798599  0.33655662  0.00374182  1
  Fe  Fe13  1  0.50244972  0.50189157  0.17090286  1
  Ni  Ni14  1  0.33921150  0.33673165  0.33644412  1
  Ni  Ni15  1  0.33530200  0.67026379  1.00223992  1
  Fe  Fe16  1  0.50259641  0.83808079  0.17084591  1
  Ni  Ni17  1  0.33606401  0.67035103  0.33742316  1
  Fe  Fe18  1  0.67043472  0.00462360  0.00344166  1
  Ni  Ni19  1  0.83689847  0.16856595  0.16996216  1
  Ni  Ni20  1  0.67025767  0.00449486  0.33658703  1
  Fe  Fe21  1  0.67005229  0.33448632  1.00242790  1
  Cr  Cr22  1  0.83650520  0.50255139  0.17025347  1
  Ni  Ni23  1  0.66895840  0.33518041  0.33698573  1
  Cr  Cr24  1  0.67074772  0.67025276  1.00284616  1
  Ni  Ni25  1  0.83623440  0.83883281  0.17073292  1
  Fe  Fe26  1  0.66852280  0.67083028  0.33720473  1
  Cr  Cr27  1  0.17032432  0.16937545  0.50353485  1
  Ni  Ni28  1  1.00141010  1.00028634  0.66962442  1
  Cr  Cr29  1  0.16947708  0.16984278  0.83633495  1
  Fe  Fe30  1  0.17018858  0.50499894  0.50327142  1
  Fe  Fe31  1  1.00113772  0.33738326  0.67069866  1
  Ni  Ni32  1  0.16924168  0.50517514  0.83672378  1
  Ni  Ni33  1  0.17198270  0.83524796  0.50287807  1
  Ni  Ni34  1  1.00329005  0.67062774  0.67095995  1
  Ni  Ni35  1  0.17203674  0.83461945  0.83780738  1
  Ni  Ni36  1  0.50471814  0.16889980  0.50356890  1
  Ni  Ni37  1  0.33840191  1.00254257  0.66979151  1
  Fe  Fe38  1  0.50426020  0.17011119  0.83569077  1
  Fe  Fe39  1  0.50338568  0.50234375  0.50289772  1
  Ni  Ni40  1  0.33939772  0.33775127  0.66981224  1
  Fe  Fe41  1  0.50204473  0.50241078  0.83619821  1
  Ni  Ni42  1  0.50232786  0.83690080  0.50285345  1
  Fe  Fe43  1  0.33649897  0.67119587  0.67028977  1
  Ni  Ni44  1  0.50165178  0.83724151  0.83606013  1
  Ni  Ni45  1  0.83480042  0.17171473  0.50287901  1
  Ni  Ni46  1  0.67019212  0.00450221  0.67041912  1
  Ni  Ni47  1  0.83518623  0.17150143  0.83716027  1
  Ni  Ni48  1  0.83645572  0.50269319  0.50272885  1
  Ni  Ni49  1  0.66927893  0.33586616  0.67048091  1
  Ni  Ni50  1  0.83781416  0.50177490  0.83682263  1
  Fe  Fe51  1  0.83672748  0.83735912  0.50296992  1
  Fe  Fe52  1  0.66994016  0.67037708  0.67029247  1
  Fe  Fe53  1  0.83860590  0.83718922  0.83633499  1
" 