4724,Ni58Fe23Cr18_16,-233.397985500625, 192.951077442735,Ni58Fe23Cr18,"# generated using pymatgen
 data_Cr11Fe12Ni31
_symmetry_space_group_name_H-M   'P 1'
_cell_length_a   7.44306543
_cell_length_b   7.44306543
_cell_length_c   10.52608408
_cell_angle_alpha   90.00000000
_cell_angle_beta   90.00000000
_cell_angle_gamma   90.00000000
_symmetry_Int_Tables_number   1
_chemical_formula_structural   Cr11Fe12Ni31
_chemical_formula_sum   'Cr11 Fe12 Ni31'
_cell_volume   583.13687929
_cell_formula_units_Z   1
loop_
 _symmetry_equiv_pos_site_id
 _symmetry_equiv_pos_as_xyz
  1  'x, y, z'
loop_
 _atom_site_type_symbol
 _atom_site_label
 _atom_site_symmetry_multiplicity
 _atom_site_fract_x
 _atom_site_fract_y
 _atom_site_fract_z
 _atom_site_occupancy
  Cr  Cr0  1  1.00083214  1.00154532  0.00305231  1
  Ni  Ni1  1  0.16898942  0.16729696  0.17065372  1
  Fe  Fe2  1  0.00304266  0.00204538  0.33454465  1
  Ni  Ni3  1  0.99984161  0.33687725  0.00215535  1
  Fe  Fe4  1  0.16739947  0.50246920  0.16918074  1
  Ni  Ni5  1  0.00243473  0.33406766  0.33428337  1
  Ni  Ni6  1  0.00189720  0.66696282  1.00019785  1
  Ni  Ni7  1  0.16975649  0.83493043  0.16788069  1
  Ni  Ni8  1  1.00003950  0.66741434  0.33417953  1
  Fe  Fe9  1  0.33514850  1.00015083  0.00398102  1
  Ni  Ni10  1  0.49966246  0.16902931  0.16785787  1
  Ni  Ni11  1  0.33380553  0.00213340  0.33310560  1
  Cr  Cr12  1  0.33528969  0.33580628  0.00236330  1
  Ni  Ni13  1  0.50289873  0.50264990  0.16861643  1
  Ni  Ni14  1  0.33323534  0.33476729  0.33458510  1
  Ni  Ni15  1  0.33437288  0.66848881  0.00218740  1
  Ni  Ni16  1  0.49894666  0.83315406  0.16868551  1
  Ni  Ni17  1  0.33684350  0.66793342  0.33393506  1
  Cr  Cr18  1  0.66828020  0.00214056  0.00195853  1
  Ni  Ni19  1  0.83618079  0.17125809  0.16831106  1
  Cr  Cr20  1  0.66905053  0.99949859  0.33459903  1
  Ni  Ni21  1  0.66951049  0.33591292  1.00100357  1
  Ni  Ni22  1  0.83440150  0.50188734  0.16798018  1
  Fe  Fe23  1  0.66858503  0.33805429  0.33420507  1
  Ni  Ni24  1  0.66856133  0.66682095  0.00264285  1
  Ni  Ni25  1  0.83613233  0.83169224  0.16859325  1
  Ni  Ni26  1  0.66795025  0.66798412  0.33534650  1
  Ni  Ni27  1  0.16799679  0.16702426  0.50058409  1
  Ni  Ni28  1  0.99985821  1.00104706  0.66722473  1
  Cr  Cr29  1  0.16923406  0.16728661  0.83399286  1
  Cr  Cr30  1  0.16884829  0.50101207  0.50035370  1
  Cr  Cr31  1  1.00050306  0.33395664  0.66826026  1
  Fe  Fe32  1  0.16731197  0.50416510  0.83543618  1
  Cr  Cr33  1  0.16763703  0.83673142  0.50205724  1
  Fe  Fe34  1  0.99983145  0.67014779  0.66964607  1
  Fe  Fe35  1  0.16659697  0.83318251  0.83473389  1
  Cr  Cr36  1  0.50062455  0.16971100  0.50294726  1
  Fe  Fe37  1  0.33534312  0.00259175  0.66794027  1
  Ni  Ni38  1  0.50266143  0.16967100  0.83353593  1
  Ni  Ni39  1  0.50276994  0.50198690  0.50159189  1
  Fe  Fe40  1  0.33770933  0.33456993  0.66836560  1
  Fe  Fe41  1  0.50315670  0.49971666  0.83524746  1
  Fe  Fe42  1  0.50231378  0.83347546  0.50094345  1
  Fe  Fe43  1  0.33484734  0.66767379  0.66876393  1
  Cr  Cr44  1  0.50066891  0.83579159  0.83558864  1
  Ni  Ni45  1  0.83627550  0.16823710  0.50262476  1
  Ni  Ni46  1  0.67019955  0.00285369  0.66861501  1
  Ni  Ni47  1  0.83263436  0.16985920  0.83389637  1
  Ni  Ni48  1  0.83278422  0.50223116  0.50006061  1
  Ni  Ni49  1  0.66727537  0.33342726  0.66908306  1
  Ni  Ni50  1  0.83525721  0.50191198  0.83678628  1
  Ni  Ni51  1  0.83552771  0.83436342  0.50228261  1
  Cr  Cr52  1  0.66874615  0.66833703  0.66639581  1
  Ni  Ni53  1  0.83729429  0.83306212  0.83395275  1
" 