3745,Ni58Fe23Cr18_2,-233.829115663716, 193.948668005589,Ni58Fe23Cr18,"# generated using pymatgen
 data_Cr11Fe12Ni31
_symmetry_space_group_name_H-M   'P 1'
_cell_length_a   7.44457248
_cell_length_b   7.44457248
_cell_length_c   10.52821537
_cell_angle_alpha   90.00000000
_cell_angle_beta   90.00000000
_cell_angle_gamma   90.00000000
_symmetry_Int_Tables_number   1
_chemical_formula_structural   Cr11Fe12Ni31
_chemical_formula_sum   'Cr11 Fe12 Ni31'
_cell_volume   583.49116739
_cell_formula_units_Z   1
loop_
 _symmetry_equiv_pos_site_id
 _symmetry_equiv_pos_as_xyz
  1  'x, y, z'
loop_
 _atom_site_type_symbol
 _atom_site_label
 _atom_site_symmetry_multiplicity
 _atom_site_fract_x
 _atom_site_fract_y
 _atom_site_fract_z
 _atom_site_occupancy
  Ni  Ni0  1  0.00172079  1.00046692  0.00156474  1
  Fe  Fe1  1  0.17094508  0.16842685  0.16812360  1
  Fe  Fe2  1  0.00214089  1.00083107  0.33637410  1
  Fe  Fe3  1  0.00383370  0.33630139  1.00062443  1
  Ni  Ni4  1  0.16809901  0.50264960  0.16797732  1
  Ni  Ni5  1  1.00137722  0.33476038  0.33516075  1
  Ni  Ni6  1  0.00344254  0.66859768  0.99998101  1
  Fe  Fe7  1  0.16915941  0.83433619  0.16783136  1
  Ni  Ni8  1  0.00313269  0.66759283  0.33512825  1
  Ni  Ni9  1  0.33529814  0.00156912  0.00212440  1
  Ni  Ni10  1  0.50065184  0.16517572  0.16805541  1
  Ni  Ni11  1  0.33579619  0.00155388  0.33507710  1
  Ni  Ni12  1  0.33484759  0.33444465  1.00146698  1
  Cr  Cr13  1  0.49796333  0.50113771  0.16959660  1
  Fe  Fe14  1  0.33415784  0.33236316  0.33347267  1
  Ni  Ni15  1  0.33252973  0.66852542  1.00095275  1
  Ni  Ni16  1  0.49875014  0.83848660  0.16847334  1
  Ni  Ni17  1  0.33221429  0.67149397  0.33290779  1
  Fe  Fe18  1  0.66661557  1.00134529  1.00105445  1
  Cr  Cr19  1  0.83445288  0.16679040  0.16764264  1
  Ni  Ni20  1  0.66598555  0.00334499  0.33521718  1
  Fe  Fe21  1  0.66678508  0.33271339  0.99922683  1
  Cr  Cr22  1  0.83830656  0.50073472  0.16843054  1
  Ni  Ni23  1  0.66978296  0.33125529  0.33679032  1
  Cr  Cr24  1  0.66802087  0.66925203  0.99999658  1
  Fe  Fe25  1  0.83600762  0.83596536  0.16756475  1
  Cr  Cr26  1  0.66853277  0.67012736  0.33640018  1
  Ni  Ni27  1  0.16790983  0.16469289  0.49991608  1
  Ni  Ni28  1  0.00336500  1.00025699  0.66651798  1
  Cr  Cr29  1  0.16780137  0.16623982  0.83494352  1
  Cr  Cr30  1  0.16769988  0.50294472  0.50122291  1
  Cr  Cr31  1  1.00083829  0.33417630  0.66871866  1
  Ni  Ni32  1  0.16940876  0.50434267  0.83616029  1
  Ni  Ni33  1  0.16889749  0.83713929  0.50172552  1
  Fe  Fe34  1  1.00084176  0.67123251  0.66943663  1
  Ni  Ni35  1  0.16856784  0.83325123  0.83496100  1
  Ni  Ni36  1  0.50085918  0.16561169  0.49955884  1
  Ni  Ni37  1  0.33340531  0.99947243  0.66725870  1
  Fe  Fe38  1  0.50126340  0.16803661  0.83669794  1
  Cr  Cr39  1  0.50185331  0.50254372  0.50055762  1
  Fe  Fe40  1  0.33570687  0.33387018  0.66944772  1
  Ni  Ni41  1  0.50009964  0.50272836  0.83484819  1
  Ni  Ni42  1  0.49925597  0.83679780  0.50125662  1
  Ni  Ni43  1  0.33560704  0.67082002  0.67075924  1
  Ni  Ni44  1  0.49976197  0.83368993  0.83483191  1
  Ni  Ni45  1  0.83577536  0.16775598  0.49854214  1
  Cr  Cr46  1  0.66777055  1.00008663  0.66851537  1
  Ni  Ni47  1  0.83451980  0.16728427  0.83794694  1
  Ni  Ni48  1  0.83545367  0.50112463  0.50030261  1
  Cr  Cr49  1  0.66879676  0.33624466  0.66901677  1
  Ni  Ni50  1  0.83505317  0.50190302  0.83576561  1
  Fe  Fe51  1  0.83628414  0.83548172  0.50197939  1
  Ni  Ni52  1  0.66797211  0.66815711  0.66851264  1
  Ni  Ni53  1  0.83619409  0.83538574  0.83489594  1
" 