5653,Ni58Fe16Cr24_3,-231.075866398553, 179.655318154077,Ni58Fe16Cr24,"# generated using pymatgen
 data_Cr14Fe9Ni31
_symmetry_space_group_name_H-M   'P 1'
_cell_length_a   7.45962598
_cell_length_b   7.45962598
_cell_length_c   10.54950424
_cell_angle_alpha   90.00000000
_cell_angle_beta   90.00000000
_cell_angle_gamma   90.00000000
_symmetry_Int_Tables_number   1
_chemical_formula_structural   Cr14Fe9Ni31
_chemical_formula_sum   'Cr14 Fe9 Ni31'
_cell_volume   587.03792201
_cell_formula_units_Z   1
loop_
 _symmetry_equiv_pos_site_id
 _symmetry_equiv_pos_as_xyz
  1  'x, y, z'
loop_
 _atom_site_type_symbol
 _atom_site_label
 _atom_site_symmetry_multiplicity
 _atom_site_fract_x
 _atom_site_fract_y
 _atom_site_fract_z
 _atom_site_occupancy
  Fe  Fe0  1  0.99883557  0.99970855  0.99920270  1
  Cr  Cr1  1  0.16539583  0.16754587  0.16531254  1
  Ni  Ni2  1  0.00160832  0.00060412  0.33380950  1
  Ni  Ni3  1  0.99822429  0.33671288  0.99978546  1
  Ni  Ni4  1  0.16599874  0.50263670  0.16683041  1
  Cr  Cr5  1  0.99967208  0.33561598  0.33483740  1
  Ni  Ni6  1  0.99937955  0.66505807  0.00130226  1
  Cr  Cr7  1  0.16714339  0.83403588  0.16557868  1
  Fe  Fe8  1  0.99944030  0.66692662  0.33295828  1
  Ni  Ni9  1  0.33324837  0.99844684  0.99819880  1
  Cr  Cr10  1  0.50095960  0.16778215  0.16958484  1
  Ni  Ni11  1  0.33420833  0.99781907  0.33631578  1
  Cr  Cr12  1  0.33409532  0.33697318  0.00072399  1
  Ni  Ni13  1  0.50248848  0.50322027  0.16657441  1
  Fe  Fe14  1  0.33451428  0.33555583  0.33415591  1
  Ni  Ni15  1  0.33371490  0.66784450  1.00041354  1
  Ni  Ni16  1  0.50030207  0.83182796  0.16808752  1
  Fe  Fe17  1  0.33442419  0.66608107  0.33234808  1
  Cr  Cr18  1  0.66634414  0.99820729  0.00203947  1
  Ni  Ni19  1  0.83399768  0.16838812  0.16677383  1
  Fe  Fe20  1  0.66848266  0.00076629  0.33351556  1
  Ni  Ni21  1  0.67020639  0.33635658  0.99981591  1
  Ni  Ni22  1  0.83305620  0.50047413  0.16671549  1
  Ni  Ni23  1  0.66862701  0.33667396  0.33431670  1
  Ni  Ni24  1  0.66833208  0.66497913  0.00208624  1
  Fe  Fe25  1  0.83346546  0.83210478  0.16792900  1
  Ni  Ni26  1  0.66639670  0.66666670  0.33126236  1
  Ni  Ni27  1  0.16772230  0.16664716  0.49733356  1
  Cr  Cr28  1  0.00164991  0.99976100  0.66870051  1
  Ni  Ni29  1  0.16640743  0.16636548  0.83834817  1
  Ni  Ni30  1  0.16663789  0.50308184  0.49921087  1
  Cr  Cr31  1  1.00002555  0.33573226  0.66671803  1
  Ni  Ni32  1  0.16512569  0.50270418  0.83525967  1
  Fe  Fe33  1  0.16747187  0.83243487  0.49926137  1
  Ni  Ni34  1  0.00064966  0.66626715  0.66616936  1
  Ni  Ni35  1  0.16437174  0.83169585  0.83490339  1
  Ni  Ni36  1  0.50137884  0.16671666  0.49735077  1
  Cr  Cr37  1  0.33322730  0.99960232  0.66695045  1
  Ni  Ni38  1  0.50097564  0.16917491  0.83464415  1
  Cr  Cr39  1  0.50282983  0.50188206  0.50206418  1
  Cr  Cr40  1  0.33287125  0.33236495  0.66764892  1
  Ni  Ni41  1  0.50306816  0.49977200  0.83440735  1
  Ni  Ni42  1  0.49944214  0.83294338  0.49884089  1
  Fe  Fe43  1  0.33239018  0.66548919  0.66840661  1
  Cr  Cr44  1  0.50103417  0.83009679  0.83393472  1
  Ni  Ni45  1  0.83316633  0.16809189  0.49958212  1
  Cr  Cr46  1  0.66649647  0.00137920  0.66579436  1
  Fe  Fe47  1  0.83346532  0.16906414  0.83533376  1
  Ni  Ni48  1  0.83407621  0.50119779  0.50115867  1
  Ni  Ni49  1  0.66774787  0.33574126  0.66785740  1
  Ni  Ni50  1  0.83338341  0.50264371  0.83336521  1
  Cr  Cr51  1  0.83284672  0.83130586  0.49879110  1
  Ni  Ni52  1  0.66940357  0.66605597  0.66856852  1
  Ni  Ni53  1  0.83643508  0.82963805  0.83578367  1
" 