2977,Ni58Fe23Cr18_13,-233.406406889621, 188.433235198217,Ni58Fe23Cr18,"# generated using pymatgen
 data_Cr11Fe12Ni31
_symmetry_space_group_name_H-M   'P 1'
_cell_length_a   7.44789728
_cell_length_b   7.44789728
_cell_length_c   10.53291734
_cell_angle_alpha   90.00000000
_cell_angle_beta   90.00000000
_cell_angle_gamma   90.00000000
_symmetry_Int_Tables_number   1
_chemical_formula_structural   Cr11Fe12Ni31
_chemical_formula_sum   'Cr11 Fe12 Ni31'
_cell_volume   584.27328930
_cell_formula_units_Z   1
loop_
 _symmetry_equiv_pos_site_id
 _symmetry_equiv_pos_as_xyz
  1  'x, y, z'
loop_
 _atom_site_type_symbol
 _atom_site_label
 _atom_site_symmetry_multiplicity
 _atom_site_fract_x
 _atom_site_fract_y
 _atom_site_fract_z
 _atom_site_occupancy
  Fe  Fe0  1  1.00099505  0.00152077  0.00139036  1
  Ni  Ni1  1  0.16856690  0.16801026  0.16867573  1
  Ni  Ni2  1  0.00302904  1.00091698  0.33149037  1
  Ni  Ni3  1  0.00253062  0.33523480  1.00022967  1
  Ni  Ni4  1  0.16882261  0.50045638  0.16739203  1
  Ni  Ni5  1  0.00307970  0.33348670  0.33312237  1
  Ni  Ni6  1  0.00185070  0.66882233  1.00050001  1
  Ni  Ni7  1  0.16858757  0.83539552  0.16767444  1
  Ni  Ni8  1  0.00353332  0.66934844  0.33253857  1
  Ni  Ni9  1  0.33470192  1.00036722  1.00021361  1
  Cr  Cr10  1  0.49856176  0.16908128  0.16639383  1
  Ni  Ni11  1  0.33408235  1.00002643  0.33592192  1
  Ni  Ni12  1  0.33346933  0.33486289  1.00061687  1
  Ni  Ni13  1  0.50030778  0.50166624  0.16768603  1
  Ni  Ni14  1  0.33477568  0.33529867  0.33486188  1
  Fe  Fe15  1  0.33511796  0.66754713  0.00262002  1
  Ni  Ni16  1  0.50004590  0.83366798  0.16623671  1
  Ni  Ni17  1  0.33521685  0.66851976  0.33178743  1
  Ni  Ni18  1  0.66829562  0.99976197  1.00053984  1
  Fe  Fe19  1  0.83614825  0.16792134  0.16620308  1
  Cr  Cr20  1  0.66711205  0.99980975  0.33222494  1
  Ni  Ni21  1  0.66790266  0.33439260  0.99941391  1
  Cr  Cr22  1  0.83420769  0.50082605  0.16864021  1
  Ni  Ni23  1  0.66574662  0.33521455  0.33489165  1
  Ni  Ni24  1  0.66851623  0.66976843  1.00086791  1
  Ni  Ni25  1  0.83543133  0.83367136  0.16706375  1
  Fe  Fe26  1  0.66501184  0.66843366  0.33265348  1
  Ni  Ni27  1  0.17045637  0.16643616  0.49999548  1
  Ni  Ni28  1  1.00041866  1.00006705  0.67059672  1
  Ni  Ni29  1  0.16956111  0.16645871  0.83539942  1
  Cr  Cr30  1  0.16722695  0.50176470  0.49924519  1
  Cr  Cr31  1  0.00211805  0.33424657  0.67063716  1
  Fe  Fe32  1  0.16726406  0.50207162  0.83680740  1
  Cr  Cr33  1  0.16880852  0.83637220  0.50178318  1
  Ni  Ni34  1  0.00301628  0.66987494  0.67088246  1
  Fe  Fe35  1  0.16692651  0.83590252  0.83548279  1
  Fe  Fe36  1  0.50005419  0.16576897  0.50068151  1
  Fe  Fe37  1  0.33445966  1.00084172  0.66931214  1
  Ni  Ni38  1  0.49993401  0.16646620  0.83514661  1
  Fe  Fe39  1  0.50020341  0.50393370  0.49918497  1
  Cr  Cr40  1  0.33514658  0.33555625  0.66770123  1
  Fe  Fe41  1  0.50200723  0.50135347  0.83753277  1
  Ni  Ni42  1  0.50031188  0.83359091  0.50297754  1
  Ni  Ni43  1  0.33540084  0.66920880  0.67093205  1
  Fe  Fe44  1  0.50233466  0.83624191  0.83527793  1
  Cr  Cr45  1  0.83748500  0.16705984  0.50002488  1
  Ni  Ni46  1  0.66671014  0.99992655  0.66970558  1
  Ni  Ni47  1  0.83421582  0.16652828  0.83713851  1
  Cr  Cr48  1  0.83380082  0.50392667  0.50005688  1
  Cr  Cr49  1  0.66658321  0.33279025  0.66935517  1
  Ni  Ni50  1  0.83432279  0.50369538  0.83515861  1
  Cr  Cr51  1  0.83428540  0.83259825  0.50211940  1
  Fe  Fe52  1  0.66659146  0.66899926  0.67063010  1
  Ni  Ni53  1  0.83413257  0.83371312  0.83380719  1
" 