220,Ni58Fe19Cr22_18,-231.727289785238, 182.048977459288,Ni58Fe19Cr22,"# generated using pymatgen
 data_Cr13Fe10Ni31
_symmetry_space_group_name_H-M   'P 1'
_cell_length_a   7.45380664
_cell_length_b   7.45380664
_cell_length_c   10.54127444
_cell_angle_alpha   90.00000000
_cell_angle_beta   90.00000000
_cell_angle_gamma   90.00000000
_symmetry_Int_Tables_number   1
_chemical_formula_structural   Cr13Fe10Ni31
_chemical_formula_sum   'Cr13 Fe10 Ni31'
_cell_volume   585.66512628
_cell_formula_units_Z   1
loop_
 _symmetry_equiv_pos_site_id
 _symmetry_equiv_pos_as_xyz
  1  'x, y, z'
loop_
 _atom_site_type_symbol
 _atom_site_label
 _atom_site_symmetry_multiplicity
 _atom_site_fract_x
 _atom_site_fract_y
 _atom_site_fract_z
 _atom_site_occupancy
  Ni  Ni0  1  1.00030448  0.00264933  0.00247685  1
  Fe  Fe1  1  0.16594946  0.16779353  0.16831348  1
  Ni  Ni2  1  0.00278003  0.00315221  0.33326229  1
  Ni  Ni3  1  1.00077879  0.33215678  1.00065187  1
  Fe  Fe4  1  0.16709949  0.49767289  0.16826266  1
  Ni  Ni5  1  0.00156415  0.33287567  0.33611711  1
  Fe  Fe6  1  0.99903530  0.66811577  0.00095498  1
  Ni  Ni7  1  0.16699347  0.83591566  0.16798947  1
  Cr  Cr8  1  0.00202780  0.66599771  0.33352644  1
  Cr  Cr9  1  0.33243864  0.00289985  0.99922372  1
  Cr  Cr10  1  0.50279341  0.16869011  0.16755510  1
  Ni  Ni11  1  0.33315553  1.00015087  0.33522907  1
  Ni  Ni12  1  0.33168711  0.33317257  0.00139614  1
  Cr  Cr13  1  0.50185346  0.49959097  0.16875432  1
  Fe  Fe14  1  0.33330423  0.33286619  0.33643706  1
  Cr  Cr15  1  0.33366269  0.66770474  0.00380869  1
  Ni  Ni16  1  0.49977018  0.83379597  0.17077377  1
  Fe  Fe17  1  0.33397462  0.66906991  0.33558656  1
  Cr  Cr18  1  0.66974086  1.00086425  1.00025261  1
  Ni  Ni19  1  0.83630759  0.16794165  0.16947677  1
  Ni  Ni20  1  0.66655055  0.00172046  0.33378140  1
  Ni  Ni21  1  0.66978814  0.33412528  0.99846879  1
  Cr  Cr22  1  0.83360917  0.49715167  0.16627918  1
  Ni  Ni23  1  0.66876582  0.33398519  0.33701209  1
  Ni  Ni24  1  0.67012280  0.66766205  0.00101766  1
  Fe  Fe25  1  0.83325110  0.83572911  0.16841803  1
  Ni  Ni26  1  0.66537871  0.66715283  0.33546769  1
  Ni  Ni27  1  0.16795685  0.16666433  0.50043999  1
  Ni  Ni28  1  0.00200413  0.00278484  0.66704643  1
  Ni  Ni29  1  0.16576933  0.16818677  0.83384461  1
  Ni  Ni30  1  0.16787572  0.50041256  0.50108377  1
  Fe  Fe31  1  1.00045577  0.33324419  0.66611352  1
  Cr  Cr32  1  0.16590499  0.49922091  0.83405005  1
  Ni  Ni33  1  0.16967514  0.83531768  0.50250191  1
  Ni  Ni34  1  0.99971140  0.66615616  0.66787444  1
  Cr  Cr35  1  0.16488481  0.83604335  0.83057312  1
  Ni  Ni36  1  0.50024557  0.16830914  0.50083412  1
  Ni  Ni37  1  0.33213774  0.00377496  0.66634507  1
  Fe  Fe38  1  0.50036317  0.17016539  0.83273368  1
  Fe  Fe39  1  0.50121302  0.49940978  0.50150393  1
  Ni  Ni40  1  0.33382716  0.33264685  0.66645371  1
  Cr  Cr41  1  0.50206822  0.49952033  0.83419615  1
  Fe  Fe42  1  0.49985837  0.83510692  0.50024750  1
  Ni  Ni43  1  0.33352187  0.66650541  0.66285825  1
  Cr  Cr44  1  0.50052535  0.83281116  0.83129076  1
  Ni  Ni45  1  0.83430441  0.16986153  0.49909374  1
  Cr  Cr46  1  0.66876652  0.00390172  0.66800271  1
  Ni  Ni47  1  0.83720663  0.16955241  0.83403385  1
  Ni  Ni48  1  0.83351956  0.49888513  0.50246724  1
  Ni  Ni49  1  0.66830328  0.33521470  0.66711495  1
  Ni  Ni50  1  0.83377047  0.50008191  0.83398610  1
  Cr  Cr51  1  0.83600847  0.83548221  0.50005260  1
  Ni  Ni52  1  0.66936389  0.66492713  0.66699411  1
  Ni  Ni53  1  0.83603345  0.83317222  0.83573281  1
" 