7276,Ni58Fe16Cr24_18,-231.216110848909, 185.383794645967,Ni58Fe16Cr24,"# generated using pymatgen
 data_Cr14Fe9Ni31
_symmetry_space_group_name_H-M   'P 1'
_cell_length_a   7.45604266
_cell_length_b   7.45604266
_cell_length_c   10.54443665
_cell_angle_alpha   90.00000000
_cell_angle_beta   90.00000000
_cell_angle_gamma   90.00000000
_symmetry_Int_Tables_number   1
_chemical_formula_structural   Cr14Fe9Ni31
_chemical_formula_sum   'Cr14 Fe9 Ni31'
_cell_volume   586.19235455
_cell_formula_units_Z   1
loop_
 _symmetry_equiv_pos_site_id
 _symmetry_equiv_pos_as_xyz
  1  'x, y, z'
loop_
 _atom_site_type_symbol
 _atom_site_label
 _atom_site_symmetry_multiplicity
 _atom_site_fract_x
 _atom_site_fract_y
 _atom_site_fract_z
 _atom_site_occupancy
  Ni  Ni0  1  0.00141136  1.00019026  0.99793412  1
  Cr  Cr1  1  0.16666837  0.16867776  0.16670978  1
  Ni  Ni2  1  0.99954116  0.99772596  0.33606908  1
  Ni  Ni3  1  0.99931573  0.33459505  0.99743319  1
  Cr  Cr4  1  0.16693377  0.49951312  0.16842300  1
  Ni  Ni5  1  0.99892238  0.33590566  0.33529091  1
  Cr  Cr6  1  0.00434859  0.66827777  0.99740338  1
  Ni  Ni7  1  0.16840963  0.83306142  0.16978325  1
  Ni  Ni8  1  0.00148006  0.66818224  0.33501724  1
  Cr  Cr9  1  0.33119814  0.99835380  0.99816652  1
  Fe  Fe10  1  0.50099643  0.16978700  0.16739550  1
  Cr  Cr11  1  0.33525029  0.99869619  0.33399115  1
  Ni  Ni12  1  0.33615861  0.33579677  0.99855729  1
  Fe  Fe13  1  0.50082212  0.50103236  0.16500673  1
  Ni  Ni14  1  0.33698925  0.33610967  0.33378852  1
  Ni  Ni15  1  0.33461995  0.66690467  1.00055445  1
  Fe  Fe16  1  0.50001230  0.83131549  0.16679127  1
  Ni  Ni17  1  0.33372011  0.66718475  0.33418053  1
  Cr  Cr18  1  0.66687675  0.00217383  0.99875665  1
  Cr  Cr19  1  0.83528590  0.16796891  0.16892080  1
  Ni  Ni20  1  0.66729787  0.00092737  0.33608498  1
  Ni  Ni21  1  0.66689167  0.33523970  0.99936851  1
  Ni  Ni22  1  0.83225121  0.50009387  0.16601377  1
  Cr  Cr23  1  0.66659765  0.33387588  0.33819888  1
  Fe  Fe24  1  0.66683663  0.66445518  0.99811181  1
  Cr  Cr25  1  0.83342919  0.83299427  0.16648378  1
  Cr  Cr26  1  0.66670756  0.66624483  0.33448637  1
  Cr  Cr27  1  0.16737267  0.16906730  0.50155745  1
  Ni  Ni28  1  0.00088068  0.99887765  0.66931590  1
  Ni  Ni29  1  0.16669458  0.16926773  0.83381994  1
  Cr  Cr30  1  0.16757510  0.50031093  0.50092333  1
  Ni  Ni31  1  0.00076904  0.33502373  0.67018744  1
  Ni  Ni32  1  0.16952816  0.49911930  0.83325510  1
  Fe  Fe33  1  0.16633962  0.83315307  0.50204952  1
  Ni  Ni34  1  1.00038155  0.66800599  0.66854833  1
  Ni  Ni35  1  0.16863602  0.83408003  0.83083911  1
  Ni  Ni36  1  0.49818226  0.16574602  0.50077257  1
  Fe  Fe37  1  0.33316239  0.99979467  0.66838430  1
  Fe  Fe38  1  0.50007712  0.16971247  0.83306615  1
  Fe  Fe39  1  0.49911605  0.50326940  0.50343522  1
  Ni  Ni40  1  0.33473341  0.33491376  0.66978179  1
  Ni  Ni41  1  0.49950387  0.50306179  0.83404956  1
  Ni  Ni42  1  0.50172156  0.83354757  0.50117855  1
  Ni  Ni43  1  0.33386934  0.66817457  0.66802505  1
  Ni  Ni44  1  0.50053472  0.83023796  0.83369295  1
  Fe  Fe45  1  0.83609150  0.16570153  0.50142271  1
  Cr  Cr46  1  0.66767461  1.00062386  0.66736445  1
  Ni  Ni47  1  0.83758418  0.16778726  0.83438316  1
  Ni  Ni48  1  0.83617007  0.50420924  0.50188874  1
  Cr  Cr49  1  0.66835881  0.33588765  0.66595073  1
  Ni  Ni50  1  0.83285095  0.50068710  0.83405600  1
  Ni  Ni51  1  0.83266409  0.83295800  0.50082642  1
  Ni  Ni52  1  0.66757282  0.66790935  0.66884293  1
  Ni  Ni53  1  0.83283354  0.83343967  0.83331254  1
" 