5560,Ni58Fe16Cr24_14,-230.960623716358, 179.504272683806,Ni58Fe16Cr24,"# generated using pymatgen
 data_Cr14Fe9Ni31
_symmetry_space_group_name_H-M   'P 1'
_cell_length_a   7.45918038
_cell_length_b   7.45918038
_cell_length_c   10.54887406
_cell_angle_alpha   90.00000000
_cell_angle_beta   90.00000000
_cell_angle_gamma   90.00000000
_symmetry_Int_Tables_number   1
_chemical_formula_structural   Cr14Fe9Ni31
_chemical_formula_sum   'Cr14 Fe9 Ni31'
_cell_volume   586.93272828
_cell_formula_units_Z   1
loop_
 _symmetry_equiv_pos_site_id
 _symmetry_equiv_pos_as_xyz
  1  'x, y, z'
loop_
 _atom_site_type_symbol
 _atom_site_label
 _atom_site_symmetry_multiplicity
 _atom_site_fract_x
 _atom_site_fract_y
 _atom_site_fract_z
 _atom_site_occupancy
  Cr  Cr0  1  0.00380539  0.99968259  0.99863726  1
  Fe  Fe1  1  0.16659985  0.16526947  0.16831050  1
  Ni  Ni2  1  0.00395076  0.00085803  0.33344263  1
  Fe  Fe3  1  0.99953439  0.33329191  0.99688074  1
  Cr  Cr4  1  0.16391649  0.50114625  0.16829419  1
  Ni  Ni5  1  0.00054545  0.33201469  0.33548725  1
  Fe  Fe6  1  0.99958076  0.66777832  0.99773671  1
  Ni  Ni7  1  0.16741311  0.83442521  0.16874983  1
  Ni  Ni8  1  0.00258672  0.66791040  0.33484890  1
  Ni  Ni9  1  0.33191389  1.00030860  0.99944163  1
  Cr  Cr10  1  0.49960782  0.16671506  0.16520233  1
  Ni  Ni11  1  0.33062448  0.99766903  0.33338243  1
  Cr  Cr12  1  0.33334351  0.33390305  0.99619583  1
  Fe  Fe13  1  0.49984923  0.50360300  0.16586629  1
  Cr  Cr14  1  0.33277016  0.33723395  0.33827460  1
  Cr  Cr15  1  0.33290534  0.66914770  0.99977796  1
  Ni  Ni16  1  0.49849986  0.83477624  0.16707769  1
  Ni  Ni17  1  0.33169456  0.67005691  0.33504581  1
  Cr  Cr18  1  0.66932793  0.99981437  0.99974814  1
  Fe  Fe19  1  0.83803874  0.16648717  0.16692353  1
  Cr  Cr20  1  0.67018283  0.99971058  0.33423104  1
  Ni  Ni21  1  0.66899222  0.33579899  0.99859111  1
  Cr  Cr22  1  0.83520965  0.49971842  0.16493921  1
  Cr  Cr23  1  0.66912271  0.33429868  0.33624116  1
  Ni  Ni24  1  0.66787148  0.66488050  0.99929341  1
  Fe  Fe25  1  0.83607057  0.83170721  0.16685160  1
  Cr  Cr26  1  0.66411262  0.66645766  0.33618980  1
  Ni  Ni27  1  0.16395859  0.16616309  0.50018208  1
  Ni  Ni28  1  0.00116466  0.00153424  0.66818398  1
  Ni  Ni29  1  0.16661584  0.16733347  0.83269181  1
  Ni  Ni30  1  0.16422289  0.50168438  0.50058772  1
  Ni  Ni31  1  0.99947029  0.33320125  0.66733745  1
  Ni  Ni32  1  0.16478287  0.50060575  0.83241474  1
  Ni  Ni33  1  0.16882702  0.83322684  0.50034290  1
  Ni  Ni34  1  0.00400064  0.66686101  0.66944385  1
  Ni  Ni35  1  0.16507760  0.83293034  0.83205971  1
  Cr  Cr36  1  0.49906211  0.16372311  0.50636877  1
  Ni  Ni37  1  0.32977093  0.99834491  0.66904656  1
  Ni  Ni38  1  0.50080972  0.16900347  0.83214419  1
  Ni  Ni39  1  0.49954430  0.50254134  0.50293040  1
  Fe  Fe40  1  0.33066424  0.33413746  0.66828975  1
  Ni  Ni41  1  0.50146401  0.49926522  0.83312589  1
  Ni  Ni42  1  0.49711966  0.83316140  0.50262236  1
  Ni  Ni43  1  0.33216517  0.66507290  0.66552063  1
  Cr  Cr44  1  0.50028371  0.83568292  0.83029972  1
  Ni  Ni45  1  0.83690511  0.16947090  0.50109593  1
  Ni  Ni46  1  0.66991841  0.00324793  0.66881307  1
  Ni  Ni47  1  0.83345323  0.16858321  0.83276202  1
  Ni  Ni48  1  0.83704284  0.49919732  0.50292698  1
  Ni  Ni49  1  0.66822004  0.33527982  0.66793492  1
  Fe  Fe50  1  0.83401590  0.50025028  0.83253092  1
  Cr  Cr51  1  0.83773345  0.83398037  0.50323594  1
  Fe  Fe52  1  0.66819247  0.66710564  0.66697834  1
  Ni  Ni53  1  0.83592076  0.83222446  0.83294478  1
" 