1505,Ni58Fe19Cr22_13,-231.911143238813, 187.835737429406,Ni58Fe19Cr22,"# generated using pymatgen
 data_Cr13Fe10Ni31
_symmetry_space_group_name_H-M   'P 1'
_cell_length_a   7.45284215
_cell_length_b   7.45284215
_cell_length_c   10.53991045
_cell_angle_alpha   90.00000000
_cell_angle_beta   90.00000000
_cell_angle_gamma   90.00000000
_symmetry_Int_Tables_number   1
_chemical_formula_structural   Cr13Fe10Ni31
_chemical_formula_sum   'Cr13 Fe10 Ni31'
_cell_volume   585.43780906
_cell_formula_units_Z   1
loop_
 _symmetry_equiv_pos_site_id
 _symmetry_equiv_pos_as_xyz
  1  'x, y, z'
loop_
 _atom_site_type_symbol
 _atom_site_label
 _atom_site_symmetry_multiplicity
 _atom_site_fract_x
 _atom_site_fract_y
 _atom_site_fract_z
 _atom_site_occupancy
  Ni  Ni0  1  1.00045359  0.00239030  0.00201127  1
  Fe  Fe1  1  0.16797312  0.16929679  0.16613265  1
  Cr  Cr2  1  0.00229336  0.00231364  0.33377628  1
  Ni  Ni3  1  1.00050247  0.33254094  1.00015111  1
  Fe  Fe4  1  0.16817064  0.49782169  0.16561429  1
  Ni  Ni5  1  1.00023333  0.33122325  0.33522847  1
  Ni  Ni6  1  1.00065689  0.66781486  0.00098844  1
  Ni  Ni7  1  0.16878848  0.83517939  0.16588372  1
  Cr  Cr8  1  0.99939360  0.66742497  0.33379110  1
  Ni  Ni9  1  0.33511893  0.00165577  0.00302088  1
  Ni  Ni10  1  0.50006967  0.16850117  0.16696164  1
  Ni  Ni11  1  0.33412788  0.00315457  0.33202494  1
  Ni  Ni12  1  0.33579671  0.33375077  1.00035377  1
  Ni  Ni13  1  0.50028983  0.49858935  0.16637282  1
  Ni  Ni14  1  0.33488639  0.33270871  0.33346677  1
  Ni  Ni15  1  0.33612904  0.66701511  0.00270676  1
  Fe  Fe16  1  0.50392857  0.83569810  0.16525390  1
  Cr  Cr17  1  0.33745755  0.66781893  0.33142387  1
  Ni  Ni18  1  0.66742203  0.00199231  1.00041962  1
  Ni  Ni19  1  0.83267620  0.16736493  0.16647136  1
  Fe  Fe20  1  0.66744403  0.00119551  0.33036691  1
  Ni  Ni21  1  0.66666207  0.33372334  1.00089935  1
  Cr  Cr22  1  0.83369722  0.49915689  0.16743484  1
  Fe  Fe23  1  0.66651818  0.33486872  0.33311256  1
  Ni  Ni24  1  0.66640440  0.66738059  1.00033041  1
  Ni  Ni25  1  0.83470244  0.83504896  0.16381324  1
  Ni  Ni26  1  0.66638545  0.66607361  0.33340338  1
  Ni  Ni27  1  0.16892532  0.16920979  0.49883486  1
  Cr  Cr28  1  0.99954280  0.00371503  0.66748101  1
  Ni  Ni29  1  0.16925434  0.16889569  0.83790006  1
  Cr  Cr30  1  0.16854186  0.50015319  0.50248653  1
  Cr  Cr31  1  1.00025291  0.33258832  0.66846424  1
  Fe  Fe32  1  0.16865428  0.49970275  0.83537784  1
  Fe  Fe33  1  0.16855203  0.83453221  0.50105128  1
  Ni  Ni34  1  0.99850946  0.66688454  0.66793909  1
  Cr  Cr35  1  0.16833962  0.83176805  0.83452757  1
  Cr  Cr36  1  0.50106636  0.16908353  0.49949086  1
  Cr  Cr37  1  0.33359838  0.00377345  0.66761163  1
  Ni  Ni38  1  0.50024741  0.16667282  0.83626128  1
  Ni  Ni39  1  0.50236629  0.50088749  0.50134714  1
  Ni  Ni40  1  0.33548546  0.33549187  0.66963077  1
  Fe  Fe41  1  0.50030622  0.50100136  0.83616259  1
  Cr  Cr42  1  0.50113608  0.83441899  0.50040472  1
  Ni  Ni43  1  0.33745821  0.66561663  0.66783268  1
  Ni  Ni44  1  0.50136241  0.83339981  0.83637985  1
  Ni  Ni45  1  0.83378131  0.16948378  0.49842706  1
  Fe  Fe46  1  0.66745303  1.00082007  0.67178323  1
  Ni  Ni47  1  0.83316966  0.16908125  0.83783997  1
  Ni  Ni48  1  0.83208411  0.50021675  0.49912913  1
  Cr  Cr49  1  0.66707260  0.33541842  0.66831781  1
  Ni  Ni50  1  0.83521594  0.50302201  0.83590445  1
  Cr  Cr51  1  0.83155605  0.83319471  0.50352095  1
  Ni  Ni52  1  0.66696349  0.66601997  0.66967704  1
  Fe  Fe53  1  0.83238551  0.83470758  0.83626527  1
" 