338,Ni58Fe23Cr18_5,-233.864364733526, 193.896626095122,Ni58Fe23Cr18,"# generated using pymatgen
 data_Cr11Fe12Ni31
_symmetry_space_group_name_H-M   'P 1'
_cell_length_a   7.44716101
_cell_length_b   7.44716101
_cell_length_c   10.53187610
_cell_angle_alpha   90.00000000
_cell_angle_beta   90.00000000
_cell_angle_gamma   90.00000000
_symmetry_Int_Tables_number   1
_chemical_formula_structural   Cr11Fe12Ni31
_chemical_formula_sum   'Cr11 Fe12 Ni31'
_cell_volume   584.10002961
_cell_formula_units_Z   1
loop_
 _symmetry_equiv_pos_site_id
 _symmetry_equiv_pos_as_xyz
  1  'x, y, z'
loop_
 _atom_site_type_symbol
 _atom_site_label
 _atom_site_symmetry_multiplicity
 _atom_site_fract_x
 _atom_site_fract_y
 _atom_site_fract_z
 _atom_site_occupancy
  Cr  Cr0  1  1.00114519  0.00237828  0.00184693  1
  Ni  Ni1  1  0.16661870  0.16848527  0.16756387  1
  Ni  Ni2  1  1.00100230  1.00093524  0.33243799  1
  Ni  Ni3  1  0.00325129  0.33406274  0.00190574  1
  Cr  Cr4  1  0.16900978  0.49850550  0.16849011  1
  Ni  Ni5  1  1.00043782  0.33459591  0.33305351  1
  Cr  Cr6  1  0.99898808  0.66750562  1.00016951  1
  Fe  Fe7  1  0.16852996  0.83707102  0.17043922  1
  Fe  Fe8  1  0.00165353  0.66779655  0.33535355  1
  Fe  Fe9  1  0.33658095  0.00285819  1.00052056  1
  Fe  Fe10  1  0.50126236  0.16727643  0.16882112  1
  Fe  Fe11  1  0.33542483  1.00130740  0.33469421  1
  Ni  Ni12  1  0.33390494  0.33309544  1.00043739  1
  Ni  Ni13  1  0.50208191  0.50240926  0.16891047  1
  Ni  Ni14  1  0.33613239  0.33627956  0.33474350  1
  Cr  Cr15  1  0.33770610  0.66793930  0.99966382  1
  Ni  Ni16  1  0.50370546  0.83442402  0.16805712  1
  Ni  Ni17  1  0.33544969  0.66810198  0.33641931  1
  Ni  Ni18  1  0.66636759  0.99864539  0.00199581  1
  Ni  Ni19  1  0.83627295  0.16686194  0.16960941  1
  Ni  Ni20  1  0.66780585  0.00162298  0.33312064  1
  Cr  Cr21  1  0.66693807  0.33546699  0.00211985  1
  Fe  Fe22  1  0.83300681  0.50086313  0.16863046  1
  Ni  Ni23  1  0.66743259  0.33484559  0.33487305  1
  Ni  Ni24  1  0.66733333  0.66998129  0.00202493  1
  Ni  Ni25  1  0.83211375  0.83630492  0.16796567  1
  Fe  Fe26  1  0.66655398  0.66703903  0.33324153  1
  Cr  Cr27  1  0.16917432  0.16755298  0.50114771  1
  Ni  Ni28  1  0.00237345  0.99810646  0.66948166  1
  Fe  Fe29  1  0.17174870  0.16833731  0.83495860  1
  Ni  Ni30  1  0.16972725  0.50397269  0.50154014  1
  Cr  Cr31  1  0.00243715  0.33649741  0.66873944  1
  Fe  Fe32  1  0.16955467  0.50073176  0.83354014  1
  Ni  Ni33  1  0.16915474  0.83197292  0.50088572  1
  Ni  Ni34  1  0.00391222  0.66920951  0.66845906  1
  Ni  Ni35  1  0.16870384  0.83484782  0.83200288  1
  Ni  Ni36  1  0.50208343  0.16886416  0.50158860  1
  Ni  Ni37  1  0.33578902  1.00045934  0.66856208  1
  Ni  Ni38  1  0.49963826  0.16741164  0.83402222  1
  Ni  Ni39  1  0.49921344  0.50057333  0.50090083  1
  Ni  Ni40  1  0.33679014  0.33557771  0.66882324  1
  Ni  Ni41  1  0.50048499  0.50094677  0.83419592  1
  Ni  Ni42  1  0.49898302  0.83456889  0.50096701  1
  Ni  Ni43  1  0.33313670  0.66796811  0.66767378  1
  Ni  Ni44  1  0.50069257  0.83564635  0.83498294  1
  Cr  Cr45  1  0.83262843  0.16773734  0.50137873  1
  Ni  Ni46  1  0.66584298  0.00176110  0.66888940  1
  Cr  Cr47  1  0.83402235  0.16718906  0.83314253  1
  Fe  Fe48  1  0.83474083  0.50136276  0.50038059  1
  Fe  Fe49  1  0.66429771  0.33440720  0.66792103  1
  Ni  Ni50  1  0.83510981  0.50230113  0.83539688  1
  Cr  Cr51  1  0.83573850  0.83572678  0.50226645  1
  Cr  Cr52  1  0.66657222  0.66797509  0.66901725  1
  Fe  Fe53  1  0.83283882  0.83373512  0.83412560  1
" 