8579,Ni58Fe16Cr24_2,-231.118861708191, 182.804614371804,Ni58Fe16Cr24,"# generated using pymatgen
 data_Cr14Fe9Ni31
_symmetry_space_group_name_H-M   'P 1'
_cell_length_a   7.45762559
_cell_length_b   7.45762559
_cell_length_c   10.54667526
_cell_angle_alpha   90.00000000
_cell_angle_beta   90.00000000
_cell_angle_gamma   90.00000000
_symmetry_Int_Tables_number   1
_chemical_formula_structural   Cr14Fe9Ni31
_chemical_formula_sum   'Cr14 Fe9 Ni31'
_cell_volume   586.56578417
_cell_formula_units_Z   1
loop_
 _symmetry_equiv_pos_site_id
 _symmetry_equiv_pos_as_xyz
  1  'x, y, z'
loop_
 _atom_site_type_symbol
 _atom_site_label
 _atom_site_symmetry_multiplicity
 _atom_site_fract_x
 _atom_site_fract_y
 _atom_site_fract_z
 _atom_site_occupancy
  Ni  Ni0  1  1.00014671  0.00236986  0.00075777  1
  Ni  Ni1  1  0.16382666  0.16742622  0.16553809  1
  Fe  Fe2  1  0.99930622  0.00186063  0.33334661  1
  Ni  Ni3  1  0.00262117  0.33225116  0.99963274  1
  Ni  Ni4  1  0.16643662  0.49903412  0.16697105  1
  Ni  Ni5  1  0.99946922  0.33411766  0.33567390  1
  Fe  Fe6  1  0.00223169  0.66818448  0.99898487  1
  Fe  Fe7  1  0.16550594  0.83498248  0.16626892  1
  Ni  Ni8  1  1.00005980  0.66574377  0.33346723  1
  Ni  Ni9  1  0.33227710  0.00282135  1.00033424  1
  Cr  Cr10  1  0.50162154  0.16711885  0.16469278  1
  Cr  Cr11  1  0.33388252  0.99955960  0.33461315  1
  Ni  Ni12  1  0.33156014  0.33348289  1.00005294  1
  Ni  Ni13  1  0.50062664  0.50176890  0.16764851  1
  Cr  Cr14  1  0.33098813  0.33432404  0.33355228  1
  Cr  Cr15  1  0.33249962  0.66579286  0.00259610  1
  Ni  Ni16  1  0.50257923  0.83412557  0.16848204  1
  Cr  Cr17  1  0.33313490  0.66801907  0.33268310  1
  Ni  Ni18  1  0.66941694  0.00145818  0.00069277  1
  Ni  Ni19  1  0.83617144  0.16540464  0.16838806  1
  Ni  Ni20  1  0.66861679  1.00008669  0.33380233  1
  Fe  Fe21  1  0.66757792  0.33150232  0.99923381  1
  Cr  Cr22  1  0.83464932  0.49917741  0.16883425  1
  Ni  Ni23  1  0.67097879  0.33320659  0.33467469  1
  Cr  Cr24  1  0.66859427  0.66830028  0.00085069  1
  Fe  Fe25  1  0.83413228  0.83647105  0.16792239  1
  Ni  Ni26  1  0.66851695  0.66859510  0.33335248  1
  Ni  Ni27  1  0.16563849  0.16530429  0.50042411  1
  Ni  Ni28  1  0.00394201  0.99878485  0.66801461  1
  Ni  Ni29  1  0.16660096  0.16543899  0.83586522  1
  Ni  Ni30  1  0.16367118  0.50114154  0.50032531  1
  Cr  Cr31  1  0.00083398  0.33449024  0.66655744  1
  Ni  Ni32  1  0.16651049  0.50044550  0.83457498  1
  Ni  Ni33  1  0.16784266  0.83545377  0.50280003  1
  Ni  Ni34  1  0.00098749  0.66811506  0.66920416  1
  Ni  Ni35  1  0.16485690  0.83612470  0.83247511  1
  Fe  Fe36  1  0.50055959  0.16492777  0.49959890  1
  Ni  Ni37  1  0.33130388  0.99946737  0.66637199  1
  Fe  Fe38  1  0.49929926  0.16798716  0.83673668  1
  Cr  Cr39  1  0.50325270  0.50317337  0.49981393  1
  Cr  Cr40  1  0.33211495  0.33276619  0.66792685  1
  Ni  Ni41  1  0.50130644  0.49927013  0.83441627  1
  Ni  Ni42  1  0.50005711  0.83505628  0.50130851  1
  Fe  Fe43  1  0.33169202  0.66932476  0.66718476  1
  Cr  Cr44  1  0.49963646  0.83466383  0.83151626  1
  Fe  Fe45  1  0.83555057  0.16801193  0.49799105  1
  Cr  Cr46  1  0.66761951  1.00010881  0.66764113  1
  Ni  Ni47  1  0.83571540  0.16646262  0.83643877  1
  Ni  Ni48  1  0.83506481  0.50056208  0.49904971  1
  Cr  Cr49  1  0.66897736  0.33512607  0.66894023  1
  Ni  Ni50  1  0.83409024  0.50106697  0.83392165  1
  Cr  Cr51  1  0.83410806  0.83227592  0.49998715  1
  Ni  Ni52  1  0.66872313  0.66696907  0.66767355  1
  Ni  Ni53  1  0.83672775  0.83440696  0.83430582  1
" 