1883,Ni58Fe16Cr24_10,-230.794882925539, 179.8291328086,Ni58Fe16Cr24,"# generated using pymatgen
 data_Cr14Fe9Ni31
_symmetry_space_group_name_H-M   'P 1'
_cell_length_a   7.45717626
_cell_length_b   7.45717626
_cell_length_c   10.54603980
_cell_angle_alpha   90.00000000
_cell_angle_beta   90.00000000
_cell_angle_gamma   90.00000000
_symmetry_Int_Tables_number   1
_chemical_formula_structural   Cr14Fe9Ni31
_chemical_formula_sum   'Cr14 Fe9 Ni31'
_cell_volume   586.45976521
_cell_formula_units_Z   1
loop_
 _symmetry_equiv_pos_site_id
 _symmetry_equiv_pos_as_xyz
  1  'x, y, z'
loop_
 _atom_site_type_symbol
 _atom_site_label
 _atom_site_symmetry_multiplicity
 _atom_site_fract_x
 _atom_site_fract_y
 _atom_site_fract_z
 _atom_site_occupancy
  Ni  Ni0  1  0.00352432  0.00299878  0.99997772  1
  Ni  Ni1  1  0.16970905  0.16863908  0.16535581  1
  Cr  Cr2  1  0.00477432  0.99937992  0.33346258  1
  Ni  Ni3  1  0.00214071  0.33123021  0.99936686  1
  Ni  Ni4  1  0.16961600  0.49975699  0.16893308  1
  Ni  Ni5  1  0.00255734  0.33535281  0.33663284  1
  Cr  Cr6  1  0.00162507  0.66886271  0.00446781  1
  Ni  Ni7  1  0.17000229  0.83358801  0.16800717  1
  Ni  Ni8  1  0.00408869  0.66570888  0.33471934  1
  Ni  Ni9  1  0.33237371  1.00004728  0.00262092  1
  Ni  Ni10  1  0.49737389  0.16893244  0.16866721  1
  Ni  Ni11  1  0.33312778  1.00062114  0.33420791  1
  Fe  Fe12  1  0.33372520  0.33454534  0.00244880  1
  Ni  Ni13  1  0.49802215  0.49951017  0.16526351  1
  Fe  Fe14  1  0.33349542  0.33495282  0.33434633  1
  Ni  Ni15  1  0.33703488  0.66761476  0.00121291  1
  Ni  Ni16  1  0.49728646  0.83377597  0.16648736  1
  Ni  Ni17  1  0.33291506  0.66734577  0.33490501  1
  Cr  Cr18  1  0.66715850  0.99884170  0.00096189  1
  Cr  Cr19  1  0.83368591  0.16867605  0.16728290  1
  Cr  Cr20  1  0.66361180  0.00106868  0.33564913  1
  Ni  Ni21  1  0.66578819  0.33574336  0.00108312  1
  Cr  Cr22  1  0.83469219  0.49960330  0.16827114  1
  Ni  Ni23  1  0.66504616  0.33523198  0.33548335  1
  Ni  Ni24  1  0.66292987  0.66609546  1.00003830  1
  Ni  Ni25  1  0.83466611  0.83340807  0.16555965  1
  Cr  Cr26  1  0.66504408  0.66584711  0.33309031  1
  Ni  Ni27  1  0.16902401  0.17002802  0.50090463  1
  Cr  Cr28  1  1.00014025  0.00122312  0.66790912  1
  Fe  Fe29  1  0.16646117  0.16657365  0.83547990  1
  Ni  Ni30  1  0.16710934  0.50068517  0.50090483  1
  Fe  Fe31  1  0.00090561  0.33403639  0.66586515  1
  Cr  Cr32  1  0.16971443  0.49950747  0.83266242  1
  Ni  Ni33  1  0.16766981  0.83187637  0.49959533  1
  Ni  Ni34  1  1.00022487  0.66624290  0.66403988  1
  Cr  Cr35  1  0.16895585  0.83241837  0.83445307  1
  Ni  Ni36  1  0.49970060  0.16815654  0.49880518  1
  Cr  Cr37  1  0.33469531  0.00131820  0.66507732  1
  Cr  Cr38  1  0.49959716  0.16705308  0.83546681  1
  Ni  Ni39  1  0.49858494  0.50045998  0.50151030  1
  Fe  Fe40  1  0.33351935  0.33522097  0.66495341  1
  Fe  Fe41  1  0.50145014  0.50328029  0.83453992  1
  Ni  Ni42  1  0.50075751  0.83369610  0.50203315  1
  Fe  Fe43  1  0.33586207  0.66668850  0.66513062  1
  Ni  Ni44  1  0.50201457  0.83296561  0.83295853  1
  Fe  Fe45  1  0.83424300  0.16775266  0.50027895  1
  Ni  Ni46  1  0.66709453  0.99985342  0.66622106  1
  Ni  Ni47  1  0.83401123  0.16718241  0.83408347  1
  Fe  Fe48  1  0.83449294  0.50186704  0.49996674  1
  Cr  Cr49  1  0.66642678  0.33424729  0.66554534  1
  Cr  Cr50  1  0.83463957  0.50156663  0.83473777  1
  Ni  Ni51  1  0.83387596  0.83197547  0.50296349  1
  Ni  Ni52  1  0.66665792  0.66778561  0.66766942  1
  Ni  Ni53  1  0.83189690  0.83470090  0.83348220  1
" 