7340,Ni58Fe23Cr18_3,-233.851491692859, 190.906927385522,Ni58Fe23Cr18,"# generated using pymatgen
 data_Cr11Fe12Ni31
_symmetry_space_group_name_H-M   'P 1'
_cell_length_a   7.45204171
_cell_length_b   7.45204171
_cell_length_c   10.53877845
_cell_angle_alpha   90.00000000
_cell_angle_beta   90.00000000
_cell_angle_gamma   90.00000000
_symmetry_Int_Tables_number   1
_chemical_formula_structural   Cr11Fe12Ni31
_chemical_formula_sum   'Cr11 Fe12 Ni31'
_cell_volume   585.24919987
_cell_formula_units_Z   1
loop_
 _symmetry_equiv_pos_site_id
 _symmetry_equiv_pos_as_xyz
  1  'x, y, z'
loop_
 _atom_site_type_symbol
 _atom_site_label
 _atom_site_symmetry_multiplicity
 _atom_site_fract_x
 _atom_site_fract_y
 _atom_site_fract_z
 _atom_site_occupancy
  Fe  Fe0  1  0.99967413  1.00017859  0.00236660  1
  Ni  Ni1  1  0.16879073  0.16631612  0.16997931  1
  Ni  Ni2  1  1.00002675  0.00338743  0.33294150  1
  Cr  Cr3  1  0.99986110  0.33179540  0.00354899  1
  Fe  Fe4  1  0.16713355  0.49945327  0.17071192  1
  Ni  Ni5  1  0.00184903  0.33299243  0.33414354  1
  Fe  Fe6  1  0.99991748  0.66845381  0.00315303  1
  Cr  Cr7  1  0.16722800  0.83472570  0.16841959  1
  Ni  Ni8  1  0.00249719  0.66647457  0.33362708  1
  Fe  Fe9  1  0.33657089  0.99964973  1.00027212  1
  Ni  Ni10  1  0.50103557  0.16846907  0.16885061  1
  Fe  Fe11  1  0.33493757  0.00290146  0.33561765  1
  Cr  Cr12  1  0.33610455  0.33452679  0.00194307  1
  Ni  Ni13  1  0.50143916  0.50020370  0.16743240  1
  Ni  Ni14  1  0.33358866  0.33502886  0.33345322  1
  Fe  Fe15  1  0.33704271  0.66899466  1.00066523  1
  Fe  Fe16  1  0.50299327  0.83578970  0.16667612  1
  Ni  Ni17  1  0.33432775  0.66595504  0.33395261  1
  Fe  Fe18  1  0.66682336  0.00244745  0.00193099  1
  Ni  Ni19  1  0.83322753  0.16668572  0.16898299  1
  Ni  Ni20  1  0.66815213  0.00271588  0.33264787  1
  Fe  Fe21  1  0.66681123  0.33440615  0.00208551  1
  Ni  Ni22  1  0.83298107  0.50189700  0.16847718  1
  Ni  Ni23  1  0.66750891  0.33262700  0.33323812  1
  Ni  Ni24  1  0.66551775  0.66956546  0.00264723  1
  Ni  Ni25  1  0.83484954  0.83453495  0.16669113  1
  Cr  Cr26  1  0.66629695  0.66772297  0.33375614  1
  Ni  Ni27  1  0.16870049  0.16765914  0.49875087  1
  Cr  Cr28  1  0.00151367  0.00384219  0.66765190  1
  Cr  Cr29  1  0.16859308  0.16449093  0.83375277  1
  Ni  Ni30  1  0.16760489  0.50206007  0.49921324  1
  Ni  Ni31  1  0.99873831  0.33387523  0.66502340  1
  Cr  Cr32  1  0.16825894  0.50514852  0.83328510  1
  Fe  Fe33  1  0.17018864  0.83352471  0.50007249  1
  Fe  Fe34  1  0.00249311  0.66651976  0.66503457  1
  Ni  Ni35  1  0.17037502  0.83358201  0.83437210  1
  Ni  Ni36  1  0.50140425  0.16740181  0.50036895  1
  Ni  Ni37  1  0.33647336  0.99763735  0.66765422  1
  Ni  Ni38  1  0.50408522  0.16601886  0.83401122  1
  Ni  Ni39  1  0.50052515  0.50021112  0.50165351  1
  Cr  Cr40  1  0.33492812  0.33452118  0.66700237  1
  Ni  Ni41  1  0.50275636  0.50264010  0.83431923  1
  Fe  Fe42  1  0.49913627  0.83509869  0.50260412  1
  Ni  Ni43  1  0.33654262  0.67018979  0.66867166  1
  Ni  Ni44  1  0.49915685  0.83443715  0.83438385  1
  Ni  Ni45  1  0.83287254  0.16958852  0.50017136  1
  Ni  Ni46  1  0.66504701  0.00165484  0.66904333  1
  Ni  Ni47  1  0.83032750  0.16733391  0.83414745  1
  Ni  Ni48  1  0.83495450  0.49910749  0.50219546  1
  Ni  Ni49  1  0.66873812  0.33373219  0.66860083  1
  Cr  Cr50  1  0.83154681  0.50029369  0.83136072  1
  Cr  Cr51  1  0.83424751  0.83428724  0.50055950  1
  Ni  Ni52  1  0.66361644  0.66746133  0.66732888  1
  Cr  Cr53  1  0.83435754  0.83415219  0.83492404  1
" 