8298,Ni58Fe33Cr8_15,-238.213332730458, 209.547540347939,Ni58Fe33Cr8,"# generated using pymatgen
 data_Cr5Fe18Ni31
_symmetry_space_group_name_H-M   'P 1'
_cell_length_a   7.42090749
_cell_length_b   7.42090749
_cell_length_c   10.49474802
_cell_angle_alpha   90.00000000
_cell_angle_beta   90.00000000
_cell_angle_gamma   90.00000000
_symmetry_Int_Tables_number   1
_chemical_formula_structural   Cr5Fe18Ni31
_chemical_formula_sum   'Cr5 Fe18 Ni31'
_cell_volume   577.94438828
_cell_formula_units_Z   1
loop_
 _symmetry_equiv_pos_site_id
 _symmetry_equiv_pos_as_xyz
  1  'x, y, z'
loop_
 _atom_site_type_symbol
 _atom_site_label
 _atom_site_symmetry_multiplicity
 _atom_site_fract_x
 _atom_site_fract_y
 _atom_site_fract_z
 _atom_site_occupancy
  Fe  Fe0  1  1.00310187  0.00387807  1.00270762  1
  Ni  Ni1  1  0.16986002  0.16833083  0.17077467  1
  Ni  Ni2  1  1.00057572  0.00494960  0.33600312  1
  Ni  Ni3  1  0.00357704  0.33581909  1.00259245  1
  Fe  Fe4  1  0.17044622  0.50136065  0.16824850  1
  Ni  Ni5  1  1.00209609  0.33408640  0.33629710  1
  Ni  Ni6  1  0.00367019  0.66963715  0.00357144  1
  Ni  Ni7  1  0.16859142  0.83724603  0.16864435  1
  Cr  Cr8  1  0.00403790  0.66921060  0.33468248  1
  Fe  Fe9  1  0.33620654  0.00438808  1.00287130  1
  Ni  Ni10  1  0.50343314  0.16963151  0.16932222  1
  Fe  Fe11  1  0.33468935  1.00296408  0.33520179  1
  Ni  Ni12  1  0.33571730  0.33568739  1.00224956  1
  Cr  Cr13  1  0.50467079  0.50184433  0.16871951  1
  Fe  Fe14  1  0.33466183  0.33469486  0.33505387  1
  Ni  Ni15  1  0.33585138  0.67074042  1.00223458  1
  Fe  Fe16  1  0.50175296  0.83876064  0.16917972  1
  Ni  Ni17  1  0.33881174  0.67074455  0.33577893  1
  Ni  Ni18  1  0.66901119  0.00381399  1.00255436  1
  Fe  Fe19  1  0.83628030  0.16946227  0.16934707  1
  Ni  Ni20  1  0.66955979  0.00335711  0.33613567  1
  Ni  Ni21  1  0.67044705  0.33467950  1.00233543  1
  Fe  Fe22  1  0.83812116  0.50094635  0.16720811  1
  Fe  Fe23  1  0.67231721  0.33595029  0.33630532  1
  Ni  Ni24  1  0.66976386  0.67126195  1.00293615  1
  Fe  Fe25  1  0.83538484  0.83899808  0.16842690  1
  Fe  Fe26  1  0.67080831  0.67121749  0.33662269  1
  Ni  Ni27  1  0.16860415  0.16956347  0.50285857  1
  Ni  Ni28  1  1.00189867  0.00436369  0.66997973  1
  Ni  Ni29  1  0.17000343  0.17017972  0.83497340  1
  Cr  Cr30  1  0.17149494  0.50101377  0.50413561  1
  Ni  Ni31  1  1.00190777  0.33504495  0.67044885  1
  Ni  Ni32  1  0.16999955  0.50336418  0.83738804  1
  Cr  Cr33  1  0.16789195  0.83907739  0.50492382  1
  Ni  Ni34  1  1.00256380  0.66965935  0.67149358  1
  Fe  Fe35  1  0.16884783  0.83648514  0.83613511  1
  Cr  Cr36  1  0.50194732  0.17107153  0.50324937  1
  Ni  Ni37  1  0.33721202  0.00325645  0.67096831  1
  Ni  Ni38  1  0.50316640  0.17092493  0.83739423  1
  Fe  Fe39  1  0.50489842  0.50474994  0.50410371  1
  Ni  Ni40  1  0.33685837  0.33613784  0.67101944  1
  Ni  Ni41  1  0.50326770  0.50248819  0.83639415  1
  Fe  Fe42  1  0.50366865  0.83637573  0.50320687  1
  Ni  Ni43  1  0.33801274  0.67012612  0.67154857  1
  Fe  Fe44  1  0.50371272  0.83666117  0.83702856  1
  Ni  Ni45  1  0.83642281  0.16798217  0.50292197  1
  Fe  Fe46  1  0.67063207  0.00338958  0.67095735  1
  Ni  Ni47  1  0.83621245  0.16893395  0.83685188  1
  Fe  Fe48  1  0.83604983  0.50130170  0.50469647  1
  Ni  Ni49  1  0.67067627  0.33570576  0.67083217  1
  Ni  Ni50  1  0.83608428  0.50396398  0.83706455  1
  Ni  Ni51  1  0.83462169  0.83668305  0.50336303  1
  Fe  Fe52  1  0.67040169  0.66947591  0.67089870  1
  Ni  Ni53  1  0.83737208  0.83623381  0.83703383  1
" 