5356,Ni58Fe23Cr18_11,-233.531980743257, 194.193158535311,Ni58Fe23Cr18,"# generated using pymatgen
 data_Cr11Fe12Ni31
_symmetry_space_group_name_H-M   'P 1'
_cell_length_a   7.44406367
_cell_length_b   7.44406367
_cell_length_c   10.52749580
_cell_angle_alpha   90.00000000
_cell_angle_beta   90.00000000
_cell_angle_gamma   90.00000000
_symmetry_Int_Tables_number   1
_chemical_formula_structural   Cr11Fe12Ni31
_chemical_formula_sum   'Cr11 Fe12 Ni31'
_cell_volume   583.37153641
_cell_formula_units_Z   1
loop_
 _symmetry_equiv_pos_site_id
 _symmetry_equiv_pos_as_xyz
  1  'x, y, z'
loop_
 _atom_site_type_symbol
 _atom_site_label
 _atom_site_symmetry_multiplicity
 _atom_site_fract_x
 _atom_site_fract_y
 _atom_site_fract_z
 _atom_site_occupancy
  Cr  Cr0  1  0.99992365  0.00346600  0.99914445  1
  Ni  Ni1  1  0.16900684  0.17222548  0.16955461  1
  Fe  Fe2  1  1.00058582  0.00267436  0.33593844  1
  Ni  Ni3  1  1.00128508  0.33487180  0.00247461  1
  Ni  Ni4  1  0.16727682  0.49792673  0.16882728  1
  Fe  Fe5  1  1.00061836  0.33408441  0.33390839  1
  Cr  Cr6  1  0.99864097  0.66612244  0.00160073  1
  Cr  Cr7  1  0.16938090  0.83384133  0.17141822  1
  Fe  Fe8  1  0.99909996  0.66773971  0.33471899  1
  Cr  Cr9  1  0.33707467  0.00211411  0.00220887  1
  Ni  Ni10  1  0.50163585  0.16701700  0.16989521  1
  Ni  Ni11  1  0.33572183  0.00246017  0.33542092  1
  Ni  Ni12  1  0.33315162  0.33455450  0.00180958  1
  Cr  Cr13  1  0.50121145  0.50187617  0.16779725  1
  Ni  Ni14  1  0.33440082  0.33248374  0.33548725  1
  Fe  Fe15  1  0.33736560  0.66776888  1.00069185  1
  Ni  Ni16  1  0.50498733  0.83635442  0.16840621  1
  Ni  Ni17  1  0.33548967  0.66971236  0.33516152  1
  Ni  Ni18  1  0.66844930  0.99934810  0.00262826  1
  Fe  Fe19  1  0.83352571  0.16871781  0.16877321  1
  Ni  Ni20  1  0.66772669  1.00096260  0.33425165  1
  Fe  Fe21  1  0.67009684  0.33497901  1.00132696  1
  Ni  Ni22  1  0.83604547  0.50128574  0.16928682  1
  Ni  Ni23  1  0.66972358  0.33436129  0.33544008  1
  Ni  Ni24  1  0.66870665  0.66950810  0.99980514  1
  Ni  Ni25  1  0.83078723  0.83460936  0.17006608  1
  Ni  Ni26  1  0.67006845  0.66925785  0.33633379  1
  Ni  Ni27  1  0.16835011  0.16765170  0.50041511  1
  Fe  Fe28  1  1.00035587  0.00257578  0.66852006  1
  Ni  Ni29  1  0.16647789  0.16861432  0.83462159  1
  Cr  Cr30  1  0.17040846  0.50053278  0.49933404  1
  Cr  Cr31  1  0.99917588  0.33290557  0.66945695  1
  Cr  Cr32  1  0.17124091  0.49992247  0.83692113  1
  Fe  Fe33  1  0.16762692  0.83631394  0.50027017  1
  Cr  Cr34  1  0.99912308  0.67073177  0.66872992  1
  Ni  Ni35  1  0.16897290  0.83565485  0.83269704  1
  Fe  Fe36  1  0.50350580  0.16905891  0.49982316  1
  Cr  Cr37  1  0.33398543  1.00109758  0.66760973  1
  Cr  Cr38  1  0.50306834  0.17006576  0.83482671  1
  Fe  Fe39  1  0.50375444  0.50127869  0.50170644  1
  Ni  Ni40  1  0.33762727  0.33490856  0.66711357  1
  Ni  Ni41  1  0.50265698  0.50343080  0.83374052  1
  Ni  Ni42  1  0.50286339  0.83406050  0.50020719  1
  Ni  Ni43  1  0.33768375  0.66930231  0.66935387  1
  Ni  Ni44  1  0.50353701  0.83149840  0.83608952  1
  Ni  Ni45  1  0.83441531  0.16712109  0.50087156  1
  Fe  Fe46  1  0.66992586  1.00092989  0.66748093  1
  Ni  Ni47  1  0.83516318  0.16765858  0.83517970  1
  Ni  Ni48  1  0.83198787  0.50148605  0.49988918  1
  Ni  Ni49  1  0.66825479  0.33592138  0.66776460  1
  Ni  Ni50  1  0.83091313  0.50073115  0.83568113  1
  Ni  Ni51  1  0.83237452  0.83611124  0.50100657  1
  Fe  Fe52  1  0.66589334  0.66723233  0.66829495  1
  Ni  Ni53  1  0.83203436  0.83624403  0.83338221  1
" 