2174,Ni58Fe16Cr24_7,-230.57050380489, 181.315736370889,Ni58Fe16Cr24,"# generated using pymatgen
 data_Cr14Fe9Ni31
_symmetry_space_group_name_H-M   'P 1'
_cell_length_a   7.45526820
_cell_length_b   7.45526820
_cell_length_c   10.54334140
_cell_angle_alpha   90.00000000
_cell_angle_beta   90.00000000
_cell_angle_gamma   90.00000000
_symmetry_Int_Tables_number   1
_chemical_formula_structural   Cr14Fe9Ni31
_chemical_formula_sum   'Cr14 Fe9 Ni31'
_cell_volume   586.00971033
_cell_formula_units_Z   1
loop_
 _symmetry_equiv_pos_site_id
 _symmetry_equiv_pos_as_xyz
  1  'x, y, z'
loop_
 _atom_site_type_symbol
 _atom_site_label
 _atom_site_symmetry_multiplicity
 _atom_site_fract_x
 _atom_site_fract_y
 _atom_site_fract_z
 _atom_site_occupancy
  Ni  Ni0  1  0.00137839  0.99999561  1.00003739  1
  Ni  Ni1  1  0.16857987  0.16711987  0.16706530  1
  Ni  Ni2  1  0.00275620  0.99937536  0.33520420  1
  Ni  Ni3  1  0.00219330  0.33424699  1.00038184  1
  Fe  Fe4  1  0.16810157  0.50136941  0.16657686  1
  Ni  Ni5  1  0.00195853  0.33304882  0.33451955  1
  Ni  Ni6  1  0.00359421  0.66812744  0.99972695  1
  Ni  Ni7  1  0.16865313  0.83373513  0.16746752  1
  Ni  Ni8  1  0.00386703  0.66994651  0.33496000  1
  Ni  Ni9  1  0.33427557  0.00115371  0.00187756  1
  Ni  Ni10  1  0.49983704  0.16829413  0.16617665  1
  Fe  Fe11  1  0.33161565  0.00111935  0.33381749  1
  Ni  Ni12  1  0.33475940  0.33438494  0.00161533  1
  Fe  Fe13  1  0.49791249  0.49843583  0.16649633  1
  Cr  Cr14  1  0.33462570  0.33357007  0.33507540  1
  Ni  Ni15  1  0.33220036  0.66682986  1.00019233  1
  Cr  Cr16  1  0.49721459  0.83550551  0.16724730  1
  Ni  Ni17  1  0.33155006  0.66764928  0.33408931  1
  Ni  Ni18  1  0.66671444  0.00255678  0.99838377  1
  Cr  Cr19  1  0.83442558  0.16866936  0.16790250  1
  Fe  Fe20  1  0.66738404  0.00313313  0.33448625  1
  Fe  Fe21  1  0.66590328  0.33205012  0.99953607  1
  Cr  Cr22  1  0.83615079  0.49875969  0.16723242  1
  Ni  Ni23  1  0.66539275  0.33267428  0.33337245  1
  Cr  Cr24  1  0.66720419  0.66756563  0.99831292  1
  Cr  Cr25  1  0.83678167  0.83493990  0.16826965  1
  Cr  Cr26  1  0.66723425  0.66657684  0.33537626  1
  Ni  Ni27  1  0.16758335  0.16839330  0.50082506  1
  Ni  Ni28  1  0.99906458  0.00092943  0.66712931  1
  Cr  Cr29  1  0.16578158  0.16880783  0.83416049  1
  Ni  Ni30  1  0.16789498  0.49981705  0.49961759  1
  Ni  Ni31  1  0.00115858  0.33234776  0.66746751  1
  Ni  Ni32  1  0.16817133  0.50077434  0.83620107  1
  Ni  Ni33  1  0.16586812  0.83416015  0.49786618  1
  Cr  Cr34  1  0.99951176  0.66948089  0.66811502  1
  Ni  Ni35  1  0.16710450  0.83254307  0.83703780  1
  Ni  Ni36  1  0.50057664  0.16888922  0.50098914  1
  Cr  Cr37  1  0.33267481  0.00280507  0.66719797  1
  Fe  Fe38  1  0.50251936  0.16784038  0.83500470  1
  Fe  Fe39  1  0.49965149  0.49852439  0.50213990  1
  Ni  Ni40  1  0.33584487  0.33426608  0.66580967  1
  Ni  Ni41  1  0.50060711  0.50068992  0.83360338  1
  Cr  Cr42  1  0.50135335  0.83441847  0.50005772  1
  Cr  Cr43  1  0.33502456  0.66532069  0.66803558  1
  Ni  Ni44  1  0.50228796  0.83324172  0.83521776  1
  Cr  Cr45  1  0.83473088  0.16717051  0.50017917  1
  Fe  Fe46  1  0.66950048  0.00111763  0.66941297  1
  Ni  Ni47  1  0.83289062  0.16737156  0.83433975  1
  Cr  Cr48  1  0.83499689  0.50032984  0.50117637  1
  Ni  Ni49  1  0.66536733  0.33457313  0.66897714  1
  Fe  Fe50  1  0.83447099  0.50006274  0.83385400  1
  Ni  Ni51  1  0.83520191  0.83496779  0.50051763  1
  Ni  Ni52  1  0.66758029  0.66705378  0.66853228  1
  Ni  Ni53  1  0.83297791  0.83593004  0.83379552  1
" 