3614,Ni58Fe23Cr18_14,-233.548748735556, 192.402615833623,Ni58Fe23Cr18,"# generated using pymatgen
 data_Cr11Fe12Ni31
_symmetry_space_group_name_H-M   'P 1'
_cell_length_a   7.44682642
_cell_length_b   7.44682642
_cell_length_c   10.53140292
_cell_angle_alpha   90.00000000
_cell_angle_beta   90.00000000
_cell_angle_gamma   90.00000000
_symmetry_Int_Tables_number   1
_chemical_formula_structural   Cr11Fe12Ni31
_chemical_formula_sum   'Cr11 Fe12 Ni31'
_cell_volume   584.02130583
_cell_formula_units_Z   1
loop_
 _symmetry_equiv_pos_site_id
 _symmetry_equiv_pos_as_xyz
  1  'x, y, z'
loop_
 _atom_site_type_symbol
 _atom_site_label
 _atom_site_symmetry_multiplicity
 _atom_site_fract_x
 _atom_site_fract_y
 _atom_site_fract_z
 _atom_site_occupancy
  Cr  Cr0  1  0.99971642  1.00129534  0.00178448  1
  Ni  Ni1  1  0.16852930  0.16982087  0.16956653  1
  Ni  Ni2  1  0.00172023  0.00449120  0.33379272  1
  Ni  Ni3  1  0.00481393  0.33523692  1.00097590  1
  Ni  Ni4  1  0.16894781  0.50013821  0.16658131  1
  Ni  Ni5  1  0.00253212  0.33105345  0.33479199  1
  Ni  Ni6  1  0.00291895  0.66769279  0.00148602  1
  Ni  Ni7  1  0.16810503  0.83411282  0.16881490  1
  Cr  Cr8  1  0.00375310  0.66900472  0.33438235  1
  Cr  Cr9  1  0.33492420  0.00269009  0.99999552  1
  Ni  Ni10  1  0.50101101  0.16840938  0.16955178  1
  Ni  Ni11  1  0.33416187  0.00189034  0.33600055  1
  Ni  Ni12  1  0.33276085  0.33708228  0.00210242  1
  Fe  Fe13  1  0.49769652  0.50100400  0.16887779  1
  Fe  Fe14  1  0.33465606  0.33441364  0.33395550  1
  Ni  Ni15  1  0.33343589  0.66462440  1.00054379  1
  Cr  Cr16  1  0.50158952  0.83485453  0.16871572  1
  Ni  Ni17  1  0.33600049  0.66737941  0.33590404  1
  Ni  Ni18  1  0.66956030  1.00046753  1.00050909  1
  Fe  Fe19  1  0.83575057  0.16635072  0.16974847  1
  Ni  Ni20  1  0.66819516  0.00298560  0.33429078  1
  Cr  Cr21  1  0.66619895  0.33273648  0.00150783  1
  Cr  Cr22  1  0.83536861  0.50166422  0.16763285  1
  Fe  Fe23  1  0.66674388  0.33283768  0.33482793  1
  Ni  Ni24  1  0.66771437  0.67025719  1.00070610  1
  Fe  Fe25  1  0.83498383  0.83639226  0.16758755  1
  Ni  Ni26  1  0.66444505  0.66819529  0.33475128  1
  Fe  Fe27  1  0.16861276  0.16824464  0.50071917  1
  Cr  Cr28  1  0.00149934  0.00343636  0.66860027  1
  Ni  Ni29  1  0.16887718  0.17057117  0.83393331  1
  Fe  Fe30  1  0.17113495  0.50039056  0.50169188  1
  Ni  Ni31  1  0.00301552  0.33299771  0.66830420  1
  Ni  Ni32  1  0.16986146  0.50021896  0.83584013  1
  Ni  Ni33  1  0.17343556  0.83599484  0.50030626  1
  Cr  Cr34  1  0.00326310  0.66727731  0.66834068  1
  Ni  Ni35  1  0.17021860  0.83328137  0.83495030  1
  Fe  Fe36  1  0.50154157  0.16666431  0.50115149  1
  Ni  Ni37  1  0.33681430  0.00167532  0.66770790  1
  Fe  Fe38  1  0.50077640  0.16731008  0.83372924  1
  Ni  Ni39  1  0.50050922  0.50246827  0.50068794  1
  Ni  Ni40  1  0.33429962  0.33504617  0.66817764  1
  Fe  Fe41  1  0.49837970  0.50260857  0.83353685  1
  Ni  Ni42  1  0.49883064  0.83407816  0.50199348  1
  Ni  Ni43  1  0.33688447  0.66735090  0.66762357  1
  Fe  Fe44  1  0.50218834  0.83415534  0.83341143  1
  Ni  Ni45  1  0.83431015  0.16978832  0.50028850  1
  Ni  Ni46  1  0.66595251  0.00194470  0.66927460  1
  Ni  Ni47  1  0.83390422  0.16742295  0.83423497  1
  Cr  Cr48  1  0.83312665  0.49813531  0.50272019  1
  Fe  Fe49  1  0.66634212  0.33313208  0.66776327  1
  Cr  Cr50  1  0.83557682  0.50123406  0.83372154  1
  Cr  Cr51  1  0.83234488  0.83640465  0.50019537  1
  Ni  Ni52  1  0.66390407  0.66905812  0.66861416  1
  Ni  Ni53  1  0.83147790  0.83534444  0.83641252  1
" 