6756,Ni58Fe16Cr24_13,-231.116240858703, 180.823967074966,Ni58Fe16Cr24,"# generated using pymatgen
 data_Cr14Fe9Ni31
_symmetry_space_group_name_H-M   'P 1'
_cell_length_a   7.45760781
_cell_length_b   7.45760781
_cell_length_c   10.54665011
_cell_angle_alpha   90.00000000
_cell_angle_beta   90.00000000
_cell_angle_gamma   90.00000000
_symmetry_Int_Tables_number   1
_chemical_formula_structural   Cr14Fe9Ni31
_chemical_formula_sum   'Cr14 Fe9 Ni31'
_cell_volume   586.56158788
_cell_formula_units_Z   1
loop_
 _symmetry_equiv_pos_site_id
 _symmetry_equiv_pos_as_xyz
  1  'x, y, z'
loop_
 _atom_site_type_symbol
 _atom_site_label
 _atom_site_symmetry_multiplicity
 _atom_site_fract_x
 _atom_site_fract_y
 _atom_site_fract_z
 _atom_site_occupancy
  Ni  Ni0  1  0.00228001  0.00072887  0.00179903  1
  Ni  Ni1  1  0.16665751  0.16445964  0.16674828  1
  Ni  Ni2  1  0.00150508  0.00135086  0.33232939  1
  Ni  Ni3  1  0.00124263  0.33204426  1.00012781  1
  Cr  Cr4  1  0.16665162  0.50172862  0.16733638  1
  Ni  Ni5  1  0.99838695  0.33130187  0.33390050  1
  Ni  Ni6  1  0.00337872  0.66912814  0.99919071  1
  Ni  Ni7  1  0.16730389  0.83567837  0.16823106  1
  Ni  Ni8  1  0.00177022  0.66924799  0.33359642  1
  Ni  Ni9  1  0.33367204  1.00039365  0.00064816  1
  Ni  Ni10  1  0.50189346  0.16511578  0.16740072  1
  Ni  Ni11  1  0.33422506  0.99885943  0.33330854  1
  Fe  Fe12  1  0.33403848  0.33212125  0.99849558  1
  Cr  Cr13  1  0.50043385  0.50010543  0.16792875  1
  Fe  Fe14  1  0.33531794  0.33221594  0.33395670  1
  Ni  Ni15  1  0.33257615  0.66946170  0.99803594  1
  Fe  Fe16  1  0.49916803  0.83731206  0.16830966  1
  Ni  Ni17  1  0.33504348  0.67065498  0.33590611  1
  Ni  Ni18  1  0.66594696  0.00252971  1.00041416  1
  Ni  Ni19  1  0.83334862  0.16595236  0.16798609  1
  Ni  Ni20  1  0.66616694  0.00224247  0.33418613  1
  Ni  Ni21  1  0.66627928  0.33095035  0.00065298  1
  Cr  Cr22  1  0.83481253  0.49943490  0.16819280  1
  Ni  Ni23  1  0.66757380  0.33212293  0.33512794  1
  Cr  Cr24  1  0.66606245  0.66791402  1.00007242  1
  Fe  Fe25  1  0.83543280  0.83724559  0.16830250  1
  Ni  Ni26  1  0.66508465  0.66753738  0.33416087  1
  Cr  Cr27  1  0.16645444  0.16738454  0.49938216  1
  Cr  Cr28  1  0.00099506  1.00006631  0.66763719  1
  Fe  Fe29  1  0.16967697  0.16911799  0.83565498  1
  Cr  Cr30  1  0.16784896  0.50279039  0.50087299  1
  Ni  Ni31  1  0.00237144  0.33462253  0.66786871  1
  Ni  Ni32  1  0.16855927  0.50224033  0.83330871  1
  Ni  Ni33  1  0.17000804  0.83177669  0.49897127  1
  Ni  Ni34  1  0.00390765  0.66711513  0.66911378  1
  Ni  Ni35  1  0.16832741  0.83072333  0.83469687  1
  Fe  Fe36  1  0.50218339  0.16635981  0.49894991  1
  Cr  Cr37  1  0.33498959  0.99939529  0.66776101  1
  Ni  Ni38  1  0.50034046  0.16665710  0.83508870  1
  Fe  Fe39  1  0.49914033  0.50152310  0.49941112  1
  Ni  Ni40  1  0.33425749  0.33569852  0.66936562  1
  Ni  Ni41  1  0.49626537  0.50025458  0.83399925  1
  Ni  Ni42  1  0.49900051  0.83411451  0.49891831  1
  Ni  Ni43  1  0.33336886  0.66668642  0.66795463  1
  Ni  Ni44  1  0.49877452  0.83498762  0.83479183  1
  Ni  Ni45  1  0.83184034  0.16787663  0.49889404  1
  Fe  Fe46  1  0.66555317  0.00068192  0.66730218  1
  Cr  Cr47  1  0.83297555  0.16626858  0.83480368  1
  Cr  Cr48  1  0.83516940  0.49854211  0.49893275  1
  Cr  Cr49  1  0.66553144  0.33276692  0.66594132  1
  Cr  Cr50  1  0.83713687  0.50058552  0.83477364  1
  Cr  Cr51  1  0.83383439  0.83565672  0.50011966  1
  Cr  Cr52  1  0.66485708  0.66838567  0.66839972  1
  Fe  Fe53  1  0.83455531  0.83405966  0.83491679  1
" 