4975,Ni58Fe16Cr24_19,-231.06224970531, 186.418349084722,Ni58Fe16Cr24,"# generated using pymatgen
 data_Cr14Fe9Ni31
_symmetry_space_group_name_H-M   'P 1'
_cell_length_a   7.45291516
_cell_length_b   7.45291516
_cell_length_c   10.54001370
_cell_angle_alpha   90.00000000
_cell_angle_beta   90.00000000
_cell_angle_gamma   90.00000000
_symmetry_Int_Tables_number   1
_chemical_formula_structural   Cr14Fe9Ni31
_chemical_formula_sum   'Cr14 Fe9 Ni31'
_cell_volume   585.45501548
_cell_formula_units_Z   1
loop_
 _symmetry_equiv_pos_site_id
 _symmetry_equiv_pos_as_xyz
  1  'x, y, z'
loop_
 _atom_site_type_symbol
 _atom_site_label
 _atom_site_symmetry_multiplicity
 _atom_site_fract_x
 _atom_site_fract_y
 _atom_site_fract_z
 _atom_site_occupancy
  Ni  Ni0  1  1.00028290  0.00273440  1.00023392  1
  Ni  Ni1  1  0.16626445  0.16735748  0.16820967  1
  Fe  Fe2  1  0.99953585  0.00627904  0.33265900  1
  Ni  Ni3  1  1.00093084  0.33267000  0.00190043  1
  Ni  Ni4  1  0.16427105  0.50061273  0.16587332  1
  Ni  Ni5  1  0.99951919  0.33363750  0.33544404  1
  Fe  Fe6  1  0.00197981  0.66774159  1.00016968  1
  Cr  Cr7  1  0.16747392  0.83507676  0.16647357  1
  Cr  Cr8  1  0.00122213  0.66421049  0.33202866  1
  Ni  Ni9  1  0.33322738  0.99946677  0.99954178  1
  Ni  Ni10  1  0.50311310  0.16642106  0.16700742  1
  Ni  Ni11  1  0.33467307  0.00157753  0.33446490  1
  Cr  Cr12  1  0.33212939  0.33431669  0.00099452  1
  Fe  Fe13  1  0.50078645  0.49816287  0.16707040  1
  Cr  Cr14  1  0.33095621  0.33375463  0.33355469  1
  Ni  Ni15  1  0.33279588  0.66777481  0.99993503  1
  Cr  Cr16  1  0.49947616  0.83722793  0.16862530  1
  Fe  Fe17  1  0.33509472  0.66546028  0.33442410  1
  Ni  Ni18  1  0.66998338  0.00153262  0.00102780  1
  Ni  Ni19  1  0.83337094  0.16998158  0.16741026  1
  Ni  Ni20  1  0.66807198  0.00271178  0.33315389  1
  Ni  Ni21  1  0.67010946  0.33307679  0.00400076  1
  Ni  Ni22  1  0.83546501  0.49777646  0.16695996  1
  Ni  Ni23  1  0.67018320  0.33328472  0.33273279  1
  Cr  Cr24  1  0.66729133  0.66848942  0.99979315  1
  Fe  Fe25  1  0.83499262  0.83752020  0.16621568  1
  Cr  Cr26  1  0.66822123  0.66659293  0.33592242  1
  Ni  Ni27  1  0.16582075  0.16819248  0.50173680  1
  Fe  Fe28  1  0.00195207  0.00314164  0.67003282  1
  Ni  Ni29  1  0.16642364  0.16661887  0.83289861  1
  Ni  Ni30  1  0.16619642  0.49994522  0.50189101  1
  Ni  Ni31  1  0.00391180  0.33457710  0.66537395  1
  Ni  Ni32  1  0.16685142  0.50115725  0.83451368  1
  Cr  Cr33  1  0.16841439  0.83670871  0.49922336  1
  Ni  Ni34  1  1.00071346  0.66704708  0.66951421  1
  Ni  Ni35  1  0.16702784  0.83517521  0.83620164  1
  Cr  Cr36  1  0.50069623  0.16646231  0.50068063  1
  Ni  Ni37  1  0.33418665  0.00127330  0.66891272  1
  Cr  Cr38  1  0.50109257  0.16717746  0.83624187  1
  Ni  Ni39  1  0.50154734  0.50078295  0.50026736  1
  Ni  Ni40  1  0.33036703  0.33439154  0.66795626  1
  Ni  Ni41  1  0.49990261  0.50199130  0.83553886  1
  Fe  Fe42  1  0.50118728  0.83514252  0.50127301  1
  Cr  Cr43  1  0.33405202  0.66652687  0.66766002  1
  Ni  Ni44  1  0.50097022  0.83558579  0.83302413  1
  Ni  Ni45  1  0.83552544  0.16902171  0.50035920  1
  Ni  Ni46  1  0.66893179  0.99785566  0.66894447  1
  Fe  Fe47  1  0.83672920  0.16563902  0.83538424  1
  Ni  Ni48  1  0.83497346  0.49940950  0.50212180  1
  Cr  Cr49  1  0.66846100  0.33335183  0.66700101  1
  Cr  Cr50  1  0.83622019  0.49939707  0.83375478  1
  Cr  Cr51  1  0.83469075  0.83576571  0.50220449  1
  Fe  Fe52  1  0.66741013  0.66782245  0.66819523  1
  Ni  Ni53  1  0.83552089  0.83558863  0.83446491  1
" 