6074,Ni58Fe33Cr8_18,-238.414409954474, 209.98919063751,Ni58Fe33Cr8,"# generated using pymatgen
 data_Cr5Fe18Ni31
_symmetry_space_group_name_H-M   'P 1'
_cell_length_a   7.42504453
_cell_length_b   7.42504453
_cell_length_c   10.50059868
_cell_angle_alpha   90.00000000
_cell_angle_beta   90.00000000
_cell_angle_gamma   90.00000000
_symmetry_Int_Tables_number   1
_chemical_formula_structural   Cr5Fe18Ni31
_chemical_formula_sum   'Cr5 Fe18 Ni31'
_cell_volume   578.91151228
_cell_formula_units_Z   1
loop_
 _symmetry_equiv_pos_site_id
 _symmetry_equiv_pos_as_xyz
  1  'x, y, z'
loop_
 _atom_site_type_symbol
 _atom_site_label
 _atom_site_symmetry_multiplicity
 _atom_site_fract_x
 _atom_site_fract_y
 _atom_site_fract_z
 _atom_site_occupancy
  Ni  Ni0  1  1.00248402  0.99950624  1.00110071  1
  Cr  Cr1  1  0.16748760  0.16904604  0.16829749  1
  Ni  Ni2  1  1.00227589  1.00005826  0.33771141  1
  Fe  Fe3  1  1.00186229  0.33653429  1.00180267  1
  Ni  Ni4  1  0.16893102  0.50443452  0.16819506  1
  Fe  Fe5  1  1.00266950  0.33557748  0.33712608  1
  Ni  Ni6  1  0.00454370  0.67023694  0.00391991  1
  Fe  Fe7  1  0.16897744  0.83609865  0.17021238  1
  Fe  Fe8  1  0.00341432  0.66985244  0.33662369  1
  Ni  Ni9  1  0.33630851  1.00221646  1.00195079  1
  Ni  Ni10  1  0.50344558  0.16659775  0.16926643  1
  Ni  Ni11  1  0.33508441  1.00045373  0.33855213  1
  Fe  Fe12  1  0.33504179  0.33642444  1.00184282  1
  Ni  Ni13  1  0.50104816  0.50465484  0.16856870  1
  Cr  Cr14  1  0.33883705  0.33497763  0.33605214  1
  Fe  Fe15  1  0.33573640  0.67194604  0.00333531  1
  Ni  Ni16  1  0.50240016  0.83746838  0.17062111  1
  Ni  Ni17  1  0.33390423  0.67160851  0.33519694  1
  Ni  Ni18  1  0.66927765  0.00334065  0.00379281  1
  Ni  Ni19  1  0.83628474  0.16743408  0.16984505  1
  Fe  Fe20  1  0.66875876  0.00316763  0.33653931  1
  Cr  Cr21  1  0.66869957  0.33532211  0.00299084  1
  Ni  Ni22  1  0.83859704  0.50295049  0.17173743  1
  Ni  Ni23  1  0.67146279  0.33580273  0.33537800  1
  Cr  Cr24  1  0.67255811  0.66952445  1.00177650  1
  Ni  Ni25  1  0.83582127  0.83798981  0.16917031  1
  Fe  Fe26  1  0.66897618  0.67126710  0.33465902  1
  Ni  Ni27  1  0.16827198  0.16969269  0.50489903  1
  Fe  Fe28  1  1.00143724  0.00343027  0.66877720  1
  Fe  Fe29  1  0.16876309  0.16855998  0.83604977  1
  Ni  Ni30  1  0.16813398  0.50290400  0.50336935  1
  Fe  Fe31  1  1.00240450  0.33604588  0.66967703  1
  Ni  Ni32  1  0.17005535  0.50220161  0.83677379  1
  Ni  Ni33  1  0.16967028  0.83570993  0.50327979  1
  Ni  Ni34  1  0.00351272  0.67086677  0.66869412  1
  Fe  Fe35  1  0.16742530  0.83498147  0.83564933  1
  Ni  Ni36  1  0.50388017  0.16740933  0.50369279  1
  Fe  Fe37  1  0.33676920  1.00278764  0.66869346  1
  Fe  Fe38  1  0.50357494  0.16799225  0.83515673  1
  Cr  Cr39  1  0.50279573  0.50515926  0.50456818  1
  Ni  Ni40  1  0.33605923  0.33501319  0.67043381  1
  Fe  Fe41  1  0.50328364  0.50330334  0.83406534  1
  Ni  Ni42  1  0.50350705  0.83735415  0.50271437  1
  Fe  Fe43  1  0.33510526  0.67029393  0.66962359  1
  Ni  Ni44  1  0.50238392  0.83775026  0.83510531  1
  Ni  Ni45  1  0.83624649  0.16903981  0.50221670  1
  Ni  Ni46  1  0.66994021  0.00404870  0.66921659  1
  Ni  Ni47  1  0.83715361  0.16792672  0.83650777  1
  Fe  Fe48  1  0.83703123  0.50262719  0.50335745  1
  Ni  Ni49  1  0.66948870  0.33422320  0.66989726  1
  Ni  Ni50  1  0.83985880  0.50268575  0.83353783  1
  Ni  Ni51  1  0.83516582  0.83709470  0.50377760  1
  Fe  Fe52  1  0.67086312  0.67116886  0.67112761  1
  Ni  Ni53  1  0.83506780  0.83797502  0.83561070  1
" 