2877,Ni58Fe33Cr8_12,-238.698637180826, 215.061011669895,Ni58Fe33Cr8,"# generated using pymatgen
 data_Cr5Fe18Ni31
_symmetry_space_group_name_H-M   'P 1'
_cell_length_a   7.42074326
_cell_length_b   7.42074326
_cell_length_c   10.49451575
_cell_angle_alpha   90.00000000
_cell_angle_beta   90.00000000
_cell_angle_gamma   90.00000000
_symmetry_Int_Tables_number   1
_chemical_formula_structural   Cr5Fe18Ni31
_chemical_formula_sum   'Cr5 Fe18 Ni31'
_cell_volume   577.90601658
_cell_formula_units_Z   1
loop_
 _symmetry_equiv_pos_site_id
 _symmetry_equiv_pos_as_xyz
  1  'x, y, z'
loop_
 _atom_site_type_symbol
 _atom_site_label
 _atom_site_symmetry_multiplicity
 _atom_site_fract_x
 _atom_site_fract_y
 _atom_site_fract_z
 _atom_site_occupancy
  Ni  Ni0  1  1.00288079  1.00236750  0.00381129  1
  Fe  Fe1  1  0.16928384  0.16883083  0.16928367  1
  Fe  Fe2  1  1.00067224  0.00372681  0.33516532  1
  Fe  Fe3  1  0.00315626  0.33600816  0.00325734  1
  Ni  Ni4  1  0.16897771  0.50405828  0.17029154  1
  Ni  Ni5  1  1.00086676  0.33828132  0.33610155  1
  Fe  Fe6  1  0.00355165  0.67072989  0.00328889  1
  Ni  Ni7  1  0.17007548  0.83667759  0.17044127  1
  Fe  Fe8  1  1.00121349  0.66840699  0.33581709  1
  Ni  Ni9  1  0.33649335  1.00154364  0.00348738  1
  Ni  Ni10  1  0.50403875  0.16913679  0.16998174  1
  Fe  Fe11  1  0.33783467  0.00321347  0.33323893  1
  Fe  Fe12  1  0.33732925  0.33593415  1.00291196  1
  Ni  Ni13  1  0.50393472  0.50321073  0.16867462  1
  Cr  Cr14  1  0.33679096  0.33795081  0.33468463  1
  Ni  Ni15  1  0.33585118  0.66982305  0.00410502  1
  Ni  Ni16  1  0.50232743  0.83700983  0.17010335  1
  Fe  Fe17  1  0.33616907  0.67005830  0.33346343  1
  Ni  Ni18  1  0.66998536  0.00375875  0.00361299  1
  Fe  Fe19  1  0.83566820  0.16986734  0.16981774  1
  Ni  Ni20  1  0.67076598  0.00371621  0.33573997  1
  Ni  Ni21  1  0.66948203  0.33601683  0.00412327  1
  Ni  Ni22  1  0.83644228  0.50233553  0.17003833  1
  Ni  Ni23  1  0.67209462  0.33478613  0.33627144  1
  Fe  Fe24  1  0.66896632  0.67068723  0.00373731  1
  Ni  Ni25  1  0.83695458  0.83678281  0.17011866  1
  Fe  Fe26  1  0.67198089  0.66918105  0.33466655  1
  Cr  Cr27  1  0.16801847  0.17019810  0.50527704  1
  Ni  Ni28  1  1.00038869  1.00203419  0.67061036  1
  Fe  Fe29  1  0.17038776  0.16953677  0.83598010  1
  Fe  Fe30  1  0.16629320  0.50379527  0.50447948  1
  Ni  Ni31  1  1.00272176  0.33790856  0.66971170  1
  Ni  Ni32  1  0.17031744  0.50378564  0.83495069  1
  Cr  Cr33  1  0.16854801  0.83574670  0.50323188  1
  Ni  Ni34  1  0.00417253  0.66942054  0.66969331  1
  Ni  Ni35  1  0.17029024  0.83620459  0.83588429  1
  Fe  Fe36  1  0.50704536  0.16905172  0.50387003  1
  Fe  Fe37  1  0.33689780  0.00408226  0.67280844  1
  Ni  Ni38  1  0.50411429  0.16991308  0.83479914  1
  Cr  Cr39  1  0.50464456  0.50210538  0.50417163  1
  Ni  Ni40  1  0.33679348  0.33820548  0.67131807  1
  Ni  Ni41  1  0.50245449  0.50291315  0.83666050  1
  Cr  Cr42  1  0.50399743  0.83752529  0.50336517  1
  Ni  Ni43  1  0.33437359  0.66816156  0.67128426  1
  Ni  Ni44  1  0.50193376  0.83653183  0.83625810  1
  Ni  Ni45  1  0.83573664  0.17078812  0.50244828  1
  Ni  Ni46  1  0.67110756  0.00444886  0.67000042  1
  Ni  Ni47  1  0.83626441  0.16989261  0.83612243  1
  Ni  Ni48  1  0.83751689  0.50155872  0.50348581  1
  Ni  Ni49  1  0.66984827  0.33441317  0.66895916  1
  Fe  Fe50  1  0.83597254  0.50256223  0.83600080  1
  Ni  Ni51  1  0.83690551  0.83700769  0.50376035  1
  Fe  Fe52  1  0.67166465  0.66936228  0.67096902  1
  Fe  Fe53  1  0.83627887  0.83722223  0.83614032  1
" 