7492,Ni58Fe16Cr24_9,-230.989170015412, 185.323210876145,Ni58Fe16Cr24,"# generated using pymatgen
 data_Cr14Fe9Ni31
_symmetry_space_group_name_H-M   'P 1'
_cell_length_a   7.45684412
_cell_length_b   7.45684412
_cell_length_c   10.54557008
_cell_angle_alpha   90.00000000
_cell_angle_beta   90.00000000
_cell_angle_gamma   90.00000000
_symmetry_Int_Tables_number   1
_chemical_formula_structural   Cr14Fe9Ni31
_chemical_formula_sum   'Cr14 Fe9 Ni31'
_cell_volume   586.38140679
_cell_formula_units_Z   1
loop_
 _symmetry_equiv_pos_site_id
 _symmetry_equiv_pos_as_xyz
  1  'x, y, z'
loop_
 _atom_site_type_symbol
 _atom_site_label
 _atom_site_symmetry_multiplicity
 _atom_site_fract_x
 _atom_site_fract_y
 _atom_site_fract_z
 _atom_site_occupancy
  Cr  Cr0  1  0.99941194  1.00050508  0.99990941  1
  Cr  Cr1  1  0.16991347  0.17025556  0.16807019  1
  Cr  Cr2  1  0.00085862  0.00251737  0.33414406  1
  Ni  Ni3  1  0.00304511  0.33350299  1.00001698  1
  Ni  Ni4  1  0.16823312  0.50128535  0.16658902  1
  Ni  Ni5  1  1.00002243  0.33350268  0.33524898  1
  Fe  Fe6  1  0.00225684  0.66621833  0.00082563  1
  Ni  Ni7  1  0.16967268  0.83074971  0.16687357  1
  Cr  Cr8  1  0.00230687  0.66657544  0.33247065  1
  Fe  Fe9  1  0.33444032  0.99994513  0.00191855  1
  Ni  Ni10  1  0.50217453  0.16639150  0.16808467  1
  Ni  Ni11  1  0.33519068  0.99874471  0.33441347  1
  Ni  Ni12  1  0.33239938  0.33688123  1.00016846  1
  Ni  Ni13  1  0.49985752  0.50143963  0.16827327  1
  Ni  Ni14  1  0.33436115  0.33583837  0.33336848  1
  Ni  Ni15  1  0.33407614  0.66603684  0.00125399  1
  Ni  Ni16  1  0.50204981  0.83422093  0.16858040  1
  Ni  Ni17  1  0.33618658  0.66746730  0.33420502  1
  Fe  Fe18  1  0.66758044  0.99936006  0.00240153  1
  Ni  Ni19  1  0.83048966  0.16782525  0.16920896  1
  Ni  Ni20  1  0.66607693  0.00084700  0.33133264  1
  Cr  Cr21  1  0.66645665  0.33414867  0.00178718  1
  Fe  Fe22  1  0.83340237  0.50073355  0.16802121  1
  Ni  Ni23  1  0.66766860  0.33449851  0.33355444  1
  Ni  Ni24  1  0.66568634  0.66929794  0.00196092  1
  Ni  Ni25  1  0.83033144  0.83306292  0.16580058  1
  Ni  Ni26  1  0.66374130  0.66670705  0.33327676  1
  Ni  Ni27  1  0.16824819  0.16886878  0.50025310  1
  Cr  Cr28  1  0.00103423  0.00158437  0.66799743  1
  Ni  Ni29  1  0.16736329  0.16926872  0.83415983  1
  Ni  Ni30  1  0.16520216  0.49984821  0.50018254  1
  Ni  Ni31  1  0.99978371  0.33307209  0.66678515  1
  Ni  Ni32  1  0.16610447  0.50033434  0.83528092  1
  Ni  Ni33  1  0.17044183  0.83333879  0.50120244  1
  Ni  Ni34  1  0.00264663  0.66731037  0.66875422  1
  Ni  Ni35  1  0.16656007  0.83244652  0.83397508  1
  Cr  Cr36  1  0.50085472  0.16576046  0.49958714  1
  Fe  Fe37  1  0.33252272  1.00036623  0.66616961  1
  Cr  Cr38  1  0.50045303  0.16680041  0.83456733  1
  Fe  Fe39  1  0.50085129  0.50124386  0.49758333  1
  Cr  Cr40  1  0.33270784  0.33549713  0.66871544  1
  Fe  Fe41  1  0.49886950  0.50072249  0.83636673  1
  Fe  Fe42  1  0.49859801  0.83390512  0.49836799  1
  Cr  Cr43  1  0.33200811  0.66718155  0.66602367  1
  Cr  Cr44  1  0.50159664  0.83537872  0.83467561  1
  Fe  Fe45  1  0.83498249  0.17111199  0.50080400  1
  Ni  Ni46  1  0.66925555  0.00245262  0.66864043  1
  Ni  Ni47  1  0.83403555  0.16710481  0.83137551  1
  Ni  Ni48  1  0.83481491  0.49838697  0.50062654  1
  Ni  Ni49  1  0.66982077  0.33247572  0.66686546  1
  Cr  Cr50  1  0.83683116  0.50143457  0.83351770  1
  Cr  Cr51  1  0.83229780  0.83218288  0.50148630  1
  Cr  Cr52  1  0.66695753  0.66632284  0.66662795  1
  Ni  Ni53  1  0.83421205  0.83398550  0.83459469  1
" 