3862,Ni58Fe16Cr24_8,-230.819192228503, 179.01718159865,Ni58Fe16Cr24,"# generated using pymatgen
 data_Cr14Fe9Ni31
_symmetry_space_group_name_H-M   'P 1'
_cell_length_a   7.45783174
_cell_length_b   7.45783174
_cell_length_c   10.54696679
_cell_angle_alpha   90.00000000
_cell_angle_beta   90.00000000
_cell_angle_gamma   90.00000000
_symmetry_Int_Tables_number   1
_chemical_formula_structural   Cr14Fe9Ni31
_chemical_formula_sum   'Cr14 Fe9 Ni31'
_cell_volume   586.61442788
_cell_formula_units_Z   1
loop_
 _symmetry_equiv_pos_site_id
 _symmetry_equiv_pos_as_xyz
  1  'x, y, z'
loop_
 _atom_site_type_symbol
 _atom_site_label
 _atom_site_symmetry_multiplicity
 _atom_site_fract_x
 _atom_site_fract_y
 _atom_site_fract_z
 _atom_site_occupancy
  Ni  Ni0  1  0.00207795  0.00142227  0.00185664  1
  Ni  Ni1  1  0.16844126  0.16664486  0.16506290  1
  Ni  Ni2  1  0.99923667  0.99946253  0.33235739  1
  Ni  Ni3  1  0.00386120  0.33016198  0.00111874  1
  Fe  Fe4  1  0.17048930  0.50144100  0.16705135  1
  Cr  Cr5  1  0.00063453  0.32977648  0.33120407  1
  Cr  Cr6  1  0.00225974  0.66933101  0.99973191  1
  Ni  Ni7  1  0.16788559  0.83429216  0.16825325  1
  Ni  Ni8  1  0.00145174  0.67150033  0.33315682  1
  Ni  Ni9  1  0.33174826  0.99960459  0.00063002  1
  Ni  Ni10  1  0.49927481  0.16696683  0.16735440  1
  Cr  Cr11  1  0.33289100  1.00060627  0.33446421  1
  Ni  Ni12  1  0.33254620  0.33432639  0.00167631  1
  Ni  Ni13  1  0.49707843  0.50093201  0.16995862  1
  Ni  Ni14  1  0.33864378  0.33450821  0.33199303  1
  Ni  Ni15  1  0.33537875  0.66789362  0.00069897  1
  Ni  Ni16  1  0.49972562  0.83406876  0.16691519  1
  Ni  Ni17  1  0.33667953  0.66796369  0.33331135  1
  Fe  Fe18  1  0.66645191  0.99959596  0.00256877  1
  Ni  Ni19  1  0.83398184  0.16395874  0.16772222  1
  Fe  Fe20  1  0.66620826  0.00146228  0.33294025  1
  Cr  Cr21  1  0.66519943  0.33547849  0.00173125  1
  Cr  Cr22  1  0.83476226  0.50191555  0.16922914  1
  Ni  Ni23  1  0.66471974  0.33322558  0.33543947  1
  Cr  Cr24  1  0.66347010  0.66845945  1.00049866  1
  Ni  Ni25  1  0.83399682  0.83668588  0.16897342  1
  Ni  Ni26  1  0.66471100  0.66719557  0.33287682  1
  Cr  Cr27  1  0.16946104  0.16872034  0.50114635  1
  Cr  Cr28  1  0.00286125  1.00059952  0.66705226  1
  Ni  Ni29  1  0.16840558  0.16897627  0.83487332  1
  Cr  Cr30  1  0.16944369  0.50270983  0.49914255  1
  Ni  Ni31  1  0.00116703  0.33257221  0.66870630  1
  Ni  Ni32  1  0.17010434  0.49901835  0.83427431  1
  Fe  Fe33  1  0.16937822  0.83365358  0.49960834  1
  Fe  Fe34  1  0.00450860  0.66770664  0.66857396  1
  Fe  Fe35  1  0.17028288  0.83454046  0.83485896  1
  Ni  Ni36  1  0.50133454  0.16632219  0.50156107  1
  Ni  Ni37  1  0.33457624  0.99878516  0.66739004  1
  Cr  Cr38  1  0.49612867  0.16475188  0.83422345  1
  Fe  Fe39  1  0.50088287  0.50070201  0.50041528  1
  Ni  Ni40  1  0.33428121  0.33447453  0.66792443  1
  Ni  Ni41  1  0.49594341  0.50257652  0.83146253  1
  Ni  Ni42  1  0.50029715  0.83354541  0.50126235  1
  Ni  Ni43  1  0.33734634  0.66864503  0.66787171  1
  Ni  Ni44  1  0.50004672  0.83338053  0.83388735  1
  Ni  Ni45  1  0.83096008  0.16682422  0.50033836  1
  Fe  Fe46  1  0.66440228  0.99917230  0.66649741  1
  Cr  Cr47  1  0.83472067  0.16541910  0.83474809  1
  Cr  Cr48  1  0.83435180  0.50106012  0.50207679  1
  Fe  Fe49  1  0.66401198  0.33355300  0.66582375  1
  Cr  Cr50  1  0.83555058  0.50126118  0.83061285  1
  Cr  Cr51  1  0.83238784  0.83326647  0.49850113  1
  Ni  Ni52  1  0.66456477  0.66786654  0.66840869  1
  Ni  Ni53  1  0.83215921  0.83438086  0.83334791  1
" 