7918,Ni58Fe23Cr18_18,-233.734253745191, 189.666175926655,Ni58Fe23Cr18,"# generated using pymatgen
 data_Cr11Fe12Ni31
_symmetry_space_group_name_H-M   'P 1'
_cell_length_a   7.44503126
_cell_length_b   7.44503126
_cell_length_c   10.52886418
_cell_angle_alpha   90.00000000
_cell_angle_beta   90.00000000
_cell_angle_gamma   90.00000000
_symmetry_Int_Tables_number   1
_chemical_formula_structural   Cr11Fe12Ni31
_chemical_formula_sum   'Cr11 Fe12 Ni31'
_cell_volume   583.59904723
_cell_formula_units_Z   1
loop_
 _symmetry_equiv_pos_site_id
 _symmetry_equiv_pos_as_xyz
  1  'x, y, z'
loop_
 _atom_site_type_symbol
 _atom_site_label
 _atom_site_symmetry_multiplicity
 _atom_site_fract_x
 _atom_site_fract_y
 _atom_site_fract_z
 _atom_site_occupancy
  Fe  Fe0  1  1.00053921  1.00012705  0.00295639  1
  Fe  Fe1  1  0.16933083  0.16748764  0.16624150  1
  Cr  Cr2  1  1.00001393  1.00022391  0.33502780  1
  Fe  Fe3  1  0.00288816  0.33495560  0.00161294  1
  Ni  Ni4  1  0.16874926  0.50219249  0.16714939  1
  Ni  Ni5  1  0.00195875  0.33464800  0.33521783  1
  Ni  Ni6  1  0.00155263  0.66788235  1.00061559  1
  Ni  Ni7  1  0.16977987  0.83425883  0.16687347  1
  Ni  Ni8  1  0.00320621  0.66821773  0.33553926  1
  Ni  Ni9  1  0.33845291  0.00222250  0.00232278  1
  Fe  Fe10  1  0.50191528  0.16638045  0.16760028  1
  Ni  Ni11  1  0.33626347  0.99898303  0.33466536  1
  Ni  Ni12  1  0.33531654  0.33634572  0.00221802  1
  Ni  Ni13  1  0.50027293  0.50185056  0.16847750  1
  Cr  Cr14  1  0.33420469  0.33725308  0.33363562  1
  Ni  Ni15  1  0.33442021  0.66575858  0.00205842  1
  Ni  Ni16  1  0.50046283  0.83568434  0.16889672  1
  Ni  Ni17  1  0.33498911  0.66875876  0.33491526  1
  Ni  Ni18  1  0.66882132  0.00167017  1.00133390  1
  Fe  Fe19  1  0.83323736  0.16723452  0.16800403  1
  Ni  Ni20  1  0.66811332  1.00016405  0.33415326  1
  Fe  Fe21  1  0.66532175  0.33454217  1.00122539  1
  Cr  Cr22  1  0.83458415  0.50174134  0.16951604  1
  Ni  Ni23  1  0.66855888  0.33345558  0.33458479  1
  Fe  Fe24  1  0.66511430  0.67043305  1.00111080  1
  Ni  Ni25  1  0.83411716  0.83621959  0.16736773  1
  Ni  Ni26  1  0.66617238  0.67077635  0.33457899  1
  Fe  Fe27  1  0.16779780  0.16693791  0.50024242  1
  Cr  Cr28  1  0.99730924  1.00088419  0.66595774  1
  Cr  Cr29  1  0.16880525  0.16762940  0.83648316  1
  Ni  Ni30  1  0.16940072  0.50390737  0.49919969  1
  Cr  Cr31  1  0.00161843  0.33498025  0.66737083  1
  Ni  Ni32  1  0.16991990  0.50138754  0.83788202  1
  Ni  Ni33  1  0.17153459  0.83345391  0.50075390  1
  Cr  Cr34  1  1.00145216  0.66851823  0.66788075  1
  Cr  Cr35  1  0.17110347  0.83321357  0.83645922  1
  Cr  Cr36  1  0.50449160  0.16608979  0.50234818  1
  Fe  Fe37  1  0.33761564  0.99714320  0.66723048  1
  Fe  Fe38  1  0.50391358  0.16657946  0.83611157  1
  Ni  Ni39  1  0.50122289  0.50464163  0.50081819  1
  Cr  Cr40  1  0.33563989  0.33823563  0.66786622  1
  Ni  Ni41  1  0.50203632  0.50217331  0.83526967  1
  Ni  Ni42  1  0.50059711  0.83366314  0.50151866  1
  Ni  Ni43  1  0.33831173  0.66677824  0.66733702  1
  Ni  Ni44  1  0.50338368  0.83419125  0.83414817  1
  Ni  Ni45  1  0.83367228  0.16787668  0.49993718  1
  Ni  Ni46  1  0.66843946  0.99986425  0.66909626  1
  Ni  Ni47  1  0.83145951  0.16856162  0.83635001  1
  Cr  Cr48  1  0.83228974  0.50094314  0.49889977  1
  Fe  Fe49  1  0.66816964  0.33574036  0.66925740  1
  Fe  Fe50  1  0.83324916  0.50288308  0.83654980  1
  Ni  Ni51  1  0.83235108  0.83646723  0.50030589  1
  Ni  Ni52  1  0.66476745  0.67124667  0.66983023  1
  Ni  Ni53  1  0.83093430  0.83638558  0.83684056  1
" 