1630,Ni58Fe16Cr24_1,-231.127171570911, 182.861998802529,Ni58Fe16Cr24,"# generated using pymatgen
 data_Cr14Fe9Ni31
_symmetry_space_group_name_H-M   'P 1'
_cell_length_a   7.45690453
_cell_length_b   7.45690453
_cell_length_c   10.54565552
_cell_angle_alpha   90.00000000
_cell_angle_beta   90.00000000
_cell_angle_gamma   90.00000000
_symmetry_Int_Tables_number   1
_chemical_formula_structural   Cr14Fe9Ni31
_chemical_formula_sum   'Cr14 Fe9 Ni31'
_cell_volume   586.39565821
_cell_formula_units_Z   1
loop_
 _symmetry_equiv_pos_site_id
 _symmetry_equiv_pos_as_xyz
  1  'x, y, z'
loop_
 _atom_site_type_symbol
 _atom_site_label
 _atom_site_symmetry_multiplicity
 _atom_site_fract_x
 _atom_site_fract_y
 _atom_site_fract_z
 _atom_site_occupancy
  Ni  Ni0  1  0.00140649  0.00249549  0.00127902  1
  Fe  Fe1  1  0.16590902  0.16704605  0.16610647  1
  Cr  Cr2  1  0.00308968  0.00309901  0.33269062  1
  Ni  Ni3  1  0.99901129  0.33007713  0.00079624  1
  Cr  Cr4  1  0.16821523  0.49878872  0.16696695  1
  Ni  Ni5  1  0.99871608  0.33312389  0.33525643  1
  Cr  Cr6  1  0.99864908  0.66912472  0.99935452  1
  Fe  Fe7  1  0.16770699  0.83606246  0.16693599  1
  Cr  Cr8  1  0.00115268  0.66617298  0.33575281  1
  Ni  Ni9  1  0.33097051  1.00012522  0.99947184  1
  Cr  Cr10  1  0.50036269  0.16871726  0.16675031  1
  Ni  Ni11  1  0.33059742  0.99924817  0.33510544  1
  Ni  Ni12  1  0.33438687  0.33346616  1.00046766  1
  Ni  Ni13  1  0.50171098  0.50088682  0.16755771  1
  Fe  Fe14  1  0.33324122  0.33503188  0.33472774  1
  Fe  Fe15  1  0.33701118  0.66791736  0.99955585  1
  Cr  Cr16  1  0.50078039  0.83276862  0.16691505  1
  Ni  Ni17  1  0.33482622  0.66725977  0.33477696  1
  Ni  Ni18  1  0.66966209  0.99978286  0.99898355  1
  Ni  Ni19  1  0.83562405  0.16829374  0.16586874  1
  Cr  Cr20  1  0.66822029  0.00227035  0.33402594  1
  Ni  Ni21  1  0.66864202  0.33620343  1.00051325  1
  Ni  Ni22  1  0.83192263  0.49911074  0.16780157  1
  Ni  Ni23  1  0.66929826  0.33734971  0.33445811  1
  Ni  Ni24  1  0.66627122  0.66605286  1.00054433  1
  Ni  Ni25  1  0.83373960  0.83463544  0.16566042  1
  Fe  Fe26  1  0.66653970  0.66301744  0.33297708  1
  Ni  Ni27  1  0.16810422  0.16859245  0.49871876  1
  Cr  Cr28  1  0.00196438  0.00073833  0.66778589  1
  Ni  Ni29  1  0.16734878  0.16569744  0.83676270  1
  Ni  Ni30  1  0.16843436  0.50056182  0.50058164  1
  Cr  Cr31  1  0.99890910  0.33358985  0.66646004  1
  Cr  Cr32  1  0.16797427  0.50029870  0.83396122  1
  Ni  Ni33  1  0.16978656  0.83288773  0.50064807  1
  Fe  Fe34  1  1.00020727  0.66697792  0.66723407  1
  Ni  Ni35  1  0.16886670  0.83556977  0.83434025  1
  Cr  Cr36  1  0.50038681  0.16858949  0.50146271  1
  Fe  Fe37  1  0.33329002  0.99933374  0.66813328  1
  Cr  Cr38  1  0.50107671  0.16697041  0.83382893  1
  Ni  Ni39  1  0.49994831  0.50037361  0.49975533  1
  Fe  Fe40  1  0.33529476  0.33584057  0.66692425  1
  Ni  Ni41  1  0.50201505  0.50248198  0.83472763  1
  Cr  Cr42  1  0.49910844  0.83298615  0.50094451  1
  Ni  Ni43  1  0.33534366  0.66819018  0.66748592  1
  Ni  Ni44  1  0.50093344  0.83296643  0.83416785  1
  Ni  Ni45  1  0.83436994  0.17084328  0.50006275  1
  Fe  Fe46  1  0.66764784  1.00033343  0.66937193  1
  Ni  Ni47  1  0.83395183  0.16678133  0.83610819  1
  Ni  Ni48  1  0.83365583  0.49868823  0.49990764  1
  Ni  Ni49  1  0.66770772  0.33670091  0.66706962  1
  Ni  Ni50  1  0.83134588  0.50096485  0.83433239  1
  Cr  Cr51  1  0.83376050  0.83247515  0.50204982  1
  Ni  Ni52  1  0.66538780  0.66487117  0.66825489  1
  Ni  Ni53  1  0.83224202  0.83429291  0.83434521  1
" 