1398,Ni58Fe23Cr18_15,-233.761953781069, 193.740788633805,Ni58Fe23Cr18,"# generated using pymatgen
 data_Cr11Fe12Ni31
_symmetry_space_group_name_H-M   'P 1'
_cell_length_a   7.44193822
_cell_length_b   7.44193822
_cell_length_c   10.52448996
_cell_angle_alpha   90.00000000
_cell_angle_beta   90.00000000
_cell_angle_gamma   90.00000000
_symmetry_Int_Tables_number   1
_chemical_formula_structural   Cr11Fe12Ni31
_chemical_formula_sum   'Cr11 Fe12 Ni31'
_cell_volume   582.87198018
_cell_formula_units_Z   1
loop_
 _symmetry_equiv_pos_site_id
 _symmetry_equiv_pos_as_xyz
  1  'x, y, z'
loop_
 _atom_site_type_symbol
 _atom_site_label
 _atom_site_symmetry_multiplicity
 _atom_site_fract_x
 _atom_site_fract_y
 _atom_site_fract_z
 _atom_site_occupancy
  Cr  Cr0  1  0.00193935  0.00214332  1.00156840  1
  Ni  Ni1  1  0.16908039  0.17017172  0.16977479  1
  Ni  Ni2  1  0.00266449  1.00021693  0.33391749  1
  Fe  Fe3  1  0.00270462  0.33401629  0.99930116  1
  Ni  Ni4  1  0.16953960  0.49875607  0.16553745  1
  Fe  Fe5  1  0.00185069  0.33241094  0.33407874  1
  Fe  Fe6  1  0.00331863  0.66851953  1.00012443  1
  Ni  Ni7  1  0.17175637  0.83538960  0.16852255  1
  Cr  Cr8  1  0.00226138  0.66733802  0.33271820  1
  Ni  Ni9  1  0.33607995  0.00287708  0.00248622  1
  Ni  Ni10  1  0.50068325  0.16750815  0.16624518  1
  Ni  Ni11  1  0.33556131  0.00386912  0.33129959  1
  Ni  Ni12  1  0.33404383  0.33485677  0.99959625  1
  Cr  Cr13  1  0.50037327  0.50280997  0.16813612  1
  Ni  Ni14  1  0.33828287  0.33408178  0.33456298  1
  Ni  Ni15  1  0.33500431  0.66768137  0.00204148  1
  Ni  Ni16  1  0.49929349  0.83671690  0.16705600  1
  Fe  Fe17  1  0.33533949  0.66915815  0.33367689  1
  Ni  Ni18  1  0.66711756  0.00255876  1.00086701  1
  Ni  Ni19  1  0.83533349  0.16899856  0.16938082  1
  Ni  Ni20  1  0.66632370  0.00596186  0.33210209  1
  Fe  Fe21  1  0.66604580  0.33325293  0.99920164  1
  Cr  Cr22  1  0.83507587  0.49801433  0.16525553  1
  Ni  Ni23  1  0.66650321  0.33380577  0.33609614  1
  Ni  Ni24  1  0.66777262  0.66821748  0.99955048  1
  Cr  Cr25  1  0.82943351  0.83620415  0.16698040  1
  Fe  Fe26  1  0.66646880  0.66811923  0.33556299  1
  Cr  Cr27  1  0.17008487  0.16750666  0.50183078  1
  Fe  Fe28  1  0.00175413  0.00185984  0.67216150  1
  Ni  Ni29  1  0.16923935  0.17117980  0.83411592  1
  Cr  Cr30  1  0.17021301  0.49965798  0.50342875  1
  Ni  Ni31  1  1.00088189  0.33804911  0.67027437  1
  Fe  Fe32  1  0.16861652  0.50218837  0.83519426  1
  Fe  Fe33  1  0.16793477  0.83511030  0.50158462  1
  Ni  Ni34  1  1.00142742  0.66816046  0.67158265  1
  Fe  Fe35  1  0.16846035  0.83342728  0.83683799  1
  Ni  Ni36  1  0.50142456  0.16844806  0.50312886  1
  Cr  Cr37  1  0.33683156  0.00181234  0.67283096  1
  Fe  Fe38  1  0.50436701  0.16975251  0.83666200  1
  Fe  Fe39  1  0.50390128  0.49834159  0.50350330  1
  Ni  Ni40  1  0.33707116  0.33602249  0.67047633  1
  Ni  Ni41  1  0.50070541  0.50431929  0.83285363  1
  Cr  Cr42  1  0.50103180  0.83557454  0.49993251  1
  Ni  Ni43  1  0.33405390  0.66781613  0.66871137  1
  Ni  Ni44  1  0.50232853  0.83239230  0.83756143  1
  Cr  Cr45  1  0.83474073  0.16900033  0.50304503  1
  Ni  Ni46  1  0.66827375  0.00239518  0.67230280  1
  Ni  Ni47  1  0.83692830  0.16887417  0.83348094  1
  Ni  Ni48  1  0.83450260  0.50185248  0.50278880  1
  Ni  Ni49  1  0.66861236  0.33552652  0.66959714  1
  Ni  Ni50  1  0.83379729  0.50212557  0.83525512  1
  Cr  Cr51  1  0.83378580  0.83570389  0.50453733  1
  Ni  Ni52  1  0.66887077  0.66641147  0.66835693  1
  Ni  Ni53  1  0.83140808  0.83393563  0.83342271  1
" 