6832,Ni58Fe16Cr24_16,-230.747215025202, 178.786356579067,Ni58Fe16Cr24,"# generated using pymatgen
 data_Cr14Fe9Ni31
_symmetry_space_group_name_H-M   'P 1'
_cell_length_a   7.45181168
_cell_length_b   7.45181168
_cell_length_c   10.53845315
_cell_angle_alpha   90.00000000
_cell_angle_beta   90.00000000
_cell_angle_gamma   90.00000000
_symmetry_Int_Tables_number   1
_chemical_formula_structural   Cr14Fe9Ni31
_chemical_formula_sum   'Cr14 Fe9 Ni31'
_cell_volume   585.19500661
_cell_formula_units_Z   1
loop_
 _symmetry_equiv_pos_site_id
 _symmetry_equiv_pos_as_xyz
  1  'x, y, z'
loop_
 _atom_site_type_symbol
 _atom_site_label
 _atom_site_symmetry_multiplicity
 _atom_site_fract_x
 _atom_site_fract_y
 _atom_site_fract_z
 _atom_site_occupancy
  Cr  Cr0  1  0.00216050  0.99990268  0.00406632  1
  Ni  Ni1  1  0.16642543  0.16973369  0.16737885  1
  Ni  Ni2  1  0.99967498  1.00056866  0.33430070  1
  Ni  Ni3  1  1.00063577  0.33379110  0.99989455  1
  Cr  Cr4  1  0.16907826  0.49959401  0.16779927  1
  Ni  Ni5  1  0.00240712  0.33194987  0.33605881  1
  Ni  Ni6  1  0.99800286  0.66751138  1.00021574  1
  Fe  Fe7  1  0.16894764  0.83240535  0.16717174  1
  Ni  Ni8  1  0.00284275  0.67070395  0.33517709  1
  Ni  Ni9  1  0.33643190  0.00144822  1.00052868  1
  Cr  Cr10  1  0.49927924  0.16671459  0.16516775  1
  Cr  Cr11  1  0.33230576  0.99842251  0.33316824  1
  Ni  Ni12  1  0.33549787  0.33350598  0.99925544  1
  Ni  Ni13  1  0.49904371  0.50425810  0.16760824  1
  Ni  Ni14  1  0.33275032  0.33674720  0.33657045  1
  Ni  Ni15  1  0.33811262  0.66836000  0.00178733  1
  Ni  Ni16  1  0.50440356  0.83284861  0.16638596  1
  Ni  Ni17  1  0.33515528  0.66716920  0.33585221  1
  Ni  Ni18  1  0.66622493  0.99874269  0.99962899  1
  Fe  Fe19  1  0.83482277  0.16605541  0.16856269  1
  Ni  Ni20  1  0.67079999  0.99862212  0.33570202  1
  Fe  Fe21  1  0.66556520  0.33609927  0.99992707  1
  Cr  Cr22  1  0.83553689  0.50395065  0.16573759  1
  Cr  Cr23  1  0.66696115  0.33518386  0.33249150  1
  Ni  Ni24  1  0.66661112  0.66798828  0.99987984  1
  Ni  Ni25  1  0.83227876  0.83501959  0.16867360  1
  Fe  Fe26  1  0.66648085  0.67087261  0.33401849  1
  Ni  Ni27  1  0.16455766  0.17072784  0.50158150  1
  Ni  Ni28  1  1.00033468  0.00280995  0.66527026  1
  Ni  Ni29  1  0.16892047  0.17001385  0.83418741  1
  Ni  Ni30  1  0.16972786  0.49974036  0.50002775  1
  Fe  Fe31  1  0.00334607  0.33297982  0.66633065  1
  Cr  Cr32  1  0.16832051  0.49977632  0.83554098  1
  Fe  Fe33  1  0.16709423  0.83339339  0.50054907  1
  Cr  Cr34  1  1.00008092  0.66992811  0.66864899  1
  Cr  Cr35  1  0.16852846  0.83431638  0.83770699  1
  Cr  Cr36  1  0.50108236  0.16594318  0.50157364  1
  Cr  Cr37  1  0.33291587  1.00000172  0.66933085  1
  Ni  Ni38  1  0.49950389  0.16709534  0.83628488  1
  Ni  Ni39  1  0.49707704  0.50511109  0.49989184  1
  Fe  Fe40  1  0.33345528  0.33670652  0.66764895  1
  Ni  Ni41  1  0.50003091  0.50271300  0.83562247  1
  Ni  Ni42  1  0.50464392  0.83099413  0.50115226  1
  Ni  Ni43  1  0.33808177  0.66653874  0.66588069  1
  Ni  Ni44  1  0.50444877  0.83344621  0.83510638  1
  Ni  Ni45  1  0.83828077  0.16341015  0.49986207  1
  Fe  Fe46  1  0.66885988  0.99660701  0.66759141  1
  Cr  Cr47  1  0.83497197  0.16489569  0.83441111  1
  Cr  Cr48  1  0.83604603  0.50334290  0.49980625  1
  Cr  Cr49  1  0.66655828  0.33648550  0.66904088  1
  Fe  Fe50  1  0.83185500  0.50290417  0.83668481  1
  Ni  Ni51  1  0.83272257  0.83653252  0.50076361  1
  Ni  Ni52  1  0.66486203  0.66747158  0.66785983  1
  Ni  Ni53  1  0.83045957  0.83314895  0.83383933  1
" 