6191,Ni58Fe19Cr22_6,-231.800748044955, 183.458593785723,Ni58Fe19Cr22,"# generated using pymatgen
 data_Cr13Fe10Ni31
_symmetry_space_group_name_H-M   'P 1'
_cell_length_a   7.45351465
_cell_length_b   7.45351465
_cell_length_c   10.54086151
_cell_angle_alpha   90.00000000
_cell_angle_beta   90.00000000
_cell_angle_gamma   90.00000000
_symmetry_Int_Tables_number   1
_chemical_formula_structural   Cr13Fe10Ni31
_chemical_formula_sum   'Cr13 Fe10 Ni31'
_cell_volume   585.59630282
_cell_formula_units_Z   1
loop_
 _symmetry_equiv_pos_site_id
 _symmetry_equiv_pos_as_xyz
  1  'x, y, z'
loop_
 _atom_site_type_symbol
 _atom_site_label
 _atom_site_symmetry_multiplicity
 _atom_site_fract_x
 _atom_site_fract_y
 _atom_site_fract_z
 _atom_site_occupancy
  Ni  Ni0  1  0.99993323  0.00225923  0.00322639  1
  Fe  Fe1  1  0.16578600  0.16774213  0.16910454  1
  Ni  Ni2  1  0.00367922  0.00125143  0.33177157  1
  Ni  Ni3  1  0.99787469  0.33393068  0.99909751  1
  Cr  Cr4  1  0.16688067  0.50229711  0.16722845  1
  Ni  Ni5  1  0.00172474  0.33420258  0.33447515  1
  Ni  Ni6  1  0.99922964  0.66641884  1.00061848  1
  Fe  Fe7  1  0.16609778  0.83463460  0.16851622  1
  Ni  Ni8  1  0.00129981  0.66721567  0.33554648  1
  Cr  Cr9  1  0.33477743  1.00036801  1.00054370  1
  Ni  Ni10  1  0.50219575  0.16649615  0.16853401  1
  Ni  Ni11  1  0.33288683  0.99905999  0.33437285  1
  Cr  Cr12  1  0.33488591  0.33319862  1.00051867  1
  Ni  Ni13  1  0.50189221  0.50248242  0.16797723  1
  Fe  Fe14  1  0.33324325  0.33440990  0.33423656  1
  Fe  Fe15  1  0.33557608  0.66852463  0.00234055  1
  Fe  Fe16  1  0.50311253  0.83346998  0.16873677  1
  Ni  Ni17  1  0.33536314  0.66945952  0.33424025  1
  Ni  Ni18  1  0.66790985  0.00159893  1.00068197  1
  Ni  Ni19  1  0.83478854  0.16606133  0.16639985  1
  Ni  Ni20  1  0.66618829  0.99858131  0.33208063  1
  Ni  Ni21  1  0.67022817  0.33427302  0.00158711  1
  Ni  Ni22  1  0.83415807  0.50184117  0.16682932  1
  Cr  Cr23  1  0.66879180  0.33689140  0.33250079  1
  Ni  Ni24  1  0.66806981  0.66681896  0.00267204  1
  Fe  Fe25  1  0.83351093  0.83366329  0.16773245  1
  Ni  Ni26  1  0.66625397  0.66740284  0.33419523  1
  Ni  Ni27  1  0.16867033  0.16843205  0.49914926  1
  Cr  Cr28  1  0.00279493  0.00334048  0.66775925  1
  Ni  Ni29  1  0.16683967  0.16922859  0.83381944  1
  Fe  Fe30  1  0.16723438  0.49956939  0.49958066  1
  Ni  Ni31  1  0.00345508  0.33632592  0.66897183  1
  Fe  Fe32  1  0.16464815  0.49831432  0.83455263  1
  Fe  Fe33  1  0.16951995  0.83479562  0.49862870  1
  Fe  Fe34  1  0.99959073  0.66380419  0.66710660  1
  Cr  Cr35  1  0.16778034  0.83337838  0.83539216  1
  Cr  Cr36  1  0.49760647  0.16585760  0.50180311  1
  Ni  Ni37  1  0.33535069  0.00188553  0.66773011  1
  Ni  Ni38  1  0.50081024  0.16528009  0.83255541  1
  Ni  Ni39  1  0.49939309  0.50418440  0.49882530  1
  Ni  Ni40  1  0.33036791  0.33281666  0.66684507  1
  Cr  Cr41  1  0.50192981  0.50153890  0.83640748  1
  Ni  Ni42  1  0.49991192  0.83287877  0.50045488  1
  Cr  Cr43  1  0.33510942  0.66843220  0.66711494  1
  Ni  Ni44  1  0.50198368  0.83576751  0.83414748  1
  Cr  Cr45  1  0.83652741  0.16735618  0.50019383  1
  Ni  Ni46  1  0.66372400  0.99848318  0.67007863  1
  Ni  Ni47  1  0.83487661  0.16894949  0.83631398  1
  Ni  Ni48  1  0.83638361  0.50378674  0.50081571  1
  Cr  Cr49  1  0.66943225  0.33563684  0.66881278  1
  Ni  Ni50  1  0.83675381  0.50043549  0.83517664  1
  Cr  Cr51  1  0.83279442  0.83273133  0.50032231  1
  Ni  Ni52  1  0.66720063  0.66782483  0.66602541  1
  Cr  Cr53  1  0.83199463  0.83343408  0.83467413  1
" 