6965,Ni58Fe23Cr18_19,-233.464881138198, 194.914539850817,Ni58Fe23Cr18,"# generated using pymatgen
 data_Cr11Fe12Ni31
_symmetry_space_group_name_H-M   'P 1'
_cell_length_a   7.44425191
_cell_length_b   7.44425191
_cell_length_c   10.52776201
_cell_angle_alpha   90.00000000
_cell_angle_beta   90.00000000
_cell_angle_gamma   90.00000000
_symmetry_Int_Tables_number   1
_chemical_formula_structural   Cr11Fe12Ni31
_chemical_formula_sum   'Cr11 Fe12 Ni31'
_cell_volume   583.41579148
_cell_formula_units_Z   1
loop_
 _symmetry_equiv_pos_site_id
 _symmetry_equiv_pos_as_xyz
  1  'x, y, z'
loop_
 _atom_site_type_symbol
 _atom_site_label
 _atom_site_symmetry_multiplicity
 _atom_site_fract_x
 _atom_site_fract_y
 _atom_site_fract_z
 _atom_site_occupancy
  Ni  Ni0  1  1.00041827  0.00184787  0.00472161  1
  Ni  Ni1  1  0.16775662  0.16747807  0.16604089  1
  Fe  Fe2  1  0.00154162  0.99962884  0.33257349  1
  Ni  Ni3  1  0.99995648  0.33505634  0.00213310  1
  Fe  Fe4  1  0.16625099  0.50180947  0.16675358  1
  Fe  Fe5  1  0.99997217  0.33577500  0.33322303  1
  Ni  Ni6  1  1.00098438  0.66776048  0.00453059  1
  Ni  Ni7  1  0.16779663  0.83503713  0.16919038  1
  Ni  Ni8  1  1.00138832  0.66777097  0.33535819  1
  Ni  Ni9  1  0.33549231  0.00298090  1.00148135  1
  Ni  Ni10  1  0.50218322  0.16810229  0.16904705  1
  Ni  Ni11  1  0.33500040  0.00182623  0.33402124  1
  Ni  Ni12  1  0.33668355  0.33453301  0.00280623  1
  Fe  Fe13  1  0.50366216  0.50144097  0.16746372  1
  Cr  Cr14  1  0.33570077  0.33604336  0.33234340  1
  Ni  Ni15  1  0.33433143  0.66690325  0.00318432  1
  Cr  Cr16  1  0.50187037  0.83548693  0.16679368  1
  Ni  Ni17  1  0.33263293  0.66718560  0.33456143  1
  Ni  Ni18  1  0.66862917  0.00419360  0.00182599  1
  Ni  Ni19  1  0.83489472  0.16957779  0.16845223  1
  Ni  Ni20  1  0.67077422  0.00329113  0.33471678  1
  Ni  Ni21  1  0.66780484  0.33410830  0.00262036  1
  Ni  Ni22  1  0.83546383  0.50108768  0.16812874  1
  Fe  Fe23  1  0.66933500  0.33620308  0.33401961  1
  Fe  Fe24  1  0.66863488  0.66605223  0.00205217  1
  Ni  Ni25  1  0.83596740  0.83402533  0.16862026  1
  Ni  Ni26  1  0.67027476  0.66772665  0.33392940  1
  Cr  Cr27  1  0.16762298  0.16772250  0.50173494  1
  Cr  Cr28  1  0.99987467  0.00161566  0.66885842  1
  Fe  Fe29  1  0.16830219  0.16888713  0.83765696  1
  Fe  Fe30  1  0.16790839  0.50272668  0.50148557  1
  Ni  Ni31  1  0.99938336  0.33653625  0.66815823  1
  Cr  Cr32  1  0.16540593  0.50093329  0.83536839  1
  Fe  Fe33  1  0.16837661  0.83331811  0.50002341  1
  Ni  Ni34  1  1.00018653  0.66657031  0.66420069  1
  Cr  Cr35  1  0.17021762  0.83482432  0.83529522  1
  Ni  Ni36  1  0.50286104  0.16830938  0.49917470  1
  Ni  Ni37  1  0.33569695  1.00123861  0.66903652  1
  Ni  Ni38  1  0.50003486  0.16739256  0.83665629  1
  Ni  Ni39  1  0.50303106  0.50363962  0.50027115  1
  Cr  Cr40  1  0.33687281  0.33480535  0.66944371  1
  Ni  Ni41  1  0.50324494  0.50313456  0.83691763  1
  Cr  Cr42  1  0.50057042  0.83412522  0.50174609  1
  Ni  Ni43  1  0.33533761  0.66789228  0.66656705  1
  Ni  Ni44  1  0.50039519  0.83394392  0.83521288  1
  Ni  Ni45  1  0.83584360  0.17071230  0.49869839  1
  Cr  Cr46  1  0.66728893  0.00232355  0.66913198  1
  Fe  Fe47  1  0.83469284  0.17073712  0.83776230  1
  Fe  Fe48  1  0.83437521  0.50165853  0.50035843  1
  Cr  Cr49  1  0.66830161  0.33481532  0.66741649  1
  Ni  Ni50  1  0.83473939  0.50011798  0.83440261  1
  Fe  Fe51  1  0.83413717  0.83418078  0.49935075  1
  Ni  Ni52  1  0.66867881  0.66666434  0.66915932  1
  Cr  Cr53  1  0.83389693  0.83092091  0.83799815  1
" 