3324,Ni58Fe19Cr22_15,-231.696339997631, 184.160274841556,Ni58Fe19Cr22,"# generated using pymatgen
 data_Cr13Fe10Ni31
_symmetry_space_group_name_H-M   'P 1'
_cell_length_a   7.45041913
_cell_length_b   7.45041913
_cell_length_c   10.53648378
_cell_angle_alpha   90.00000000
_cell_angle_beta   90.00000000
_cell_angle_gamma   90.00000000
_symmetry_Int_Tables_number   1
_chemical_formula_structural   Cr13Fe10Ni31
_chemical_formula_sum   'Cr13 Fe10 Ni31'
_cell_volume   584.86699373
_cell_formula_units_Z   1
loop_
 _symmetry_equiv_pos_site_id
 _symmetry_equiv_pos_as_xyz
  1  'x, y, z'
loop_
 _atom_site_type_symbol
 _atom_site_label
 _atom_site_symmetry_multiplicity
 _atom_site_fract_x
 _atom_site_fract_y
 _atom_site_fract_z
 _atom_site_occupancy
  Fe  Fe0  1  0.00330783  0.99971580  0.99907640  1
  Cr  Cr1  1  0.17017156  0.16601166  0.16588423  1
  Cr  Cr2  1  1.00076556  0.99977871  0.33481146  1
  Cr  Cr3  1  1.00040459  0.33576861  0.00115654  1
  Ni  Ni4  1  0.16759800  0.50447457  0.16735522  1
  Cr  Cr5  1  0.99832139  0.33654218  0.33299216  1
  Ni  Ni6  1  0.00375526  0.66831907  1.00071719  1
  Ni  Ni7  1  0.16823253  0.83295392  0.16782182  1
  Fe  Fe8  1  0.00320178  0.66749250  0.33350654  1
  Fe  Fe9  1  0.33215564  0.00220817  1.00041232  1
  Ni  Ni10  1  0.50114171  0.17021757  0.16739013  1
  Ni  Ni11  1  0.33567161  0.99699445  0.33426976  1
  Ni  Ni12  1  0.33665836  0.33660826  1.00002180  1
  Ni  Ni13  1  0.50289600  0.49967071  0.16701811  1
  Cr  Cr14  1  0.33716073  0.33753365  0.33493163  1
  Ni  Ni15  1  0.33141928  0.66596779  0.00199288  1
  Cr  Cr16  1  0.49794785  0.83345579  0.16800118  1
  Ni  Ni17  1  0.33309123  0.66865123  0.33489178  1
  Cr  Cr18  1  0.66852001  0.00409609  1.00018999  1
  Fe  Fe19  1  0.83181713  0.17106896  0.16728553  1
  Cr  Cr20  1  0.66640693  0.00360924  0.33720331  1
  Ni  Ni21  1  0.66644842  0.33464392  0.00209196  1
  Ni  Ni22  1  0.83285223  0.50129077  0.16831610  1
  Ni  Ni23  1  0.66791281  0.33443231  0.33276812  1
  Fe  Fe24  1  0.66823146  0.66247990  1.00011817  1
  Cr  Cr25  1  0.83649363  0.83107577  0.16650755  1
  Fe  Fe26  1  0.66613143  0.66552869  0.33580332  1
  Cr  Cr27  1  0.16956394  0.16676321  0.50292087  1
  Ni  Ni28  1  0.99958260  0.99970967  0.66912168  1
  Ni  Ni29  1  0.16874795  0.16566292  0.83469284  1
  Ni  Ni30  1  0.16980817  0.50449989  0.50132429  1
  Cr  Cr31  1  1.00081265  0.33406949  0.66919724  1
  Ni  Ni32  1  0.16837865  0.50240060  0.83466912  1
  Fe  Fe33  1  0.16952527  0.83268472  0.50181188  1
  Fe  Fe34  1  0.00150588  0.67042710  0.66913871  1
  Ni  Ni35  1  0.16597839  0.83528485  0.83481971  1
  Ni  Ni36  1  0.50236580  0.16659245  0.50238753  1
  Ni  Ni37  1  0.33462998  0.99972082  0.66755887  1
  Ni  Ni38  1  0.50027258  0.16994760  0.83356885  1
  Ni  Ni39  1  0.50057283  0.50245548  0.50157539  1
  Fe  Fe40  1  0.33748093  0.33489903  0.66899126  1
  Ni  Ni41  1  0.50202296  0.49949369  0.83475621  1
  Ni  Ni42  1  0.50099962  0.83429784  0.50095931  1
  Ni  Ni43  1  0.33394460  0.66736042  0.66646602  1
  Cr  Cr44  1  0.50056466  0.83360831  0.83426938  1
  Ni  Ni45  1  0.83160558  0.16549394  0.50155823  1
  Ni  Ni46  1  0.66913622  0.00217233  0.66583401  1
  Ni  Ni47  1  0.83432974  0.16755100  0.83381660  1
  Cr  Cr48  1  0.83307053  0.50255417  0.50041215  1
  Ni  Ni49  1  0.66654633  0.33299966  0.66848615  1
  Ni  Ni50  1  0.83294830  0.50226331  0.83488793  1
  Ni  Ni51  1  0.83364382  0.83472952  0.50339671  1
  Ni  Ni52  1  0.66655800  0.66817525  0.66807438  1
  Fe  Fe53  1  0.83694995  0.83385332  0.83303041  1
" 