7830,Ni58Fe23Cr18_12,-233.813236735882, 193.505849574795,Ni58Fe23Cr18,"# generated using pymatgen
 data_Cr11Fe12Ni31
_symmetry_space_group_name_H-M   'P 1'
_cell_length_a   7.44753309
_cell_length_b   7.44753309
_cell_length_c   10.53240230
_cell_angle_alpha   90.00000000
_cell_angle_beta   90.00000000
_cell_angle_gamma   90.00000000
_symmetry_Int_Tables_number   1
_chemical_formula_structural   Cr11Fe12Ni31
_chemical_formula_sum   'Cr11 Fe12 Ni31'
_cell_volume   584.18758410
_cell_formula_units_Z   1
loop_
 _symmetry_equiv_pos_site_id
 _symmetry_equiv_pos_as_xyz
  1  'x, y, z'
loop_
 _atom_site_type_symbol
 _atom_site_label
 _atom_site_symmetry_multiplicity
 _atom_site_fract_x
 _atom_site_fract_y
 _atom_site_fract_z
 _atom_site_occupancy
  Fe  Fe0  1  0.00135233  0.00213906  0.00159108  1
  Ni  Ni1  1  0.16618123  0.16740971  0.16930591  1
  Ni  Ni2  1  0.99945067  0.00280621  0.33470837  1
  Cr  Cr3  1  0.00221728  0.33444712  1.00054257  1
  Ni  Ni4  1  0.16761962  0.50044016  0.16982321  1
  Ni  Ni5  1  0.00287905  0.33455592  0.33470770  1
  Cr  Cr6  1  0.00225372  0.66812054  0.00231060  1
  Cr  Cr7  1  0.16802877  0.83613933  0.17137356  1
  Ni  Ni8  1  0.99877732  0.66656887  0.33564688  1
  Fe  Fe9  1  0.33383314  0.00162444  0.00131110  1
  Fe  Fe10  1  0.50228649  0.16870484  0.17004855  1
  Ni  Ni11  1  0.33614415  0.00530537  0.33639403  1
  Cr  Cr12  1  0.33485492  0.33668799  0.00373818  1
  Ni  Ni13  1  0.50346272  0.50140353  0.16810925  1
  Ni  Ni14  1  0.33453334  0.33323683  0.33311724  1
  Ni  Ni15  1  0.33528509  0.66751664  0.99878717  1
  Cr  Cr16  1  0.50180416  0.83460144  0.16744344  1
  Cr  Cr17  1  0.33620797  0.66447750  0.33740168  1
  Ni  Ni18  1  0.66910321  1.00045769  0.00192980  1
  Ni  Ni19  1  0.83452809  0.16760900  0.16897382  1
  Ni  Ni20  1  0.66822862  0.00163735  0.33548959  1
  Ni  Ni21  1  0.66650243  0.33282036  0.00398488  1
  Ni  Ni22  1  0.83290682  0.49986164  0.17032793  1
  Fe  Fe23  1  0.66736781  0.33457063  0.33459489  1
  Fe  Fe24  1  0.66651009  0.66556809  0.00148653  1
  Fe  Fe25  1  0.83449117  0.83492046  0.16965577  1
  Ni  Ni26  1  0.66945859  0.66876298  0.33447217  1
  Ni  Ni27  1  0.16839571  0.16961908  0.50050394  1
  Cr  Cr28  1  0.99993187  1.00081874  0.66731142  1
  Ni  Ni29  1  0.16966961  0.16644203  0.83402680  1
  Ni  Ni30  1  0.16797341  0.49808024  0.50099124  1
  Ni  Ni31  1  0.00482116  0.33453931  0.66720916  1
  Ni  Ni32  1  0.17124951  0.50162599  0.83272781  1
  Fe  Fe33  1  0.16942032  0.83593430  0.49949524  1
  Cr  Cr34  1  0.00168704  0.66842999  0.66617307  1
  Ni  Ni35  1  0.17008844  0.83584594  0.83447739  1
  Ni  Ni36  1  0.50058150  0.16830934  0.49978804  1
  Fe  Fe37  1  0.33535050  0.00238774  0.66580075  1
  Cr  Cr38  1  0.50158310  0.16911833  0.83380412  1
  Ni  Ni39  1  0.50212180  0.50067549  0.50203883  1
  Ni  Ni40  1  0.33427422  0.33541944  0.66778811  1
  Ni  Ni41  1  0.50078560  0.50292453  0.83420300  1
  Ni  Ni42  1  0.50412070  0.83510312  0.50309848  1
  Fe  Fe43  1  0.33667738  0.66680400  0.66777878  1
  Fe  Fe44  1  0.50125194  0.83418038  0.83447334  1
  Fe  Fe45  1  0.83356969  0.16930486  0.50052788  1
  Ni  Ni46  1  0.66675934  0.99912061  0.66640123  1
  Cr  Cr47  1  0.83392429  0.16829157  0.83243228  1
  Fe  Fe48  1  0.83300346  0.50028864  0.50067445  1
  Ni  Ni49  1  0.66493532  0.33453964  0.66482688  1
  Cr  Cr50  1  0.83079499  0.50030270  0.83230258  1
  Ni  Ni51  1  0.83251478  0.83445373  0.49827921  1
  Ni  Ni52  1  0.66618180  0.67050996  0.66884303  1
  Ni  Ni53  1  0.83281092  0.83528381  0.83749422  1
" 