5304,Ni58Fe33Cr8_14,-239.341552214971, 211.22226985314,Ni58Fe33Cr8,"# generated using pymatgen
 data_Cr5Fe18Ni31
_symmetry_space_group_name_H-M   'P 1'
_cell_length_a   7.43093354
_cell_length_b   7.43093354
_cell_length_c   10.50892700
_cell_angle_alpha   90.00000000
_cell_angle_beta   90.00000000
_cell_angle_gamma   90.00000000
_symmetry_Int_Tables_number   1
_chemical_formula_structural   Cr5Fe18Ni31
_chemical_formula_sum   'Cr5 Fe18 Ni31'
_cell_volume   580.29005748
_cell_formula_units_Z   1
loop_
 _symmetry_equiv_pos_site_id
 _symmetry_equiv_pos_as_xyz
  1  'x, y, z'
loop_
 _atom_site_type_symbol
 _atom_site_label
 _atom_site_symmetry_multiplicity
 _atom_site_fract_x
 _atom_site_fract_y
 _atom_site_fract_z
 _atom_site_occupancy
  Fe  Fe0  1  1.00224481  1.00130018  1.00221348  1
  Ni  Ni1  1  0.16949678  0.16963890  0.16993232  1
  Fe  Fe2  1  0.00363355  0.00288628  0.33399750  1
  Fe  Fe3  1  0.00243135  0.33693511  0.00246715  1
  Ni  Ni4  1  0.16845492  0.50135796  0.16897118  1
  Ni  Ni5  1  0.00365148  0.33694199  0.33460659  1
  Ni  Ni6  1  1.00157931  0.66872681  1.00219492  1
  Fe  Fe7  1  0.16950029  0.83545832  0.16859766  1
  Fe  Fe8  1  0.00273188  0.66792351  0.33498663  1
  Fe  Fe9  1  0.33506445  0.00273899  0.00303085  1
  Ni  Ni10  1  0.50158231  0.16822994  0.16961119  1
  Ni  Ni11  1  0.33665925  0.00335897  0.33557689  1
  Fe  Fe12  1  0.33588799  0.33650347  0.00285081  1
  Ni  Ni13  1  0.50239239  0.50253626  0.16931511  1
  Ni  Ni14  1  0.33469479  0.33455430  0.33619700  1
  Fe  Fe15  1  0.33518232  0.66804440  0.00256427  1
  Ni  Ni16  1  0.50377790  0.83652244  0.16957151  1
  Fe  Fe17  1  0.33659987  0.66870237  0.33628482  1
  Fe  Fe18  1  0.66998090  1.00200809  0.00319940  1
  Fe  Fe19  1  0.83546266  0.16943273  0.16973510  1
  Ni  Ni20  1  0.66659317  1.00144642  0.33411705  1
  Fe  Fe21  1  0.66896928  0.33705282  1.00210032  1
  Ni  Ni22  1  0.83644170  0.50355355  0.17003399  1
  Fe  Fe23  1  0.66769780  0.33634547  0.33539518  1
  Ni  Ni24  1  0.67048026  0.66835371  0.00266360  1
  Ni  Ni25  1  0.83503283  0.83548239  0.16927167  1
  Ni  Ni26  1  0.66897895  0.66898648  0.33516657  1
  Fe  Fe27  1  0.17104643  0.17002628  0.50209101  1
  Fe  Fe28  1  0.00392388  1.00176310  0.67107549  1
  Ni  Ni29  1  0.16927002  0.16947478  0.83456188  1
  Ni  Ni30  1  0.16896524  0.50199224  0.50308582  1
  Ni  Ni31  1  0.00441096  0.33711375  0.67040918  1
  Ni  Ni32  1  0.16822810  0.50191125  0.83523630  1
  Fe  Fe33  1  0.17146747  0.83504668  0.50341790  1
  Ni  Ni34  1  0.00458022  0.66747403  0.67006806  1
  Ni  Ni35  1  0.16669615  0.83590407  0.83527127  1
  Ni  Ni36  1  0.50022880  0.16761331  0.50200009  1
  Ni  Ni37  1  0.33556030  0.00299994  0.66832544  1
  Ni  Ni38  1  0.50137819  0.16942466  0.83567991  1
  Ni  Ni39  1  0.50028871  0.50249074  0.50112977  1
  Fe  Fe40  1  0.33458164  0.33605569  0.66900251  1
  Ni  Ni41  1  0.50119286  0.50073351  0.83684581  1
  Ni  Ni42  1  0.50098672  0.83718612  0.50198868  1
  Ni  Ni43  1  0.33319124  0.66956149  0.66862805  1
  Cr  Cr44  1  0.50288592  0.83636203  0.83563734  1
  Cr  Cr45  1  0.83588952  0.16927863  0.50171442  1
  Ni  Ni46  1  0.66713688  0.00317073  0.67036686  1
  Fe  Fe47  1  0.83659194  0.16872470  0.83566550  1
  Ni  Ni48  1  0.83803614  0.50274866  0.50097384  1
  Cr  Cr49  1  0.66905174  0.33560067  0.66928161  1
  Ni  Ni50  1  0.83786666  0.50330904  0.83628116  1
  Cr  Cr51  1  0.83532747  0.83514525  0.50278112  1
  Cr  Cr52  1  0.66941446  0.66899503  0.66939848  1
  Ni  Ni53  1  0.83781816  0.83609075  0.83564875  1
" 