387,Ni58Fe33Cr8_4,-239.416159666052, 214.744953600216,Ni58Fe33Cr8,"# generated using pymatgen
 data_Cr5Fe18Ni31
_symmetry_space_group_name_H-M   'P 1'
_cell_length_a   7.42581288
_cell_length_b   7.42581288
_cell_length_c   10.50168529
_cell_angle_alpha   90.00000000
_cell_angle_beta   90.00000000
_cell_angle_gamma   90.00000000
_symmetry_Int_Tables_number   1
_chemical_formula_structural   Cr5Fe18Ni31
_chemical_formula_sum   'Cr5 Fe18 Ni31'
_cell_volume   579.09124928
_cell_formula_units_Z   1
loop_
 _symmetry_equiv_pos_site_id
 _symmetry_equiv_pos_as_xyz
  1  'x, y, z'
loop_
 _atom_site_type_symbol
 _atom_site_label
 _atom_site_symmetry_multiplicity
 _atom_site_fract_x
 _atom_site_fract_y
 _atom_site_fract_z
 _atom_site_occupancy
  Ni  Ni0  1  0.00318264  0.00528803  0.00399175  1
  Ni  Ni1  1  0.16899272  0.16992434  0.16967001  1
  Ni  Ni2  1  0.00426639  0.00359211  0.33455041  1
  Fe  Fe3  1  0.00462734  0.33406891  0.00363948  1
  Ni  Ni4  1  0.17108392  0.50152700  0.16994454  1
  Ni  Ni5  1  0.00350247  0.33579211  0.33492888  1
  Cr  Cr6  1  0.00438108  0.67047118  0.00461791  1
  Ni  Ni7  1  0.16901689  0.83687691  0.17131974  1
  Ni  Ni8  1  1.00224637  0.66894415  0.33514952  1
  Fe  Fe9  1  0.33547790  1.00192406  0.00317303  1
  Ni  Ni10  1  0.50303383  0.16995722  0.16991702  1
  Ni  Ni11  1  0.33539318  0.00358915  0.33557682  1
  Ni  Ni12  1  0.33650156  0.33679203  1.00224120  1
  Ni  Ni13  1  0.50250857  0.50305402  0.16955586  1
  Ni  Ni14  1  0.33566040  0.33529642  0.33616050  1
  Ni  Ni15  1  0.33887668  0.66826579  0.00344240  1
  Ni  Ni16  1  0.50453654  0.83531632  0.16923898  1
  Fe  Fe17  1  0.33479540  0.66921377  0.33513321  1
  Fe  Fe18  1  0.66853805  0.00291898  0.00407692  1
  Ni  Ni19  1  0.83630333  0.16789045  0.16946196  1
  Fe  Fe20  1  0.66917958  0.00353038  0.33485568  1
  Fe  Fe21  1  0.66791252  0.33596536  0.00346342  1
  Fe  Fe22  1  0.83515927  0.50261484  0.17063212  1
  Fe  Fe23  1  0.66977086  0.33579832  0.33587886  1
  Ni  Ni24  1  0.66545104  0.66944267  0.00429633  1
  Ni  Ni25  1  0.83477280  0.83740496  0.17025146  1
  Ni  Ni26  1  0.66916380  0.66867828  0.33441641  1
  Ni  Ni27  1  0.17022692  0.17071411  0.50315777  1
  Ni  Ni28  1  0.00412180  0.00520079  0.66978599  1
  Ni  Ni29  1  0.17017832  0.16948917  0.83550168  1
  Ni  Ni30  1  0.16910552  0.50027173  0.50306726  1
  Ni  Ni31  1  0.00331694  0.33433772  0.66950512  1
  Ni  Ni32  1  0.17233286  0.50017923  0.83531918  1
  Fe  Fe33  1  0.16992516  0.83768024  0.50185771  1
  Fe  Fe34  1  0.00373536  0.66844144  0.66855583  1
  Ni  Ni35  1  0.17026486  0.83865952  0.83455626  1
  Fe  Fe36  1  0.50139278  0.16967515  0.50292566  1
  Ni  Ni37  1  0.33539133  0.00436305  0.67040750  1
  Fe  Fe38  1  0.50141759  0.17024912  0.83564913  1
  Fe  Fe39  1  0.50319803  0.50153458  0.50241090  1
  Ni  Ni40  1  0.33569830  0.33467150  0.66992732  1
  Ni  Ni41  1  0.50193991  0.50170603  0.83618904  1
  Fe  Fe42  1  0.50143146  0.83711664  0.50192004  1
  Cr  Cr43  1  0.33636577  0.66904955  0.67013949  1
  Fe  Fe44  1  0.50106852  0.83578511  0.83692306  1
  Fe  Fe45  1  0.83760275  0.17150383  0.50301052  1
  Ni  Ni46  1  0.66881169  0.00395332  0.66989305  1
  Fe  Fe47  1  0.83743219  0.16966355  0.83580131  1
  Fe  Fe48  1  0.83703638  0.50095029  0.50307829  1
  Ni  Ni49  1  0.66931834  0.33588786  0.66870717  1
  Cr  Cr50  1  0.83470249  0.50210906  0.83423446  1
  Cr  Cr51  1  0.83583486  0.83616715  0.50370204  1
  Ni  Ni52  1  0.66847956  0.66849090  0.66961164  1
  Cr  Cr53  1  0.83526322  0.83793962  0.83450621  1
" 