5313,Ni58Fe33Cr8_19,-238.924403188117, 209.970802460723,Ni58Fe33Cr8,"# generated using pymatgen
 data_Cr5Fe18Ni31
_symmetry_space_group_name_H-M   'P 1'
_cell_length_a   7.42727317
_cell_length_b   7.42727317
_cell_length_c   10.50375045
_cell_angle_alpha   90.00000000
_cell_angle_beta   90.00000000
_cell_angle_gamma   90.00000000
_symmetry_Int_Tables_number   1
_chemical_formula_structural   Cr5Fe18Ni31
_chemical_formula_sum   'Cr5 Fe18 Ni31'
_cell_volume   579.43295248
_cell_formula_units_Z   1
loop_
 _symmetry_equiv_pos_site_id
 _symmetry_equiv_pos_as_xyz
  1  'x, y, z'
loop_
 _atom_site_type_symbol
 _atom_site_label
 _atom_site_symmetry_multiplicity
 _atom_site_fract_x
 _atom_site_fract_y
 _atom_site_fract_z
 _atom_site_occupancy
  Ni  Ni0  1  0.00405902  0.00432846  0.00317607  1
  Ni  Ni1  1  0.16830650  0.17063995  0.16794144  1
  Ni  Ni2  1  1.00164314  0.00350034  0.33562512  1
  Ni  Ni3  1  1.00219839  0.33414337  1.00176992  1
  Ni  Ni4  1  0.16757521  0.49946220  0.17227350  1
  Ni  Ni5  1  1.00173400  0.33495464  0.33663545  1
  Cr  Cr6  1  0.00294021  0.66935717  1.00151422  1
  Ni  Ni7  1  0.16881896  0.83768521  0.17093976  1
  Ni  Ni8  1  1.00208738  0.66926190  0.33624769  1
  Ni  Ni9  1  0.33522460  0.00378869  1.00144173  1
  Fe  Fe10  1  0.50206981  0.16866119  0.17013129  1
  Cr  Cr11  1  0.33395497  0.00273937  0.33797053  1
  Fe  Fe12  1  0.33274653  0.33561049  1.00193341  1
  Fe  Fe13  1  0.50129133  0.50313423  0.17235506  1
  Ni  Ni14  1  0.33589207  0.33630052  0.33531356  1
  Cr  Cr15  1  0.33587171  0.67059588  0.00342276  1
  Ni  Ni16  1  0.50417901  0.83743788  0.17120422  1
  Ni  Ni17  1  0.33608906  0.66842254  0.33634510  1
  Fe  Fe18  1  0.66998232  1.00242693  0.00303115  1
  Fe  Fe19  1  0.83838923  0.16843818  0.16985955  1
  Ni  Ni20  1  0.67117630  0.00353852  0.33624725  1
  Cr  Cr21  1  0.66973788  0.33684676  1.00261138  1
  Ni  Ni22  1  0.83689537  0.50168225  0.17177344  1
  Ni  Ni23  1  0.67032157  0.33610475  0.33653337  1
  Cr  Cr24  1  0.66942250  0.66897173  0.00305991  1
  Ni  Ni25  1  0.83506693  0.83706855  0.17081505  1
  Ni  Ni26  1  0.66977605  0.66864034  0.33504483  1
  Ni  Ni27  1  0.16808387  0.16965147  0.50357029  1
  Ni  Ni28  1  0.00316429  0.00373487  0.66936466  1
  Ni  Ni29  1  0.16723218  0.16910253  0.83640608  1
  Fe  Fe30  1  0.17038820  0.50131794  0.50210559  1
  Fe  Fe31  1  0.00423197  0.33563998  0.66912837  1
  Ni  Ni32  1  0.17057195  0.50032033  0.83336319  1
  Fe  Fe33  1  0.16797027  0.83392065  0.50377023  1
  Fe  Fe34  1  0.00467070  0.66985302  0.66885310  1
  Ni  Ni35  1  0.17084354  0.83839799  0.83402219  1
  Fe  Fe36  1  0.50264087  0.17238186  0.50289547  1
  Ni  Ni37  1  0.33400483  0.00348603  0.66945457  1
  Fe  Fe38  1  0.50016707  0.16844409  0.83504759  1
  Ni  Ni39  1  0.50382079  0.50384711  0.50146419  1
  Ni  Ni40  1  0.33667387  0.33539391  0.67033772  1
  Ni  Ni41  1  0.50214472  0.50328319  0.83434123  1
  Fe  Fe42  1  0.50403800  0.83401278  0.50347099  1
  Ni  Ni43  1  0.33784694  0.66898297  0.66930816  1
  Ni  Ni44  1  0.50338338  0.83677090  0.83408686  1
  Fe  Fe45  1  0.83635543  0.17028817  0.50286082  1
  Fe  Fe46  1  0.66804018  1.00210558  0.66875930  1
  Ni  Ni47  1  0.83711101  0.16805770  0.83467297  1
  Ni  Ni48  1  0.83438629  0.50311827  0.50342635  1
  Fe  Fe49  1  0.66812859  0.33591678  0.66899546  1
  Fe  Fe50  1  0.83810395  0.50132096  0.83306495  1
  Fe  Fe51  1  0.83589061  0.83517729  0.50169045  1
  Ni  Ni52  1  0.66987154  0.66779692  0.67057049  1
  Fe  Fe53  1  0.83737496  0.83852475  0.83434203  1
" 