1744,Ni58Fe16Cr24_15,-230.865915751702, 179.675770000645,Ni58Fe16Cr24,"# generated using pymatgen
 data_Cr14Fe9Ni31
_symmetry_space_group_name_H-M   'P 1'
_cell_length_a   7.45784753
_cell_length_b   7.45784753
_cell_length_c   10.54698912
_cell_angle_alpha   90.00000000
_cell_angle_beta   90.00000000
_cell_angle_gamma   90.00000000
_symmetry_Int_Tables_number   1
_chemical_formula_structural   Cr14Fe9Ni31
_chemical_formula_sum   'Cr14 Fe9 Ni31'
_cell_volume   586.61815330
_cell_formula_units_Z   1
loop_
 _symmetry_equiv_pos_site_id
 _symmetry_equiv_pos_as_xyz
  1  'x, y, z'
loop_
 _atom_site_type_symbol
 _atom_site_label
 _atom_site_symmetry_multiplicity
 _atom_site_fract_x
 _atom_site_fract_y
 _atom_site_fract_z
 _atom_site_occupancy
  Cr  Cr0  1  1.00031070  0.00157129  0.00168581  1
  Ni  Ni1  1  0.16607646  0.16863841  0.16903606  1
  Ni  Ni2  1  1.00004639  0.99993102  0.33216060  1
  Cr  Cr3  1  1.00039074  0.33520181  0.99957073  1
  Ni  Ni4  1  0.16833136  0.50128545  0.16930410  1
  Ni  Ni5  1  0.00233511  0.33631742  0.33329551  1
  Cr  Cr6  1  0.00077958  0.66508049  0.00278371  1
  Ni  Ni7  1  0.16640927  0.83192916  0.16885993  1
  Ni  Ni8  1  0.99940991  0.66560404  0.33269653  1
  Cr  Cr9  1  0.33628918  0.99955768  0.00163175  1
  Cr  Cr10  1  0.50167415  0.16878143  0.16811533  1
  Cr  Cr11  1  0.33504503  1.00036489  0.33315389  1
  Fe  Fe12  1  0.33453811  0.33525470  0.99936167  1
  Cr  Cr13  1  0.49965797  0.50149158  0.16702178  1
  Ni  Ni14  1  0.33090397  0.33443542  0.33370152  1
  Ni  Ni15  1  0.33568258  0.66668773  1.00045499  1
  Ni  Ni16  1  0.50144773  0.83155903  0.16694473  1
  Ni  Ni17  1  0.33301745  0.66666919  0.33269368  1
  Ni  Ni18  1  0.66502738  1.00044427  0.99973986  1
  Cr  Cr19  1  0.83393627  0.16629567  0.16863763  1
  Ni  Ni20  1  0.66754409  0.99781603  0.33441339  1
  Ni  Ni21  1  0.66695122  0.33434846  0.99739398  1
  Fe  Fe22  1  0.83462045  0.50240218  0.16933975  1
  Ni  Ni23  1  0.66860959  0.33507150  0.33484191  1
  Fe  Fe24  1  0.66530203  0.66774347  1.00029748  1
  Ni  Ni25  1  0.83399430  0.83381446  0.16947716  1
  Ni  Ni26  1  0.66942228  0.66896171  0.33293493  1
  Fe  Fe27  1  0.16825287  0.16819593  0.50017114  1
  Ni  Ni28  1  0.00132227  0.99984716  0.66811111  1
  Fe  Fe29  1  0.16911227  0.16855802  0.83224330  1
  Fe  Fe30  1  0.16601448  0.50081371  0.49888501  1
  Cr  Cr31  1  1.00054475  0.33599456  0.66875945  1
  Fe  Fe32  1  0.16984646  0.50002176  0.83362821  1
  Cr  Cr33  1  0.16577014  0.83321576  0.50167681  1
  Ni  Ni34  1  0.99900227  0.66639168  0.66650614  1
  Cr  Cr35  1  0.16851661  0.83331114  0.83135729  1
  Fe  Fe36  1  0.50104899  0.16635189  0.50187440  1
  Ni  Ni37  1  0.33601032  0.00225870  0.66769635  1
  Ni  Ni38  1  0.50220453  0.16987738  0.83264208  1
  Cr  Cr39  1  0.50064162  0.50007758  0.50018775  1
  Ni  Ni40  1  0.33455559  0.33204807  0.66901292  1
  Ni  Ni41  1  0.50048892  0.49903918  0.83434307  1
  Ni  Ni42  1  0.50212796  0.83404127  0.50152028  1
  Fe  Fe43  1  0.33569271  0.66738372  0.66835240  1
  Ni  Ni44  1  0.50021437  0.83293227  0.83338556  1
  Cr  Cr45  1  0.83310956  0.16622486  0.49968810  1
  Ni  Ni46  1  0.66452085  0.99964062  0.66769814  1
  Ni  Ni47  1  0.83130181  0.16881462  0.83353623  1
  Ni  Ni48  1  0.83406203  0.50194592  0.49925460  1
  Ni  Ni49  1  0.66567130  0.33436595  0.66961086  1
  Ni  Ni50  1  0.83093694  0.49803229  0.83328803  1
  Ni  Ni51  1  0.83358532  0.83329912  0.50081447  1
  Ni  Ni52  1  0.66809042  0.66784219  0.66810051  1
  Cr  Cr53  1  0.83290882  0.83552366  0.83141487  1
" 