2257,Ni58Fe23Cr18_17,-233.431325316218, 189.287164247828,Ni58Fe23Cr18,"# generated using pymatgen
 data_Cr11Fe12Ni31
_symmetry_space_group_name_H-M   'P 1'
_cell_length_a   7.44380670
_cell_length_b   7.44380670
_cell_length_c   10.52713239
_cell_angle_alpha   90.00000000
_cell_angle_beta   90.00000000
_cell_angle_gamma   90.00000000
_symmetry_Int_Tables_number   1
_chemical_formula_structural   Cr11Fe12Ni31
_chemical_formula_sum   'Cr11 Fe12 Ni31'
_cell_volume   583.31112431
_cell_formula_units_Z   1
loop_
 _symmetry_equiv_pos_site_id
 _symmetry_equiv_pos_as_xyz
  1  'x, y, z'
loop_
 _atom_site_type_symbol
 _atom_site_label
 _atom_site_symmetry_multiplicity
 _atom_site_fract_x
 _atom_site_fract_y
 _atom_site_fract_z
 _atom_site_occupancy
  Cr  Cr0  1  0.99908586  1.00153725  0.00476138  1
  Ni  Ni1  1  0.16812235  0.16995660  0.17028583  1
  Fe  Fe2  1  0.00341747  0.00172080  0.33310167  1
  Cr  Cr3  1  0.00176955  0.33569494  1.00007523  1
  Ni  Ni4  1  0.17040558  0.50311335  0.16954944  1
  Ni  Ni5  1  0.00404032  0.33637388  0.33382506  1
  Fe  Fe6  1  1.00098945  0.66872751  0.00226409  1
  Ni  Ni7  1  0.16730444  0.83235086  0.16916202  1
  Ni  Ni8  1  0.00288304  0.66969861  0.33471437  1
  Cr  Cr9  1  0.33884588  0.00161496  0.00383365  1
  Ni  Ni10  1  0.50280367  0.16949643  0.16626885  1
  Cr  Cr11  1  0.33895697  0.00173563  0.33217019  1
  Ni  Ni12  1  0.33572479  0.33631268  0.00354812  1
  Ni  Ni13  1  0.49813036  0.50290002  0.16823128  1
  Ni  Ni14  1  0.33170870  0.33546168  0.33371798  1
  Ni  Ni15  1  0.33450763  0.66784493  0.00399561  1
  Ni  Ni16  1  0.50356224  0.83171506  0.16791687  1
  Ni  Ni17  1  0.33210001  0.66901941  0.33501708  1
  Ni  Ni18  1  0.66865738  1.00091615  1.00064130  1
  Ni  Ni19  1  0.83437864  0.16564466  0.17012190  1
  Ni  Ni20  1  0.66912693  0.99865201  0.33420974  1
  Ni  Ni21  1  0.66794605  0.33201776  1.00120438  1
  Cr  Cr22  1  0.83263313  0.50277451  0.16826759  1
  Cr  Cr23  1  0.66549088  0.33019064  0.33220600  1
  Fe  Fe24  1  0.66675774  0.66997737  1.00062023  1
  Ni  Ni25  1  0.83359946  0.83547403  0.17075254  1
  Fe  Fe26  1  0.66598487  0.67004516  0.33517017  1
  Ni  Ni27  1  0.16947971  0.16653941  0.50231036  1
  Fe  Fe28  1  0.00315686  1.00144333  0.66931433  1
  Ni  Ni29  1  0.16896529  0.16966575  0.83249271  1
  Fe  Fe30  1  0.16749923  0.49931311  0.50121156  1
  Ni  Ni31  1  0.00256194  0.33576820  0.67004489  1
  Fe  Fe32  1  0.16916534  0.50134922  0.83438413  1
  Fe  Fe33  1  0.16795843  0.83488941  0.50200019  1
  Ni  Ni34  1  1.00154702  0.66779607  0.66925969  1
  Cr  Cr35  1  0.16965342  0.83483037  0.83561459  1
  Ni  Ni36  1  0.49942814  0.16804353  0.50441344  1
  Ni  Ni37  1  0.33673329  1.00145618  0.66817812  1
  Ni  Ni38  1  0.50174869  0.16880765  0.83345500  1
  Cr  Cr39  1  0.49913471  0.50184392  0.50084576  1
  Ni  Ni40  1  0.33273119  0.33286542  0.66776523  1
  Cr  Cr41  1  0.50029466  0.50174611  0.83524572  1
  Fe  Fe42  1  0.50205818  0.83736264  0.50241671  1
  Ni  Ni43  1  0.33367557  0.67036394  0.66592311  1
  Ni  Ni44  1  0.50347478  0.83405707  0.83306738  1
  Cr  Cr45  1  0.83722048  0.16701330  0.50130086  1
  Fe  Fe46  1  0.66724545  1.00137077  0.66925294  1
  Ni  Ni47  1  0.83435088  0.16717596  0.83242808  1
  Cr  Cr48  1  0.83486964  0.50306467  0.50171202  1
  Ni  Ni49  1  0.66909427  0.33405320  0.67006183  1
  Fe  Fe50  1  0.83397518  0.50155062  0.83313629  1
  Fe  Fe51  1  0.83568721  0.83576796  0.50139695  1
  Ni  Ni52  1  0.66930951  0.67134837  0.66785894  1
  Ni  Ni53  1  0.83434642  0.83384579  0.83357549  1
" 