4958,Ni58Fe33Cr8_7,-238.793349857771, 212.714141694444,Ni58Fe33Cr8,"# generated using pymatgen
 data_Cr5Fe18Ni31
_symmetry_space_group_name_H-M   'P 1'
_cell_length_a   7.42547851
_cell_length_b   7.42547851
_cell_length_c   10.50121242
_cell_angle_alpha   90.00000000
_cell_angle_beta   90.00000000
_cell_angle_gamma   90.00000000
_symmetry_Int_Tables_number   1
_chemical_formula_structural   Cr5Fe18Ni31
_chemical_formula_sum   'Cr5 Fe18 Ni31'
_cell_volume   579.01302727
_cell_formula_units_Z   1
loop_
 _symmetry_equiv_pos_site_id
 _symmetry_equiv_pos_as_xyz
  1  'x, y, z'
loop_
 _atom_site_type_symbol
 _atom_site_label
 _atom_site_symmetry_multiplicity
 _atom_site_fract_x
 _atom_site_fract_y
 _atom_site_fract_z
 _atom_site_occupancy
  Ni  Ni0  1  1.00049881  1.00201183  1.00203589  1
  Cr  Cr1  1  0.16974018  0.16679160  0.16839004  1
  Ni  Ni2  1  1.00095266  1.00197462  0.33666758  1
  Ni  Ni3  1  1.00175137  0.33673060  1.00261242  1
  Ni  Ni4  1  0.16796864  0.50389946  0.16921884  1
  Fe  Fe5  1  1.00167669  0.33528883  0.33606944  1
  Fe  Fe6  1  1.00211076  0.66988192  0.00292480  1
  Ni  Ni7  1  0.16903486  0.83702339  0.16891073  1
  Cr  Cr8  1  0.00368120  0.67036062  0.33550231  1
  Ni  Ni9  1  0.33739365  0.00280350  1.00141227  1
  Ni  Ni10  1  0.50445582  0.16807660  0.16823777  1
  Ni  Ni11  1  0.33617702  1.00006564  0.33668187  1
  Ni  Ni12  1  0.33655125  0.33660551  1.00162458  1
  Fe  Fe13  1  0.50436178  0.50272096  0.16924855  1
  Cr  Cr14  1  0.33696767  0.33666780  0.33538426  1
  Cr  Cr15  1  0.33602820  0.66889206  1.00179673  1
  Fe  Fe16  1  0.50317478  0.83766643  0.16906768  1
  Ni  Ni17  1  0.33598570  0.67211846  0.33658503  1
  Ni  Ni18  1  0.67075278  1.00240826  1.00205095  1
  Ni  Ni19  1  0.83412408  0.16903139  0.16997739  1
  Fe  Fe20  1  0.66840531  0.00307100  0.33497155  1
  Fe  Fe21  1  0.66920942  0.33422257  0.00281103  1
  Ni  Ni22  1  0.83437573  0.50310825  0.16868786  1
  Ni  Ni23  1  0.67173178  0.33515236  0.33520796  1
  Fe  Fe24  1  0.67103176  0.67030555  1.00094343  1
  Ni  Ni25  1  0.83538012  0.83624695  0.16866119  1
  Fe  Fe26  1  0.66904357  0.67061490  0.33584629  1
  Ni  Ni27  1  0.17004368  0.16780770  0.50268945  1
  Fe  Fe28  1  1.00256112  0.00346018  0.66990927  1
  Ni  Ni29  1  0.17079824  0.16887794  0.83682463  1
  Ni  Ni30  1  0.16751473  0.50303507  0.50435070  1
  Fe  Fe31  1  1.00217821  0.33675779  0.67025490  1
  Ni  Ni32  1  0.16807747  0.50176187  0.83473434  1
  Ni  Ni33  1  0.16957208  0.83768513  0.50386521  1
  Fe  Fe34  1  1.00234387  0.66825558  0.66950751  1
  Ni  Ni35  1  0.16804023  0.83791795  0.83569064  1
  Ni  Ni36  1  0.50371777  0.16738059  0.50338732  1
  Fe  Fe37  1  0.33723691  0.00380938  0.66982497  1
  Ni  Ni38  1  0.50217197  0.16953422  0.83679779  1
  Cr  Cr39  1  0.50475314  0.50219817  0.50375608  1
  Ni  Ni40  1  0.33574499  0.33509973  0.67066863  1
  Ni  Ni41  1  0.50482895  0.50155153  0.83578067  1
  Fe  Fe42  1  0.50168597  0.83646020  0.50394206  1
  Fe  Fe43  1  0.33601283  0.66907231  0.67084190  1
  Ni  Ni44  1  0.50413112  0.83745803  0.83483814  1
  Fe  Fe45  1  0.83666930  0.17110507  0.50206117  1
  Fe  Fe46  1  0.66877950  0.00409901  0.67111093  1
  Fe  Fe47  1  0.83661196  0.16952765  0.83746910  1
  Ni  Ni48  1  0.83573857  0.50275699  0.50283172  1
  Ni  Ni49  1  0.67001025  0.33568836  0.67159410  1
  Ni  Ni50  1  0.83551106  0.50399652  0.83677505  1
  Fe  Fe51  1  0.83607747  0.83691130  0.50419893  1
  Ni  Ni52  1  0.67141806  0.67026686  0.67002995  1
  Ni  Ni53  1  0.83635556  0.83493443  0.83588697  1
" 