1071,Ni58Fe23Cr18_10,-233.593079093822, 188.264992391611,Ni58Fe23Cr18,"# generated using pymatgen
 data_Cr11Fe12Ni31
_symmetry_space_group_name_H-M   'P 1'
_cell_length_a   7.44796114
_cell_length_b   7.44796114
_cell_length_c   10.53300766
_cell_angle_alpha   90.00000000
_cell_angle_beta   90.00000000
_cell_angle_gamma   90.00000000
_symmetry_Int_Tables_number   1
_chemical_formula_structural   Cr11Fe12Ni31
_chemical_formula_sum   'Cr11 Fe12 Ni31'
_cell_volume   584.28831995
_cell_formula_units_Z   1
loop_
 _symmetry_equiv_pos_site_id
 _symmetry_equiv_pos_as_xyz
  1  'x, y, z'
loop_
 _atom_site_type_symbol
 _atom_site_label
 _atom_site_symmetry_multiplicity
 _atom_site_fract_x
 _atom_site_fract_y
 _atom_site_fract_z
 _atom_site_occupancy
  Ni  Ni0  1  0.99994922  0.99945851  0.99768223  1
  Cr  Cr1  1  0.16618527  0.16931552  0.17026138  1
  Ni  Ni2  1  1.00063623  0.99970277  0.33807845  1
  Ni  Ni3  1  1.00024037  0.33597353  0.99885725  1
  Ni  Ni4  1  0.16528386  0.50180044  0.16882176  1
  Ni  Ni5  1  0.00380413  0.33575444  0.33741564  1
  Ni  Ni6  1  0.99816589  0.66808317  1.00014739  1
  Cr  Cr7  1  0.16446604  0.83378366  0.17122601  1
  Fe  Fe8  1  0.00151358  0.66719460  0.33689942  1
  Cr  Cr9  1  0.33276567  1.00105775  0.99680687  1
  Cr  Cr10  1  0.50136504  0.16760900  0.17010037  1
  Ni  Ni11  1  0.33363506  0.00143661  0.33983601  1
  Cr  Cr12  1  0.33310240  0.33514135  0.99854257  1
  Ni  Ni13  1  0.50052130  0.50335418  0.16884362  1
  Ni  Ni14  1  0.33358290  0.33610527  0.33653882  1
  Cr  Cr15  1  0.33448923  0.66722823  1.00007312  1
  Cr  Cr16  1  0.50360348  0.83473804  0.16962906  1
  Fe  Fe17  1  0.33342550  0.66614416  0.33700899  1
  Fe  Fe18  1  0.67026235  0.99932416  0.99786161  1
  Cr  Cr19  1  0.83685149  0.16517991  0.16797043  1
  Ni  Ni20  1  0.66924033  0.99893380  0.33773434  1
  Cr  Cr21  1  0.66869190  0.33821102  0.00208283  1
  Ni  Ni22  1  0.83792378  0.50397346  0.16803717  1
  Cr  Cr23  1  0.66976556  0.33581861  0.33661934  1
  Ni  Ni24  1  0.67014674  0.66855258  0.99917675  1
  Ni  Ni25  1  0.83525369  0.83253172  0.16565206  1
  Cr  Cr26  1  0.67037320  0.66749003  0.33735044  1
  Ni  Ni27  1  0.16690108  0.16781504  0.50094738  1
  Ni  Ni28  1  0.00293097  1.00072078  0.66748287  1
  Ni  Ni29  1  0.16506417  0.16687922  0.83214296  1
  Ni  Ni30  1  0.16839889  0.50176589  0.50211013  1
  Ni  Ni31  1  0.99964441  0.33381691  0.66771238  1
  Fe  Fe32  1  0.16557058  0.50084223  0.83199363  1
  Ni  Ni33  1  0.16662496  0.83375393  0.50103839  1
  Ni  Ni34  1  0.00170873  0.66896597  0.66744678  1
  Ni  Ni35  1  0.16658044  0.83375829  0.83250063  1
  Ni  Ni36  1  0.50146589  0.16887160  0.50198018  1
  Fe  Fe37  1  0.33273107  0.00231843  0.66780619  1
  Ni  Ni38  1  0.50289466  0.16791561  0.83136976  1
  Ni  Ni39  1  0.49943362  0.50153786  0.50380539  1
  Fe  Fe40  1  0.33263006  0.33398688  0.66737147  1
  Ni  Ni41  1  0.50324880  0.50226081  0.83174231  1
  Fe  Fe42  1  0.50007935  0.83623225  0.50339437  1
  Fe  Fe43  1  0.33258979  0.66733903  0.66811887  1
  Ni  Ni44  1  0.50205242  0.83358557  0.83077810  1
  Ni  Ni45  1  0.83539642  0.16628765  0.50192663  1
  Fe  Fe46  1  0.67098965  0.00310377  0.66686178  1
  Ni  Ni47  1  0.83558545  0.16892854  0.83373935  1
  Fe  Fe48  1  0.83775652  0.49997537  0.50491698  1
  Ni  Ni49  1  0.66692329  0.33543039  0.66664584  1
  Ni  Ni50  1  0.83490745  0.50146697  0.83257550  1
  Ni  Ni51  1  0.83632864  0.83559632  0.50303041  1
  Fe  Fe52  1  0.67068513  0.66729161  0.66748352  1
  Fe  Fe53  1  0.83482469  0.83484790  0.83301565  1
" 