1226,Ni58Fe23Cr18_7,-233.878456900953, 197.524605280839,Ni58Fe23Cr18,"# generated using pymatgen
 data_Cr11Fe12Ni31
_symmetry_space_group_name_H-M   'P 1'
_cell_length_a   7.44161860
_cell_length_b   7.44161860
_cell_length_c   10.52403796
_cell_angle_alpha   90.00000000
_cell_angle_beta   90.00000000
_cell_angle_gamma   90.00000000
_symmetry_Int_Tables_number   1
_chemical_formula_structural   Cr11Fe12Ni31
_chemical_formula_sum   'Cr11 Fe12 Ni31'
_cell_volume   582.79688482
_cell_formula_units_Z   1
loop_
 _symmetry_equiv_pos_site_id
 _symmetry_equiv_pos_as_xyz
  1  'x, y, z'
loop_
 _atom_site_type_symbol
 _atom_site_label
 _atom_site_symmetry_multiplicity
 _atom_site_fract_x
 _atom_site_fract_y
 _atom_site_fract_z
 _atom_site_occupancy
  Ni  Ni0  1  0.00504232  1.00101306  1.00111036  1
  Ni  Ni1  1  0.16824222  0.16672485  0.16820082  1
  Ni  Ni2  1  0.00350635  0.00287288  0.33589501  1
  Ni  Ni3  1  0.00196406  0.33456922  1.00137348  1
  Cr  Cr4  1  0.16800860  0.50078985  0.16799671  1
  Ni  Ni5  1  0.00422632  0.33299583  0.33592210  1
  Fe  Fe6  1  1.00009027  0.66985392  1.00143599  1
  Ni  Ni7  1  0.16765030  0.83766233  0.16725797  1
  Cr  Cr8  1  1.00131436  0.66944961  0.33506530  1
  Ni  Ni9  1  0.33232147  0.00329004  0.00215461  1
  Fe  Fe10  1  0.49781729  0.16956040  0.16782740  1
  Fe  Fe11  1  0.33199279  0.00216892  0.33611042  1
  Ni  Ni12  1  0.33534525  0.33223665  1.00094811  1
  Cr  Cr13  1  0.50343076  0.50125857  0.16834962  1
  Ni  Ni14  1  0.33358216  0.33337081  0.33593274  1
  Fe  Fe15  1  0.33504666  0.67016198  1.00063897  1
  Cr  Cr16  1  0.49992876  0.83413278  0.16900109  1
  Ni  Ni17  1  0.33598670  0.66844122  0.33743412  1
  Cr  Cr18  1  0.66789973  1.00067500  0.99931177  1
  Cr  Cr19  1  0.83737890  0.17001028  0.16842598  1
  Cr  Cr20  1  0.66835201  1.00020291  0.33712448  1
  Ni  Ni21  1  0.66781338  0.33816490  1.00034098  1
  Fe  Fe22  1  0.83470643  0.50295045  0.16705195  1
  Fe  Fe23  1  0.66847946  0.33527261  0.33504090  1
  Ni  Ni24  1  0.67009289  0.66652052  1.00102714  1
  Ni  Ni25  1  0.83692482  0.83327831  0.16761895  1
  Ni  Ni26  1  0.66775964  0.66915470  0.33441021  1
  Ni  Ni27  1  0.16703763  0.16808001  0.50106637  1
  Ni  Ni28  1  0.00191326  0.00224793  0.66811977  1
  Ni  Ni29  1  0.16760360  0.16658409  0.83585979  1
  Ni  Ni30  1  0.16880688  0.50164995  0.50229690  1
  Ni  Ni31  1  0.00274910  0.33402341  0.66782938  1
  Cr  Cr32  1  0.16748454  0.50204805  0.83436223  1
  Ni  Ni33  1  0.17014210  0.83539607  0.50188142  1
  Ni  Ni34  1  0.00288542  0.66885718  0.66816403  1
  Ni  Ni35  1  0.16962717  0.83628285  0.83598865  1
  Ni  Ni36  1  0.50208763  0.16675107  0.50150393  1
  Ni  Ni37  1  0.33577915  0.00234759  0.66780017  1
  Ni  Ni38  1  0.50248220  0.16817343  0.83509581  1
  Cr  Cr39  1  0.49953221  0.50242928  0.50113222  1
  Fe  Fe40  1  0.33402195  0.33220305  0.66800313  1
  Fe  Fe41  1  0.50276749  0.50039528  0.83676786  1
  Ni  Ni42  1  0.49955725  0.83615042  0.50097145  1
  Fe  Fe43  1  0.33234914  0.67154269  0.66751435  1
  Ni  Ni44  1  0.49994714  0.83519563  0.83523277  1
  Ni  Ni45  1  0.83599881  0.16808244  0.50283592  1
  Ni  Ni46  1  0.66743456  0.00248503  0.66830170  1
  Ni  Ni47  1  0.83504142  0.17038759  0.83372584  1
  Cr  Cr48  1  0.83700616  0.49888836  0.49991528  1
  Fe  Fe49  1  0.66971896  0.33057627  0.67050039  1
  Ni  Ni50  1  0.83395774  0.49972966  0.83757165  1
  Fe  Fe51  1  0.83608477  0.83811776  0.50197306  1
  Cr  Cr52  1  0.66865850  0.67093577  0.66951766  1
  Fe  Fe53  1  0.83668392  0.83591917  0.83532371  1
" 