1373,Ni58Fe19Cr22_10,-231.55083746521, 177.711257421717,Ni58Fe19Cr22,"# generated using pymatgen
 data_Cr13Fe10Ni31
_symmetry_space_group_name_H-M   'P 1'
_cell_length_a   7.45475062
_cell_length_b   7.45475062
_cell_length_c   10.54260943
_cell_angle_alpha   90.00000000
_cell_angle_beta   90.00000000
_cell_angle_gamma   90.00000000
_symmetry_Int_Tables_number   1
_chemical_formula_structural   Cr13Fe10Ni31
_chemical_formula_sum   'Cr13 Fe10 Ni31'
_cell_volume   585.88766818
_cell_formula_units_Z   1
loop_
 _symmetry_equiv_pos_site_id
 _symmetry_equiv_pos_as_xyz
  1  'x, y, z'
loop_
 _atom_site_type_symbol
 _atom_site_label
 _atom_site_symmetry_multiplicity
 _atom_site_fract_x
 _atom_site_fract_y
 _atom_site_fract_z
 _atom_site_occupancy
  Ni  Ni0  1  0.99978093  0.99989338  0.99923441  1
  Cr  Cr1  1  0.16639773  0.16493531  0.16745357  1
  Ni  Ni2  1  0.99961642  0.99701195  0.33471681  1
  Ni  Ni3  1  0.99870192  0.33401409  0.99832093  1
  Cr  Cr4  1  0.16586273  0.50334322  0.16749927  1
  Cr  Cr5  1  0.99373349  0.33447187  0.33412637  1
  Ni  Ni6  1  0.00156080  0.66843856  0.99901471  1
  Ni  Ni7  1  0.16855504  0.83384011  0.16678069  1
  Ni  Ni8  1  0.99957061  0.67109936  0.33510667  1
  Fe  Fe9  1  0.33382171  0.00183842  0.00111454  1
  Ni  Ni10  1  0.50393629  0.16466687  0.16570031  1
  Ni  Ni11  1  0.33628062  0.99645032  0.33266844  1
  Ni  Ni12  1  0.33561243  0.33425741  0.99860034  1
  Cr  Cr13  1  0.50321107  0.50261468  0.16649059  1
  Cr  Cr14  1  0.34029329  0.33305769  0.33369608  1
  Ni  Ni15  1  0.33333135  0.66820050  0.99887452  1
  Ni  Ni16  1  0.50013291  0.83566855  0.16713040  1
  Ni  Ni17  1  0.33523577  0.67270848  0.33682945  1
  Ni  Ni18  1  0.66808604  0.00273343  0.99932286  1
  Ni  Ni19  1  0.83161188  0.16730045  0.16616318  1
  Ni  Ni20  1  0.66690637  0.00187061  0.33657080  1
  Ni  Ni21  1  0.66696074  0.33244494  1.00059188  1
  Ni  Ni22  1  0.83340224  0.50033990  0.16600170  1
  Ni  Ni23  1  0.66821756  0.33343458  0.33477033  1
  Fe  Fe24  1  0.66941716  0.66622143  1.00037316  1
  Cr  Cr25  1  0.83318426  0.83421150  0.16750307  1
  Ni  Ni26  1  0.66799283  0.66721006  0.33456757  1
  Cr  Cr27  1  0.16618759  0.16497307  0.49742974  1
  Cr  Cr28  1  0.99903861  0.99881438  0.66843879  1
  Ni  Ni29  1  0.16616856  0.16950843  0.83674415  1
  Cr  Cr30  1  0.16684440  0.50355773  0.50130498  1
  Fe  Fe31  1  0.99758406  0.33537576  0.66887273  1
  Fe  Fe32  1  0.16740833  0.50163485  0.83541836  1
  Ni  Ni33  1  0.16627543  0.83232262  0.50003211  1
  Ni  Ni34  1  1.00061914  0.66801398  0.66873616  1
  Fe  Fe35  1  0.16749320  0.83374504  0.83585680  1
  Ni  Ni36  1  0.50507741  0.16709199  0.50069199  1
  Cr  Cr37  1  0.33531950  1.00029125  0.66733726  1
  Ni  Ni38  1  0.50049634  0.16981270  0.83592611  1
  Ni  Ni39  1  0.50368440  0.50145437  0.50033787  1
  Cr  Cr40  1  0.33726930  0.33449508  0.66825895  1
  Ni  Ni41  1  0.50065143  0.49941816  0.83581187  1
  Fe  Fe42  1  0.50228452  0.83440313  0.49853611  1
  Fe  Fe43  1  0.33382422  0.66714715  0.66782912  1
  Cr  Cr44  1  0.50457848  0.83406808  0.83613139  1
  Ni  Ni45  1  0.82970000  0.16660336  0.50260497  1
  Fe  Fe46  1  0.66862583  0.00264005  0.66775903  1
  Fe  Fe47  1  0.83143055  0.16759929  0.83533935  1
  Ni  Ni48  1  0.83170536  0.50203921  0.50117156  1
  Ni  Ni49  1  0.66728752  0.33380255  0.66732093  1
  Fe  Fe50  1  0.83334056  0.49962451  0.83508320  1
  Ni  Ni51  1  0.83452125  0.83407353  0.49987765  1
  Cr  Cr52  1  0.66919638  0.66642221  0.66660230  1
  Ni  Ni53  1  0.83651135  0.83332771  0.83586175  1
" 