411,Ni58Fe33Cr8_1,-238.691505413984, 213.273978046788,Ni58Fe33Cr8,"# generated using pymatgen
 data_Cr5Fe18Ni31
_symmetry_space_group_name_H-M   'P 1'
_cell_length_a   7.41925553
_cell_length_b   7.41925553
_cell_length_c   10.49241179
_cell_angle_alpha   90.00000000
_cell_angle_beta   90.00000000
_cell_angle_gamma   90.00000000
_symmetry_Int_Tables_number   1
_chemical_formula_structural   Cr5Fe18Ni31
_chemical_formula_sum   'Cr5 Fe18 Ni31'
_cell_volume   577.55850713
_cell_formula_units_Z   1
loop_
 _symmetry_equiv_pos_site_id
 _symmetry_equiv_pos_as_xyz
  1  'x, y, z'
loop_
 _atom_site_type_symbol
 _atom_site_label
 _atom_site_symmetry_multiplicity
 _atom_site_fract_x
 _atom_site_fract_y
 _atom_site_fract_z
 _atom_site_occupancy
  Ni  Ni0  1  1.00284850  0.00371968  0.00380887  1
  Fe  Fe1  1  0.17116089  0.16898639  0.16903286  1
  Fe  Fe2  1  1.00309256  1.00189169  0.33581803  1
  Ni  Ni3  1  0.00396111  0.33576259  1.00228667  1
  Ni  Ni4  1  0.17273207  0.50512331  0.16929493  1
  Cr  Cr5  1  0.00534600  0.33639077  0.33772843  1
  Ni  Ni6  1  1.00295971  0.67018023  1.00281669  1
  Ni  Ni7  1  0.16997950  0.83657212  0.16947449  1
  Ni  Ni8  1  0.00408506  0.67108182  0.33742449  1
  Ni  Ni9  1  0.33699402  0.00346380  0.00392223  1
  Fe  Fe10  1  0.50275347  0.16974633  0.16983097  1
  Fe  Fe11  1  0.33687264  0.00348687  0.33602222  1
  Ni  Ni12  1  0.33647559  0.33661520  0.00360743  1
  Ni  Ni13  1  0.50048220  0.50241908  0.16875752  1
  Ni  Ni14  1  0.33745344  0.33643801  0.33732430  1
  Ni  Ni15  1  0.33773343  0.66958943  0.00356586  1
  Ni  Ni16  1  0.50164715  0.83767836  0.16891864  1
  Ni  Ni17  1  0.33682324  0.66862620  0.33651988  1
  Ni  Ni18  1  0.66981961  1.00246357  1.00309446  1
  Fe  Fe19  1  0.83575291  0.16712767  0.16829672  1
  Fe  Fe20  1  0.66969747  0.00434283  0.33618130  1
  Ni  Ni21  1  0.66922241  0.33649573  1.00296134  1
  Cr  Cr22  1  0.83641560  0.50313321  0.16674909  1
  Fe  Fe23  1  0.66702236  0.33549971  0.33774372  1
  Ni  Ni24  1  0.66897009  0.67069794  1.00288421  1
  Ni  Ni25  1  0.83803625  0.83962219  0.16889095  1
  Cr  Cr26  1  0.66913637  0.67088556  0.33724455  1
  Ni  Ni27  1  0.17048026  0.16966953  0.50449881  1
  Ni  Ni28  1  0.00329032  0.00529175  0.66963604  1
  Fe  Fe29  1  0.16927778  0.17093431  0.83618666  1
  Ni  Ni30  1  0.17052296  0.50363293  0.50391657  1
  Ni  Ni31  1  0.00359373  0.33621327  0.66914689  1
  Ni  Ni32  1  0.16987073  0.50430200  0.83645601  1
  Cr  Cr33  1  0.16960391  0.83571711  0.50272800  1
  Ni  Ni34  1  1.00260148  0.66815627  0.66941492  1
  Fe  Fe35  1  0.16927217  0.83592545  0.83678766  1
  Ni  Ni36  1  0.50429574  0.17016991  0.50337141  1
  Ni  Ni37  1  0.33722474  0.00503890  0.66983751  1
  Fe  Fe38  1  0.50346628  0.17095856  0.83669528  1
  Ni  Ni39  1  0.50206892  0.50095376  0.50275232  1
  Fe  Fe40  1  0.33533746  0.33668350  0.66921816  1
  Ni  Ni41  1  0.50244423  0.50271270  0.83816433  1
  Fe  Fe42  1  0.50282199  0.83817491  0.50289830  1
  Fe  Fe43  1  0.33458073  0.66891530  0.67058339  1
  Fe  Fe44  1  0.50270519  0.83665781  0.83818736  1
  Ni  Ni45  1  0.83488862  0.16931388  0.50384507  1
  Fe  Fe46  1  0.67101944  0.00520061  0.66989785  1
  Ni  Ni47  1  0.83627030  0.16965093  0.83688257  1
  Ni  Ni48  1  0.83706514  0.50175832  0.50457831  1
  Fe  Fe49  1  0.67109467  0.33485975  0.66996092  1
  Ni  Ni50  1  0.83734264  0.50163749  0.83772494  1
  Fe  Fe51  1  0.83719150  0.83775171  0.50289044  1
  Cr  Cr52  1  0.67043305  0.66932548  0.66941332  1
  Fe  Fe53  1  0.83768627  0.83627749  0.83805003  1
" 