3410,Ni58Fe23Cr18_4,-233.286626850719, 186.84864576329,Ni58Fe23Cr18,"# generated using pymatgen
 data_Cr11Fe12Ni31
_symmetry_space_group_name_H-M   'P 1'
_cell_length_a   7.44837736
_cell_length_b   7.44837736
_cell_length_c   10.53359628
_cell_angle_alpha   90.00000000
_cell_angle_beta   90.00000000
_cell_angle_gamma   90.00000000
_symmetry_Int_Tables_number   1
_chemical_formula_structural   Cr11Fe12Ni31
_chemical_formula_sum   'Cr11 Fe12 Ni31'
_cell_volume   584.38628091
_cell_formula_units_Z   1
loop_
 _symmetry_equiv_pos_site_id
 _symmetry_equiv_pos_as_xyz
  1  'x, y, z'
loop_
 _atom_site_type_symbol
 _atom_site_label
 _atom_site_symmetry_multiplicity
 _atom_site_fract_x
 _atom_site_fract_y
 _atom_site_fract_z
 _atom_site_occupancy
  Ni  Ni0  1  0.00332356  0.99897721  0.00250307  1
  Ni  Ni1  1  0.16653644  0.16530042  0.16910797  1
  Ni  Ni2  1  1.00101551  0.00300888  0.33349618  1
  Cr  Cr3  1  1.00120782  0.33383768  0.00148857  1
  Cr  Cr4  1  0.16571395  0.50026220  0.16889752  1
  Ni  Ni5  1  0.00150530  0.33207190  0.33422200  1
  Ni  Ni6  1  0.99865763  0.67091787  1.00111141  1
  Ni  Ni7  1  0.16400115  0.83810858  0.16772852  1
  Fe  Fe8  1  0.99927595  0.66850962  0.33381146  1
  Ni  Ni9  1  0.33213897  0.00253246  1.00041444  1
  Cr  Cr10  1  0.50063234  0.16808015  0.16669450  1
  Ni  Ni11  1  0.33237390  0.00401071  0.33374960  1
  Ni  Ni12  1  0.33598729  0.33174342  0.99895147  1
  Cr  Cr13  1  0.50450991  0.49954658  0.16937621  1
  Ni  Ni14  1  0.33344701  0.33263555  0.33723706  1
  Cr  Cr15  1  0.33434409  0.66960234  0.99912696  1
  Cr  Cr16  1  0.50201019  0.83613323  0.16773492  1
  Cr  Cr17  1  0.33476839  0.66737901  0.33523423  1
  Fe  Fe18  1  0.66861138  1.00008962  1.00013302  1
  Fe  Fe19  1  0.83605365  0.16704979  0.16897769  1
  Ni  Ni20  1  0.67037487  0.00174495  0.33533607  1
  Ni  Ni21  1  0.66686336  0.33640894  1.00123085  1
  Fe  Fe22  1  0.83397925  0.50195356  0.16871444  1
  Ni  Ni23  1  0.66880751  0.33440946  0.33486817  1
  Ni  Ni24  1  0.67042123  0.66706810  0.99977965  1
  Fe  Fe25  1  0.83676540  0.83475715  0.16751431  1
  Ni  Ni26  1  0.66981243  0.66760579  0.33430384  1
  Ni  Ni27  1  0.16818122  0.17001777  0.50032382  1
  Ni  Ni28  1  0.00177185  0.00158989  0.66775909  1
  Ni  Ni29  1  0.16954947  0.16683451  0.83432722  1
  Ni  Ni30  1  0.16733209  0.49826191  0.50212508  1
  Ni  Ni31  1  0.00251929  0.33434566  0.66773220  1
  Fe  Fe32  1  0.16800395  0.50235837  0.83267144  1
  Cr  Cr33  1  0.16621795  0.83542742  0.50180864  1
  Ni  Ni34  1  0.00184176  0.66782688  0.66957264  1
  Ni  Ni35  1  0.16711478  0.83558256  0.83444510  1
  Ni  Ni36  1  0.50151599  0.16900180  0.50120108  1
  Ni  Ni37  1  0.33418161  0.00174384  0.66959242  1
  Fe  Fe38  1  0.49949806  0.16701241  0.83443417  1
  Fe  Fe39  1  0.49997671  0.49850908  0.50205610  1
  Fe  Fe40  1  0.33425489  0.33445193  0.66758815  1
  Ni  Ni41  1  0.50282016  0.50134306  0.83366525  1
  Cr  Cr42  1  0.50344158  0.83601247  0.50165591  1
  Ni  Ni43  1  0.33475939  0.66701774  0.66959487  1
  Ni  Ni44  1  0.50223706  0.83381502  0.83420900  1
  Fe  Fe45  1  0.83500004  0.16688248  0.50136830  1
  Ni  Ni46  1  0.66780768  1.00106817  0.66779341  1
  Cr  Cr47  1  0.83466013  0.16736662  0.83323564  1
  Cr  Cr48  1  0.83502374  0.50123275  0.50150368  1
  Ni  Ni49  1  0.66699916  0.33492477  0.66765919  1
  Fe  Fe50  1  0.83353146  0.50443603  0.83365609  1
  Fe  Fe51  1  0.83473503  0.83653855  0.50188503  1
  Ni  Ni52  1  0.66715749  0.66776642  0.66967700  1
  Ni  Ni53  1  0.83440773  0.83256546  0.83439403  1
" 