4680,Ni58Fe23Cr18_9,-233.86955428687, 192.719044801305,Ni58Fe23Cr18,"# generated using pymatgen
 data_Cr11Fe12Ni31
_symmetry_space_group_name_H-M   'P 1'
_cell_length_a   7.44944693
_cell_length_b   7.44944693
_cell_length_c   10.53510888
_cell_angle_alpha   90.00000000
_cell_angle_beta   90.00000000
_cell_angle_gamma   90.00000000
_symmetry_Int_Tables_number   1
_chemical_formula_structural   Cr11Fe12Ni31
_chemical_formula_sum   'Cr11 Fe12 Ni31'
_cell_volume   584.63806663
_cell_formula_units_Z   1
loop_
 _symmetry_equiv_pos_site_id
 _symmetry_equiv_pos_as_xyz
  1  'x, y, z'
loop_
 _atom_site_type_symbol
 _atom_site_label
 _atom_site_symmetry_multiplicity
 _atom_site_fract_x
 _atom_site_fract_y
 _atom_site_fract_z
 _atom_site_occupancy
  Ni  Ni0  1  0.00219886  1.00003980  1.00096606  1
  Ni  Ni1  1  0.16749555  0.16661648  0.16738717  1
  Ni  Ni2  1  0.00289942  0.99992767  0.33517704  1
  Ni  Ni3  1  0.00154634  0.33429099  1.00040080  1
  Fe  Fe4  1  0.16854503  0.50209538  0.16741779  1
  Ni  Ni5  1  0.00201823  0.33426395  0.33586991  1
  Ni  Ni6  1  0.00232735  0.66922029  1.00029927  1
  Ni  Ni7  1  0.16910592  0.83593427  0.16783991  1
  Ni  Ni8  1  0.00176064  0.66935359  0.33621178  1
  Ni  Ni9  1  0.33346475  0.00137756  0.00176553  1
  Fe  Fe10  1  0.49968645  0.16869451  0.16654001  1
  Fe  Fe11  1  0.33125832  1.00018259  0.33452467  1
  Ni  Ni12  1  0.33607320  0.33490843  0.00243700  1
  Ni  Ni13  1  0.50074005  0.50139472  0.16745480  1
  Cr  Cr14  1  0.33504220  0.33490792  0.33401062  1
  Ni  Ni15  1  0.33395695  0.66725958  1.00092028  1
  Cr  Cr16  1  0.49892472  0.83206904  0.16718302  1
  Ni  Ni17  1  0.33352565  0.66745087  0.33426339  1
  Fe  Fe18  1  0.66761823  0.00164530  0.99812901  1
  Cr  Cr19  1  0.83679659  0.16895121  0.16720107  1
  Fe  Fe20  1  0.66815830  1.00100004  0.33557723  1
  Ni  Ni21  1  0.66592326  0.33477903  1.00065989  1
  Cr  Cr22  1  0.83361575  0.50020791  0.16782107  1
  Fe  Fe23  1  0.66796771  0.33684497  0.33530937  1
  Ni  Ni24  1  0.66726156  0.66660323  0.99860455  1
  Cr  Cr25  1  0.83583567  0.83438768  0.16828209  1
  Ni  Ni26  1  0.66825810  0.66656574  0.33681324  1
  Ni  Ni27  1  0.16781114  0.16765261  0.50141178  1
  Cr  Cr28  1  0.00128741  0.99974395  0.66760146  1
  Cr  Cr29  1  0.16693942  0.16825181  0.83420589  1
  Ni  Ni30  1  0.16705147  0.49989260  0.50041242  1
  Fe  Fe31  1  1.00085773  0.33534021  0.66718095  1
  Fe  Fe32  1  0.16804922  0.50187578  0.83604382  1
  Ni  Ni33  1  0.16840572  0.83599748  0.49852559  1
  Cr  Cr34  1  0.99957922  0.66802395  0.66731883  1
  Ni  Ni35  1  0.16921714  0.83471765  0.83717797  1
  Fe  Fe36  1  0.49955312  0.16933949  0.50291594  1
  Ni  Ni37  1  0.33589923  0.00394769  0.66673061  1
  Fe  Fe38  1  0.50269940  0.16706039  0.83408765  1
  Ni  Ni39  1  0.50328683  0.50126005  0.50097873  1
  Ni  Ni40  1  0.33669932  0.33305726  0.66663873  1
  Ni  Ni41  1  0.50269786  0.50209153  0.83510940  1
  Cr  Cr42  1  0.50086504  0.83333850  0.50119086  1
  Cr  Cr43  1  0.33474271  0.66673931  0.66854422  1
  Ni  Ni44  1  0.50214944  0.83340723  0.83526412  1
  Cr  Cr45  1  0.83575657  0.16975686  0.50045308  1
  Ni  Ni46  1  0.66663271  0.00202333  0.66972751  1
  Ni  Ni47  1  0.83348757  0.16859984  0.83578428  1
  Ni  Ni48  1  0.83320481  0.50066796  0.50072937  1
  Ni  Ni49  1  0.66570043  0.33484906  0.66766373  1
  Fe  Fe50  1  0.83311208  0.50135265  0.83532742  1
  Fe  Fe51  1  0.83514205  0.83203041  0.49987108  1
  Ni  Ni52  1  0.66878330  0.66667308  0.66812919  1
  Ni  Ni53  1  0.83217670  0.83512903  0.83570125  1
" 