3599,Ni58Fe33Cr8_2,-238.697060535074, 211.732309524,Ni58Fe33Cr8,"# generated using pymatgen
 data_Cr5Fe18Ni31
_symmetry_space_group_name_H-M   'P 1'
_cell_length_a   7.42674863
_cell_length_b   7.42674863
_cell_length_c   10.50300863
_cell_angle_alpha   90.00000000
_cell_angle_beta   90.00000000
_cell_angle_gamma   90.00000000
_symmetry_Int_Tables_number   1
_chemical_formula_structural   Cr5Fe18Ni31
_chemical_formula_sum   'Cr5 Fe18 Ni31'
_cell_volume   579.31019501
_cell_formula_units_Z   1
loop_
 _symmetry_equiv_pos_site_id
 _symmetry_equiv_pos_as_xyz
  1  'x, y, z'
loop_
 _atom_site_type_symbol
 _atom_site_label
 _atom_site_symmetry_multiplicity
 _atom_site_fract_x
 _atom_site_fract_y
 _atom_site_fract_z
 _atom_site_occupancy
  Fe  Fe0  1  0.00410562  1.00223027  0.00282600  1
  Ni  Ni1  1  0.17041680  0.16883470  0.16992742  1
  Fe  Fe2  1  0.00320925  0.00414583  0.33672298  1
  Cr  Cr3  1  0.00333811  0.33746942  0.00278484  1
  Ni  Ni4  1  0.16966011  0.50228100  0.16916664  1
  Fe  Fe5  1  0.00334482  0.33442349  0.33566140  1
  Ni  Ni6  1  0.00435217  0.66917067  0.00345660  1
  Ni  Ni7  1  0.16988882  0.83704094  0.16843930  1
  Cr  Cr8  1  1.00115741  0.66939904  0.33541674  1
  Ni  Ni9  1  0.33640841  0.00321718  1.00233034  1
  Fe  Fe10  1  0.50172414  0.16778947  0.16890768  1
  Ni  Ni11  1  0.33624893  0.00447050  0.33650642  1
  Ni  Ni12  1  0.33584390  0.33433076  1.00218000  1
  Cr  Cr13  1  0.50147774  0.50209087  0.16937240  1
  Ni  Ni14  1  0.33464546  0.33354443  0.33622113  1
  Ni  Ni15  1  0.33299755  0.67054535  1.00260005  1
  Ni  Ni16  1  0.50251052  0.83762185  0.16995735  1
  Fe  Fe17  1  0.33711412  0.67065604  0.33582614  1
  Ni  Ni18  1  0.66777092  0.00459386  0.00393633  1
  Fe  Fe19  1  0.83572094  0.16841882  0.16962127  1
  Fe  Fe20  1  0.66861437  1.00200196  0.33661376  1
  Ni  Ni21  1  0.66929629  0.33379943  1.00167182  1
  Ni  Ni22  1  0.83629883  0.50261822  0.17004876  1
  Fe  Fe23  1  0.66965699  0.33535832  0.33641313  1
  Cr  Cr24  1  0.67090010  0.66956736  0.00275895  1
  Ni  Ni25  1  0.83578536  0.83704081  0.16916668  1
  Ni  Ni26  1  0.67044665  0.67036021  0.33660781  1
  Ni  Ni27  1  0.16971037  0.17035798  0.50323857  1
  Ni  Ni28  1  0.00344821  0.00359897  0.66847629  1
  Ni  Ni29  1  0.17113611  0.16902590  0.83502495  1
  Fe  Fe30  1  0.17066746  0.50118394  0.50327699  1
  Fe  Fe31  1  1.00261645  0.33466104  0.66997167  1
  Ni  Ni32  1  0.17048507  0.50347967  0.83613128  1
  Fe  Fe33  1  0.17012555  0.83900044  0.50360080  1
  Fe  Fe34  1  0.00368087  0.66960214  0.66943034  1
  Ni  Ni35  1  0.17070328  0.83569256  0.83625911  1
  Ni  Ni36  1  0.50214887  0.16927638  0.50218339  1
  Ni  Ni37  1  0.33581470  0.00435036  0.66928059  1
  Ni  Ni38  1  0.50253502  0.16990926  0.83659101  1
  Fe  Fe39  1  0.50313220  0.50200202  0.50239674  1
  Ni  Ni40  1  0.33511432  0.33502268  0.66971122  1
  Fe  Fe41  1  0.50153065  0.50111498  0.83571814  1
  Ni  Ni42  1  0.50357982  0.83556111  0.50276831  1
  Fe  Fe43  1  0.33653154  0.67068272  0.67004801  1
  Fe  Fe44  1  0.50055390  0.83761377  0.83527927  1
  Ni  Ni45  1  0.83622290  0.16881221  0.50286835  1
  Ni  Ni46  1  0.66884714  1.00226388  0.66802248  1
  Ni  Ni47  1  0.83433945  0.17004885  0.83539628  1
  Fe  Fe48  1  0.83427113  0.50186967  0.50335168  1
  Fe  Fe49  1  0.66893772  0.33416021  0.67007251  1
  Ni  Ni50  1  0.83594467  0.50163530  0.83439544  1
  Ni  Ni51  1  0.83437791  0.83646545  0.50348602  1
  Ni  Ni52  1  0.67017229  0.66889095  0.66837992  1
  Cr  Cr53  1  0.83694533  0.83720404  0.83600594  1
" 