7300,Ni58Fe23Cr18_0,-233.429300495449, 191.989662540927,Ni58Fe23Cr18,"# generated using pymatgen
 data_Cr11Fe12Ni31
_symmetry_space_group_name_H-M   'P 1'
_cell_length_a   7.44324657
_cell_length_b   7.44324657
_cell_length_c   10.52634025
_cell_angle_alpha   90.00000000
_cell_angle_beta   90.00000000
_cell_angle_gamma   90.00000000
_symmetry_Int_Tables_number   1
_chemical_formula_structural   Cr11Fe12Ni31
_chemical_formula_sum   'Cr11 Fe12 Ni31'
_cell_volume   583.17945478
_cell_formula_units_Z   1
loop_
 _symmetry_equiv_pos_site_id
 _symmetry_equiv_pos_as_xyz
  1  'x, y, z'
loop_
 _atom_site_type_symbol
 _atom_site_label
 _atom_site_symmetry_multiplicity
 _atom_site_fract_x
 _atom_site_fract_y
 _atom_site_fract_z
 _atom_site_occupancy
  Cr  Cr0  1  1.00052656  1.00094905  1.00063140  1
  Ni  Ni1  1  0.16834861  0.17045636  0.17010117  1
  Fe  Fe2  1  0.00367334  0.00370359  0.33478358  1
  Fe  Fe3  1  1.00116319  0.33790565  0.00286067  1
  Ni  Ni4  1  0.16975597  0.50051707  0.16800320  1
  Ni  Ni5  1  0.00240112  0.33441920  0.33421202  1
  Ni  Ni6  1  0.00363040  0.66639667  0.99991727  1
  Fe  Fe7  1  0.16919001  0.83255507  0.16924981  1
  Ni  Ni8  1  0.00242533  0.66697335  0.33468644  1
  Cr  Cr9  1  0.33663315  1.00085490  1.00106181  1
  Fe  Fe10  1  0.50127935  0.16998389  0.16756520  1
  Ni  Ni11  1  0.33454965  1.00153768  0.33555200  1
  Ni  Ni12  1  0.33570925  0.33562821  0.00334692  1
  Ni  Ni13  1  0.49899621  0.50217921  0.16833510  1
  Ni  Ni14  1  0.33305892  0.33350264  0.33471336  1
  Ni  Ni15  1  0.33214582  0.66763619  0.00213692  1
  Fe  Fe16  1  0.49994568  0.83404982  0.17015885  1
  Ni  Ni17  1  0.33489660  0.66975630  0.33448560  1
  Fe  Fe18  1  0.66742289  0.00381821  1.00001874  1
  Ni  Ni19  1  0.83594043  0.16884731  0.16812910  1
  Fe  Fe20  1  0.66676039  1.00120128  0.33524365  1
  Ni  Ni21  1  0.66903096  0.33230882  1.00117099  1
  Ni  Ni22  1  0.83604693  0.50061612  0.16842209  1
  Cr  Cr23  1  0.66924018  0.33564728  0.33636617  1
  Cr  Cr24  1  0.66905751  0.66763010  1.00093920  1
  Cr  Cr25  1  0.83421833  0.83487567  0.17039104  1
  Ni  Ni26  1  0.66747135  0.66846952  0.33559546  1
  Ni  Ni27  1  0.16804967  0.16692397  0.49970292  1
  Fe  Fe28  1  0.00232929  0.99992640  0.66868229  1
  Cr  Cr29  1  0.16851256  0.16885553  0.83505702  1
  Fe  Fe30  1  0.16811361  0.50292665  0.49992025  1
  Cr  Cr31  1  0.99858370  0.33603869  0.66821409  1
  Ni  Ni32  1  0.16722067  0.50500376  0.83701816  1
  Fe  Fe33  1  0.16977019  0.83442299  0.50189672  1
  Ni  Ni34  1  0.00219917  0.66940569  0.67019388  1
  Ni  Ni35  1  0.16808514  0.83205314  0.83296669  1
  Fe  Fe36  1  0.50128550  0.16814762  0.50131655  1
  Fe  Fe37  1  0.33483769  0.99864410  0.66755987  1
  Ni  Ni38  1  0.50377840  0.16727426  0.83571625  1
  Ni  Ni39  1  0.50169012  0.50404768  0.50180859  1
  Cr  Cr40  1  0.33682609  0.33461414  0.66651358  1
  Cr  Cr41  1  0.50113979  0.50181408  0.83451991  1
  Ni  Ni42  1  0.49955582  0.83265546  0.50051198  1
  Ni  Ni43  1  0.33386847  0.67146837  0.66817288  1
  Ni  Ni44  1  0.50103603  0.83544230  0.83438606  1
  Ni  Ni45  1  0.83730478  0.16906395  0.50075708  1
  Cr  Cr46  1  0.66737771  0.00289659  0.67059258  1
  Ni  Ni47  1  0.83274916  0.16814135  0.83591333  1
  Ni  Ni48  1  0.83364421  0.50166512  0.50152589  1
  Ni  Ni49  1  0.66956430  0.33479350  0.66780689  1
  Ni  Ni50  1  0.83614380  0.50226175  0.83484988  1
  Cr  Cr51  1  0.83475114  0.83357181  0.50066000  1
  Ni  Ni52  1  0.66872694  0.66746479  0.66810842  1
  Ni  Ni53  1  0.83567499  0.83439421  0.83388756  1
" 