5755,Ni58Fe33Cr8_0,-238.503514373763, 212.334134179672,Ni58Fe33Cr8,"# generated using pymatgen
 data_Cr5Fe18Ni31
_symmetry_space_group_name_H-M   'P 1'
_cell_length_a   7.42108307
_cell_length_b   7.42108307
_cell_length_c   10.49499633
_cell_angle_alpha   90.00000000
_cell_angle_beta   90.00000000
_cell_angle_gamma   90.00000000
_symmetry_Int_Tables_number   1
_chemical_formula_structural   Cr5Fe18Ni31
_chemical_formula_sum   'Cr5 Fe18 Ni31'
_cell_volume   577.98541262
_cell_formula_units_Z   1
loop_
 _symmetry_equiv_pos_site_id
 _symmetry_equiv_pos_as_xyz
  1  'x, y, z'
loop_
 _atom_site_type_symbol
 _atom_site_label
 _atom_site_symmetry_multiplicity
 _atom_site_fract_x
 _atom_site_fract_y
 _atom_site_fract_z
 _atom_site_occupancy
  Fe  Fe0  1  0.00762683  0.00368291  0.00376150  1
  Ni  Ni1  1  0.17056275  0.16917888  0.17026201  1
  Fe  Fe2  1  0.00344169  0.00460963  0.33718790  1
  Fe  Fe3  1  0.00579254  0.33640243  0.00404583  1
  Fe  Fe4  1  0.17034947  0.50168670  0.16908621  1
  Ni  Ni5  1  0.00311679  0.33829245  0.33662217  1
  Ni  Ni6  1  0.00449159  0.66657416  1.00260727  1
  Ni  Ni7  1  0.17022866  0.83603445  0.16928430  1
  Ni  Ni8  1  0.00388503  0.66811900  0.33709494  1
  Ni  Ni9  1  0.33762052  0.00411116  1.00277740  1
  Ni  Ni10  1  0.50229671  0.17211772  0.17016934  1
  Ni  Ni11  1  0.33729687  0.00375781  0.33543646  1
  Ni  Ni12  1  0.33612510  0.33549307  1.00231489  1
  Ni  Ni13  1  0.50131010  0.50280599  0.16944998  1
  Ni  Ni14  1  0.33499403  0.33420680  0.33585779  1
  Ni  Ni15  1  0.33370267  0.66984562  1.00308346  1
  Fe  Fe16  1  0.50140890  0.83859322  0.16902239  1
  Fe  Fe17  1  0.33661664  0.66985407  0.33380864  1
  Ni  Ni18  1  0.66578163  0.00547284  0.00324079  1
  Ni  Ni19  1  0.83655901  0.16970551  0.17017868  1
  Ni  Ni20  1  0.66710136  0.00422916  0.33849925  1
  Fe  Fe21  1  0.66768691  0.33732067  0.00424847  1
  Fe  Fe22  1  0.83710538  0.50110547  0.17015402  1
  Ni  Ni23  1  0.67061226  0.33532861  0.33480166  1
  Fe  Fe24  1  0.66595300  0.66880654  1.00303697  1
  Cr  Cr25  1  0.83759923  0.83735393  0.16945681  1
  Ni  Ni26  1  0.67160675  0.67005494  0.33581991  1
  Fe  Fe27  1  0.16955932  0.16984654  0.50272027  1
  Ni  Ni28  1  0.00613448  1.00154650  0.66863386  1
  Ni  Ni29  1  0.17212687  0.17098494  0.83604463  1
  Fe  Fe30  1  0.16759478  0.50203513  0.50330733  1
  Fe  Fe31  1  0.00407466  0.33624596  0.66854493  1
  Ni  Ni32  1  0.17028381  0.50274648  0.83557952  1
  Fe  Fe33  1  0.16965833  0.83697339  0.50217003  1
  Ni  Ni34  1  0.00395606  0.66828220  0.66931823  1
  Fe  Fe35  1  0.17091313  0.83677245  0.83718820  1
  Ni  Ni36  1  0.50104481  0.16924978  0.50218077  1
  Ni  Ni37  1  0.33639593  0.00414204  0.67098817  1
  Ni  Ni38  1  0.50000738  0.16849758  0.83694833  1
  Cr  Cr39  1  0.50111291  0.50311151  0.50288788  1
  Fe  Fe40  1  0.33434474  0.33472193  0.67056620  1
  Fe  Fe41  1  0.50208230  0.50344630  0.83801561  1
  Fe  Fe42  1  0.50517597  0.83791293  0.50392700  1
  Fe  Fe43  1  0.33620511  0.67265851  0.67183980  1
  Ni  Ni44  1  0.50195501  0.83630349  0.83633463  1
  Ni  Ni45  1  0.83698699  0.16793850  0.50183325  1
  Ni  Ni46  1  0.66726993  1.00243898  0.66776594  1
  Cr  Cr47  1  0.83792282  0.16825584  0.83750286  1
  Ni  Ni48  1  0.83723726  0.50504366  0.50194630  1
  Cr  Cr49  1  0.67004653  0.33576497  0.67045727  1
  Ni  Ni50  1  0.83857354  0.50474341  0.83796694  1
  Ni  Ni51  1  0.83761187  0.83622523  0.50382712  1
  Ni  Ni52  1  0.67180700  0.67029363  0.67103241  1
  Cr  Cr53  1  0.83627804  0.83630634  0.83639545  1
" 