5726,Ni58Fe19Cr22_16,-231.955155074653, 186.516418034428,Ni58Fe19Cr22,"# generated using pymatgen
 data_Cr13Fe10Ni31
_symmetry_space_group_name_H-M   'P 1'
_cell_length_a   7.45346364
_cell_length_b   7.45346364
_cell_length_c   10.54078936
_cell_angle_alpha   90.00000000
_cell_angle_beta   90.00000000
_cell_angle_gamma   90.00000000
_symmetry_Int_Tables_number   1
_chemical_formula_structural   Cr13Fe10Ni31
_chemical_formula_sum   'Cr13 Fe10 Ni31'
_cell_volume   585.58427884
_cell_formula_units_Z   1
loop_
 _symmetry_equiv_pos_site_id
 _symmetry_equiv_pos_as_xyz
  1  'x, y, z'
loop_
 _atom_site_type_symbol
 _atom_site_label
 _atom_site_symmetry_multiplicity
 _atom_site_fract_x
 _atom_site_fract_y
 _atom_site_fract_z
 _atom_site_occupancy
  Ni  Ni0  1  0.99898092  0.99980089  0.99927402  1
  Cr  Cr1  1  0.16796576  0.16826008  0.16736608  1
  Cr  Cr2  1  1.00035491  0.00135455  0.33530932  1
  Ni  Ni3  1  0.99830451  0.33427313  1.00015776  1
  Cr  Cr4  1  0.16606539  0.50018834  0.16595970  1
  Ni  Ni5  1  0.00114064  0.33377889  0.33507145  1
  Ni  Ni6  1  0.99988878  0.66865938  0.00171976  1
  Ni  Ni7  1  0.16683490  0.83389980  0.16627954  1
  Cr  Cr8  1  1.00005294  0.66724535  0.33264866  1
  Cr  Cr9  1  0.33460941  0.99871824  0.00104995  1
  Ni  Ni10  1  0.50255040  0.16615848  0.16825937  1
  Ni  Ni11  1  0.33732302  0.00109126  0.33492250  1
  Ni  Ni12  1  0.33443012  0.33451065  0.00146383  1
  Cr  Cr13  1  0.50187170  0.50088175  0.16575486  1
  Fe  Fe14  1  0.33393261  0.33115340  0.33642525  1
  Ni  Ni15  1  0.33381510  0.66939095  1.00039110  1
  Ni  Ni16  1  0.50370421  0.83565388  0.16795415  1
  Cr  Cr17  1  0.33499817  0.67022364  0.33543623  1
  Ni  Ni18  1  0.66926787  1.00041444  0.00278364  1
  Ni  Ni19  1  0.83275434  0.16700115  0.16649375  1
  Ni  Ni20  1  0.66486920  0.99987949  0.33368744  1
  Ni  Ni21  1  0.66999922  0.33360358  0.00131773  1
  Fe  Fe22  1  0.83399786  0.50113164  0.16568035  1
  Cr  Cr23  1  0.66826134  0.33203441  0.33394450  1
  Ni  Ni24  1  0.66903020  0.66871550  1.00073041  1
  Ni  Ni25  1  0.83219494  0.83421393  0.16670407  1
  Ni  Ni26  1  0.66718149  0.67077364  0.33473531  1
  Ni  Ni27  1  0.16968815  0.16948712  0.50132780  1
  Fe  Fe28  1  0.00301287  0.00156897  0.66815581  1
  Ni  Ni29  1  0.16566433  0.16718523  0.83351402  1
  Fe  Fe30  1  0.16867620  0.49902628  0.50251587  1
  Ni  Ni31  1  0.00094891  0.33433719  0.66750803  1
  Cr  Cr32  1  0.16613590  0.49967039  0.83505830  1
  Fe  Fe33  1  0.16878879  0.83590667  0.50299243  1
  Ni  Ni34  1  0.00135705  0.66822944  0.66746686  1
  Ni  Ni35  1  0.16587981  0.83554090  0.83327789  1
  Ni  Ni36  1  0.49740421  0.16732623  0.49983821  1
  Ni  Ni37  1  0.33265615  1.00007536  0.66671249  1
  Cr  Cr38  1  0.49965401  0.16796815  0.83552037  1
  Fe  Fe39  1  0.49996429  0.50064366  0.50240274  1
  Ni  Ni40  1  0.33347328  0.33306277  0.66437614  1
  Cr  Cr41  1  0.50262973  0.50178278  0.83387718  1
  Ni  Ni42  1  0.50193424  0.83486242  0.50019676  1
  Fe  Fe43  1  0.33413529  0.66877398  0.66689334  1
  Ni  Ni44  1  0.50166061  0.83289203  0.83458628  1
  Fe  Fe45  1  0.83439388  0.16660336  0.50094894  1
  Cr  Cr46  1  0.66719234  0.00104220  0.66712839  1
  Fe  Fe47  1  0.83658900  0.16815494  0.83589381  1
  Cr  Cr48  1  0.83446313  0.50237328  0.50149764  1
  Ni  Ni49  1  0.66831269  0.33484147  0.66717326  1
  Ni  Ni50  1  0.83447928  0.50172642  0.83510707  1
  Ni  Ni51  1  0.83258478  0.83335321  0.50101685  1
  Fe  Fe52  1  0.66795422  0.66726671  0.66768684  1
  Ni  Ni53  1  0.83519452  0.83249606  0.83501357  1
" 