8666,Ni58Fe19Cr22_2,-231.718409921761, 187.00706960051,Ni58Fe19Cr22,"# generated using pymatgen
 data_Cr13Fe10Ni31
_symmetry_space_group_name_H-M   'P 1'
_cell_length_a   7.45284986
_cell_length_b   7.45284986
_cell_length_c   10.53992135
_cell_angle_alpha   90.00000000
_cell_angle_beta   90.00000000
_cell_angle_gamma   90.00000000
_symmetry_Int_Tables_number   1
_chemical_formula_structural   Cr13Fe10Ni31
_chemical_formula_sum   'Cr13 Fe10 Ni31'
_cell_volume   585.43962647
_cell_formula_units_Z   1
loop_
 _symmetry_equiv_pos_site_id
 _symmetry_equiv_pos_as_xyz
  1  'x, y, z'
loop_
 _atom_site_type_symbol
 _atom_site_label
 _atom_site_symmetry_multiplicity
 _atom_site_fract_x
 _atom_site_fract_y
 _atom_site_fract_z
 _atom_site_occupancy
  Fe  Fe0  1  0.00129630  0.00282236  0.00237319  1
  Ni  Ni1  1  0.16756253  0.16696141  0.16671848  1
  Ni  Ni2  1  1.00031734  0.00229542  0.33359787  1
  Ni  Ni3  1  0.00136241  0.33279908  0.00209717  1
  Ni  Ni4  1  0.16615124  0.49977919  0.16666647  1
  Cr  Cr5  1  0.00314703  0.33263100  0.33499391  1
  Fe  Fe6  1  0.00137156  0.66512293  0.00245291  1
  Ni  Ni7  1  0.16609423  0.83644496  0.16757702  1
  Ni  Ni8  1  0.00194668  0.66880822  0.33340330  1
  Ni  Ni9  1  0.33308894  0.99959613  0.00333730  1
  Cr  Cr10  1  0.49990957  0.16897325  0.16833622  1
  Fe  Fe11  1  0.33410298  0.00202137  0.33369276  1
  Ni  Ni12  1  0.33216686  0.33641110  1.00045158  1
  Ni  Ni13  1  0.50364189  0.49989696  0.16724659  1
  Ni  Ni14  1  0.33419277  0.33482245  0.33618705  1
  Cr  Cr15  1  0.33590013  0.66762592  0.00219482  1
  Ni  Ni16  1  0.50162412  0.83444142  0.16850857  1
  Cr  Cr17  1  0.33452618  0.66578842  0.33246134  1
  Cr  Cr18  1  0.66815495  0.99945639  0.99813561  1
  Fe  Fe19  1  0.83469952  0.16821768  0.16788455  1
  Ni  Ni20  1  0.66860421  0.00096984  0.33747177  1
  Ni  Ni21  1  0.66952960  0.33583844  0.00240597  1
  Fe  Fe22  1  0.83345167  0.50060787  0.16759932  1
  Ni  Ni23  1  0.66613097  0.33327893  0.33343730  1
  Ni  Ni24  1  0.66589973  0.66707596  1.00071758  1
  Cr  Cr25  1  0.83431390  0.83197737  0.16931556  1
  Ni  Ni26  1  0.66531367  0.66869536  0.33433008  1
  Ni  Ni27  1  0.16834302  0.16689956  0.50190273  1
  Ni  Ni28  1  0.99789635  0.00282551  0.66757506  1
  Cr  Cr29  1  0.16750866  0.16890232  0.83419829  1
  Ni  Ni30  1  0.16780817  0.50047663  0.50377263  1
  Ni  Ni31  1  0.00269692  0.33172469  0.66652849  1
  Ni  Ni32  1  0.16702620  0.50081541  0.83246533  1
  Cr  Cr33  1  0.16620032  0.83431355  0.49971236  1
  Ni  Ni34  1  0.00197745  0.66845528  0.66778799  1
  Cr  Cr35  1  0.16729532  0.83393681  0.83536241  1
  Ni  Ni36  1  0.50046354  0.16659456  0.49981436  1
  Fe  Fe37  1  0.33525336  0.99939400  0.66648032  1
  Cr  Cr38  1  0.49971151  0.16858616  0.83447769  1
  Ni  Ni39  1  0.50107865  0.50106467  0.50076035  1
  Fe  Fe40  1  0.33305628  0.33744976  0.66573676  1
  Ni  Ni41  1  0.50090859  0.50241785  0.83467491  1
  Ni  Ni42  1  0.50272991  0.83529375  0.50109175  1
  Ni  Ni43  1  0.33641823  0.66658238  0.66814102  1
  Ni  Ni44  1  0.50188639  0.83320265  0.83316374  1
  Ni  Ni45  1  0.83411354  0.16543267  0.50020731  1
  Fe  Fe46  1  0.66959945  0.99881706  0.66655440  1
  Ni  Ni47  1  0.83589030  0.16711772  0.83516765  1
  Cr  Cr48  1  0.83442354  0.50406077  0.49869898  1
  Cr  Cr49  1  0.66804816  0.33265780  0.66676971  1
  Cr  Cr50  1  0.83519019  0.50117974  0.83598953  1
  Fe  Fe51  1  0.83342634  0.83521689  0.50046784  1
  Ni  Ni52  1  0.66428858  0.67112945  0.66782215  1
  Fe  Fe53  1  0.83369528  0.83352819  0.83251724  1
" 