2279,Ni58Fe19Cr22_19,-231.714116361515, 185.093192013033,Ni58Fe19Cr22,"# generated using pymatgen
 data_Cr13Fe10Ni31
_symmetry_space_group_name_H-M   'P 1'
_cell_length_a   7.45252949
_cell_length_b   7.45252949
_cell_length_c   10.53946828
_cell_angle_alpha   90.00000000
_cell_angle_beta   90.00000000
_cell_angle_gamma   90.00000000
_symmetry_Int_Tables_number   1
_chemical_formula_structural   Cr13Fe10Ni31
_chemical_formula_sum   'Cr13 Fe10 Ni31'
_cell_volume   585.36413233
_cell_formula_units_Z   1
loop_
 _symmetry_equiv_pos_site_id
 _symmetry_equiv_pos_as_xyz
  1  'x, y, z'
loop_
 _atom_site_type_symbol
 _atom_site_label
 _atom_site_symmetry_multiplicity
 _atom_site_fract_x
 _atom_site_fract_y
 _atom_site_fract_z
 _atom_site_occupancy
  Ni  Ni0  1  0.99989199  0.00124652  0.99988102  1
  Ni  Ni1  1  0.16777316  0.16864492  0.16878724  1
  Cr  Cr2  1  0.00102235  0.00151214  0.33363516  1
  Ni  Ni3  1  0.99986565  0.33247900  1.00090053  1
  Cr  Cr4  1  0.16601069  0.49998750  0.16765488  1
  Fe  Fe5  1  1.00041334  0.33318220  0.33406662  1
  Ni  Ni6  1  0.99815479  0.66933471  1.00071241  1
  Ni  Ni7  1  0.16376297  0.83479359  0.16678557  1
  Ni  Ni8  1  0.99634502  0.66903016  0.33320612  1
  Cr  Cr9  1  0.33150741  0.00177526  0.00400893  1
  Ni  Ni10  1  0.50180572  0.16848394  0.16736866  1
  Ni  Ni11  1  0.33475654  0.00365690  0.33319137  1
  Ni  Ni12  1  0.33449008  0.33370399  0.00117865  1
  Ni  Ni13  1  0.50210252  0.49897477  0.16669914  1
  Ni  Ni14  1  0.33606441  0.32999670  0.33491508  1
  Cr  Cr15  1  0.33510764  0.66793557  0.99851919  1
  Fe  Fe16  1  0.50341888  0.83553217  0.16798807  1
  Cr  Cr17  1  0.33696199  0.67014470  0.33352082  1
  Ni  Ni18  1  0.67030955  1.00027876  0.00227883  1
  Ni  Ni19  1  0.83347515  0.16578711  0.16462049  1
  Fe  Fe20  1  0.66655224  0.99989392  0.33332881  1
  Ni  Ni21  1  0.66853911  0.33559500  0.00110011  1
  Fe  Fe22  1  0.83346289  0.50095555  0.16642891  1
  Cr  Cr23  1  0.66831792  0.33428374  0.33464870  1
  Ni  Ni24  1  0.66939386  0.66714245  0.00123618  1
  Ni  Ni25  1  0.83345858  0.83376638  0.16736914  1
  Ni  Ni26  1  0.67018055  0.66789282  0.33440970  1
  Fe  Fe27  1  0.16720676  0.16625517  0.50111050  1
  Fe  Fe28  1  0.99997799  0.00247408  0.66896989  1
  Ni  Ni29  1  0.16557688  0.16909792  0.83357738  1
  Cr  Cr30  1  0.16679964  0.49964686  0.49938803  1
  Ni  Ni31  1  0.99940133  0.33173097  0.66707346  1
  Ni  Ni32  1  0.16608149  0.49910561  0.83500649  1
  Cr  Cr33  1  0.16787124  0.83363370  0.50245483  1
  Cr  Cr34  1  0.99913740  0.66708684  0.66958468  1
  Fe  Fe35  1  0.16734432  0.83487691  0.83422138  1
  Ni  Ni36  1  0.50113746  0.16390783  0.50006464  1
  Ni  Ni37  1  0.33367950  0.99998399  0.66720992  1
  Cr  Cr38  1  0.50244619  0.16616489  0.83687147  1
  Fe  Fe39  1  0.50243233  0.50233883  0.49989677  1
  Cr  Cr40  1  0.33485005  0.33444133  0.66723517  1
  Ni  Ni41  1  0.50075018  0.50219773  0.83522687  1
  Ni  Ni42  1  0.50294228  0.83807816  0.50038950  1
  Ni  Ni43  1  0.33606124  0.67073631  0.66953169  1
  Ni  Ni44  1  0.50381587  0.83465773  0.83378303  1
  Ni  Ni45  1  0.83299706  0.16644072  0.50310716  1
  Fe  Fe46  1  0.66760085  1.00012041  0.66751722  1
  Fe  Fe47  1  0.83576635  0.16811029  0.83587638  1
  Ni  Ni48  1  0.83669975  0.50095124  0.49811925  1
  Cr  Cr49  1  0.67091145  0.33540287  0.66790386  1
  Ni  Ni50  1  0.83630011  0.50154374  0.83786279  1
  Ni  Ni51  1  0.83125697  0.83536763  0.50005112  1
  Cr  Cr52  1  0.66710001  0.66655508  0.66665766  1
  Ni  Ni53  1  0.83330845  0.83568086  0.83546666  1
" 