7178,Ni58Fe19Cr22_17,-231.845732234466, 185.900585020111,Ni58Fe19Cr22,"# generated using pymatgen
 data_Cr13Fe10Ni31
_symmetry_space_group_name_H-M   'P 1'
_cell_length_a   7.45226222
_cell_length_b   7.45226222
_cell_length_c   10.53909030
_cell_angle_alpha   90.00000000
_cell_angle_beta   90.00000000
_cell_angle_gamma   90.00000000
_symmetry_Int_Tables_number   1
_chemical_formula_structural   Cr13Fe10Ni31
_chemical_formula_sum   'Cr13 Fe10 Ni31'
_cell_volume   585.30115562
_cell_formula_units_Z   1
loop_
 _symmetry_equiv_pos_site_id
 _symmetry_equiv_pos_as_xyz
  1  'x, y, z'
loop_
 _atom_site_type_symbol
 _atom_site_label
 _atom_site_symmetry_multiplicity
 _atom_site_fract_x
 _atom_site_fract_y
 _atom_site_fract_z
 _atom_site_occupancy
  Ni  Ni0  1  0.00217769  1.00076865  0.99934237  1
  Fe  Fe1  1  0.16718995  0.16732814  0.16774781  1
  Cr  Cr2  1  0.00220588  0.00117799  0.33632211  1
  Ni  Ni3  1  0.99936709  0.33464874  0.00152464  1
  Cr  Cr4  1  0.16621156  0.50260137  0.16755544  1
  Ni  Ni5  1  0.00141201  0.33648682  0.33598952  1
  Ni  Ni6  1  0.00119809  0.66755676  0.00110273  1
  Ni  Ni7  1  0.17015311  0.83518170  0.16719565  1
  Ni  Ni8  1  0.00216290  0.66497253  0.33580862  1
  Ni  Ni9  1  0.33357178  0.99805029  0.00315996  1
  Cr  Cr10  1  0.49987682  0.16866241  0.16995588  1
  Fe  Fe11  1  0.33370975  1.00056919  0.33449203  1
  Cr  Cr12  1  0.33548978  0.33586871  0.99863318  1
  Ni  Ni13  1  0.50392399  0.50259639  0.16823679  1
  Ni  Ni14  1  0.33433150  0.33543606  0.33717494  1
  Ni  Ni15  1  0.33597084  0.66922573  0.99971412  1
  Fe  Fe16  1  0.49899607  0.83033773  0.16817288  1
  Ni  Ni17  1  0.33437610  0.66657074  0.33501383  1
  Cr  Cr18  1  0.66624834  0.99972151  0.99822342  1
  Cr  Cr19  1  0.83502912  0.17238286  0.16738304  1
  Ni  Ni20  1  0.66529743  0.00156967  0.33557087  1
  Ni  Ni21  1  0.66851324  0.33672499  0.99916772  1
  Ni  Ni22  1  0.83203607  0.50083641  0.16823653  1
  Ni  Ni23  1  0.66708108  0.33610263  0.33716323  1
  Ni  Ni24  1  0.66574610  0.66603951  0.00107512  1
  Cr  Cr25  1  0.83530254  0.83031311  0.16704388  1
  Ni  Ni26  1  0.66635947  0.66528409  0.33307455  1
  Ni  Ni27  1  0.16979199  0.16768371  0.49956177  1
  Fe  Fe28  1  0.00158653  0.00125304  0.66695120  1
  Cr  Cr29  1  0.16776357  0.16732640  0.83732276  1
  Ni  Ni30  1  0.16826050  0.50121140  0.50052719  1
  Cr  Cr31  1  0.00307377  0.33635213  0.66544545  1
  Ni  Ni32  1  0.16914691  0.50321856  0.83397560  1
  Ni  Ni33  1  0.16820345  0.83420682  0.50183767  1
  Ni  Ni34  1  0.00179409  0.66781821  0.66593994  1
  Cr  Cr35  1  0.16807421  0.83269015  0.83334175  1
  Fe  Fe36  1  0.50003699  0.16981781  0.50157501  1
  Ni  Ni37  1  0.33729544  0.00255498  0.66617026  1
  Ni  Ni38  1  0.50322019  0.16706863  0.83173188  1
  Ni  Ni39  1  0.50123919  0.49850819  0.50089731  1
  Ni  Ni40  1  0.33624918  0.33494755  0.66711915  1
  Ni  Ni41  1  0.50086186  0.50178518  0.83373070  1
  Cr  Cr42  1  0.49932128  0.83408620  0.49878888  1
  Fe  Fe43  1  0.33438772  0.66597058  0.66741675  1
  Ni  Ni44  1  0.50106199  0.83415711  0.83497733  1
  Fe  Fe45  1  0.83295984  0.16979802  0.50096109  1
  Ni  Ni46  1  0.66664588  0.00181894  0.66995347  1
  Ni  Ni47  1  0.83192429  0.16627911  0.83436674  1
  Ni  Ni48  1  0.83350291  0.50003767  0.49774501  1
  Fe  Fe49  1  0.66522772  0.33358419  0.66738221  1
  Cr  Cr50  1  0.83421253  0.50092706  0.83755729  1
  Cr  Cr51  1  0.83487696  0.83254662  0.50259122  1
  Fe  Fe52  1  0.66585027  0.66649418  0.66827133  1
  Fe  Fe53  1  0.83306079  0.83441118  0.83334855  1
" 