5212,Ni58Fe19Cr22_3,-231.98296348269, 184.570050989339,Ni58Fe19Cr22,"# generated using pymatgen
 data_Cr13Fe10Ni31
_symmetry_space_group_name_H-M   'P 1'
_cell_length_a   7.45467422
_cell_length_b   7.45467422
_cell_length_c   10.54250139
_cell_angle_alpha   90.00000000
_cell_angle_beta   90.00000000
_cell_angle_gamma   90.00000000
_symmetry_Int_Tables_number   1
_chemical_formula_structural   Cr13Fe10Ni31
_chemical_formula_sum   'Cr13 Fe10 Ni31'
_cell_volume   585.86965635
_cell_formula_units_Z   1
loop_
 _symmetry_equiv_pos_site_id
 _symmetry_equiv_pos_as_xyz
  1  'x, y, z'
loop_
 _atom_site_type_symbol
 _atom_site_label
 _atom_site_symmetry_multiplicity
 _atom_site_fract_x
 _atom_site_fract_y
 _atom_site_fract_z
 _atom_site_occupancy
  Ni  Ni0  1  0.99847894  0.00122032  0.00150494  1
  Ni  Ni1  1  0.16582782  0.16350417  0.16748415  1
  Ni  Ni2  1  1.00030243  1.00028053  0.33432278  1
  Fe  Fe3  1  0.99640524  0.33263130  0.00139412  1
  Cr  Cr4  1  0.16269224  0.49949013  0.16729126  1
  Ni  Ni5  1  0.99688766  0.33363643  0.33300230  1
  Fe  Fe6  1  0.99624754  0.66850940  1.00082416  1
  Fe  Fe7  1  0.16354236  0.83757249  0.16758482  1
  Ni  Ni8  1  0.99709638  0.66851011  0.33485171  1
  Ni  Ni9  1  0.33514610  0.00114496  0.00338425  1
  Fe  Fe10  1  0.50458684  0.16517466  0.16657559  1
  Ni  Ni11  1  0.33425643  1.00033090  0.33166893  1
  Cr  Cr12  1  0.33544441  0.33175030  0.99988826  1
  Cr  Cr13  1  0.50660510  0.50219532  0.16839760  1
  Cr  Cr14  1  0.33516824  0.33111128  0.33450676  1
  Cr  Cr15  1  0.33606070  0.66938747  0.99904374  1
  Fe  Fe16  1  0.50410608  0.83750292  0.16731985  1
  Cr  Cr17  1  0.33426132  0.67063263  0.33646391  1
  Ni  Ni18  1  0.66884047  1.00077249  1.00050142  1
  Ni  Ni19  1  0.83532901  0.16652069  0.16812791  1
  Fe  Fe20  1  0.66899166  1.00062820  0.33454630  1
  Ni  Ni21  1  0.67056967  0.33387040  0.99884501  1
  Ni  Ni22  1  0.83320113  0.50132950  0.16805772  1
  Ni  Ni23  1  0.67133531  0.33389256  0.33564421  1
  Ni  Ni24  1  0.67047534  0.66793575  0.99991840  1
  Ni  Ni25  1  0.83283911  0.83468077  0.16789416  1
  Ni  Ni26  1  0.67089468  0.66764744  0.33439899  1
  Cr  Cr27  1  0.16557424  0.16750772  0.50069085  1
  Ni  Ni28  1  0.99517018  1.00061814  0.66663067  1
  Cr  Cr29  1  0.16612253  0.16775671  0.83484744  1
  Ni  Ni30  1  0.16803360  0.50141823  0.50101169  1
  Cr  Cr31  1  0.99836640  0.33411824  0.66855622  1
  Ni  Ni32  1  0.16841269  0.50064798  0.83385075  1
  Fe  Fe33  1  0.16499732  0.83384816  0.50022893  1
  Cr  Cr34  1  0.99993401  0.66858563  0.66679343  1
  Cr  Cr35  1  0.16653549  0.83428635  0.83360370  1
  Fe  Fe36  1  0.50473964  0.16718710  0.50145783  1
  Cr  Cr37  1  0.33706626  0.99986091  0.66774329  1
  Ni  Ni38  1  0.50397435  0.16717923  0.83413217  1
  Fe  Fe39  1  0.50339244  0.50044201  0.50160371  1
  Ni  Ni40  1  0.33708337  0.33778400  0.66787908  1
  Ni  Ni41  1  0.50129642  0.50050060  0.83197898  1
  Ni  Ni42  1  0.50223019  0.83455027  0.49942779  1
  Ni  Ni43  1  0.33566014  0.66413325  0.66647681  1
  Ni  Ni44  1  0.50361897  0.83474577  0.83610465  1
  Ni  Ni45  1  0.83246059  0.16599004  0.50007561  1
  Ni  Ni46  1  0.66969739  0.00194031  0.66791041  1
  Ni  Ni47  1  0.83113394  0.16567152  0.83438746  1
  Ni  Ni48  1  0.83403808  0.50042609  0.49613076  1
  Fe  Fe49  1  0.66688591  0.33238321  0.66794287  1
  Ni  Ni50  1  0.83259964  0.50029533  0.83846868  1
  Ni  Ni51  1  0.83180920  0.83601410  0.49930040  1
  Cr  Cr52  1  0.66713988  0.66861881  0.66871456  1
  Ni  Ni53  1  0.83124995  0.83644219  0.83542305  1
" 