4862,Ni58Fe19Cr22_14,-231.95031081897, 185.284196659972,Ni58Fe19Cr22,"# generated using pymatgen
 data_Cr13Fe10Ni31
_symmetry_space_group_name_H-M   'P 1'
_cell_length_a   7.45142379
_cell_length_b   7.45142379
_cell_length_c   10.53790458
_cell_angle_alpha   90.00000000
_cell_angle_beta   90.00000000
_cell_angle_gamma   90.00000000
_symmetry_Int_Tables_number   1
_chemical_formula_structural   Cr13Fe10Ni31
_chemical_formula_sum   'Cr13 Fe10 Ni31'
_cell_volume   585.10362690
_cell_formula_units_Z   1
loop_
 _symmetry_equiv_pos_site_id
 _symmetry_equiv_pos_as_xyz
  1  'x, y, z'
loop_
 _atom_site_type_symbol
 _atom_site_label
 _atom_site_symmetry_multiplicity
 _atom_site_fract_x
 _atom_site_fract_y
 _atom_site_fract_z
 _atom_site_occupancy
  Ni  Ni0  1  0.99885569  1.00023608  0.99882634  1
  Fe  Fe1  1  0.16447695  0.16760936  0.16932192  1
  Ni  Ni2  1  0.99993458  0.99934887  0.33500882  1
  Ni  Ni3  1  1.00005965  0.33546566  0.99992593  1
  Ni  Ni4  1  0.16498521  0.50355078  0.16840456  1
  Ni  Ni5  1  0.99983787  0.33655071  0.33419425  1
  Ni  Ni6  1  0.00151738  0.66741920  1.00053009  1
  Fe  Fe7  1  0.16566013  0.83148037  0.16906262  1
  Ni  Ni8  1  0.99974808  0.66687686  0.33522598  1
  Cr  Cr9  1  0.33178222  0.99835198  0.00286498  1
  Cr  Cr10  1  0.50382523  0.16543084  0.16944382  1
  Ni  Ni11  1  0.33412044  0.99888769  0.33356824  1
  Cr  Cr12  1  0.33264405  0.33837989  1.00059684  1
  Ni  Ni13  1  0.50093279  0.50446321  0.16764172  1
  Cr  Cr14  1  0.33393094  0.33765991  0.33446952  1
  Ni  Ni15  1  0.33208000  0.66609866  0.00230276  1
  Ni  Ni16  1  0.50054222  0.83335429  0.16947850  1
  Ni  Ni17  1  0.33475386  0.66774070  0.33323527  1
  Ni  Ni18  1  0.67178769  1.00039786  1.00065047  1
  Cr  Cr19  1  0.83586637  0.16871443  0.16694290  1
  Ni  Ni20  1  0.66881279  0.99874527  0.33574687  1
  Ni  Ni21  1  0.67041992  0.33604018  1.00014172  1
  Ni  Ni22  1  0.83724525  0.50161369  0.16837826  1
  Fe  Fe23  1  0.66971136  0.33780330  0.33502499  1
  Cr  Cr24  1  0.66923195  0.66733451  0.00260388  1
  Ni  Ni25  1  0.83485754  0.83440864  0.16874582  1
  Ni  Ni26  1  0.66858071  0.66740371  0.33331064  1
  Cr  Cr27  1  0.16715205  0.16780655  0.49894977  1
  Cr  Cr28  1  0.99756134  0.99714745  0.66902235  1
  Fe  Fe29  1  0.16375462  0.16847712  0.83524020  1
  Ni  Ni30  1  0.16702363  0.50465273  0.50135472  1
  Cr  Cr31  1  0.00156690  0.33735053  0.66874806  1
  Ni  Ni32  1  0.16660458  0.50407262  0.83336013  1
  Ni  Ni33  1  0.16705827  0.83049268  0.49886141  1
  Ni  Ni34  1  1.00057344  0.66698995  0.66706688  1
  Ni  Ni35  1  0.16541958  0.82912867  0.83528386  1
  Fe  Fe36  1  0.50364291  0.17016768  0.50117177  1
  Cr  Cr37  1  0.33321634  0.00159537  0.66753963  1
  Cr  Cr38  1  0.50454767  0.16882375  0.83315926  1
  Ni  Ni39  1  0.50224960  0.50077554  0.50294891  1
  Ni  Ni40  1  0.33669420  0.33944539  0.66807812  1
  Fe  Fe41  1  0.50175059  0.50219799  0.83300876  1
  Cr  Cr42  1  0.50006755  0.83377393  0.50027286  1
  Ni  Ni43  1  0.33266446  0.66286419  0.66778210  1
  Cr  Cr44  1  0.50110384  0.83271534  0.83431318  1
  Fe  Fe45  1  0.83187844  0.16837515  0.49924595  1
  Ni  Ni46  1  0.67041732  0.00166797  0.66671811  1
  Ni  Ni47  1  0.83307234  0.16810042  0.83649579  1
  Ni  Ni48  1  0.83442663  0.50050297  0.49914839  1
  Fe  Fe49  1  0.66808772  0.33646953  0.66761980  1
  Ni  Ni50  1  0.83719711  0.50011632  0.83532409  1
  Fe  Fe51  1  0.83585239  0.83108698  0.49958554  1
  Fe  Fe52  1  0.67030323  0.66571749  0.66710990  1
  Ni  Ni53  1  0.83652479  0.83473144  0.83355518  1
" 