6193,Ni58Fe19Cr22_0,-231.62833913029, 186.201225872561,Ni58Fe19Cr22,"# generated using pymatgen
 data_Cr13Fe10Ni31
_symmetry_space_group_name_H-M   'P 1'
_cell_length_a   7.45444256
_cell_length_b   7.45444256
_cell_length_c   10.54217377
_cell_angle_alpha   90.00000000
_cell_angle_beta   90.00000000
_cell_angle_gamma   90.00000000
_symmetry_Int_Tables_number   1
_chemical_formula_structural   Cr13Fe10Ni31
_chemical_formula_sum   'Cr13 Fe10 Ni31'
_cell_volume   585.81503810
_cell_formula_units_Z   1
loop_
 _symmetry_equiv_pos_site_id
 _symmetry_equiv_pos_as_xyz
  1  'x, y, z'
loop_
 _atom_site_type_symbol
 _atom_site_label
 _atom_site_symmetry_multiplicity
 _atom_site_fract_x
 _atom_site_fract_y
 _atom_site_fract_z
 _atom_site_occupancy
  Ni  Ni0  1  0.00296122  0.99997942  0.99987078  1
  Ni  Ni1  1  0.16830654  0.16575325  0.16816775  1
  Ni  Ni2  1  0.00259751  1.00038396  0.33379983  1
  Fe  Fe3  1  0.00094655  0.33511470  0.99997521  1
  Ni  Ni4  1  0.16819755  0.50267765  0.16813842  1
  Cr  Cr5  1  0.00263600  0.33447856  0.33404019  1
  Ni  Ni6  1  0.99982365  0.66752003  0.00191795  1
  Ni  Ni7  1  0.16773394  0.83410719  0.16751638  1
  Fe  Fe8  1  0.00203347  0.66813059  0.33151565  1
  Ni  Ni9  1  0.33258649  0.99999160  1.00077520  1
  Fe  Fe10  1  0.49754341  0.16678032  0.16863631  1
  Ni  Ni11  1  0.33451174  0.00220777  0.33348509  1
  Cr  Cr12  1  0.33349960  0.33366798  0.00142690  1
  Ni  Ni13  1  0.49981932  0.50231009  0.16690252  1
  Ni  Ni14  1  0.33388084  0.33157137  0.33316776  1
  Ni  Ni15  1  0.33479743  0.66843560  0.00148896  1
  Ni  Ni16  1  0.49894189  0.83313299  0.16814549  1
  Fe  Fe17  1  0.33334750  0.66862177  0.33120331  1
  Cr  Cr18  1  0.66646265  0.99909619  0.00120475  1
  Cr  Cr19  1  0.83505805  0.16631892  0.16654675  1
  Fe  Fe20  1  0.66554565  0.00129781  0.33468512  1
  Fe  Fe21  1  0.66795653  0.33683014  1.00017921  1
  Ni  Ni22  1  0.83452095  0.50288540  0.16516502  1
  Cr  Cr23  1  0.66644392  0.33419754  0.33421852  1
  Ni  Ni24  1  0.66791534  0.66607049  1.00083550  1
  Ni  Ni25  1  0.83586124  0.83302080  0.16787109  1
  Cr  Cr26  1  0.66826473  0.66886305  0.33296129  1
  Fe  Fe27  1  0.16755894  0.16751008  0.50070178  1
  Ni  Ni28  1  1.00025428  0.00340026  0.66886486  1
  Ni  Ni29  1  0.16503009  0.16687302  0.83299823  1
  Cr  Cr30  1  0.16669708  0.50022586  0.50070606  1
  Ni  Ni31  1  1.00046902  0.33369233  0.66770093  1
  Ni  Ni32  1  0.16676250  0.50149490  0.83372283  1
  Cr  Cr33  1  0.16738834  0.83480408  0.49945289  1
  Ni  Ni34  1  0.99718015  0.66544382  0.66869703  1
  Ni  Ni35  1  0.16628932  0.83416894  0.83595105  1
  Ni  Ni36  1  0.50131204  0.16694097  0.49953578  1
  Cr  Cr37  1  0.33377803  0.00357848  0.66919561  1
  Ni  Ni38  1  0.50152067  0.16914650  0.83421895  1
  Cr  Cr39  1  0.50066456  0.49993558  0.50265903  1
  Ni  Ni40  1  0.33336406  0.33268267  0.66789809  1
  Ni  Ni41  1  0.50194059  0.50137056  0.83349037  1
  Ni  Ni42  1  0.50101259  0.83637756  0.49928685  1
  Cr  Cr43  1  0.33596908  0.66677776  0.66990874  1
  Ni  Ni44  1  0.50013546  0.83201939  0.83510516  1
  Ni  Ni45  1  0.83418862  0.16807208  0.50180868  1
  Cr  Cr46  1  0.66754716  1.00001239  0.66673106  1
  Ni  Ni47  1  0.83598664  0.16867636  0.83353033  1
  Ni  Ni48  1  0.83488348  0.49904301  0.50384426  1
  Fe  Fe49  1  0.66892427  0.33475217  0.66785067  1
  Fe  Fe50  1  0.83432955  0.50111886  0.83378359  1
  Cr  Cr51  1  0.83482850  0.83517074  0.50086514  1
  Ni  Ni52  1  0.66944912  0.66591751  0.66888178  1
  Fe  Fe53  1  0.83599762  0.83300442  0.83442481  1
" 