7632,Ni58Fe19Cr22_12,-232.347439617261, 188.159198115322,Ni58Fe19Cr22,"# generated using pymatgen
 data_Cr13Fe10Ni31
_symmetry_space_group_name_H-M   'P 1'
_cell_length_a   7.45205655
_cell_length_b   7.45205655
_cell_length_c   10.53879945
_cell_angle_alpha   90.00000000
_cell_angle_beta   90.00000000
_cell_angle_gamma   90.00000000
_symmetry_Int_Tables_number   1
_chemical_formula_structural   Cr13Fe10Ni31
_chemical_formula_sum   'Cr13 Fe10 Ni31'
_cell_volume   585.25269752
_cell_formula_units_Z   1
loop_
 _symmetry_equiv_pos_site_id
 _symmetry_equiv_pos_as_xyz
  1  'x, y, z'
loop_
 _atom_site_type_symbol
 _atom_site_label
 _atom_site_symmetry_multiplicity
 _atom_site_fract_x
 _atom_site_fract_y
 _atom_site_fract_z
 _atom_site_occupancy
  Ni  Ni0  1  0.99986208  0.00106687  1.00062898  1
  Ni  Ni1  1  0.16825785  0.16609445  0.16481470  1
  Cr  Cr2  1  1.00095833  0.00337720  0.33290723  1
  Cr  Cr3  1  0.00154875  0.33311387  0.00314550  1
  Fe  Fe4  1  0.16731448  0.50194364  0.16859817  1
  Fe  Fe5  1  0.00247557  0.33760330  0.33435383  1
  Ni  Ni6  1  0.99918591  0.66922003  0.00236316  1
  Ni  Ni7  1  0.16500468  0.83368572  0.16699821  1
  Fe  Fe8  1  0.00241122  0.66607275  0.33300694  1
  Ni  Ni9  1  0.33252345  0.00279269  0.00218106  1
  Ni  Ni10  1  0.50091305  0.16967235  0.16394958  1
  Cr  Cr11  1  0.33223914  0.99858668  0.33567303  1
  Ni  Ni12  1  0.33472268  0.33423193  0.00119549  1
  Ni  Ni13  1  0.50309216  0.49991262  0.16570534  1
  Cr  Cr14  1  0.33304025  0.33611935  0.33383089  1
  Cr  Cr15  1  0.33499345  0.66513127  1.00073123  1
  Cr  Cr16  1  0.50079765  0.83408032  0.16724486  1
  Ni  Ni17  1  0.33548557  0.66620831  0.33625712  1
  Ni  Ni18  1  0.67040252  0.00134236  0.00229109  1
  Ni  Ni19  1  0.83373454  0.16783700  0.16654324  1
  Fe  Fe20  1  0.66649633  0.99883641  0.33228684  1
  Ni  Ni21  1  0.66703929  0.33549716  0.00199959  1
  Ni  Ni22  1  0.83359362  0.50304615  0.16815074  1
  Cr  Cr23  1  0.66959064  0.33670446  0.33318740  1
  Ni  Ni24  1  0.66882999  0.66740423  1.00031942  1
  Ni  Ni25  1  0.83630174  0.83222877  0.16531890  1
  Ni  Ni26  1  0.66722810  0.66608198  0.33469371  1
  Ni  Ni27  1  0.16740566  0.16815652  0.50474749  1
  Ni  Ni28  1  0.00144736  0.00421011  0.66898717  1
  Ni  Ni29  1  0.16717404  0.16618141  0.83320101  1
  Ni  Ni30  1  0.16709737  0.50317227  0.50272294  1
  Ni  Ni31  1  0.00227997  0.33361786  0.66587675  1
  Fe  Fe32  1  0.16877466  0.49774797  0.83243176  1
  Ni  Ni33  1  0.16878887  0.83236346  0.50220307  1
  Fe  Fe34  1  0.00196811  0.66874440  0.66779212  1
  Cr  Cr35  1  0.16648752  0.83464658  0.83458068  1
  Cr  Cr36  1  0.50050235  0.16635428  0.50330222  1
  Ni  Ni37  1  0.33272522  0.99837721  0.66557178  1
  Cr  Cr38  1  0.50040299  0.16816570  0.83591177  1
  Ni  Ni39  1  0.50148814  0.50346989  0.50317290  1
  Fe  Fe40  1  0.33305800  0.33517713  0.66845354  1
  Ni  Ni41  1  0.50151356  0.50205043  0.83397180  1
  Ni  Ni42  1  0.49960763  0.83091853  0.50204979  1
  Ni  Ni43  1  0.33685220  0.66650679  0.66597383  1
  Fe  Fe44  1  0.50264849  0.83511833  0.83327248  1
  Cr  Cr45  1  0.83481770  0.17010128  0.50264496  1
  Ni  Ni46  1  0.66834972  0.99783415  0.66782487  1
  Ni  Ni47  1  0.83491798  0.16702270  0.83342800  1
  Ni  Ni48  1  0.83514888  0.50274553  0.50208205  1
  Fe  Fe49  1  0.66771124  0.33518218  0.66874738  1
  Cr  Cr50  1  0.83361772  0.50257720  0.83339898  1
  Cr  Cr51  1  0.83455663  0.83198779  0.50109262  1
  Ni  Ni52  1  0.66505329  0.66702314  0.66751408  1
  Fe  Fe53  1  0.83187665  0.83697032  0.83498274  1
" 