864,Ni58Fe16Cr24_5,-230.670354102928, 180.205670623528,Ni58Fe16Cr24,"# generated using pymatgen
 data_Cr14Fe9Ni31
_symmetry_space_group_name_H-M   'P 1'
_cell_length_a   7.45735457
_cell_length_b   7.45735457
_cell_length_c   10.54629198
_cell_angle_alpha   90.00000000
_cell_angle_beta   90.00000000
_cell_angle_gamma   90.00000000
_symmetry_Int_Tables_number   1
_chemical_formula_structural   Cr14Fe9Ni31
_chemical_formula_sum   'Cr14 Fe9 Ni31'
_cell_volume   586.50183670
_cell_formula_units_Z   1
loop_
 _symmetry_equiv_pos_site_id
 _symmetry_equiv_pos_as_xyz
  1  'x, y, z'
loop_
 _atom_site_type_symbol
 _atom_site_label
 _atom_site_symmetry_multiplicity
 _atom_site_fract_x
 _atom_site_fract_y
 _atom_site_fract_z
 _atom_site_occupancy
  Cr  Cr0  1  0.00217783  0.00135523  0.99885638  1
  Fe  Fe1  1  0.16734929  0.16911609  0.16640094  1
  Ni  Ni2  1  0.00220070  0.99913992  0.33379671  1
  Ni  Ni3  1  0.00299034  0.33773179  0.00069544  1
  Ni  Ni4  1  0.16661185  0.50086694  0.16750475  1
  Ni  Ni5  1  0.00129320  0.33657902  0.33116948  1
  Ni  Ni6  1  0.00097504  0.66460686  1.00049433  1
  Ni  Ni7  1  0.16892372  0.83191167  0.16694818  1
  Fe  Fe8  1  0.00325670  0.66618851  0.33457458  1
  Ni  Ni9  1  0.33462696  0.00093013  0.00109137  1
  Ni  Ni10  1  0.49894753  0.16898291  0.16845283  1
  Cr  Cr11  1  0.33315526  1.00044510  0.33117117  1
  Ni  Ni12  1  0.33201795  0.33263934  0.99963113  1
  Cr  Cr13  1  0.49836606  0.50113932  0.16524494  1
  Ni  Ni14  1  0.33349100  0.33579297  0.33416228  1
  Fe  Fe15  1  0.33099247  0.66756772  0.99910650  1
  Ni  Ni16  1  0.49579246  0.83346547  0.16408546  1
  Fe  Fe17  1  0.33162790  0.66568920  0.33448840  1
  Cr  Cr18  1  0.66385667  1.00000826  0.00314130  1
  Ni  Ni19  1  0.83643299  0.17046271  0.16942989  1
  Cr  Cr20  1  0.66669109  0.00174697  0.33017880  1
  Cr  Cr21  1  0.66835440  0.33288411  0.99834421  1
  Ni  Ni22  1  0.83670000  0.49747167  0.16687437  1
  Ni  Ni23  1  0.66695603  0.33565370  0.33538083  1
  Fe  Fe24  1  0.66797503  0.66662388  0.99865216  1
  Cr  Cr25  1  0.83580546  0.83224284  0.16717350  1
  Cr  Cr26  1  0.66864828  0.66598238  0.33314759  1
  Cr  Cr27  1  0.16628539  0.16660469  0.50021862  1
  Fe  Fe28  1  0.00191027  0.99829432  0.66921936  1
  Ni  Ni29  1  0.16837500  0.16706082  0.83617668  1
  Ni  Ni30  1  0.16903514  0.50219751  0.49698944  1
  Cr  Cr31  1  0.00120429  0.33750107  0.67206339  1
  Ni  Ni32  1  0.16883903  0.50070279  0.83750550  1
  Ni  Ni33  1  0.16703444  0.83267573  0.50144323  1
  Cr  Cr34  1  0.00122851  0.66599183  0.66574535  1
  Fe  Fe35  1  0.16869950  0.83290658  0.83405264  1
  Fe  Fe36  1  0.50063852  0.16898212  0.50132641  1
  Ni  Ni37  1  0.33548964  0.99910511  0.66988039  1
  Ni  Ni38  1  0.49918070  0.16602668  0.83183769  1
  Ni  Ni39  1  0.50027661  0.50053759  0.50161405  1
  Cr  Cr40  1  0.33341044  0.33551224  0.66773316  1
  Ni  Ni41  1  0.49908597  0.50312652  0.83374546  1
  Cr  Cr42  1  0.50014462  0.83229223  0.50245987  1
  Ni  Ni43  1  0.33465600  0.66826967  0.66772372  1
  Ni  Ni44  1  0.50003806  0.83316420  0.83501152  1
  Cr  Cr45  1  0.83361942  0.16673421  0.50202543  1
  Ni  Ni46  1  0.66623149  0.99901693  0.66878823  1
  Ni  Ni47  1  0.83490040  0.16647711  0.83196548  1
  Ni  Ni48  1  0.83304233  0.50049340  0.49928921  1
  Fe  Fe49  1  0.66607609  0.33655365  0.66895905  1
  Ni  Ni50  1  0.83370515  0.50204433  0.83610962  1
  Ni  Ni51  1  0.83581229  0.83389846  0.50123243  1
  Ni  Ni52  1  0.66771931  0.66798022  0.66916920  1
  Ni  Ni53  1  0.83223969  0.83371976  0.83261185  1
" 