3966,Ni59Fe13Cr26_1,-229.904203227693, 168.910465296799,Ni59Fe13Cr26,"# generated using pymatgen
 data_Cr15Fe7Ni32
_symmetry_space_group_name_H-M   'P 1'
_cell_length_a   7.46568564
_cell_length_b   7.46568564
_cell_length_c   10.55807388
_cell_angle_alpha   90.00000000
_cell_angle_beta   90.00000000
_cell_angle_gamma   90.00000000
_symmetry_Int_Tables_number   1
_chemical_formula_structural   Cr15Fe7Ni32
_chemical_formula_sum   'Cr15 Fe7 Ni32'
_cell_volume   588.46968432
_cell_formula_units_Z   1
loop_
 _symmetry_equiv_pos_site_id
 _symmetry_equiv_pos_as_xyz
  1  'x, y, z'
loop_
 _atom_site_type_symbol
 _atom_site_label
 _atom_site_symmetry_multiplicity
 _atom_site_fract_x
 _atom_site_fract_y
 _atom_site_fract_z
 _atom_site_occupancy
  Cr  Cr0  1  0.99649233  0.99988238  0.99809726  1
  Cr  Cr1  1  0.17034077  0.16537710  0.16724833  1
  Ni  Ni2  1  0.99748249  0.99635751  0.33422598  1
  Cr  Cr3  1  0.00160146  0.33443205  0.99823139  1
  Ni  Ni4  1  0.16775132  0.50455186  0.16464950  1
  Cr  Cr5  1  0.99706725  0.33363673  0.33089203  1
  Ni  Ni6  1  0.00467080  0.66802953  0.99963321  1
  Ni  Ni7  1  0.16524977  0.83334444  0.16728647  1
  Ni  Ni8  1  0.99820397  0.67085255  0.33339137  1
  Fe  Fe9  1  0.33399618  0.00053618  0.99932801  1
  Ni  Ni10  1  0.50207526  0.16442173  0.16770824  1
  Ni  Ni11  1  0.33462852  0.99831353  0.33190457  1
  Ni  Ni12  1  0.33582069  0.33684696  0.99914644  1
  Ni  Ni13  1  0.50146492  0.49969806  0.16647329  1
  Cr  Cr14  1  0.33870956  0.33460755  0.33291053  1
  Ni  Ni15  1  0.33342720  0.66679160  0.00067207  1
  Fe  Fe16  1  0.49959727  0.83261549  0.16570614  1
  Cr  Cr17  1  0.33243552  0.66666376  0.33315313  1
  Ni  Ni18  1  0.66296611  0.99890321  0.00114014  1
  Fe  Fe19  1  0.83133160  0.16447912  0.16780554  1
  Ni  Ni20  1  0.66761573  0.00140948  0.33154760  1
  Cr  Cr21  1  0.66518475  0.32848134  0.99904790  1
  Cr  Cr22  1  0.83233800  0.50405868  0.16583899  1
  Ni  Ni23  1  0.66629193  0.33179302  0.33400452  1
  Fe  Fe24  1  0.66497564  0.66598698  0.99918495  1
  Fe  Fe25  1  0.83211280  0.83415753  0.16668151  1
  Ni  Ni26  1  0.66764048  0.66713127  0.33351367  1
  Cr  Cr27  1  0.16885709  0.16306426  0.50218753  1
  Ni  Ni28  1  0.00167928  0.00310650  0.66683164  1
  Ni  Ni29  1  0.16876001  0.16682166  0.83139915  1
  Cr  Cr30  1  0.16467787  0.49936379  0.49975990  1
  Ni  Ni31  1  0.99619843  0.33195059  0.67050588  1
  Ni  Ni32  1  0.16732502  0.49970768  0.83560665  1
  Ni  Ni33  1  0.16426399  0.83727290  0.49874330  1
  Cr  Cr34  1  0.00037228  0.66776913  0.66611936  1
  Ni  Ni35  1  0.16874396  0.83521346  0.83415406  1
  Ni  Ni36  1  0.50274116  0.16682010  0.49955697  1
  Ni  Ni37  1  0.33286157  0.99980203  0.66997373  1
  Ni  Ni38  1  0.49811802  0.16608791  0.83344466  1
  Ni  Ni39  1  0.50788980  0.49809360  0.50061486  1
  Fe  Fe40  1  0.33560296  0.33245262  0.66877269  1
  Ni  Ni41  1  0.50134753  0.49998470  0.83349112  1
  Cr  Cr42  1  0.50020802  0.83502837  0.49938248  1
  Cr  Cr43  1  0.33526579  0.66751520  0.66721022  1
  Ni  Ni44  1  0.49847391  0.83353532  0.83742665  1
  Ni  Ni45  1  0.83259303  0.16797293  0.49868429  1
  Cr  Cr46  1  0.66655706  0.00231656  0.66783098  1
  Ni  Ni47  1  0.83278668  0.16731646  0.83265586  1
  Ni  Ni48  1  0.82973917  0.50041635  0.50038649  1
  Ni  Ni49  1  0.66720009  0.33350198  0.66656102  1
  Ni  Ni50  1  0.83258804  0.49928426  0.83292795  1
  Fe  Fe51  1  0.83255858  0.83378121  0.49948003  1
  Ni  Ni52  1  0.66504073  0.66277283  0.66822758  1
  Cr  Cr53  1  0.83100323  0.83061359  0.83356780  1
" 