5209,Ni59Fe13Cr26_17,-229.800211323854, 176.0744280737,Ni59Fe13Cr26,"# generated using pymatgen
 data_Cr15Fe7Ni32
_symmetry_space_group_name_H-M   'P 1'
_cell_length_a   7.46157654
_cell_length_b   7.46157654
_cell_length_c   10.55226273
_cell_angle_alpha   90.00000000
_cell_angle_beta   90.00000000
_cell_angle_gamma   90.00000000
_symmetry_Int_Tables_number   1
_chemical_formula_structural   Cr15Fe7Ni32
_chemical_formula_sum   'Cr15 Fe7 Ni32'
_cell_volume   587.49854043
_cell_formula_units_Z   1
loop_
 _symmetry_equiv_pos_site_id
 _symmetry_equiv_pos_as_xyz
  1  'x, y, z'
loop_
 _atom_site_type_symbol
 _atom_site_label
 _atom_site_symmetry_multiplicity
 _atom_site_fract_x
 _atom_site_fract_y
 _atom_site_fract_z
 _atom_site_occupancy
  Ni  Ni0  1  0.00070423  0.00065160  0.00047465  1
  Fe  Fe1  1  0.16527869  0.16663780  0.16481510  1
  Ni  Ni2  1  0.99934518  0.99867691  0.33465728  1
  Ni  Ni3  1  0.99994447  0.33372621  0.99968103  1
  Fe  Fe4  1  0.16704887  0.50325104  0.16575771  1
  Cr  Cr5  1  0.99952047  0.33429120  0.33483259  1
  Ni  Ni6  1  0.99989911  0.66675979  0.00212223  1
  Ni  Ni7  1  0.16516807  0.83152500  0.16682523  1
  Ni  Ni8  1  0.00150920  0.66828548  0.33402959  1
  Cr  Cr9  1  0.33220113  0.99994758  1.00020571  1
  Cr  Cr10  1  0.50217089  0.16784760  0.16680472  1
  Cr  Cr11  1  0.33255563  0.99733014  0.33323491  1
  Ni  Ni12  1  0.33405477  0.33522435  0.99952029  1
  Ni  Ni13  1  0.49992095  0.50148025  0.16545806  1
  Cr  Cr14  1  0.33372760  0.33669377  0.33375253  1
  Ni  Ni15  1  0.33426309  0.66538473  0.00267995  1
  Ni  Ni16  1  0.50016838  0.83162154  0.16648365  1
  Ni  Ni17  1  0.33294343  0.66704375  0.33369964  1
  Ni  Ni18  1  0.66843058  0.00041342  1.00020147  1
  Cr  Cr19  1  0.83332374  0.16613241  0.16613090  1
  Ni  Ni20  1  0.66926838  0.99904747  0.33495976  1
  Ni  Ni21  1  0.66708882  0.33602510  0.99932239  1
  Ni  Ni22  1  0.83413411  0.50168266  0.16529473  1
  Fe  Fe23  1  0.66827748  0.33496258  0.33425826  1
  Ni  Ni24  1  0.66694512  0.66466879  0.00126591  1
  Ni  Ni25  1  0.83578304  0.83329053  0.16705473  1
  Cr  Cr26  1  0.66645234  0.66689629  0.33430465  1
  Fe  Fe27  1  0.16559981  0.16750695  0.50230907  1
  Cr  Cr28  1  0.00199530  0.00288171  0.66657871  1
  Ni  Ni29  1  0.16758723  0.16719490  0.83310308  1
  Ni  Ni30  1  0.16616668  0.50154397  0.49994368  1
  Ni  Ni31  1  0.00062611  0.33266839  0.66612633  1
  Cr  Cr32  1  0.16623608  0.49975753  0.83526372  1
  Ni  Ni33  1  0.16728153  0.83279158  0.49886260  1
  Cr  Cr34  1  0.99847330  0.66492268  0.66533612  1
  Ni  Ni35  1  0.16662952  0.83591624  0.83542581  1
  Cr  Cr36  1  0.50218999  0.16561771  0.50059374  1
  Ni  Ni37  1  0.33383810  0.00161210  0.66702888  1
  Ni  Ni38  1  0.49991011  0.16843222  0.83358033  1
  Ni  Ni39  1  0.50001079  0.50181713  0.50039164  1
  Fe  Fe40  1  0.33292613  0.33216726  0.66761787  1
  Ni  Ni41  1  0.50210713  0.49768619  0.83526238  1
  Ni  Ni42  1  0.50003354  0.83367792  0.50126002  1
  Cr  Cr43  1  0.33588685  0.66787948  0.66546796  1
  Cr  Cr44  1  0.50051167  0.83421618  0.83351116  1
  Ni  Ni45  1  0.83403405  0.16669646  0.49967369  1
  Ni  Ni46  1  0.66508742  1.00001239  0.66593291  1
  Fe  Fe47  1  0.83373297  0.16865435  0.83505286  1
  Ni  Ni48  1  0.83491583  0.49927601  0.50065184  1
  Cr  Cr49  1  0.66861701  0.33576554  0.66784101  1
  Ni  Ni50  1  0.83268345  0.49859704  0.83514061  1
  Fe  Fe51  1  0.83253794  0.83385640  0.49922420  1
  Ni  Ni52  1  0.66602075  0.66624024  0.66553238  1
  Cr  Cr53  1  0.83403024  0.83291072  0.83525704  1
" 