7719,Ni59Fe13Cr26_0,-229.530759928178, 169.639397607466,Ni59Fe13Cr26,"# generated using pymatgen
 data_Cr15Fe7Ni32
_symmetry_space_group_name_H-M   'P 1'
_cell_length_a   7.46391905
_cell_length_b   7.46391905
_cell_length_c   10.55557555
_cell_angle_alpha   90.00000000
_cell_angle_beta   90.00000000
_cell_angle_gamma   90.00000000
_symmetry_Int_Tables_number   1
_chemical_formula_structural   Cr15Fe7Ni32
_chemical_formula_sum   'Cr15 Fe7 Ni32'
_cell_volume   588.05203825
_cell_formula_units_Z   1
loop_
 _symmetry_equiv_pos_site_id
 _symmetry_equiv_pos_as_xyz
  1  'x, y, z'
loop_
 _atom_site_type_symbol
 _atom_site_label
 _atom_site_symmetry_multiplicity
 _atom_site_fract_x
 _atom_site_fract_y
 _atom_site_fract_z
 _atom_site_occupancy
  Ni  Ni0  1  0.00025033  0.99734112  0.00063493  1
  Ni  Ni1  1  0.16664788  0.16796158  0.16838461  1
  Cr  Cr2  1  0.99998107  0.99988538  0.33232602  1
  Cr  Cr3  1  0.00183810  0.33194892  0.00113590  1
  Ni  Ni4  1  0.16749737  0.50298000  0.16888431  1
  Fe  Fe5  1  0.00146462  0.33477086  0.33377274  1
  Ni  Ni6  1  0.99942494  0.67064212  0.00075145  1
  Fe  Fe7  1  0.16724829  0.83291244  0.16698770  1
  Ni  Ni8  1  0.99931033  0.66663847  0.33382182  1
  Cr  Cr9  1  0.33273040  0.00056072  1.00010864  1
  Ni  Ni10  1  0.50254704  0.16520520  0.16789323  1
  Ni  Ni11  1  0.33361302  0.00085100  0.33265106  1
  Cr  Cr12  1  0.33581388  0.33254794  0.00156953  1
  Fe  Fe13  1  0.50073307  0.49973219  0.16799976  1
  Ni  Ni14  1  0.33371947  0.33329261  0.33271989  1
  Fe  Fe15  1  0.33498881  0.66844791  0.00146970  1
  Ni  Ni16  1  0.50109899  0.83259685  0.16803117  1
  Ni  Ni17  1  0.33468140  0.66630399  0.33216443  1
  Ni  Ni18  1  0.66675412  0.99862446  0.00224821  1
  Ni  Ni19  1  0.83117787  0.16608515  0.16665735  1
  Fe  Fe20  1  0.66531905  0.99828842  0.33230259  1
  Ni  Ni21  1  0.66464129  0.33406465  0.99971126  1
  Cr  Cr22  1  0.83371538  0.50065323  0.16600913  1
  Ni  Ni23  1  0.66613696  0.33438998  0.33351698  1
  Ni  Ni24  1  0.66659941  0.66819951  0.99915578  1
  Fe  Fe25  1  0.83248039  0.83372123  0.16604378  1
  Ni  Ni26  1  0.66675245  0.66666554  0.33508324  1
  Ni  Ni27  1  0.16606570  0.16744161  0.49977139  1
  Ni  Ni28  1  0.00171470  0.99950008  0.66780040  1
  Ni  Ni29  1  0.16678874  0.16320109  0.83208813  1
  Ni  Ni30  1  0.16780974  0.50034979  0.49713320  1
  Cr  Cr31  1  0.99979875  0.33272305  0.66387413  1
  Cr  Cr32  1  0.16708846  0.50339509  0.83405268  1
  Cr  Cr33  1  0.17046839  0.83310051  0.50112820  1
  Cr  Cr34  1  0.99736021  0.66902745  0.66616645  1
  Ni  Ni35  1  0.16676022  0.83407971  0.83420624  1
  Cr  Cr36  1  0.49934065  0.16430866  0.49838706  1
  Ni  Ni37  1  0.33182213  0.99895527  0.66877351  1
  Ni  Ni38  1  0.50072842  0.16524633  0.83492544  1
  Ni  Ni39  1  0.49904806  0.50274416  0.49717193  1
  Cr  Cr40  1  0.33461570  0.33359261  0.66721087  1
  Ni  Ni41  1  0.50082388  0.50300305  0.83655732  1
  Ni  Ni42  1  0.49965823  0.83149466  0.49895020  1
  Ni  Ni43  1  0.33539719  0.66817287  0.66721812  1
  Ni  Ni44  1  0.49983411  0.83269237  0.83342268  1
  Ni  Ni45  1  0.83460574  0.16711835  0.49775036  1
  Cr  Cr46  1  0.66733787  0.99725045  0.66538746  1
  Cr  Cr47  1  0.83296986  0.16512289  0.83552531  1
  Ni  Ni48  1  0.83374853  0.49995979  0.49762031  1
  Cr  Cr49  1  0.66611392  0.33707408  0.66812843  1
  Fe  Fe50  1  0.83200228  0.50262220  0.83607001  1
  Ni  Ni51  1  0.83239277  0.83369287  0.49757100  1
  Cr  Cr52  1  0.66604661  0.66629376  0.66582961  1
  Ni  Ni53  1  0.83381046  0.83384306  0.83656163  1
" 