622,Ni59Fe14Cr26_9,-228.890178473491, 173.014119239517,Ni59Fe14Cr26,"# generated using pymatgen
 data_Cr16Fe7Ni31
_symmetry_space_group_name_H-M   'P 1'
_cell_length_a   7.46673908
_cell_length_b   7.46673908
_cell_length_c   10.55956367
_cell_angle_alpha   90.00000000
_cell_angle_beta   90.00000000
_cell_angle_gamma   90.00000000
_symmetry_Int_Tables_number   1
_chemical_formula_structural   Cr16Fe7Ni31
_chemical_formula_sum   'Cr16 Fe7 Ni31'
_cell_volume   588.71882612
_cell_formula_units_Z   1
loop_
 _symmetry_equiv_pos_site_id
 _symmetry_equiv_pos_as_xyz
  1  'x, y, z'
loop_
 _atom_site_type_symbol
 _atom_site_label
 _atom_site_symmetry_multiplicity
 _atom_site_fract_x
 _atom_site_fract_y
 _atom_site_fract_z
 _atom_site_occupancy
  Cr  Cr0  1  0.00113983  0.99987157  0.00062878  1
  Ni  Ni1  1  0.16782683  0.16703547  0.16657615  1
  Ni  Ni2  1  0.00065558  0.99904720  0.33191274  1
  Ni  Ni3  1  0.99954480  0.33405431  0.00021400  1
  Cr  Cr4  1  0.16712675  0.49573185  0.16678342  1
  Ni  Ni5  1  0.99957397  0.33345811  0.33210946  1
  Cr  Cr6  1  0.99736670  0.66659331  0.99965461  1
  Fe  Fe7  1  0.16630129  0.83673338  0.16899345  1
  Cr  Cr8  1  0.99973954  0.66778578  0.33544041  1
  Ni  Ni9  1  0.33300665  0.00113064  0.99902781  1
  Cr  Cr10  1  0.49613575  0.16667274  0.16872153  1
  Ni  Ni11  1  0.33198647  0.00044720  0.33245681  1
  Ni  Ni12  1  0.33325612  0.33108066  0.00083281  1
  Fe  Fe13  1  0.50174340  0.49963560  0.16909348  1
  Ni  Ni14  1  0.33506338  0.33397092  0.33401307  1
  Cr  Cr15  1  0.33391833  0.66836104  0.00033763  1
  Cr  Cr16  1  0.50144030  0.83200400  0.16791351  1
  Ni  Ni17  1  0.33430629  0.66564465  0.33441434  1
  Cr  Cr18  1  0.66603649  0.99943824  0.99674915  1
  Cr  Cr19  1  0.83679463  0.16704588  0.16953865  1
  Ni  Ni20  1  0.66739544  0.99990810  0.33439782  1
  Cr  Cr21  1  0.66779359  0.33466169  0.99896570  1
  Ni  Ni22  1  0.83227986  0.50183621  0.16628543  1
  Ni  Ni23  1  0.66546302  0.33558475  0.33463890  1
  Fe  Fe24  1  0.66881713  0.66637135  0.00010719  1
  Ni  Ni25  1  0.83193858  0.83113665  0.16850128  1
  Ni  Ni26  1  0.66683230  0.66450555  0.33172755  1
  Cr  Cr27  1  0.16746612  0.16708860  0.49898799  1
  Ni  Ni28  1  0.99883365  0.99760509  0.66780365  1
  Cr  Cr29  1  0.16716452  0.16738671  0.83413170  1
  Ni  Ni30  1  0.16787697  0.50089060  0.50139307  1
  Ni  Ni31  1  0.99761880  0.33571375  0.66769549  1
  Cr  Cr32  1  0.16483032  0.49902715  0.83131111  1
  Ni  Ni33  1  0.16643765  0.83200251  0.50062906  1
  Ni  Ni34  1  0.99938080  0.66673742  0.66595311  1
  Fe  Fe35  1  0.16670445  0.83449662  0.83003219  1
  Ni  Ni36  1  0.49943159  0.16781021  0.50000176  1
  Ni  Ni37  1  0.33485693  0.99891053  0.66855526  1
  Ni  Ni38  1  0.49937589  0.16394552  0.83207233  1
  Ni  Ni39  1  0.49918567  0.49948258  0.49843333  1
  Fe  Fe40  1  0.33478565  0.33329839  0.66485975  1
  Cr  Cr41  1  0.50039063  0.50099845  0.83329304  1
  Cr  Cr42  1  0.50107759  0.83345080  0.49984110  1
  Ni  Ni43  1  0.33219035  0.66756849  0.66548859  1
  Fe  Fe44  1  0.50091148  0.83528801  0.83125843  1
  Cr  Cr45  1  0.83241496  0.16541757  0.49935832  1
  Ni  Ni46  1  0.66636644  0.00059765  0.66882882  1
  Ni  Ni47  1  0.83281201  0.16621114  0.83153972  1
  Ni  Ni48  1  0.83300469  0.50150483  0.50098824  1
  Fe  Fe49  1  0.66709064  0.33334848  0.66643364  1
  Ni  Ni50  1  0.83375442  0.50120150  0.83282253  1
  Ni  Ni51  1  0.83363186  0.83218802  0.50020417  1
  Ni  Ni52  1  0.66849275  0.66650948  0.66780300  1
  Ni  Ni53  1  0.83154578  0.83268871  0.83136054  1
" 