496,Ni59Fe14Cr26_18,-229.31794360143, 172.743053038072,Ni59Fe14Cr26,"# generated using pymatgen
 data_Cr16Fe7Ni31
_symmetry_space_group_name_H-M   'P 1'
_cell_length_a   7.46662015
_cell_length_b   7.46662015
_cell_length_c   10.55939549
_cell_angle_alpha   90.00000000
_cell_angle_beta   90.00000000
_cell_angle_gamma   90.00000000
_symmetry_Int_Tables_number   1
_chemical_formula_structural   Cr16Fe7Ni31
_chemical_formula_sum   'Cr16 Fe7 Ni31'
_cell_volume   588.69069649
_cell_formula_units_Z   1
loop_
 _symmetry_equiv_pos_site_id
 _symmetry_equiv_pos_as_xyz
  1  'x, y, z'
loop_
 _atom_site_type_symbol
 _atom_site_label
 _atom_site_symmetry_multiplicity
 _atom_site_fract_x
 _atom_site_fract_y
 _atom_site_fract_z
 _atom_site_occupancy
  Ni  Ni0  1  0.99967210  0.00112987  0.99957906  1
  Ni  Ni1  1  0.16722041  0.16600053  0.16853405  1
  Fe  Fe2  1  0.00163105  0.00016722  0.33590678  1
  Cr  Cr3  1  0.00235048  0.33381329  0.99970858  1
  Ni  Ni4  1  0.17235126  0.49935742  0.16721658  1
  Cr  Cr5  1  0.00251815  0.33522269  0.33323246  1
  Cr  Cr6  1  0.99996244  0.66535120  0.99794527  1
  Cr  Cr7  1  0.16918046  0.83398754  0.16869402  1
  Cr  Cr8  1  0.99947679  0.66601488  0.33718576  1
  Cr  Cr9  1  0.33579889  0.00283980  0.99882298  1
  Fe  Fe10  1  0.50016202  0.16764478  0.16819079  1
  Ni  Ni11  1  0.33534170  0.00225102  0.33511423  1
  Cr  Cr12  1  0.33416302  0.33237746  0.00083955  1
  Ni  Ni13  1  0.49908258  0.49988614  0.16821758  1
  Ni  Ni14  1  0.33451231  0.33202086  0.33352915  1
  Ni  Ni15  1  0.33535437  0.66509525  0.00011174  1
  Cr  Cr16  1  0.49999517  0.82994128  0.16651257  1
  Ni  Ni17  1  0.33482426  0.66552185  0.33491447  1
  Ni  Ni18  1  0.66588169  0.99989104  0.99787116  1
  Cr  Cr19  1  0.83217853  0.16551722  0.16752123  1
  Ni  Ni20  1  0.66261635  0.99984379  0.33486714  1
  Ni  Ni21  1  0.66452024  0.33281923  0.00005339  1
  Cr  Cr22  1  0.82768518  0.49907610  0.16676368  1
  Ni  Ni23  1  0.66227387  0.33334408  0.33449061  1
  Ni  Ni24  1  0.66550796  0.66718880  0.99794214  1
  Cr  Cr25  1  0.83154750  0.83558220  0.16685339  1
  Ni  Ni26  1  0.66466850  0.66699414  0.33624272  1
  Ni  Ni27  1  0.16834598  0.16647395  0.50122662  1
  Ni  Ni28  1  0.00084309  0.00119040  0.66475377  1
  Ni  Ni29  1  0.16662229  0.16671010  0.83052818  1
  Ni  Ni30  1  0.16985438  0.49876664  0.50107264  1
  Ni  Ni31  1  0.00189943  0.33446173  0.66707245  1
  Ni  Ni32  1  0.16769511  0.49876751  0.83181440  1
  Ni  Ni33  1  0.17037400  0.83500505  0.49947029  1
  Cr  Cr34  1  0.99819307  0.66512277  0.66507736  1
  Cr  Cr35  1  0.17060755  0.83390752  0.83233997  1
  Fe  Fe36  1  0.49865788  0.16572959  0.50054515  1
  Ni  Ni37  1  0.33562258  0.00113153  0.66615754  1
  Ni  Ni38  1  0.50097025  0.16558591  0.83173855  1
  Fe  Fe39  1  0.49910755  0.50119698  0.49914747  1
  Fe  Fe40  1  0.33257050  0.33225771  0.66624905  1
  Cr  Cr41  1  0.49968012  0.50233451  0.83213275  1
  Ni  Ni42  1  0.49916995  0.83264870  0.50034612  1
  Ni  Ni43  1  0.33478025  0.66773213  0.66483606  1
  Ni  Ni44  1  0.50145334  0.83322317  0.83279134  1
  Cr  Cr45  1  0.83296065  0.16727895  0.50026603  1
  Ni  Ni46  1  0.66353967  0.99809842  0.66709200  1
  Cr  Cr47  1  0.83348231  0.16696862  0.83251531  1
  Ni  Ni48  1  0.82982131  0.49895698  0.50105242  1
  Fe  Fe49  1  0.66633934  0.33377299  0.66624734  1
  Ni  Ni50  1  0.83106096  0.49874631  0.83247996  1
  Ni  Ni51  1  0.83020890  0.83462846  0.50031351  1
  Ni  Ni52  1  0.66571773  0.66822261  0.66542470  1
  Fe  Fe53  1  0.83149025  0.83374682  0.83199365  1
" 