6658,Ni59Fe14Cr26_19,-229.114622297179, 169.02219245935,Ni59Fe14Cr26,"# generated using pymatgen
 data_Cr16Fe7Ni31
_symmetry_space_group_name_H-M   'P 1'
_cell_length_a   7.46769483
_cell_length_b   7.46769483
_cell_length_c   10.56091531
_cell_angle_alpha   90.00000000
_cell_angle_beta   90.00000000
_cell_angle_gamma   90.00000000
_symmetry_Int_Tables_number   1
_chemical_formula_structural   Cr16Fe7Ni31
_chemical_formula_sum   'Cr16 Fe7 Ni31'
_cell_volume   588.94492523
_cell_formula_units_Z   1
loop_
 _symmetry_equiv_pos_site_id
 _symmetry_equiv_pos_as_xyz
  1  'x, y, z'
loop_
 _atom_site_type_symbol
 _atom_site_label
 _atom_site_symmetry_multiplicity
 _atom_site_fract_x
 _atom_site_fract_y
 _atom_site_fract_z
 _atom_site_occupancy
  Ni  Ni0  1  0.99805745  0.00000452  0.00010927  1
  Ni  Ni1  1  0.16757518  0.16896613  0.16471657  1
  Cr  Cr2  1  0.99894016  0.00095914  0.33429733  1
  Cr  Cr3  1  0.99903647  0.33245389  0.00114446  1
  Ni  Ni4  1  0.17038827  0.49878463  0.16688898  1
  Cr  Cr5  1  0.00157320  0.33255367  0.33173165  1
  Cr  Cr6  1  0.00083788  0.66805304  0.00032391  1
  Cr  Cr7  1  0.16652373  0.83473410  0.16632859  1
  Fe  Fe8  1  0.00106133  0.66708823  0.33363562  1
  Ni  Ni9  1  0.33364587  0.00209179  0.00058169  1
  Ni  Ni10  1  0.50044665  0.16949647  0.16656563  1
  Cr  Cr11  1  0.33373655  0.00307180  0.33462993  1
  Ni  Ni12  1  0.33500878  0.33324291  0.00135241  1
  Ni  Ni13  1  0.49832218  0.49788412  0.16766967  1
  Ni  Ni14  1  0.33259500  0.33450688  0.33348250  1
  Ni  Ni15  1  0.33148984  0.66458509  0.99992288  1
  Cr  Cr16  1  0.50060635  0.83358092  0.16552159  1
  Ni  Ni17  1  0.33277047  0.66299840  0.33302230  1
  Ni  Ni18  1  0.66814208  0.00352163  0.99930819  1
  Ni  Ni19  1  0.83159234  0.16462891  0.16539201  1
  Ni  Ni20  1  0.66830150  0.00039724  0.33375818  1
  Ni  Ni21  1  0.66453800  0.32977735  0.00239093  1
  Fe  Fe22  1  0.83156613  0.49919919  0.16796863  1
  Fe  Fe23  1  0.66493370  0.33088568  0.33173360  1
  Cr  Cr24  1  0.66686360  0.66640876  0.99982194  1
  Ni  Ni25  1  0.83229826  0.83531218  0.16757797  1
  Ni  Ni26  1  0.66747550  0.66719376  0.33134783  1
  Ni  Ni27  1  0.16620314  0.16827917  0.50195629  1
  Ni  Ni28  1  0.99962061  0.99993418  0.66588739  1
  Cr  Cr29  1  0.16609643  0.16516228  0.83431259  1
  Ni  Ni30  1  0.16759925  0.49874750  0.50174797  1
  Ni  Ni31  1  0.00176875  0.33225966  0.66597832  1
  Fe  Fe32  1  0.16695378  0.50080539  0.83196876  1
  Fe  Fe33  1  0.16517093  0.83204418  0.50193302  1
  Ni  Ni34  1  0.00194043  0.66771953  0.66547388  1
  Ni  Ni35  1  0.16582532  0.83403913  0.83218417  1
  Fe  Fe36  1  0.50068922  0.16641696  0.49992088  1
  Ni  Ni37  1  0.33271419  0.00011053  0.66519729  1
  Ni  Ni38  1  0.49994459  0.16599784  0.83373891  1
  Cr  Cr39  1  0.49860226  0.50082267  0.49953546  1
  Fe  Fe40  1  0.33139868  0.33168097  0.66600555  1
  Cr  Cr41  1  0.49756595  0.49839999  0.83285139  1
  Cr  Cr42  1  0.50149387  0.83219606  0.50047767  1
  Ni  Ni43  1  0.33000521  0.66729881  0.66713146  1
  Cr  Cr44  1  0.49867734  0.83540472  0.83378623  1
  Ni  Ni45  1  0.83488441  0.16402917  0.50146991  1
  Ni  Ni46  1  0.66746828  0.00015298  0.66669704  1
  Ni  Ni47  1  0.83285798  0.16354294  0.83319561  1
  Cr  Cr48  1  0.83408740  0.50121906  0.49901010  1
  Cr  Cr49  1  0.66718916  0.32945317  0.66623579  1
  Cr  Cr50  1  0.83415997  0.49859046  0.83059604  1
  Ni  Ni51  1  0.83303381  0.83457089  0.50120088  1
  Ni  Ni52  1  0.66771670  0.66958938  0.66697137  1
  Ni  Ni53  1  0.83566580  0.83681187  0.83097172  1
" 