3564,Ni59Cr41_11,-215.94928018613, 129.716564641555,Ni59Cr41,"# generated using pymatgen
 data_Cr31Ni23
_symmetry_space_group_name_H-M   'P 1'
_cell_length_a   7.53867526
_cell_length_b   7.53867526
_cell_length_c   10.66129679
_cell_angle_alpha   90.00000000
_cell_angle_beta   90.00000000
_cell_angle_gamma   90.00000000
_symmetry_Int_Tables_number   1
_chemical_formula_structural   Cr31Ni23
_chemical_formula_sum   'Cr31 Ni23'
_cell_volume   605.89881800
_cell_formula_units_Z   1
loop_
 _symmetry_equiv_pos_site_id
 _symmetry_equiv_pos_as_xyz
  1  'x, y, z'
loop_
 _atom_site_type_symbol
 _atom_site_label
 _atom_site_symmetry_multiplicity
 _atom_site_fract_x
 _atom_site_fract_y
 _atom_site_fract_z
 _atom_site_occupancy
  Cr  Cr0  1  -0.00281144  0.99219575  -0.00395034  1
  Ni  Ni1  1  0.16256635  0.16210545  0.16423236  1
  Ni  Ni2  1  -0.00154462  0.99467946  0.32611254  1
  Cr  Cr3  1  -0.00331955  0.33200082  0.99465841  1
  Cr  Cr4  1  0.16342292  0.49624592  0.16230864  1
  Ni  Ni5  1  -0.00106537  0.32831221  0.32781465  1
  Ni  Ni6  1  -0.00084677  0.66257919  0.99184632  1
  Ni  Ni7  1  0.16119285  0.82730912  0.16237261  1
  Ni  Ni8  1  -0.00299560  0.66269663  0.32709252  1
  Cr  Cr9  1  0.32647257  -0.00466726  -0.00464259  1
  Cr  Cr10  1  0.49148118  0.16454026  0.15838137  1
  Cr  Cr11  1  0.32750419  0.99473262  0.32926680  1
  Ni  Ni12  1  0.32750800  0.33121051  0.99287628  1
  Cr  Cr13  1  0.49174183  0.49677317  0.16204336  1
  Ni  Ni14  1  0.32505148  0.32968004  0.32722246  1
  Ni  Ni15  1  0.32447975  0.65980570  0.99340831  1
  Cr  Cr16  1  0.49281116  0.82466506  0.16255613  1
  Ni  Ni17  1  0.32757018  0.66187370  0.32854590  1
  Cr  Cr18  1  0.66181100  -0.00361222  0.99438688  1
  Cr  Cr19  1  0.83239396  0.16173953  0.16377726  1
  Cr  Cr20  1  0.66131536  0.99467792  0.32857569  1
  Cr  Cr21  1  0.66001859  0.32987481  0.99281637  1
  Cr  Cr22  1  0.83047620  0.49745422  0.16418888  1
  Cr  Cr23  1  0.66108876  0.32991490  0.32745713  1
  Cr  Cr24  1  0.66332207  0.65948266  0.99223375  1
  Cr  Cr25  1  0.83055420  0.82670477  0.16208442  1
  Ni  Ni26  1  0.66091517  0.66270191  0.33030847  1
  Cr  Cr27  1  0.16168433  0.16419809  0.49721010  1
  Cr  Cr28  1  -0.00197045  0.99253966  0.66343923  1
  Cr  Cr29  1  0.16443123  0.16329011  0.82582506  1
  Cr  Cr30  1  0.16181889  0.49300407  0.49358503  1
  Ni  Ni31  1  -0.00456682  0.33085085  0.66390730  1
  Ni  Ni32  1  0.16292710  0.49607035  0.82964360  1
  Cr  Cr33  1  0.16353655  0.82813744  0.49421179  1
  Cr  Cr34  1  -0.00465499  0.65951462  0.66685968  1
  Ni  Ni35  1  0.16155131  0.82542041  0.83049270  1
  Cr  Cr36  1  0.49263323  0.16321756  0.49992532  1
  Ni  Ni37  1  0.33000896  -0.00404174  0.66319983  1
  Ni  Ni38  1  0.49285200  0.16624013  0.82658872  1
  Cr  Cr39  1  0.49399298  0.49728205  0.49433577  1
  Ni  Ni40  1  0.32926256  0.32906662  0.66543272  1
  Ni  Ni41  1  0.49354255  0.49360855  0.82800372  1
  Ni  Ni42  1  0.49519530  0.82640128  0.49529065  1
  Cr  Cr43  1  0.32831873  0.66220995  0.66260199  1
  Cr  Cr44  1  0.49410849  0.82802981  0.82815283  1
  Cr  Cr45  1  0.83200351  0.16367723  0.49556586  1
  Cr  Cr46  1  0.66007135  0.99369503  0.66209481  1
  Cr  Cr47  1  0.82752023  0.16210356  0.82635769  1
  Cr  Cr48  1  0.82959536  0.49526100  0.49501174  1
  Ni  Ni49  1  0.66087413  0.33198448  0.66542908  1
  Ni  Ni50  1  0.82883665  0.49718703  0.82639571  1
  Cr  Cr51  1  0.82736652  0.82607875  0.49356030  1
  Ni  Ni52  1  0.66115179  0.65906167  0.66337286  1
  Ni  Ni53  1  0.83025743  0.82369797  0.82899467  1
" 