5175,Ni59Fe14Cr26_14,-228.811559557604, 168.916399687601,Ni59Fe14Cr26,"# generated using pymatgen
 data_Cr16Fe7Ni31
_symmetry_space_group_name_H-M   'P 1'
_cell_length_a   7.46676788
_cell_length_b   7.46676788
_cell_length_c   10.55960440
_cell_angle_alpha   90.00000000
_cell_angle_beta   90.00000000
_cell_angle_gamma   90.00000000
_symmetry_Int_Tables_number   1
_chemical_formula_structural   Cr16Fe7Ni31
_chemical_formula_sum   'Cr16 Fe7 Ni31'
_cell_volume   588.72563869
_cell_formula_units_Z   1
loop_
 _symmetry_equiv_pos_site_id
 _symmetry_equiv_pos_as_xyz
  1  'x, y, z'
loop_
 _atom_site_type_symbol
 _atom_site_label
 _atom_site_symmetry_multiplicity
 _atom_site_fract_x
 _atom_site_fract_y
 _atom_site_fract_z
 _atom_site_occupancy
  Fe  Fe0  1  0.99729172  0.99747607  0.99873896  1
  Cr  Cr1  1  0.16488863  0.16440176  0.16737807  1
  Cr  Cr2  1  0.99790464  0.99775217  0.33502173  1
  Cr  Cr3  1  0.99825712  0.33556012  0.00031011  1
  Fe  Fe4  1  0.16502622  0.50210144  0.16706823  1
  Ni  Ni5  1  0.99770654  0.33331162  0.33326409  1
  Ni  Ni6  1  0.00185565  0.66913264  0.00029442  1
  Ni  Ni7  1  0.16460201  0.82908083  0.16509936  1
  Ni  Ni8  1  0.00119257  0.66794762  0.33151818  1
  Cr  Cr9  1  0.33396839  0.99868446  0.99965417  1
  Ni  Ni10  1  0.50555700  0.16723630  0.16594643  1
  Cr  Cr11  1  0.33445382  0.99908393  0.33659730  1
  Cr  Cr12  1  0.33523805  0.33470797  0.99797150  1
  Cr  Cr13  1  0.50057997  0.50104142  0.16706485  1
  Cr  Cr14  1  0.33409944  0.33227208  0.33444551  1
  Ni  Ni15  1  0.33021427  0.66716770  0.99791955  1
  Cr  Cr16  1  0.49975482  0.83483908  0.16818979  1
  Ni  Ni17  1  0.33041600  0.66748213  0.33466642  1
  Ni  Ni18  1  0.66836596  0.00119396  0.99909412  1
  Ni  Ni19  1  0.83057338  0.16666440  0.16639543  1
  Ni  Ni20  1  0.66820881  0.00231931  0.33438283  1
  Ni  Ni21  1  0.66692105  0.32983119  0.99922623  1
  Fe  Fe22  1  0.83391598  0.50045399  0.16773432  1
  Ni  Ni23  1  0.66782645  0.33040717  0.33324866  1
  Cr  Cr24  1  0.66933597  0.66814699  0.99724463  1
  Ni  Ni25  1  0.83498187  0.83552862  0.16501560  1
  Cr  Cr26  1  0.66899618  0.67008981  0.33698309  1
  Ni  Ni27  1  0.16539437  0.16608370  0.50329342  1
  Ni  Ni28  1  0.99881184  0.99767503  0.66695805  1
  Cr  Cr29  1  0.16343760  0.16494462  0.82977768  1
  Cr  Cr30  1  0.16558633  0.50056972  0.50044749  1
  Ni  Ni31  1  0.00201506  0.33187135  0.66604391  1
  Ni  Ni32  1  0.16813387  0.50236426  0.83232627  1
  Ni  Ni33  1  0.16653105  0.83294473  0.50185534  1
  Ni  Ni34  1  0.00033532  0.67035779  0.66779496  1
  Ni  Ni35  1  0.16656224  0.83090628  0.83329730  1
  Ni  Ni36  1  0.50156481  0.16580474  0.50078792  1
  Fe  Fe37  1  0.33391584  0.99837200  0.66525211  1
  Fe  Fe38  1  0.50160215  0.16312316  0.83229855  1
  Ni  Ni39  1  0.49896758  0.50112796  0.50163642  1
  Ni  Ni40  1  0.33358026  0.33315117  0.66721670  1
  Fe  Fe41  1  0.49925255  0.50262961  0.83164064  1
  Ni  Ni42  1  0.50020430  0.83335606  0.50086630  1
  Fe  Fe43  1  0.33352477  0.66793492  0.66710737  1
  Ni  Ni44  1  0.49973999  0.83318233  0.83217438  1
  Ni  Ni45  1  0.83361506  0.16527069  0.50055786  1
  Ni  Ni46  1  0.66721128  0.99786932  0.66613670  1
  Ni  Ni47  1  0.83163909  0.16375091  0.83340378  1
  Cr  Cr48  1  0.83382461  0.49991094  0.50028240  1
  Cr  Cr49  1  0.66538129  0.33215377  0.66682826  1
  Cr  Cr50  1  0.83544388  0.50007705  0.83075847  1
  Ni  Ni51  1  0.83337851  0.83498590  0.50237628  1
  Ni  Ni52  1  0.66589416  0.67099074  0.66658075  1
  Ni  Ni53  1  0.83333116  0.83568798  0.83283864  1
" 