7583,Ni59Fe14Cr26_10,-229.016244606239, 171.042501792322,Ni59Fe14Cr26,"# generated using pymatgen
 data_Cr16Fe7Ni31
_symmetry_space_group_name_H-M   'P 1'
_cell_length_a   7.46558623
_cell_length_b   7.46558623
_cell_length_c   10.55793329
_cell_angle_alpha   90.00000000
_cell_angle_beta   90.00000000
_cell_angle_gamma   90.00000000
_symmetry_Int_Tables_number   1
_chemical_formula_structural   Cr16Fe7Ni31
_chemical_formula_sum   'Cr16 Fe7 Ni31'
_cell_volume   588.44617643
_cell_formula_units_Z   1
loop_
 _symmetry_equiv_pos_site_id
 _symmetry_equiv_pos_as_xyz
  1  'x, y, z'
loop_
 _atom_site_type_symbol
 _atom_site_label
 _atom_site_symmetry_multiplicity
 _atom_site_fract_x
 _atom_site_fract_y
 _atom_site_fract_z
 _atom_site_occupancy
  Ni  Ni0  1  0.99979395  0.99852872  0.99786608  1
  Ni  Ni1  1  0.16824653  0.16657530  0.16600618  1
  Cr  Cr2  1  0.00024950  0.99873959  0.33464653  1
  Fe  Fe3  1  0.00186455  0.33183155  0.99743676  1
  Cr  Cr4  1  0.16624592  0.49950058  0.16832305  1
  Ni  Ni5  1  0.99999295  0.33516130  0.33523186  1
  Ni  Ni6  1  0.99908933  0.66879321  0.99834708  1
  Cr  Cr7  1  0.16717198  0.83373753  0.16604546  1
  Ni  Ni8  1  0.00040946  0.66622677  0.33621438  1
  Ni  Ni9  1  0.33225875  0.00116678  0.99940957  1
  Fe  Fe10  1  0.49786895  0.16735256  0.16639398  1
  Ni  Ni11  1  0.33453333  0.00048541  0.33305401  1
  Ni  Ni12  1  0.33385511  0.33291541  0.00020986  1
  Cr  Cr13  1  0.49953762  0.49918941  0.16596220  1
  Ni  Ni14  1  0.33315042  0.33228928  0.33165677  1
  Ni  Ni15  1  0.33264295  0.66621852  0.99585459  1
  Cr  Cr16  1  0.49951191  0.83509754  0.16575123  1
  Ni  Ni17  1  0.33124016  0.66755274  0.33719953  1
  Ni  Ni18  1  0.66829318  0.99962924  1.00008423  1
  Cr  Cr19  1  0.83332051  0.16709389  0.16605172  1
  Fe  Fe20  1  0.66566942  0.00118424  0.33421700  1
  Ni  Ni21  1  0.66574013  0.33347235  0.99799843  1
  Cr  Cr22  1  0.83456060  0.50006474  0.16575948  1
  Ni  Ni23  1  0.66711132  0.33190687  0.33490603  1
  Fe  Fe24  1  0.66651792  0.66789177  0.99694907  1
  Fe  Fe25  1  0.83481252  0.83347293  0.16419538  1
  Cr  Cr26  1  0.66890649  0.66741275  0.33454918  1
  Cr  Cr27  1  0.16594055  0.16805552  0.50091151  1
  Cr  Cr28  1  0.00132137  0.00052317  0.66836487  1
  Ni  Ni29  1  0.16529979  0.16692755  0.83456737  1
  Ni  Ni30  1  0.16460529  0.50208910  0.49794147  1
  Ni  Ni31  1  0.99955358  0.33459527  0.66773490  1
  Ni  Ni32  1  0.16716983  0.49977113  0.83420313  1
  Ni  Ni33  1  0.17041729  0.83071843  0.49877830  1
  Cr  Cr34  1  0.00098948  0.66563391  0.66547997  1
  Ni  Ni35  1  0.16883054  0.83356013  0.83508805  1
  Cr  Cr36  1  0.50169883  0.16544722  0.49870608  1
  Ni  Ni37  1  0.33253703  0.99831290  0.66772199  1
  Cr  Cr38  1  0.50003136  0.16674529  0.83343705  1
  Cr  Cr39  1  0.49876766  0.50031165  0.50074683  1
  Ni  Ni40  1  0.33205125  0.33460683  0.66846189  1
  Ni  Ni41  1  0.49982467  0.50142078  0.83433994  1
  Ni  Ni42  1  0.49658329  0.83429306  0.49932689  1
  Fe  Fe43  1  0.33252241  0.66693270  0.66773140  1
  Ni  Ni44  1  0.49799727  0.83175771  0.83465940  1
  Ni  Ni45  1  0.83248984  0.17046239  0.49964687  1
  Cr  Cr46  1  0.66705994  0.99981728  0.66570525  1
  Ni  Ni47  1  0.83509632  0.16874411  0.83424132  1
  Ni  Ni48  1  0.83604831  0.49641023  0.49862095  1
  Ni  Ni49  1  0.66866274  0.33484333  0.66715295  1
  Ni  Ni50  1  0.83327764  0.49791919  0.83523164  1
  Fe  Fe51  1  0.83408822  0.83277580  0.49918124  1
  Cr  Cr52  1  0.66647825  0.66549439  0.66892909  1
  Ni  Ni53  1  0.83334701  0.83362518  0.83805522  1
" 