7519,Ni59Fe13Cr26_18,-229.908857751597, 173.990469730267,Ni59Fe13Cr26,"# generated using pymatgen
 data_Cr15Fe7Ni32
_symmetry_space_group_name_H-M   'P 1'
_cell_length_a   7.46079427
_cell_length_b   7.46079427
_cell_length_c   10.55115645
_cell_angle_alpha   90.00000000
_cell_angle_beta   90.00000000
_cell_angle_gamma   90.00000000
_symmetry_Int_Tables_number   1
_chemical_formula_structural   Cr15Fe7Ni32
_chemical_formula_sum   'Cr15 Fe7 Ni32'
_cell_volume   587.31378210
_cell_formula_units_Z   1
loop_
 _symmetry_equiv_pos_site_id
 _symmetry_equiv_pos_as_xyz
  1  'x, y, z'
loop_
 _atom_site_type_symbol
 _atom_site_label
 _atom_site_symmetry_multiplicity
 _atom_site_fract_x
 _atom_site_fract_y
 _atom_site_fract_z
 _atom_site_occupancy
  Cr  Cr0  1  0.00093201  0.00052082  0.99991361  1
  Ni  Ni1  1  0.16599401  0.16638245  0.16530397  1
  Cr  Cr2  1  0.00071268  0.99702146  0.33430506  1
  Fe  Fe3  1  0.00106325  0.33319714  1.00034400  1
  Ni  Ni4  1  0.16608750  0.50342826  0.16647237  1
  Cr  Cr5  1  0.00191425  0.33488659  0.33097002  1
  Cr  Cr6  1  0.00193788  0.66697088  0.00149622  1
  Ni  Ni7  1  0.17047568  0.83139698  0.16842761  1
  Ni  Ni8  1  0.99920285  0.66891737  0.33165602  1
  Ni  Ni9  1  0.33435528  0.99945714  1.00011410  1
  Cr  Cr10  1  0.50187184  0.16402206  0.16692181  1
  Cr  Cr11  1  0.33282229  0.00076500  0.33369902  1
  Cr  Cr12  1  0.33320929  0.33467467  0.99988304  1
  Ni  Ni13  1  0.50156480  0.50459453  0.16889250  1
  Cr  Cr14  1  0.33559909  0.33495389  0.33494956  1
  Ni  Ni15  1  0.33408375  0.66767893  0.00101066  1
  Ni  Ni16  1  0.49881144  0.83165794  0.16642766  1
  Ni  Ni17  1  0.33430528  0.66596428  0.33054290  1
  Ni  Ni18  1  0.66575391  0.00047841  0.99877685  1
  Cr  Cr19  1  0.83282743  0.16917471  0.16576931  1
  Ni  Ni20  1  0.66776241  0.99814475  0.33317466  1
  Fe  Fe21  1  0.66644750  0.33324012  0.99929870  1
  Ni  Ni22  1  0.83355970  0.50038576  0.16915931  1
  Ni  Ni23  1  0.66482017  0.33641241  0.33313579  1
  Cr  Cr24  1  0.66482401  0.66831196  0.00099388  1
  Fe  Fe25  1  0.83212090  0.83173468  0.16951022  1
  Ni  Ni26  1  0.66766747  0.66668746  0.33162366  1
  Ni  Ni27  1  0.16766771  0.16532744  0.50380296  1
  Ni  Ni28  1  0.00100330  0.99966935  0.66751718  1
  Ni  Ni29  1  0.16617871  0.16548635  0.83232805  1
  Cr  Cr30  1  0.16820595  0.50220505  0.50300619  1
  Ni  Ni31  1  0.00273611  0.33160368  0.66986764  1
  Fe  Fe32  1  0.16986684  0.50036705  0.83185790  1
  Fe  Fe33  1  0.16551119  0.83282027  0.50243204  1
  Ni  Ni34  1  0.00050062  0.67009015  0.66752980  1
  Ni  Ni35  1  0.17058899  0.83438685  0.83114411  1
  Fe  Fe36  1  0.50121355  0.16855771  0.50267095  1
  Ni  Ni37  1  0.33226185  0.00251455  0.66829397  1
  Ni  Ni38  1  0.50162399  0.16498127  0.83214401  1
  Ni  Ni39  1  0.50122827  0.50112597  0.50082155  1
  Ni  Ni40  1  0.33481037  0.33276659  0.66711251  1
  Ni  Ni41  1  0.49976038  0.50181956  0.83148176  1
  Cr  Cr42  1  0.50049800  0.83218712  0.50093758  1
  Ni  Ni43  1  0.33406308  0.66590892  0.66972721  1
  Ni  Ni44  1  0.49772431  0.83457359  0.83398796  1
  Cr  Cr45  1  0.83293241  0.16642946  0.50201274  1
  Ni  Ni46  1  0.66794564  1.00039263  0.66922145  1
  Ni  Ni47  1  0.83341819  0.16733287  0.83307932  1
  Cr  Cr48  1  0.83162129  0.50206407  0.50074432  1
  Ni  Ni49  1  0.66387090  0.33338001  0.66803096  1
  Cr  Cr50  1  0.83406499  0.49747380  0.83100894  1
  Ni  Ni51  1  0.83360690  0.83346951  0.50110796  1
  Ni  Ni52  1  0.66671751  0.66760516  0.66768418  1
  Fe  Fe53  1  0.83228258  0.83703069  0.83030458  1
" 