7151,Ni59Fe14Cr26_12,-229.410077635434, 175.577467746768,Ni59Fe14Cr26,"# generated using pymatgen
 data_Cr16Fe7Ni31
_symmetry_space_group_name_H-M   'P 1'
_cell_length_a   7.46969847
_cell_length_b   7.46969847
_cell_length_c   10.56374889
_cell_angle_alpha   90.00000000
_cell_angle_beta   90.00000000
_cell_angle_gamma   90.00000000
_symmetry_Int_Tables_number   1
_chemical_formula_structural   Cr16Fe7Ni31
_chemical_formula_sum   'Cr16 Fe7 Ni31'
_cell_volume   589.41910893
_cell_formula_units_Z   1
loop_
 _symmetry_equiv_pos_site_id
 _symmetry_equiv_pos_as_xyz
  1  'x, y, z'
loop_
 _atom_site_type_symbol
 _atom_site_label
 _atom_site_symmetry_multiplicity
 _atom_site_fract_x
 _atom_site_fract_y
 _atom_site_fract_z
 _atom_site_occupancy
  Cr  Cr0  1  0.99889469  0.00142914  0.00003721  1
  Ni  Ni1  1  0.16718976  0.17167361  0.16637522  1
  Cr  Cr2  1  0.99868237  0.00209761  0.33459853  1
  Ni  Ni3  1  0.99931960  0.33395907  0.00191789  1
  Ni  Ni4  1  0.16752428  0.49815241  0.16651708  1
  Ni  Ni5  1  0.99909078  0.33317789  0.33262866  1
  Ni  Ni6  1  0.00040260  0.66494365  0.00080151  1
  Cr  Cr7  1  0.16558002  0.82946389  0.16493338  1
  Fe  Fe8  1  0.00056350  0.66332019  0.33321280  1
  Cr  Cr9  1  0.33432863  0.99923459  0.99876289  1
  Ni  Ni10  1  0.50061532  0.16831304  0.16681859  1
  Cr  Cr11  1  0.33313242  0.99930838  0.33428610  1
  Ni  Ni12  1  0.33298374  0.33452395  0.00187397  1
  Ni  Ni13  1  0.49672216  0.49795479  0.16704520  1
  Ni  Ni14  1  0.33163917  0.33454450  0.33107991  1
  Ni  Ni15  1  0.33363200  0.66611327  -0.00015137  1
  Fe  Fe16  1  0.50113741  0.83265416  0.16649516  1
  Ni  Ni17  1  0.33341306  0.66578217  0.33271661  1
  Fe  Fe18  1  0.66613983  0.00067259  0.00067822  1
  Ni  Ni19  1  0.83166246  0.16683542  0.16730518  1
  Fe  Fe20  1  0.66709678  0.00145164  0.33254807  1
  Cr  Cr21  1  0.66775496  0.33346393  0.99890236  1
  Ni  Ni22  1  0.83522426  0.49909830  0.16673835  1
  Ni  Ni23  1  0.66873686  0.33286102  0.33185360  1
  Cr  Cr24  1  0.66556201  0.66569961  -0.00010358  1
  Ni  Ni25  1  0.83185742  0.83353565  0.16628238  1
  Cr  Cr26  1  0.66636315  0.66625641  0.33266042  1
  Ni  Ni27  1  0.16411642  0.16768845  0.50084454  1
  Ni  Ni28  1  0.00023463  0.00079954  0.66488852  1
  Cr  Cr29  1  0.16560194  0.16710824  0.83261611  1
  Fe  Fe30  1  0.16413352  0.49869662  0.49847370  1
  Ni  Ni31  1  0.99697154  0.33159613  0.66492251  1
  Cr  Cr32  1  0.16649012  0.50046078  0.83491919  1
  Ni  Ni33  1  0.16470908  0.83256302  0.50093602  1
  Fe  Fe34  1  0.99766774  0.66617948  0.66548860  1
  Ni  Ni35  1  0.16729435  0.83204077  0.83298376  1
  Cr  Cr36  1  0.50018179  0.16828297  0.49944026  1
  Cr  Cr37  1  0.33004486  0.99882547  0.66641779  1
  Fe  Fe38  1  0.50132513  0.16855887  0.83323198  1
  Cr  Cr39  1  0.50000480  0.49889902  0.50030077  1
  Ni  Ni40  1  0.33302146  0.33305531  0.66651644  1
  Ni  Ni41  1  0.50048279  0.49942931  0.83203980  1
  Ni  Ni42  1  0.49997548  0.83199058  0.49849090  1
  Cr  Cr43  1  0.33495832  0.66784996  0.66670873  1
  Ni  Ni44  1  0.49881610  0.83158722  0.83439189  1
  Ni  Ni45  1  0.83556188  0.16764208  0.49993322  1
  Cr  Cr46  1  0.66815683  0.99920045  0.66638991  1
  Ni  Ni47  1  0.83230634  0.16861463  0.83222916  1
  Ni  Ni48  1  0.83498560  0.49939719  0.50139857  1
  Ni  Ni49  1  0.66947357  0.33599925  0.66844226  1
  Ni  Ni50  1  0.83185458  0.49805377  0.83132893  1
  Ni  Ni51  1  0.83478362  0.83242677  0.50098238  1
  Ni  Ni52  1  0.66752298  0.66429986  0.66674329  1
  Cr  Cr53  1  0.83449346  0.83265155  0.83254461  1
" 