1443,Ni59Fe14Cr26_11,-228.875490008143, 169.872387769478,Ni59Fe14Cr26,"# generated using pymatgen
 data_Cr16Fe7Ni31
_symmetry_space_group_name_H-M   'P 1'
_cell_length_a   7.46954418
_cell_length_b   7.46954418
_cell_length_c   10.56353068
_cell_angle_alpha   90.00000000
_cell_angle_beta   90.00000000
_cell_angle_gamma   90.00000000
_symmetry_Int_Tables_number   1
_chemical_formula_structural   Cr16Fe7Ni31
_chemical_formula_sum   'Cr16 Fe7 Ni31'
_cell_volume   589.38258413
_cell_formula_units_Z   1
loop_
 _symmetry_equiv_pos_site_id
 _symmetry_equiv_pos_as_xyz
  1  'x, y, z'
loop_
 _atom_site_type_symbol
 _atom_site_label
 _atom_site_symmetry_multiplicity
 _atom_site_fract_x
 _atom_site_fract_y
 _atom_site_fract_z
 _atom_site_occupancy
  Cr  Cr0  1  0.99882778  0.00335581  0.99610448  1
  Cr  Cr1  1  0.16581977  0.16897758  0.16988481  1
  Ni  Ni2  1  0.00008037  0.00174413  0.33507084  1
  Fe  Fe3  1  0.99972216  0.33316204  0.99852909  1
  Ni  Ni4  1  0.16558056  0.49753081  0.16468767  1
  Ni  Ni5  1  0.00119211  0.33365850  0.33166593  1
  Cr  Cr6  1  0.00040586  0.66517860  0.99686802  1
  Cr  Cr7  1  0.16631360  0.83285920  0.16694250  1
  Cr  Cr8  1  0.99969957  0.66309553  0.33705033  1
  Cr  Cr9  1  0.33248426  0.00264141  0.99745101  1
  Ni  Ni10  1  0.50062888  0.16709571  0.16687038  1
  Ni  Ni11  1  0.33479579  0.00182094  0.33588516  1
  Ni  Ni12  1  0.33205521  0.33266870  0.99862889  1
  Cr  Cr13  1  0.49652224  0.49732042  0.16317514  1
  Fe  Fe14  1  0.33264768  0.33125637  0.33526330  1
  Ni  Ni15  1  0.32979394  0.66329657  0.99938274  1
  Fe  Fe16  1  0.49961564  0.83602336  0.16795436  1
  Cr  Cr17  1  0.33284931  0.66590504  0.33534082  1
  Cr  Cr18  1  0.66761630  0.00406736  0.00081239  1
  Ni  Ni19  1  0.83179778  0.16721013  0.16691606  1
  Ni  Ni20  1  0.66448114  0.00102827  0.33192921  1
  Ni  Ni21  1  0.66823506  0.33140232  0.99762244  1
  Ni  Ni22  1  0.83559602  0.49648138  0.16472504  1
  Cr  Cr23  1  0.66726481  0.33307016  0.33585319  1
  Cr  Cr24  1  0.66937176  0.66640177  0.00331285  1
  Ni  Ni25  1  0.83316598  0.83607229  0.16996253  1
  Cr  Cr26  1  0.66714373  0.66691091  0.33448023  1
  Ni  Ni27  1  0.16766770  0.16658434  0.49862299  1
  Ni  Ni28  1  0.00189886  0.00295845  0.66748125  1
  Ni  Ni29  1  0.16633296  0.16958182  0.83120241  1
  Ni  Ni30  1  0.16683000  0.49678498  0.50128516  1
  Ni  Ni31  1  0.00141372  0.33392838  0.66823558  1
  Ni  Ni32  1  0.16633644  0.49825722  0.83330656  1
  Ni  Ni33  1  0.16655359  0.83556810  0.50321565  1
  Fe  Fe34  1  0.00199222  0.66737916  0.66595601  1
  Fe  Fe35  1  0.16576927  0.83271758  0.82892737  1
  Ni  Ni36  1  0.49687265  0.16451688  0.50173853  1
  Ni  Ni37  1  0.33192868  0.00077208  0.66605183  1
  Ni  Ni38  1  0.49943598  0.16784798  0.83106984  1
  Ni  Ni39  1  0.49662673  0.49778045  0.50317264  1
  Fe  Fe40  1  0.33029286  0.33025244  0.66620689  1
  Cr  Cr41  1  0.49838342  0.49762655  0.83312370  1
  Ni  Ni42  1  0.49898083  0.83589137  0.49921299  1
  Ni  Ni43  1  0.32999379  0.66593721  0.66505842  1
  Cr  Cr44  1  0.49925960  0.83250793  0.83334431  1
  Cr  Cr45  1  0.83579809  0.16400800  0.50025850  1
  Ni  Ni46  1  0.66576937  0.00128632  0.66658229  1
  Ni  Ni47  1  0.83355428  0.16766412  0.83168234  1
  Ni  Ni48  1  0.83596943  0.49874184  0.50271373  1
  Fe  Fe49  1  0.66697072  0.32972016  0.66662748  1
  Ni  Ni50  1  0.83592936  0.49732462  0.83214297  1
  Ni  Ni51  1  0.83408188  0.83559037  0.50030191  1
  Cr  Cr52  1  0.66749680  0.66505904  0.66206473  1
  Ni  Ni53  1  0.83512919  0.83445299  0.82902023  1
" 