1636,Ni59Cr41_2,-215.895203412597, 130.854663103665,Ni59Cr41,"# generated using pymatgen
 data_Cr31Ni23
_symmetry_space_group_name_H-M   'P 1'
_cell_length_a   7.54717283
_cell_length_b   7.54717283
_cell_length_c   10.67331417
_cell_angle_alpha   90.00000000
_cell_angle_beta   90.00000000
_cell_angle_gamma   90.00000000
_symmetry_Int_Tables_number   1
_chemical_formula_structural   Cr31Ni23
_chemical_formula_sum   'Cr31 Ni23'
_cell_volume   607.95002908
_cell_formula_units_Z   1
loop_
 _symmetry_equiv_pos_site_id
 _symmetry_equiv_pos_as_xyz
  1  'x, y, z'
loop_
 _atom_site_type_symbol
 _atom_site_label
 _atom_site_symmetry_multiplicity
 _atom_site_fract_x
 _atom_site_fract_y
 _atom_site_fract_z
 _atom_site_occupancy
  Cr  Cr0  1  -0.00460045  -0.00446973  0.99287043  1
  Ni  Ni1  1  0.16405146  0.16396676  0.16000368  1
  Cr  Cr2  1  -0.00438177  -0.00190258  0.32767943  1
  Ni  Ni3  1  -0.00277799  0.33128228  -0.00418790  1
  Ni  Ni4  1  0.16148018  0.49309379  0.15688994  1
  Cr  Cr5  1  0.99411775  0.32842886  0.32741951  1
  Ni  Ni6  1  -0.00474671  0.65955155  0.99260749  1
  Cr  Cr7  1  0.16187533  0.82624633  0.16263553  1
  Cr  Cr8  1  -0.00455302  0.65767296  0.32931156  1
  Cr  Cr9  1  0.32875823  -0.00415486  -0.00509064  1
  Ni  Ni10  1  0.49260744  0.16183279  0.16371381  1
  Ni  Ni11  1  0.33241627  -0.00263610  0.32871040  1
  Ni  Ni12  1  0.32532262  0.32895720  -0.00224609  1
  Cr  Cr13  1  0.49417325  0.49424360  0.15843880  1
  Cr  Cr14  1  0.32971818  0.32747029  0.32582155  1
  Ni  Ni15  1  0.32692935  0.66078030  0.99389675  1
  Cr  Cr16  1  0.49599089  0.82871790  0.16214681  1
  Cr  Cr17  1  0.32948141  0.66026283  0.32950860  1
  Cr  Cr18  1  0.65975490  0.99285414  0.99333045  1
  Cr  Cr19  1  0.82559470  0.16140093  0.16286183  1
  Ni  Ni20  1  0.65668841  -0.00128958  0.32974687  1
  Cr  Cr21  1  0.66053003  0.32773006  -0.00527837  1
  Cr  Cr22  1  0.82827549  0.49567134  0.15956039  1
  Ni  Ni23  1  0.65970341  0.32491842  0.33123842  1
  Ni  Ni24  1  0.66193691  0.66171302  0.99109660  1
  Cr  Cr25  1  0.82641484  0.82692953  0.16141792  1
  Cr  Cr26  1  0.65946184  0.65868254  0.33133078  1
  Cr  Cr27  1  0.16387171  0.16020778  0.49746314  1
  Cr  Cr28  1  0.99455239  0.99331694  0.66378723  1
  Cr  Cr29  1  0.16372401  0.16297995  0.82635869  1
  Cr  Cr30  1  0.16307689  0.49365541  0.49595024  1
  Cr  Cr31  1  0.99089499  0.32952923  0.65987688  1
  Cr  Cr32  1  0.16238353  0.49380919  0.82978120  1
  Cr  Cr33  1  0.16411417  0.83024794  0.49480947  1
  Cr  Cr34  1  0.99276751  0.66119988  0.66193024  1
  Ni  Ni35  1  0.16278660  0.82658003  0.82848627  1
  Ni  Ni36  1  0.49647459  0.16143919  0.49467750  1
  Ni  Ni37  1  0.33102658  0.99428879  0.66132468  1
  Cr  Cr38  1  0.49275016  0.16328004  0.82593946  1
  Ni  Ni39  1  0.49773064  0.49130044  0.49578349  1
  Ni  Ni40  1  0.33238165  0.32632513  0.65918636  1
  Cr  Cr41  1  0.49461550  0.49368046  0.82899031  1
  Ni  Ni42  1  0.49453952  0.83139021  0.49395496  1
  Cr  Cr43  1  0.33083153  0.66294575  0.66036087  1
  Ni  Ni44  1  0.49334570  0.82659437  0.82909741  1
  Ni  Ni45  1  0.82281774  0.16404843  0.49380113  1
  Cr  Cr46  1  0.65989784  0.99446704  0.66238222  1
  Cr  Cr47  1  0.82745413  0.16443931  0.82718408  1
  Ni  Ni48  1  0.82327707  0.49058985  0.49482838  1
  Ni  Ni49  1  0.65989836  0.32876424  0.65803968  1
  Ni  Ni50  1  0.82796032  0.49657736  0.82967350  1
  Cr  Cr51  1  0.82662281  0.83010963  0.49161240  1
  Cr  Cr52  1  0.66124121  0.65976230  0.66191343  1
  Ni  Ni53  1  0.82809204  0.82386868  0.83072438  1
" 