4741,Ni59Fe13Cr26_15,-229.826629980276, 173.144865367111,Ni59Fe13Cr26,"# generated using pymatgen
 data_Cr15Fe7Ni32
_symmetry_space_group_name_H-M   'P 1'
_cell_length_a   7.46371201
_cell_length_b   7.46371201
_cell_length_c   10.55528275
_cell_angle_alpha   90.00000000
_cell_angle_beta   90.00000000
_cell_angle_gamma   90.00000000
_symmetry_Int_Tables_number   1
_chemical_formula_structural   Cr15Fe7Ni32
_chemical_formula_sum   'Cr15 Fe7 Ni32'
_cell_volume   588.00310404
_cell_formula_units_Z   1
loop_
 _symmetry_equiv_pos_site_id
 _symmetry_equiv_pos_as_xyz
  1  'x, y, z'
loop_
 _atom_site_type_symbol
 _atom_site_label
 _atom_site_symmetry_multiplicity
 _atom_site_fract_x
 _atom_site_fract_y
 _atom_site_fract_z
 _atom_site_occupancy
  Ni  Ni0  1  0.99973343  0.00406680  0.00254592  1
  Ni  Ni1  1  0.16615181  0.16336232  0.16642869  1
  Ni  Ni2  1  0.99897089  0.00168913  0.33222703  1
  Ni  Ni3  1  0.99952802  0.33086776  0.99980797  1
  Cr  Cr4  1  0.16533852  0.49942134  0.16764680  1
  Fe  Fe5  1  0.00065727  0.32955971  0.33366583  1
  Cr  Cr6  1  0.99805836  0.66649602  0.99970300  1
  Ni  Ni7  1  0.16765290  0.83801148  0.16770352  1
  Cr  Cr8  1  0.00032413  0.66793448  0.33259481  1
  Ni  Ni9  1  0.33367343  0.00212447  0.00222552  1
  Ni  Ni10  1  0.50021820  0.16289562  0.16526902  1
  Ni  Ni11  1  0.33313572  0.99803369  0.33147669  1
  Ni  Ni12  1  0.33234640  0.33127954  0.99877641  1
  Cr  Cr13  1  0.50259332  0.50069918  0.16620213  1
  Cr  Cr14  1  0.33200069  0.33366679  0.33514675  1
  Cr  Cr15  1  0.33598811  0.66745851  0.99936200  1
  Ni  Ni16  1  0.50086621  0.83632590  0.16837239  1
  Ni  Ni17  1  0.33521952  0.66887364  0.33455155  1
  Ni  Ni18  1  0.66726456  0.99980754  0.00145517  1
  Ni  Ni19  1  0.83430114  0.16551331  0.16649531  1
  Ni  Ni20  1  0.66856386  0.99826836  0.33364776  1
  Fe  Fe21  1  0.66870836  0.33296204  1.00000266  1
  Ni  Ni22  1  0.83261695  0.49994403  0.16579747  1
  Cr  Cr23  1  0.66859391  0.33234455  0.33179286  1
  Ni  Ni24  1  0.66685125  0.66706116  0.00092841  1
  Ni  Ni25  1  0.83215072  0.83521178  0.16760326  1
  Fe  Fe26  1  0.66488879  0.67066324  0.33302900  1
  Ni  Ni27  1  0.16561782  0.16777455  0.50028388  1
  Cr  Cr28  1  0.99953158  0.00332536  0.66657884  1
  Ni  Ni29  1  0.16659046  0.16930323  0.83395741  1
  Ni  Ni30  1  0.16789299  0.49865806  0.50132704  1
  Ni  Ni31  1  0.00057822  0.33355781  0.66685441  1
  Ni  Ni32  1  0.16598334  0.49651181  0.83168645  1
  Cr  Cr33  1  0.16774393  0.83433754  0.49924895  1
  Fe  Fe34  1  0.99923280  0.66257541  0.66709804  1
  Cr  Cr35  1  0.16824285  0.83517785  0.83468192  1
  Cr  Cr36  1  0.50007380  0.16574941  0.50220976  1
  Ni  Ni37  1  0.33429760  0.00158156  0.66696996  1
  Cr  Cr38  1  0.49977599  0.16669800  0.83373412  1
  Ni  Ni39  1  0.49951110  0.50250701  0.50114599  1
  Ni  Ni40  1  0.33189366  0.33438968  0.66658267  1
  Ni  Ni41  1  0.50191163  0.50040882  0.83308930  1
  Fe  Fe42  1  0.50141481  0.83295212  0.49938414  1
  Cr  Cr43  1  0.33555301  0.66479653  0.66744108  1
  Ni  Ni44  1  0.50150174  0.83324291  0.83297675  1
  Ni  Ni45  1  0.83479382  0.16551116  0.50016504  1
  Fe  Fe46  1  0.66589845  0.00066858  0.66646583  1
  Ni  Ni47  1  0.83438455  0.16971380  0.83401101  1
  Cr  Cr48  1  0.83354523  0.49989073  0.50150573  1
  Ni  Ni49  1  0.66819861  0.33562689  0.66843145  1
  Ni  Ni50  1  0.83277491  0.49832049  0.83279854  1
  Fe  Fe51  1  0.83124286  0.83524070  0.49963257  1
  Ni  Ni52  1  0.66615804  0.66589704  0.66633842  1
  Cr  Cr53  1  0.83132626  0.83310708  0.83300931  1
" 