4006,Ni59Fe14Cr26_5,-229.301722474753, 178.94241733935,Ni59Fe14Cr26,"# generated using pymatgen
 data_Cr16Fe7Ni31
_symmetry_space_group_name_H-M   'P 1'
_cell_length_a   7.46602522
_cell_length_b   7.46602522
_cell_length_c   10.55855413
_cell_angle_alpha   90.00000000
_cell_angle_beta   90.00000000
_cell_angle_gamma   90.00000000
_symmetry_Int_Tables_number   1
_chemical_formula_structural   Cr16Fe7Ni31
_chemical_formula_sum   'Cr16 Fe7 Ni31'
_cell_volume   588.54998971
_cell_formula_units_Z   1
loop_
 _symmetry_equiv_pos_site_id
 _symmetry_equiv_pos_as_xyz
  1  'x, y, z'
loop_
 _atom_site_type_symbol
 _atom_site_label
 _atom_site_symmetry_multiplicity
 _atom_site_fract_x
 _atom_site_fract_y
 _atom_site_fract_z
 _atom_site_occupancy
  Ni  Ni0  1  0.00277662  0.99824266  0.99941693  1
  Ni  Ni1  1  0.16825886  0.16394919  0.16628613  1
  Ni  Ni2  1  0.00021757  0.00039727  0.33453934  1
  Cr  Cr3  1  0.00044883  0.33418812  0.99972679  1
  Cr  Cr4  1  0.16775257  0.50050421  0.16601931  1
  Ni  Ni5  1  0.99923428  0.33259350  0.33457756  1
  Fe  Fe6  1  0.00151968  0.66815573  0.99804661  1
  Ni  Ni7  1  0.16963408  0.83576664  0.16570651  1
  Cr  Cr8  1  0.00074496  0.66724843  0.33410725  1
  Ni  Ni9  1  0.33252687  0.99941810  0.00209489  1
  Ni  Ni10  1  0.49860430  0.16538948  0.16456830  1
  Fe  Fe11  1  0.33285005  0.99873733  0.33150485  1
  Ni  Ni12  1  0.33429819  0.33277437  0.00108629  1
  Ni  Ni13  1  0.50020409  0.50067536  0.16544942  1
  Cr  Cr14  1  0.33365898  0.33371549  0.33326012  1
  Ni  Ni15  1  0.33255244  0.66801321  0.99988406  1
  Ni  Ni16  1  0.49741367  0.83414037  0.16751901  1
  Ni  Ni17  1  0.33438425  0.66787296  0.33393453  1
  Ni  Ni18  1  0.66490470  0.99999003  0.99960154  1
  Cr  Cr19  1  0.83373824  0.16647163  0.16656530  1
  Ni  Ni20  1  0.66658897  0.99973622  0.33454914  1
  Ni  Ni21  1  0.66498806  0.33406039  0.00208845  1
  Ni  Ni22  1  0.83171488  0.49929848  0.16656875  1
  Cr  Cr23  1  0.66705244  0.33372769  0.33411469  1
  Cr  Cr24  1  0.66678460  0.66651136  0.00132543  1
  Cr  Cr25  1  0.83333493  0.83428240  0.16653845  1
  Fe  Fe26  1  0.66548986  0.66676226  0.33337696  1
  Cr  Cr27  1  0.16480240  0.16545694  0.49900817  1
  Ni  Ni28  1  1.00002956  0.99565288  0.66624657  1
  Fe  Fe29  1  0.16725935  0.16438005  0.83471319  1
  Ni  Ni30  1  0.16725213  0.50272091  0.50034699  1
  Cr  Cr31  1  0.00031554  0.33523004  0.66562395  1
  Ni  Ni32  1  0.16570956  0.50249345  0.83394966  1
  Ni  Ni33  1  0.16508539  0.83182936  0.50126209  1
  Ni  Ni34  1  0.99937496  0.66868950  0.66748007  1
  Fe  Fe35  1  0.16634771  0.83301281  0.83340231  1
  Ni  Ni36  1  0.50275844  0.16598367  0.50060937  1
  Ni  Ni37  1  0.33301701  0.99781656  0.66714067  1
  Cr  Cr38  1  0.49968595  0.16375633  0.83481967  1
  Ni  Ni39  1  0.49905107  0.50128120  0.50032781  1
  Cr  Cr40  1  0.33313959  0.33349832  0.66587977  1
  Cr  Cr41  1  0.49826152  0.50184690  0.83426430  1
  Cr  Cr42  1  0.50058385  0.83309247  0.50036515  1
  Fe  Fe43  1  0.33182856  0.66888281  0.66631493  1
  Ni  Ni44  1  0.49980980  0.83453556  0.83236860  1
  Ni  Ni45  1  0.83279050  0.16381686  0.49921178  1
  Ni  Ni46  1  0.66715859  0.99673211  0.66605490  1
  Cr  Cr47  1  0.83328425  0.16370136  0.83429006  1
  Fe  Fe48  1  0.83370887  0.50149068  0.50034659  1
  Cr  Cr49  1  0.66674998  0.33418469  0.66424643  1
  Ni  Ni50  1  0.83644481  0.50338100  0.83322567  1
  Ni  Ni51  1  0.83423131  0.83553726  0.50168236  1
  Ni  Ni52  1  0.66900139  0.66879700  0.66596456  1
  Ni  Ni53  1  0.83433827  0.83327371  0.83209511  1
" 