909,Ni59Fe13Cr26_11,-229.743650934929, 173.025210618827,Ni59Fe13Cr26,"# generated using pymatgen
 data_Cr15Fe7Ni32
_symmetry_space_group_name_H-M   'P 1'
_cell_length_a   7.47037387
_cell_length_b   7.47037387
_cell_length_c   10.56470405
_cell_angle_alpha   90.00000000
_cell_angle_beta   90.00000000
_cell_angle_gamma   90.00000000
_symmetry_Int_Tables_number   1
_chemical_formula_structural   Cr15Fe7Ni32
_chemical_formula_sum   'Cr15 Fe7 Ni32'
_cell_volume   589.57900647
_cell_formula_units_Z   1
loop_
 _symmetry_equiv_pos_site_id
 _symmetry_equiv_pos_as_xyz
  1  'x, y, z'
loop_
 _atom_site_type_symbol
 _atom_site_label
 _atom_site_symmetry_multiplicity
 _atom_site_fract_x
 _atom_site_fract_y
 _atom_site_fract_z
 _atom_site_occupancy
  Fe  Fe0  1  0.00117891  0.99829969  0.00017689  1
  Ni  Ni1  1  0.16591206  0.16416633  0.16729886  1
  Ni  Ni2  1  0.00045902  0.99877707  0.33180003  1
  Cr  Cr3  1  0.99833413  0.33286087  0.00088051  1
  Ni  Ni4  1  0.16701287  0.50221392  0.16748530  1
  Cr  Cr5  1  0.00055645  0.33171454  0.33140386  1
  Fe  Fe6  1  -0.00012847  0.66737922  -0.00002371  1
  Ni  Ni7  1  0.16455545  0.83298880  0.16609776  1
  Ni  Ni8  1  0.00026172  0.66848892  0.33031839  1
  Ni  Ni9  1  0.32879221  0.99813422  0.99926219  1
  Cr  Cr10  1  0.49924908  0.16737231  0.16686964  1
  Ni  Ni11  1  0.33190873  0.00004999  0.33464537  1
  Cr  Cr12  1  0.33267450  0.33373189  0.99848767  1
  Ni  Ni13  1  0.50059801  0.50028732  0.16659801  1
  Ni  Ni14  1  0.33436824  0.33317201  0.33379324  1
  Ni  Ni15  1  0.33187781  0.66683601  0.00050197  1
  Cr  Cr16  1  0.49859489  0.83238414  0.16694697  1
  Fe  Fe17  1  0.33212490  0.66739279  0.33303467  1
  Cr  Cr18  1  0.66849490  -0.00007443  0.99775875  1
  Ni  Ni19  1  0.83362918  0.16580285  0.16745296  1
  Ni  Ni20  1  0.66688983  -0.00021633  0.33534109  1
  Ni  Ni21  1  0.66831013  0.33620664  0.99968643  1
  Ni  Ni22  1  0.83173045  0.50149297  0.16633192  1
  Fe  Fe23  1  0.66518820  0.33200027  0.33261439  1
  Ni  Ni24  1  0.66784563  0.66342937  0.00029800  1
  Ni  Ni25  1  0.83560416  0.83194851  0.16691177  1
  Fe  Fe26  1  0.66564005  0.66661429  0.33172207  1
  Ni  Ni27  1  0.16879105  0.16486688  0.49791212  1
  Cr  Cr28  1  0.99924234  0.99966883  0.66678153  1
  Ni  Ni29  1  0.16788136  0.16627149  0.83391111  1
  Cr  Cr30  1  0.16779321  0.50154043  0.50106710  1
  Cr  Cr31  1  0.00087484  0.33259772  0.66721917  1
  Ni  Ni32  1  0.16649646  0.50228581  0.83128668  1
  Ni  Ni33  1  0.16827553  0.83286947  0.49832703  1
  Ni  Ni34  1  0.00278068  0.66669155  0.66981304  1
  Ni  Ni35  1  0.16519820  0.83056012  0.83481451  1
  Ni  Ni36  1  0.49985601  0.16603446  0.49859487  1
  Cr  Cr37  1  0.33433397  0.99932122  0.66511135  1
  Ni  Ni38  1  0.49999402  0.16774016  0.83284417  1
  Ni  Ni39  1  0.49764005  0.49938765  0.49851198  1
  Fe  Fe40  1  0.33395401  0.33357082  0.66661814  1
  Fe  Fe41  1  0.49908275  0.49957541  0.83451475  1
  Ni  Ni42  1  0.49816245  0.83388236  0.49820607  1
  Ni  Ni43  1  0.33154333  0.66554743  0.66564419  1
  Cr  Cr44  1  0.49895552  0.83375755  0.83419385  1
  Ni  Ni45  1  0.83069814  0.16437947  0.49829600  1
  Ni  Ni46  1  0.66584578  0.00137226  0.66610680  1
  Ni  Ni47  1  0.83150603  0.16633614  0.83357093  1
  Cr  Cr48  1  0.83335655  0.50011754  0.49833824  1
  Cr  Cr49  1  0.66552120  0.33096673  0.66743672  1
  Ni  Ni50  1  0.83422481  0.50131437  0.83496084  1
  Cr  Cr51  1  0.83397478  0.83414916  0.49954616  1
  Cr  Cr52  1  0.66504425  0.66807713  0.66711072  1
  Ni  Ni53  1  0.83528763  0.83164163  0.83354490  1
" 