8656,Ni59Cr41_0,-215.772202649036, 127.234989119946,Ni59Cr41,"# generated using pymatgen
 data_Cr31Ni23
_symmetry_space_group_name_H-M   'P 1'
_cell_length_a   7.54571702
_cell_length_b   7.54571702
_cell_length_c   10.67125535
_cell_angle_alpha   90.00000000
_cell_angle_beta   90.00000000
_cell_angle_gamma   90.00000000
_symmetry_Int_Tables_number   1
_chemical_formula_structural   Cr31Ni23
_chemical_formula_sum   'Cr31 Ni23'
_cell_volume   607.59828664
_cell_formula_units_Z   1
loop_
 _symmetry_equiv_pos_site_id
 _symmetry_equiv_pos_as_xyz
  1  'x, y, z'
loop_
 _atom_site_type_symbol
 _atom_site_label
 _atom_site_symmetry_multiplicity
 _atom_site_fract_x
 _atom_site_fract_y
 _atom_site_fract_z
 _atom_site_occupancy
  Ni  Ni0  1  0.99474441  0.99267841  -0.00248406  1
  Cr  Cr1  1  0.16076717  0.16086809  0.16217501  1
  Ni  Ni2  1  -0.00468374  0.99122873  0.32800354  1
  Ni  Ni3  1  -0.00470729  0.32989085  0.99205483  1
  Cr  Cr4  1  0.16206634  0.49577704  0.16198964  1
  Cr  Cr5  1  -0.00359838  0.32613105  0.33054890  1
  Ni  Ni6  1  0.99478247  0.66128136  -0.00507786  1
  Ni  Ni7  1  0.15758166  0.82815211  0.16324404  1
  Ni  Ni8  1  -0.00403430  0.66661339  0.32667878  1
  Cr  Cr9  1  0.32612538  -0.00279306  0.99298040  1
  Cr  Cr10  1  0.49423384  0.16287765  0.16126763  1
  Ni  Ni11  1  0.32678459  -0.00374177  0.32932938  1
  Ni  Ni12  1  0.32751154  0.32806942  0.99255405  1
  Cr  Cr13  1  0.49195928  0.49285847  0.16263864  1
  Ni  Ni14  1  0.32899934  0.32600335  0.33155718  1
  Cr  Cr15  1  0.32555937  0.66127603  0.99360687  1
  Cr  Cr16  1  0.49200843  0.82869533  0.16433067  1
  Ni  Ni17  1  0.32621406  0.66169235  0.32851250  1
  Cr  Cr18  1  0.66210425  -0.00478707  -0.00465726  1
  Cr  Cr19  1  0.82913349  0.16006744  0.15986676  1
  Ni  Ni20  1  0.66248547  0.99360504  0.32956925  1
  Ni  Ni21  1  0.66170307  0.32807454  0.99196115  1
  Cr  Cr22  1  0.83105599  0.49343521  0.15861352  1
  Cr  Cr23  1  0.65975943  0.32639299  0.32922514  1
  Cr  Cr24  1  0.66547367  0.66071850  -0.00386257  1
  Ni  Ni25  1  0.83366668  0.82938956  0.16341247  1
  Cr  Cr26  1  0.66463382  0.66160327  0.32795514  1
  Ni  Ni27  1  0.16348199  0.16141081  0.49235823  1
  Cr  Cr28  1  -0.00446205  -0.00319156  0.65854137  1
  Cr  Cr29  1  0.15872187  0.16358618  0.82954395  1
  Cr  Cr30  1  0.16234417  0.49498381  0.49307424  1
  Ni  Ni31  1  0.99365968  0.32876671  0.66278883  1
  Ni  Ni32  1  0.15697024  0.49146319  0.83052534  1
  Cr  Cr33  1  0.16113529  0.82897592  0.49218868  1
  Cr  Cr34  1  0.99428433  0.65918542  0.66268675  1
  Cr  Cr35  1  0.16008340  0.82603235  0.82972675  1
  Ni  Ni36  1  0.49460856  0.16144284  0.49401932  1
  Cr  Cr37  1  0.32893839  -0.00077206  0.66239256  1
  Ni  Ni38  1  0.49699356  0.16540668  0.82771039  1
  Ni  Ni39  1  0.49367179  0.49140720  0.49328432  1
  Cr  Cr40  1  0.32641343  0.32671531  0.65978855  1
  Cr  Cr41  1  0.49585552  0.49284373  0.82910534  1
  Cr  Cr42  1  0.49505397  0.82848878  0.49527688  1
  Cr  Cr43  1  0.32715868  0.65863568  0.66302815  1
  Cr  Cr44  1  0.49619693  0.83194377  0.82523406  1
  Cr  Cr45  1  0.82806705  0.15957624  0.49619051  1
  Ni  Ni46  1  0.66075522  -0.00059384  0.65945648  1
  Cr  Cr47  1  0.82686764  0.16372348  0.82826313  1
  Cr  Cr48  1  0.82842487  0.49447350  0.49672610  1
  Ni  Ni49  1  0.66061030  0.32622405  0.66191541  1
  Ni  Ni50  1  0.83097479  0.49162202  0.82918606  1
  Ni  Ni51  1  0.82776861  0.83058880  0.49223275  1
  Cr  Cr52  1  0.66303942  0.66005036  0.66028564  1
  Cr  Cr53  1  0.82855828  0.82945834  0.82698243  1
" 