6886,Ni59Cr41_8,-215.717243972271, 125.224530063388,Ni59Cr41,"# generated using pymatgen
 data_Cr31Ni23
_symmetry_space_group_name_H-M   'P 1'
_cell_length_a   7.53746952
_cell_length_b   7.53746952
_cell_length_c   10.65959162
_cell_angle_alpha   90.00000000
_cell_angle_beta   90.00000000
_cell_angle_gamma   90.00000000
_symmetry_Int_Tables_number   1
_chemical_formula_structural   Cr31Ni23
_chemical_formula_sum   'Cr31 Ni23'
_cell_volume   605.60814032
_cell_formula_units_Z   1
loop_
 _symmetry_equiv_pos_site_id
 _symmetry_equiv_pos_as_xyz
  1  'x, y, z'
loop_
 _atom_site_type_symbol
 _atom_site_label
 _atom_site_symmetry_multiplicity
 _atom_site_fract_x
 _atom_site_fract_y
 _atom_site_fract_z
 _atom_site_occupancy
  Cr  Cr0  1  0.99291822  0.99486611  0.99467304  1
  Ni  Ni1  1  0.16106995  0.16259334  0.16519076  1
  Ni  Ni2  1  0.99399477  -0.00140460  0.32568690  1
  Cr  Cr3  1  0.99390372  0.32687299  -0.00212462  1
  Cr  Cr4  1  0.16117501  0.49221122  0.16113906  1
  Ni  Ni5  1  -0.00369404  0.32510480  0.32767230  1
  Ni  Ni6  1  0.99460246  0.66480365  0.99380413  1
  Cr  Cr7  1  0.15973950  0.83118749  0.16135044  1
  Cr  Cr8  1  0.99464117  0.66047361  0.32859711  1
  Cr  Cr9  1  0.32736414  -0.00399648  -0.00461620  1
  Cr  Cr10  1  0.49440699  0.16318239  0.16311635  1
  Ni  Ni11  1  0.32798100  -0.00161540  0.32757490  1
  Ni  Ni12  1  0.33047825  0.32926379  0.99512121  1
  Cr  Cr13  1  0.49680925  0.49278964  0.16109658  1
  Ni  Ni14  1  0.32673388  0.32652852  0.32868950  1
  Cr  Cr15  1  0.32748246  0.66050420  0.99370868  1
  Cr  Cr16  1  0.49750560  0.83009217  0.16592014  1
  Cr  Cr17  1  0.32972969  0.66085193  0.33015235  1
  Cr  Cr18  1  0.66575593  -0.00272727  -0.00462345  1
  Ni  Ni19  1  0.82951926  0.16096534  0.16479568  1
  Ni  Ni20  1  0.66400191  -0.00444006  0.32649030  1
  Ni  Ni21  1  0.66091926  0.32788466  0.99374411  1
  Cr  Cr22  1  0.82799503  0.49532055  0.16268176  1
  Ni  Ni23  1  0.66296236  0.32705264  0.32754716  1
  Cr  Cr24  1  0.66329925  0.66196238  0.99531748  1
  Ni  Ni25  1  0.82902216  0.83070700  0.16378330  1
  Ni  Ni26  1  0.66269175  0.66338749  0.32774890  1
  Cr  Cr27  1  0.16259376  0.16274089  0.49343653  1
  Ni  Ni28  1  0.99394719  0.99237028  0.66545525  1
  Cr  Cr29  1  0.16222191  0.16057904  0.82804389  1
  Ni  Ni30  1  0.16222834  0.49329997  0.49534020  1
  Cr  Cr31  1  0.99505297  0.32804645  0.66019666  1
  Cr  Cr32  1  0.16267981  0.49691645  0.82951728  1
  Cr  Cr33  1  0.15985859  0.82972770  0.49656286  1
  Ni  Ni34  1  0.99460213  0.66476166  0.66353304  1
  Ni  Ni35  1  0.15669788  0.82776823  0.82759958  1
  Cr  Cr36  1  0.49482235  0.16299072  0.49413501  1
  Cr  Cr37  1  0.32692448  -0.00461639  0.66262665  1
  Cr  Cr38  1  0.49619546  0.16709410  0.82865172  1
  Cr  Cr39  1  0.49680603  0.49335198  0.49597019  1
  Ni  Ni40  1  0.33050572  0.33125439  0.66214371  1
  Ni  Ni41  1  0.49657388  0.49233432  0.82769198  1
  Cr  Cr42  1  0.49741418  0.82969522  0.49211823  1
  Cr  Cr43  1  0.32807061  0.65959942  0.66196820  1
  Cr  Cr44  1  0.49572128  0.82702160  0.82802071  1
  Cr  Cr45  1  0.82858315  0.16210520  0.49435104  1
  Cr  Cr46  1  0.66533724  -0.00397698  0.66417088  1
  Ni  Ni47  1  0.82739006  0.16083102  0.82771986  1
  Cr  Cr48  1  0.82864971  0.49593170  0.49529366  1
  Ni  Ni49  1  0.66027250  0.33065974  0.66465895  1
  Cr  Cr50  1  0.82634460  0.49643708  0.82808526  1
  Cr  Cr51  1  0.82875571  0.82786534  0.49565518  1
  Ni  Ni52  1  0.66374399  0.66020203  0.66380235  1
  Ni  Ni53  1  0.83273894  0.82832818  0.82675465  1
" 