6863,Ni59Fe14Cr26_0,-229.233088769822, 173.630484179927,Ni59Fe14Cr26,"# generated using pymatgen
 data_Cr16Fe7Ni31
_symmetry_space_group_name_H-M   'P 1'
_cell_length_a   7.47218101
_cell_length_b   7.47218101
_cell_length_c   10.56725972
_cell_angle_alpha   90.00000000
_cell_angle_beta   90.00000000
_cell_angle_gamma   90.00000000
_symmetry_Int_Tables_number   1
_chemical_formula_structural   Cr16Fe7Ni31
_chemical_formula_sum   'Cr16 Fe7 Ni31'
_cell_volume   590.00697958
_cell_formula_units_Z   1
loop_
 _symmetry_equiv_pos_site_id
 _symmetry_equiv_pos_as_xyz
  1  'x, y, z'
loop_
 _atom_site_type_symbol
 _atom_site_label
 _atom_site_symmetry_multiplicity
 _atom_site_fract_x
 _atom_site_fract_y
 _atom_site_fract_z
 _atom_site_occupancy
  Cr  Cr0  1  0.99808846  -0.00001524  0.00152715  1
  Ni  Ni1  1  0.16822190  0.16400897  0.16691418  1
  Ni  Ni2  1  0.00069619  0.99858983  0.33423641  1
  Cr  Cr3  1  0.99873651  0.33337975  0.00109154  1
  Fe  Fe4  1  0.16629726  0.50093448  0.16677186  1
  Cr  Cr5  1  0.00095527  0.33308174  0.33182330  1
  Cr  Cr6  1  -0.00013756  0.66562412  0.00270946  1
  Ni  Ni7  1  0.16695719  0.83461431  0.16739654  1
  Ni  Ni8  1  0.99866194  0.66785371  0.33308765  1
  Ni  Ni9  1  0.33508971  0.99725729  0.00199135  1
  Cr  Cr10  1  0.49893704  0.16501270  0.16618758  1
  Ni  Ni11  1  0.32977581  0.99901950  0.33167000  1
  Ni  Ni12  1  0.33230726  0.33499611  0.00083076  1
  Cr  Cr13  1  0.50205951  0.50068583  0.16533165  1
  Fe  Fe14  1  0.32991359  0.33248862  0.33424725  1
  Ni  Ni15  1  0.33500018  0.66680413  0.99786786  1
  Ni  Ni16  1  0.50008353  0.83296964  0.16375202  1
  Cr  Cr17  1  0.33083436  0.66744328  0.33391262  1
  Ni  Ni18  1  0.66588659  0.99766512  -0.00026069  1
  Ni  Ni19  1  0.83283103  0.16486292  0.16502901  1
  Ni  Ni20  1  0.66878996  0.99678715  0.33155849  1
  Ni  Ni21  1  0.66750871  0.33380711  0.99786870  1
  Ni  Ni22  1  0.83150635  0.50248687  0.16612365  1
  Cr  Cr23  1  0.66890886  0.33394552  0.33631533  1
  Ni  Ni24  1  0.66506017  0.66763233  0.99889964  1
  Ni  Ni25  1  0.83188536  0.83160690  0.16853491  1
  Ni  Ni26  1  0.66913430  0.66829744  0.33343071  1
  Ni  Ni27  1  0.16571826  0.16522276  0.50103164  1
  Fe  Fe28  1  0.99899945  0.00026598  0.66414612  1
  Cr  Cr29  1  0.16683099  0.16667802  0.83105250  1
  Ni  Ni30  1  0.16539814  0.49991417  0.50195820  1
  Ni  Ni31  1  0.00097095  0.33508414  0.66579076  1
  Fe  Fe32  1  0.16552935  0.49912878  0.83089177  1
  Ni  Ni33  1  0.16282850  0.83369635  0.50116703  1
  Ni  Ni34  1  0.00036402  0.66417475  0.66442111  1
  Cr  Cr35  1  0.16662881  0.83166237  0.83009664  1
  Cr  Cr36  1  0.49661543  0.16708448  0.49695334  1
  Ni  Ni37  1  0.33068479  0.99908719  0.66484689  1
  Cr  Cr38  1  0.49810439  0.16737338  0.83619537  1
  Ni  Ni39  1  0.49804147  0.49941489  0.50055200  1
  Ni  Ni40  1  0.32925277  0.33442275  0.66387466  1
  Fe  Fe41  1  0.49907453  0.50030427  0.83457996  1
  Cr  Cr42  1  0.49938313  0.83257169  0.49807749  1
  Fe  Fe43  1  0.33105701  0.66379304  0.66537393  1
  Fe  Fe44  1  0.50109819  0.83279093  0.83567172  1
  Ni  Ni45  1  0.83752086  0.16490717  0.50075011  1
  Cr  Cr46  1  0.66771304  0.99885141  0.66710521  1
  Ni  Ni47  1  0.83229617  0.16756647  0.83328546  1
  Ni  Ni48  1  0.83513438  0.50250259  0.49950142  1
  Cr  Cr49  1  0.66877871  0.33390001  0.66522821  1
  Ni  Ni50  1  0.83206319  0.50089798  0.83328640  1
  Ni  Ni51  1  0.83780345  0.83147227  0.49750804  1
  Cr  Cr52  1  0.66707177  0.66634831  0.66593590  1
  Ni  Ni53  1  0.83249975  0.83049472  0.83332015  1
" 