7020,Ni59Cr41_16,-215.967758617597, 130.481101462999,Ni59Cr41,"# generated using pymatgen
 data_Cr31Ni23
_symmetry_space_group_name_H-M   'P 1'
_cell_length_a   7.53847702
_cell_length_b   7.53847702
_cell_length_c   10.66101644
_cell_angle_alpha   90.00000000
_cell_angle_beta   90.00000000
_cell_angle_gamma   90.00000000
_symmetry_Int_Tables_number   1
_chemical_formula_structural   Cr31Ni23
_chemical_formula_sum   'Cr31 Ni23'
_cell_volume   605.85102024
_cell_formula_units_Z   1
loop_
 _symmetry_equiv_pos_site_id
 _symmetry_equiv_pos_as_xyz
  1  'x, y, z'
loop_
 _atom_site_type_symbol
 _atom_site_label
 _atom_site_symmetry_multiplicity
 _atom_site_fract_x
 _atom_site_fract_y
 _atom_site_fract_z
 _atom_site_occupancy
  Ni  Ni0  1  0.99391646  0.99421961  0.99448478  1
  Cr  Cr1  1  0.16006902  0.16028451  0.16160681  1
  Ni  Ni2  1  -0.00468048  0.99503667  0.33023168  1
  Cr  Cr3  1  -0.00437282  0.32818978  -0.00372598  1
  Cr  Cr4  1  0.16363964  0.49484119  0.16237806  1
  Ni  Ni5  1  0.99348288  0.32635265  0.32776018  1
  Cr  Cr6  1  0.99200498  0.66269220  0.99298256  1
  Cr  Cr7  1  0.16258269  0.83071388  0.16431539  1
  Cr  Cr8  1  -0.00315450  0.66212499  0.33085719  1
  Cr  Cr9  1  0.32959565  -0.00252315  0.99326625  1
  Cr  Cr10  1  0.49707845  0.16248437  0.16262500  1
  Ni  Ni11  1  0.32864618  0.99379925  0.33060223  1
  Ni  Ni12  1  0.33186983  0.32749885  0.99398616  1
  Cr  Cr13  1  0.49657567  0.49576030  0.16115241  1
  Cr  Cr14  1  0.32919238  0.32858560  0.32984859  1
  Cr  Cr15  1  0.33056594  0.66172877  -0.00357494  1
  Cr  Cr16  1  0.49520223  0.82761267  0.16330269  1
  Ni  Ni17  1  0.32847673  0.66398978  0.33026636  1
  Cr  Cr18  1  0.66195750  0.99387345  0.99267739  1
  Cr  Cr19  1  0.82871014  0.16162438  0.16496080  1
  Ni  Ni20  1  0.66183146  -0.00265713  0.33035803  1
  Ni  Ni21  1  0.66012226  0.33038697  0.99326277  1
  Cr  Cr22  1  0.82567669  0.49288093  0.16134233  1
  Ni  Ni23  1  0.66148544  0.32627749  0.33060109  1
  Ni  Ni24  1  0.66308726  0.66098086  0.99207570  1
  Cr  Cr25  1  0.82788450  0.83108498  0.16169864  1
  Cr  Cr26  1  0.66081782  0.66245514  0.32999660  1
  Cr  Cr27  1  0.16251471  0.15810002  0.49640539  1
  Ni  Ni28  1  -0.00381983  0.99009981  0.66106764  1
  Cr  Cr29  1  0.16404412  0.16076853  0.82780705  1
  Cr  Cr30  1  0.16384360  0.49736987  0.49601923  1
  Cr  Cr31  1  0.99459220  0.33035375  0.66243173  1
  Cr  Cr32  1  0.16205434  0.49453138  0.82755845  1
  Ni  Ni33  1  0.16028830  0.83057729  0.49495570  1
  Ni  Ni34  1  0.99334943  0.66602319  0.66211217  1
  Cr  Cr35  1  0.16071832  0.83068811  0.82601207  1
  Ni  Ni36  1  0.49522560  0.16373041  0.49555953  1
  Ni  Ni37  1  0.32880791  -0.00243586  0.66198574  1
  Ni  Ni38  1  0.49461491  0.16323967  0.82735905  1
  Ni  Ni39  1  0.49527712  0.49150678  0.49472798  1
  Ni  Ni40  1  0.33347227  0.32521549  0.66151761  1
  Cr  Cr41  1  0.49741632  0.49344619  0.82955859  1
  Cr  Cr42  1  0.49321649  0.82984994  0.49256348  1
  Cr  Cr43  1  0.32794370  0.66274383  0.65956050  1
  Ni  Ni44  1  0.49739934  0.83016267  0.82946782  1
  Cr  Cr45  1  0.82686738  0.16041326  0.49218528  1
  Cr  Cr46  1  0.66039693  -0.00406292  0.66266877  1
  Cr  Cr47  1  0.82762320  0.16204464  0.82877195  1
  Cr  Cr48  1  0.82612419  0.49427534  0.49603873  1
  Ni  Ni49  1  0.65763979  0.32841544  0.66184355  1
  Ni  Ni50  1  0.82594000  0.49733907  0.82899300  1
  Ni  Ni51  1  0.83260787  0.83063562  0.49542825  1
  Cr  Cr52  1  0.66505799  0.66214208  0.66341550  1
  Ni  Ni53  1  0.82868640  0.82669404  0.82881306  1
" 