7083,Ni59Fe13Cr26_3,-229.752668183432, 167.505328283833,Ni59Fe13Cr26,"# generated using pymatgen
 data_Cr15Fe7Ni32
_symmetry_space_group_name_H-M   'P 1'
_cell_length_a   7.46295687
_cell_length_b   7.46295687
_cell_length_c   10.55421482
_cell_angle_alpha   90.00000000
_cell_angle_beta   90.00000000
_cell_angle_gamma   90.00000000
_symmetry_Int_Tables_number   1
_chemical_formula_structural   Cr15Fe7Ni32
_chemical_formula_sum   'Cr15 Fe7 Ni32'
_cell_volume   587.82464786
_cell_formula_units_Z   1
loop_
 _symmetry_equiv_pos_site_id
 _symmetry_equiv_pos_as_xyz
  1  'x, y, z'
loop_
 _atom_site_type_symbol
 _atom_site_label
 _atom_site_symmetry_multiplicity
 _atom_site_fract_x
 _atom_site_fract_y
 _atom_site_fract_z
 _atom_site_occupancy
  Ni  Ni0  1  0.99806347  0.00142166  0.00416274  1
  Ni  Ni1  1  0.16491575  0.16675715  0.17053841  1
  Ni  Ni2  1  0.00042295  0.00093281  0.33445156  1
  Cr  Cr3  1  0.00139314  0.33503058  0.00146642  1
  Fe  Fe4  1  0.16696266  0.49956508  0.17030020  1
  Ni  Ni5  1  0.00041731  0.33293107  0.33269781  1
  Cr  Cr6  1  0.99863482  0.66393694  0.00049176  1
  Cr  Cr7  1  0.16658904  0.83401831  0.16856322  1
  Ni  Ni8  1  0.99695683  0.66688813  0.33344339  1
  Cr  Cr9  1  0.33579374  0.00077380  0.99956174  1
  Cr  Cr10  1  0.50132305  0.16812954  0.16782492  1
  Ni  Ni11  1  0.33325301  0.00161587  0.33579226  1
  Cr  Cr12  1  0.33222325  0.33529502  0.99900518  1
  Ni  Ni13  1  0.50075324  0.50144734  0.17107488  1
  Ni  Ni14  1  0.33333001  0.33287425  0.33310493  1
  Cr  Cr15  1  0.33549651  0.66453858  0.00032988  1
  Ni  Ni16  1  0.50116240  0.83142756  0.16919510  1
  Fe  Fe17  1  0.33401043  0.66816983  0.33511477  1
  Ni  Ni18  1  0.66701541  0.99854543  0.00144525  1
  Ni  Ni19  1  0.83575129  0.16643732  0.16735743  1
  Cr  Cr20  1  0.66748392  0.99794964  0.33409223  1
  Cr  Cr21  1  0.66702371  0.33546029  0.00037398  1
  Ni  Ni22  1  0.83228126  0.49992731  0.17100818  1
  Fe  Fe23  1  0.66872047  0.33353163  0.33560680  1
  Cr  Cr24  1  0.66650093  0.66750438  0.00028125  1
  Ni  Ni25  1  0.83370967  0.83399634  0.16787040  1
  Ni  Ni26  1  0.66722319  0.66587359  0.33339535  1
  Fe  Fe27  1  0.16795327  0.16790574  0.49982704  1
  Ni  Ni28  1  0.99988505  0.00046114  0.66255660  1
  Cr  Cr29  1  0.16620662  0.16587134  0.83005635  1
  Cr  Cr30  1  0.16809181  0.50237054  0.50034118  1
  Ni  Ni31  1  0.99980233  0.33454498  0.66632917  1
  Ni  Ni32  1  0.16745516  0.50111573  0.83060545  1
  Ni  Ni33  1  0.16565472  0.83417711  0.50069072  1
  Ni  Ni34  1  0.99919364  0.66590344  0.66636142  1
  Cr  Cr35  1  0.16633894  0.83285140  0.83117019  1
  Ni  Ni36  1  0.50106897  0.16923508  0.50158771  1
  Ni  Ni37  1  0.33572884  0.00055699  0.66467009  1
  Ni  Ni38  1  0.50208304  0.16679179  0.83099418  1
  Ni  Ni39  1  0.50132456  0.49941096  0.49982478  1
  Ni  Ni40  1  0.33507709  0.33370102  0.66779260  1
  Ni  Ni41  1  0.50042778  0.50001620  0.82998981  1
  Fe  Fe42  1  0.49924938  0.83265857  0.50118431  1
  Ni  Ni43  1  0.33529845  0.66682365  0.66684469  1
  Ni  Ni44  1  0.50095376  0.83399080  0.83086257  1
  Ni  Ni45  1  0.83379332  0.16743150  0.50084029  1
  Ni  Ni46  1  0.66516575  1.00000672  0.66629700  1
  Cr  Cr47  1  0.83128581  0.16620851  0.83330818  1
  Fe  Fe48  1  0.83272674  0.49979923  0.50023456  1
  Ni  Ni49  1  0.66614729  0.33418277  0.66540929  1
  Ni  Ni50  1  0.83290914  0.49984781  0.82895189  1
  Fe  Fe51  1  0.83385752  0.83228170  0.50056953  1
  Ni  Ni52  1  0.66613928  0.66647735  0.66639923  1
  Cr  Cr53  1  0.83357006  0.83519826  0.83255089  1
" 