8417,Ni59Fe14Cr26_7,-229.0505745625, 168.30565401369,Ni59Fe14Cr26,"# generated using pymatgen
 data_Cr16Fe7Ni31
_symmetry_space_group_name_H-M   'P 1'
_cell_length_a   7.47101546
_cell_length_b   7.47101546
_cell_length_c   10.56561139
_cell_angle_alpha   90.00000000
_cell_angle_beta   90.00000000
_cell_angle_gamma   90.00000000
_symmetry_Int_Tables_number   1
_chemical_formula_structural   Cr16Fe7Ni31
_chemical_formula_sum   'Cr16 Fe7 Ni31'
_cell_volume   589.73092683
_cell_formula_units_Z   1
loop_
 _symmetry_equiv_pos_site_id
 _symmetry_equiv_pos_as_xyz
  1  'x, y, z'
loop_
 _atom_site_type_symbol
 _atom_site_label
 _atom_site_symmetry_multiplicity
 _atom_site_fract_x
 _atom_site_fract_y
 _atom_site_fract_z
 _atom_site_occupancy
  Ni  Ni0  1  0.99690069  0.00203278  0.00226823  1
  Ni  Ni1  1  0.16538878  0.16986471  0.16756329  1
  Ni  Ni2  1  0.99874136  -0.00013546  0.33396262  1
  Ni  Ni3  1  0.99680946  0.33321807  0.00030977  1
  Ni  Ni4  1  0.16448376  0.49681271  0.16698561  1
  Ni  Ni5  1  0.00078111  0.33405588  0.33297025  1
  Cr  Cr6  1  0.99831844  0.66359477  0.99973177  1
  Cr  Cr7  1  0.16556251  0.83253270  0.16791341  1
  Ni  Ni8  1  0.99813716  0.66527437  0.33417298  1
  Cr  Cr9  1  0.33493423  0.99965251  0.99928143  1
  Ni  Ni10  1  0.49970896  0.16728050  0.16531702  1
  Cr  Cr11  1  0.33213523  0.00315198  0.33601607  1
  Cr  Cr12  1  0.33472213  0.33510618  0.00012351  1
  Fe  Fe13  1  0.49919464  0.50005856  0.16864136  1
  Ni  Ni14  1  0.33206140  0.33495086  0.33361826  1
  Fe  Fe15  1  0.33393290  0.66394098  0.00089811  1
  Ni  Ni16  1  0.50161984  0.83243572  0.16567567  1
  Ni  Ni17  1  0.33275406  0.66315010  0.33123044  1
  Fe  Fe18  1  0.66827825  0.00243056  0.00043488  1
  Fe  Fe19  1  0.83547470  0.16724294  0.16560832  1
  Cr  Cr20  1  0.66977383  -0.00014031  0.33145771  1
  Ni  Ni21  1  0.66768859  0.33307982  -0.00002550  1
  Ni  Ni22  1  0.83452267  0.49885856  0.16762175  1
  Cr  Cr23  1  0.66709904  0.33451807  0.33285846  1
  Cr  Cr24  1  0.66594581  0.66387848  0.00117872  1
  Ni  Ni25  1  0.83191089  0.83175438  0.16744172  1
  Ni  Ni26  1  0.66850415  0.66534602  0.33300182  1
  Ni  Ni27  1  0.16378796  0.17028388  0.49734936  1
  Cr  Cr28  1  0.99788221  0.00012358  0.66250466  1
  Cr  Cr29  1  0.16274492  0.16852079  0.83324492  1
  Ni  Ni30  1  0.16448328  0.49925338  0.49845510  1
  Ni  Ni31  1  0.99627542  0.33600404  0.66632724  1
  Fe  Fe32  1  0.16313634  0.49799173  0.83271834  1
  Ni  Ni33  1  0.16360416  0.82972539  0.49747430  1
  Ni  Ni34  1  0.99830378  0.66299399  0.66476498  1
  Cr  Cr35  1  0.16648435  0.83190835  0.83427533  1
  Ni  Ni36  1  0.50177363  0.16962613  0.50111587  1
  Cr  Cr37  1  0.33446075  0.00098955  0.66357829  1
  Ni  Ni38  1  0.50419900  0.16644027  0.83250400  1
  Ni  Ni39  1  0.50066382  0.49869593  0.49840539  1
  Cr  Cr40  1  0.33372317  0.33336469  0.66425354  1
  Fe  Fe41  1  0.50385677  0.49826135  0.83208207  1
  Cr  Cr42  1  0.50245119  0.83079825  0.49952707  1
  Cr  Cr43  1  0.33122354  0.66478186  0.66833507  1
  Ni  Ni44  1  0.50165602  0.83295096  0.83396040  1
  Ni  Ni45  1  0.83363743  0.16860426  0.50065591  1
  Ni  Ni46  1  0.66702963  0.00231325  0.66793838  1
  Ni  Ni47  1  0.82994716  0.17072770  0.83536791  1
  Ni  Ni48  1  0.83393077  0.49977315  0.50062677  1
  Ni  Ni49  1  0.66815242  0.33264056  0.66668386  1
  Ni  Ni50  1  0.83283525  0.49640600  0.83098487  1
  Ni  Ni51  1  0.83412135  0.83068153  0.49960662  1
  Fe  Fe52  1  0.66818883  0.66416614  0.66525398  1
  Cr  Cr53  1  0.83172259  0.83368718  0.83140841  1
" 