5546,Ni59Fe14Cr26_1,-228.971475762929, 169.893160130616,Ni59Fe14Cr26,"# generated using pymatgen
 data_Cr16Fe7Ni31
_symmetry_space_group_name_H-M   'P 1'
_cell_length_a   7.47246570
_cell_length_b   7.47246570
_cell_length_c   10.56766234
_cell_angle_alpha   90.00000000
_cell_angle_beta   90.00000000
_cell_angle_gamma   90.00000000
_symmetry_Int_Tables_number   1
_chemical_formula_structural   Cr16Fe7Ni31
_chemical_formula_sum   'Cr16 Fe7 Ni31'
_cell_volume   590.07442061
_cell_formula_units_Z   1
loop_
 _symmetry_equiv_pos_site_id
 _symmetry_equiv_pos_as_xyz
  1  'x, y, z'
loop_
 _atom_site_type_symbol
 _atom_site_label
 _atom_site_symmetry_multiplicity
 _atom_site_fract_x
 _atom_site_fract_y
 _atom_site_fract_z
 _atom_site_occupancy
  Ni  Ni0  1  0.00042747  0.99929368  0.99852433  1
  Ni  Ni1  1  0.16561354  0.16609060  0.16577017  1
  Cr  Cr2  1  0.99669235  0.99722585  0.33306543  1
  Ni  Ni3  1  0.99860683  0.33299559  0.99848825  1
  Fe  Fe4  1  0.16482737  0.50057587  0.16659594  1
  Cr  Cr5  1  0.99587415  0.33588776  0.33335017  1
  Fe  Fe6  1  0.99756528  0.66635695  0.99900442  1
  Ni  Ni7  1  0.16264667  0.83240003  0.16646240  1
  Ni  Ni8  1  0.00075210  0.66628726  0.33001758  1
  Cr  Cr9  1  0.32730221  0.99948856  0.99806837  1
  Cr  Cr10  1  0.49988760  0.16913279  0.16849053  1
  Fe  Fe11  1  0.33392510  0.99814329  0.33325439  1
  Cr  Cr12  1  0.33226410  0.33445300  0.99822729  1
  Ni  Ni13  1  0.50194684  0.49869009  0.16686781  1
  Fe  Fe14  1  0.33542535  0.33548126  0.33318223  1
  Cr  Cr15  1  0.33180457  0.66504322  0.99907506  1
  Cr  Cr16  1  0.50133880  0.83132922  0.16748111  1
  Ni  Ni17  1  0.33280814  0.66532779  0.33195118  1
  Cr  Cr18  1  0.66998419  0.99908931  0.99764826  1
  Cr  Cr19  1  0.83267426  0.16778678  0.16449418  1
  Ni  Ni20  1  0.66577855  0.00070683  0.33659318  1
  Ni  Ni21  1  0.66869571  0.33808287  0.99839825  1
  Ni  Ni22  1  0.83253783  0.50161255  0.16363377  1
  Ni  Ni23  1  0.66476088  0.33336380  0.33421001  1
  Ni  Ni24  1  0.66933044  0.66176373  0.99920066  1
  Ni  Ni25  1  0.83682593  0.82914645  0.16523497  1
  Cr  Cr26  1  0.66831054  0.66493208  0.33520997  1
  Cr  Cr27  1  0.16644075  0.16825080  0.50152532  1
  Ni  Ni28  1  0.99518864  0.99923937  0.66846645  1
  Ni  Ni29  1  0.16272770  0.16843247  0.83201540  1
  Cr  Cr30  1  0.16614944  0.50059116  0.50123178  1
  Ni  Ni31  1  0.99913965  0.33345651  0.66782589  1
  Ni  Ni32  1  0.16439113  0.49863725  0.83096229  1
  Cr  Cr33  1  0.16540426  0.83020381  0.50113150  1
  Ni  Ni34  1  0.99874097  0.66630442  0.66789663  1
  Ni  Ni35  1  0.15993881  0.83172174  0.83213717  1
  Ni  Ni36  1  0.50226788  0.16672797  0.49708488  1
  Cr  Cr37  1  0.33442460  0.00002835  0.66850590  1
  Ni  Ni38  1  0.50056431  0.17042540  0.83249293  1
  Ni  Ni39  1  0.49978373  0.49948289  0.49996036  1
  Ni  Ni40  1  0.33374249  0.33600693  0.66785618  1
  Ni  Ni41  1  0.50047639  0.49797834  0.83230833  1
  Ni  Ni42  1  0.50215000  0.83272735  0.50010604  1
  Ni  Ni43  1  0.33353980  0.66319720  0.66750262  1
  Cr  Cr44  1  0.50305657  0.83034277  0.83105899  1
  Ni  Ni45  1  0.82991775  0.16571536  0.50127495  1
  Ni  Ni46  1  0.66949192  0.99929269  0.66431976  1
  Fe  Fe47  1  0.83515358  0.16621701  0.83241435  1
  Ni  Ni48  1  0.83249674  0.50080776  0.50099493  1
  Cr  Cr49  1  0.66648532  0.33239298  0.66564468  1
  Fe  Fe50  1  0.83484667  0.50038147  0.83386317  1
  Ni  Ni51  1  0.83125305  0.83252725  0.50138372  1
  Fe  Fe52  1  0.66781146  0.66672981  0.66544519  1
  Ni  Ni53  1  0.83623259  0.83191671  0.83251365  1
" 