7917,Ni59Cr41_12,-216.304390529949, 136.269357607505,Ni59Cr41,"# generated using pymatgen
 data_Cr31Ni23
_symmetry_space_group_name_H-M   'P 1'
_cell_length_a   7.53414976
_cell_length_b   7.53414976
_cell_length_c   10.65489677
_cell_angle_alpha   90.00000000
_cell_angle_beta   90.00000000
_cell_angle_gamma   90.00000000
_symmetry_Int_Tables_number   1
_chemical_formula_structural   Cr31Ni23
_chemical_formula_sum   'Cr31 Ni23'
_cell_volume   604.80830160
_cell_formula_units_Z   1
loop_
 _symmetry_equiv_pos_site_id
 _symmetry_equiv_pos_as_xyz
  1  'x, y, z'
loop_
 _atom_site_type_symbol
 _atom_site_label
 _atom_site_symmetry_multiplicity
 _atom_site_fract_x
 _atom_site_fract_y
 _atom_site_fract_z
 _atom_site_occupancy
  Cr  Cr0  1  -0.00432031  -0.00037764  -0.00189805  1
  Ni  Ni1  1  0.16149435  0.16736923  0.16158375  1
  Cr  Cr2  1  -0.00365455  -0.00167639  0.32877099  1
  Ni  Ni3  1  0.99383240  0.33164592  0.99515795  1
  Cr  Cr4  1  0.16055044  0.49335441  0.15884387  1
  Cr  Cr5  1  -0.00305336  0.32776542  0.32910794  1
  Ni  Ni6  1  0.99331027  0.65607557  0.99400722  1
  Cr  Cr7  1  0.16019617  0.82638838  0.16018729  1
  Cr  Cr8  1  0.99283938  0.65917856  0.32966011  1
  Cr  Cr9  1  0.32805298  0.99545820  -0.00444479  1
  Cr  Cr10  1  0.49616287  0.16586519  0.16131124  1
  Cr  Cr11  1  0.32487590  -0.00166353  0.32731781  1
  Ni  Ni12  1  0.32780069  0.33036942  0.99480758  1
  Cr  Cr13  1  0.49689143  0.49328724  0.16387826  1
  Ni  Ni14  1  0.32817511  0.32828987  0.33012803  1
  Cr  Cr15  1  0.32831834  0.65974243  0.99118174  1
  Cr  Cr16  1  0.49739901  0.82809312  0.16302051  1
  Cr  Cr17  1  0.33150529  0.65842755  0.32923143  1
  Cr  Cr18  1  0.66306579  -0.00194942  0.99221333  1
  Ni  Ni19  1  0.83097478  0.16675239  0.15930567  1
  Cr  Cr20  1  0.66487409  0.99521094  0.32940568  1
  Ni  Ni21  1  0.66519138  0.33100653  0.99407440  1
  Ni  Ni22  1  0.82886725  0.49266240  0.16030348  1
  Cr  Cr23  1  0.66392327  0.33316665  0.33033069  1
  Cr  Cr24  1  0.66118474  0.65801957  0.99286408  1
  Cr  Cr25  1  0.82891458  0.82507113  0.16314062  1
  Ni  Ni26  1  0.66469598  0.65895829  0.33178057  1
  Ni  Ni27  1  0.16417562  0.16503867  0.49775675  1
  Cr  Cr28  1  -0.00426622  -0.00147579  0.66015718  1
  Cr  Cr29  1  0.16192677  0.16712087  0.82670800  1
  Cr  Cr30  1  0.16284828  0.49309839  0.49916811  1
  Ni  Ni31  1  -0.00284340  0.33273612  0.66313285  1
  Ni  Ni32  1  0.16104985  0.49409775  0.82801452  1
  Cr  Cr33  1  0.16035466  0.82741687  0.49907479  1
  Ni  Ni34  1  0.99542643  0.65739801  0.66263583  1
  Cr  Cr35  1  0.16136859  0.82398784  0.82668800  1
  Cr  Cr36  1  0.49187283  0.16615482  0.49706104  1
  Ni  Ni37  1  0.32777712  0.99544061  0.66222046  1
  Cr  Cr38  1  0.49576422  0.16446564  0.82846298  1
  Ni  Ni39  1  0.49540663  0.49572959  0.49541648  1
  Ni  Ni40  1  0.32709035  0.33183971  0.66174153  1
  Ni  Ni41  1  0.49351754  0.49397428  0.82856801  1
  Cr  Cr42  1  0.49658456  0.82828219  0.49585417  1
  Ni  Ni43  1  0.32863460  0.65916483  0.66486571  1
  Ni  Ni44  1  0.49308894  0.82638144  0.82597381  1
  Cr  Cr45  1  0.83007182  0.16400963  0.49862745  1
  Cr  Cr46  1  0.66208750  0.99545711  0.66512857  1
  Ni  Ni47  1  0.83039088  0.16847746  0.83041491  1
  Ni  Ni48  1  0.82850390  0.49837379  0.49682312  1
  Cr  Cr49  1  0.66417709  0.33261710  0.66402171  1
  Ni  Ni50  1  0.83166831  0.49273254  0.82995983  1
  Ni  Ni51  1  0.82922548  0.82420430  0.49552888  1
  Cr  Cr52  1  0.66111226  0.65946695  0.66188413  1
  Cr  Cr53  1  0.83044432  0.82684506  0.82836697  1
" 