2068,Ni59Fe14Cr26_4,-228.890427213961, 176.338040223445,Ni59Fe14Cr26,"# generated using pymatgen
 data_Cr16Fe7Ni31
_symmetry_space_group_name_H-M   'P 1'
_cell_length_a   7.46400753
_cell_length_b   7.46400753
_cell_length_c   10.55570068
_cell_angle_alpha   90.00000000
_cell_angle_beta   90.00000000
_cell_angle_gamma   90.00000000
_symmetry_Int_Tables_number   1
_chemical_formula_structural   Cr16Fe7Ni31
_chemical_formula_sum   'Cr16 Fe7 Ni31'
_cell_volume   588.07295224
_cell_formula_units_Z   1
loop_
 _symmetry_equiv_pos_site_id
 _symmetry_equiv_pos_as_xyz
  1  'x, y, z'
loop_
 _atom_site_type_symbol
 _atom_site_label
 _atom_site_symmetry_multiplicity
 _atom_site_fract_x
 _atom_site_fract_y
 _atom_site_fract_z
 _atom_site_occupancy
  Ni  Ni0  1  0.99973232  0.99924080  0.99874850  1
  Cr  Cr1  1  0.16520008  0.16577035  0.16572037  1
  Ni  Ni2  1  0.99814130  0.00057403  0.33504591  1
  Cr  Cr3  1  0.00031318  0.33485635  0.99987708  1
  Ni  Ni4  1  0.16523878  0.50186579  0.16815500  1
  Ni  Ni5  1  0.99831424  0.33512821  0.33510100  1
  Ni  Ni6  1  0.99736239  0.66662929  0.00050304  1
  Cr  Cr7  1  0.16613235  0.83356811  0.16742760  1
  Ni  Ni8  1  0.00027122  0.66490891  0.33356396  1
  Ni  Ni9  1  0.33408366  0.00179293  0.99840047  1
  Cr  Cr10  1  0.50205883  0.16729141  0.16672285  1
  Ni  Ni11  1  0.33511090  0.99960940  0.33448830  1
  Ni  Ni12  1  0.33520537  0.33357850  0.99722057  1
  Ni  Ni13  1  0.50239368  0.50118525  0.16558523  1
  Cr  Cr14  1  0.33249818  0.33428727  0.33463456  1
  Cr  Cr15  1  0.33465172  0.66540784  0.00165400  1
  Ni  Ni16  1  0.50067494  0.83253300  0.16772285  1
  Fe  Fe17  1  0.33173892  0.66692247  0.33211604  1
  Cr  Cr18  1  0.66663168  0.99936053  0.99974873  1
  Ni  Ni19  1  0.83315719  0.16775308  0.16913877  1
  Ni  Ni20  1  0.66735853  0.00156533  0.33415962  1
  Ni  Ni21  1  0.66540525  0.33594840  0.00031840  1
  Ni  Ni22  1  0.83297702  0.49989535  0.16645582  1
  Ni  Ni23  1  0.66968455  0.33163937  0.33309840  1
  Ni  Ni24  1  0.66795843  0.66550580  0.99891121  1
  Fe  Fe25  1  0.83365614  0.83284128  0.16680554  1
  Cr  Cr26  1  0.66841197  0.66716370  0.33225703  1
  Ni  Ni27  1  0.16505432  0.16805459  0.50072281  1
  Ni  Ni28  1  0.99894157  0.00300290  0.66681684  1
  Ni  Ni29  1  0.16711149  0.16804987  0.83362437  1
  Ni  Ni30  1  0.16418647  0.49801668  0.50010696  1
  Ni  Ni31  1  0.00206817  0.33311499  0.66599137  1
  Ni  Ni32  1  0.16795002  0.49724365  0.83235062  1
  Cr  Cr33  1  0.16486908  0.83418402  0.49854125  1
  Cr  Cr34  1  0.99978755  0.66492002  0.66668633  1
  Cr  Cr35  1  0.16500991  0.83537646  0.83464369  1
  Ni  Ni36  1  0.50009582  0.16678821  0.49808131  1
  Cr  Cr37  1  0.33374452  0.00158737  0.66791329  1
  Ni  Ni38  1  0.49818451  0.16890960  0.83565810  1
  Cr  Cr39  1  0.50040082  0.49913483  0.50127412  1
  Fe  Fe40  1  0.33026389  0.33399805  0.66814169  1
  Ni  Ni41  1  0.50065034  0.49968350  0.83368987  1
  Cr  Cr42  1  0.50100868  0.83445420  0.49984961  1
  Ni  Ni43  1  0.33463159  0.66385981  0.66755742  1
  Ni  Ni44  1  0.50269452  0.83201715  0.83313506  1
  Fe  Fe45  1  0.83558979  0.16724594  0.49791477  1
  Cr  Cr46  1  0.66806162  0.99927527  0.66677033  1
  Fe  Fe47  1  0.83500976  0.16656240  0.83398539  1
  Ni  Ni48  1  0.83611310  0.49941701  0.49961430  1
  Cr  Cr49  1  0.66765034  0.33353601  0.66699386  1
  Fe  Fe50  1  0.83244238  0.50106952  0.83466841  1
  Ni  Ni51  1  0.83484768  0.83432476  0.49917502  1
  Fe  Fe52  1  0.66739382  0.66749392  0.66876086  1
  Ni  Ni53  1  0.83287247  0.83285358  0.83474853  1
" 