1415,Ni59Fe14Cr26_2,-229.130017578203, 172.64052186144,Ni59Fe14Cr26,"# generated using pymatgen
 data_Cr16Fe7Ni31
_symmetry_space_group_name_H-M   'P 1'
_cell_length_a   7.46855544
_cell_length_b   7.46855544
_cell_length_c   10.56213239
_cell_angle_alpha   90.00000000
_cell_angle_beta   90.00000000
_cell_angle_gamma   90.00000000
_symmetry_Int_Tables_number   1
_chemical_formula_structural   Cr16Fe7Ni31
_chemical_formula_sum   'Cr16 Fe7 Ni31'
_cell_volume   589.14856597
_cell_formula_units_Z   1
loop_
 _symmetry_equiv_pos_site_id
 _symmetry_equiv_pos_as_xyz
  1  'x, y, z'
loop_
 _atom_site_type_symbol
 _atom_site_label
 _atom_site_symmetry_multiplicity
 _atom_site_fract_x
 _atom_site_fract_y
 _atom_site_fract_z
 _atom_site_occupancy
  Ni  Ni0  1  0.99815547  0.00035695  0.99858284  1
  Ni  Ni1  1  0.17011543  0.16748622  0.16477278  1
  Cr  Cr2  1  0.00045468  0.99962628  0.33704308  1
  Ni  Ni3  1  0.00231489  0.33478561  0.99891663  1
  Fe  Fe4  1  0.16983172  0.49835000  0.16437029  1
  Cr  Cr5  1  0.00240879  0.33382584  0.33536086  1
  Ni  Ni6  1  0.00182541  0.66452796  0.99806921  1
  Cr  Cr7  1  0.16608003  0.83603569  0.16377000  1
  Cr  Cr8  1  0.00136579  0.66624341  0.33453990  1
  Ni  Ni9  1  0.33513268  0.00206030  0.00068760  1
  Ni  Ni10  1  0.49620924  0.16839558  0.16705205  1
  Ni  Ni11  1  0.33632830  0.00175480  0.33573666  1
  Fe  Fe12  1  0.33115404  0.33340974  0.00251783  1
  Ni  Ni13  1  0.49670148  0.49817508  0.16900033  1
  Ni  Ni14  1  0.33454989  0.33188468  0.33208614  1
  Ni  Ni15  1  0.32958828  0.66444794  0.00089854  1
  Cr  Cr16  1  0.50046029  0.83266477  0.16884576  1
  Ni  Ni17  1  0.33403006  0.66594868  0.33421696  1
  Ni  Ni18  1  0.66653343  0.00166230  0.99917474  1
  Cr  Cr19  1  0.83411376  0.16394345  0.16691802  1
  Ni  Ni20  1  0.66328701  0.00038725  0.33441974  1
  Cr  Cr21  1  0.66605637  0.33009452  0.99803372  1
  Cr  Cr22  1  0.83067126  0.50100194  0.16765226  1
  Ni  Ni23  1  0.66350112  0.33136539  0.33499292  1
  Cr  Cr24  1  0.66772022  0.66862364  0.99883272  1
  Ni  Ni25  1  0.83295491  0.83378000  0.16480838  1
  Ni  Ni26  1  0.66557351  0.66794441  0.33521772  1
  Ni  Ni27  1  0.16932140  0.16404379  0.50027492  1
  Fe  Fe28  1  0.99945111  0.99810314  0.66463915  1
  Cr  Cr29  1  0.16646737  0.16571195  0.83407140  1
  Fe  Fe30  1  0.16784459  0.50132287  0.50129403  1
  Cr  Cr31  1  0.99786775  0.33525839  0.66474913  1
  Ni  Ni32  1  0.16606825  0.50005598  0.83497321  1
  Ni  Ni33  1  0.16888916  0.83466080  0.50253892  1
  Ni  Ni34  1  0.00068543  0.66567071  0.66671755  1
  Cr  Cr35  1  0.16554147  0.83339802  0.83337664  1
  Ni  Ni36  1  0.49830283  0.16670002  0.49913387  1
  Ni  Ni37  1  0.33434001  0.99931920  0.66305556  1
  Fe  Fe38  1  0.50038434  0.16599772  0.83269331  1
  Cr  Cr39  1  0.50204990  0.50023264  0.49951122  1
  Fe  Fe40  1  0.33336961  0.33230989  0.66473453  1
  Cr  Cr41  1  0.49832594  0.49928682  0.83022136  1
  Ni  Ni42  1  0.49765991  0.83320599  0.49808086  1
  Ni  Ni43  1  0.32921034  0.66806870  0.66474715  1
  Cr  Cr44  1  0.49788347  0.83296294  0.83318442  1
  Ni  Ni45  1  0.83207941  0.16748086  0.49930022  1
  Cr  Cr46  1  0.66558356  0.00199924  0.66660900  1
  Ni  Ni47  1  0.83408977  0.16656718  0.83455160  1
  Ni  Ni48  1  0.83080378  0.50037943  0.50113878  1
  Ni  Ni49  1  0.66805908  0.33142830  0.66669381  1
  Ni  Ni50  1  0.83512323  0.49979174  0.83172760  1
  Ni  Ni51  1  0.83306038  0.83166076  0.50047141  1
  Fe  Fe52  1  0.66942004  0.66679697  0.66518833  1
  Ni  Ni53  1  0.83554877  0.83335248  0.83435332  1
" 