797,Ni59Fe13Cr26_7,-229.949460415306, 174.326667295711,Ni59Fe13Cr26,"# generated using pymatgen
 data_Cr15Fe7Ni32
_symmetry_space_group_name_H-M   'P 1'
_cell_length_a   7.46485322
_cell_length_b   7.46485322
_cell_length_c   10.55689666
_cell_angle_alpha   90.00000000
_cell_angle_beta   90.00000000
_cell_angle_gamma   90.00000000
_symmetry_Int_Tables_number   1
_chemical_formula_structural   Cr15Fe7Ni32
_chemical_formula_sum   'Cr15 Fe7 Ni32'
_cell_volume   588.27286414
_cell_formula_units_Z   1
loop_
 _symmetry_equiv_pos_site_id
 _symmetry_equiv_pos_as_xyz
  1  'x, y, z'
loop_
 _atom_site_type_symbol
 _atom_site_label
 _atom_site_symmetry_multiplicity
 _atom_site_fract_x
 _atom_site_fract_y
 _atom_site_fract_z
 _atom_site_occupancy
  Ni  Ni0  1  0.00154865  0.00108987  0.00104203  1
  Ni  Ni1  1  0.16539870  0.16559855  0.16588301  1
  Ni  Ni2  1  0.99860391  0.99996409  0.33432567  1
  Ni  Ni3  1  0.99621304  0.33331066  0.00085851  1
  Ni  Ni4  1  0.16732241  0.50153182  0.16561802  1
  Cr  Cr5  1  0.99934367  0.33192927  0.33307469  1
  Ni  Ni6  1  0.00146028  0.66603845  0.00029502  1
  Ni  Ni7  1  0.16708409  0.83330886  0.16524746  1
  Cr  Cr8  1  0.00157059  0.66829954  0.33494327  1
  Ni  Ni9  1  0.33237918  0.99846850  0.99892590  1
  Ni  Ni10  1  0.50163059  0.16708308  0.16540272  1
  Cr  Cr11  1  0.33069735  0.99890452  0.33189331  1
  Cr  Cr12  1  0.33515984  0.33284883  0.00194444  1
  Ni  Ni13  1  0.49999629  0.50033772  0.16712044  1
  Cr  Cr14  1  0.33390133  0.33637167  0.33241106  1
  Ni  Ni15  1  0.33252488  0.66860087  0.00052192  1
  Cr  Cr16  1  0.49936024  0.83331338  0.16651418  1
  Ni  Ni17  1  0.33324212  0.66525958  0.33378214  1
  Ni  Ni18  1  0.66651210  0.00372253  0.99871160  1
  Ni  Ni19  1  0.83341094  0.16684495  0.16542972  1
  Ni  Ni20  1  0.67045346  0.00079853  0.33477819  1
  Ni  Ni21  1  0.66907487  0.33346001  0.00026025  1
  Ni  Ni22  1  0.83312231  0.49865185  0.16402142  1
  Cr  Cr23  1  0.66719505  0.33420788  0.33205640  1
  Fe  Fe24  1  0.66664365  0.66404580  0.99935322  1
  Cr  Cr25  1  0.83442815  0.83499676  0.16718941  1
  Fe  Fe26  1  0.66625574  0.66619315  0.33467140  1
  Fe  Fe27  1  0.16463750  0.16672955  0.50137884  1
  Cr  Cr28  1  0.00095510  0.00044309  0.66526404  1
  Ni  Ni29  1  0.16770253  0.16462359  0.83284060  1
  Ni  Ni30  1  0.16761265  0.50183413  0.50256738  1
  Fe  Fe31  1  0.00046988  0.33374253  0.66643720  1
  Cr  Cr32  1  0.16584201  0.50108412  0.83251189  1
  Ni  Ni33  1  0.16558920  0.83154465  0.50059308  1
  Fe  Fe34  1  0.00168950  0.66649343  0.66527995  1
  Ni  Ni35  1  0.16935834  0.83432640  0.83460108  1
  Cr  Cr36  1  0.50080313  0.16626703  0.50126526  1
  Ni  Ni37  1  0.33256185  0.99937269  0.66886616  1
  Ni  Ni38  1  0.50054578  0.16494594  0.83331487  1
  Ni  Ni39  1  0.49772713  0.50167454  0.49938635  1
  Fe  Fe40  1  0.33317401  0.33323657  0.66693026  1
  Ni  Ni41  1  0.50077751  0.50026098  0.83393594  1
  Cr  Cr42  1  0.50074054  0.83296572  0.49976463  1
  Ni  Ni43  1  0.33179640  0.66677849  0.66613631  1
  Fe  Fe44  1  0.49756564  0.83502618  0.83392141  1
  Ni  Ni45  1  0.83441789  0.16451564  0.49977703  1
  Ni  Ni46  1  0.66620548  0.00188373  0.66695247  1
  Ni  Ni47  1  0.83219232  0.16773768  0.83523358  1
  Ni  Ni48  1  0.83510244  0.50094370  0.50123608  1
  Cr  Cr49  1  0.66791154  0.33324666  0.66794704  1
  Ni  Ni50  1  0.83309462  0.49860547  0.83518343  1
  Ni  Ni51  1  0.83457976  0.83498355  0.49864905  1
  Cr  Cr52  1  0.66671338  0.66571622  0.66655066  1
  Cr  Cr53  1  0.83363743  0.83377398  0.83513699  1
" 