277,Ni59Fe13Cr26_6,-229.759064345107, 165.596743435761,Ni59Fe13Cr26,"# generated using pymatgen
 data_Cr15Fe7Ni32
_symmetry_space_group_name_H-M   'P 1'
_cell_length_a   7.46872394
_cell_length_b   7.46872394
_cell_length_c   10.56237068
_cell_angle_alpha   90.00000000
_cell_angle_beta   90.00000000
_cell_angle_gamma   90.00000000
_symmetry_Int_Tables_number   1
_chemical_formula_structural   Cr15Fe7Ni32
_chemical_formula_sum   'Cr15 Fe7 Ni32'
_cell_volume   589.18844232
_cell_formula_units_Z   1
loop_
 _symmetry_equiv_pos_site_id
 _symmetry_equiv_pos_as_xyz
  1  'x, y, z'
loop_
 _atom_site_type_symbol
 _atom_site_label
 _atom_site_symmetry_multiplicity
 _atom_site_fract_x
 _atom_site_fract_y
 _atom_site_fract_z
 _atom_site_occupancy
  Cr  Cr0  1  0.99783097  0.99892083  0.99863877  1
  Cr  Cr1  1  0.16664607  0.16634648  0.16683510  1
  Ni  Ni2  1  0.99885546  0.99719170  0.33260157  1
  Ni  Ni3  1  0.99917190  0.33559966  0.99869355  1
  Ni  Ni4  1  0.16823701  0.50141626  0.16346278  1
  Cr  Cr5  1  0.00051292  0.33366113  0.33209798  1
  Ni  Ni6  1  0.00151479  0.66526255  0.99977776  1
  Ni  Ni7  1  0.16655245  0.83157614  0.16685757  1
  Cr  Cr8  1  0.00075878  0.66848974  0.33329328  1
  Cr  Cr9  1  0.33483752  0.99778375  -0.00005834  1
  Ni  Ni10  1  0.50220665  0.16583765  0.16634936  1
  Ni  Ni11  1  0.33442766  0.99714867  0.33258060  1
  Fe  Fe12  1  0.33281799  0.33533249  0.99973391  1
  Ni  Ni13  1  0.49936582  0.50046423  0.16432910  1
  Cr  Cr14  1  0.33401382  0.33507071  0.33234211  1
  Fe  Fe15  1  0.33246876  0.66511677  -0.00001533  1
  Ni  Ni16  1  0.50161631  0.83336438  0.16647451  1
  Cr  Cr17  1  0.33395621  0.66729782  0.33355207  1
  Ni  Ni18  1  0.66668441  0.00019077  0.00155712  1
  Ni  Ni19  1  0.83047591  0.16437495  0.16572744  1
  Ni  Ni20  1  0.66637618  0.99696384  0.33066367  1
  Ni  Ni21  1  0.66689016  0.33263920  0.00010379  1
  Cr  Cr22  1  0.83298748  0.50143097  0.16468809  1
  Cr  Cr23  1  0.66511069  0.33332134  0.33267882  1
  Fe  Fe24  1  0.66712570  0.66784344  0.99969507  1
  Ni  Ni25  1  0.83156954  0.83457964  0.16721576  1
  Ni  Ni26  1  0.66478694  0.67023934  0.33330855  1
  Cr  Cr27  1  0.16717974  0.16506617  0.50193192  1
  Fe  Fe28  1  0.00108602  0.99801771  0.66812918  1
  Ni  Ni29  1  0.16533430  0.16828117  0.83095595  1
  Ni  Ni30  1  0.16828955  0.50155152  0.50277430  1
  Ni  Ni31  1  0.00086640  0.33479504  0.66904025  1
  Ni  Ni32  1  0.16652124  0.50020800  0.83342629  1
  Ni  Ni33  1  0.16670011  0.83286789  0.50143333  1
  Ni  Ni34  1  0.00120954  0.66650490  0.66687984  1
  Ni  Ni35  1  0.16569115  0.83110132  0.83131401  1
  Cr  Cr36  1  0.49867966  0.16589388  0.49997011  1
  Ni  Ni37  1  0.33134282  0.99750261  0.66685949  1
  Cr  Cr38  1  0.49959142  0.16795339  0.83280898  1
  Ni  Ni39  1  0.49930213  0.50249334  0.50266013  1
  Ni  Ni40  1  0.33198597  0.33544740  0.66723366  1
  Fe  Fe41  1  0.49976686  0.50096704  0.83238706  1
  Ni  Ni42  1  0.50002946  0.83124319  0.50016129  1
  Ni  Ni43  1  0.33244241  0.66673407  0.66638731  1
  Fe  Fe44  1  0.49929239  0.83153007  0.83274477  1
  Cr  Cr45  1  0.83388408  0.16472390  0.50008660  1
  Cr  Cr46  1  0.66683175  0.99812964  0.66753501  1
  Ni  Ni47  1  0.83389544  0.16774078  0.83348095  1
  Cr  Cr48  1  0.83213166  0.50258389  0.50227145  1
  Ni  Ni49  1  0.66688749  0.33567900  0.66769841  1
  Fe  Fe50  1  0.83493837  0.49968441  0.83300383  1
  Ni  Ni51  1  0.83286182  0.83229845  0.49921184  1
  Ni  Ni52  1  0.66599160  0.66601815  0.66710698  1
  Ni  Ni53  1  0.83340847  0.83145858  0.83326233  1
" 