7112,Ni59Cr41_10,-216.20522015285, 136.405665675938,Ni59Cr41,"# generated using pymatgen
 data_Cr31Ni23
_symmetry_space_group_name_H-M   'P 1'
_cell_length_a   7.54216931
_cell_length_b   7.54216931
_cell_length_c   10.66623812
_cell_angle_alpha   90.00000000
_cell_angle_beta   90.00000000
_cell_angle_gamma   90.00000000
_symmetry_Int_Tables_number   1
_chemical_formula_structural   Cr31Ni23
_chemical_formula_sum   'Cr31 Ni23'
_cell_volume   606.74167938
_cell_formula_units_Z   1
loop_
 _symmetry_equiv_pos_site_id
 _symmetry_equiv_pos_as_xyz
  1  'x, y, z'
loop_
 _atom_site_type_symbol
 _atom_site_label
 _atom_site_symmetry_multiplicity
 _atom_site_fract_x
 _atom_site_fract_y
 _atom_site_fract_z
 _atom_site_occupancy
  Cr  Cr0  1  0.99481747  0.99359388  0.99498523  1
  Ni  Ni1  1  0.16545408  0.16060422  0.16316823  1
  Ni  Ni2  1  -0.00048534  0.99113148  0.32685532  1
  Cr  Cr3  1  -0.00002811  0.32696368  0.99437492  1
  Cr  Cr4  1  0.16424597  0.50048526  0.15711960  1
  Cr  Cr5  1  -0.00241455  0.33438897  0.33107536  1
  Ni  Ni6  1  -0.00433470  0.66525548  0.99480359  1
  Cr  Cr7  1  0.16147233  0.82675886  0.16525962  1
  Ni  Ni8  1  -0.00318282  0.66453141  0.33046396  1
  Cr  Cr9  1  0.32846947  -0.00408477  0.99413654  1
  Ni  Ni10  1  0.49035778  0.16162093  0.16364367  1
  Ni  Ni11  1  0.32587242  0.99220055  0.32904874  1
  Ni  Ni12  1  0.32847167  0.32616517  -0.00466741  1
  Cr  Cr13  1  0.49216971  0.49505570  0.16026673  1
  Cr  Cr14  1  0.32737599  0.33217613  0.32865978  1
  Ni  Ni15  1  0.32815214  0.66239928  0.99328061  1
  Cr  Cr16  1  0.48914939  0.82638082  0.16301416  1
  Ni  Ni17  1  0.32575463  0.66346684  0.33327197  1
  Cr  Cr18  1  0.66041406  0.99191576  0.99309442  1
  Cr  Cr19  1  0.82780746  0.16011960  0.16801136  1
  Cr  Cr20  1  0.65812544  0.98951211  0.32559167  1
  Cr  Cr21  1  0.65929255  0.32653561  -0.00263819  1
  Cr  Cr22  1  0.83021368  0.49747902  0.16178145  1
  Ni  Ni23  1  0.65910766  0.33111793  0.33016930  1
  Cr  Cr24  1  0.66346848  0.66650723  0.99487623  1
  Ni  Ni25  1  0.83228428  0.82701877  0.16243302  1
  Cr  Cr26  1  0.66112679  0.65978664  0.32983724  1
  Cr  Cr27  1  0.16128789  0.15425148  0.49335502  1
  Cr  Cr28  1  -0.00124644  0.99246784  0.66386690  1
  Ni  Ni29  1  0.16652613  0.16173878  0.82992735  1
  Ni  Ni30  1  0.16227727  0.50278162  0.49583871  1
  Cr  Cr31  1  -0.00068807  0.33303522  0.65904507  1
  Cr  Cr32  1  0.16341492  0.49764217  0.83109966  1
  Ni  Ni33  1  0.16428298  0.82219358  0.49266752  1
  Ni  Ni34  1  -0.00477291  0.66249783  0.65909297  1
  Cr  Cr35  1  0.16274443  0.82398205  0.82707728  1
  Cr  Cr36  1  0.49567370  0.15887270  0.49234920  1
  Cr  Cr37  1  0.32917654  0.99147149  0.66203217  1
  Ni  Ni38  1  0.49129897  0.16104412  0.83003879  1
  Ni  Ni39  1  0.49381212  0.50024950  0.49477432  1
  Cr  Cr40  1  0.32664728  0.33056372  0.66172607  1
  Cr  Cr41  1  0.49312485  0.49704463  0.82975199  1
  Ni  Ni42  1  0.49072250  0.82315087  0.49552091  1
  Ni  Ni43  1  0.32930842  0.66244995  0.65828704  1
  Ni  Ni44  1  0.49411934  0.82495885  0.82670062  1
  Cr  Cr45  1  0.82738987  0.16204368  0.49264246  1
  Cr  Cr46  1  0.65766350  0.98887896  0.66653529  1
  Cr  Cr47  1  0.82777121  0.16147728  0.82394046  1
  Ni  Ni48  1  0.82823251  0.50089365  0.49493376  1
  Cr  Cr49  1  0.65948100  0.33367684  0.65754989  1
  Cr  Cr50  1  0.82938566  0.49762454  0.82725928  1
  Cr  Cr51  1  0.83135454  0.83062093  0.49566973  1
  Ni  Ni52  1  0.66040339  0.66325262  0.66043136  1
  Ni  Ni53  1  0.82852443  0.82312248  0.82704304  1
" 