8578,Ni59Fe13Cr26_5,-230.028350183751, 173.622660205838,Ni59Fe13Cr26,"# generated using pymatgen
 data_Cr15Fe7Ni32
_symmetry_space_group_name_H-M   'P 1'
_cell_length_a   7.46875761
_cell_length_b   7.46875761
_cell_length_c   10.56241831
_cell_angle_alpha   90.00000000
_cell_angle_beta   90.00000000
_cell_angle_gamma   90.00000000
_symmetry_Int_Tables_number   1
_chemical_formula_structural   Cr15Fe7Ni32
_chemical_formula_sum   'Cr15 Fe7 Ni32'
_cell_volume   589.19641234
_cell_formula_units_Z   1
loop_
 _symmetry_equiv_pos_site_id
 _symmetry_equiv_pos_as_xyz
  1  'x, y, z'
loop_
 _atom_site_type_symbol
 _atom_site_label
 _atom_site_symmetry_multiplicity
 _atom_site_fract_x
 _atom_site_fract_y
 _atom_site_fract_z
 _atom_site_occupancy
  Cr  Cr0  1  0.99937123  0.99754123  0.00173714  1
  Ni  Ni1  1  0.16872779  0.16776621  0.16737531  1
  Ni  Ni2  1  0.99893971  0.00229798  0.33369308  1
  Ni  Ni3  1  0.99948661  0.33627257  0.00009685  1
  Ni  Ni4  1  0.16619175  0.49879580  0.16459614  1
  Ni  Ni5  1  0.00074949  0.32977241  0.33225734  1
  Ni  Ni6  1  0.99887081  0.66491128  -0.00010773  1
  Ni  Ni7  1  0.16776525  0.83283758  0.16599241  1
  Cr  Cr8  1  0.99713896  0.66770663  0.32896678  1
  Ni  Ni9  1  0.33497758  0.00046154  -0.00006971  1
  Ni  Ni10  1  0.49808414  0.16654678  0.16460807  1
  Ni  Ni11  1  0.33114166  0.00316011  0.33105160  1
  Ni  Ni12  1  0.33390740  0.33334088  0.00037323  1
  Cr  Cr13  1  0.50060701  0.49907164  0.16684602  1
  Ni  Ni14  1  0.33350062  0.33184455  0.33275209  1
  Ni  Ni15  1  0.33247392  0.66582779  0.99832180  1
  Cr  Cr16  1  0.49988076  0.83465390  0.16600373  1
  Ni  Ni17  1  0.33582144  0.66465457  0.33310238  1
  Ni  Ni18  1  0.66556739  -0.00008044  0.99789514  1
  Cr  Cr19  1  0.83194355  0.16872547  0.16527310  1
  Fe  Fe20  1  0.66849816  0.00001013  0.33137206  1
  Ni  Ni21  1  0.66641478  0.33371165  0.99825078  1
  Ni  Ni22  1  0.83429834  0.50049211  0.16418275  1
  Fe  Fe23  1  0.66715893  0.33366187  0.33164036  1
  Ni  Ni24  1  0.66904835  0.66616600  0.99918210  1
  Ni  Ni25  1  0.83242519  0.83188915  0.16615190  1
  Ni  Ni26  1  0.66714537  0.66594695  0.33326363  1
  Ni  Ni27  1  0.16486138  0.16784991  0.49766520  1
  Cr  Cr28  1  0.99836237  0.00013509  0.66549836  1
  Cr  Cr29  1  0.16453175  0.16888472  0.83624922  1
  Cr  Cr30  1  0.16635688  0.49837952  0.50002715  1
  Ni  Ni31  1  0.99726616  0.33297663  0.66734951  1
  Ni  Ni32  1  0.16476626  0.50163643  0.83479209  1
  Cr  Cr33  1  0.16536032  0.83367144  0.49876894  1
  Ni  Ni34  1  0.99520548  0.66602576  0.66979040  1
  Ni  Ni35  1  0.16703192  0.82959585  0.83540390  1
  Cr  Cr36  1  0.50181957  0.16708247  0.49768368  1
  Cr  Cr37  1  0.33458953  0.00075594  0.66945905  1
  Fe  Fe38  1  0.50179665  0.16709066  0.83715232  1
  Ni  Ni39  1  0.50271458  0.49919877  0.49858220  1
  Cr  Cr40  1  0.33448917  0.33357121  0.66708252  1
  Fe  Fe41  1  0.50188516  0.50073235  0.83562196  1
  Cr  Cr42  1  0.50184359  0.83161341  0.49731153  1
  Cr  Cr43  1  0.33551111  0.66501043  0.66787302  1
  Fe  Fe44  1  0.50195392  0.83162828  0.83624928  1
  Ni  Ni45  1  0.83308075  0.16634296  0.50029614  1
  Fe  Fe46  1  0.66847602  0.99920084  0.66877034  1
  Ni  Ni47  1  0.82889571  0.16829434  0.83276979  1
  Cr  Cr48  1  0.83236334  0.49906868  0.50077582  1
  Fe  Fe49  1  0.66816853  0.33448630  0.66873249  1
  Ni  Ni50  1  0.83297756  0.49962369  0.83395855  1
  Ni  Ni51  1  0.83013511  0.83503955  0.50028975  1
  Ni  Ni52  1  0.66830680  0.66613540  0.66763886  1
  Ni  Ni53  1  0.83093244  0.83180125  0.83321784  1
" 