5943,Ni59Fe13Cr26_2,-230.328131263606, 175.085585162322,Ni59Fe13Cr26,"# generated using pymatgen
 data_Cr15Fe7Ni32
_symmetry_space_group_name_H-M   'P 1'
_cell_length_a   7.46429917
_cell_length_b   7.46429917
_cell_length_c   10.55611312
_cell_angle_alpha   90.00000000
_cell_angle_beta   90.00000000
_cell_angle_gamma   90.00000000
_symmetry_Int_Tables_number   1
_chemical_formula_structural   Cr15Fe7Ni32
_chemical_formula_sum   'Cr15 Fe7 Ni32'
_cell_volume   588.14188804
_cell_formula_units_Z   1
loop_
 _symmetry_equiv_pos_site_id
 _symmetry_equiv_pos_as_xyz
  1  'x, y, z'
loop_
 _atom_site_type_symbol
 _atom_site_label
 _atom_site_symmetry_multiplicity
 _atom_site_fract_x
 _atom_site_fract_y
 _atom_site_fract_z
 _atom_site_occupancy
  Cr  Cr0  1  0.00198040  0.00142538  0.99787474  1
  Ni  Ni1  1  0.16782841  0.16861577  0.16688095  1
  Cr  Cr2  1  1.00013072  0.99889822  0.33488571  1
  Ni  Ni3  1  0.99953294  0.33459180  1.00000260  1
  Cr  Cr4  1  0.16740474  0.50012485  0.16632075  1
  Fe  Fe5  1  0.00111666  0.33667010  0.33386883  1
  Fe  Fe6  1  0.99869249  0.66432668  0.99697164  1
  Cr  Cr7  1  0.16973634  0.83233331  0.16463817  1
  Cr  Cr8  1  0.99949680  0.66666946  0.33592825  1
  Ni  Ni9  1  0.33433686  0.00128471  0.99884504  1
  Ni  Ni10  1  0.50063738  0.16816888  0.16582910  1
  Cr  Cr11  1  0.33375567  0.00178910  0.33422900  1
  Cr  Cr12  1  0.33503999  0.33230129  0.99921164  1
  Ni  Ni13  1  0.50176580  0.49936396  0.16665015  1
  Ni  Ni14  1  0.33697776  0.33490119  0.33326527  1
  Fe  Fe15  1  0.33616486  0.66567148  0.99745722  1
  Cr  Cr16  1  0.49963570  0.83195486  0.16537730  1
  Ni  Ni17  1  0.33453545  0.66345085  0.33520479  1
  Ni  Ni18  1  0.66470039  0.00067849  0.99883104  1
  Cr  Cr19  1  0.83207943  0.16955993  0.16811366  1
  Fe  Fe20  1  0.66380121  0.00073169  0.33505060  1
  Ni  Ni21  1  0.66681728  0.33568072  0.99990921  1
  Ni  Ni22  1  0.83171670  0.49808726  0.16514029  1
  Ni  Ni23  1  0.66342323  0.33530536  0.33281896  1
  Ni  Ni24  1  0.66708902  0.66415083  0.99909955  1
  Cr  Cr25  1  0.83115409  0.83220398  0.16431334  1
  Cr  Cr26  1  0.66602893  0.66371510  0.33594942  1
  Cr  Cr27  1  0.16839266  0.17057905  0.50144580  1
  Cr  Cr28  1  0.00164868  0.99788216  0.66791008  1
  Ni  Ni29  1  0.16634507  0.16716879  0.83269721  1
  Ni  Ni30  1  0.16824964  0.50146017  0.50188107  1
  Ni  Ni31  1  0.00021930  0.33662229  0.66778326  1
  Fe  Fe32  1  0.16671318  0.50020847  0.83142052  1
  Ni  Ni33  1  0.16964470  0.83028092  0.50207666  1
  Ni  Ni34  1  0.99965659  0.66543636  0.66703620  1
  Ni  Ni35  1  0.17045680  0.83245291  0.83342643  1
  Ni  Ni36  1  0.50030062  0.16893996  0.50125251  1
  Ni  Ni37  1  0.33376906  0.99977131  0.66785561  1
  Fe  Fe38  1  0.50054147  0.16721459  0.83325588  1
  Ni  Ni39  1  0.49921573  0.49963623  0.50104312  1
  Ni  Ni40  1  0.33504967  0.33448706  0.66728256  1
  Ni  Ni41  1  0.50223219  0.50269521  0.83243450  1
  Ni  Ni42  1  0.49832189  0.83198844  0.50115330  1
  Ni  Ni43  1  0.33410317  0.66643479  0.66620793  1
  Ni  Ni44  1  0.49822345  0.83181897  0.83434152  1
  Cr  Cr45  1  0.83130549  0.17092400  0.49959051  1
  Cr  Cr46  1  0.66485691  0.99897334  0.66706273  1
  Ni  Ni47  1  0.83332821  0.17090087  0.83454567  1
  Ni  Ni48  1  0.83309878  0.49943440  0.50198189  1
  Ni  Ni49  1  0.66537065  0.33682899  0.66798465  1
  Ni  Ni50  1  0.83263735  0.49838561  0.83363850  1
  Ni  Ni51  1  0.83219528  0.83136627  0.50224176  1
  Ni  Ni52  1  0.66676634  0.66449115  0.66611222  1
  Fe  Fe53  1  0.83171955  0.83090413  0.83361238  1
" 