4851,Ni59Fe14Cr26_13,-228.942623786164, 172.590707135223,Ni59Fe14Cr26,"# generated using pymatgen
 data_Cr16Fe7Ni31
_symmetry_space_group_name_H-M   'P 1'
_cell_length_a   7.46799124
_cell_length_b   7.46799124
_cell_length_c   10.56133449
_cell_angle_alpha   90.00000000
_cell_angle_beta   90.00000000
_cell_angle_gamma   90.00000000
_symmetry_Int_Tables_number   1
_chemical_formula_structural   Cr16Fe7Ni31
_chemical_formula_sum   'Cr16 Fe7 Ni31'
_cell_volume   589.01505751
_cell_formula_units_Z   1
loop_
 _symmetry_equiv_pos_site_id
 _symmetry_equiv_pos_as_xyz
  1  'x, y, z'
loop_
 _atom_site_type_symbol
 _atom_site_label
 _atom_site_symmetry_multiplicity
 _atom_site_fract_x
 _atom_site_fract_y
 _atom_site_fract_z
 _atom_site_occupancy
  Ni  Ni0  1  0.99969594  0.99975613  -0.00000606  1
  Fe  Fe1  1  0.16658630  0.16519705  0.16512031  1
  Ni  Ni2  1  0.00215366  0.00067482  0.33342528  1
  Ni  Ni3  1  0.00006207  0.33276522  0.00267142  1
  Ni  Ni4  1  0.16670625  0.49911939  0.16352336  1
  Cr  Cr5  1  0.99780574  0.33166887  0.32980970  1
  Ni  Ni6  1  0.00227635  0.66724779  0.00051908  1
  Ni  Ni7  1  0.16727533  0.83421142  0.16592670  1
  Cr  Cr8  1  0.00130116  0.66798401  0.33447807  1
  Ni  Ni9  1  0.33253960  0.99573206  0.00059663  1
  Cr  Cr10  1  0.49833744  0.16536112  0.16743077  1
  Ni  Ni11  1  0.33166424  0.99844911  0.33365837  1
  Ni  Ni12  1  0.33179458  0.33626270  0.00216031  1
  Ni  Ni13  1  0.49904145  0.49920937  0.16642479  1
  Fe  Fe14  1  0.33526005  0.33236184  0.33239704  1
  Ni  Ni15  1  0.33370199  0.66765675  0.00068680  1
  Ni  Ni16  1  0.49758259  0.83315640  0.16392016  1
  Cr  Cr17  1  0.33370542  0.66858654  0.33219882  1
  Ni  Ni18  1  0.66748467  0.99772066  0.99839303  1
  Fe  Fe19  1  0.83472318  0.16699765  0.16560752  1
  Cr  Cr20  1  0.66652017  0.00127185  0.33566518  1
  Cr  Cr21  1  0.66794346  0.33343316  0.99937090  1
  Ni  Ni22  1  0.83404127  0.49874240  0.16594239  1
  Ni  Ni23  1  0.66660714  0.33400314  0.33530263  1
  Fe  Fe24  1  0.66479087  0.66800787  0.99992858  1
  Cr  Cr25  1  0.83360425  0.83332998  0.16428064  1
  Cr  Cr26  1  0.66469875  0.66419859  0.33348410  1
  Cr  Cr27  1  0.16871853  0.16487181  0.50049172  1
  Ni  Ni28  1  0.00003986  0.99931541  0.66627669  1
  Cr  Cr29  1  0.16631531  0.16613751  0.83310543  1
  Cr  Cr30  1  0.16678372  0.50072177  0.50357546  1
  Ni  Ni31  1  0.99704652  0.33143182  0.66640130  1
  Cr  Cr32  1  0.16798800  0.50075727  0.83282739  1
  Ni  Ni33  1  0.16609967  0.83435583  0.50159654  1
  Fe  Fe34  1  0.00115574  0.66963406  0.66647377  1
  Ni  Ni35  1  0.16620412  0.83316583  0.83240225  1
  Ni  Ni36  1  0.50066247  0.16825880  0.50001314  1
  Ni  Ni37  1  0.33185078  0.99623114  0.66540815  1
  Cr  Cr38  1  0.49908354  0.16669000  0.83202729  1
  Fe  Fe39  1  0.50057797  0.49808037  0.50115851  1
  Ni  Ni40  1  0.33543425  0.33517556  0.66544546  1
  Ni  Ni41  1  0.49820439  0.50110635  0.83291372  1
  Ni  Ni42  1  0.49823953  0.83522527  0.50001495  1
  Ni  Ni43  1  0.33354015  0.66854384  0.66690986  1
  Ni  Ni44  1  0.49876663  0.83213327  0.83602505  1
  Ni  Ni45  1  0.83172883  0.16716931  0.50031872  1
  Cr  Cr46  1  0.66758564  0.00101244  0.66680473  1
  Ni  Ni47  1  0.83459250  0.16478779  0.83355045  1
  Fe  Fe48  1  0.83163917  0.49828823  0.50092422  1
  Ni  Ni49  1  0.66745391  0.33370631  0.66411681  1
  Cr  Cr50  1  0.83435133  0.50057092  0.83284547  1
  Ni  Ni51  1  0.83550315  0.83432280  0.50059174  1
  Cr  Cr52  1  0.66425338  0.66667805  0.66627947  1
  Ni  Ni53  1  0.83486535  0.83511073  0.83517357  1
" 