8937,Ni59Cr41_15,-216.05528542533, 134.087247837165,Ni59Cr41,"# generated using pymatgen
 data_Cr31Ni23
_symmetry_space_group_name_H-M   'P 1'
_cell_length_a   7.53774865
_cell_length_b   7.53774865
_cell_length_c   10.65998636
_cell_angle_alpha   90.00000000
_cell_angle_beta   90.00000000
_cell_angle_gamma   90.00000000
_symmetry_Int_Tables_number   1
_chemical_formula_structural   Cr31Ni23
_chemical_formula_sum   'Cr31 Ni23'
_cell_volume   605.67542363
_cell_formula_units_Z   1
loop_
 _symmetry_equiv_pos_site_id
 _symmetry_equiv_pos_as_xyz
  1  'x, y, z'
loop_
 _atom_site_type_symbol
 _atom_site_label
 _atom_site_symmetry_multiplicity
 _atom_site_fract_x
 _atom_site_fract_y
 _atom_site_fract_z
 _atom_site_occupancy
  Cr  Cr0  1  -0.00455130  0.99360281  0.99309437  1
  Cr  Cr1  1  0.16044889  0.16184032  0.16130499  1
  Cr  Cr2  1  0.99417244  0.98967090  0.32913162  1
  Ni  Ni3  1  0.99424008  0.33064700  0.99161818  1
  Cr  Cr4  1  0.16105274  0.49520141  0.16101710  1
  Cr  Cr5  1  0.99399557  0.33192169  0.32795580  1
  Cr  Cr6  1  0.99461427  0.66151606  -0.00445259  1
  Ni  Ni7  1  0.16152562  0.82739619  0.16087423  1
  Cr  Cr8  1  0.99328956  0.66437081  0.32902084  1
  Cr  Cr9  1  0.32711510  0.99485554  0.99409471  1
  Ni  Ni10  1  0.49698423  0.16180380  0.16386772  1
  Cr  Cr11  1  0.33031506  -0.00439206  0.32943766  1
  Cr  Cr12  1  0.33006525  0.32997787  -0.00299662  1
  Ni  Ni13  1  0.49821814  0.49773214  0.16112387  1
  Cr  Cr14  1  0.33314349  0.32848288  0.32734666  1
  Ni  Ni15  1  0.32779167  0.66132866  0.99498402  1
  Cr  Cr16  1  0.49653066  0.82696581  0.15942887  1
  Cr  Cr17  1  0.32787685  0.66182376  0.32814420  1
  Cr  Cr18  1  0.66320465  -0.00391353  -0.00371023  1
  Cr  Cr19  1  0.83004842  0.16164958  0.16166378  1
  Ni  Ni20  1  0.66175185  0.99333008  0.32864323  1
  Cr  Cr21  1  0.66282167  0.33032895  0.99505953  1
  Ni  Ni22  1  0.82576196  0.49801679  0.16066863  1
  Cr  Cr23  1  0.65907632  0.32927713  0.32754008  1
  Ni  Ni24  1  0.66271840  0.65928420  -0.00262932  1
  Ni  Ni25  1  0.82697555  0.82577110  0.16353555  1
  Ni  Ni26  1  0.66353388  0.66365016  0.32663425  1
  Cr  Cr27  1  0.16105504  0.16232777  0.49570049  1
  Cr  Cr28  1  -0.00370556  0.99332811  0.66337820  1
  Ni  Ni29  1  0.15915080  0.16335403  0.82765088  1
  Cr  Cr30  1  0.16145814  0.49525106  0.49680421  1
  Ni  Ni31  1  0.99390101  0.32921622  0.66678685  1
  Ni  Ni32  1  0.16050775  0.49528838  0.82857375  1
  Ni  Ni33  1  0.16279432  0.82899987  0.49746304  1
  Cr  Cr34  1  -0.00447280  0.66235173  0.66157782  1
  Ni  Ni35  1  0.16449358  0.82738068  0.82762532  1
  Ni  Ni36  1  0.49670460  0.16023380  0.49593828  1
  Ni  Ni37  1  0.32660805  0.99380611  0.66181435  1
  Cr  Cr38  1  0.49585921  0.16033740  0.82683367  1
  Cr  Cr39  1  0.49665029  0.49777948  0.49716495  1
  Cr  Cr40  1  0.33000442  0.32790458  0.66156628  1
  Cr  Cr41  1  0.49643585  0.49987468  0.82780474  1
  Cr  Cr42  1  0.49655738  0.82784512  0.49832168  1
  Ni  Ni43  1  0.32687581  0.66421970  0.66344140  1
  Cr  Cr44  1  0.49378015  0.82579150  0.82815377  1
  Cr  Cr45  1  0.82874846  0.16215620  0.49617974  1
  Cr  Cr46  1  0.66219759  -0.00277216  0.66148120  1
  Ni  Ni47  1  0.83228066  0.16669454  0.82757796  1
  Cr  Cr48  1  0.82780119  0.49581060  0.49698200  1
  Ni  Ni49  1  0.66431147  0.32984168  0.66285154  1
  Ni  Ni50  1  0.82962408  0.49317606  0.82776079  1
  Ni  Ni51  1  0.82649793  0.82774688  0.49365493  1
  Ni  Ni52  1  0.66305198  0.65997879  0.66201459  1
  Cr  Cr53  1  0.82485848  0.82668804  0.82924738  1
" 