1555,Ni59Fe13Cr26_16,-229.7718824316, 173.841942022866,Ni59Fe13Cr26,"# generated using pymatgen
 data_Cr15Fe7Ni32
_symmetry_space_group_name_H-M   'P 1'
_cell_length_a   7.46323374
_cell_length_b   7.46323374
_cell_length_c   10.55460637
_cell_angle_alpha   90.00000000
_cell_angle_beta   90.00000000
_cell_angle_gamma   90.00000000
_symmetry_Int_Tables_number   1
_chemical_formula_structural   Cr15Fe7Ni32
_chemical_formula_sum   'Cr15 Fe7 Ni32'
_cell_volume   587.89007416
_cell_formula_units_Z   1
loop_
 _symmetry_equiv_pos_site_id
 _symmetry_equiv_pos_as_xyz
  1  'x, y, z'
loop_
 _atom_site_type_symbol
 _atom_site_label
 _atom_site_symmetry_multiplicity
 _atom_site_fract_x
 _atom_site_fract_y
 _atom_site_fract_z
 _atom_site_occupancy
  Ni  Ni0  1  0.00077059  0.00057520  0.00038270  1
  Ni  Ni1  1  0.16652999  0.16634858  0.16627930  1
  Ni  Ni2  1  0.00276947  0.00209194  0.33264072  1
  Ni  Ni3  1  0.99852569  0.33225150  0.00087326  1
  Cr  Cr4  1  0.16750359  0.49971486  0.16474010  1
  Ni  Ni5  1  0.00056159  0.33290430  0.33351826  1
  Ni  Ni6  1  0.99756885  0.66800492  0.99901168  1
  Cr  Cr7  1  0.16654498  0.83387104  0.16757533  1
  Ni  Ni8  1  0.99723105  0.66562506  0.33477005  1
  Ni  Ni9  1  0.33280110  0.00275427  0.99812994  1
  Ni  Ni10  1  0.50065615  0.16907780  0.16633148  1
  Ni  Ni11  1  0.33195377  0.00454475  0.33659402  1
  Ni  Ni12  1  0.33595877  0.33100515  0.00083415  1
  Ni  Ni13  1  0.50205517  0.49720000  0.16643167  1
  Ni  Ni14  1  0.33424680  0.33052704  0.33370252  1
  Ni  Ni15  1  0.33521809  0.66713227  0.99785707  1
  Cr  Cr16  1  0.49809775  0.83402124  0.16632096  1
  Cr  Cr17  1  0.33571135  0.66519768  0.33667833  1
  Fe  Fe18  1  0.66701009  0.00264593  0.00049796  1
  Ni  Ni19  1  0.83374372  0.16870906  0.16600019  1
  Cr  Cr20  1  0.66616075  0.00101748  0.33154270  1
  Ni  Ni21  1  0.66669243  0.33411519  0.00048262  1
  Ni  Ni22  1  0.83350180  0.49798578  0.16827990  1
  Ni  Ni23  1  0.66610329  0.33607455  0.33336162  1
  Cr  Cr24  1  0.66847845  0.66470435  0.00129883  1
  Fe  Fe25  1  0.83508463  0.83336477  0.16754901  1
  Ni  Ni26  1  0.66841781  0.66341832  0.33357359  1
  Ni  Ni27  1  0.16661174  0.16827441  0.49806770  1
  Cr  Cr28  1  0.00281112  0.00053934  0.66734263  1
  Fe  Fe29  1  0.16763420  0.16810689  0.83596216  1
  Ni  Ni30  1  0.16475470  0.50019789  0.49984575  1
  Ni  Ni31  1  0.99997578  0.33597601  0.66596994  1
  Cr  Cr32  1  0.16575248  0.50182176  0.83667338  1
  Ni  Ni33  1  0.16636727  0.83239357  0.49871902  1
  Ni  Ni34  1  0.99912911  0.66505065  0.66692881  1
  Ni  Ni35  1  0.16620495  0.83325637  0.83526830  1
  Ni  Ni36  1  0.50108679  0.16782615  0.49964555  1
  Cr  Cr37  1  0.33398711  0.00147854  0.66551364  1
  Ni  Ni38  1  0.50223908  0.16655156  0.83480494  1
  Ni  Ni39  1  0.50122558  0.49834386  0.49862719  1
  Cr  Cr40  1  0.33285581  0.33246552  0.66624185  1
  Ni  Ni41  1  0.50159964  0.49778688  0.83585286  1
  Ni  Ni42  1  0.50002549  0.83452823  0.50038557  1
  Cr  Cr43  1  0.33332730  0.66703523  0.66630313  1
  Fe  Fe44  1  0.49996283  0.83442738  0.83484167  1
  Cr  Cr45  1  0.83202465  0.16946421  0.50119395  1
  Ni  Ni46  1  0.66468031  0.99996603  0.66865324  1
  Cr  Cr47  1  0.83197516  0.16837389  0.83296528  1
  Fe  Fe48  1  0.83447607  0.49960790  0.49918494  1
  Fe  Fe49  1  0.66573674  0.33411229  0.66735094  1
  Ni  Ni50  1  0.83397029  0.49911365  0.83240388  1
  Cr  Cr51  1  0.83412607  0.83370137  0.49901017  1
  Cr  Cr52  1  0.66691521  0.66597425  0.66690373  1
  Fe  Fe53  1  0.83444437  0.83254071  0.83387938  1
" 