4490,Ni59Fe14Cr26_15,-229.166355864621, 172.412446265066,Ni59Fe14Cr26,"# generated using pymatgen
 data_Cr16Fe7Ni31
_symmetry_space_group_name_H-M   'P 1'
_cell_length_a   7.47100682
_cell_length_b   7.47100682
_cell_length_c   10.56559917
_cell_angle_alpha   90.00000000
_cell_angle_beta   90.00000000
_cell_angle_gamma   90.00000000
_symmetry_Int_Tables_number   1
_chemical_formula_structural   Cr16Fe7Ni31
_chemical_formula_sum   'Cr16 Fe7 Ni31'
_cell_volume   589.72887969
_cell_formula_units_Z   1
loop_
 _symmetry_equiv_pos_site_id
 _symmetry_equiv_pos_as_xyz
  1  'x, y, z'
loop_
 _atom_site_type_symbol
 _atom_site_label
 _atom_site_symmetry_multiplicity
 _atom_site_fract_x
 _atom_site_fract_y
 _atom_site_fract_z
 _atom_site_occupancy
  Ni  Ni0  1  0.99924328  0.99846228  0.99896065  1
  Ni  Ni1  1  0.16377093  0.16489497  0.16771402  1
  Ni  Ni2  1  0.00020793  0.00002190  0.33272563  1
  Ni  Ni3  1  0.99958400  0.33388308  0.99784040  1
  Cr  Cr4  1  0.16499964  0.49974468  0.16487204  1
  Ni  Ni5  1  0.99640258  0.33335142  0.33468931  1
  Ni  Ni6  1  0.00063960  0.66701737  0.99834858  1
  Fe  Fe7  1  0.16645329  0.83541109  0.16669045  1
  Cr  Cr8  1  0.99805153  0.66602335  0.33323929  1
  Cr  Cr9  1  0.33432761  0.99911127  0.00022956  1
  Ni  Ni10  1  0.49947011  0.16320762  0.16656085  1
  Ni  Ni11  1  0.33291040  0.99684446  0.32956449  1
  Cr  Cr12  1  0.33135847  0.33091121  0.99831794  1
  Cr  Cr13  1  0.49994198  0.50240916  0.16823764  1
  Cr  Cr14  1  0.33316642  0.33268001  0.33362530  1
  Ni  Ni15  1  0.32953993  0.66966012  0.99859805  1
  Ni  Ni16  1  0.50041743  0.83295902  0.16724563  1
  Ni  Ni17  1  0.33472458  0.66906841  0.33452483  1
  Ni  Ni18  1  0.66709594  0.99890291  0.99787781  1
  Cr  Cr19  1  0.83600814  0.16466768  0.16646860  1
  Cr  Cr20  1  0.66616554  0.99880775  0.33435331  1
  Cr  Cr21  1  0.66853744  0.32968365  0.99940568  1
  Fe  Fe22  1  0.83365581  0.49955952  0.16748390  1
  Ni  Ni23  1  0.66906251  0.33520033  0.33406559  1
  Cr  Cr24  1  0.66937974  0.66929812  0.00028704  1
  Ni  Ni25  1  0.83343622  0.83380063  0.16519651  1
  Fe  Fe26  1  0.66635468  0.66638489  0.33481596  1
  Cr  Cr27  1  0.16148557  0.16745904  0.49880054  1
  Ni  Ni28  1  0.99797163  0.99923993  0.66730158  1
  Ni  Ni29  1  0.16179748  0.16884805  0.83280122  1
  Ni  Ni30  1  0.16680653  0.50013683  0.50198856  1
  Fe  Fe31  1  0.99798311  0.33478457  0.66709074  1
  Ni  Ni32  1  0.16438078  0.50056091  0.83228931  1
  Cr  Cr33  1  0.16594249  0.83236477  0.49939210  1
  Ni  Ni34  1  0.99913404  0.66507895  0.66767430  1
  Fe  Fe35  1  0.16452476  0.83223289  0.83256847  1
  Cr  Cr36  1  0.50146640  0.16807239  0.49990533  1
  Cr  Cr37  1  0.33275874  0.99893959  0.66885175  1
  Ni  Ni38  1  0.50126759  0.16566365  0.83329649  1
  Ni  Ni39  1  0.50041804  0.50342787  0.50033984  1
  Fe  Fe40  1  0.33200315  0.33563113  0.66741113  1
  Cr  Cr41  1  0.49741088  0.50247883  0.83065959  1
  Ni  Ni42  1  0.50101937  0.82684592  0.49855422  1
  Ni  Ni43  1  0.33223876  0.66449289  0.66599161  1
  Ni  Ni44  1  0.50170990  0.83171107  0.83337609  1
  Ni  Ni45  1  0.83543888  0.16771181  0.49982942  1
  Cr  Cr46  1  0.66848101  0.99941989  0.66790660  1
  Ni  Ni47  1  0.83601199  0.16414621  0.83320558  1
  Ni  Ni48  1  0.83198342  0.49901394  0.49997748  1
  Ni  Ni49  1  0.66838119  0.33463282  0.66601648  1
  Fe  Fe50  1  0.83539824  0.49941419  0.83077710  1
  Ni  Ni51  1  0.83245657  0.83255359  0.50100992  1
  Ni  Ni52  1  0.66780744  0.66458034  0.66371341  1
  Ni  Ni53  1  0.83450781  0.83428254  0.83302361  1
" 