3428,Ni59Cr41_14,-216.08748358719, 134.403218402283,Ni59Cr41,"# generated using pymatgen
 data_Cr31Ni23
_symmetry_space_group_name_H-M   'P 1'
_cell_length_a   7.53677707
_cell_length_b   7.53677707
_cell_length_c   10.65861235
_cell_angle_alpha   90.00000000
_cell_angle_beta   90.00000000
_cell_angle_gamma   90.00000000
_symmetry_Int_Tables_number   1
_chemical_formula_structural   Cr31Ni23
_chemical_formula_sum   'Cr31 Ni23'
_cell_volume   605.44124896
_cell_formula_units_Z   1
loop_
 _symmetry_equiv_pos_site_id
 _symmetry_equiv_pos_as_xyz
  1  'x, y, z'
loop_
 _atom_site_type_symbol
 _atom_site_label
 _atom_site_symmetry_multiplicity
 _atom_site_fract_x
 _atom_site_fract_y
 _atom_site_fract_z
 _atom_site_occupancy
  Ni  Ni0  1  -0.00182261  0.99343924  0.99521945  1
  Ni  Ni1  1  0.16375474  0.16512473  0.16161348  1
  Cr  Cr2  1  -0.00025622  -0.00455059  0.32581489  1
  Cr  Cr3  1  -0.00184605  0.32850072  -0.00420743  1
  Ni  Ni4  1  0.16318669  0.49436607  0.16135792  1
  Ni  Ni5  1  -0.00153546  0.33250570  0.32795481  1
  Ni  Ni6  1  -0.00247026  0.66372660  -0.00279156  1
  Ni  Ni7  1  0.16307931  0.82697428  0.15897374  1
  Cr  Cr8  1  -0.00391335  0.65918627  0.32915703  1
  Cr  Cr9  1  0.32733083  -0.00319738  -0.00124896  1
  Ni  Ni10  1  0.49139522  0.16512615  0.16250302  1
  Cr  Cr11  1  0.32904469  -0.00252227  0.32540006  1
  Ni  Ni12  1  0.32691665  0.32944531  -0.00144726  1
  Ni  Ni13  1  0.49268319  0.49519379  0.16195672  1
  Ni  Ni14  1  0.32794294  0.33004160  0.32754768  1
  Ni  Ni15  1  0.32657476  0.66066405  -0.00083638  1
  Ni  Ni16  1  0.49328843  0.82569588  0.16212297  1
  Cr  Cr17  1  0.32946440  0.66022346  0.32724458  1
  Cr  Cr18  1  0.66091905  0.99483148  -0.00396237  1
  Cr  Cr19  1  0.83072129  0.16416140  0.16276439  1
  Cr  Cr20  1  0.65750251  0.99430151  0.32735809  1
  Cr  Cr21  1  0.65836570  0.32964840  -0.00277323  1
  Ni  Ni22  1  0.83003889  0.49638544  0.16330929  1
  Cr  Cr23  1  0.65922466  0.33162921  0.32844379  1
  Cr  Cr24  1  0.66168628  0.66168133  -0.00228873  1
  Cr  Cr25  1  0.82954859  0.82736403  0.16209325  1
  Ni  Ni26  1  0.66056151  0.65846455  0.32772449  1
  Cr  Cr27  1  0.16356114  0.16354608  0.49371079  1
  Cr  Cr28  1  -0.00330222  0.99515537  0.66433857  1
  Ni  Ni29  1  0.16358098  0.16086977  0.83006501  1
  Ni  Ni30  1  0.16397765  0.49392716  0.49434730  1
  Cr  Cr31  1  -0.00395084  0.33032894  0.66078836  1
  Cr  Cr32  1  0.16502121  0.49582562  0.83058487  1
  Cr  Cr33  1  0.16447859  0.82733454  0.49675934  1
  Cr  Cr34  1  -0.00397035  0.66016371  0.66097015  1
  Cr  Cr35  1  0.16365964  0.82705524  0.82928310  1
  Ni  Ni36  1  0.49404732  0.16362229  0.49641606  1
  Ni  Ni37  1  0.33047194  -0.00406586  0.66189204  1
  Cr  Cr38  1  0.49306498  0.16257370  0.82776621  1
  Ni  Ni39  1  0.49382978  0.49456026  0.49453998  1
  Cr  Cr40  1  0.32804214  0.32895694  0.66107292  1
  Cr  Cr41  1  0.49130254  0.49676059  0.83081405  1
  Cr  Cr42  1  0.49484132  0.82869360  0.49685182  1
  Ni  Ni43  1  0.32894893  0.66131309  0.65987290  1
  Cr  Cr44  1  0.49421653  0.82714804  0.82658102  1
  Cr  Cr45  1  0.82778010  0.16265888  0.49359348  1
  Ni  Ni46  1  0.66011587  0.99508926  0.66211385  1
  Cr  Cr47  1  0.82937562  0.15990164  0.82896716  1
  Ni  Ni48  1  0.82843141  0.49494786  0.49260968  1
  Cr  Cr49  1  0.66182275  0.32944354  0.66105192  1
  Cr  Cr50  1  0.82969793  0.49712831  0.83105393  1
  Cr  Cr51  1  0.82709515  0.82886611  0.49436347  1
  Cr  Cr52  1  0.66284307  0.66039082  0.66107107  1
  Ni  Ni53  1  0.82982933  0.82959238  0.82971613  1
" 