7006,Ni59Fe13Cr26_4,-230.129791930361, 180.692880038267,Ni59Fe13Cr26,"# generated using pymatgen
 data_Cr15Fe7Ni32
_symmetry_space_group_name_H-M   'P 1'
_cell_length_a   7.45874727
_cell_length_b   7.45874727
_cell_length_c   10.54826155
_cell_angle_alpha   90.00000000
_cell_angle_beta   90.00000000
_cell_angle_gamma   90.00000000
_symmetry_Int_Tables_number   1
_chemical_formula_structural   Cr15Fe7Ni32
_chemical_formula_sum   'Cr15 Fe7 Ni32'
_cell_volume   586.83049498
_cell_formula_units_Z   1
loop_
 _symmetry_equiv_pos_site_id
 _symmetry_equiv_pos_as_xyz
  1  'x, y, z'
loop_
 _atom_site_type_symbol
 _atom_site_label
 _atom_site_symmetry_multiplicity
 _atom_site_fract_x
 _atom_site_fract_y
 _atom_site_fract_z
 _atom_site_occupancy
  Fe  Fe0  1  0.00143633  0.99838023  0.00310624  1
  Fe  Fe1  1  0.16588262  0.16613945  0.16685885  1
  Ni  Ni2  1  0.99910888  0.00147233  0.33281306  1
  Cr  Cr3  1  0.99828965  0.33503878  0.00228021  1
  Ni  Ni4  1  0.16540138  0.50072329  0.16789521  1
  Ni  Ni5  1  0.99941573  0.33197486  0.33407981  1
  Ni  Ni6  1  0.99834048  0.66727086  0.00136846  1
  Ni  Ni7  1  0.16569064  0.83442005  0.16467056  1
  Cr  Cr8  1  0.00129530  0.66757860  0.33404642  1
  Ni  Ni9  1  0.33416675  0.00059325  0.00197976  1
  Ni  Ni10  1  0.50173169  0.16613695  0.16640636  1
  Cr  Cr11  1  0.33346000  1.00041425  0.33326268  1
  Ni  Ni12  1  0.33414152  0.33200853  0.00251290  1
  Cr  Cr13  1  0.50198653  0.50045073  0.16780517  1
  Cr  Cr14  1  0.33166624  0.33290983  0.33435330  1
  Cr  Cr15  1  0.33542680  0.66809786  0.00094053  1
  Ni  Ni16  1  0.50149918  0.83566575  0.16815642  1
  Fe  Fe17  1  0.33245155  0.66844498  0.33345505  1
  Cr  Cr18  1  0.66643971  0.99953273  0.00120215  1
  Ni  Ni19  1  0.83367280  0.16651275  0.16814754  1
  Ni  Ni20  1  0.66898017  0.00153792  0.33447224  1
  Fe  Fe21  1  0.66618664  0.33572923  0.00064231  1
  Ni  Ni22  1  0.83468514  0.50069972  0.16673364  1
  Ni  Ni23  1  0.66938586  0.33092294  0.33166116  1
  Ni  Ni24  1  0.66943987  0.66732104  0.00090007  1
  Ni  Ni25  1  0.83432353  0.83456981  0.16789084  1
  Ni  Ni26  1  0.66891222  0.66962594  0.33067433  1
  Ni  Ni27  1  0.16603361  0.16763015  0.50065652  1
  Cr  Cr28  1  0.00056160  0.00112974  0.66588139  1
  Cr  Cr29  1  0.16687257  0.16542886  0.83548771  1
  Ni  Ni30  1  0.16664277  0.49996699  0.50287543  1
  Ni  Ni31  1  0.99901579  0.33434179  0.66541102  1
  Cr  Cr32  1  0.16684565  0.49993712  0.83091179  1
  Ni  Ni33  1  0.16612534  0.83383294  0.50285175  1
  Ni  Ni34  1  0.99991100  0.66680455  0.66676307  1
  Fe  Fe35  1  0.16954094  0.83276871  0.83370442  1
  Ni  Ni36  1  0.50208975  0.16713146  0.50249117  1
  Ni  Ni37  1  0.33429195  0.99985775  0.66697535  1
  Cr  Cr38  1  0.49880418  0.16794085  0.83276566  1
  Cr  Cr39  1  0.50077185  0.50011605  0.50047058  1
  Ni  Ni40  1  0.33437445  0.33315497  0.66536415  1
  Ni  Ni41  1  0.50244191  0.50131584  0.83357663  1
  Cr  Cr42  1  0.50304752  0.83377584  0.50031909  1
  Ni  Ni43  1  0.33431223  0.66835186  0.66723778  1
  Ni  Ni44  1  0.50062893  0.83334260  0.83242337  1
  Ni  Ni45  1  0.83332904  0.16652761  0.50041494  1
  Fe  Fe46  1  0.66676899  0.00084166  0.66603949  1
  Fe  Fe47  1  0.83280350  0.17006559  0.83297178  1
  Cr  Cr48  1  0.83346634  0.50069162  0.50032081  1
  Ni  Ni49  1  0.66818272  0.33421106  0.66920633  1
  Ni  Ni50  1  0.83246383  0.50132350  0.83383450  1
  Ni  Ni51  1  0.83442038  0.83578077  0.49973412  1
  Ni  Ni52  1  0.66739539  0.66690062  0.66935271  1
  Cr  Cr53  1  0.83548706  0.83270330  0.83368966  1
" 