4504,Ni59Cr41_1,-216.133113742797, 138.069607034724,Ni59Cr41,"# generated using pymatgen
 data_Cr31Ni23
_symmetry_space_group_name_H-M   'P 1'
_cell_length_a   7.53681112
_cell_length_b   7.53681112
_cell_length_c   10.65866050
_cell_angle_alpha   90.00000000
_cell_angle_beta   90.00000000
_cell_angle_gamma   90.00000000
_symmetry_Int_Tables_number   1
_chemical_formula_structural   Cr31Ni23
_chemical_formula_sum   'Cr31 Ni23'
_cell_volume   605.44945503
_cell_formula_units_Z   1
loop_
 _symmetry_equiv_pos_site_id
 _symmetry_equiv_pos_as_xyz
  1  'x, y, z'
loop_
 _atom_site_type_symbol
 _atom_site_label
 _atom_site_symmetry_multiplicity
 _atom_site_fract_x
 _atom_site_fract_y
 _atom_site_fract_z
 _atom_site_occupancy
  Ni  Ni0  1  0.99392177  -0.00342939  -0.00207855  1
  Ni  Ni1  1  0.15728332  0.16047011  0.16142593  1
  Ni  Ni2  1  0.99418591  -0.00373887  0.32768800  1
  Ni  Ni3  1  0.99431725  0.32590428  -0.00163566  1
  Cr  Cr4  1  0.16319057  0.49672880  0.16066144  1
  Cr  Cr5  1  0.99440650  0.32637770  0.32605407  1
  Cr  Cr6  1  0.99377114  0.66208898  -0.00376149  1
  Cr  Cr7  1  0.16327100  0.82941368  0.16147638  1
  Cr  Cr8  1  0.99188052  0.66419819  0.32780527  1
  Cr  Cr9  1  0.32911394  -0.00418414  0.99121545  1
  Cr  Cr10  1  0.49778774  0.16080519  0.16203473  1
  Cr  Cr11  1  0.32600235  -0.00358127  0.33199052  1
  Cr  Cr12  1  0.32796230  0.32915474  0.99381022  1
  Cr  Cr13  1  0.49464923  0.49684830  0.16430082  1
  Cr  Cr14  1  0.32823635  0.32865717  0.33007999  1
  Ni  Ni15  1  0.32987998  0.66310409  0.99207465  1
  Cr  Cr16  1  0.49445538  0.82853994  0.16155910  1
  Ni  Ni17  1  0.33086075  0.66203704  0.33087244  1
  Ni  Ni18  1  0.66432224  0.99521341  0.99510723  1
  Ni  Ni19  1  0.83107137  0.16070263  0.16091185  1
  Cr  Cr20  1  0.66636107  0.99365716  0.32830574  1
  Cr  Cr21  1  0.66327848  0.32889181  -0.00388486  1
  Ni  Ni22  1  0.82885892  0.49292299  0.16200102  1
  Ni  Ni23  1  0.66354164  0.32984849  0.32790794  1
  Cr  Cr24  1  0.66222158  0.66298141  -0.00457659  1
  Ni  Ni25  1  0.83007554  0.83249707  0.16129911  1
  Cr  Cr26  1  0.66378620  0.66126537  0.32971082  1
  Ni  Ni27  1  0.15946528  0.16201980  0.49500264  1
  Cr  Cr28  1  -0.00307494  0.99377930  0.65973281  1
  Cr  Cr29  1  0.15840475  0.16173518  0.82864298  1
  Cr  Cr30  1  0.16223059  0.49573779  0.49644228  1
  Ni  Ni31  1  0.99487644  0.32932784  0.66123011  1
  Cr  Cr32  1  0.16019500  0.49744770  0.82901086  1
  Cr  Cr33  1  0.16126935  0.82792083  0.49426151  1
  Ni  Ni34  1  0.99328213  0.66250899  0.66206645  1
  Ni  Ni35  1  0.16293083  0.82782746  0.82988115  1
  Cr  Cr36  1  0.49785412  0.16368329  0.49526664  1
  Cr  Cr37  1  0.32946959  -0.00440590  0.66284611  1
  Ni  Ni38  1  0.49771713  0.16200230  0.82861145  1
  Ni  Ni39  1  0.49745222  0.49728645  0.49533700  1
  Cr  Cr40  1  0.32957246  0.32749443  0.66213197  1
  Ni  Ni41  1  0.49629334  0.49670890  0.82733582  1
  Ni  Ni42  1  0.49712578  0.82491078  0.49547923  1
  Cr  Cr43  1  0.33080855  0.66329745  0.66362606  1
  Ni  Ni44  1  0.49518481  0.82762291  0.82978802  1
  Cr  Cr45  1  0.82895187  0.16248510  0.49665330  1
  Cr  Cr46  1  0.65948935  0.99220994  0.66290666  1
  Cr  Cr47  1  0.82745004  0.16291095  0.82891772  1
  Cr  Cr48  1  0.82702520  0.49456922  0.49980676  1
  Ni  Ni49  1  0.66007530  0.33162436  0.66296843  1
  Cr  Cr50  1  0.82887349  0.49352090  0.82455236  1
  Ni  Ni51  1  0.82767608  0.82789670  0.49633936  1
  Ni  Ni52  1  0.66115826  0.66115286  0.66099449  1
  Cr  Cr53  1  0.82962795  0.82942758  0.82789025  1
" 