4672,Ni59Fe13Cr26_13,-229.953872755154, 173.945297538001,Ni59Fe13Cr26,"# generated using pymatgen
 data_Cr15Fe7Ni32
_symmetry_space_group_name_H-M   'P 1'
_cell_length_a   7.46234613
_cell_length_b   7.46234613
_cell_length_c   10.55335111
_cell_angle_alpha   90.00000000
_cell_angle_beta   90.00000000
_cell_angle_gamma   90.00000000
_symmetry_Int_Tables_number   1
_chemical_formula_structural   Cr15Fe7Ni32
_chemical_formula_sum   'Cr15 Fe7 Ni32'
_cell_volume   587.68034564
_cell_formula_units_Z   1
loop_
 _symmetry_equiv_pos_site_id
 _symmetry_equiv_pos_as_xyz
  1  'x, y, z'
loop_
 _atom_site_type_symbol
 _atom_site_label
 _atom_site_symmetry_multiplicity
 _atom_site_fract_x
 _atom_site_fract_y
 _atom_site_fract_z
 _atom_site_occupancy
  Cr  Cr0  1  0.99802348  0.00153356  0.00085984  1
  Cr  Cr1  1  0.16627900  0.16982758  0.16519297  1
  Cr  Cr2  1  0.99969824  0.99974942  0.33432832  1
  Ni  Ni3  1  0.00165947  0.33420494  0.99883238  1
  Ni  Ni4  1  0.16839222  0.50028312  0.16601590  1
  Ni  Ni5  1  0.99899874  0.33499934  0.33539000  1
  Cr  Cr6  1  0.99929823  0.66536276  1.00010013  1
  Cr  Cr7  1  0.16878138  0.83075947  0.16945918  1
  Fe  Fe8  1  0.99940727  0.66557830  0.33579335  1
  Cr  Cr9  1  0.33594377  0.00095596  0.00065700  1
  Ni  Ni10  1  0.50437206  0.16644471  0.16634427  1
  Ni  Ni11  1  0.33532411  0.99976966  0.33442743  1
  Ni  Ni12  1  0.33281334  0.33592773  0.00059566  1
  Ni  Ni13  1  0.49992623  0.50126157  0.16558663  1
  Cr  Cr14  1  0.33510960  0.33389419  0.33457762  1
  Ni  Ni15  1  0.33641491  0.66398733  0.00141433  1
  Ni  Ni16  1  0.50302649  0.83323836  0.16678727  1
  Fe  Fe17  1  0.33444884  0.66669833  0.33348952  1
  Ni  Ni18  1  0.66689131  0.99872962  0.00191780  1
  Ni  Ni19  1  0.82999633  0.16695058  0.16705151  1
  Ni  Ni20  1  0.66634775  0.00039487  0.33261172  1
  Ni  Ni21  1  0.66647139  0.33379186  0.00319252  1
  Cr  Cr22  1  0.83309809  0.49849873  0.16713457  1
  Ni  Ni23  1  0.66742352  0.33363139  0.33407774  1
  Ni  Ni24  1  0.66516742  0.66842111  0.99960978  1
  Ni  Ni25  1  0.82901686  0.83505305  0.16663899  1
  Ni  Ni26  1  0.66737024  0.66691828  0.33352983  1
  Ni  Ni27  1  0.16633357  0.16773459  0.50235922  1
  Ni  Ni28  1  1.00005740  0.99914953  0.66553310  1
  Ni  Ni29  1  0.16499115  0.17103140  0.83305765  1
  Ni  Ni30  1  0.16547693  0.50055543  0.50156232  1
  Fe  Fe31  1  0.00379284  0.33534431  0.66625962  1
  Ni  Ni32  1  0.16617139  0.49813694  0.83336593  1
  Ni  Ni33  1  0.16482479  0.83265488  0.50031497  1
  Ni  Ni34  1  0.99911056  0.66773909  0.66564637  1
  Cr  Cr35  1  0.16784440  0.83207190  0.83207633  1
  Ni  Ni36  1  0.50078992  0.16794082  0.49962800  1
  Cr  Cr37  1  0.33173283  0.00210082  0.66625877  1
  Cr  Cr38  1  0.49973787  0.16599311  0.83492540  1
  Ni  Ni39  1  0.50092834  0.49962826  0.50070216  1
  Ni  Ni40  1  0.33092145  0.33463246  0.66580675  1
  Cr  Cr41  1  0.49917448  0.50323292  0.83460564  1
  Cr  Cr42  1  0.50076351  0.83316953  0.50003508  1
  Ni  Ni43  1  0.33259553  0.66463593  0.66615843  1
  Ni  Ni44  1  0.50354913  0.83151067  0.83425834  1
  Fe  Fe45  1  0.83401044  0.16735511  0.49939778  1
  Fe  Fe46  1  0.66863947  0.99708959  0.66630320  1
  Cr  Cr47  1  0.83540363  0.16711155  0.83436445  1
  Ni  Ni48  1  0.83454035  0.50113679  0.50005849  1
  Cr  Cr49  1  0.66580556  0.33576800  0.66316828  1
  Fe  Fe50  1  0.83513604  0.50176267  0.83357569  1
  Ni  Ni51  1  0.83474817  0.83251804  0.50212199  1
  Ni  Ni52  1  0.66924210  0.66788987  0.66780673  1
  Fe  Fe53  1  0.83098858  0.83225069  0.83204377  1
" 