920,Ni59Fe13Cr26_12,-229.777938136152, 170.982770961816,Ni59Fe13Cr26,"# generated using pymatgen
 data_Cr15Fe7Ni32
_symmetry_space_group_name_H-M   'P 1'
_cell_length_a   7.46540325
_cell_length_b   7.46540325
_cell_length_c   10.55767452
_cell_angle_alpha   90.00000000
_cell_angle_beta   90.00000000
_cell_angle_gamma   90.00000000
_symmetry_Int_Tables_number   1
_chemical_formula_structural   Cr15Fe7Ni32
_chemical_formula_sum   'Cr15 Fe7 Ni32'
_cell_volume   588.40290966
_cell_formula_units_Z   1
loop_
 _symmetry_equiv_pos_site_id
 _symmetry_equiv_pos_as_xyz
  1  'x, y, z'
loop_
 _atom_site_type_symbol
 _atom_site_label
 _atom_site_symmetry_multiplicity
 _atom_site_fract_x
 _atom_site_fract_y
 _atom_site_fract_z
 _atom_site_occupancy
  Ni  Ni0  1  0.00190611  0.00117329  0.00098722  1
  Ni  Ni1  1  0.16420766  0.16953703  0.16590905  1
  Ni  Ni2  1  0.99928780  0.00413120  0.33388281  1
  Ni  Ni3  1  0.00377512  0.33227469  0.99889346  1
  Ni  Ni4  1  0.16692727  0.49528626  0.16533220  1
  Ni  Ni5  1  1.00006182  0.33066647  0.33613801  1
  Ni  Ni6  1  0.00361867  0.66736774  0.99823146  1
  Cr  Cr7  1  0.16525415  0.83611279  0.16384807  1
  Cr  Cr8  1  0.00092433  0.66681711  0.33609746  1
  Ni  Ni9  1  0.33048474  0.00220763  0.99533215  1
  Cr  Cr10  1  0.49597835  0.16924556  0.16592680  1
  Cr  Cr11  1  0.33065059  0.00223256  0.33726883  1
  Ni  Ni12  1  0.33297486  0.33449279  1.00008857  1
  Ni  Ni13  1  0.49894353  0.49696056  0.16769304  1
  Fe  Fe14  1  0.33085879  0.33280357  0.33396881  1
  Ni  Ni15  1  0.33142133  0.66350555  0.99772920  1
  Cr  Cr16  1  0.49978367  0.83133774  0.16630964  1
  Cr  Cr17  1  0.33338500  0.66329248  0.33421709  1
  Cr  Cr18  1  0.66713632  0.00220290  0.99832620  1
  Fe  Fe19  1  0.83659499  0.16875324  0.16593737  1
  Cr  Cr20  1  0.66950508  0.00152532  0.33445866  1
  Ni  Ni21  1  0.66400111  0.33323297  0.99952909  1
  Cr  Cr22  1  0.83432030  0.50003847  0.16623525  1
  Ni  Ni23  1  0.66797270  0.33344986  0.33396828  1
  Cr  Cr24  1  0.66451323  0.66528662  0.99900894  1
  Ni  Ni25  1  0.83592660  0.83437207  0.16666967  1
  Ni  Ni26  1  0.66781112  0.66524355  0.33456347  1
  Ni  Ni27  1  0.16685984  0.16866978  0.50037997  1
  Cr  Cr28  1  0.00116430  0.00172282  0.66572295  1
  Ni  Ni29  1  0.16970855  0.16767009  0.83457536  1
  Ni  Ni30  1  0.16562945  0.49492138  0.50118980  1
  Fe  Fe31  1  0.00297361  0.33468064  0.66588595  1
  Ni  Ni32  1  0.16974330  0.49858716  0.83437382  1
  Fe  Fe33  1  0.16867910  0.83324194  0.50203493  1
  Cr  Cr34  1  0.00248390  0.66706410  0.66650846  1
  Ni  Ni35  1  0.16826670  0.83422606  0.83487526  1
  Ni  Ni36  1  0.49860748  0.16634701  0.50229015  1
  Fe  Fe37  1  0.33488725  0.00048365  0.66747316  1
  Ni  Ni38  1  0.49701146  0.16813555  0.83194181  1
  Cr  Cr39  1  0.50151019  0.49928211  0.49924903  1
  Ni  Ni40  1  0.33368688  0.33286044  0.66692490  1
  Ni  Ni41  1  0.49790257  0.49857189  0.83300394  1
  Ni  Ni42  1  0.50262326  0.83458588  0.50286678  1
  Ni  Ni43  1  0.33449522  0.66526838  0.66786395  1
  Ni  Ni44  1  0.49787911  0.83321675  0.83116465  1
  Fe  Fe45  1  0.83242285  0.16986588  0.50110782  1
  Fe  Fe46  1  0.66433464  0.99892325  0.66727027  1
  Cr  Cr47  1  0.83485901  0.16856043  0.83339107  1
  Ni  Ni48  1  0.83359160  0.49963389  0.50106334  1
  Ni  Ni49  1  0.66356632  0.33234861  0.66626148  1
  Cr  Cr50  1  0.83420135  0.50006699  0.83183251  1
  Ni  Ni51  1  0.83133947  0.83305825  0.49943526  1
  Ni  Ni52  1  0.66520113  0.66686250  0.66631209  1
  Ni  Ni53  1  0.83409339  0.83354169  0.83439764  1
" 