4920,Ni59Cr41_7,-216.291619643589, 136.028449943553,Ni59Cr41,"# generated using pymatgen
 data_Cr31Ni23
_symmetry_space_group_name_H-M   'P 1'
_cell_length_a   7.53019283
_cell_length_b   7.53019283
_cell_length_c   10.64930082
_cell_angle_alpha   90.00000000
_cell_angle_beta   90.00000000
_cell_angle_gamma   90.00000000
_symmetry_Int_Tables_number   1
_chemical_formula_structural   Cr31Ni23
_chemical_formula_sum   'Cr31 Ni23'
_cell_volume   603.85586690
_cell_formula_units_Z   1
loop_
 _symmetry_equiv_pos_site_id
 _symmetry_equiv_pos_as_xyz
  1  'x, y, z'
loop_
 _atom_site_type_symbol
 _atom_site_label
 _atom_site_symmetry_multiplicity
 _atom_site_fract_x
 _atom_site_fract_y
 _atom_site_fract_z
 _atom_site_occupancy
  Cr  Cr0  1  0.99081789  0.99377474  0.99577233  1
  Cr  Cr1  1  0.16173683  0.16361494  0.16373971  1
  Cr  Cr2  1  0.99532767  -0.00229762  0.32833176  1
  Cr  Cr3  1  0.99580471  0.32988939  -0.00241519  1
  Cr  Cr4  1  0.16128866  0.49599372  0.16041206  1
  Ni  Ni5  1  0.99005751  0.32926613  0.32952719  1
  Ni  Ni6  1  0.99304459  0.66343299  -0.00346746  1
  Cr  Cr7  1  0.16427575  0.82782457  0.16277081  1
  Cr  Cr8  1  0.99371727  0.66020463  0.32825528  1
  Cr  Cr9  1  0.33255413  -0.00344489  -0.00282453  1
  Cr  Cr10  1  0.49721464  0.16078792  0.16245140  1
  Ni  Ni11  1  0.33026682  0.99296317  0.32884134  1
  Ni  Ni12  1  0.33115246  0.33152033  0.99312370  1
  Cr  Cr13  1  0.49778898  0.49875231  0.16214873  1
  Cr  Cr14  1  0.32889625  0.32901214  0.32854008  1
  Ni  Ni15  1  0.33098066  0.66035073  0.99550139  1
  Ni  Ni16  1  0.49792174  0.82728534  0.16321958  1
  Ni  Ni17  1  0.33205025  0.66514815  0.32871017  1
  Ni  Ni18  1  0.66436705  0.99367050  0.99557873  1
  Ni  Ni19  1  0.82830206  0.16325981  0.16384039  1
  Cr  Cr20  1  0.66211608  0.99540678  0.32648099  1
  Cr  Cr21  1  0.66087432  0.32763445  0.99379948  1
  Ni  Ni22  1  0.82833198  0.49692965  0.16439889  1
  Ni  Ni23  1  0.66819174  0.33102311  0.33002309  1
  Ni  Ni24  1  0.66334999  0.66520629  -0.00305256  1
  Ni  Ni25  1  0.82529354  0.82720401  0.15970437  1
  Ni  Ni26  1  0.66229138  0.66027536  0.32737819  1
  Cr  Cr27  1  0.16072311  0.16019231  0.49552208  1
  Ni  Ni28  1  0.99522390  -0.00337988  0.66344304  1
  Cr  Cr29  1  0.16292236  0.16177682  0.82829141  1
  Cr  Cr30  1  0.16138115  0.49669216  0.49519555  1
  Cr  Cr31  1  0.99343186  0.32740719  0.66039126  1
  Cr  Cr32  1  0.16524332  0.49734509  0.83182582  1
  Cr  Cr33  1  0.16531804  0.83055305  0.49787940  1
  Cr  Cr34  1  0.99573919  0.66413057  0.66254850  1
  Cr  Cr35  1  0.16075908  0.82835786  0.82685693  1
  Cr  Cr36  1  0.49684628  0.16125565  0.49493954  1
  Ni  Ni37  1  0.32780155  0.99485605  0.66254848  1
  Ni  Ni38  1  0.49672919  0.16345631  0.82987298  1
  Cr  Cr39  1  0.49844642  0.49785162  0.49457923  1
  Cr  Cr40  1  0.33149920  0.32978539  0.66606746  1
  Ni  Ni41  1  0.49388776  0.49558968  0.83061099  1
  Cr  Cr42  1  0.49334522  0.82830915  0.49400445  1
  Ni  Ni43  1  0.32957909  0.66379348  0.66313266  1
  Cr  Cr44  1  0.49723268  0.82820567  0.82952442  1
  Ni  Ni45  1  0.83050239  0.16581270  0.49503685  1
  Cr  Cr46  1  0.66412326  -0.00238182  0.66514527  1
  Ni  Ni47  1  0.82701875  0.15873881  0.82847312  1
  Ni  Ni48  1  0.82825898  0.49254845  0.49231414  1
  Cr  Cr49  1  0.66253433  0.32851635  0.66274662  1
  Cr  Cr50  1  0.82755423  0.49792524  0.83064901  1
  Cr  Cr51  1  0.82874929  0.82896339  0.49747920  1
  Cr  Cr52  1  0.66181352  0.66126521  0.66251426  1
  Ni  Ni53  1  0.82890960  0.83133355  0.83120611  1
" 