2924,Ni59Cr41_3,-216.291537284384, 133.646975393556,Ni59Cr41,"# generated using pymatgen
 data_Cr31Ni23
_symmetry_space_group_name_H-M   'P 1'
_cell_length_a   7.53044116
_cell_length_b   7.53044116
_cell_length_c   10.64965202
_cell_angle_alpha   90.00000000
_cell_angle_beta   90.00000000
_cell_angle_gamma   90.00000000
_symmetry_Int_Tables_number   1
_chemical_formula_structural   Cr31Ni23
_chemical_formula_sum   'Cr31 Ni23'
_cell_volume   603.91561048
_cell_formula_units_Z   1
loop_
 _symmetry_equiv_pos_site_id
 _symmetry_equiv_pos_as_xyz
  1  'x, y, z'
loop_
 _atom_site_type_symbol
 _atom_site_label
 _atom_site_symmetry_multiplicity
 _atom_site_fract_x
 _atom_site_fract_y
 _atom_site_fract_z
 _atom_site_occupancy
  Cr  Cr0  1  0.99396290  -0.00056380  -0.00332457  1
  Ni  Ni1  1  0.16158036  0.16552033  0.16287277  1
  Cr  Cr2  1  -0.00251980  -0.00265561  0.32768461  1
  Ni  Ni3  1  -0.00017388  0.32700182  0.99578063  1
  Cr  Cr4  1  0.16353984  0.49243849  0.16152817  1
  Ni  Ni5  1  0.99474252  0.32977687  0.32971797  1
  Cr  Cr6  1  -0.00258357  0.66177634  0.99373668  1
  Cr  Cr7  1  0.16361934  0.82996418  0.16490714  1
  Ni  Ni8  1  -0.00306726  0.65961428  0.33311301  1
  Cr  Cr9  1  0.32865118  -0.00176144  0.99525966  1
  Cr  Cr10  1  0.49475700  0.16432471  0.16391895  1
  Ni  Ni11  1  0.32790186  -0.00127310  0.33091697  1
  Ni  Ni12  1  0.32644533  0.33029824  0.99449579  1
  Ni  Ni13  1  0.49396871  0.49368835  0.16205871  1
  Ni  Ni14  1  0.32919636  0.32754914  0.32873917  1
  Ni  Ni15  1  0.32947882  0.65833284  -0.00413179  1
  Cr  Cr16  1  0.49478478  0.82846434  0.16120550  1
  Cr  Cr17  1  0.32724451  0.66165372  0.32889447  1
  Ni  Ni18  1  0.66350458  -0.00337822  0.99428578  1
  Ni  Ni19  1  0.83072737  0.16454713  0.16234746  1
  Cr  Cr20  1  0.66258657  -0.00040991  0.32912922  1
  Cr  Cr21  1  0.66128111  0.32728884  -0.00326009  1
  Cr  Cr22  1  0.82964966  0.49237280  0.16492065  1
  Ni  Ni23  1  0.66339144  0.32820324  0.33058086  1
  Cr  Cr24  1  0.66020736  0.66404467  -0.00365291  1
  Cr  Cr25  1  0.82888821  0.83056377  0.16094761  1
  Cr  Cr26  1  0.66314789  0.65885455  0.32829286  1
  Cr  Cr27  1  0.16471253  0.16203094  0.49403876  1
  Cr  Cr28  1  -0.00259517  0.99455292  0.66302294  1
  Ni  Ni29  1  0.16549029  0.16529258  0.83074141  1
  Ni  Ni30  1  0.15806755  0.49782308  0.49440784  1
  Cr  Cr31  1  -0.00311692  0.33118926  0.66235335  1
  Ni  Ni32  1  0.16225722  0.49393154  0.83112558  1
  Ni  Ni33  1  0.16235426  0.82714206  0.49583410  1
  Ni  Ni34  1  -0.00315138  0.66201932  0.66116497  1
  Cr  Cr35  1  0.16189917  0.82827691  0.82706953  1
  Ni  Ni36  1  0.49579058  0.16233068  0.49450515  1
  Ni  Ni37  1  0.32914837  -0.00264643  0.66195841  1
  Ni  Ni38  1  0.49283019  0.16104294  0.82931424  1
  Cr  Cr39  1  0.49644925  0.49220343  0.49356197  1
  Cr  Cr40  1  0.32869153  0.32705264  0.66456137  1
  Cr  Cr41  1  0.49283004  0.49420524  0.83189368  1
  Cr  Cr42  1  0.49191702  0.83335190  0.49607872  1
  Cr  Cr43  1  0.32519207  0.66220701  0.66182027  1
  Cr  Cr44  1  0.49682913  0.83173992  0.83000731  1
  Ni  Ni45  1  0.82709307  0.16664211  0.49340533  1
  Cr  Cr46  1  0.66130677  -0.00201159  0.66334512  1
  Cr  Cr47  1  0.82918328  0.16144775  0.83124344  1
  Ni  Ni48  1  0.83316985  0.49400355  0.49398236  1
  Cr  Cr49  1  0.66189499  0.32763129  0.65942078  1
  Cr  Cr50  1  0.83274769  0.49717339  0.82792942  1
  Cr  Cr51  1  0.83231881  0.82690556  0.49692288  1
  Cr  Cr52  1  0.66542777  0.66178367  0.66269955  1
  Ni  Ni53  1  0.82905460  0.82914754  0.82933201  1
" 