3393,Ni59Fe13Cr26_10,-229.72735751168, 167.916455583906,Ni59Fe13Cr26,"# generated using pymatgen
 data_Cr15Fe7Ni32
_symmetry_space_group_name_H-M   'P 1'
_cell_length_a   7.47130808
_cell_length_b   7.47130808
_cell_length_c   10.56602522
_cell_angle_alpha   90.00000000
_cell_angle_beta   90.00000000
_cell_angle_gamma   90.00000000
_symmetry_Int_Tables_number   1
_chemical_formula_structural   Cr15Fe7Ni32
_chemical_formula_sum   'Cr15 Fe7 Ni32'
_cell_volume   589.80022383
_cell_formula_units_Z   1
loop_
 _symmetry_equiv_pos_site_id
 _symmetry_equiv_pos_as_xyz
  1  'x, y, z'
loop_
 _atom_site_type_symbol
 _atom_site_label
 _atom_site_symmetry_multiplicity
 _atom_site_fract_x
 _atom_site_fract_y
 _atom_site_fract_z
 _atom_site_occupancy
  Ni  Ni0  1  0.00169769  0.99723213  0.00156282  1
  Ni  Ni1  1  0.16766415  0.16266564  0.16477283  1
  Fe  Fe2  1  0.99864794  0.99777964  0.33017486  1
  Cr  Cr3  1  0.00444957  0.33049640  0.00173145  1
  Ni  Ni4  1  0.16920416  0.50277228  0.16322301  1
  Cr  Cr5  1  0.99823865  0.33146518  0.33047619  1
  Ni  Ni6  1  -0.00014268  0.67048884  0.99939568  1
  Ni  Ni7  1  0.16760936  0.83358152  0.16674451  1
  Cr  Cr8  1  0.99846860  0.66437889  0.33211123  1
  Ni  Ni9  1  0.33249733  0.99957416  0.00001296  1
  Ni  Ni10  1  0.50008359  0.16521719  0.16484815  1
  Ni  Ni11  1  0.33608446  0.00011048  0.32846905  1
  Ni  Ni12  1  0.33408080  0.33210597  0.99945537  1
  Ni  Ni13  1  0.49789054  0.50057453  0.16374100  1
  Cr  Cr14  1  0.33181732  0.33453547  0.33083114  1
  Fe  Fe15  1  0.33207279  0.66698811  0.99928514  1
  Ni  Ni16  1  0.49853543  0.83392798  0.16523236  1
  Ni  Ni17  1  0.33450182  0.66558024  0.33025066  1
  Fe  Fe18  1  0.66636612  -0.00026125  0.00134219  1
  Ni  Ni19  1  0.83091026  0.16309015  0.16711054  1
  Ni  Ni20  1  0.66833470  0.99971319  0.33040227  1
  Ni  Ni21  1  0.66244715  0.33420410  0.00326917  1
  Cr  Cr22  1  0.83113100  0.50061774  0.16129960  1
  Fe  Fe23  1  0.66456085  0.33308723  0.33093464  1
  Ni  Ni24  1  0.66374249  0.67009514  0.99937801  1
  Ni  Ni25  1  0.83323047  0.83574158  0.16298530  1
  Cr  Cr26  1  0.66617798  0.66798934  0.33301675  1
  Cr  Cr27  1  0.16609737  0.16358476  0.50129641  1
  Ni  Ni28  1  0.99617044  0.99920075  0.66687664  1
  Ni  Ni29  1  0.16557790  0.16532557  0.83309503  1
  Ni  Ni30  1  0.16544131  0.49948648  0.50164684  1
  Ni  Ni31  1  0.00159139  0.33358949  0.66608476  1
  Ni  Ni32  1  0.16648820  0.50091868  0.83317698  1
  Cr  Cr33  1  0.16505807  0.83218001  0.49637902  1
  Ni  Ni34  1  0.99716783  0.66624337  0.66673332  1
  Ni  Ni35  1  0.16445407  0.83336822  0.83423569  1
  Cr  Cr36  1  0.50167011  0.16626604  0.50102379  1
  Cr  Cr37  1  0.33323512  0.00030961  0.67102970  1
  Cr  Cr38  1  0.50062863  0.16780340  0.83458238  1
  Ni  Ni39  1  0.50175289  0.49807380  0.50107425  1
  Ni  Ni40  1  0.33121478  0.33549930  0.66879025  1
  Ni  Ni41  1  0.49985027  0.50147373  0.83447990  1
  Cr  Cr42  1  0.49922710  0.83404454  0.49793427  1
  Cr  Cr43  1  0.33500953  0.66481197  0.66743722  1
  Ni  Ni44  1  0.50106795  0.83211338  0.83546096  1
  Fe  Fe45  1  0.83223477  0.16575816  0.50038339  1
  Ni  Ni46  1  0.66971898  0.99571554  0.66816568  1
  Cr  Cr47  1  0.83412923  0.16592896  0.83381103  1
  Ni  Ni48  1  0.83204797  0.49862432  0.50298659  1
  Fe  Fe49  1  0.66675627  0.33499568  0.66737412  1
  Cr  Cr50  1  0.83262245  0.50122227  0.83532890  1
  Ni  Ni51  1  0.83279466  0.83386946  0.50236937  1
  Ni  Ni52  1  0.66810393  0.66783533  0.66684012  1
  Fe  Fe53  1  0.83418965  0.83260870  0.83394994  1
" 