1852,Ni59Cr41_4,-216.034547408272, 131.472805036669,Ni59Cr41,"# generated using pymatgen
 data_Cr31Ni23
_symmetry_space_group_name_H-M   'P 1'
_cell_length_a   7.53607304
_cell_length_b   7.53607304
_cell_length_c   10.65761670
_cell_angle_alpha   90.00000000
_cell_angle_beta   90.00000000
_cell_angle_gamma   90.00000000
_symmetry_Int_Tables_number   1
_chemical_formula_structural   Cr31Ni23
_chemical_formula_sum   'Cr31 Ni23'
_cell_volume   605.27159750
_cell_formula_units_Z   1
loop_
 _symmetry_equiv_pos_site_id
 _symmetry_equiv_pos_as_xyz
  1  'x, y, z'
loop_
 _atom_site_type_symbol
 _atom_site_label
 _atom_site_symmetry_multiplicity
 _atom_site_fract_x
 _atom_site_fract_y
 _atom_site_fract_z
 _atom_site_occupancy
  Ni  Ni0  1  -0.00453371  -0.00110942  0.99514909  1
  Cr  Cr1  1  0.16236490  0.16383279  0.15994969  1
  Cr  Cr2  1  0.99483216  0.99364374  0.33004329  1
  Ni  Ni3  1  0.99355222  0.32701913  0.99541577  1
  Cr  Cr4  1  0.16263440  0.49220032  0.16204287  1
  Cr  Cr5  1  0.99375270  0.33017320  0.32789996  1
  Cr  Cr6  1  0.99372270  0.66044282  -0.00404510  1
  Cr  Cr7  1  0.16289838  0.83017625  0.16073719  1
  Cr  Cr8  1  0.99507750  0.66237711  0.33066775  1
  Ni  Ni9  1  0.32855849  -0.00292946  -0.00281943  1
  Ni  Ni10  1  0.49443408  0.16311395  0.16192308  1
  Cr  Cr11  1  0.33053716  -0.00390739  0.32845618  1
  Ni  Ni12  1  0.32964336  0.32790970  -0.00328442  1
  Ni  Ni13  1  0.49640265  0.49447157  0.16127940  1
  Ni  Ni14  1  0.33247257  0.32876655  0.32861850  1
  Cr  Cr15  1  0.33145663  0.66196507  -0.00402152  1
  Ni  Ni16  1  0.49589943  0.82865616  0.16000396  1
  Cr  Cr17  1  0.32886802  0.66150756  0.32845744  1
  Cr  Cr18  1  0.66139190  -0.00355185  -0.00218373  1
  Ni  Ni19  1  0.82862868  0.16364973  0.16016203  1
  Cr  Cr20  1  0.66099022  -0.00276233  0.32732828  1
  Cr  Cr21  1  0.66276365  0.32984835  0.99492418  1
  Ni  Ni22  1  0.82661433  0.49377131  0.16041627  1
  Cr  Cr23  1  0.66005431  0.32837973  0.32878179  1
  Ni  Ni24  1  0.66117443  0.65940497  -0.00379118  1
  Cr  Cr25  1  0.82651022  0.82846345  0.16124377  1
  Cr  Cr26  1  0.66242498  0.66070437  0.32793969  1
  Cr  Cr27  1  0.16397525  0.16132492  0.49594093  1
  Ni  Ni28  1  -0.00356564  0.99406134  0.66125743  1
  Cr  Cr29  1  0.16078970  0.16135575  0.83056317  1
  Cr  Cr30  1  0.16383085  0.49546953  0.49415829  1
  Cr  Cr31  1  0.99256713  0.32856180  0.66397133  1
  Cr  Cr32  1  0.16338915  0.49361115  0.83016888  1
  Ni  Ni33  1  0.16142057  0.82960720  0.49827062  1
  Cr  Cr34  1  0.99540905  0.66295812  0.65985224  1
  Cr  Cr35  1  0.16311194  0.83128304  0.82773952  1
  Ni  Ni36  1  0.49352882  0.16363040  0.49493561  1
  Ni  Ni37  1  0.32701293  0.99335964  0.66025743  1
  Cr  Cr38  1  0.49400132  0.16217073  0.82853784  1
  Ni  Ni39  1  0.49630850  0.49497483  0.49634677  1
  Cr  Cr40  1  0.33156046  0.32959946  0.66131238  1
  Ni  Ni41  1  0.49737671  0.49712324  0.82847975  1
  Cr  Cr42  1  0.49628714  0.82792423  0.49784025  1
  Ni  Ni43  1  0.33101558  0.66329150  0.66114171  1
  Cr  Cr44  1  0.49582943  0.82630974  0.82848995  1
  Cr  Cr45  1  0.82821731  0.16122612  0.49595424  1
  Cr  Cr46  1  0.66264347  -0.00333416  0.66102036  1
  Ni  Ni47  1  0.83163269  0.16293377  0.82982129  1
  Ni  Ni48  1  0.82610720  0.49827824  0.49621940  1
  Cr  Cr49  1  0.66211698  0.33058645  0.66238082  1
  Ni  Ni50  1  0.82614200  0.49473419  0.82966360  1
  Ni  Ni51  1  0.83018105  0.82696618  0.49706598  1
  Ni  Ni52  1  0.66132733  0.65970886  0.66151240  1
  Cr  Cr53  1  0.82735460  0.82876423  0.82850087  1
" 