5634,Ni59Cr41_19,-216.110289223965, 134.899499135018,Ni59Cr41,"# generated using pymatgen
 data_Cr31Ni23
_symmetry_space_group_name_H-M   'P 1'
_cell_length_a   7.53659156
_cell_length_b   7.53659156
_cell_length_c   10.65834999
_cell_angle_alpha   90.00000000
_cell_angle_beta   90.00000000
_cell_angle_gamma   90.00000000
_symmetry_Int_Tables_number   1
_chemical_formula_structural   Cr31Ni23
_chemical_formula_sum   'Cr31 Ni23'
_cell_volume   605.39654247
_cell_formula_units_Z   1
loop_
 _symmetry_equiv_pos_site_id
 _symmetry_equiv_pos_as_xyz
  1  'x, y, z'
loop_
 _atom_site_type_symbol
 _atom_site_label
 _atom_site_symmetry_multiplicity
 _atom_site_fract_x
 _atom_site_fract_y
 _atom_site_fract_z
 _atom_site_occupancy
  Cr  Cr0  1  -0.00179239  0.99340385  -0.00302561  1
  Cr  Cr1  1  0.16271163  0.16160842  0.16391282  1
  Ni  Ni2  1  -0.00230255  -0.00411691  0.33145283  1
  Cr  Cr3  1  0.99449293  0.33262038  -0.00258729  1
  Ni  Ni4  1  0.16376764  0.49740591  0.16273282  1
  Cr  Cr5  1  -0.00302955  0.33007530  0.32871529  1
  Cr  Cr6  1  -0.00152412  0.66091645  -0.00214778  1
  Ni  Ni7  1  0.16599173  0.82906060  0.16260645  1
  Cr  Cr8  1  -0.00385815  0.66062792  0.32881791  1
  Ni  Ni9  1  0.32826989  0.99198173  -0.00154020  1
  Ni  Ni10  1  0.49222741  0.16075093  0.16549874  1
  Ni  Ni11  1  0.32746022  -0.00172035  0.32743474  1
  Cr  Cr12  1  0.33001077  0.32888517  -0.00186346  1
  Cr  Cr13  1  0.49610672  0.49544212  0.16578142  1
  Ni  Ni14  1  0.32939314  0.32634756  0.32992111  1
  Ni  Ni15  1  0.32875426  0.66364438  -0.00322166  1
  Ni  Ni16  1  0.49168811  0.82947773  0.16327428  1
  Cr  Cr17  1  0.32669401  0.66089962  0.32710216  1
  Cr  Cr18  1  0.65715284  -0.00291291  -0.00356365  1
  Cr  Cr19  1  0.82751967  0.16327969  0.16325207  1
  Cr  Cr20  1  0.65986450  -0.00208267  0.33080072  1
  Cr  Cr21  1  0.66210992  0.32973375  -0.00300564  1
  Ni  Ni22  1  0.82860066  0.49606422  0.16494257  1
  Ni  Ni23  1  0.66159592  0.32932625  0.32922920  1
  Cr  Cr24  1  0.66173901  0.66046606  -0.00424052  1
  Cr  Cr25  1  0.82818545  0.82898956  0.16630456  1
  Ni  Ni26  1  0.66381238  0.66044690  0.32928646  1
  Ni  Ni27  1  0.16265999  0.16503470  0.49396078  1
  Cr  Cr28  1  -0.00422014  -0.00345229  0.65832328  1
  Cr  Cr29  1  0.16154818  0.16091139  0.82743410  1
  Ni  Ni30  1  0.16074632  0.48963451  0.49576163  1
  Ni  Ni31  1  0.99516941  0.32945220  0.65844251  1
  Cr  Cr32  1  0.16346825  0.49350913  0.82710343  1
  Cr  Cr33  1  0.16243656  0.82938333  0.49354363  1
  Cr  Cr34  1  -0.00437442  0.65997748  0.65934721  1
  Ni  Ni35  1  0.16478619  0.82763188  0.83139102  1
  Ni  Ni36  1  0.49288099  0.16557413  0.49195806  1
  Cr  Cr37  1  0.32926434  -0.00245222  0.65967194  1
  Cr  Cr38  1  0.49268343  0.16361408  0.82907104  1
  Cr  Cr39  1  0.49364107  0.49376498  0.49370995  1
  Ni  Ni40  1  0.32617048  0.32840770  0.65892291  1
  Ni  Ni41  1  0.49493504  0.49468269  0.82876842  1
  Cr  Cr42  1  0.49673120  0.82809743  0.49200566  1
  Cr  Cr43  1  0.32730804  0.65964897  0.66313167  1
  Cr  Cr44  1  0.49376562  0.82644081  0.82942167  1
  Ni  Ni45  1  0.83025022  0.16422727  0.49348176  1
  Cr  Cr46  1  0.66216886  -0.00250193  0.65763315  1
  Cr  Cr47  1  0.83138040  0.16363401  0.82966812  1
  Ni  Ni48  1  0.82848664  0.49338166  0.49350150  1
  Cr  Cr49  1  0.66090995  0.32824100  0.66220438  1
  Ni  Ni50  1  0.82842447  0.49480409  0.82719016  1
  Ni  Ni51  1  0.82985346  0.82859005  0.49196422  1
  Cr  Cr52  1  0.66322474  0.66106337  0.66032664  1
  Cr  Cr53  1  0.83091597  0.82893525  0.82704815  1
" 