6757,Ni59Fe13Cr26_8,-230.53846426813, 179.50715553966,Ni59Fe13Cr26,"# generated using pymatgen
 data_Cr15Fe7Ni32
_symmetry_space_group_name_H-M   'P 1'
_cell_length_a   7.46582539
_cell_length_b   7.46582539
_cell_length_c   10.55827152
_cell_angle_alpha   90.00000000
_cell_angle_beta   90.00000000
_cell_angle_gamma   90.00000000
_symmetry_Int_Tables_number   1
_chemical_formula_structural   Cr15Fe7Ni32
_chemical_formula_sum   'Cr15 Fe7 Ni32'
_cell_volume   588.50273225
_cell_formula_units_Z   1
loop_
 _symmetry_equiv_pos_site_id
 _symmetry_equiv_pos_as_xyz
  1  'x, y, z'
loop_
 _atom_site_type_symbol
 _atom_site_label
 _atom_site_symmetry_multiplicity
 _atom_site_fract_x
 _atom_site_fract_y
 _atom_site_fract_z
 _atom_site_occupancy
  Cr  Cr0  1  0.99934382  0.00077965  0.99890778  1
  Ni  Ni1  1  0.16788487  0.16766153  0.16731417  1
  Fe  Fe2  1  0.00249679  0.00139043  0.33456006  1
  Cr  Cr3  1  0.00056107  0.33349106  0.00200401  1
  Ni  Ni4  1  0.16587413  0.50053679  0.16490788  1
  Cr  Cr5  1  0.99883677  0.33389220  0.33320426  1
  Ni  Ni6  1  0.99918797  0.66600775  0.00109169  1
  Cr  Cr7  1  0.16749189  0.83215333  0.16865691  1
  Fe  Fe8  1  0.00089410  0.66555106  0.33427714  1
  Cr  Cr9  1  0.33536573  0.00061618  0.00037848  1
  Ni  Ni10  1  0.50078058  0.16665481  0.16583965  1
  Ni  Ni11  1  0.33340902  0.99931496  0.33423351  1
  Ni  Ni12  1  0.33492467  0.33339255  0.00021825  1
  Cr  Cr13  1  0.50071147  0.49979695  0.16500680  1
  Cr  Cr14  1  0.33177082  0.33079904  0.33320296  1
  Ni  Ni15  1  0.33492244  0.66576376  0.00049474  1
  Ni  Ni16  1  0.50029122  0.83363429  0.16637434  1
  Fe  Fe17  1  0.33311440  0.66966207  0.33427185  1
  Fe  Fe18  1  0.66554400  0.00070919  0.99952689  1
  Ni  Ni19  1  0.83157813  0.16857536  0.16594614  1
  Cr  Cr20  1  0.66357201  0.00028703  0.33269465  1
  Ni  Ni21  1  0.66555820  0.33298911  0.00199286  1
  Ni  Ni22  1  0.83316701  0.50004518  0.16695676  1
  Fe  Fe23  1  0.66831324  0.33287508  0.33304081  1
  Ni  Ni24  1  0.66613323  0.66674602  0.99960367  1
  Cr  Cr25  1  0.83272073  0.83185148  0.16615537  1
  Ni  Ni26  1  0.66733704  0.66631021  0.33331005  1
  Ni  Ni27  1  0.16788085  0.16412516  0.50123334  1
  Ni  Ni28  1  0.00125035  0.99945622  0.66684544  1
  Ni  Ni29  1  0.16971642  0.16433306  0.83169716  1
  Ni  Ni30  1  0.16587115  0.50235844  0.50142374  1
  Cr  Cr31  1  0.00182440  0.33222583  0.66503490  1
  Cr  Cr32  1  0.17063178  0.50144792  0.83386784  1
  Ni  Ni33  1  0.16778472  0.83376598  0.50023971  1
  Ni  Ni34  1  0.00067485  0.66909404  0.66536102  1
  Ni  Ni35  1  0.16488367  0.83400183  0.83155878  1
  Ni  Ni36  1  0.49899090  0.16489152  0.50078495  1
  Ni  Ni37  1  0.33318303  1.00003719  0.66555008  1
  Ni  Ni38  1  0.49938215  0.16780451  0.83362150  1
  Cr  Cr39  1  0.50049990  0.50044367  0.50113369  1
  Ni  Ni40  1  0.33266180  0.33136573  0.66715153  1
  Ni  Ni41  1  0.49949496  0.49948077  0.83455589  1
  Ni  Ni42  1  0.49773872  0.83434687  0.50115971  1
  Ni  Ni43  1  0.33342911  0.66884204  0.66596423  1
  Fe  Fe44  1  0.50030961  0.83230619  0.83225878  1
  Ni  Ni45  1  0.83337376  0.16680463  0.50067998  1
  Ni  Ni46  1  0.66581146  0.99868764  0.66800617  1
  Fe  Fe47  1  0.83204619  0.16338132  0.83316720  1
  Ni  Ni48  1  0.83395738  0.50110446  0.49873170  1
  Cr  Cr49  1  0.66603784  0.33259480  0.66459495  1
  Cr  Cr50  1  0.83072620  0.50386400  0.83410657  1
  Cr  Cr51  1  0.83475971  0.83265873  0.50147985  1
  Ni  Ni52  1  0.66613938  0.66961622  0.66733093  1
  Ni  Ni53  1  0.83357452  0.83389427  0.83270881  1
" 