838,Ni59Cr41_18,-215.996308549426, 131.122643265275,Ni59Cr41,"# generated using pymatgen
 data_Cr31Ni23
_symmetry_space_group_name_H-M   'P 1'
_cell_length_a   7.53989320
_cell_length_b   7.53989320
_cell_length_c   10.66301922
_cell_angle_alpha   90.00000000
_cell_angle_beta   90.00000000
_cell_angle_gamma   90.00000000
_symmetry_Int_Tables_number   1
_chemical_formula_structural   Cr31Ni23
_chemical_formula_sum   'Cr31 Ni23'
_cell_volume   606.19253090
_cell_formula_units_Z   1
loop_
 _symmetry_equiv_pos_site_id
 _symmetry_equiv_pos_as_xyz
  1  'x, y, z'
loop_
 _atom_site_type_symbol
 _atom_site_label
 _atom_site_symmetry_multiplicity
 _atom_site_fract_x
 _atom_site_fract_y
 _atom_site_fract_z
 _atom_site_occupancy
  Cr  Cr0  1  -0.00348510  0.99363365  0.99144044  1
  Cr  Cr1  1  0.16408308  0.16058420  0.16185702  1
  Ni  Ni2  1  0.99510587  -0.00306488  0.33119121  1
  Cr  Cr3  1  -0.00278167  0.32950941  0.99360537  1
  Cr  Cr4  1  0.16230035  0.49749688  0.16244291  1
  Ni  Ni5  1  -0.00477929  0.32616746  0.33117572  1
  Ni  Ni6  1  -0.00273527  0.66169006  0.99287909  1
  Cr  Cr7  1  0.16457493  0.82740979  0.16330766  1
  Ni  Ni8  1  -0.00299485  0.66237524  0.32845602  1
  Ni  Ni9  1  0.32942027  -0.00364504  -0.00372255  1
  Ni  Ni10  1  0.49458239  0.16067544  0.16080768  1
  Ni  Ni11  1  0.32993005  0.99493135  0.32854290  1
  Ni  Ni12  1  0.33137925  0.32973263  0.99304979  1
  Ni  Ni13  1  0.49340454  0.49526171  0.15919954  1
  Cr  Cr14  1  0.32855071  0.32760647  0.32942103  1
  Ni  Ni15  1  0.32867310  0.65946617  -0.00461858  1
  Ni  Ni16  1  0.49213310  0.82962639  0.16322223  1
  Ni  Ni17  1  0.32807150  0.66425302  0.32636219  1
  Cr  Cr18  1  0.66017522  -0.00464416  -0.00326740  1
  Cr  Cr19  1  0.82633060  0.16292442  0.16342727  1
  Ni  Ni20  1  0.66045181  -0.00327236  0.32887863  1
  Ni  Ni21  1  0.65643899  0.32980747  -0.00365028  1
  Cr  Cr22  1  0.82940571  0.49401045  0.16244053  1
  Cr  Cr23  1  0.66163616  0.32579928  0.32732572  1
  Cr  Cr24  1  0.66023739  0.66065861  0.99481304  1
  Cr  Cr25  1  0.82955989  0.82854231  0.16305573  1
  Cr  Cr26  1  0.65927198  0.66311365  0.32706172  1
  Ni  Ni27  1  0.16165510  0.16183062  0.49396979  1
  Cr  Cr28  1  -0.00476503  -0.00302632  0.66306488  1
  Ni  Ni29  1  0.16464980  0.16490144  0.82878438  1
  Cr  Cr30  1  0.16150301  0.49427246  0.49305137  1
  Cr  Cr31  1  -0.00044614  0.32613822  0.66083733  1
  Ni  Ni32  1  0.16527576  0.49350489  0.83028747  1
  Cr  Cr33  1  0.16267676  0.82954285  0.49048476  1
  Cr  Cr34  1  0.99352902  0.66239233  0.66460227  1
  Cr  Cr35  1  0.16156340  0.82810349  0.83155966  1
  Ni  Ni36  1  0.49432025  0.16071631  0.49419584  1
  Cr  Cr37  1  0.32686508  -0.00038237  0.66053246  1
  Cr  Cr38  1  0.49217444  0.16490776  0.83034650  1
  Cr  Cr39  1  0.49452985  0.49480849  0.49820219  1
  Ni  Ni40  1  0.32780545  0.32783945  0.66337492  1
  Ni  Ni41  1  0.49219637  0.49434062  0.82921722  1
  Cr  Cr42  1  0.49453613  0.83012542  0.49419121  1
  Cr  Cr43  1  0.33040290  0.65807219  0.66285897  1
  Cr  Cr44  1  0.49573011  0.82698008  0.82790951  1
  Ni  Ni45  1  0.82955803  0.16081382  0.49194820  1
  Cr  Cr46  1  0.66336807  0.99345953  0.66054894  1
  Cr  Cr47  1  0.82826468  0.16137381  0.82996420  1
  Cr  Cr48  1  0.82947237  0.49418664  0.49388442  1
  Cr  Cr49  1  0.65907493  0.32956777  0.66038093  1
  Cr  Cr50  1  0.82718919  0.49707347  0.82913445  1
  Cr  Cr51  1  0.82827579  0.82935530  0.49495189  1
  Ni  Ni52  1  0.66172926  0.66167294  0.66420007  1
  Ni  Ni53  1  0.82906814  0.82592256  0.82795492  1
" 