1055,Ni59Fe13Cr26_19,-230.030910350483, 178.566246361823,Ni59Fe13Cr26,"# generated using pymatgen
 data_Cr15Fe7Ni32
_symmetry_space_group_name_H-M   'P 1'
_cell_length_a   7.45734579
_cell_length_b   7.45734579
_cell_length_c   10.54627956
_cell_angle_alpha   90.00000000
_cell_angle_beta   90.00000000
_cell_angle_gamma   90.00000000
_symmetry_Int_Tables_number   1
_chemical_formula_structural   Cr15Fe7Ni32
_chemical_formula_sum   'Cr15 Fe7 Ni32'
_cell_volume   586.49976547
_cell_formula_units_Z   1
loop_
 _symmetry_equiv_pos_site_id
 _symmetry_equiv_pos_as_xyz
  1  'x, y, z'
loop_
 _atom_site_type_symbol
 _atom_site_label
 _atom_site_symmetry_multiplicity
 _atom_site_fract_x
 _atom_site_fract_y
 _atom_site_fract_z
 _atom_site_occupancy
  Ni  Ni0  1  0.00352905  1.00018137  1.00021258  1
  Ni  Ni1  1  0.16926219  0.16564082  0.16721249  1
  Ni  Ni2  1  0.00091858  0.99814524  0.33275659  1
  Cr  Cr3  1  0.00245853  0.33120146  0.99922390  1
  Cr  Cr4  1  0.16809550  0.50426153  0.16754270  1
  Fe  Fe5  1  0.99966947  0.33489912  0.33265254  1
  Fe  Fe6  1  0.00293966  0.67116378  0.00098302  1
  Ni  Ni7  1  0.16603602  0.83431212  0.16623224  1
  Ni  Ni8  1  1.00045029  0.66948402  0.33315322  1
  Ni  Ni9  1  0.33045844  1.00056182  0.00170635  1
  Ni  Ni10  1  0.49898444  0.16937405  0.16704786  1
  Cr  Cr11  1  0.33236864  0.99824400  0.33164512  1
  Ni  Ni12  1  0.33340641  0.33398793  0.00119173  1
  Ni  Ni13  1  0.49996681  0.49869633  0.16709991  1
  Fe  Fe14  1  0.33594971  0.33495459  0.33262854  1
  Ni  Ni15  1  0.33442460  0.66768739  0.99962270  1
  Fe  Fe16  1  0.49898239  0.83340730  0.16721538  1
  Ni  Ni17  1  0.33363430  0.66720796  0.33440085  1
  Cr  Cr18  1  0.66822669  0.99886647  1.00029325  1
  Cr  Cr19  1  0.83298455  0.16590113  0.16843377  1
  Ni  Ni20  1  0.66817675  1.00020860  0.33384991  1
  Fe  Fe21  1  0.66454285  0.33370394  0.00176088  1
  Ni  Ni22  1  0.83289915  0.50253913  0.16806305  1
  Ni  Ni23  1  0.66672041  0.33592991  0.33192797  1
  Cr  Cr24  1  0.66674806  0.66679614  0.00196626  1
  Ni  Ni25  1  0.83786179  0.83325509  0.16800946  1
  Cr  Cr26  1  0.66656552  0.66775314  0.33559727  1
  Cr  Cr27  1  0.16685833  0.16567977  0.50058360  1
  Ni  Ni28  1  0.00162341  0.99901590  0.66911757  1
  Ni  Ni29  1  0.16765433  0.16530744  0.83329325  1
  Cr  Cr30  1  0.16733392  0.50340859  0.50105076  1
  Fe  Fe31  1  0.00262920  0.33382043  0.66919218  1
  Fe  Fe32  1  0.17004436  0.50220290  0.83331334  1
  Ni  Ni33  1  0.16611293  0.83258313  0.50120204  1
  Ni  Ni34  1  0.00205631  0.66960826  0.66792255  1
  Ni  Ni35  1  0.16766359  0.83420037  0.83440937  1
  Cr  Cr36  1  0.50078091  0.16633232  0.50124340  1
  Ni  Ni37  1  0.33145872  0.99842464  0.66839173  1
  Cr  Cr38  1  0.49913201  0.16624528  0.83398238  1
  Ni  Ni39  1  0.49919945  0.50088123  0.49981127  1
  Ni  Ni40  1  0.33195028  0.33571246  0.66874204  1
  Ni  Ni41  1  0.49679031  0.50153140  0.83508237  1
  Ni  Ni42  1  0.49881993  0.83360277  0.50173567  1
  Ni  Ni43  1  0.33288980  0.66766514  0.66790662  1
  Ni  Ni44  1  0.49763466  0.83295798  0.83300319  1
  Cr  Cr45  1  0.83423517  0.16557417  0.50062608  1
  Ni  Ni46  1  0.66907089  0.99803805  0.66789130  1
  Ni  Ni47  1  0.83661999  0.16439958  0.83269286  1
  Ni  Ni48  1  0.83550053  0.50167651  0.49863259  1
  Cr  Cr49  1  0.66752322  0.33599922  0.66874301  1
  Cr  Cr50  1  0.83491366  0.50267224  0.83545343  1
  Ni  Ni51  1  0.83686469  0.83403940  0.50075281  1
  Cr  Cr52  1  0.66634636  0.66921350  0.66477410  1
  Ni  Ni53  1  0.83715856  0.83596923  0.83314723  1
" 