8042,Ni59Fe13Cr26_9,-229.686328804169, 170.931154234661,Ni59Fe13Cr26,"# generated using pymatgen
 data_Cr15Fe7Ni32
_symmetry_space_group_name_H-M   'P 1'
_cell_length_a   7.46579821
_cell_length_b   7.46579821
_cell_length_c   10.55823309
_cell_angle_alpha   90.00000000
_cell_angle_beta   90.00000000
_cell_angle_gamma   90.00000000
_symmetry_Int_Tables_number   1
_chemical_formula_structural   Cr15Fe7Ni32
_chemical_formula_sum   'Cr15 Fe7 Ni32'
_cell_volume   588.49630535
_cell_formula_units_Z   1
loop_
 _symmetry_equiv_pos_site_id
 _symmetry_equiv_pos_as_xyz
  1  'x, y, z'
loop_
 _atom_site_type_symbol
 _atom_site_label
 _atom_site_symmetry_multiplicity
 _atom_site_fract_x
 _atom_site_fract_y
 _atom_site_fract_z
 _atom_site_occupancy
  Ni  Ni0  1  0.00074344  0.00153588  0.00288282  1
  Ni  Ni1  1  0.16640001  0.16506618  0.16880826  1
  Ni  Ni2  1  0.00124822  0.00158468  0.33357513  1
  Ni  Ni3  1  0.99931109  0.32939187  0.00235868  1
  Cr  Cr4  1  0.16541423  0.50018076  0.17029579  1
  Ni  Ni5  1  0.99914111  0.33271166  0.33450058  1
  Fe  Fe6  1  0.99829935  0.66645899  0.00243794  1
  Fe  Fe7  1  0.16873264  0.83438146  0.16841881  1
  Ni  Ni8  1  0.99915738  0.66614342  0.33348691  1
  Fe  Fe9  1  0.33454036  0.00055679  0.00267163  1
  Ni  Ni10  1  0.49835701  0.16552206  0.16736617  1
  Ni  Ni11  1  0.33357456  0.00033042  0.33073720  1
  Cr  Cr12  1  0.33260271  0.33528925  0.99789047  1
  Cr  Cr13  1  0.50318081  0.49986276  0.16961220  1
  Ni  Ni14  1  0.33321923  0.33183924  0.33657919  1
  Ni  Ni15  1  0.33603520  0.67083572  0.00076432  1
  Ni  Ni16  1  0.49884300  0.83466832  0.16686949  1
  Ni  Ni17  1  0.33548578  0.66786255  0.33388960  1
  Ni  Ni18  1  0.66732080  0.99791777  0.00210857  1
  Fe  Fe19  1  0.83282717  0.16816387  0.16743342  1
  Cr  Cr20  1  0.66635650  0.99888100  0.33491416  1
  Ni  Ni21  1  0.66816159  0.33351440  0.00328131  1
  Ni  Ni22  1  0.83404962  0.49876157  0.16695803  1
  Ni  Ni23  1  0.66775374  0.33372259  0.33323226  1
  Ni  Ni24  1  0.66306515  0.66843293  0.99919841  1
  Cr  Cr25  1  0.83366737  0.83029019  0.16841336  1
  Ni  Ni26  1  0.66677317  0.66569653  0.33651032  1
  Fe  Fe27  1  0.16744843  0.16529035  0.49778193  1
  Ni  Ni28  1  0.99990182  0.99960392  0.66387105  1
  Ni  Ni29  1  0.16584968  0.16420611  0.83260084  1
  Fe  Fe30  1  0.16735244  0.50200192  0.49709362  1
  Cr  Cr31  1  0.00049911  0.33295704  0.66375760  1
  Cr  Cr32  1  0.16558724  0.50201668  0.83338022  1
  Cr  Cr33  1  0.16727322  0.83425959  0.49713081  1
  Ni  Ni34  1  0.00110048  0.66785607  0.66416414  1
  Cr  Cr35  1  0.16647073  0.83608186  0.83557188  1
  Ni  Ni36  1  0.49873125  0.16623491  0.49816162  1
  Ni  Ni37  1  0.33427293  0.99811537  0.66706022  1
  Cr  Cr38  1  0.50099190  0.16366759  0.83440331  1
  Ni  Ni39  1  0.50026387  0.50064695  0.49724959  1
  Cr  Cr40  1  0.33339433  0.33489209  0.66524286  1
  Ni  Ni41  1  0.50018663  0.50399137  0.83403258  1
  Ni  Ni42  1  0.49956212  0.83321340  0.50082425  1
  Ni  Ni43  1  0.33554819  0.66848338  0.66635482  1
  Ni  Ni44  1  0.49932413  0.83219398  0.83256889  1
  Ni  Ni45  1  0.83378836  0.16604090  0.49779384  1
  Ni  Ni46  1  0.66560921  0.99752395  0.66274270  1
  Cr  Cr47  1  0.83460255  0.16459611  0.83556731  1
  Ni  Ni48  1  0.83385988  0.50162606  0.49653209  1
  Cr  Cr49  1  0.66628628  0.33350193  0.66436763  1
  Cr  Cr50  1  0.83104748  0.50139583  0.83682097  1
  Ni  Ni51  1  0.83458391  0.83249851  0.50172055  1
  Fe  Fe52  1  0.66504151  0.66756007  0.66359410  1
  Cr  Cr53  1  0.83167949  0.83445961  0.82893396  1
" 