545,Ni59Cr41_5,-215.89759457122, 129.328734083054,Ni59Cr41,"# generated using pymatgen
 data_Cr31Ni23
_symmetry_space_group_name_H-M   'P 1'
_cell_length_a   7.53701294
_cell_length_b   7.53701294
_cell_length_c   10.65894592
_cell_angle_alpha   90.00000000
_cell_angle_beta   90.00000000
_cell_angle_gamma   90.00000000
_symmetry_Int_Tables_number   1
_chemical_formula_structural   Cr31Ni23
_chemical_formula_sum   'Cr31 Ni23'
_cell_volume   605.49809388
_cell_formula_units_Z   1
loop_
 _symmetry_equiv_pos_site_id
 _symmetry_equiv_pos_as_xyz
  1  'x, y, z'
loop_
 _atom_site_type_symbol
 _atom_site_label
 _atom_site_symmetry_multiplicity
 _atom_site_fract_x
 _atom_site_fract_y
 _atom_site_fract_z
 _atom_site_occupancy
  Ni  Ni0  1  0.99488095  0.99179167  0.99497052  1
  Cr  Cr1  1  0.16023304  0.15995037  0.16036674  1
  Cr  Cr2  1  -0.00371994  -0.00450485  0.32933520  1
  Cr  Cr3  1  0.99230940  0.33094356  -0.00378205  1
  Cr  Cr4  1  0.15888278  0.49827151  0.16263214  1
  Ni  Ni5  1  0.99148378  0.33431345  0.32991236  1
  Ni  Ni6  1  0.99258172  0.66432490  -0.00435127  1
  Ni  Ni7  1  0.16140086  0.82892187  0.15961450  1
  Ni  Ni8  1  0.99298163  0.65885879  0.32840585  1
  Ni  Ni9  1  0.33090632  0.99503143  -0.00246372  1
  Ni  Ni10  1  0.49819545  0.15808204  0.16129857  1
  Cr  Cr11  1  0.33128657  0.99426692  0.32660953  1
  Cr  Cr12  1  0.33074609  0.32477216  -0.00400935  1
  Cr  Cr13  1  0.50025819  0.49589631  0.16371411  1
  Cr  Cr14  1  0.32661319  0.32695934  0.32744943  1
  Cr  Cr15  1  0.32844487  0.66490033  -0.00127035  1
  Ni  Ni16  1  0.49656221  0.83221723  0.16264247  1
  Cr  Cr17  1  0.32834451  0.66510845  0.32896730  1
  Ni  Ni18  1  0.66023421  0.99484263  -0.00443993  1
  Cr  Cr19  1  0.82664134  0.16216788  0.16520983  1
  Ni  Ni20  1  0.65925661  0.99419610  0.32728421  1
  Cr  Cr21  1  0.66285303  0.32643387  0.99416766  1
  Ni  Ni22  1  0.82920852  0.49732336  0.16512849  1
  Ni  Ni23  1  0.66462512  0.32983675  0.32756951  1
  Cr  Cr24  1  0.66463620  0.66266879  0.99334923  1
  Cr  Cr25  1  0.82873143  0.82782859  0.16172378  1
  Ni  Ni26  1  0.66405380  0.66268145  0.32901760  1
  Cr  Cr27  1  0.16117952  0.16339534  0.49882323  1
  Ni  Ni28  1  -0.00384424  0.99446420  0.66366353  1
  Cr  Cr29  1  0.16392691  0.15999978  0.82753046  1
  Ni  Ni30  1  0.15930931  0.49469456  0.49419592  1
  Cr  Cr31  1  0.99282472  0.33025730  0.66056507  1
  Cr  Cr32  1  0.16355426  0.49647328  0.82945444  1
  Cr  Cr33  1  0.16129393  0.82902589  0.49693977  1
  Cr  Cr34  1  0.99285881  0.66192807  0.66277770  1
  Cr  Cr35  1  0.15975451  0.83062642  0.83069409  1
  Cr  Cr36  1  0.49726097  0.16236438  0.49627734  1
  Ni  Ni37  1  0.33013438  -0.00265258  0.66204531  1
  Ni  Ni38  1  0.49527871  0.15980970  0.82782180  1
  Cr  Cr39  1  0.49755102  0.49526471  0.49576346  1
  Ni  Ni40  1  0.33016285  0.32614887  0.66202464  1
  Cr  Cr41  1  0.49545991  0.49155665  0.82597298  1
  Ni  Ni42  1  0.49685006  0.82975263  0.49355358  1
  Cr  Cr43  1  0.32891220  0.66299159  0.65836799  1
  Cr  Cr44  1  0.49526086  0.83025531  0.82883517  1
  Cr  Cr45  1  0.82745932  0.16314725  0.49241400  1
  Cr  Cr46  1  0.66268190  0.99433592  0.66224995  1
  Cr  Cr47  1  0.82784322  0.15809115  0.82840991  1
  Ni  Ni48  1  0.82834425  0.49518921  0.49201686  1
  Ni  Ni49  1  0.66190132  0.32868369  0.66341411  1
  Ni  Ni50  1  0.82880718  0.49685759  0.82894651  1
  Cr  Cr51  1  0.82699447  0.82819670  0.49358497  1
  Cr  Cr52  1  0.66461926  0.66157236  0.66292977  1
  Ni  Ni53  1  0.83035023  0.82884687  0.83103683  1
" 