1944,Ni59Fe14Cr26_17,-228.465841081404, 164.733253643638,Ni59Fe14Cr26,"# generated using pymatgen
 data_Cr16Fe7Ni31
_symmetry_space_group_name_H-M   'P 1'
_cell_length_a   7.47075379
_cell_length_b   7.47075379
_cell_length_c   10.56524133
_cell_angle_alpha   90.00000000
_cell_angle_beta   90.00000000
_cell_angle_gamma   90.00000000
_symmetry_Int_Tables_number   1
_chemical_formula_structural   Cr16Fe7Ni31
_chemical_formula_sum   'Cr16 Fe7 Ni31'
_cell_volume   589.66896250
_cell_formula_units_Z   1
loop_
 _symmetry_equiv_pos_site_id
 _symmetry_equiv_pos_as_xyz
  1  'x, y, z'
loop_
 _atom_site_type_symbol
 _atom_site_label
 _atom_site_symmetry_multiplicity
 _atom_site_fract_x
 _atom_site_fract_y
 _atom_site_fract_z
 _atom_site_occupancy
  Cr  Cr0  1  0.99932665  0.99972161  0.99795961  1
  Cr  Cr1  1  0.16664738  0.16789348  0.16539973  1
  Cr  Cr2  1  0.99722277  -0.00019897  0.33431629  1
  Ni  Ni3  1  0.00028443  0.33556128  -0.00022213  1
  Ni  Ni4  1  0.16408482  0.50120551  0.16712994  1
  Ni  Ni5  1  0.00099968  0.33444070  0.33206873  1
  Ni  Ni6  1  0.00032538  0.66418199  0.99935860  1
  Cr  Cr7  1  0.16764283  0.82980032  0.16620350  1
  Ni  Ni8  1  0.00169838  0.66529336  0.33293210  1
  Ni  Ni9  1  0.33388930  0.99813017  0.99934002  1
  Ni  Ni10  1  0.50165581  0.16407452  0.16710569  1
  Fe  Fe11  1  0.33557534  0.99839036  0.33446380  1
  Cr  Cr12  1  0.33164261  0.33426127  0.00014982  1
  Ni  Ni13  1  0.49897667  0.50058655  0.16628247  1
  Cr  Cr14  1  0.33190150  0.33494506  0.33384999  1
  Fe  Fe15  1  0.33197672  0.66684724  0.99916357  1
  Ni  Ni16  1  0.49968378  0.83459536  0.16728456  1
  Ni  Ni17  1  0.33256680  0.66575911  0.33323898  1
  Cr  Cr18  1  0.66640868  0.99794013  0.00198318  1
  Ni  Ni19  1  0.83111122  0.16783169  0.16788864  1
  Ni  Ni20  1  0.66552459  0.99922032  0.33215596  1
  Cr  Cr21  1  0.66751235  0.33421856  0.00104210  1
  Ni  Ni22  1  0.83619323  0.49923651  0.16555572  1
  Cr  Cr23  1  0.66608956  0.33105243  0.33157875  1
  Cr  Cr24  1  0.66646198  0.66709769  0.00007907  1
  Ni  Ni25  1  0.83173485  0.83218747  0.16717034  1
  Cr  Cr26  1  0.66547929  0.66915951  0.33166604  1
  Ni  Ni27  1  0.16697752  0.16534909  0.50143273  1
  Ni  Ni28  1  0.99880707  0.00026925  0.66687504  1
  Fe  Fe29  1  0.16437697  0.16507797  0.83196477  1
  Ni  Ni30  1  0.16557814  0.50074572  0.49806869  1
  Ni  Ni31  1  -0.00018451  0.33149113  0.66740870  1
  Ni  Ni32  1  0.16395305  0.50145378  0.83405728  1
  Ni  Ni33  1  0.16568558  0.83316012  0.50002243  1
  Ni  Ni34  1  -0.00023899  0.66749515  0.66696522  1
  Ni  Ni35  1  0.16591905  0.83213335  0.83304227  1
  Ni  Ni36  1  0.49995035  0.16443641  0.50032933  1
  Ni  Ni37  1  0.33260228  -0.00001079  0.66540850  1
  Cr  Cr38  1  0.50046041  0.16487835  0.83204040  1
  Ni  Ni39  1  0.49802941  0.49833586  0.49997592  1
  Cr  Cr40  1  0.33192615  0.33321044  0.66525559  1
  Ni  Ni41  1  0.49922585  0.50081344  0.83299666  1
  Fe  Fe42  1  0.49833425  0.83531479  0.49912781  1
  Cr  Cr43  1  0.33258922  0.66642942  0.66647414  1
  Ni  Ni44  1  0.49799065  0.83350415  0.83302679  1
  Fe  Fe45  1  0.83378665  0.16499046  0.50122414  1
  Ni  Ni46  1  0.66784744  -0.00006317  0.66565792  1
  Ni  Ni47  1  0.83470509  0.16690688  0.83018751  1
  Cr  Cr48  1  0.83559574  0.49979890  0.50096986  1
  Fe  Fe49  1  0.66770270  0.33107206  0.66646905  1
  Fe  Fe50  1  0.83579930  0.49993118  0.83288075  1
  Ni  Ni51  1  0.83473965  0.83508054  0.50052311  1
  Cr  Cr52  1  0.66648500  0.66774701  0.66751222  1
  Ni  Ni53  1  0.83534491  0.83362078  0.83156361  1
" 