6442,Ni59Cr41_13,-215.831646014079, 126.200604550704,Ni59Cr41,"# generated using pymatgen
 data_Cr31Ni23
_symmetry_space_group_name_H-M   'P 1'
_cell_length_a   7.53935886
_cell_length_b   7.53935886
_cell_length_c   10.66226355
_cell_angle_alpha   90.00000000
_cell_angle_beta   90.00000000
_cell_angle_gamma   90.00000000
_symmetry_Int_Tables_number   1
_chemical_formula_structural   Cr31Ni23
_chemical_formula_sum   'Cr31 Ni23'
_cell_volume   606.06365912
_cell_formula_units_Z   1
loop_
 _symmetry_equiv_pos_site_id
 _symmetry_equiv_pos_as_xyz
  1  'x, y, z'
loop_
 _atom_site_type_symbol
 _atom_site_label
 _atom_site_symmetry_multiplicity
 _atom_site_fract_x
 _atom_site_fract_y
 _atom_site_fract_z
 _atom_site_occupancy
  Ni  Ni0  1  0.99351212  -0.00165053  -0.00306511  1
  Ni  Ni1  1  0.15998487  0.16190680  0.16005743  1
  Cr  Cr2  1  0.99277403  -0.00347687  0.32885752  1
  Cr  Cr3  1  0.99480000  0.32653970  -0.00426826  1
  Ni  Ni4  1  0.16448149  0.49393697  0.16364214  1
  Cr  Cr5  1  -0.00416118  0.32728233  0.32762904  1
  Cr  Cr6  1  -0.00392657  0.66182128  -0.00471316  1
  Cr  Cr7  1  0.16283627  0.83001041  0.16153966  1
  Cr  Cr8  1  -0.00231030  0.66174369  0.32912937  1
  Ni  Ni9  1  0.32881740  0.99504112  -0.00428440  1
  Cr  Cr10  1  0.49535961  0.16238192  0.15996966  1
  Cr  Cr11  1  0.32787483  0.99464005  0.32686691  1
  Cr  Cr12  1  0.32946002  0.33015500  -0.00392981  1
  Ni  Ni13  1  0.49424261  0.49578549  0.16131545  1
  Cr  Cr14  1  0.32849815  0.33272676  0.32741506  1
  Cr  Cr15  1  0.33062035  0.66058461  0.99399950  1
  Cr  Cr16  1  0.49479818  0.82764319  0.16038808  1
  Ni  Ni17  1  0.32838075  0.65753474  0.32877666  1
  Ni  Ni18  1  0.66328458  -0.00382261  0.99413188  1
  Ni  Ni19  1  0.82976091  0.16132529  0.15912607  1
  Cr  Cr20  1  0.66495697  -0.00366565  0.33156356  1
  Ni  Ni21  1  0.66201901  0.32788293  -0.00403833  1
  Cr  Cr22  1  0.82634319  0.49414724  0.15959044  1
  Cr  Cr23  1  0.66125496  0.32793501  0.32755683  1
  Ni  Ni24  1  0.65866720  0.66151580  0.99434328  1
  Cr  Cr25  1  0.82803289  0.82890395  0.15976851  1
  Cr  Cr26  1  0.65921522  0.66126835  0.32946832  1
  Cr  Cr27  1  0.16165359  0.16513900  0.49701837  1
  Cr  Cr28  1  0.99039917  -0.00275109  0.66040322  1
  Cr  Cr29  1  0.16111026  0.16322873  0.82822464  1
  Ni  Ni30  1  0.16524115  0.49524149  0.49704930  1
  Ni  Ni31  1  -0.00268090  0.32854612  0.66154670  1
  Ni  Ni32  1  0.16472770  0.49421623  0.82479310  1
  Cr  Cr33  1  0.16228558  0.82571979  0.49402793  1
  Cr  Cr34  1  -0.00349118  0.66015349  0.66124222  1
  Cr  Cr35  1  0.16440253  0.82859312  0.83008487  1
  Cr  Cr36  1  0.49569358  0.16339972  0.49654532  1
  Cr  Cr37  1  0.33136234  0.99406169  0.66341334  1
  Cr  Cr38  1  0.49649000  0.16079796  0.82921485  1
  Ni  Ni39  1  0.49169180  0.49737388  0.49660066  1
  Ni  Ni40  1  0.32661405  0.33506031  0.66133672  1
  Ni  Ni41  1  0.49454049  0.49821207  0.82755082  1
  Cr  Cr42  1  0.49621427  0.82634613  0.49646348  1
  Ni  Ni43  1  0.33141909  0.65652839  0.66221115  1
  Ni  Ni44  1  0.49714476  0.82661700  0.82851044  1
  Ni  Ni45  1  0.82866073  0.16006420  0.49706003  1
  Ni  Ni46  1  0.66406169  0.99331312  0.66141688  1
  Ni  Ni47  1  0.82753501  0.16100734  0.82948257  1
  Cr  Cr48  1  0.82880585  0.49550311  0.49647001  1
  Cr  Cr49  1  0.66146824  0.32765544  0.66163159  1
  Cr  Cr50  1  0.82716474  0.49376556  0.82943926  1
  Ni  Ni51  1  0.82645348  0.83024639  0.49696580  1
  Ni  Ni52  1  0.65761159  0.66377145  0.66172193  1
  Cr  Cr53  1  0.82488135  0.82913089  0.82977699  1
" 