4565,Ni59Fe14Cr26_8,-229.02040042619, 175.284435093922,Ni59Fe14Cr26,"# generated using pymatgen
 data_Cr16Fe7Ni31
_symmetry_space_group_name_H-M   'P 1'
_cell_length_a   7.46633434
_cell_length_b   7.46633434
_cell_length_c   10.55899128
_cell_angle_alpha   90.00000000
_cell_angle_beta   90.00000000
_cell_angle_gamma   90.00000000
_symmetry_Int_Tables_number   1
_chemical_formula_structural   Cr16Fe7Ni31
_chemical_formula_sum   'Cr16 Fe7 Ni31'
_cell_volume   588.62309532
_cell_formula_units_Z   1
loop_
 _symmetry_equiv_pos_site_id
 _symmetry_equiv_pos_as_xyz
  1  'x, y, z'
loop_
 _atom_site_type_symbol
 _atom_site_label
 _atom_site_symmetry_multiplicity
 _atom_site_fract_x
 _atom_site_fract_y
 _atom_site_fract_z
 _atom_site_occupancy
  Ni  Ni0  1  0.00151606  0.99877711  0.00092145  1
  Ni  Ni1  1  0.16560268  0.16306565  0.16782422  1
  Ni  Ni2  1  0.00204145  0.99972921  0.33437965  1
  Ni  Ni3  1  0.99972075  0.33399799  0.99825298  1
  Cr  Cr4  1  0.16531518  0.49877556  0.16560993  1
  Ni  Ni5  1  0.00029349  0.33158372  0.33477577  1
  Ni  Ni6  1  0.00179337  0.66736850  0.00066381  1
  Ni  Ni7  1  0.16596867  0.83774357  0.16440382  1
  Cr  Cr8  1  0.99934093  0.66886284  0.33272999  1
  Ni  Ni9  1  0.33256236  0.99869326  0.99968859  1
  Fe  Fe10  1  0.49762178  0.16520922  0.16524361  1
  Ni  Ni11  1  0.33119519  0.00047488  0.33439694  1
  Cr  Cr12  1  0.33377952  0.33324027  0.00037027  1
  Ni  Ni13  1  0.50219183  0.50166834  0.16710014  1
  Cr  Cr14  1  0.33231722  0.33080654  0.33265356  1
  Ni  Ni15  1  0.33115155  0.66868306  0.99783252  1
  Cr  Cr16  1  0.49883078  0.83336878  0.16538029  1
  Cr  Cr17  1  0.33239115  0.66820292  0.33367836  1
  Ni  Ni18  1  0.66602088  0.00067344  0.99892379  1
  Cr  Cr19  1  0.83788122  0.16604654  0.16464433  1
  Cr  Cr20  1  0.66711516  0.99910155  0.33552880  1
  Cr  Cr21  1  0.66668374  0.33232821  0.99896286  1
  Ni  Ni22  1  0.83265246  0.50112771  0.16691283  1
  Cr  Cr23  1  0.66642490  0.33384018  0.33116935  1
  Cr  Cr24  1  0.66742689  0.66591730  0.00142499  1
  Ni  Ni25  1  0.83485000  0.83295728  0.16721974  1
  Fe  Fe26  1  0.66760074  0.66771312  0.33191993  1
  Ni  Ni27  1  0.16517111  0.16586437  0.49879252  1
  Cr  Cr28  1  0.00193167  0.99969262  0.66518811  1
  Ni  Ni29  1  0.16637003  0.16761524  0.83359751  1
  Ni  Ni30  1  0.16567598  0.49849654  0.50251453  1
  Ni  Ni31  1  0.00063645  0.33618128  0.66711224  1
  Ni  Ni32  1  0.16585989  0.49966883  0.83202783  1
  Ni  Ni33  1  0.16933926  0.83575844  0.50060031  1
  Ni  Ni34  1  0.00207835  0.66410168  0.66658032  1
  Fe  Fe35  1  0.16925295  0.83274665  0.83466102  1
  Fe  Fe36  1  0.49719366  0.16508305  0.50249332  1
  Ni  Ni37  1  0.33465139  0.00006008  0.66599455  1
  Ni  Ni38  1  0.49905770  0.16502639  0.83253533  1
  Cr  Cr39  1  0.49928862  0.50238555  0.50229613  1
  Ni  Ni40  1  0.33354488  0.33333649  0.66690499  1
  Ni  Ni41  1  0.49897328  0.50161458  0.83083906  1
  Ni  Ni42  1  0.49849138  0.83414931  0.50068347  1
  Fe  Fe43  1  0.33195563  0.66674023  0.66764850  1
  Ni  Ni44  1  0.49696370  0.83350172  0.83351500  1
  Ni  Ni45  1  0.83660806  0.16698872  0.50017618  1
  Cr  Cr46  1  0.66462586  0.00208731  0.66632809  1
  Ni  Ni47  1  0.83471002  0.16958624  0.83443825  1
  Cr  Cr48  1  0.83494479  0.49818827  0.50138869  1
  Ni  Ni49  1  0.66592910  0.33358163  0.66892627  1
  Ni  Ni50  1  0.83531403  0.49761830  0.83194765  1
  Fe  Fe51  1  0.83495151  0.83364763  0.49970226  1
  Fe  Fe52  1  0.66579590  0.66526991  0.66815996  1
  Cr  Cr53  1  0.83297421  0.83363155  0.83491471  1
" 