7625,Ni59Fe13Cr26_14,-230.020141566012, 174.854524378261,Ni59Fe13Cr26,"# generated using pymatgen
 data_Cr15Fe7Ni32
_symmetry_space_group_name_H-M   'P 1'
_cell_length_a   7.46564482
_cell_length_b   7.46564482
_cell_length_c   10.55801616
_cell_angle_alpha   90.00000000
_cell_angle_beta   90.00000000
_cell_angle_gamma   90.00000000
_symmetry_Int_Tables_number   1
_chemical_formula_structural   Cr15Fe7Ni32
_chemical_formula_sum   'Cr15 Fe7 Ni32'
_cell_volume   588.46003288
_cell_formula_units_Z   1
loop_
 _symmetry_equiv_pos_site_id
 _symmetry_equiv_pos_as_xyz
  1  'x, y, z'
loop_
 _atom_site_type_symbol
 _atom_site_label
 _atom_site_symmetry_multiplicity
 _atom_site_fract_x
 _atom_site_fract_y
 _atom_site_fract_z
 _atom_site_occupancy
  Cr  Cr0  1  0.00080443  0.99781514  0.00247937  1
  Fe  Fe1  1  0.17049196  0.16610058  0.16861165  1
  Ni  Ni2  1  0.00083756  0.99875575  0.33318229  1
  Cr  Cr3  1  0.00295860  0.33487856  0.00119855  1
  Ni  Ni4  1  0.16671072  0.50241170  0.16648269  1
  Ni  Ni5  1  0.00090810  0.33340511  0.33330064  1
  Ni  Ni6  1  0.99860473  0.66700272  0.00069105  1
  Ni  Ni7  1  0.16871816  0.83424030  0.16768628  1
  Cr  Cr8  1  0.00255389  0.66675232  0.33439916  1
  Ni  Ni9  1  0.33545809  0.00224483  0.00062635  1
  Ni  Ni10  1  0.49983250  0.16569805  0.16656726  1
  Ni  Ni11  1  0.33471128  0.99842083  0.33383742  1
  Ni  Ni12  1  0.33522806  0.33151929  0.00049587  1
  Ni  Ni13  1  0.50133387  0.50037086  0.16657330  1
  Cr  Cr14  1  0.33323231  0.33456941  0.33328624  1
  Cr  Cr15  1  0.33277903  0.66635135  0.00159970  1
  Ni  Ni16  1  0.49738730  0.83423072  0.16826677  1
  Ni  Ni17  1  0.33395850  0.66897627  0.33347720  1
  Cr  Cr18  1  0.66518606  0.99927537  0.99887937  1
  Cr  Cr19  1  0.83260112  0.16761111  0.17093175  1
  Ni  Ni20  1  0.66488478  0.99880207  0.33478041  1
  Ni  Ni21  1  0.66368353  0.33310082  0.00175345  1
  Ni  Ni22  1  0.83214906  0.50022882  0.16628069  1
  Ni  Ni23  1  0.66543631  0.33192658  0.33176661  1
  Fe  Fe24  1  0.66708402  0.66725438  0.00092469  1
  Fe  Fe25  1  0.83144707  0.83072406  0.16823107  1
  Fe  Fe26  1  0.66581317  0.66859707  0.33289671  1
  Ni  Ni27  1  0.16693613  0.16466198  0.50016561  1
  Ni  Ni28  1  0.99956110  0.99847237  0.66541227  1
  Fe  Fe29  1  0.16941699  0.16668871  0.83178575  1
  Ni  Ni30  1  0.16576184  0.49990149  0.50156214  1
  Ni  Ni31  1  0.00390275  0.33272051  0.66599335  1
  Ni  Ni32  1  0.16609097  0.49902386  0.83216733  1
  Ni  Ni33  1  0.16701102  0.83570673  0.49953733  1
  Ni  Ni34  1  0.99911067  0.66893227  0.66634276  1
  Cr  Cr35  1  0.16722082  0.83341725  0.83274968  1
  Ni  Ni36  1  0.49935874  0.16437837  0.50077091  1
  Fe  Fe37  1  0.33384600  0.00161517  0.66541846  1
  Ni  Ni38  1  0.49791933  0.16585197  0.83265591  1
  Cr  Cr39  1  0.50091853  0.49999578  0.49878703  1
  Ni  Ni40  1  0.33270219  0.33052667  0.66712230  1
  Cr  Cr41  1  0.49954011  0.49890859  0.83420506  1
  Ni  Ni42  1  0.49949457  0.83631505  0.49925074  1
  Cr  Cr43  1  0.33333045  0.66669422  0.66359239  1
  Ni  Ni44  1  0.50058860  0.83680822  0.83218179  1
  Cr  Cr45  1  0.83333688  0.16657637  0.49908029  1
  Fe  Fe46  1  0.66544084  0.99865630  0.66592762  1
  Cr  Cr47  1  0.83257021  0.16701032  0.83004703  1
  Cr  Cr48  1  0.83349860  0.49915927  0.50167448  1
  Ni  Ni49  1  0.66381690  0.33155670  0.66661451  1
  Cr  Cr50  1  0.83416840  0.50105537  0.83229752  1
  Ni  Ni51  1  0.83361753  0.83511130  0.50089693  1
  Ni  Ni52  1  0.66770382  0.67143779  0.66713240  1
  Ni  Ni53  1  0.83341503  0.83262653  0.83249514  1
" 