1478,Ni59Cr41_17,-216.138376303291, 135.290159935145,Ni59Cr41,"# generated using pymatgen
 data_Cr31Ni23
_symmetry_space_group_name_H-M   'P 1'
_cell_length_a   7.54064206
_cell_length_b   7.54064206
_cell_length_c   10.66407827
_cell_angle_alpha   90.00000000
_cell_angle_beta   90.00000000
_cell_angle_gamma   90.00000000
_symmetry_Int_Tables_number   1
_chemical_formula_structural   Cr31Ni23
_chemical_formula_sum   'Cr31 Ni23'
_cell_volume   606.37316829
_cell_formula_units_Z   1
loop_
 _symmetry_equiv_pos_site_id
 _symmetry_equiv_pos_as_xyz
  1  'x, y, z'
loop_
 _atom_site_type_symbol
 _atom_site_label
 _atom_site_symmetry_multiplicity
 _atom_site_fract_x
 _atom_site_fract_y
 _atom_site_fract_z
 _atom_site_occupancy
  Cr  Cr0  1  -0.00367570  -0.00299821  0.99489708  1
  Ni  Ni1  1  0.16140132  0.16490060  0.16173562  1
  Ni  Ni2  1  -0.00219048  -0.00105582  0.32849113  1
  Ni  Ni3  1  -0.00134121  0.32952057  0.99348248  1
  Cr  Cr4  1  0.16449087  0.49513621  0.15837293  1
  Cr  Cr5  1  -0.00065848  0.32738009  0.32914435  1
  Ni  Ni6  1  -0.00127431  0.65983072  0.99064645  1
  Cr  Cr7  1  0.16049485  0.82815984  0.15999160  1
  Cr  Cr8  1  -0.00166771  0.66298875  0.33127037  1
  Cr  Cr9  1  0.32560060  -0.00069201  -0.00481467  1
  Ni  Ni10  1  0.49269476  0.16700876  0.16220360  1
  Cr  Cr11  1  0.32470899  -0.00191687  0.32931107  1
  Ni  Ni12  1  0.32401577  0.32996954  -0.00337970  1
  Ni  Ni13  1  0.49259994  0.49007960  0.16148798  1
  Ni  Ni14  1  0.32837687  0.32740779  0.32756890  1
  Ni  Ni15  1  0.32492523  0.65864410  0.99267264  1
  Cr  Cr16  1  0.49166381  0.82533870  0.15962401  1
  Cr  Cr17  1  0.32742188  0.65987335  0.33205877  1
  Cr  Cr18  1  0.66194841  -0.00352021  -0.00439759  1
  Ni  Ni19  1  0.83066390  0.16411428  0.16336212  1
  Cr  Cr20  1  0.66028472  -0.00360451  0.32518599  1
  Cr  Cr21  1  0.66287341  0.32821862  -0.00333415  1
  Cr  Cr22  1  0.83153673  0.49412101  0.16157606  1
  Ni  Ni23  1  0.65983314  0.32652495  0.32473193  1
  Cr  Cr24  1  0.66509197  0.66027690  0.99384730  1
  Cr  Cr25  1  0.83257018  0.82996747  0.16207354  1
  Cr  Cr26  1  0.66099392  0.65885433  0.32883291  1
  Ni  Ni27  1  0.15995161  0.16224029  0.49543428  1
  Ni  Ni28  1  -0.00050655  -0.00462120  0.66233081  1
  Ni  Ni29  1  0.15833420  0.16382111  0.82860586  1
  Ni  Ni30  1  0.16355768  0.49360462  0.49662397  1
  Ni  Ni31  1  -0.00033065  0.32691056  0.66300219  1
  Ni  Ni32  1  0.15916978  0.49458645  0.83002196  1
  Ni  Ni33  1  0.16214409  0.82977233  0.49639927  1
  Cr  Cr34  1  -0.00250426  0.65872390  0.66243209  1
  Ni  Ni35  1  0.15931998  0.82659502  0.82830065  1
  Cr  Cr36  1  0.49467203  0.16244714  0.49590420  1
  Cr  Cr37  1  0.32398687  0.99450627  0.66113918  1
  Cr  Cr38  1  0.49077468  0.16375113  0.82841711  1
  Cr  Cr39  1  0.49271861  0.49402232  0.49451421  1
  Cr  Cr40  1  0.32258755  0.32932231  0.66200665  1
  Cr  Cr41  1  0.49005465  0.49531242  0.82949806  1
  Ni  Ni42  1  0.49094102  0.82710790  0.49696357  1
  Ni  Ni43  1  0.32402803  0.66227534  0.66061835  1
  Cr  Cr44  1  0.49121735  0.82711381  0.82835888  1
  Cr  Cr45  1  0.83111902  0.16163083  0.49613656  1
  Cr  Cr46  1  0.66207962  0.99292775  0.66449898  1
  Cr  Cr47  1  0.83202910  0.16224241  0.82537271  1
  Cr  Cr48  1  0.83060700  0.49140738  0.49464188  1
  Cr  Cr49  1  0.66572793  0.33105332  0.66401921  1
  Ni  Ni50  1  0.83459269  0.49503432  0.82958700  1
  Cr  Cr51  1  0.83041060  0.83168656  0.49383461  1
  Cr  Cr52  1  0.66224960  0.66194073  0.66285269  1
  Ni  Ni53  1  0.83417231  0.82654440  0.82833031  1
" 