4621,Ni59Fe14Cr26_16,-228.70205782395, 166.181233973506,Ni59Fe14Cr26,"# generated using pymatgen
 data_Cr16Fe7Ni31
_symmetry_space_group_name_H-M   'P 1'
_cell_length_a   7.47053961
_cell_length_b   7.47053961
_cell_length_c   10.56493843
_cell_angle_alpha   90.00000000
_cell_angle_beta   90.00000000
_cell_angle_gamma   90.00000000
_symmetry_Int_Tables_number   1
_chemical_formula_structural   Cr16Fe7Ni31
_chemical_formula_sum   'Cr16 Fe7 Ni31'
_cell_volume   589.61824722
_cell_formula_units_Z   1
loop_
 _symmetry_equiv_pos_site_id
 _symmetry_equiv_pos_as_xyz
  1  'x, y, z'
loop_
 _atom_site_type_symbol
 _atom_site_label
 _atom_site_symmetry_multiplicity
 _atom_site_fract_x
 _atom_site_fract_y
 _atom_site_fract_z
 _atom_site_occupancy
  Ni  Ni0  1  0.99901026  0.00011974  0.99816199  1
  Ni  Ni1  1  0.16911669  0.16587894  0.16874308  1
  Ni  Ni2  1  0.00049690  0.99901273  0.33309576  1
  Ni  Ni3  1  0.00307498  0.32995392  0.99788198  1
  Cr  Cr4  1  0.16882279  0.49872433  0.16130290  1
  Cr  Cr5  1  0.00068690  0.33346738  0.33510022  1
  Ni  Ni6  1  0.99958241  0.66950685  0.99605153  1
  Cr  Cr7  1  0.16393546  0.83524044  0.16338597  1
  Cr  Cr8  1  0.99745295  0.66761376  0.33572397  1
  Cr  Cr9  1  0.33515526  0.99892622  0.99911638  1
  Ni  Ni10  1  0.49852940  0.16659148  0.16722690  1
  Ni  Ni11  1  0.33417550  0.00141914  0.33256711  1
  Ni  Ni12  1  0.33125634  0.33184050  0.99943741  1
  Ni  Ni13  1  0.49948212  0.49873000  0.16646069  1
  Ni  Ni14  1  0.33587242  0.33165253  0.33420499  1
  Ni  Ni15  1  0.33541795  0.66712601  0.99904232  1
  Ni  Ni16  1  0.50258754  0.83395847  0.16752607  1
  Cr  Cr17  1  0.33642722  0.66772548  0.33193641  1
  Ni  Ni18  1  0.66691459  0.99567376  0.99856338  1
  Cr  Cr19  1  0.83377768  0.16310049  0.16616920  1
  Fe  Fe20  1  0.66466243  0.99798325  0.33201781  1
  Cr  Cr21  1  0.66453936  0.32881493  0.99824277  1
  Cr  Cr22  1  0.83123516  0.50217684  0.16350834  1
  Ni  Ni23  1  0.66332747  0.33548090  0.33317922  1
  Ni  Ni24  1  0.66438860  0.67123844  0.00191828  1
  Ni  Ni25  1  0.83068157  0.83500641  0.16544572  1
  Fe  Fe26  1  0.66574893  0.66772066  0.33385881  1
  Fe  Fe27  1  0.16734030  0.16620228  0.49990583  1
  Ni  Ni28  1  -0.00000884  0.99928126  0.66786584  1
  Ni  Ni29  1  0.16601132  0.16563451  0.83193062  1
  Ni  Ni30  1  0.17015995  0.50039601  0.50309026  1
  Cr  Cr31  1  0.00008531  0.33354206  0.66557833  1
  Ni  Ni32  1  0.16844326  0.50065516  0.83383021  1
  Cr  Cr33  1  0.16709262  0.83609055  0.50211468  1
  Fe  Fe34  1  0.99895200  0.66944922  0.66714329  1
  Ni  Ni35  1  0.16642462  0.83280948  0.83248963  1
  Cr  Cr36  1  0.49809140  0.16438345  0.50133954  1
  Ni  Ni37  1  0.33276276  0.99716022  0.66809012  1
  Fe  Fe38  1  0.49840487  0.16266732  0.83233853  1
  Ni  Ni39  1  0.49900013  0.49945606  0.49940335  1
  Fe  Fe40  1  0.33263374  0.33252822  0.66711139  1
  Cr  Cr41  1  0.49673467  0.50275221  0.83389031  1
  Fe  Fe42  1  0.50132917  0.83204303  0.50135977  1
  Ni  Ni43  1  0.33390496  0.66739919  0.66673257  1
  Ni  Ni44  1  0.50055480  0.83296582  0.83081445  1
  Cr  Cr45  1  0.83108561  0.16187699  0.49849443  1
  Ni  Ni46  1  0.66638659  0.99557218  0.66878426  1
  Ni  Ni47  1  0.83458391  0.16119102  0.83402898  1
  Ni  Ni48  1  0.83017500  0.50267281  0.50014523  1
  Cr  Cr49  1  0.66761671  0.33310777  0.66866633  1
  Cr  Cr50  1  0.83422073  0.50372652  0.83542423  1
  Ni  Ni51  1  0.83182695  0.83364831  0.50083275  1
  Ni  Ni52  1  0.66487293  0.66919005  0.66318929  1
  Ni  Ni53  1  0.83233490  0.83629399  0.83291583  1
" 