831,Ni59Fe14Cr26_3,-229.049917353424, 170.948213288828,Ni59Fe14Cr26,"# generated using pymatgen
 data_Cr16Fe7Ni31
_symmetry_space_group_name_H-M   'P 1'
_cell_length_a   7.47214403
_cell_length_b   7.47214403
_cell_length_c   10.56720742
_cell_angle_alpha   90.00000000
_cell_angle_beta   90.00000000
_cell_angle_gamma   90.00000000
_symmetry_Int_Tables_number   1
_chemical_formula_structural   Cr16Fe7Ni31
_chemical_formula_sum   'Cr16 Fe7 Ni31'
_cell_volume   589.99821918
_cell_formula_units_Z   1
loop_
 _symmetry_equiv_pos_site_id
 _symmetry_equiv_pos_as_xyz
  1  'x, y, z'
loop_
 _atom_site_type_symbol
 _atom_site_label
 _atom_site_symmetry_multiplicity
 _atom_site_fract_x
 _atom_site_fract_y
 _atom_site_fract_z
 _atom_site_occupancy
  Cr  Cr0  1  0.99858166  0.99881053  0.99954724  1
  Ni  Ni1  1  0.16495107  0.16581956  0.17003457  1
  Fe  Fe2  1  0.00059471  0.00170006  0.33092757  1
  Cr  Cr3  1  0.99864868  0.33448352  0.99955511  1
  Ni  Ni4  1  0.16528941  0.50110381  0.16724269  1
  Ni  Ni5  1  -0.00022347  0.33269972  0.33377921  1
  Ni  Ni6  1  0.99920581  0.66634211  0.00006461  1
  Ni  Ni7  1  0.16491879  0.83204619  0.16642401  1
  Ni  Ni8  1  0.99934742  0.66447732  0.33120131  1
  Cr  Cr9  1  0.33379362  0.99813369  0.99831267  1
  Cr  Cr10  1  0.50073923  0.16741512  0.16669648  1
  Ni  Ni11  1  0.33269157  0.00182032  0.33354429  1
  Cr  Cr12  1  0.33268333  0.33415595  0.00072774  1
  Ni  Ni13  1  0.50072049  0.50044845  0.16470167  1
  Ni  Ni14  1  0.33069442  0.32971504  0.33305608  1
  Ni  Ni15  1  0.33278094  0.66760435  0.00055232  1
  Ni  Ni16  1  0.50057003  0.83224444  0.16588412  1
  Cr  Cr17  1  0.33195148  0.66644303  0.33139612  1
  Ni  Ni18  1  0.66665500  0.99826703  0.99915147  1
  Ni  Ni19  1  0.83282200  0.16595802  0.16780969  1
  Fe  Fe20  1  0.66598935  0.00162700  0.33210648  1
  Ni  Ni21  1  0.66793487  0.33318258  0.99965188  1
  Ni  Ni22  1  0.83297501  0.50048751  0.16636339  1
  Ni  Ni23  1  0.66851799  0.33106967  0.33314116  1
  Ni  Ni24  1  0.66698320  0.66752483  0.00050685  1
  Ni  Ni25  1  0.83349323  0.83252966  0.16549894  1
  Cr  Cr26  1  0.66804086  0.66598059  0.33158440  1
  Ni  Ni27  1  0.16678566  0.16817292  0.49757933  1
  Cr  Cr28  1  0.00016782  0.00327971  0.66851173  1
  Ni  Ni29  1  0.16576329  0.16658801  0.83139190  1
  Ni  Ni30  1  0.16371283  0.49709026  0.49965471  1
  Ni  Ni31  1  0.99812725  0.33350979  0.66587773  1
  Ni  Ni32  1  0.16388949  0.50088006  0.83209950  1
  Cr  Cr33  1  0.16670624  0.83302535  0.49881680  1
  Cr  Cr34  1  0.99954008  0.66245720  0.66752071  1
  Fe  Fe35  1  0.16802699  0.83012818  0.83413729  1
  Ni  Ni36  1  0.49976263  0.16597933  0.49786728  1
  Cr  Cr37  1  0.33398693  0.99910614  0.66737446  1
  Ni  Ni38  1  0.50152815  0.16442321  0.83359606  1
  Cr  Cr39  1  0.50072150  0.49808333  0.50160698  1
  Cr  Cr40  1  0.33084770  0.33265527  0.66607312  1
  Cr  Cr41  1  0.50151849  0.50058909  0.83342785  1
  Fe  Fe42  1  0.49880498  0.83391270  0.50009265  1
  Ni  Ni43  1  0.33403597  0.66730249  0.66697605  1
  Ni  Ni44  1  0.50077785  0.83310666  0.83244274  1
  Fe  Fe45  1  0.83345526  0.17084773  0.49811730  1
  Cr  Cr46  1  0.66481847  0.00009463  0.66663283  1
  Fe  Fe47  1  0.83100196  0.16891737  0.83350207  1
  Ni  Ni48  1  0.83410053  0.49741889  0.50050250  1
  Ni  Ni49  1  0.66979534  0.33336478  0.66619939  1
  Ni  Ni50  1  0.83332359  0.50016164  0.83210273  1
  Cr  Cr51  1  0.83251811  0.83186296  0.49818951  1
  Ni  Ni52  1  0.66553026  0.66551090  0.66683165  1
  Fe  Fe53  1  0.83098645  0.83102584  0.83499755  1
" 