4710,Ni59Cr41_6,-216.06634231754, 129.987211376002,Ni59Cr41,"# generated using pymatgen
 data_Cr31Ni23
_symmetry_space_group_name_H-M   'P 1'
_cell_length_a   7.53692560
_cell_length_b   7.53692560
_cell_length_c   10.65882241
_cell_angle_alpha   90.00000000
_cell_angle_beta   90.00000000
_cell_angle_gamma   90.00000000
_symmetry_Int_Tables_number   1
_chemical_formula_structural   Cr31Ni23
_chemical_formula_sum   'Cr31 Ni23'
_cell_volume   605.47704545
_cell_formula_units_Z   1
loop_
 _symmetry_equiv_pos_site_id
 _symmetry_equiv_pos_as_xyz
  1  'x, y, z'
loop_
 _atom_site_type_symbol
 _atom_site_label
 _atom_site_symmetry_multiplicity
 _atom_site_fract_x
 _atom_site_fract_y
 _atom_site_fract_z
 _atom_site_occupancy
  Cr  Cr0  1  -0.00170531  -0.00387557  -0.00439330  1
  Ni  Ni1  1  0.15869741  0.15894308  0.16470219  1
  Ni  Ni2  1  -0.00394528  -0.00306214  0.32830035  1
  Cr  Cr3  1  -0.00398672  0.32723770  -0.00327864  1
  Cr  Cr4  1  0.16120989  0.49297180  0.16310876  1
  Ni  Ni5  1  0.99423678  0.32566573  0.32947940  1
  Cr  Cr6  1  -0.00208382  0.66216366  0.99261688  1
  Ni  Ni7  1  0.16122874  0.83243445  0.16420986  1
  Cr  Cr8  1  -0.00397963  0.66088503  0.33111510  1
  Cr  Cr9  1  0.32623778  -0.00405060  0.99496440  1
  Cr  Cr10  1  0.49437248  0.16159285  0.16353766  1
  Ni  Ni11  1  0.32531693  0.99447269  0.32753862  1
  Cr  Cr12  1  0.32755885  0.32750169  0.99300640  1
  Cr  Cr13  1  0.49547460  0.49610296  0.16262182  1
  Cr  Cr14  1  0.32447904  0.32762092  0.32905043  1
  Cr  Cr15  1  0.32636108  0.66277169  0.99451678  1
  Cr  Cr16  1  0.49590830  0.82871988  0.16540954  1
  Cr  Cr17  1  0.32619094  0.66379753  0.32994789  1
  Cr  Cr18  1  0.66172425  -0.00199012  0.99468122  1
  Ni  Ni19  1  0.83191253  0.16075041  0.16546105  1
  Ni  Ni20  1  0.66448802  -0.00371389  0.32865277  1
  Cr  Cr21  1  0.66249857  0.32818082  0.99241105  1
  Cr  Cr22  1  0.82948475  0.49441825  0.16276919  1
  Cr  Cr23  1  0.66593229  0.32876944  0.33071656  1
  Cr  Cr24  1  0.66233786  0.65986908  0.99422710  1
  Cr  Cr25  1  0.82951285  0.83006438  0.16235731  1
  Ni  Ni26  1  0.66411384  0.66298346  0.32975717  1
  Cr  Cr27  1  0.16015593  0.16198568  0.49462708  1
  Ni  Ni28  1  -0.00180538  0.99399114  0.66188165  1
  Ni  Ni29  1  0.16342310  0.16280198  0.82721930  1
  Ni  Ni30  1  0.15955853  0.49634337  0.49756372  1
  Cr  Cr31  1  0.99448978  0.32989834  0.66034926  1
  Ni  Ni32  1  0.16256579  0.49531459  0.82604441  1
  Ni  Ni33  1  0.16045969  0.82838884  0.49655316  1
  Ni  Ni34  1  -0.00082789  0.66141836  0.66226640  1
  Ni  Ni35  1  0.16139855  0.82781135  0.82554934  1
  Cr  Cr36  1  0.49483629  0.16251246  0.49666164  1
  Cr  Cr37  1  0.32647429  0.99481452  0.66336679  1
  Ni  Ni38  1  0.49297988  0.16674983  0.82629358  1
  Cr  Cr39  1  0.49293144  0.49494843  0.49681315  1
  Ni  Ni40  1  0.32836986  0.33142390  0.66514119  1
  Ni  Ni41  1  0.49371304  0.49297939  0.82596607  1
  Cr  Cr42  1  0.49389386  0.82913439  0.49244697  1
  Ni  Ni43  1  0.32404874  0.65965424  0.66270994  1
  Cr  Cr44  1  0.49465280  0.82784068  0.82794697  1
  Ni  Ni45  1  0.83048493  0.16275104  0.49411995  1
  Cr  Cr46  1  0.66337897  -0.00030475  0.66203805  1
  Cr  Cr47  1  0.83096391  0.16221110  0.82672245  1
  Ni  Ni48  1  0.83090744  0.49393211  0.49559903  1
  Ni  Ni49  1  0.66169822  0.33010643  0.66301372  1
  Ni  Ni50  1  0.82978894  0.49458737  0.82661242  1
  Cr  Cr51  1  0.83142920  0.83087276  0.49611489  1
  Cr  Cr52  1  0.66376325  0.65875506  0.66145282  1
  Cr  Cr53  1  0.83236148  0.82752394  0.82711017  1
" 