2592,Ni59Fe14Cr26_6,-229.034068753794, 170.382129487678,Ni59Fe14Cr26,"# generated using pymatgen
 data_Cr16Fe7Ni31
_symmetry_space_group_name_H-M   'P 1'
_cell_length_a   7.46536893
_cell_length_b   7.46536893
_cell_length_c   10.55762599
_cell_angle_alpha   90.00000000
_cell_angle_beta   90.00000000
_cell_angle_gamma   90.00000000
_symmetry_Int_Tables_number   1
_chemical_formula_structural   Cr16Fe7Ni31
_chemical_formula_sum   'Cr16 Fe7 Ni31'
_cell_volume   588.39479597
_cell_formula_units_Z   1
loop_
 _symmetry_equiv_pos_site_id
 _symmetry_equiv_pos_as_xyz
  1  'x, y, z'
loop_
 _atom_site_type_symbol
 _atom_site_label
 _atom_site_symmetry_multiplicity
 _atom_site_fract_x
 _atom_site_fract_y
 _atom_site_fract_z
 _atom_site_occupancy
  Fe  Fe0  1  0.00045152  0.00038100  0.00134333  1
  Ni  Ni1  1  0.16508419  0.16870090  0.16429941  1
  Cr  Cr2  1  0.99977430  0.00038205  0.33402706  1
  Ni  Ni3  1  0.00220479  0.33367164  0.00111011  1
  Ni  Ni4  1  0.16549021  0.50018260  0.16575311  1
  Ni  Ni5  1  0.99919590  0.33443910  0.33334924  1
  Ni  Ni6  1  0.00290856  0.66641775  0.00075199  1
  Fe  Fe7  1  0.16600455  0.83216550  0.16492966  1
  Ni  Ni8  1  0.00064920  0.66578012  0.33337194  1
  Ni  Ni9  1  0.33304158  0.99904410  0.00029142  1
  Ni  Ni10  1  0.50161354  0.16713578  0.16584037  1
  Cr  Cr11  1  0.33288524  0.99920775  0.33409337  1
  Ni  Ni12  1  0.33066998  0.33367489  0.00152577  1
  Ni  Ni13  1  0.50001150  0.50055248  0.16716489  1
  Cr  Cr14  1  0.33345253  0.33500970  0.33339263  1
  Ni  Ni15  1  0.33117151  0.66761917  0.99979303  1
  Cr  Cr16  1  0.50126226  0.83291074  0.16569440  1
  Fe  Fe17  1  0.33321899  0.66522152  0.33450645  1
  Ni  Ni18  1  0.66626071  0.99974797  0.99982872  1
  Ni  Ni19  1  0.83363897  0.16687766  0.16681420  1
  Ni  Ni20  1  0.66787854  0.00039305  0.33453748  1
  Cr  Cr21  1  0.66753727  0.33259677  0.00284337  1
  Fe  Fe22  1  0.83425630  0.49969603  0.16775404  1
  Ni  Ni23  1  0.66793800  0.33379947  0.33153814  1
  Ni  Ni24  1  0.66625841  0.66879349  0.00066081  1
  Fe  Fe25  1  0.83339423  0.83272327  0.16605060  1
  Ni  Ni26  1  0.66676404  0.66614318  0.33420306  1
  Ni  Ni27  1  0.16367032  0.16891028  0.50117179  1
  Cr  Cr28  1  0.99911789  0.00049304  0.66507852  1
  Cr  Cr29  1  0.16534000  0.16905589  0.83466694  1
  Ni  Ni30  1  0.16593295  0.50048712  0.50098603  1
  Ni  Ni31  1  0.00192573  0.33411676  0.66587643  1
  Ni  Ni32  1  0.16527372  0.50113679  0.83359800  1
  Ni  Ni33  1  0.16656491  0.83093960  0.49884520  1
  Ni  Ni34  1  0.00171082  0.66513969  0.66621343  1
  Ni  Ni35  1  0.16776825  0.83055144  0.83674996  1
  Cr  Cr36  1  0.50187056  0.16575138  0.49978418  1
  Cr  Cr37  1  0.33400700  0.99848831  0.66591443  1
  Cr  Cr38  1  0.50077320  0.16361094  0.83452529  1
  Ni  Ni39  1  0.49954313  0.50373364  0.49905169  1
  Fe  Fe40  1  0.33013730  0.33574583  0.66521218  1
  Cr  Cr41  1  0.49798816  0.50302313  0.83398729  1
  Ni  Ni42  1  0.50247825  0.83126364  0.50016585  1
  Cr  Cr43  1  0.33264110  0.66666071  0.66600932  1
  Ni  Ni44  1  0.50077671  0.83363369  0.83466683  1
  Ni  Ni45  1  0.83453983  0.16597414  0.49978444  1
  Ni  Ni46  1  0.66715514  0.99845033  0.66596926  1
  Ni  Ni47  1  0.83426104  0.16559230  0.83374028  1
  Cr  Cr48  1  0.83484915  0.50063097  0.49932500  1
  Cr  Cr49  1  0.66808503  0.33268683  0.66672501  1
  Cr  Cr50  1  0.83709738  0.50059036  0.83340732  1
  Fe  Fe51  1  0.83186914  0.83300036  0.50024141  1
  Ni  Ni52  1  0.66602040  0.66952599  0.66547160  1
  Cr  Cr53  1  0.83165736  0.83361045  0.83343499  1
" 