2372,Ni59Cr41_9,-216.048730590714, 130.348630770782,Ni59Cr41,"# generated using pymatgen
 data_Cr31Ni23
_symmetry_space_group_name_H-M   'P 1'
_cell_length_a   7.54120092
_cell_length_b   7.54120092
_cell_length_c   10.66486862
_cell_angle_alpha   90.00000000
_cell_angle_beta   90.00000000
_cell_angle_gamma   90.00000000
_symmetry_Int_Tables_number   1
_chemical_formula_structural   Cr31Ni23
_chemical_formula_sum   'Cr31 Ni23'
_cell_volume   606.50800056
_cell_formula_units_Z   1
loop_
 _symmetry_equiv_pos_site_id
 _symmetry_equiv_pos_as_xyz
  1  'x, y, z'
loop_
 _atom_site_type_symbol
 _atom_site_label
 _atom_site_symmetry_multiplicity
 _atom_site_fract_x
 _atom_site_fract_y
 _atom_site_fract_z
 _atom_site_occupancy
  Cr  Cr0  1  0.99354694  -0.00358150  0.99236928  1
  Cr  Cr1  1  0.16070889  0.15776546  0.16214833  1
  Ni  Ni2  1  0.99321494  -0.00380020  0.33238584  1
  Cr  Cr3  1  -0.00317374  0.33200864  0.99473890  1
  Ni  Ni4  1  0.16431187  0.49843654  0.16027316  1
  Cr  Cr5  1  -0.00354067  0.32677080  0.32880173  1
  Ni  Ni6  1  -0.00262364  0.66012946  0.99175292  1
  Cr  Cr7  1  0.16235712  0.82541674  0.16155022  1
  Cr  Cr8  1  -0.00341991  0.65857870  0.33097211  1
  Cr  Cr9  1  0.33085889  0.99123441  0.99027991  1
  Cr  Cr10  1  0.49621244  0.16387942  0.16016161  1
  Cr  Cr11  1  0.33001078  0.99188588  0.33132603  1
  Cr  Cr12  1  0.32432674  0.33092336  0.99290499  1
  Ni  Ni13  1  0.49061085  0.50000583  0.16164135  1
  Cr  Cr14  1  0.32425872  0.33261568  0.32972227  1
  Ni  Ni15  1  0.32743797  0.65980694  -0.00417462  1
  Ni  Ni16  1  0.49300870  0.82345152  0.16142112  1
  Ni  Ni17  1  0.32814426  0.66072770  0.32756046  1
  Cr  Cr18  1  0.66108317  0.99124581  -0.00457155  1
  Ni  Ni19  1  0.83069096  0.16006669  0.16338611  1
  Cr  Cr20  1  0.66335949  0.99319266  0.32866026  1
  Cr  Cr21  1  0.66445577  0.33013569  -0.00234191  1
  Cr  Cr22  1  0.82891343  0.49632473  0.15976279  1
  Cr  Cr23  1  0.66447827  0.32910467  0.32565990  1
  Cr  Cr24  1  0.66147943  0.66361067  0.99283039  1
  Cr  Cr25  1  0.83337259  0.82910537  0.16205338  1
  Cr  Cr26  1  0.65812636  0.66482486  0.32991961  1
  Ni  Ni27  1  0.15864298  0.16218346  0.49750127  1
  Ni  Ni28  1  0.99260399  0.99479520  0.66068658  1
  Ni  Ni29  1  0.16017108  0.16398342  0.82490674  1
  Ni  Ni30  1  0.16272017  0.49547577  0.49687728  1
  Cr  Cr31  1  -0.00207479  0.33052257  0.66209579  1
  Ni  Ni32  1  0.16081298  0.49757024  0.82782179  1
  Cr  Cr33  1  0.15820688  0.82807152  0.49360150  1
  Ni  Ni34  1  0.99263198  0.66303483  0.66314402  1
  Cr  Cr35  1  0.15809378  0.82736132  0.82979007  1
  Cr  Cr36  1  0.49587065  0.16476788  0.49964815  1
  Cr  Cr37  1  0.32573298  -0.00454019  0.66299382  1
  Cr  Cr38  1  0.49365878  0.16356393  0.82513505  1
  Cr  Cr39  1  0.49521484  0.49499717  0.49759550  1
  Ni  Ni40  1  0.32551918  0.32996886  0.66178235  1
  Cr  Cr41  1  0.49743784  0.49372712  0.82473454  1
  Ni  Ni42  1  0.49614030  0.82563883  0.49586643  1
  Cr  Cr43  1  0.32760259  0.66178548  0.66085416  1
  Ni  Ni44  1  0.49608726  0.82377300  0.82795499  1
  Ni  Ni45  1  0.83095345  0.15929299  0.49583719  1
  Cr  Cr46  1  0.66187657  0.98935255  0.66181479  1
  Cr  Cr47  1  0.82750567  0.16284819  0.82775472  1
  Cr  Cr48  1  0.82785440  0.49676092  0.49992674  1
  Ni  Ni49  1  0.66445952  0.32980677  0.66208015  1
  Ni  Ni50  1  0.83165414  0.49971553  0.82625442  1
  Ni  Ni51  1  0.82896962  0.83004154  0.49813051  1
  Ni  Ni52  1  0.66461203  0.66195474  0.66282226  1
  Ni  Ni53  1  0.82933707  0.82418638  0.82570117  1
" 