61,Ni5Cr95_14,-238.676994466483, 174.582043203501,Ni5Cr95,"# generated using pymatgen
 data_CrNi26
_symmetry_space_group_name_H-M   'P 1'
_cell_length_a   7.46496854
_cell_length_b   7.46496854
_cell_length_c   10.55705975
_cell_angle_alpha   90.00000000
_cell_angle_beta   90.00000000
_cell_angle_gamma   90.00000000
_symmetry_Int_Tables_number   1
_chemical_formula_structural   CrNi26
_chemical_formula_sum   'Cr2 Ni52'
_cell_volume   588.30012768
_cell_formula_units_Z   2
loop_
 _symmetry_equiv_pos_site_id
 _symmetry_equiv_pos_as_xyz
  1  'x, y, z'
loop_
 _atom_site_type_symbol
 _atom_site_label
 _atom_site_symmetry_multiplicity
 _atom_site_fract_x
 _atom_site_fract_y
 _atom_site_fract_z
 _atom_site_occupancy
  Ni  Ni0  1  0.99992267  0.00035584  0.99969544  1
  Ni  Ni1  1  0.16697343  0.16685046  0.16652921  1
  Ni  Ni2  1  1.00013002  0.00014849  0.33347259  1
  Ni  Ni3  1  0.00092599  0.33247080  0.00069499  1
  Ni  Ni4  1  0.16663841  0.50009472  0.16652921  1
  Ni  Ni5  1  0.00013984  0.33346275  0.33347259  1
  Ni  Ni6  1  0.00092400  0.66759066  0.00091876  1
  Ni  Ni7  1  0.16680592  0.83347259  0.16670020  1
  Ni  Ni8  1  0.00013987  0.66680654  0.33347259  1
  Ni  Ni9  1  0.33268785  0.99935451  0.00091876  1
  Ni  Ni10  1  0.50018384  0.16685050  0.16688652  1
  Ni  Ni11  1  0.33347197  1.00013864  0.33347259  1
  Ni  Ni12  1  0.33268585  0.33447437  0.00069499  1
  Ni  Ni13  1  0.50035153  0.49992698  0.16635735  1
  Ni  Ni14  1  0.33347201  0.33348243  0.33347259  1
  Ni  Ni15  1  0.33368917  0.66658934  0.99969544  1
  Ni  Ni16  1  0.50018379  0.83364010  0.16652921  1
  Ni  Ni17  1  0.33348182  0.66679669  0.33347259  1
  Ni  Ni18  1  0.66780771  0.99935252  0.00069499  1
  Ni  Ni19  1  0.83326031  0.16701820  0.16635735  1
  Ni  Ni20  1  0.66681576  1.00013867  0.33347259  1
  Ni  Ni21  1  0.66680592  0.33347259  0.00169867  1
  Ni  Ni22  1  0.83342801  0.50009468  0.16688652  1
  Ni  Ni23  1  0.66680592  0.33347259  0.33347259  1
  Ni  Ni24  1  0.66580414  0.66759266  0.00069499  1
  Ni  Ni25  1  0.83342805  0.83330508  0.16652921  1
  Ni  Ni26  1  0.66679608  0.66680650  0.33347259  1
  Ni  Ni27  1  0.16697343  0.16685046  0.50041596  1
  Ni  Ni28  1  0.99992267  0.00035584  0.66724974  1
  Ni  Ni29  1  0.16528818  0.16667598  0.83347259  1
  Ni  Ni30  1  0.16663841  0.50009472  0.50041596  1
  Ni  Ni31  1  0.00092599  0.33247080  0.66625019  1
  Ni  Ni32  1  0.16832366  0.50026919  0.83347259  1
  Ni  Ni33  1  0.16680592  0.83347259  0.50024498  1
  Ni  Ni34  1  0.00092400  0.66759066  0.66602642  1
  Ni  Ni35  1  0.16680592  0.83347259  0.83347259  1
  Ni  Ni36  1  0.50018384  0.16685050  0.50005866  1
  Ni  Ni37  1  0.33268785  0.99935451  0.66602642  1
  Cr  Cr38  1  0.50016800  0.16683467  0.83347259  1
  Ni  Ni39  1  0.50035153  0.49992698  0.50058783  1
  Ni  Ni40  1  0.33268585  0.33447437  0.66625019  1
  Ni  Ni41  1  0.49848435  0.50179416  0.83347259  1
  Ni  Ni42  1  0.50018379  0.83364010  0.50041596  1
  Ni  Ni43  1  0.33368917  0.66658934  0.66724974  1
  Ni  Ni44  1  0.50000932  0.83195485  0.83347259  1
  Ni  Ni45  1  0.83326031  0.16701820  0.50058783  1
  Ni  Ni46  1  0.66780771  0.99935252  0.66625019  1
  Ni  Ni47  1  0.83512749  0.16515102  0.83347259  1
  Ni  Ni48  1  0.83342801  0.50009468  0.50005866  1
  Ni  Ni49  1  0.66680592  0.33347259  0.66524650  1
  Cr  Cr50  1  0.83344384  0.50011051  0.83347259  1
  Ni  Ni51  1  0.83342805  0.83330508  0.50041596  1
  Ni  Ni52  1  0.66580414  0.66759266  0.66625019  1
  Ni  Ni53  1  0.83360253  0.83499033  0.83347259  1
" 