7621,Ni5Cr95_5,-238.655783016764, 174.426363192159,Ni5Cr95,"# generated using pymatgen
 data_CrNi26
_symmetry_space_group_name_H-M   'P 1'
_cell_length_a   7.46677924
_cell_length_b   7.46677924
_cell_length_c   10.55962047
_cell_angle_alpha   90.00000000
_cell_angle_beta   90.00000000
_cell_angle_gamma   90.00000000
_symmetry_Int_Tables_number   1
_chemical_formula_structural   CrNi26
_chemical_formula_sum   'Cr2 Ni52'
_cell_volume   588.72832623
_cell_formula_units_Z   2
loop_
 _symmetry_equiv_pos_site_id
 _symmetry_equiv_pos_as_xyz
  1  'x, y, z'
loop_
 _atom_site_type_symbol
 _atom_site_label
 _atom_site_symmetry_multiplicity
 _atom_site_fract_x
 _atom_site_fract_y
 _atom_site_fract_z
 _atom_site_occupancy
  Ni  Ni0  1  0.00106399  0.00113750  0.99902168  1
  Ni  Ni1  1  0.16688550  0.16691168  0.16684398  1
  Ni  Ni2  1  0.00099928  0.00096593  0.33438326  1
  Ni  Ni3  1  0.99999370  0.33325799  0.00016228  1
  Ni  Ni4  1  0.16671030  0.49999231  0.16654276  1
  Ni  Ni5  1  1.00000401  0.33333734  0.33335130  1
  Ni  Ni6  1  0.00110212  0.66560049  0.99897802  1
  Ni  Ni7  1  0.16812116  0.83316416  0.16653555  1
  Ni  Ni8  1  0.00100948  0.66569313  0.33424364  1
  Ni  Ni9  1  0.33326049  0.99991263  0.00015838  1
  Ni  Ni10  1  0.49978481  0.16691780  0.16649273  1
  Ni  Ni11  1  0.33236999  0.99907001  0.33231934  1
  Ni  Ni12  1  0.33326493  0.33343767  0.99996952  1
  Ni  Ni13  1  0.49979093  0.49981711  0.16684398  1
  Ni  Ni14  1  0.33235980  0.33434281  0.33245896  1
  Ni  Ni15  1  0.33344462  0.66670890  0.00016228  1
  Ni  Ni16  1  0.49867252  0.83331951  0.16683634  1
  Ni  Ni17  1  0.33336526  0.66669860  0.33335130  1
  Ni  Ni18  1  0.66578523  0.00091738  0.99907019  1
  Ni  Ni19  1  0.83338310  0.16803008  0.16683634  1
  Ni  Ni20  1  0.66668464  0.00001797  0.33335130  1
  Ni  Ni21  1  0.66678998  0.33344212  0.00015838  1
  Ni  Ni22  1  0.83353845  0.49858145  0.16653555  1
  Ni  Ni23  1  0.66763260  0.33433261  0.33231934  1
  Ni  Ni24  1  0.66556511  0.66563862  0.99902168  1
  Cr  Cr25  1  0.83406153  0.83264108  0.16607287  1
  Ni  Ni26  1  0.66573668  0.66570333  0.33438326  1
  Ni  Ni27  1  0.16524811  0.16687178  0.50016706  1
  Ni  Ni28  1  0.00010879  0.00012331  0.66654422  1
  Ni  Ni29  1  0.16685764  0.16687837  0.83303838  1
  Ni  Ni30  1  0.16665898  0.50004363  0.50015985  1
  Ni  Ni31  1  0.99992465  0.33332704  0.66654033  1
  Ni  Ni32  1  0.16668464  0.50001797  0.83335130  1
  Ni  Ni33  1  0.16648377  0.83312427  0.49985863  1
  Ni  Ni34  1  0.00010434  0.66659827  0.66673308  1
  Ni  Ni35  1  0.16651164  0.83315757  0.83366423  1
  Cr  Cr36  1  0.49930775  0.16739486  0.50062974  1
  Ni  Ni37  1  0.33230528  0.99889844  0.66768093  1
  Ni  Ni38  1  0.49983425  0.16686836  0.83338933  1
  Ni  Ni39  1  0.49983082  0.50145450  0.50016706  1
  Ni  Ni40  1  0.33226715  0.33443546  0.66772458  1
  Ni  Ni41  1  0.49982424  0.49984497  0.83303838  1
  Ni  Ni42  1  0.49998617  0.83200586  0.49986627  1
  Ni  Ni43  1  0.33337557  0.66677796  0.66654033  1
  Ni  Ni44  1  0.49999060  0.83332393  0.83335130  1
  Ni  Ni45  1  0.83469675  0.16671644  0.49986627  1
  Ni  Ni46  1  0.66758404  0.99911856  0.66763242  1
  Ni  Ni47  1  0.83337868  0.16671201  0.83335130  1
  Ni  Ni48  1  0.83357834  0.50021883  0.49985863  1
  Ni  Ni49  1  0.66780417  0.33439732  0.66768093  1
  Ni  Ni50  1  0.83354504  0.50019097  0.83366423  1
  Ni  Ni51  1  0.83358447  0.83311814  0.50020987  1
  Ni  Ni52  1  0.66657930  0.66659382  0.66654422  1
  Ni  Ni53  1  0.83353502  0.83316759  0.83331327  1
" 