794,Ni5Cr95_1,-238.697206234766, 175.027968235301,Ni5Cr95,"# generated using pymatgen
 data_CrNi26
_symmetry_space_group_name_H-M   'P 1'
_cell_length_a   7.46625483
_cell_length_b   7.46625483
_cell_length_c   10.55887884
_cell_angle_alpha   90.00000000
_cell_angle_beta   90.00000000
_cell_angle_gamma   90.00000000
_symmetry_Int_Tables_number   1
_chemical_formula_structural   CrNi26
_chemical_formula_sum   'Cr2 Ni52'
_cell_volume   588.60429115
_cell_formula_units_Z   2
loop_
 _symmetry_equiv_pos_site_id
 _symmetry_equiv_pos_as_xyz
  1  'x, y, z'
loop_
 _atom_site_type_symbol
 _atom_site_label
 _atom_site_symmetry_multiplicity
 _atom_site_fract_x
 _atom_site_fract_y
 _atom_site_fract_z
 _atom_site_occupancy
  Ni  Ni0  1  0.00009824  0.00036000  0.00006602  1
  Ni  Ni1  1  0.16685148  0.16671976  0.16677549  1
  Ni  Ni2  1  0.00005309  0.00031046  0.33338642  1
  Ni  Ni3  1  0.00009824  0.33307952  0.00006602  1
  Ni  Ni4  1  0.16670909  0.50012246  0.16654696  1
  Ni  Ni5  1  0.00005309  0.33312906  0.33338642  1
  Ni  Ni6  1  0.00170519  0.66671976  0.99983860  1
  Ni  Ni7  1  0.16670909  0.83331705  0.16654696  1
  Ni  Ni8  1  0.00005309  0.66671976  0.33338642  1
  Ni  Ni9  1  0.33321504  0.00019375  0.99984923  1
  Ni  Ni10  1  0.50000569  0.16671976  0.16654694  1
  Ni  Ni11  1  0.33325698  0.00015343  0.33359953  1
  Ni  Ni12  1  0.33321504  0.33324576  0.99984923  1
  Ni  Ni13  1  0.49906039  0.49903032  0.16760959  1
  Ni  Ni14  1  0.33325698  0.33328609  0.33359953  1
  Ni  Ni15  1  0.33179139  0.66671976  0.00027119  1
  Ni  Ni16  1  0.49906039  0.83440920  0.16760959  1
  Ni  Ni17  1  0.33341732  0.66671976  0.33296162  1
  Ni  Ni18  1  0.66684704  0.00178421  0.00006357  1
  Ni  Ni19  1  0.83330294  0.16671976  0.16654794  1
  Ni  Ni20  1  0.66684920  0.00015343  0.33317332  1
  Ni  Ni21  1  0.66684704  0.33165530  0.00006357  1
  Ni  Ni22  1  0.83439857  0.49917356  0.16761376  1
  Ni  Ni23  1  0.66684920  0.33328609  0.33317332  1
  Cr  Cr24  1  0.66670912  0.66671976  0.99983216  1
  Ni  Ni25  1  0.83439857  0.83426596  0.16761376  1
  Ni  Ni26  1  0.66668886  0.66671976  0.33381123  1
  Ni  Ni27  1  0.16680324  0.16671976  0.50022491  1
  Ni  Ni28  1  1.00000794  0.00036000  0.66670683  1
  Ni  Ni29  1  0.16680571  0.16671976  0.83315758  1
  Ni  Ni30  1  0.16570762  0.49917356  0.49915909  1
  Ni  Ni31  1  1.00000794  0.33307952  0.66670683  1
  Ni  Ni32  1  0.16569745  0.49913553  0.83444814  1
  Ni  Ni33  1  0.16570762  0.83426596  0.49915909  1
  Ni  Ni34  1  0.99840099  0.66671976  0.66693425  1
  Ni  Ni35  1  0.16569745  0.83430398  0.83444814  1
  Ni  Ni36  1  0.50010049  0.16671976  0.50022591  1
  Ni  Ni37  1  0.33325914  0.00178421  0.66670928  1
  Ni  Ni38  1  0.50005309  0.16671976  0.83338642  1
  Ni  Ni39  1  0.50104579  0.49903032  0.49916326  1
  Ni  Ni40  1  0.33325914  0.33165530  0.66670928  1
  Ni  Ni41  1  0.50005309  0.49804081  0.83338642  1
  Ni  Ni42  1  0.50104579  0.83440920  0.49916326  1
  Cr  Cr43  1  0.33339706  0.66671976  0.66694069  1
  Ni  Ni44  1  0.50005309  0.83539870  0.83338642  1
  Ni  Ni45  1  0.83325470  0.16671976  0.49999736  1
  Ni  Ni46  1  0.66689114  0.00019375  0.66692362  1
  Ni  Ni47  1  0.83330047  0.16671976  0.83361527  1
  Ni  Ni48  1  0.83339709  0.50012246  0.50022589  1
  Ni  Ni49  1  0.66689114  0.33324576  0.66692362  1
  Ni  Ni50  1  0.83440873  0.49913553  0.83232471  1
  Ni  Ni51  1  0.83339709  0.83331705  0.50022589  1
  Ni  Ni52  1  0.66831479  0.66671976  0.66650166  1
  Ni  Ni53  1  0.83440873  0.83430398  0.83232471  1
" 