7704,Ni5Cr95_13,-238.655783016764, 174.426360510002,Ni5Cr95,"# generated using pymatgen
 data_CrNi26
_symmetry_space_group_name_H-M   'P 1'
_cell_length_a   7.46677924
_cell_length_b   7.46677924
_cell_length_c   10.55962047
_cell_angle_alpha   90.00000000
_cell_angle_beta   90.00000000
_cell_angle_gamma   90.00000000
_symmetry_Int_Tables_number   1
_chemical_formula_structural   CrNi26
_chemical_formula_sum   'Cr2 Ni52'
_cell_volume   588.72832623
_cell_formula_units_Z   2
loop_
 _symmetry_equiv_pos_site_id
 _symmetry_equiv_pos_as_xyz
  1  'x, y, z'
loop_
 _atom_site_type_symbol
 _atom_site_label
 _atom_site_symmetry_multiplicity
 _atom_site_fract_x
 _atom_site_fract_y
 _atom_site_fract_z
 _atom_site_occupancy
  Ni  Ni0  1  0.00099928  0.99907001  0.00104993  1
  Ni  Ni1  1  0.16648377  0.16691168  0.16652530  1
  Ni  Ni2  1  0.00010879  0.99991263  0.33321089  1
  Ni  Ni3  1  0.00100948  0.33434281  0.00091031  1
  Ni  Ni4  1  0.16665898  0.49999231  0.16682651  1
  Ni  Ni5  1  0.00010434  0.33343767  0.33339975  1
  Ni  Ni6  1  1.00000401  0.66669860  0.00001797  1
  Ni  Ni7  1  0.16524811  0.83316416  0.16683372  1
  Ni  Ni8  1  0.99992465  0.66670890  0.33320699  1
  Ni  Ni9  1  0.33236999  0.00096593  0.99898601  1
  Ni  Ni10  1  0.49998617  0.16803008  0.16653294  1
  Ni  Ni11  1  0.33230528  0.00113750  0.33434760  1
  Ni  Ni12  1  0.33336526  0.33333734  0.00001797  1
  Ni  Ni13  1  0.49983082  0.49858145  0.16683372  1
  Ni  Ni14  1  0.33337557  0.33325799  0.33320699  1
  Ni  Ni15  1  0.33235980  0.66569313  0.99912563  1
  Cr  Cr16  1  0.49930775  0.83264108  0.16729641  1
  Ni  Ni17  1  0.33226715  0.66560049  0.33439125  1
  Ni  Ni18  1  0.66668464  0.00001797  0.00001797  1
  Ni  Ni19  1  0.83358447  0.16691780  0.16687654  1
  Ni  Ni20  1  0.66758404  0.00091738  0.33429908  1
  Ni  Ni21  1  0.66573668  0.33433261  0.00104993  1
  Ni  Ni22  1  0.83357834  0.49981711  0.16652530  1
  Ni  Ni23  1  0.66657930  0.33344212  0.33321089  1
  Ni  Ni24  1  0.66763260  0.66570333  0.99898601  1
  Ni  Ni25  1  0.83469675  0.83331951  0.16653294  1
  Ni  Ni26  1  0.66780417  0.66563862  0.33434760  1
  Ni  Ni27  1  0.16651164  0.16687837  0.50033089  1
  Ni  Ni28  1  0.00106399  0.99889844  0.66568835  1
  Ni  Ni29  1  0.16812116  0.16687178  0.83320222  1
  Ni  Ni30  1  0.16668464  0.50001797  0.50001797  1
  Ni  Ni31  1  0.00110212  0.33443546  0.66564469  1
  Ni  Ni32  1  0.16671030  0.50004363  0.83320943  1
  Ni  Ni33  1  0.16685764  0.83315757  0.49970505  1
  Ni  Ni34  1  0.99999370  0.66677796  0.66682895  1
  Ni  Ni35  1  0.16688550  0.83312427  0.83351064  1
  Ni  Ni36  1  0.49999060  0.16671201  0.50001797  1
  Ni  Ni37  1  0.33326049  0.00012331  0.66682505  1
  Ni  Ni38  1  0.49867252  0.16671644  0.83350300  1
  Ni  Ni39  1  0.49982424  0.50019097  0.49970505  1
  Ni  Ni40  1  0.33344462  0.33332704  0.66682895  1
  Ni  Ni41  1  0.49979093  0.50021883  0.83351064  1
  Ni  Ni42  1  0.49983425  0.83316759  0.50005600  1
  Ni  Ni43  1  0.33326493  0.66659827  0.66663619  1
  Ni  Ni44  1  0.49978481  0.83311814  0.83315940  1
  Ni  Ni45  1  0.83353502  0.16686836  0.49997994  1
  Ni  Ni46  1  0.66578523  0.99911856  0.66573686  1
  Cr  Cr47  1  0.83406153  0.16739486  0.83273953  1
  Ni  Ni48  1  0.83354504  0.49984497  0.50033089  1
  Ni  Ni49  1  0.66556511  0.33439732  0.66568835  1
  Ni  Ni50  1  0.83353845  0.50145450  0.83320222  1
  Ni  Ni51  1  0.83337868  0.83332393  0.50001797  1
  Ni  Ni52  1  0.66678998  0.66659382  0.66682505  1
  Ni  Ni53  1  0.83338310  0.83200586  0.83350300  1
" 