419,Ni5Cr95_7,-238.707111962242, 175.24585191894,Ni5Cr95,"# generated using pymatgen
 data_CrNi26
_symmetry_space_group_name_H-M   'P 1'
_cell_length_a   7.46631114
_cell_length_b   7.46631114
_cell_length_c   10.55895847
_cell_angle_alpha   90.00000000
_cell_angle_beta   90.00000000
_cell_angle_gamma   90.00000000
_symmetry_Int_Tables_number   1
_chemical_formula_structural   CrNi26
_chemical_formula_sum   'Cr2 Ni52'
_cell_volume   588.61760818
_cell_formula_units_Z   2
loop_
 _symmetry_equiv_pos_site_id
 _symmetry_equiv_pos_as_xyz
  1  'x, y, z'
loop_
 _atom_site_type_symbol
 _atom_site_label
 _atom_site_symmetry_multiplicity
 _atom_site_fract_x
 _atom_site_fract_y
 _atom_site_fract_z
 _atom_site_occupancy
  Ni  Ni0  1  0.00027023  0.00017672  0.99988576  1
  Ni  Ni1  1  0.16671599  0.16674612  0.16651043  1
  Ni  Ni2  1  0.00031326  0.00017977  0.33337232  1
  Ni  Ni3  1  0.99914414  0.33221861  0.00097202  1
  Ni  Ni4  1  0.16671599  0.50018288  0.16693924  1
  Ni  Ni5  1  0.00016594  0.33323655  0.33337130  1
  Ni  Ni6  1  0.99898730  0.66774237  0.00075296  1
  Ni  Ni7  1  0.16671599  0.83321719  0.16650826  1
  Ni  Ni8  1  1.00000358  0.66673016  0.33358967  1
  Ni  Ni9  1  0.33316174  0.00017672  0.99988576  1
  Ni  Ni10  1  0.50031326  0.16658554  0.16672632  1
  Ni  Ni11  1  0.33311871  0.00017977  0.33337232  1
  Ni  Ni12  1  0.33428784  0.33221861  0.00097202  1
  Ni  Ni13  1  0.50000358  0.50003514  0.16650897  1
  Ni  Ni14  1  0.33326604  0.33323655  0.33337130  1
  Ni  Ni15  1  0.33444468  0.66774237  0.00075296  1
  Ni  Ni16  1  0.50016594  0.83352876  0.16672734  1
  Ni  Ni17  1  0.33342840  0.66673016  0.33358967  1
  Ni  Ni18  1  0.66671599  1.00001458  0.99989663  1
  Ni  Ni19  1  0.83311871  0.16658554  0.16672632  1
  Ni  Ni20  1  0.66671599  1.00001919  0.33358821  1
  Ni  Ni21  1  0.66671599  0.33350884  0.99965801  1
  Ni  Ni22  1  0.83342840  0.50003514  0.16650897  1
  Ni  Ni23  1  0.66671599  0.33354811  0.33359038  1
  Ni  Ni24  1  0.66671599  0.66663182  0.00008890  1
  Ni  Ni25  1  0.83326604  0.83352876  0.16672734  1
  Ni  Ni26  1  0.66671599  0.66658243  0.33315940  1
  Ni  Ni27  1  0.16671599  0.16675073  0.50020201  1
  Ni  Ni28  1  0.00031718  0.00023040  0.66689396  1
  Ni  Ni29  1  0.16671599  0.16506649  0.83344059  1
  Ni  Ni30  1  0.16671599  0.50013349  0.50000974  1
  Ni  Ni31  1  0.99920332  0.33217539  0.66581062  1
  Cr  Cr32  1  0.16671599  0.50015281  0.83319685  1
  Ni  Ni33  1  0.16671599  0.83325646  0.50044063  1
  Ni  Ni34  1  0.00068005  0.66774474  0.66580701  1
  Ni  Ni35  1  0.16671599  0.83493341  0.83320836  1
  Ni  Ni36  1  0.50027023  0.16658858  0.50021288  1
  Ni  Ni37  1  0.33311480  0.00023040  0.66689396  1
  Ni  Ni38  1  0.50031718  0.16653490  0.83320468  1
  Ni  Ni39  1  0.49898730  0.49902293  0.49934568  1
  Ni  Ni40  1  0.33422865  0.33217539  0.66581062  1
  Ni  Ni41  1  0.50068005  0.49902057  0.83429163  1
  Ni  Ni42  1  0.49914414  0.83454670  0.49912662  1
  Ni  Ni43  1  0.33275193  0.66774474  0.66580701  1
  Ni  Ni44  1  0.49920332  0.83458992  0.83428802  1
  Ni  Ni45  1  0.83316174  0.16658858  0.50021288  1
  Ni  Ni46  1  0.66671599  0.00169882  0.66665805  1
  Ni  Ni47  1  0.83311480  0.16653490  0.83320468  1
  Ni  Ni48  1  0.83444468  0.49902293  0.49934568  1
  Ni  Ni49  1  0.66671599  0.33183190  0.66689027  1
  Ni  Ni50  1  0.83275193  0.49902057  0.83429163  1
  Ni  Ni51  1  0.83428784  0.83454670  0.49912662  1
  Cr  Cr52  1  0.66671599  0.66661249  0.66690179  1
  Ni  Ni53  1  0.83422865  0.83458992  0.83428802  1
" 