8704,Ni5Cr95_0,-238.707111962241, 175.245851918208,Ni5Cr95,"# generated using pymatgen
 data_CrNi26
_symmetry_space_group_name_H-M   'P 1'
_cell_length_a   7.46631114
_cell_length_b   7.46631114
_cell_length_c   10.55895847
_cell_angle_alpha   90.00000000
_cell_angle_beta   90.00000000
_cell_angle_gamma   90.00000000
_symmetry_Int_Tables_number   1
_chemical_formula_structural   CrNi26
_chemical_formula_sum   'Cr2 Ni52'
_cell_volume   588.61760818
_cell_formula_units_Z   2
loop_
 _symmetry_equiv_pos_site_id
 _symmetry_equiv_pos_as_xyz
  1  'x, y, z'
loop_
 _atom_site_type_symbol
 _atom_site_label
 _atom_site_symmetry_multiplicity
 _atom_site_fract_x
 _atom_site_fract_y
 _atom_site_fract_z
 _atom_site_occupancy
  Ni  Ni0  1  0.00017977  0.99978538  1.00003899  1
  Ni  Ni1  1  0.16658858  0.16693690  0.16687955  1
  Ni  Ni2  1  0.00023040  0.99978146  0.33356062  1
  Ni  Ni3  1  1.00001919  0.33338265  0.00025488  1
  Ni  Ni4  1  0.16658858  0.49982841  0.16687955  1
  Ni  Ni5  1  0.00169882  0.33338265  0.33332472  1
  Ni  Ni6  1  0.00017977  0.66697993  1.00003899  1
  Ni  Ni7  1  0.16675073  0.83338265  0.16686868  1
  Ni  Ni8  1  0.00023040  0.66698384  0.33356062  1
  Ni  Ni9  1  0.33323655  0.99993270  1.00003796  1
  Ni  Ni10  1  0.49902293  0.16565396  0.16601235  1
  Ni  Ni11  1  0.33217539  0.00089531  0.33247729  1
  Ni  Ni12  1  0.33354811  0.33338265  0.00025705  1
  Ni  Ni13  1  0.49902293  0.50111134  0.16601235  1
  Ni  Ni14  1  0.33183190  0.33338265  0.33355694  1
  Ni  Ni15  1  0.33323655  0.66683260  1.00003796  1
  Ni  Ni16  1  0.50013349  0.83338265  0.16667641  1
  Ni  Ni17  1  0.33217539  0.66586999  0.33247729  1
  Ni  Ni18  1  0.66673016  0.00009506  0.00025634  1
  Ni  Ni19  1  0.83454670  0.16581080  0.16579329  1
  Ni  Ni20  1  0.66774474  0.99941859  0.33247368  1
  Ni  Ni21  1  0.66658243  0.33338265  0.99982607  1
  Ni  Ni22  1  0.83454670  0.50095450  0.16579329  1
  Cr  Cr23  1  0.66661249  0.33338265  0.33356846  1
  Ni  Ni24  1  0.66673016  0.66667024  0.00025634  1
  Ni  Ni25  1  0.83325646  0.83338265  0.16710730  1
  Ni  Ni26  1  0.66774474  0.66734671  0.33247368  1
  Ni  Ni27  1  0.16653490  0.16698384  0.49987135  1
  Ni  Ni28  1  0.00017672  0.99982841  0.66655243  1
  Ni  Ni29  1  0.16658554  0.16697993  0.83339299  1
  Ni  Ni30  1  0.16653490  0.49978146  0.49987135  1
  Ni  Ni31  1  1.00001458  0.33338265  0.66656329  1
  Ni  Ni32  1  0.16658554  0.49978538  0.83339299  1
  Ni  Ni33  1  0.16506649  0.83338265  0.50010726  1
  Ni  Ni34  1  0.00017672  0.66693690  0.66655243  1
  Ni  Ni35  1  0.16674612  0.83338265  0.83317710  1
  Ni  Ni36  1  0.49902057  0.16734671  0.50095829  1
  Ni  Ni37  1  0.33221861  0.00095450  0.66763869  1
  Ni  Ni38  1  0.50003514  0.16667024  0.83317564  1
  Ni  Ni39  1  0.49902057  0.49941859  0.50095829  1
  Ni  Ni40  1  0.33350884  0.33338265  0.66632467  1
  Ni  Ni41  1  0.50003514  0.50009506  0.83317564  1
  Cr  Cr42  1  0.50015281  0.83338265  0.49986352  1
  Ni  Ni43  1  0.33221861  0.66581080  0.66763869  1
  Ni  Ni44  1  0.50018288  0.83338265  0.83360590  1
  Ni  Ni45  1  0.83458992  0.16586999  0.50095469  1
  Ni  Ni46  1  0.66774237  0.00111134  0.66741963  1
  Ni  Ni47  1  0.83352876  0.16683260  0.83339401  1
  Ni  Ni48  1  0.83458992  0.50089531  0.50095469  1
  Ni  Ni49  1  0.66663182  0.33338265  0.66675556  1
  Ni  Ni50  1  0.83352876  0.49993270  0.83339401  1
  Ni  Ni51  1  0.83493341  0.83338265  0.49987503  1
  Ni  Ni52  1  0.66774237  0.66565396  0.66741963  1
  Ni  Ni53  1  0.83321719  0.83338265  0.83317493  1
" 