6773,Ni5Cr95_12,-238.695958713666, 174.47473617014,Ni5Cr95,"# generated using pymatgen
 data_CrNi26
_symmetry_space_group_name_H-M   'P 1'
_cell_length_a   7.46652765
_cell_length_b   7.46652765
_cell_length_c   10.55926467
_cell_angle_alpha   90.00000000
_cell_angle_beta   90.00000000
_cell_angle_gamma   90.00000000
_symmetry_Int_Tables_number   1
_chemical_formula_structural   CrNi26
_chemical_formula_sum   'Cr2 Ni52'
_cell_volume   588.66881739
_cell_formula_units_Z   2
loop_
 _symmetry_equiv_pos_site_id
 _symmetry_equiv_pos_as_xyz
  1  'x, y, z'
loop_
 _atom_site_type_symbol
 _atom_site_label
 _atom_site_symmetry_multiplicity
 _atom_site_fract_x
 _atom_site_fract_y
 _atom_site_fract_z
 _atom_site_occupancy
  Ni  Ni0  1  0.00018755  0.00004181  0.99983944  1
  Ni  Ni1  1  0.16654875  0.16669450  0.16689686  1
  Ni  Ni2  1  0.00008094  0.00006839  0.33369678  1
  Ni  Ni3  1  1.00001699  0.33333771  0.99985075  1
  Ni  Ni4  1  0.16671777  0.50001853  0.16648568  1
  Ni  Ni5  1  0.99904571  0.33233965  0.33268155  1
  Ni  Ni6  1  1.00001853  0.66671777  0.00025062  1
  Ni  Ni7  1  0.16671931  0.83339859  0.16688556  1
  Ni  Ni8  1  0.99904481  0.66769149  0.33228665  1
  Ni  Ni9  1  0.33338549  0.00020646  0.00006778  1
  Ni  Ni10  1  0.50021090  0.16652541  0.16666394  1
  Ni  Ni11  1  0.33348353  0.00021631  0.33349332  1
  Ni  Ni12  1  0.33355087  0.33318544  0.00006476  1
  Ni  Ni13  1  0.50004181  0.50018755  0.16689686  1
  Ni  Ni14  1  0.33449747  0.33223883  0.33251649  1
  Ni  Ni15  1  0.33339859  0.66671931  0.99985075  1
  Ni  Ni16  1  0.50020646  0.83338549  0.16666853  1
  Ni  Ni17  1  0.33439666  0.66769059  0.33268155  1
  Ni  Ni18  1  0.66652541  0.00021090  0.00007237  1
  Ni  Ni19  1  0.83335081  0.16652984  0.16666853  1
  Ni  Ni20  1  0.66653319  0.00020312  0.33327503  1
  Ni  Ni21  1  0.66652984  0.33335081  0.00006778  1
  Ni  Ni22  1  0.83333771  0.50001699  0.16688556  1
  Ni  Ni23  1  0.66651999  0.33325278  0.33349332  1
  Ni  Ni24  1  0.66669450  0.66654875  0.99983944  1
  Ni  Ni25  1  0.83318544  0.83355087  0.16667154  1
  Ni  Ni26  1  0.66666791  0.66665537  0.33369678  1
  Ni  Ni27  1  0.16665696  0.16516335  0.50018241  1
  Ni  Ni28  1  0.00007934  0.00157296  0.66655389  1
  Ni  Ni29  1  0.16665537  0.16666791  0.83303953  1
  Cr  Cr30  1  0.16783905  0.49889725  0.49904735  1
  Ni  Ni31  1  0.99903629  0.33089316  0.66756701  1
  Ni  Ni32  1  0.16769149  0.49904481  0.83444966  1
  Ni  Ni33  1  0.16770001  0.83584314  0.49916929  1
  Cr  Cr34  1  0.99889725  0.66783905  0.66768896  1
  Ni  Ni35  1  0.16769059  0.83439666  0.83405476  1
  Ni  Ni36  1  0.50020097  0.16653533  0.49996936  1
  Ni  Ni37  1  0.33350027  0.00022567  0.66655638  1
  Ni  Ni38  1  0.50020312  0.16653319  0.83346127  1
  Ni  Ni39  1  0.50157296  0.50007934  0.50018241  1
  Ni  Ni40  1  0.33453993  0.33219637  0.66755376  1
  Ni  Ni41  1  0.50006839  0.50008094  0.83303953  1
  Ni  Ni42  1  0.50022567  0.83350027  0.50017993  1
  Ni  Ni43  1  0.33584314  0.66770001  0.66756701  1
  Ni  Ni44  1  0.50021631  0.83348353  0.83324298  1
  Ni  Ni45  1  0.83323603  0.16651064  0.50017993  1
  Ni  Ni46  1  0.66653533  0.00020097  0.66676694  1
  Ni  Ni47  1  0.83325278  0.16651999  0.83324298  1
  Ni  Ni48  1  0.83089316  0.49903629  0.49916929  1
  Ni  Ni49  1  0.66651064  0.33323603  0.66655638  1
  Ni  Ni50  1  0.83233965  0.49904571  0.83405476  1
  Ni  Ni51  1  0.83219637  0.83453993  0.49918255  1
  Ni  Ni52  1  0.66516335  0.66665696  0.66655389  1
  Ni  Ni53  1  0.83223883  0.83449747  0.83421982  1
" 