7342,Ni5Cr95_3,-238.697206234766, 175.027968243737,Ni5Cr95,"# generated using pymatgen
 data_CrNi26
_symmetry_space_group_name_H-M   'P 1'
_cell_length_a   7.46625483
_cell_length_b   7.46625483
_cell_length_c   10.55887884
_cell_angle_alpha   90.00000000
_cell_angle_beta   90.00000000
_cell_angle_gamma   90.00000000
_symmetry_Int_Tables_number   1
_chemical_formula_structural   CrNi26
_chemical_formula_sum   'Cr2 Ni52'
_cell_volume   588.60429115
_cell_formula_units_Z   2
loop_
 _symmetry_equiv_pos_site_id
 _symmetry_equiv_pos_as_xyz
  1  'x, y, z'
loop_
 _atom_site_type_symbol
 _atom_site_label
 _atom_site_symmetry_multiplicity
 _atom_site_fract_x
 _atom_site_fract_y
 _atom_site_fract_z
 _atom_site_occupancy
  Ni  Ni0  1  0.00005309  0.99804081  0.00005309  1
  Ni  Ni1  1  0.16831479  0.16671976  0.16693786  1
  Ni  Ni2  1  0.00104579  0.99903032  0.33427626  1
  Ni  Ni3  1  0.00005309  0.33539870  0.00005309  1
  Ni  Ni4  1  0.16689114  0.50019375  0.16651590  1
  Ni  Ni5  1  0.00104579  0.33440920  0.33427626  1
  Ni  Ni6  1  1.00005309  0.66671976  0.00005309  1
  Ni  Ni7  1  0.16689114  0.83324576  0.16651590  1
  Ni  Ni8  1  0.00010049  0.66671976  0.33321360  1
  Ni  Ni9  1  0.33440873  0.99913553  0.00111481  1
  Ni  Ni10  1  0.49840099  0.16671976  0.16650527  1
  Ni  Ni11  1  0.33339709  0.00012246  0.33321363  1
  Ni  Ni12  1  0.33440873  0.33430398  0.00111481  1
  Ni  Ni13  1  0.50000794  0.50036000  0.16673269  1
  Ni  Ni14  1  0.33339709  0.33331705  0.33321363  1
  Ni  Ni15  1  0.33330047  0.66671976  0.99982425  1
  Ni  Ni16  1  0.50000794  0.83307952  0.16673269  1
  Ni  Ni17  1  0.33325470  0.66671976  0.33344216  1
  Ni  Ni18  1  0.66569745  0.99913553  0.99899137  1
  Cr  Cr19  1  0.83339706  0.16671976  0.16649883  1
  Ni  Ni20  1  0.66570762  0.99917356  0.33428042  1
  Ni  Ni21  1  0.66569745  0.33430398  0.99899137  1
  Ni  Ni22  1  0.83325914  0.50178421  0.16673023  1
  Ni  Ni23  1  0.66570762  0.33426596  0.33428042  1
  Ni  Ni24  1  0.66680571  0.66671976  0.00028194  1
  Ni  Ni25  1  0.83325914  0.83165530  0.16673023  1
  Ni  Ni26  1  0.66680324  0.66671976  0.33321461  1
  Ni  Ni27  1  0.16668886  0.16671976  0.49962829  1
  Ni  Ni28  1  0.99906039  0.99903032  0.66582993  1
  Cr  Cr29  1  0.16670912  0.16671976  0.83360736  1
  Ni  Ni30  1  0.16684920  0.50015343  0.50026620  1
  Ni  Ni31  1  0.99906039  0.33440920  0.66582993  1
  Ni  Ni32  1  0.16684704  0.50178421  0.83337595  1
  Ni  Ni33  1  0.16684920  0.83328609  0.50026620  1
  Ni  Ni34  1  1.00000569  0.66671976  0.66689258  1
  Ni  Ni35  1  0.16684704  0.83165530  0.83337595  1
  Ni  Ni36  1  0.50005309  0.16671976  0.50005309  1
  Ni  Ni37  1  0.33439857  0.99917356  0.66582576  1
  Ni  Ni38  1  0.50170519  0.16671976  0.83360092  1
  Ni  Ni39  1  0.50005309  0.50031046  0.50005309  1
  Ni  Ni40  1  0.33439857  0.33426596  0.66582576  1
  Ni  Ni41  1  0.50009824  0.50036000  0.83337350  1
  Ni  Ni42  1  0.50005309  0.83312906  0.50005309  1
  Ni  Ni43  1  0.33330294  0.66671976  0.66689158  1
  Ni  Ni44  1  0.50009824  0.83307952  0.83337350  1
  Ni  Ni45  1  0.83341732  0.16671976  0.50047789  1
  Ni  Ni46  1  0.66670909  0.00012246  0.66689256  1
  Ni  Ni47  1  0.83179139  0.16671976  0.83316832  1
  Ni  Ni48  1  0.83325698  0.50015343  0.49983998  1
  Ni  Ni49  1  0.66670909  0.33331705  0.66689256  1
  Ni  Ni50  1  0.83321504  0.50019375  0.83359029  1
  Ni  Ni51  1  0.83325698  0.83328609  0.49983998  1
  Ni  Ni52  1  0.66685148  0.66671976  0.66666402  1
  Ni  Ni53  1  0.83321504  0.83324576  0.83359029  1
" 