5780,Ni5Cr95_16,-238.695958713666, 174.474732225836,Ni5Cr95,"# generated using pymatgen
 data_CrNi26
_symmetry_space_group_name_H-M   'P 1'
_cell_length_a   7.46652765
_cell_length_b   7.46652765
_cell_length_c   10.55926467
_cell_angle_alpha   90.00000000
_cell_angle_beta   90.00000000
_cell_angle_gamma   90.00000000
_symmetry_Int_Tables_number   1
_chemical_formula_structural   CrNi26
_chemical_formula_sum   'Cr2 Ni52'
_cell_volume   588.66881739
_cell_formula_units_Z   2
loop_
 _symmetry_equiv_pos_site_id
 _symmetry_equiv_pos_as_xyz
  1  'x, y, z'
loop_
 _atom_site_type_symbol
 _atom_site_label
 _atom_site_symmetry_multiplicity
 _atom_site_fract_x
 _atom_site_fract_y
 _atom_site_fract_z
 _atom_site_occupancy
  Ni  Ni0  1  0.00102393  0.99900632  0.00072142  1
  Ni  Ni1  1  0.16673192  0.16668366  0.16651741  1
  Ni  Ni2  1  0.00005265  1.00000438  0.33355223  1
  Ni  Ni3  1  0.00102483  0.33435816  0.00111633  1
  Ni  Ni4  1  0.16688420  0.50021753  0.16673143  1
  Ni  Ni5  1  0.00005111  0.33338444  0.33315235  1
  Ni  Ni6  1  0.99998870  0.66673506  0.99970620  1
  Ni  Ni7  1  0.16671883  0.83319651  0.16673445  1
  Ni  Ni8  1  0.99988208  0.66670847  0.33356353  1
  Ni  Ni9  1  0.33354964  0.99991944  0.99990965  1
  Ni  Ni10  1  0.50002783  0.16685422  0.16650611  1
  Ni  Ni11  1  0.33353980  1.00001748  0.33333519  1
  Ni  Ni12  1  0.33340173  0.33332203  0.99970620  1
  Ni  Ni13  1  0.49986318  0.50005216  0.16673445  1
  Ni  Ni14  1  0.33337514  0.33321542  0.33356353  1
  Ni  Ni15  1  0.33353645  0.66686978  0.00012794  1
  Ni  Ni16  1  0.49985874  0.83319207  0.16673904  1
  Ni  Ni17  1  0.33354423  0.66687757  0.33333060  1
  Ni  Ni18  1  0.66557217  0.99890550  0.00088648  1
  Ni  Ni19  1  0.83335186  0.16668520  0.16691729  1
  Ni  Ni20  1  0.66651877  0.99985210  0.33333821  1
  Ni  Ni21  1  0.66567298  0.33435726  0.00072142  1
  Ni  Ni22  1  0.83335033  0.50006526  0.16651741  1
  Ni  Ni23  1  0.66667105  0.33338598  0.33355223  1
  Ni  Ni24  1  0.66658611  0.66688298  0.99990965  1
  Ni  Ni25  1  0.83352089  0.83336117  0.16650611  1
  Ni  Ni26  1  0.66668415  0.66687313  0.33333519  1
  Ni  Ni27  1  0.16772999  0.16571238  0.49934821  1
  Ni  Ni28  1  0.00103335  0.99755983  0.66583596  1
  Ni  Ni29  1  0.16917648  0.16570296  0.83423368  1
  Ni  Ni30  1  0.16783080  0.50116414  0.49918316  1
  Cr  Cr31  1  0.00117239  0.33450572  0.66571402  1
  Ni  Ni32  1  0.16787327  0.50120660  0.83422042  1
  Ni  Ni33  1  0.16681686  0.83318666  0.50015999  1
  Ni  Ni34  1  0.99999030  0.66823963  0.66684908  1
  Ni  Ni35  1  0.16683361  0.83317731  0.83322304  1
  Ni  Ni36  1  0.50000124  0.16674760  0.50036344  1
  Ni  Ni37  1  0.33355900  0.99990270  0.66684660  1
  Ni  Ni38  1  0.49849668  0.16674601  0.83322056  1
  Ni  Ni39  1  0.49985333  0.50015020  0.50015999  1
  Ni  Ni40  1  0.33490629  0.33332363  0.66684908  1
  Ni  Ni41  1  0.49984397  0.50016694  0.83322304  1
  Ni  Ni42  1  0.49986652  0.83319985  0.49994170  1
  Ni  Ni43  1  0.33353431  0.66686764  0.66663603  1
  Ni  Ni44  1  0.49986867  0.83320200  0.83343361  1
  Ni  Ni45  1  0.83237814  0.16571148  0.49895331  1
  Ni  Ni46  1  0.66552970  0.99886304  0.66584922  1
  Cr  Cr47  1  0.83223058  0.16556392  0.83435562  1
  Ni  Ni48  1  0.83237904  0.50106332  0.49934821  1
  Ni  Ni49  1  0.66422650  0.33436668  0.66583596  1
  Ni  Ni50  1  0.83236963  0.50250981  0.83423368  1
  Ni  Ni51  1  0.83341427  0.83333458  0.50036344  1
  Ni  Ni52  1  0.66656936  0.66689233  0.66684660  1
  Ni  Ni53  1  0.83341267  0.83183001  0.83322056  1
" 