3592,Ni5Cr95_2,-238.676994466482, 174.58204231511,Ni5Cr95,"# generated using pymatgen
 data_CrNi26
_symmetry_space_group_name_H-M   'P 1'
_cell_length_a   7.46496854
_cell_length_b   7.46496854
_cell_length_c   10.55705975
_cell_angle_alpha   90.00000000
_cell_angle_beta   90.00000000
_cell_angle_gamma   90.00000000
_symmetry_Int_Tables_number   1
_chemical_formula_structural   CrNi26
_chemical_formula_sum   'Cr2 Ni52'
_cell_volume   588.30012768
_cell_formula_units_Z   2
loop_
 _symmetry_equiv_pos_site_id
 _symmetry_equiv_pos_as_xyz
  1  'x, y, z'
loop_
 _atom_site_type_symbol
 _atom_site_label
 _atom_site_symmetry_multiplicity
 _atom_site_fract_x
 _atom_site_fract_y
 _atom_site_fract_z
 _atom_site_occupancy
  Ni  Ni0  1  0.00179416  0.99848435  0.00013926  1
  Ni  Ni1  1  0.16759266  0.16580414  0.16736165  1
  Ni  Ni2  1  0.99992698  0.00035153  0.33302402  1
  Cr  Cr3  1  1.00011051  0.33344384  0.00013926  1
  Ni  Ni4  1  0.16759066  0.50092400  0.16758542  1
  Ni  Ni5  1  1.00009468  0.33342801  0.33355319  1
  Ni  Ni6  1  0.00026919  0.66832366  0.00013926  1
  Ni  Ni7  1  0.16658934  0.83368917  0.16636211  1
  Ni  Ni8  1  1.00009472  0.66663841  0.33319588  1
  Ni  Ni9  1  0.33195485  1.00000932  0.00013926  1
  Ni  Ni10  1  0.49935252  0.16780771  0.16736165  1
  Ni  Ni11  1  0.33364010  0.00018379  0.33319588  1
  Ni  Ni12  1  0.33499033  0.33360253  0.00013926  1
  Ni  Ni13  1  0.50035584  0.49992267  0.16636211  1
  Ni  Ni14  1  0.33330508  0.33342805  0.33319588  1
  Ni  Ni15  1  0.33347259  0.66680592  0.00013926  1
  Ni  Ni16  1  0.49935451  0.83268785  0.16758542  1
  Ni  Ni17  1  0.33347259  0.66680592  0.33336686  1
  Cr  Cr18  1  0.66683467  0.00016800  0.00013926  1
  Ni  Ni19  1  0.83347259  0.16680592  0.16836534  1
  Ni  Ni20  1  0.66685050  0.00018384  0.33355319  1
  Ni  Ni21  1  0.66515102  0.33512749  0.00013926  1
  Ni  Ni22  1  0.83247080  0.50092599  0.16736165  1
  Ni  Ni23  1  0.66701820  0.33326031  0.33302402  1
  Ni  Ni24  1  0.66667598  0.66528818  0.00013926  1
  Ni  Ni25  1  0.83447437  0.83268585  0.16736165  1
  Ni  Ni26  1  0.66685046  0.66697343  0.33319588  1
  Ni  Ni27  1  0.16680650  0.16679608  0.50013926  1
  Ni  Ni28  1  0.99992698  0.00035153  0.66725449  1
  Ni  Ni29  1  0.16759266  0.16580414  0.83291686  1
  Ni  Ni30  1  0.16680654  0.50013987  0.50013926  1
  Ni  Ni31  1  1.00009468  0.33342801  0.66672532  1
  Ni  Ni32  1  0.16759066  0.50092400  0.83269309  1
  Ni  Ni33  1  0.16679669  0.83348182  0.50013926  1
  Ni  Ni34  1  1.00009472  0.66663841  0.66708263  1
  Ni  Ni35  1  0.16658934  0.83368917  0.83391640  1
  Ni  Ni36  1  0.50013867  0.16681576  0.50013926  1
  Ni  Ni37  1  0.33364010  0.00018379  0.66708263  1
  Ni  Ni38  1  0.49935252  0.16780771  0.83291686  1
  Ni  Ni39  1  0.50014849  0.50013002  0.50013926  1
  Ni  Ni40  1  0.33330508  0.33342805  0.66708263  1
  Ni  Ni41  1  0.50035584  0.49992267  0.83391640  1
  Ni  Ni42  1  0.50013864  0.83347197  0.50013926  1
  Ni  Ni43  1  0.33347259  0.66680592  0.66691165  1
  Ni  Ni44  1  0.49935451  0.83268785  0.83269309  1
  Ni  Ni45  1  0.83347259  0.16680592  0.50013926  1
  Ni  Ni46  1  0.66685050  0.00018384  0.66672532  1
  Ni  Ni47  1  0.83347259  0.16680592  0.83191317  1
  Ni  Ni48  1  0.83346275  0.50013984  0.50013926  1
  Ni  Ni49  1  0.66701820  0.33326031  0.66725449  1
  Ni  Ni50  1  0.83247080  0.50092599  0.83291686  1
  Ni  Ni51  1  0.83348243  0.83347201  0.50013926  1
  Ni  Ni52  1  0.66685046  0.66697343  0.66708263  1
  Ni  Ni53  1  0.83447437  0.83268585  0.83291686  1
" 