8049,Ni5Cr95_10,-238.655783016763, 174.426363426274,Ni5Cr95,"# generated using pymatgen
 data_CrNi26
_symmetry_space_group_name_H-M   'P 1'
_cell_length_a   7.46677924
_cell_length_b   7.46677924
_cell_length_c   10.55962047
_cell_angle_alpha   90.00000000
_cell_angle_beta   90.00000000
_cell_angle_gamma   90.00000000
_symmetry_Int_Tables_number   1
_chemical_formula_structural   CrNi26
_chemical_formula_sum   'Cr2 Ni52'
_cell_volume   588.72832623
_cell_formula_units_Z   2
loop_
 _symmetry_equiv_pos_site_id
 _symmetry_equiv_pos_as_xyz
  1  'x, y, z'
loop_
 _atom_site_type_symbol
 _atom_site_label
 _atom_site_symmetry_multiplicity
 _atom_site_fract_x
 _atom_site_fract_y
 _atom_site_fract_z
 _atom_site_occupancy
  Ni  Ni0  1  0.00020512  0.99858145  0.99986889  1
  Ni  Ni1  1  0.16767614  0.16569313  0.16757698  1
  Ni  Ni2  1  0.00024501  0.00021883  0.33319197  1
  Cr  Cr3  1  0.00072819  0.33264108  0.99940620  1
  Ni  Ni4  1  0.16766595  0.50096593  0.16771660  1
  Ni  Ni5  1  0.00025113  0.33311814  0.33354321  1
  Ni  Ni6  1  0.00004977  0.66803008  0.00016967  1
  Ni  Ni7  1  0.16667068  0.83333734  0.16668464  1
  Ni  Ni8  1  0.00136342  0.66671644  0.33319960  1
  Ni  Ni9  1  0.33337697  0.99999231  0.99987609  1
  Ni  Ni10  1  0.50003193  0.16669860  0.16668464  1
  Ni  Ni11  1  0.33332564  0.00004363  0.33349318  1
  Ni  Ni12  1  0.33478783  0.33316416  0.99986889  1
  Ni  Ni13  1  0.49903666  0.49907001  0.16565268  1
  Ni  Ni14  1  0.33315044  0.33312427  0.33319197  1
  Ni  Ni15  1  0.33355217  0.66691168  0.00017731  1
  Ni  Ni16  1  0.49902647  0.83434281  0.16579230  1
  Ni  Ni17  1  0.33191478  0.66687178  0.33350039  1
  Ni  Ni18  1  0.66645760  0.99981711  0.00017731  1
  Ni  Ni19  1  0.83240334  0.16570333  0.16771660  1
  Ni  Ni20  1  0.66649749  0.00145450  0.33350039  1
  Ni  Ni21  1  0.66533919  0.33331951  0.00016967  1
  Ni  Ni22  1  0.83335130  0.50001797  0.16668464  1
  Ni  Ni23  1  0.66665284  0.33200586  0.33319960  1
  Ni  Ni24  1  0.66645148  0.66691780  0.99982607  1
  Ni  Ni25  1  0.83429927  0.83433261  0.16565268  1
  Cr  Cr26  1  0.66597441  0.66739486  0.33396307  1
  Ni  Ni27  1  0.16677101  0.16659827  0.50006642  1
  Ni  Ni28  1  0.00021170  0.00019097  0.66699756  1
  Ni  Ni29  1  0.16776879  0.16560049  0.83231136  1
  Ni  Ni30  1  0.16677546  0.50012331  0.49987756  1
  Ni  Ni31  1  0.00020169  0.33316759  0.66664661  1
  Ni  Ni32  1  0.16773066  0.50113750  0.83235501  1
  Ni  Ni33  1  0.16659132  0.83332704  0.49987366  1
  Ni  Ni34  1  0.00004534  0.66671201  0.66668464  1
  Ni  Ni35  1  0.16666037  0.83325799  0.83349561  1
  Ni  Ni36  1  0.50004224  0.16677796  0.49987366  1
  Ni  Ni37  1  0.33335130  0.00001797  0.66668464  1
  Ni  Ni38  1  0.50011129  0.16670890  0.83349561  1
  Ni  Ni39  1  0.49897195  0.49889844  0.50101426  1
  Ni  Ni40  1  0.33317830  0.33315757  0.66699756  1
  Ni  Ni41  1  0.49992715  0.49991263  0.83349172  1
  Ni  Ni42  1  0.49893382  0.83443546  0.50105792  1
  Ni  Ni43  1  0.33352430  0.66687837  0.66637171  1
  Ni  Ni44  1  0.49993160  0.83343767  0.83330286  1
  Ni  Ni45  1  0.83324596  0.16659382  0.49987756  1
  Ni  Ni46  1  0.66649091  0.99984497  0.66637171  1
  Ni  Ni47  1  0.83223178  0.16563862  0.83235501  1
  Ni  Ni48  1  0.83425071  0.49911856  0.50096575  1
  Ni  Ni49  1  0.66665726  0.33332393  0.66668464  1
  Ni  Ni50  1  0.83245190  0.50091738  0.83240352  1
  Ni  Ni51  1  0.83447083  0.83439732  0.50101426  1
  Ni  Ni52  1  0.66650092  0.66686836  0.66672267  1
  Ni  Ni53  1  0.83345664  0.83344212  0.83349172  1
" 