2757,Ni5Cr95_18,-238.697206234766, 175.027968236373,Ni5Cr95,"# generated using pymatgen
 data_CrNi26
_symmetry_space_group_name_H-M   'P 1'
_cell_length_a   7.46625483
_cell_length_b   7.46625483
_cell_length_c   10.55887884
_cell_angle_alpha   90.00000000
_cell_angle_beta   90.00000000
_cell_angle_gamma   90.00000000
_symmetry_Int_Tables_number   1
_chemical_formula_structural   CrNi26
_chemical_formula_sum   'Cr2 Ni52'
_cell_volume   588.60429115
_cell_formula_units_Z   2
loop_
 _symmetry_equiv_pos_site_id
 _symmetry_equiv_pos_as_xyz
  1  'x, y, z'
loop_
 _atom_site_type_symbol
 _atom_site_label
 _atom_site_symmetry_multiplicity
 _atom_site_fract_x
 _atom_site_fract_y
 _atom_site_fract_z
 _atom_site_occupancy
  Ni  Ni0  1  0.00093262  0.99904095  0.99915909  1
  Ni  Ni1  1  0.16845088  0.16659248  0.16670928  1
  Ni  Ni2  1  0.00097065  0.99903079  0.33444814  1
  Ni  Ni3  1  0.00107586  0.33437912  0.99916326  1
  Ni  Ni4  1  0.16686042  0.50022447  0.16692362  1
  Ni  Ni5  1  0.00206537  0.33338642  0.33338642  1
  Ni  Ni6  1  0.99998372  0.66673043  0.00022589  1
  Ni  Ni7  1  0.16702666  0.83334127  0.16670683  1
  Ni  Ni8  1  0.00097065  0.66774206  0.33232471  1
  Ni  Ni9  1  0.33338642  0.00013657  0.00022491  1
  Ni  Ni10  1  0.49832197  0.16659248  0.16670928  1
  Ni  Ni11  1  0.33338642  0.00013904  0.33315758  1
  Ni  Ni12  1  0.33338642  0.33343382  0.00022591  1
  Ni  Ni13  1  0.49991243  0.50022447  0.16692362  1
  Ni  Ni14  1  0.33338642  0.33338642  0.33338642  1
  Ni  Ni15  1  0.33338642  0.66658803  0.99999736  1
  Ni  Ni16  1  0.49974618  0.83334127  0.16670683  1
  Ni  Ni17  1  0.33338642  0.66663381  0.33361527  1
  Ni  Ni18  1  0.66584022  0.99904095  0.99915909  1
  Cr  Cr19  1  0.83338642  0.16673039  0.16694069  1
  Ni  Ni20  1  0.66580220  0.99903079  0.33444814  1
  Ni  Ni21  1  0.66569699  0.33437912  0.99916326  1
  Ni  Ni22  1  0.83338642  0.50164812  0.16650166  1
  Ni  Ni23  1  0.66470748  0.33338642  0.33338642  1
  Ni  Ni24  1  0.66678913  0.66673043  0.00022589  1
  Ni  Ni25  1  0.83338642  0.83173432  0.16693425  1
  Ni  Ni26  1  0.66580220  0.66774206  0.33232471  1
  Ni  Ni27  1  0.16686042  0.16654838  0.49984923  1
  Ni  Ni28  1  0.99998372  1.00004242  0.66654696  1
  Ni  Ni29  1  0.16682009  0.16659031  0.83359953  1
  Ni  Ni30  1  0.16845088  0.50018037  0.50006357  1
  Ni  Ni31  1  0.00107586  0.33239373  0.66760959  1
  Ni  Ni32  1  0.16682009  0.50018254  0.83317332  1
  Ni  Ni33  1  0.16702666  0.83343157  0.50006602  1
  Ni  Ni34  1  0.00093262  0.66773190  0.66761376  1
  Ni  Ni35  1  0.16697713  0.83338642  0.83338642  1
  Ni  Ni36  1  0.49991243  0.16654838  0.49984923  1
  Ni  Ni37  1  0.33338642  0.00018481  0.66677549  1
  Ni  Ni38  1  0.49995276  0.16659031  0.83359953  1
  Ni  Ni39  1  0.49832197  0.50018037  0.50006357  1
  Ni  Ni40  1  0.33338642  0.33333903  0.66654694  1
  Ni  Ni41  1  0.49995276  0.50018254  0.83317332  1
  Ni  Ni42  1  0.49974618  0.83343157  0.50006602  1
  Ni  Ni43  1  0.33338642  0.66663627  0.66654794  1
  Ni  Ni44  1  0.49979572  0.83338642  0.83338642  1
  Ni  Ni45  1  0.83338642  0.16512473  0.50027119  1
  Ni  Ni46  1  0.66678913  1.00004242  0.66654696  1
  Ni  Ni47  1  0.83338642  0.16675066  0.83296162  1
  Cr  Cr48  1  0.83338642  0.50004245  0.49983216  1
  Ni  Ni49  1  0.66569699  0.33239373  0.66760959  1
  Ni  Ni50  1  0.83338642  0.50002219  0.83381123  1
  Ni  Ni51  1  0.83338642  0.83503852  0.49983860  1
  Ni  Ni52  1  0.66584022  0.66773190  0.66761376  1
  Ni  Ni53  1  0.83338642  0.83338642  0.83338642  1
" 