9009,Ni5Cr95_6,-238.697206234766, 175.027968233297,Ni5Cr95,"# generated using pymatgen
 data_CrNi26
_symmetry_space_group_name_H-M   'P 1'
_cell_length_a   7.46625483
_cell_length_b   7.46625483
_cell_length_c   10.55887884
_cell_angle_alpha   90.00000000
_cell_angle_beta   90.00000000
_cell_angle_gamma   90.00000000
_symmetry_Int_Tables_number   1
_chemical_formula_structural   CrNi26
_chemical_formula_sum   'Cr2 Ni52'
_cell_volume   588.60429115
_cell_formula_units_Z   2
loop_
 _symmetry_equiv_pos_site_id
 _symmetry_equiv_pos_as_xyz
  1  'x, y, z'
loop_
 _atom_site_type_symbol
 _atom_site_label
 _atom_site_symmetry_multiplicity
 _atom_site_fract_x
 _atom_site_fract_y
 _atom_site_fract_z
 _atom_site_occupancy
  Ni  Ni0  1  0.00018254  0.99995276  0.00026620  1
  Ni  Ni1  1  0.16773190  0.16584022  0.16582576  1
  Ni  Ni2  1  0.00018037  0.99832197  0.33337595  1
  Ni  Ni3  1  1.00002219  0.33338642  0.99962829  1
  Ni  Ni4  1  0.16773190  0.50093262  0.16582576  1
  Cr  Cr5  1  1.00004245  0.33338642  0.33360736  1
  Ni  Ni6  1  0.00018254  0.66682009  0.00026620  1
  Ni  Ni7  1  0.16663627  0.83338642  0.16689158  1
  Ni  Ni8  1  0.00018037  0.66845088  0.33337595  1
  Ni  Ni9  1  0.33338642  0.99979572  0.00005309  1
  Ni  Ni10  1  0.50004242  0.16678913  0.16689256  1
  Ni  Ni11  1  0.33343157  0.99974618  0.33337350  1
  Ni  Ni12  1  0.33338642  0.33338642  0.00005309  1
  Ni  Ni13  1  0.50004242  0.49998372  0.16689256  1
  Ni  Ni14  1  0.33503852  0.33338642  0.33360092  1
  Ni  Ni15  1  0.33338642  0.66697713  0.00005309  1
  Ni  Ni16  1  0.50018481  0.83338642  0.16666402  1
  Ni  Ni17  1  0.33343157  0.66702666  0.33337350  1
  Ni  Ni18  1  0.66659031  0.99995276  0.99983998  1
  Ni  Ni19  1  0.83239373  0.16569699  0.16582993  1
  Ni  Ni20  1  0.66654838  0.99991243  0.33359029  1
  Ni  Ni21  1  0.66675066  0.33338642  0.00047789  1
  Ni  Ni22  1  0.83239373  0.50107586  0.16582993  1
  Ni  Ni23  1  0.66512473  0.33338642  0.33316832  1
  Ni  Ni24  1  0.66659031  0.66682009  0.99983998  1
  Ni  Ni25  1  0.83333903  0.83338642  0.16689258  1
  Ni  Ni26  1  0.66654838  0.66686042  0.33359029  1
  Ni  Ni27  1  0.16774206  0.16580220  0.50111481  1
  Ni  Ni28  1  0.00022447  0.99991243  0.66651590  1
  Ni  Ni29  1  0.16673043  0.16678913  0.83321363  1
  Ni  Ni30  1  0.16774206  0.50097065  0.50111481  1
  Ni  Ni31  1  0.00164812  0.33338642  0.66693786  1
  Ni  Ni32  1  0.16673043  0.49998372  0.83321363  1
  Ni  Ni33  1  0.16663381  0.83338642  0.49982425  1
  Ni  Ni34  1  0.00022447  0.66686042  0.66651590  1
  Ni  Ni35  1  0.16658803  0.83338642  0.83344216  1
  Ni  Ni36  1  0.49903079  0.16580220  0.49899137  1
  Ni  Ni37  1  0.33334127  0.99974618  0.66673269  1
  Ni  Ni38  1  0.49904095  0.16584022  0.83428042  1
  Ni  Ni39  1  0.49903079  0.50097065  0.49899137  1
  Ni  Ni40  1  0.33173432  0.33338642  0.66650527  1
  Ni  Ni41  1  0.49904095  0.50093262  0.83428042  1
  Ni  Ni42  1  0.50013904  0.83338642  0.50028194  1
  Ni  Ni43  1  0.33334127  0.66702666  0.66673269  1
  Ni  Ni44  1  0.50013657  0.83338642  0.83321461  1
  Ni  Ni45  1  0.83338642  0.16470748  0.50005309  1
  Ni  Ni46  1  0.66659248  0.99832197  0.66673023  1
  Ni  Ni47  1  0.83437912  0.16569699  0.83427626  1
  Ni  Ni48  1  0.83338642  0.50206537  0.50005309  1
  Cr  Cr49  1  0.66673039  0.33338642  0.66649883  1
  Ni  Ni50  1  0.83437912  0.50107586  0.83427626  1
  Ni  Ni51  1  0.83338642  0.83338642  0.50005309  1
  Ni  Ni52  1  0.66659248  0.66845088  0.66673023  1
  Ni  Ni53  1  0.83343382  0.83338642  0.83321360  1
" 