5523,Ni5Cr95_4,-238.707111962241, 175.245851929346,Ni5Cr95,"# generated using pymatgen
 data_CrNi26
_symmetry_space_group_name_H-M   'P 1'
_cell_length_a   7.46631114
_cell_length_b   7.46631114
_cell_length_c   10.55895847
_cell_angle_alpha   90.00000000
_cell_angle_beta   90.00000000
_cell_angle_gamma   90.00000000
_symmetry_Int_Tables_number   1
_chemical_formula_structural   CrNi26
_chemical_formula_sum   'Cr2 Ni52'
_cell_volume   588.61760818
_cell_formula_units_Z   2
loop_
 _symmetry_equiv_pos_site_id
 _symmetry_equiv_pos_as_xyz
  1  'x, y, z'
loop_
 _atom_site_type_symbol
 _atom_site_label
 _atom_site_symmetry_multiplicity
 _atom_site_fract_x
 _atom_site_fract_y
 _atom_site_fract_z
 _atom_site_occupancy
  Ni  Ni0  1  0.99920332  0.99884205  0.99914395  1
  Cr  Cr1  1  0.16671599  0.16681948  0.16653018  1
  Ni  Ni2  1  0.99914414  0.99888528  0.33430535  1
  Ni  Ni3  1  0.00068005  0.33441140  0.99914035  1
  Ni  Ni4  1  0.16671599  0.50160008  0.16654170  1
  Ni  Ni5  1  0.99898730  0.33440904  0.33408629  1
  Ni  Ni6  1  0.00031718  0.66689707  0.00022729  1
  Ni  Ni7  1  0.16671599  0.83173315  0.16677392  1
  Ni  Ni8  1  0.00027023  0.66684339  0.33321909  1
  Ni  Ni9  1  0.33422865  0.99884205  0.99914395  1
  Ni  Ni10  1  0.50068005  0.16568724  0.16762496  1
  Ni  Ni11  1  0.33428784  0.99888528  0.33430535  1
  Ni  Ni12  1  0.33275193  0.33441140  0.99914035  1
  Ni  Ni13  1  0.49920332  0.50125659  0.16762135  1
  Ni  Ni14  1  0.33444468  0.33440904  0.33408629  1
  Ni  Ni15  1  0.33311480  0.66689707  0.00022729  1
  Ni  Ni16  1  0.50031718  0.83320157  0.16653801  1
  Ni  Ni17  1  0.33316174  0.66684339  0.33321909  1
  Ni  Ni18  1  0.66671599  0.99849856  0.00022361  1
  Ni  Ni19  1  0.83275193  0.16568724  0.16762496  1
  Ni  Ni20  1  0.66671599  0.00017551  0.33299134  1
  Cr  Cr21  1  0.66671599  0.33327916  0.00023512  1
  Ni  Ni22  1  0.83422865  0.50125659  0.16762135  1
  Ni  Ni23  1  0.66671599  0.33329849  0.33342223  1
  Ni  Ni24  1  0.66671599  0.66836548  0.99999138  1
  Ni  Ni25  1  0.83311480  0.83320157  0.16653801  1
  Ni  Ni26  1  0.66671599  0.66668124  0.33322996  1
  Ni  Ni27  1  0.16671599  0.16684954  0.50027257  1
  Ni  Ni28  1  0.00016594  0.99990321  0.66670463  1
  Ni  Ni29  1  0.16671599  0.16680015  0.83334308  1
  Ni  Ni30  1  0.16671599  0.49988386  0.49984159  1
  Ni  Ni31  1  1.00000358  0.33339683  0.66692300  1
  Ni  Ni32  1  0.16671599  0.49992313  0.83377396  1
  Ni  Ni33  1  0.16671599  0.83341279  0.49984376  1
  Ni  Ni34  1  0.00031326  0.66684644  0.66670565  1
  Ni  Ni35  1  0.16671599  0.83341740  0.83353534  1
  Ni  Ni36  1  0.50000358  0.16670181  0.49984230  1
  Ni  Ni37  1  0.33326604  0.99990321  0.66670463  1
  Ni  Ni38  1  0.49898730  0.16568960  0.83267901  1
  Ni  Ni39  1  0.50016594  0.50019543  0.50006068  1
  Ni  Ni40  1  0.33342840  0.33339683  0.66692300  1
  Ni  Ni41  1  0.49914414  0.50121336  0.83245995  1
  Ni  Ni42  1  0.50031326  0.83325220  0.50005965  1
  Ni  Ni43  1  0.33311871  0.66684644  0.66670565  1
  Ni  Ni44  1  0.50027023  0.83325525  0.83354621  1
  Ni  Ni45  1  0.83342840  0.16670181  0.49984230  1
  Ni  Ni46  1  0.66671599  0.00021478  0.66692371  1
  Ni  Ni47  1  0.83444468  0.16568960  0.83267901  1
  Ni  Ni48  1  0.83326604  0.50019543  0.50006068  1
  Ni  Ni49  1  0.66671599  0.33324910  0.66649274  1
  Ni  Ni50  1  0.83428784  0.50121336  0.83245995  1
  Ni  Ni51  1  0.83311871  0.83325220  0.50005965  1
  Ni  Ni52  1  0.66671599  0.66668585  0.66692154  1
  Ni  Ni53  1  0.83316174  0.83325525  0.83354621  1
" 