3253,Ni5Cr95_11,-238.707111962241, 175.24585192003,Ni5Cr95,"# generated using pymatgen
 data_CrNi26
_symmetry_space_group_name_H-M   'P 1'
_cell_length_a   7.46631114
_cell_length_b   7.46631114
_cell_length_c   10.55895847
_cell_angle_alpha   90.00000000
_cell_angle_beta   90.00000000
_cell_angle_gamma   90.00000000
_symmetry_Int_Tables_number   1
_chemical_formula_structural   CrNi26
_chemical_formula_sum   'Cr2 Ni52'
_cell_volume   588.61760818
_cell_formula_units_Z   2
loop_
 _symmetry_equiv_pos_site_id
 _symmetry_equiv_pos_as_xyz
  1  'x, y, z'
loop_
 _atom_site_type_symbol
 _atom_site_label
 _atom_site_symmetry_multiplicity
 _atom_site_fract_x
 _atom_site_fract_y
 _atom_site_fract_z
 _atom_site_occupancy
  Ni  Ni0  1  0.00031718  0.99986824  0.99987135  1
  Ni  Ni1  1  0.16671599  0.16684218  0.16632467  1
  Ni  Ni2  1  0.00031326  0.99991887  0.33339299  1
  Ni  Ni3  1  0.00068005  0.33235390  0.00095829  1
  Ni  Ni4  1  0.16671599  0.49996515  0.16675556  1
  Ni  Ni5  1  1.00000358  0.33336848  0.33317564  1
  Ni  Ni6  1  0.99920332  0.66792325  0.00095469  1
  Ni  Ni7  1  0.16671599  0.83334791  0.16656329  1
  Ni  Ni8  1  0.00016594  0.66686209  0.33339401  1
  Ni  Ni9  1  0.33311480  0.99986824  0.99987135  1
  Ni  Ni10  1  0.49914414  0.16555194  0.16763869  1
  Ni  Ni11  1  0.33311871  0.99991887  0.33339299  1
  Ni  Ni12  1  0.33275193  0.33235390  0.00095829  1
  Ni  Ni13  1  0.49898730  0.50107571  0.16741963  1
  Ni  Ni14  1  0.33342840  0.33336848  0.33317564  1
  Ni  Ni15  1  0.33422865  0.66792325  0.00095469  1
  Ni  Ni16  1  0.50027023  0.83351006  0.16655243  1
  Ni  Ni17  1  0.33326604  0.66686209  0.33339401  1
  Ni  Ni18  1  0.66671599  0.99839982  0.00010726  1
  Ni  Ni19  1  0.83428784  0.16555194  0.16763869  1
  Ni  Ni20  1  0.66671599  0.00007945  0.33317710  1
  Cr  Cr21  1  0.66671599  0.33348615  0.99986352  1
  Ni  Ni22  1  0.83444468  0.50107571  0.16741963  1
  Ni  Ni23  1  0.66671599  0.33351621  0.33360590  1
  Ni  Ni24  1  0.66671599  0.66826674  0.99987503  1
  Ni  Ni25  1  0.83316174  0.83351006  0.16655243  1
  Ni  Ni26  1  0.66671599  0.66655053  0.33317493  1
  Ni  Ni27  1  0.16671599  0.16688145  0.50025705  1
  Ni  Ni28  1  0.00027023  0.99992192  0.66687955  1
  Ni  Ni29  1  0.16671599  0.16516523  0.83355694  1
  Ni  Ni30  1  0.16671599  0.49991576  0.49982607  1
  Ni  Ni31  1  0.99898730  0.33235627  0.66601235  1
  Cr  Cr32  1  0.16671599  0.49994582  0.83356846  1
  Ni  Ni33  1  0.16671599  0.83335252  0.50025488  1
  Ni  Ni34  1  0.99914414  0.66788003  0.66579329  1
  Ni  Ni35  1  0.16671599  0.83503215  0.83332472  1
  Ni  Ni36  1  0.50016594  0.16656988  0.50003796  1
  Ni  Ni37  1  0.33316174  0.99992192  0.66687955  1
  Ni  Ni38  1  0.49920332  0.16550872  0.83247729  1
  Ni  Ni39  1  0.50000358  0.50006349  0.50025634  1
  Ni  Ni40  1  0.33444468  0.33235627  0.66601235  1
  Ni  Ni41  1  0.50068005  0.50107807  0.83247368  1
  Ni  Ni42  1  0.50031326  0.83351310  0.50003899  1
  Ni  Ni43  1  0.33428784  0.66788003  0.66579329  1
  Ni  Ni44  1  0.50031718  0.83356374  0.83356062  1
  Ni  Ni45  1  0.83326604  0.16656988  0.50003796  1
  Ni  Ni46  1  0.66671599  0.00008406  0.66686868  1
  Ni  Ni47  1  0.83422865  0.16550872  0.83247729  1
  Ni  Ni48  1  0.83342840  0.50006349  0.50025634  1
  Ni  Ni49  1  0.66671599  0.33346682  0.66667641  1
  Ni  Ni50  1  0.83275193  0.50107807  0.83247368  1
  Ni  Ni51  1  0.83311871  0.83351310  0.50003899  1
  Ni  Ni52  1  0.66671599  0.66658980  0.66710730  1
  Ni  Ni53  1  0.83311480  0.83356374  0.83356062  1
" 