407,Ni5Cr95_17,-238.684067396621, 174.725766216273,Ni5Cr95,"# generated using pymatgen
 data_CrNi26
_symmetry_space_group_name_H-M   'P 1'
_cell_length_a   7.46623506
_cell_length_b   7.46623506
_cell_length_c   10.55885088
_cell_angle_alpha   90.00000000
_cell_angle_beta   90.00000000
_cell_angle_gamma   90.00000000
_symmetry_Int_Tables_number   1
_chemical_formula_structural   CrNi26
_chemical_formula_sum   'Cr2 Ni52'
_cell_volume   588.59961441
_cell_formula_units_Z   2
loop_
 _symmetry_equiv_pos_site_id
 _symmetry_equiv_pos_as_xyz
  1  'x, y, z'
loop_
 _atom_site_type_symbol
 _atom_site_label
 _atom_site_symmetry_multiplicity
 _atom_site_fract_x
 _atom_site_fract_y
 _atom_site_fract_z
 _atom_site_occupancy
  Ni  Ni0  1  0.00099531  0.00105297  0.99894578  1
  Ni  Ni1  1  0.16689409  0.16677549  0.16672108  1
  Ni  Ni2  1  0.00099531  0.00105297  0.33449638  1
  Ni  Ni3  1  0.00006110  0.33349714  0.00024125  1
  Ni  Ni4  1  0.16689388  0.49988162  0.16672108  1
  Ni  Ni5  1  0.00006110  0.33349714  0.33320092  1
  Ni  Ni6  1  0.00116504  0.66561045  0.99916465  1
  Ni  Ni7  1  0.16836639  0.83350592  0.16672108  1
  Ni  Ni8  1  0.00116504  0.66561045  0.33427752  1
  Ni  Ni9  1  0.33344485  0.99995209  1.00002776  1
  Ni  Ni10  1  0.49986873  0.16690677  0.16672108  1
  Ni  Ni11  1  0.33344485  0.99995209  0.33341440  1
  Ni  Ni12  1  0.33327701  0.33349849  1.00000828  1
  Ni  Ni13  1  0.50000000  0.49988141  0.16672108  1
  Ni  Ni14  1  0.33327701  0.33349849  0.33343388  1
  Ni  Ni15  1  0.33327836  0.66671440  0.00024125  1
  Ni  Ni16  1  0.49839687  0.83337589  0.16672108  1
  Ni  Ni17  1  0.33327836  0.66671440  0.33320092  1
  Ni  Ni18  1  0.66572379  0.00105171  0.99936330  1
  Ni  Ni19  1  0.83339960  0.16837862  0.16672108  1
  Ni  Ni20  1  0.66572379  0.00105171  0.33407887  1
  Ni  Ni21  1  0.66682340  0.33333065  1.00002776  1
  Ni  Ni22  1  0.83326958  0.49840911  0.16672108  1
  Ni  Ni23  1  0.66682340  0.33333065  0.33341440  1
  Ni  Ni24  1  0.66572252  0.66578019  0.99894578  1
  Cr  Cr25  1  0.83338262  0.83339288  0.16672108  1
  Ni  Ni26  1  0.66572252  0.66578019  0.33449638  1
  Ni  Ni27  1  0.16683047  0.16672776  0.50024125  1
  Ni  Ni28  1  0.00171196  0.00006627  0.66672108  1
  Ni  Ni29  1  0.16683047  0.16672776  0.83320092  1
  Ni  Ni30  1  0.16683182  0.49994367  0.50000828  1
  Ni  Ni31  1  0.00010883  0.33356075  0.66672108  1
  Ni  Ni32  1  0.16683182  0.49994367  0.83343388  1
  Ni  Ni33  1  0.16666398  0.83349007  0.50002776  1
  Ni  Ni34  1  0.00024010  0.66653539  0.66672108  1
  Ni  Ni35  1  0.16666398  0.83349007  0.83341440  1
  Ni  Ni36  1  0.49894379  0.16783171  0.49916465  1
  Ni  Ni37  1  0.33174244  0.99993624  0.66672108  1
  Ni  Ni38  1  0.49894379  0.16783171  0.83427752  1
  Ni  Ni39  1  0.50004773  0.49994503  0.50024125  1
  Ni  Ni40  1  0.33321495  0.33356055  0.66672108  1
  Ni  Ni41  1  0.50004773  0.49994503  0.83320092  1
  Ni  Ni42  1  0.49911352  0.83238919  0.49894578  1
  Ni  Ni43  1  0.33321474  0.66666667  0.66672108  1
  Ni  Ni44  1  0.49911352  0.83238919  0.83449638  1
  Ni  Ni45  1  0.83438631  0.16766198  0.49894578  1
  Cr  Cr46  1  0.66672621  1.00004928  0.66672108  1
  Ni  Ni47  1  0.83438631  0.16766198  0.83449638  1
  Ni  Ni48  1  0.83328543  0.50011151  0.50002776  1
  Ni  Ni49  1  0.66683925  0.33503306  0.66672108  1
  Ni  Ni50  1  0.83328543  0.50011151  0.83341440  1
  Ni  Ni51  1  0.83438504  0.83239045  0.49936330  1
  Ni  Ni52  1  0.66670923  0.66506354  0.66672108  1
  Ni  Ni53  1  0.83438504  0.83239045  0.83407887  1
" 