4894,Ni5Fe95_1,-241.012848480271, 185.651061690938,Ni5Fe95,"# generated using pymatgen
 data_FeNi26
_symmetry_space_group_name_H-M   'P 1'
_cell_length_a   7.45547095
_cell_length_b   7.45547095
_cell_length_c   10.54362813
_cell_angle_alpha   90.00000000
_cell_angle_beta   90.00000000
_cell_angle_gamma   90.00000000
_symmetry_Int_Tables_number   1
_chemical_formula_structural   FeNi26
_chemical_formula_sum   'Fe2 Ni52'
_cell_volume   586.05752219
_cell_formula_units_Z   2
loop_
 _symmetry_equiv_pos_site_id
 _symmetry_equiv_pos_as_xyz
  1  'x, y, z'
loop_
 _atom_site_type_symbol
 _atom_site_label
 _atom_site_symmetry_multiplicity
 _atom_site_fract_x
 _atom_site_fract_y
 _atom_site_fract_z
 _atom_site_occupancy
  Ni  Ni0  1  1.00071573  1.00071573  0.00150371  1
  Fe  Fe1  1  0.16777714  0.16777714  0.16717149  1
  Fe  Fe2  1  1.00044230  1.00044230  0.33438129  1
  Ni  Ni3  1  1.00068016  0.33428308  1.00069905  1
  Ni  Ni4  1  0.16745275  0.50161838  0.16734927  1
  Ni  Ni5  1  1.00072873  0.33494298  0.33409026  1
  Ni  Ni6  1  1.00076290  0.66736836  1.00062267  1
  Ni  Ni7  1  0.16749071  0.83327646  0.16746251  1
  Ni  Ni8  1  1.00076669  0.66660106  0.33420350  1
  Ni  Ni9  1  0.33428308  1.00068016  1.00069905  1
  Ni  Ni10  1  0.50161838  0.16745275  0.16734927  1
  Ni  Ni11  1  0.33494298  1.00072873  0.33409026  1
  Ni  Ni12  1  0.33397318  0.33397318  0.00104770  1
  Ni  Ni13  1  0.50022561  0.50022561  0.16777474  1
  Ni  Ni14  1  0.33360596  0.33360596  0.33410294  1
  Ni  Ni15  1  0.33387503  0.66769424  0.00099385  1
  Ni  Ni16  1  0.50023498  0.83465418  0.16734284  1
  Ni  Ni17  1  0.33356526  0.66798446  0.33420994  1
  Ni  Ni18  1  0.66736836  1.00076290  1.00062267  1
  Ni  Ni19  1  0.83327646  0.16749071  0.16746251  1
  Ni  Ni20  1  0.66660106  1.00076669  0.33420350  1
  Ni  Ni21  1  0.66769424  0.33387503  0.00099385  1
  Ni  Ni22  1  0.83465418  0.50023498  0.16734284  1
  Ni  Ni23  1  0.66798446  0.33356526  0.33420994  1
  Ni  Ni24  1  0.66769669  0.66769669  0.00143188  1
  Ni  Ni25  1  0.83461348  0.83461348  0.16744984  1
  Ni  Ni26  1  0.66799383  0.66799383  0.33377803  1
  Ni  Ni27  1  0.16750371  0.16750371  0.50004906  1
  Ni  Ni28  1  0.00095148  0.00095148  0.66673629  1
  Ni  Ni29  1  0.16726796  0.16726796  0.83481648  1
  Ni  Ni30  1  0.16745654  0.50085108  0.50093010  1
  Ni  Ni31  1  0.00095302  0.33402299  0.66750404  1
  Ni  Ni32  1  0.16761107  0.50086989  0.83404506  1
  Ni  Ni33  1  0.16753929  0.83393636  0.50085372  1
  Ni  Ni34  1  1.00060837  0.66734955  0.66750772  1
  Ni  Ni35  1  0.16726642  0.83419645  0.83404873  1
  Ni  Ni36  1  0.50085108  0.16745654  0.50093010  1
  Ni  Ni37  1  0.33402299  0.00095302  0.66750404  1
  Ni  Ni38  1  0.50086989  0.16761107  0.83404506  1
  Ni  Ni39  1  0.50052275  0.50052275  0.50012089  1
  Ni  Ni40  1  0.33367853  0.33367853  0.66712210  1
  Ni  Ni41  1  0.50052230  0.50052230  0.83443116  1
  Ni  Ni42  1  0.50052520  0.83434441  0.50055892  1
  Ni  Ni43  1  0.33402311  0.66769713  0.66712191  1
  Ni  Ni44  1  0.50052231  0.83419633  0.83443086  1
  Ni  Ni45  1  0.83393636  0.16753929  0.50085372  1
  Ni  Ni46  1  0.66734955  1.00060837  0.66750772  1
  Ni  Ni47  1  0.83419645  0.16726642  0.83404873  1
  Ni  Ni48  1  0.83434441  0.50052520  0.50055892  1
  Ni  Ni49  1  0.66769713  0.33402311  0.66712191  1
  Ni  Ni50  1  0.83419633  0.50052231  0.83443086  1
  Ni  Ni51  1  0.83424626  0.83424626  0.50050508  1
  Ni  Ni52  1  0.66769714  0.66769714  0.66712161  1
  Ni  Ni53  1  0.83454091  0.83454091  0.83443068  1
" 