3362,Ni5Fe95_10,-240.970353791545, 185.613971163221,Ni5Fe95,"# generated using pymatgen
 data_FeNi26
_symmetry_space_group_name_H-M   'P 1'
_cell_length_a   7.45518247
_cell_length_b   7.45518247
_cell_length_c   10.54322016
_cell_angle_alpha   90.00000000
_cell_angle_beta   90.00000000
_cell_angle_gamma   90.00000000
_symmetry_Int_Tables_number   1
_chemical_formula_structural   FeNi26
_chemical_formula_sum   'Fe2 Ni52'
_cell_volume   585.98949522
_cell_formula_units_Z   2
loop_
 _symmetry_equiv_pos_site_id
 _symmetry_equiv_pos_as_xyz
  1  'x, y, z'
loop_
 _atom_site_type_symbol
 _atom_site_label
 _atom_site_symmetry_multiplicity
 _atom_site_fract_x
 _atom_site_fract_y
 _atom_site_fract_z
 _atom_site_occupancy
  Ni  Ni0  1  0.00098080  0.00079576  0.00079576  1
  Ni  Ni1  1  0.16696850  0.16687760  0.16752704  1
  Ni  Ni2  1  1.00069661  0.00103613  0.33413498  1
  Ni  Ni3  1  0.00089455  0.33420586  1.00071598  1
  Ni  Ni4  1  0.16660906  0.50111190  0.16712874  1
  Ni  Ni5  1  1.00064134  0.33395986  0.33422555  1
  Ni  Ni6  1  0.00089455  0.66738567  0.00087555  1
  Ni  Ni7  1  0.16805587  0.83439651  0.16712992  1
  Ni  Ni8  1  0.00101638  0.66740409  0.33412262  1
  Ni  Ni9  1  0.33412910  0.00079576  0.00079576  1
  Ni  Ni10  1  0.50128970  0.16687760  0.16752704  1
  Ni  Ni11  1  0.33412910  1.00064907  0.33422573  1
  Ni  Ni12  1  0.33412910  0.33414467  0.00121316  1
  Ni  Ni13  1  0.50164913  0.50111190  0.16712874  1
  Ni  Ni14  1  0.33412910  0.33429068  0.33380827  1
  Ni  Ni15  1  0.33412910  0.66744686  1.00037837  1
  Ni  Ni16  1  0.50020233  0.83439651  0.16712992  1
  Ni  Ni17  1  0.33412910  0.66744782  0.33422530  1
  Ni  Ni18  1  0.66727740  0.00079576  0.00079576  1
  Ni  Ni19  1  0.83412910  0.16835726  0.16672670  1
  Ni  Ni20  1  0.66756159  0.00103613  0.33413498  1
  Ni  Ni21  1  0.66736364  0.33420586  1.00071598  1
  Ni  Ni22  1  0.83412910  0.50004285  0.16753057  1
  Ni  Ni23  1  0.66761685  0.33395986  0.33422555  1
  Ni  Ni24  1  0.66736364  0.66738567  0.00087555  1
  Fe  Fe25  1  0.83412910  0.83418659  0.16743282  1
  Ni  Ni26  1  0.66724182  0.66740409  0.33412262  1
  Ni  Ni27  1  0.16727707  0.16719288  0.50040398  1
  Ni  Ni28  1  1.00069661  1.00055540  0.66745655  1
  Ni  Ni29  1  0.16805587  0.16719502  0.83446161  1
  Ni  Ni30  1  0.16692538  0.50079576  0.50079576  1
  Ni  Ni31  1  0.00101638  0.33418744  0.66746891  1
  Ni  Ni32  1  0.16660906  0.50047963  0.83446279  1
  Ni  Ni33  1  0.16727707  0.83439865  0.50118755  1
  Ni  Ni34  1  1.00064134  0.66763166  0.66736598  1
  Ni  Ni35  1  0.16696850  0.83471393  0.83406449  1
  Ni  Ni36  1  0.50098113  0.16719288  0.50040398  1
  Ni  Ni37  1  0.33412910  0.00094246  0.66736580  1
  Ni  Ni38  1  0.50020233  0.16719502  0.83446161  1
  Ni  Ni39  1  0.50133282  0.50079576  0.50079576  1
  Ni  Ni40  1  0.33412910  0.33414371  0.66736622  1
  Ni  Ni41  1  0.50164913  0.50047963  0.83446279  1
  Ni  Ni42  1  0.50098113  0.83439865  0.50118755  1
  Ni  Ni43  1  0.33412910  0.66730085  0.66778326  1
  Ni  Ni44  1  0.50128970  0.83471393  0.83406449  1
  Ni  Ni45  1  0.83412910  0.16753873  0.50158102  1
  Ni  Ni46  1  0.66756159  1.00055540  0.66745655  1
  Fe  Fe47  1  0.83412910  0.16740494  0.83415871  1
  Ni  Ni48  1  0.83412910  0.50079576  0.50079576  1
  Ni  Ni49  1  0.66724182  0.33418744  0.66746891  1
  Ni  Ni50  1  0.83412910  0.50154868  0.83406096  1
  Ni  Ni51  1  0.83412910  0.83405280  0.50001050  1
  Ni  Ni52  1  0.66761685  0.66763166  0.66736598  1
  Ni  Ni53  1  0.83412910  0.83323427  0.83486483  1
" 