7183,Ni5Fe95_14,-241.020826923234, 185.768456045418,Ni5Fe95,"# generated using pymatgen
 data_FeNi26
_symmetry_space_group_name_H-M   'P 1'
_cell_length_a   7.45607907
_cell_length_b   7.45607907
_cell_length_c   10.54448814
_cell_angle_alpha   90.00000000
_cell_angle_beta   90.00000000
_cell_angle_gamma   90.00000000
_symmetry_Int_Tables_number   1
_chemical_formula_structural   FeNi26
_chemical_formula_sum   'Fe2 Ni52'
_cell_volume   586.20094310
_cell_formula_units_Z   2
loop_
 _symmetry_equiv_pos_site_id
 _symmetry_equiv_pos_as_xyz
  1  'x, y, z'
loop_
 _atom_site_type_symbol
 _atom_site_label
 _atom_site_symmetry_multiplicity
 _atom_site_fract_x
 _atom_site_fract_y
 _atom_site_fract_z
 _atom_site_occupancy
  Ni  Ni0  1  1.00072299  0.00074810  1.00052712  1
  Ni  Ni1  1  0.16796295  0.16563034  0.16740221  1
  Ni  Ni2  1  1.00072299  0.00074810  0.33427730  1
  Ni  Ni3  1  1.00049561  0.33382895  0.00094838  1
  Fe  Fe4  1  0.16649078  0.49982411  0.16740221  1
  Ni  Ni5  1  1.00049561  0.33382895  0.33385604  1
  Ni  Ni6  1  1.00067476  0.66745480  1.00064540  1
  Ni  Ni7  1  0.16692382  0.83454726  0.16740221  1
  Ni  Ni8  1  1.00067476  0.66745480  0.33415902  1
  Ni  Ni9  1  0.33401629  0.00079632  1.00064540  1
  Ni  Ni10  1  0.50017480  0.16917408  0.16740221  1
  Ni  Ni11  1  0.33401629  0.00079632  0.33415902  1
  Ni  Ni12  1  0.33412147  0.33400810  1.00064540  1
  Ni  Ni13  1  0.50121393  0.50025716  0.16740221  1
  Ni  Ni14  1  0.33412147  0.33400810  0.33415902  1
  Ni  Ni15  1  0.33406888  0.66740221  0.00112634  1
  Fe  Fe16  1  0.50164697  0.83498031  0.16740221  1
  Ni  Ni17  1  0.33406888  0.66740221  0.33367808  1
  Ni  Ni18  1  0.66764214  0.00097547  0.00094838  1
  Ni  Ni19  1  0.83406888  0.16740221  0.16740221  1
  Ni  Ni20  1  0.66764214  0.00097547  0.33385604  1
  Ni  Ni21  1  0.66741476  0.33405632  1.00052712  1
  Ni  Ni22  1  0.83229700  0.50129628  0.16740221  1
  Ni  Ni23  1  0.66741476  0.33405632  0.33427730  1
  Ni  Ni24  1  0.66746299  0.66734962  1.00064540  1
  Ni  Ni25  1  0.83584075  0.83350814  0.16740221  1
  Ni  Ni26  1  0.66746299  0.66734962  0.33415902  1
  Ni  Ni27  1  0.16765414  0.16705316  0.50047049  1
  Ni  Ni28  1  1.00054452  0.00092657  0.66740221  1
  Ni  Ni29  1  0.16765414  0.16705316  0.83433393  1
  Ni  Ni30  1  0.16765312  0.50098646  0.49967291  1
  Ni  Ni31  1  0.00093638  0.33426971  0.66740221  1
  Ni  Ni32  1  0.16765312  0.50098646  0.83513151  1
  Ni  Ni33  1  0.16730779  0.83416329  0.50086095  1
  Ni  Ni34  1  0.00093659  0.66701056  0.66740221  1
  Ni  Ni35  1  0.16730779  0.83416329  0.83394347  1
  Ni  Ni36  1  0.50048362  0.16775126  0.50047049  1
  Ni  Ni37  1  0.33446053  1.00053450  0.66740221  1
  Ni  Ni38  1  0.50048362  0.16775126  0.83433393  1
  Ni  Ni39  1  0.50082996  0.50064113  0.50086095  1
  Ni  Ni40  1  0.33367722  0.33426992  0.66740221  1
  Ni  Ni41  1  0.50082996  0.50064113  0.83394347  1
  Ni  Ni42  1  0.50048463  0.83381796  0.49967291  1
  Ni  Ni43  1  0.33406888  0.66740221  0.66740221  1
  Ni  Ni44  1  0.50048463  0.83381796  0.83513151  1
  Ni  Ni45  1  0.83406888  0.16740221  0.50008562  1
  Ni  Ni46  1  0.66720138  1.00053471  0.66740221  1
  Ni  Ni47  1  0.83406888  0.16740221  0.83471880  1
  Ni  Ni48  1  0.83371982  0.50098747  0.50047049  1
  Ni  Ni49  1  0.66759324  0.33387785  0.66740221  1
  Ni  Ni50  1  0.83371982  0.50098747  0.83433393  1
  Ni  Ni51  1  0.83441793  0.83381695  0.50047049  1
  Ni  Ni52  1  0.66720116  0.66779386  0.66740221  1
  Ni  Ni53  1  0.83441793  0.83381695  0.83433393  1
" 