8115,Ni5Fe95_12,-241.012848480271, 185.651061744546,Ni5Fe95,"# generated using pymatgen
 data_FeNi26
_symmetry_space_group_name_H-M   'P 1'
_cell_length_a   7.45547095
_cell_length_b   7.45547095
_cell_length_c   10.54362813
_cell_angle_alpha   90.00000000
_cell_angle_beta   90.00000000
_cell_angle_gamma   90.00000000
_symmetry_Int_Tables_number   1
_chemical_formula_structural   FeNi26
_chemical_formula_sum   'Fe2 Ni52'
_cell_volume   586.05752219
_cell_formula_units_Z   2
loop_
 _symmetry_equiv_pos_site_id
 _symmetry_equiv_pos_as_xyz
  1  'x, y, z'
loop_
 _atom_site_type_symbol
 _atom_site_label
 _atom_site_symmetry_multiplicity
 _atom_site_fract_x
 _atom_site_fract_y
 _atom_site_fract_z
 _atom_site_occupancy
  Ni  Ni0  1  0.00120758  0.00120758  0.00109735  1
  Ni  Ni1  1  0.16738239  0.16738239  0.16817038  1
  Ni  Ni2  1  0.00128014  0.00128014  0.33411650  1
  Ni  Ni3  1  0.00086312  0.33393309  1.00071540  1
  Ni  Ni4  1  0.16734682  0.50094974  0.16736572  1
  Ni  Ni5  1  0.99994313  0.33415737  0.33412918  1
  Ni  Ni6  1  0.00086300  0.66718898  0.00109753  1
  Ni  Ni7  1  0.16742957  0.83403503  0.16728934  1
  Ni  Ni8  1  0.00132085  0.66690164  0.33400950  1
  Ni  Ni9  1  0.33393309  0.00086312  1.00071540  1
  Ni  Ni10  1  0.50094974  0.16734682  0.16736572  1
  Ni  Ni11  1  0.33415737  0.99994313  0.33412918  1
  Ni  Ni12  1  0.33393463  0.33393463  0.00148315  1
  Ni  Ni13  1  0.50063985  0.50063985  0.16771436  1
  Fe  Fe14  1  0.33444381  0.33444381  0.33383815  1
  Ni  Ni15  1  0.33427773  0.66753655  1.00071172  1
  Ni  Ni16  1  0.50054170  0.83436091  0.16766052  1
  Ni  Ni17  1  0.33411941  0.66828505  0.33401594  1
  Ni  Ni18  1  0.66718898  0.00086300  0.00109753  1
  Ni  Ni19  1  0.83403503  0.16742957  0.16728934  1
  Ni  Ni20  1  0.66690164  0.00132085  0.33400950  1
  Ni  Ni21  1  0.66753655  0.33427773  1.00071172  1
  Ni  Ni22  1  0.83436091  0.50054170  0.16766052  1
  Ni  Ni23  1  0.66828505  0.33411941  0.33401594  1
  Ni  Ni24  1  0.66718897  0.66718897  0.00109783  1
  Ni  Ni25  1  0.83436336  0.83436336  0.16809855  1
  Ni  Ni26  1  0.66689228  0.66689228  0.33444141  1
  Fe  Fe27  1  0.16710896  0.16710896  0.50104795  1
  Ni  Ni28  1  0.00091293  0.00091293  0.66717174  1
  Ni  Ni29  1  0.16761815  0.16761815  0.83340296  1
  Ni  Ni30  1  0.16739540  0.50160965  0.50075693  1
  Ni  Ni31  1  1.00060303  0.33420595  0.66752039  1
  Ni  Ni32  1  0.16761968  0.50068966  0.83417071  1
  Ni  Ni33  1  0.16743336  0.83326772  0.50087017  1
  Ni  Ni34  1  0.00101107  0.66719187  0.66722559  1
  Ni  Ni35  1  0.16727504  0.83401622  0.83417438  1
  Ni  Ni36  1  0.50160965  0.16739540  0.50075693  1
  Ni  Ni37  1  0.33420595  1.00060303  0.66752039  1
  Ni  Ni38  1  0.50068966  0.16761968  0.83417071  1
  Ni  Ni39  1  0.50027263  0.50027263  0.50076960  1
  Ni  Ni40  1  0.33417038  0.33417038  0.66671573  1
  Ni  Ni41  1  0.50034519  0.50034519  0.83378876  1
  Ni  Ni42  1  0.50023193  0.83465113  0.50087660  1
  Ni  Ni43  1  0.33412321  0.66751775  0.66759677  1
  Ni  Ni44  1  0.50068978  0.83436379  0.83378858  1
  Ni  Ni45  1  0.83326772  0.16743336  0.50087017  1
  Ni  Ni46  1  0.66719187  0.00101107  0.66722559  1
  Ni  Ni47  1  0.83401622  0.16727504  0.83417438  1
  Ni  Ni48  1  0.83465113  0.50023193  0.50087660  1
  Ni  Ni49  1  0.66751775  0.33412321  0.66759677  1
  Ni  Ni50  1  0.83436379  0.50068978  0.83378858  1
  Ni  Ni51  1  0.83466049  0.83466049  0.50044470  1
  Ni  Ni52  1  0.66718941  0.66718941  0.66678756  1
  Ni  Ni53  1  0.83436380  0.83436380  0.83378828  1
" 