5469,Ni5Fe95_18,-240.923269753192, 185.393635131997,Ni5Fe95,"# generated using pymatgen
 data_FeNi26
_symmetry_space_group_name_H-M   'P 1'
_cell_length_a   7.45506018
_cell_length_b   7.45506018
_cell_length_c   10.54304721
_cell_angle_alpha   90.00000000
_cell_angle_beta   90.00000000
_cell_angle_gamma   90.00000000
_symmetry_Int_Tables_number   1
_chemical_formula_structural   FeNi26
_chemical_formula_sum   'Fe2 Ni52'
_cell_volume   585.96065798
_cell_formula_units_Z   2
loop_
 _symmetry_equiv_pos_site_id
 _symmetry_equiv_pos_as_xyz
  1  'x, y, z'
loop_
 _atom_site_type_symbol
 _atom_site_label
 _atom_site_symmetry_multiplicity
 _atom_site_fract_x
 _atom_site_fract_y
 _atom_site_fract_z
 _atom_site_occupancy
  Ni  Ni0  1  1.00038867  1.00054333  0.00112617  1
  Ni  Ni1  1  0.16747065  0.16738640  0.16771820  1
  Ni  Ni2  1  1.00022471  1.00025947  0.33404781  1
  Ni  Ni3  1  1.00070493  0.33455938  0.00112624  1
  Ni  Ni4  1  0.16747065  0.50078347  0.16808230  1
  Ni  Ni5  1  1.00015712  0.33462278  0.33411927  1
  Ni  Ni6  1  0.00104929  0.66730919  1.00074624  1
  Ni  Ni7  1  0.16747065  0.83423563  0.16732133  1
  Ni  Ni8  1  0.00155596  0.66755797  0.33411240  1
  Ni  Ni9  1  0.33455262  1.00054333  0.00112617  1
  Ni  Ni10  1  0.50052601  0.16772048  0.16769922  1
  Ni  Ni11  1  0.33471659  1.00025947  0.33404781  1
  Ni  Ni12  1  0.33423637  0.33455938  0.00112624  1
  Ni  Ni13  1  0.50081768  0.50073489  0.16740647  1
  Ni  Ni14  1  0.33478417  0.33462278  0.33411927  1
  Ni  Ni15  1  0.33389201  0.66730919  1.00074624  1
  Ni  Ni16  1  0.50049003  0.83393054  0.16780079  1
  Ni  Ni17  1  0.33338534  0.66755797  0.33411240  1
  Ni  Ni18  1  0.66747065  0.00088776  1.00074634  1
  Ni  Ni19  1  0.83441528  0.16772048  0.16769922  1
  Ni  Ni20  1  0.66747065  0.00162407  0.33444273  1
  Ni  Ni21  1  0.66747065  0.33389923  1.00074636  1
  Ni  Ni22  1  0.83412362  0.50073489  0.16740647  1
  Ni  Ni23  1  0.66747065  0.33325709  0.33404861  1
  Ni  Ni24  1  0.66747065  0.66762452  0.00151181  1
  Ni  Ni25  1  0.83445126  0.83393054  0.16780079  1
  Fe  Fe26  1  0.66747065  0.66744377  0.33417919  1
  Ni  Ni27  1  0.16747065  0.16665056  0.50049856  1
  Ni  Ni28  1  1.00052601  1.00055414  0.66724207  1
  Ni  Ni29  1  0.16747065  0.16738687  0.83419495  1
  Fe  Fe30  1  0.16747065  0.50083086  0.50076210  1
  Ni  Ni31  1  1.00049003  0.33434408  0.66714050  1
  Ni  Ni32  1  0.16747065  0.50065010  0.83342949  1
  Ni  Ni33  1  0.16747065  0.83501753  0.50089269  1
  Ni  Ni34  1  0.00081768  0.66753973  0.66753482  1
  Ni  Ni35  1  0.16747065  0.83437540  0.83419494  1
  Ni  Ni36  1  0.50022471  0.16801515  0.50089348  1
  Ni  Ni37  1  0.33441528  1.00055414  0.66724207  1
  Ni  Ni38  1  0.50038867  0.16773130  0.83381512  1
  Ni  Ni39  1  0.50155596  0.50071666  0.50082889  1
  Ni  Ni40  1  0.33445126  0.33434408  0.66714050  1
  Ni  Ni41  1  0.50104929  0.50096543  0.83419505  1
  Ni  Ni42  1  0.50015712  0.83365184  0.50082202  1
  Ni  Ni43  1  0.33412362  0.66753973  0.66753482  1
  Ni  Ni44  1  0.50070493  0.83371524  0.83381505  1
  Ni  Ni45  1  0.83471659  0.16801515  0.50089348  1
  Ni  Ni46  1  0.66747065  0.00088823  0.66722309  1
  Ni  Ni47  1  0.83455262  0.16773130  0.83381512  1
  Ni  Ni48  1  0.83338534  0.50071666  0.50082889  1
  Ni  Ni49  1  0.66747065  0.33403900  0.66761997  1
  Ni  Ni50  1  0.83389201  0.50096543  0.83419505  1
  Ni  Ni51  1  0.83478417  0.83365184  0.50082202  1
  Ni  Ni52  1  0.66747065  0.66749116  0.66685900  1
  Ni  Ni53  1  0.83423637  0.83371524  0.83381505  1
" 