3823,Ni5Fe95_2,-240.99601721932, 185.839086491473,Ni5Fe95,"# generated using pymatgen
 data_FeNi26
_symmetry_space_group_name_H-M   'P 1'
_cell_length_a   7.45637100
_cell_length_b   7.45637100
_cell_length_c   10.54490100
_cell_angle_alpha   90.00000000
_cell_angle_beta   90.00000000
_cell_angle_gamma   90.00000000
_symmetry_Int_Tables_number   1
_chemical_formula_structural   FeNi26
_chemical_formula_sum   'Fe2 Ni52'
_cell_volume   586.26980164
_cell_formula_units_Z   2
loop_
 _symmetry_equiv_pos_site_id
 _symmetry_equiv_pos_as_xyz
  1  'x, y, z'
loop_
 _atom_site_type_symbol
 _atom_site_label
 _atom_site_symmetry_multiplicity
 _atom_site_fract_x
 _atom_site_fract_y
 _atom_site_fract_z
 _atom_site_occupancy
  Ni  Ni0  1  0.00096210  1.00055822  1.00046343  1
  Ni  Ni1  1  0.16738261  0.16738261  0.16738261  1
  Ni  Ni2  1  0.00096210  1.00055822  0.33430178  1
  Ni  Ni3  1  0.00096210  0.33420699  1.00046343  1
  Ni  Ni4  1  0.16738261  0.50106954  0.16738261  1
  Ni  Ni5  1  0.00096210  0.33420699  0.33430178  1
  Ni  Ni6  1  1.00063178  0.66738261  1.00005989  1
  Ni  Ni7  1  0.16738261  0.83369567  0.16738261  1
  Ni  Ni8  1  1.00063178  0.66738261  0.33470532  1
  Ni  Ni9  1  0.33380311  1.00055822  1.00046343  1
  Ni  Ni10  1  0.50088969  0.16738261  0.16738261  1
  Ni  Ni11  1  0.33380311  1.00055822  0.33430178  1
  Ni  Ni12  1  0.33380311  0.33420699  1.00046343  1
  Ni  Ni13  1  0.50053882  0.50071932  0.16738261  1
  Ni  Ni14  1  0.33380311  0.33420699  0.33430178  1
  Ni  Ni15  1  0.33413343  0.66738261  1.00005989  1
  Ni  Ni16  1  0.50053882  0.83404589  0.16738261  1
  Ni  Ni17  1  0.33413343  0.66738261  0.33470532  1
  Ni  Ni18  1  0.66738261  1.00021464  1.00006557  1
  Ni  Ni19  1  0.83387552  0.16738261  0.16738261  1
  Ni  Ni20  1  0.66738261  1.00021464  0.33469964  1
  Ni  Ni21  1  0.66738261  0.33455057  1.00006557  1
  Ni  Ni22  1  0.83422639  0.50071932  0.16738261  1
  Ni  Ni23  1  0.66738261  0.33455057  0.33469964  1
  Ni  Ni24  1  0.66738261  0.66738261  0.00084730  1
  Ni  Ni25  1  0.83422639  0.83404589  0.16738261  1
  Ni  Ni26  1  0.66738261  0.66738261  0.33391791  1
  Ni  Ni27  1  0.16738261  0.16738261  0.50053363  1
  Ni  Ni28  1  0.00128087  0.00094876  0.66738261  1
  Ni  Ni29  1  0.16738261  0.16738261  0.83423158  1
  Ni  Ni30  1  0.16738261  0.50055566  0.50070277  1
  Ni  Ni31  1  0.00128087  0.33381645  0.66738261  1
  Ni  Ni32  1  0.16738261  0.50055566  0.83406245  1
  Ni  Ni33  1  0.16738261  0.83420955  0.50070277  1
  Fe  Fe34  1  0.99995029  0.66738261  0.66738261  1
  Ni  Ni35  1  0.16738261  0.83420955  0.83406245  1
  Ni  Ni36  1  0.50073077  0.16738261  0.50096344  1
  Ni  Ni37  1  0.33348434  0.00094876  0.66738261  1
  Ni  Ni38  1  0.50073077  0.16738261  0.83380177  1
  Ni  Ni39  1  0.50073402  0.50065092  0.50064250  1
  Ni  Ni40  1  0.33348434  0.33381645  0.66738261  1
  Ni  Ni41  1  0.50073402  0.50065092  0.83412271  1
  Ni  Ni42  1  0.50073402  0.83411429  0.50064250  1
  Fe  Fe43  1  0.33481492  0.66738261  0.66738261  1
  Ni  Ni44  1  0.50073402  0.83411429  0.83412271  1
  Ni  Ni45  1  0.83403444  0.16738261  0.50096344  1
  Ni  Ni46  1  0.66738261  0.99962979  0.66738261  1
  Ni  Ni47  1  0.83403444  0.16738261  0.83380177  1
  Ni  Ni48  1  0.83403119  0.50065092  0.50064250  1
  Ni  Ni49  1  0.66738261  0.33513542  0.66738261  1
  Ni  Ni50  1  0.83403119  0.50065092  0.83412271  1
  Ni  Ni51  1  0.83403119  0.83411429  0.50064250  1
  Ni  Ni52  1  0.66738261  0.66738261  0.66738261  1
  Ni  Ni53  1  0.83403119  0.83411429  0.83412271  1
" 