4979,Ni5Fe95_0,-240.923269753192, 185.393635139382,Ni5Fe95,"# generated using pymatgen
 data_FeNi26
_symmetry_space_group_name_H-M   'P 1'
_cell_length_a   7.45506018
_cell_length_b   7.45506018
_cell_length_c   10.54304721
_cell_angle_alpha   90.00000000
_cell_angle_beta   90.00000000
_cell_angle_gamma   90.00000000
_symmetry_Int_Tables_number   1
_chemical_formula_structural   FeNi26
_chemical_formula_sum   'Fe2 Ni52'
_cell_volume   585.96065798
_cell_formula_units_Z   2
loop_
 _symmetry_equiv_pos_site_id
 _symmetry_equiv_pos_as_xyz
  1  'x, y, z'
loop_
 _atom_site_type_symbol
 _atom_site_label
 _atom_site_symmetry_multiplicity
 _atom_site_fract_x
 _atom_site_fract_y
 _atom_site_fract_z
 _atom_site_occupancy
  Fe  Fe0  1  1.00077710  0.00080398  1.00076210  1
  Ni  Ni1  1  0.16726388  0.16778460  0.16714050  1
  Ni  Ni2  1  0.00095786  0.00080398  0.33342949  1
  Ni  Ni3  1  0.00089130  0.33488929  0.00082889  1
  Ni  Ni4  1  0.16756896  0.50080398  0.16761997  1
  Ni  Ni5  1  1.00064253  0.33438262  0.33419505  1
  Ni  Ni6  1  0.00089130  0.66671867  0.00082889  1
  Ni  Ni7  1  0.16726388  0.83382336  0.16714050  1
  Ni  Ni8  1  1.00064253  0.66722534  0.33419505  1
  Ni  Ni9  1  0.33495740  0.00080398  1.00049856  1
  Ni  Ni10  1  0.50105381  0.16774861  0.16724207  1
  Ni  Ni11  1  0.33422109  0.00080398  0.33419495  1
  Ni  Ni12  1  0.33359281  0.33355804  0.00089348  1
  Ni  Ni13  1  0.50071973  0.50080398  0.16722309  1
  Ni  Ni14  1  0.33387666  0.33372200  0.33381512  1
  Ni  Ni15  1  0.33359281  0.66804992  0.00089348  1
  Ni  Ni16  1  0.50105381  0.83385935  0.16724207  1
  Ni  Ni17  1  0.33387666  0.66788596  0.33381512  1
  Ni  Ni18  1  0.66659043  0.00080398  0.00089269  1
  Ni  Ni19  1  0.83406823  0.16745695  0.16753482  1
  Ni  Ni20  1  0.66723256  0.00080398  0.33419494  1
  Ni  Ni21  1  0.66795612  0.33349046  0.00082202  1
  Ni  Ni22  1  0.83411680  0.50080398  0.16685900  1
  Ni  Ni23  1  0.66789272  0.33403826  0.33381505  1
  Ni  Ni24  1  0.66795612  0.66811750  0.00082202  1
  Ni  Ni25  1  0.83406823  0.83415101  0.16753482  1
  Ni  Ni26  1  0.66789272  0.66756970  0.33381505  1
  Ni  Ni27  1  0.16704858  0.16756970  0.50112624  1
  Ni  Ni28  1  0.00082449  0.00080398  0.66808230  1
  Ni  Ni29  1  0.16698518  0.16811750  0.83411927  1
  Ni  Ni30  1  0.16770873  0.50080398  0.50074636  1
  Ni  Ni31  1  0.00087306  0.33415101  0.66740647  1
  Ni  Ni32  1  0.16835087  0.50080398  0.83404861  1
  Ni  Ni33  1  0.16704858  0.83403826  0.50112624  1
  Ni  Ni34  1  0.00087306  0.66745695  0.66740647  1
  Ni  Ni35  1  0.16698518  0.83349046  0.83411927  1
  Ni  Ni36  1  0.50106463  0.16788596  0.50112617  1
  Ni  Ni37  1  0.33422156  0.00080398  0.66771820  1
  Ni  Ni38  1  0.50134849  0.16804992  0.83404781  1
  Ni  Ni39  1  0.50072020  0.50080398  0.50074634  1
  Ni  Ni40  1  0.33388748  0.33385935  0.66769922  1
  Ni  Ni41  1  0.49998389  0.50080398  0.83444273  1
  Ni  Ni42  1  0.50106463  0.83372200  0.50112617  1
  Ni  Ni43  1  0.33388748  0.66774861  0.66769922  1
  Ni  Ni44  1  0.50134849  0.83355804  0.83404781  1
  Ni  Ni45  1  0.83429877  0.16722534  0.50074624  1
  Ni  Ni46  1  0.66737233  0.00080398  0.66732133  1
  Ni  Ni47  1  0.83404999  0.16671867  0.83411240  1
  Ni  Ni48  1  0.83398343  0.50080398  0.50151181  1
  Ni  Ni49  1  0.66767742  0.33382336  0.66780079  1
  Fe  Fe50  1  0.83416419  0.50080398  0.83417919  1
  Ni  Ni51  1  0.83429877  0.83438262  0.50074624  1
  Ni  Ni52  1  0.66767742  0.66778460  0.66780079  1
  Ni  Ni53  1  0.83404999  0.83488929  0.83411240  1
" 