4712,Ni5Fe95_17,-241.020826923234, 185.768455862921,Ni5Fe95,"# generated using pymatgen
 data_FeNi26
_symmetry_space_group_name_H-M   'P 1'
_cell_length_a   7.45607907
_cell_length_b   7.45607907
_cell_length_c   10.54448814
_cell_angle_alpha   90.00000000
_cell_angle_beta   90.00000000
_cell_angle_gamma   90.00000000
_symmetry_Int_Tables_number   1
_chemical_formula_structural   FeNi26
_chemical_formula_sum   'Fe2 Ni52'
_cell_volume   586.20094310
_cell_formula_units_Z   2
loop_
 _symmetry_equiv_pos_site_id
 _symmetry_equiv_pos_as_xyz
  1  'x, y, z'
loop_
 _atom_site_type_symbol
 _atom_site_label
 _atom_site_symmetry_multiplicity
 _atom_site_fract_x
 _atom_site_fract_y
 _atom_site_fract_z
 _atom_site_occupancy
  Ni  Ni0  1  0.00098646  1.00048463  0.00179818  1
  Ni  Ni1  1  0.16745480  0.16746299  0.16731207  1
  Fe  Fe2  1  0.99982411  0.00164697  0.33406888  1
  Ni  Ni3  1  0.00098747  0.33441793  0.00100060  1
  Ni  Ni4  1  0.16734962  0.50067476  0.16731207  1
  Ni  Ni5  1  0.00129628  0.33584075  0.33406888  1
  Ni  Ni6  1  1.00064113  0.66730779  1.00061014  1
  Ni  Ni7  1  0.16740221  0.83406888  0.16779301  1
  Ni  Ni8  1  1.00025716  0.66692382  0.33406888  1
  Ni  Ni9  1  0.33416329  0.00082996  1.00061014  1
  Ni  Ni10  1  0.50074810  0.16741476  0.16719378  1
  Ni  Ni11  1  0.33454726  0.00121393  0.33406888  1
  Ni  Ni12  1  0.33381695  0.33371982  0.00100060  1
  Ni  Ni13  1  0.50097547  0.50049561  0.16761505  1
  Ni  Ni14  1  0.33350814  0.33229700  0.33406888  1
  Ni  Ni15  1  0.33381796  0.66765312  0.00179818  1
  Ni  Ni16  1  0.50079632  0.83412147  0.16731207  1
  Fe  Fe17  1  0.33498031  0.66649078  0.33406888  1
  Ni  Ni18  1  0.66705316  1.00048362  0.00100060  1
  Ni  Ni19  1  0.83382895  0.16764214  0.16761505  1
  Ni  Ni20  1  0.66563034  1.00017480  0.33406888  1
  Ni  Ni21  1  0.66740221  0.33406888  0.00138546  1
  Ni  Ni22  1  0.83405632  0.50072299  0.16719378  1
  Ni  Ni23  1  0.66740221  0.33406888  0.33406888  1
  Ni  Ni24  1  0.66775126  0.66765414  0.00100060  1
  Ni  Ni25  1  0.83400810  0.83401629  0.16731207  1
  Ni  Ni26  1  0.66917408  0.66796295  0.33406888  1
  Ni  Ni27  1  0.16745480  0.16746299  0.50082569  1
  Ni  Ni28  1  0.00098646  1.00048463  0.66633958  1
  Ni  Ni29  1  0.16701056  0.16720116  0.83406888  1
  Ni  Ni30  1  0.16734962  0.50067476  0.50082569  1
  Ni  Ni31  1  0.00098747  0.33441793  0.66713716  1
  Ni  Ni32  1  0.16779386  0.50093659  0.83406888  1
  Ni  Ni33  1  0.16740221  0.83406888  0.50034475  1
  Ni  Ni34  1  1.00064113  0.66730779  0.66752761  1
  Ni  Ni35  1  0.16740221  0.83406888  0.83406888  1
  Ni  Ni36  1  0.50074810  0.16741476  0.50094397  1
  Ni  Ni37  1  0.33416329  0.00082996  0.66752761  1
  Ni  Ni38  1  0.50092657  0.16759324  0.83406888  1
  Ni  Ni39  1  0.50097547  0.50049561  0.50052270  1
  Ni  Ni40  1  0.33381695  0.33371982  0.66713716  1
  Ni  Ni41  1  0.50053471  0.50093638  0.83406888  1
  Ni  Ni42  1  0.50079632  0.83412147  0.50082569  1
  Ni  Ni43  1  0.33381796  0.66765312  0.66633958  1
  Ni  Ni44  1  0.50053450  0.83367722  0.83406888  1
  Ni  Ni45  1  0.83382895  0.16764214  0.50052270  1
  Ni  Ni46  1  0.66705316  1.00048362  0.66713716  1
  Ni  Ni47  1  0.83426971  0.16720138  0.83406888  1
  Ni  Ni48  1  0.83405632  0.50072299  0.50094397  1
  Ni  Ni49  1  0.66740221  0.33406888  0.66675229  1
  Ni  Ni50  1  0.83387785  0.50054452  0.83406888  1
  Ni  Ni51  1  0.83400810  0.83401629  0.50082569  1
  Ni  Ni52  1  0.66775126  0.66765414  0.66713716  1
  Ni  Ni53  1  0.83426992  0.83446053  0.83406888  1
" 