1314,Ni5Fe95_3,-241.003157044827, 185.837577637115,Ni5Fe95,"# generated using pymatgen
 data_FeNi26
_symmetry_space_group_name_H-M   'P 1'
_cell_length_a   7.45557049
_cell_length_b   7.45557049
_cell_length_c   10.54376891
_cell_angle_alpha   90.00000000
_cell_angle_beta   90.00000000
_cell_angle_gamma   90.00000000
_symmetry_Int_Tables_number   1
_chemical_formula_structural   FeNi26
_chemical_formula_sum   'Fe2 Ni52'
_cell_volume   586.08099780
_cell_formula_units_Z   2
loop_
 _symmetry_equiv_pos_site_id
 _symmetry_equiv_pos_as_xyz
  1  'x, y, z'
loop_
 _atom_site_type_symbol
 _atom_site_label
 _atom_site_symmetry_multiplicity
 _atom_site_fract_x
 _atom_site_fract_y
 _atom_site_fract_z
 _atom_site_occupancy
  Ni  Ni0  1  1.00015247  0.00130986  1.00071667  1
  Ni  Ni1  1  0.16740668  0.16744719  0.16757067  1
  Ni  Ni2  1  0.99962673  0.00101852  0.33378954  1
  Ni  Ni3  1  0.00191267  0.33385422  0.00108320  1
  Ni  Ni4  1  0.16741733  0.50078874  0.16743637  1
  Ni  Ni5  1  0.00138694  0.33356288  0.33415607  1
  Ni  Ni6  1  1.00046823  0.66713490  0.00107665  1
  Ni  Ni7  1  0.16737057  0.83403723  0.16711480  1
  Ni  Ni8  1  0.00107117  0.66773784  0.33379609  1
  Ni  Ni9  1  0.33463696  0.00130363  0.00145224  1
  Ni  Ni10  1  0.50076970  0.16743637  0.16743637  1
  Fe  Fe11  1  0.33400207  1.00066874  0.33414730  1
  Ni  Ni12  1  0.33337697  0.33419073  1.00070879  1
  Ni  Ni13  1  0.50075888  0.50079939  0.16730207  1
  Ni  Ni14  1  0.33401534  0.33482910  0.33416395  1
  Ni  Ni15  1  0.33464319  0.66681913  1.00071667  1
  Ni  Ni16  1  0.50078052  0.83407335  0.16757067  1
  Ni  Ni17  1  0.33435185  0.66629340  0.33378954  1
  Ni  Ni18  1  0.66752406  1.00004363  1.00070879  1
  Ni  Ni19  1  0.83413272  0.16742555  0.16730207  1
  Ni  Ni20  1  0.66816243  1.00068200  0.33416395  1
  Fe  Fe21  1  0.66753733  0.33420399  1.00072543  1
  Ni  Ni22  1  0.83416883  0.50083550  0.16775794  1
  Ni  Ni23  1  0.66690244  0.33356911  0.33342049  1
  Ni  Ni24  1  0.66718755  0.66857934  0.00108320  1
  Ni  Ni25  1  0.83412207  0.83408400  0.16743637  1
  Ni  Ni26  1  0.66689621  0.66805360  0.33415607  1
  Ni  Ni27  1  0.16733090  0.16738101  0.50080957  1
  Ni  Ni28  1  1.00045258  0.00101480  0.66779122  1
  Ni  Ni29  1  0.16759840  0.16725652  0.83401210  1
  Ni  Ni30  1  0.16742658  0.50093682  0.50085970  1
  Ni  Ni31  1  0.00108682  0.33385793  0.66708151  1
  Ni  Ni32  1  0.16726925  0.50077949  0.83401303  1
  Ni  Ni33  1  0.16729316  0.83395982  0.50084775  1
  Ni  Ni34  1  0.00076970  0.66743637  0.66743637  1
  Ni  Ni35  1  0.16760541  0.83427207  0.83442258  1
  Ni  Ni36  1  0.50100543  0.16767209  0.50077059  1
  Ni  Ni37  1  0.33434559  0.00101226  0.66705006  1
  Ni  Ni38  1  0.50053398  0.16720064  0.83410214  1
  Ni  Ni39  1  0.50094955  0.50060767  0.50086064  1
  Ni  Ni40  1  0.33402042  0.33418565  0.66743637  1
  Ni  Ni41  1  0.50082506  0.50087517  0.83406317  1
  Ni  Ni42  1  0.50071434  0.83399757  0.50080957  1
  Ni  Ni43  1  0.33434814  0.66711925  0.66779122  1
  Ni  Ni44  1  0.50058985  0.83426506  0.83401210  1
  Ni  Ni45  1  0.83394101  0.16761621  0.50086064  1
  Ni  Ni46  1  0.66751898  1.00068709  0.66743637  1
  Ni  Ni47  1  0.83420850  0.16749172  0.83406317  1
  Ni  Ni48  1  0.83393399  0.50060066  0.50045015  1
  Ni  Ni49  1  0.66719381  0.33386048  0.66782268  1
  Ni  Ni50  1  0.83424624  0.50091291  0.83402499  1
  Ni  Ni51  1  0.83427015  0.83409324  0.50085970  1
  Ni  Ni52  1  0.66719127  0.66775348  0.66708151  1
  Ni  Ni53  1  0.83411282  0.83393592  0.83401303  1
" 