8126,Ni5Fe95_11,-241.003157044827, 185.83757766491,Ni5Fe95,"# generated using pymatgen
 data_FeNi26
_symmetry_space_group_name_H-M   'P 1'
_cell_length_a   7.45557049
_cell_length_b   7.45557049
_cell_length_c   10.54376891
_cell_angle_alpha   90.00000000
_cell_angle_beta   90.00000000
_cell_angle_gamma   90.00000000
_symmetry_Int_Tables_number   1
_chemical_formula_structural   FeNi26
_chemical_formula_sum   'Fe2 Ni52'
_cell_volume   586.08099780
_cell_formula_units_Z   2
loop_
 _symmetry_equiv_pos_site_id
 _symmetry_equiv_pos_as_xyz
  1  'x, y, z'
loop_
 _atom_site_type_symbol
 _atom_site_label
 _atom_site_symmetry_multiplicity
 _atom_site_fract_x
 _atom_site_fract_y
 _atom_site_fract_z
 _atom_site_occupancy
  Ni  Ni0  1  1.00023577  1.00023577  1.00008716  1
  Ni  Ni1  1  0.16726733  0.16726733  0.16711682  1
  Ni  Ni2  1  1.00052714  1.00052714  0.33448934  1
  Ni  Ni3  1  1.00022955  0.33472027  0.00082273  1
  Ni  Ni4  1  0.16760348  0.50075991  0.16752637  1
  Ni  Ni5  1  1.00052460  0.33442015  0.33374818  1
  Ni  Ni6  1  0.00149577  0.66734867  0.00083061  1
  Ni  Ni7  1  0.16727434  0.83428288  0.16752730  1
  Ni  Ni8  1  0.00085232  0.66735375  0.33410303  1
  Ni  Ni9  1  0.33472027  1.00022955  0.00082273  1
  Ni  Ni10  1  0.50075991  0.16760348  0.16752637  1
  Ni  Ni11  1  0.33442015  1.00052460  0.33374818  1
  Ni  Ni12  1  0.33440451  0.33440451  1.00046275  1
  Ni  Ni13  1  0.50062649  0.50062649  0.16751441  1
  Ni  Ni14  1  0.33410303  0.33410303  0.33410303  1
  Ni  Ni15  1  0.33296006  0.66768518  1.00045621  1
  Ni  Ni16  1  0.50066423  0.83404768  0.16747623  1
  Ni  Ni17  1  0.33378592  0.66768147  0.33445789  1
  Ni  Ni18  1  0.66734867  0.00149577  0.00083061  1
  Ni  Ni19  1  0.83428288  0.16727434  0.16752730  1
  Ni  Ni20  1  0.66735375  0.00085232  0.33410303  1
  Ni  Ni21  1  0.66768518  0.33296006  1.00045621  1
  Ni  Ni22  1  0.83404768  0.50066423  0.16747623  1
  Ni  Ni23  1  0.66768147  0.33378592  0.33445789  1
  Fe  Fe24  1  0.66733541  0.66733541  0.00081397  1
  Ni  Ni25  1  0.83433876  0.83433876  0.16743726  1
  Ni  Ni26  1  0.66767893  0.66767893  0.33371672  1
  Ni  Ni27  1  0.16757958  0.16757958  0.50069165  1
  Fe  Fe28  1  0.00087066  0.00087066  0.66739210  1
  Ni  Ni29  1  0.16750217  0.16750217  0.83442460  1
  Ni  Ni30  1  0.16744616  0.50060258  0.50067970  1
  Ni  Ni31  1  1.00052089  0.33524600  0.66774986  1
  Ni  Ni32  1  0.16745540  0.50075067  0.83410303  1
  Ni  Ni33  1  0.16754183  0.83415839  0.50072984  1
  Ni  Ni34  1  0.00085740  0.66671030  0.66737546  1
  Ni  Ni35  1  0.16746605  0.83409221  0.83396873  1
  Ni  Ni36  1  0.50060258  0.16744616  0.50067970  1
  Ni  Ni37  1  0.33524600  1.00052089  0.66774986  1
  Ni  Ni38  1  0.50075067  0.16745540  0.83410303  1
  Ni  Ni39  1  0.50093874  0.50093874  0.50108925  1
  Ni  Ni40  1  0.33380156  0.33380156  0.66774331  1
  Ni  Ni41  1  0.50070390  0.50070390  0.83378147  1
  Ni  Ni42  1  0.50093173  0.83392319  0.50067877  1
  Ni  Ni43  1  0.33348580  0.66797652  0.66738334  1
  Ni  Ni44  1  0.50074002  0.83411386  0.83423733  1
  Ni  Ni45  1  0.83415839  0.16754183  0.50072984  1
  Ni  Ni46  1  0.66671030  0.00085740  0.66737546  1
  Ni  Ni47  1  0.83409221  0.16746605  0.83396873  1
  Ni  Ni48  1  0.83392319  0.50093173  0.50067877  1
  Ni  Ni49  1  0.66797652  0.33348580  0.66738334  1
  Ni  Ni50  1  0.83411386  0.50074002  0.83423733  1
  Ni  Ni51  1  0.83386731  0.83386731  0.50076881  1
  Ni  Ni52  1  0.66797029  0.66797029  0.66811891  1
  Ni  Ni53  1  0.83410303  0.83410303  0.83410303  1
" 