7324,Ni5Fe95_16,-241.018141188139, 185.8238284728,Ni5Fe95,"# generated using pymatgen
 data_FeNi26
_symmetry_space_group_name_H-M   'P 1'
_cell_length_a   7.45398720
_cell_length_b   7.45398720
_cell_length_c   10.54152979
_cell_angle_alpha   90.00000000
_cell_angle_beta   90.00000000
_cell_angle_gamma   90.00000000
_symmetry_Int_Tables_number   1
_chemical_formula_structural   FeNi26
_chemical_formula_sum   'Fe2 Ni52'
_cell_volume   585.70768868
_cell_formula_units_Z   2
loop_
 _symmetry_equiv_pos_site_id
 _symmetry_equiv_pos_as_xyz
  1  'x, y, z'
loop_
 _atom_site_type_symbol
 _atom_site_label
 _atom_site_symmetry_multiplicity
 _atom_site_fract_x
 _atom_site_fract_y
 _atom_site_fract_z
 _atom_site_occupancy
  Ni  Ni0  1  1.00037566  0.00133410  0.00087607  1
  Ni  Ni1  1  0.16749878  0.16751994  0.16755353  1
  Ni  Ni2  1  1.00063617  0.00109676  0.33390341  1
  Ni  Ni3  1  0.00160995  0.33425197  0.00087607  1
  Ni  Ni4  1  0.16778263  0.50065537  0.16784873  1
  Ni  Ni5  1  0.00092002  0.33423219  0.33419861  1
  Ni  Ni6  1  1.00037581  0.66704247  0.00087607  1
  Ni  Ni7  1  0.16778553  0.83445220  0.16771567  1
  Ni  Ni8  1  1.00063327  0.66729994  0.33403647  1
  Ni  Ni9  1  0.33475664  0.00142330  0.00087607  1
  Ni  Ni10  1  0.50077351  0.16744018  0.16816873  1
  Ni  Ni11  1  0.33435184  0.00101851  0.33386620  1
  Ni  Ni12  1  0.33352201  0.33416309  0.00087607  1
  Ni  Ni13  1  0.50077578  0.50102081  0.16759019  1
  Ni  Ni14  1  0.33406466  0.33430969  0.33416195  1
  Ni  Ni15  1  0.33466743  0.66704233  0.00087607  1
  Ni  Ni16  1  0.50085328  0.83416545  0.16755353  1
  Ni  Ni17  1  0.33443010  0.66730284  0.33390341  1
  Ni  Ni18  1  0.66749642  1.00018868  0.00087607  1
  Ni  Ni19  1  0.83435414  0.16744245  0.16759019  1
  Ni  Ni20  1  0.66764302  1.00073133  0.33416195  1
  Fe  Fe21  1  0.66750853  0.33417520  0.00087607  1
  Ni  Ni22  1  0.83406696  0.50073363  0.16788594  1
  Ni  Ni23  1  0.66764530  0.33431196  0.33358341  1
  Ni  Ni24  1  0.66758531  0.66827662  0.00087607  1
  Ni  Ni25  1  0.83398871  0.83444930  0.16784873  1
  Ni  Ni26  1  0.66756553  0.66758669  0.33419861  1
  Ni  Ni27  1  0.16680885  0.16750017  0.50087607  1
  Ni  Ni28  1  1.00063617  0.00109676  0.66784873  1
  Ni  Ni29  1  0.16749878  0.16751994  0.83419861  1
  Ni  Ni30  1  0.16804314  0.50041804  0.50087607  1
  Ni  Ni31  1  0.00092002  0.33423219  0.66755353  1
  Ni  Ni32  1  0.16778263  0.50065537  0.83390341  1
  Ni  Ni33  1  0.16804300  0.83470967  0.50087607  1
  Ni  Ni34  1  1.00063327  0.66729994  0.66771567  1
  Ni  Ni35  1  0.16778553  0.83445220  0.83403647  1
  Fe  Fe36  1  0.50091027  0.16757694  0.50087607  1
  Ni  Ni37  1  0.33435184  0.00101851  0.66788594  1
  Ni  Ni38  1  0.50077351  0.16744018  0.83358341  1
  Ni  Ni39  1  0.50092238  0.50156346  0.50087607  1
  Ni  Ni40  1  0.33406466  0.33430969  0.66759019  1
  Ni  Ni41  1  0.50077578  0.50102081  0.83416195  1
  Ni  Ni42  1  0.50083350  0.83347552  0.50087607  1
  Ni  Ni43  1  0.33443010  0.66730284  0.66784873  1
  Ni  Ni44  1  0.50085328  0.83416545  0.83419861  1
  Ni  Ni45  1  0.83489679  0.16758905  0.50087607  1
  Ni  Ni46  1  0.66764302  1.00073133  0.66759019  1
  Ni  Ni47  1  0.83435414  0.16744245  0.83416195  1
  Ni  Ni48  1  0.83366217  0.50032883  0.50087607  1
  Ni  Ni49  1  0.66764530  0.33431196  0.66816873  1
  Ni  Ni50  1  0.83406696  0.50073363  0.83386620  1
  Ni  Ni51  1  0.83375137  0.83470981  0.50087607  1
  Ni  Ni52  1  0.66756553  0.66758669  0.66755353  1
  Ni  Ni53  1  0.83398871  0.83444930  0.83390341  1
" 