4550,Ni5Fe95_13,-240.923269753192, 185.39363513805,Ni5Fe95,"# generated using pymatgen
 data_FeNi26
_symmetry_space_group_name_H-M   'P 1'
_cell_length_a   7.45506018
_cell_length_b   7.45506018
_cell_length_c   10.54304721
_cell_angle_alpha   90.00000000
_cell_angle_beta   90.00000000
_cell_angle_gamma   90.00000000
_symmetry_Int_Tables_number   1
_chemical_formula_structural   FeNi26
_chemical_formula_sum   'Fe2 Ni52'
_cell_volume   585.96065798
_cell_formula_units_Z   2
loop_
 _symmetry_equiv_pos_site_id
 _symmetry_equiv_pos_as_xyz
  1  'x, y, z'
loop_
 _atom_site_type_symbol
 _atom_site_label
 _atom_site_symmetry_multiplicity
 _atom_site_fract_x
 _atom_site_fract_y
 _atom_site_fract_z
 _atom_site_occupancy
  Ni  Ni0  1  0.00080398  1.00065010  0.00151181  1
  Ni  Ni1  1  0.16745695  0.16753973  0.16740647  1
  Fe  Fe2  1  0.00080398  0.00083086  0.33417919  1
  Ni  Ni3  1  0.00080398  0.33437540  1.00074636  1
  Ni  Ni4  1  0.16774861  0.50055414  0.16769922  1
  Ni  Ni5  1  0.00080398  0.33501753  0.33404861  1
  Ni  Ni6  1  0.00080398  0.66738687  1.00074634  1
  Ni  Ni7  1  0.16778460  0.83434408  0.16780079  1
  Ni  Ni8  1  0.00080398  0.66665056  0.33444273  1
  Ni  Ni9  1  0.33438262  0.00096543  1.00074624  1
  Ni  Ni10  1  0.50080398  0.16749116  0.16808230  1
  Ni  Ni11  1  0.33488929  1.00071666  0.33411240  1
  Ni  Ni12  1  0.33403826  0.33371524  0.00112624  1
  Ni  Ni13  1  0.50080398  0.50088823  0.16771820  1
  Ni  Ni14  1  0.33349046  0.33365184  0.33411927  1
  Ni  Ni15  1  0.33372200  0.66773130  0.00112617  1
  Ni  Ni16  1  0.50080398  0.83403900  0.16732133  1
  Ni  Ni17  1  0.33355804  0.66801515  0.33404781  1
  Ni  Ni18  1  0.66722534  0.00096543  1.00074624  1
  Ni  Ni19  1  0.83415101  0.16753973  0.16740647  1
  Ni  Ni20  1  0.66671867  1.00071666  0.33411240  1
  Ni  Ni21  1  0.66756970  0.33371524  0.00112624  1
  Ni  Ni22  1  0.83385935  0.50055414  0.16769922  1
  Ni  Ni23  1  0.66811750  0.33365184  0.33411927  1
  Ni  Ni24  1  0.66788596  0.66773130  0.00112617  1
  Ni  Ni25  1  0.83382336  0.83434408  0.16780079  1
  Ni  Ni26  1  0.66804992  0.66801515  0.33404781  1
  Ni  Ni27  1  0.16671867  0.16755797  0.50082889  1
  Ni  Ni28  1  0.00080398  1.00078347  0.66685900  1
  Ni  Ni29  1  0.16722534  0.16730919  0.83419505  1
  Ni  Ni30  1  0.16804992  0.50025947  0.50089348  1
  Ni  Ni31  1  0.00080398  0.33423563  0.66761997  1
  Ni  Ni32  1  0.16788596  0.50054333  0.83381512  1
  Ni  Ni33  1  0.16811750  0.83462278  0.50082202  1
  Ni  Ni34  1  0.00080398  0.66738640  0.66722309  1
  Ni  Ni35  1  0.16756970  0.83455938  0.83381505  1
  Fe  Fe36  1  0.50080398  0.16744377  0.50076210  1
  Ni  Ni37  1  0.33415101  1.00073489  0.66753482  1
  Ni  Ni38  1  0.50080398  0.16762452  0.83342949  1
  Ni  Ni39  1  0.50080398  0.50162407  0.50049856  1
  Ni  Ni40  1  0.33382336  0.33393054  0.66714050  1
  Ni  Ni41  1  0.50080398  0.50088776  0.83419495  1
  Ni  Ni42  1  0.50080398  0.83325709  0.50089269  1
  Ni  Ni43  1  0.33385935  0.66772048  0.66724207  1
  Ni  Ni44  1  0.50080398  0.83389923  0.83419494  1
  Ni  Ni45  1  0.83488929  0.16755797  0.50082889  1
  Ni  Ni46  1  0.66745695  1.00073489  0.66753482  1
  Ni  Ni47  1  0.83438262  0.16730919  0.83419505  1
  Ni  Ni48  1  0.83355804  0.50025947  0.50089348  1
  Ni  Ni49  1  0.66778460  0.33393054  0.66714050  1
  Ni  Ni50  1  0.83372200  0.50054333  0.83381512  1
  Ni  Ni51  1  0.83349046  0.83462278  0.50082202  1
  Ni  Ni52  1  0.66774861  0.66772048  0.66724207  1
  Ni  Ni53  1  0.83403826  0.83455938  0.83381505  1
" 