2473,Ni5Fe95_6,-241.012848480271, 185.651060502394,Ni5Fe95,"# generated using pymatgen
 data_FeNi26
_symmetry_space_group_name_H-M   'P 1'
_cell_length_a   7.45547095
_cell_length_b   7.45547095
_cell_length_c   10.54362813
_cell_angle_alpha   90.00000000
_cell_angle_beta   90.00000000
_cell_angle_gamma   90.00000000
_symmetry_Int_Tables_number   1
_chemical_formula_structural   FeNi26
_chemical_formula_sum   'Fe2 Ni52'
_cell_volume   586.05752219
_cell_formula_units_Z   2
loop_
 _symmetry_equiv_pos_site_id
 _symmetry_equiv_pos_as_xyz
  1  'x, y, z'
loop_
 _atom_site_type_symbol
 _atom_site_label
 _atom_site_symmetry_multiplicity
 _atom_site_fract_x
 _atom_site_fract_y
 _atom_site_fract_z
 _atom_site_occupancy
  Ni  Ni0  1  1.00068966  0.00095302  1.00071540  1
  Ni  Ni1  1  0.16751775  0.16745654  0.16728934  1
  Ni  Ni2  1  0.00160965  1.00072873  0.33412918  1
  Ni  Ni3  1  1.00034519  0.33367853  0.00109735  1
  Ni  Ni4  1  0.16718941  0.50052275  0.16809855  1
  Ni  Ni5  1  1.00027263  0.33360596  0.33411650  1
  Ni  Ni6  1  1.00068978  0.66769713  0.00109753  1
  Ni  Ni7  1  0.16719187  0.83434441  0.16766052  1
  Ni  Ni8  1  1.00023193  0.66798446  0.33400950  1
  Ni  Ni9  1  0.33401622  1.00060837  1.00071172  1
  Ni  Ni10  1  0.50060303  0.16753929  0.16736572  1
  Ni  Ni11  1  0.33326772  1.00076669  0.33401594  1
  Ni  Ni12  1  0.33436379  0.33402311  0.00109753  1
  Ni  Ni13  1  0.50101107  0.50052520  0.16766052  1
  Ni  Ni14  1  0.33465113  0.33356526  0.33400950  1
  Ni  Ni15  1  0.33436380  0.66769714  0.00109783  1
  Ni  Ni16  1  0.50091293  0.83424626  0.16771436  1
  Ni  Ni17  1  0.33466049  0.66799383  0.33444141  1
  Ni  Ni18  1  0.66761815  0.00095148  0.00148315  1
  Ni  Ni19  1  0.83417038  0.16750371  0.16817038  1
  Fe  Fe20  1  0.66710896  1.00044230  0.33383815  1
  Ni  Ni21  1  0.66761968  0.33402299  1.00071540  1
  Ni  Ni22  1  0.83412321  0.50085108  0.16728934  1
  Ni  Ni23  1  0.66739540  0.33494298  0.33412918  1
  Ni  Ni24  1  0.66727504  0.66734955  1.00071172  1
  Ni  Ni25  1  0.83420595  0.83393636  0.16736572  1
  Ni  Ni26  1  0.66743336  0.66660106  0.33401594  1
  Ni  Ni27  1  0.16828505  0.16745275  0.50087017  1
  Ni  Ni28  1  0.00094974  1.00068016  0.66752039  1
  Ni  Ni29  1  0.16753655  0.16761107  0.83417438  1
  Ni  Ni30  1  0.16689228  0.50022561  0.50044470  1
  Ni  Ni31  1  1.00063985  0.33397318  0.66717174  1
  Ni  Ni32  1  0.16718897  0.50052230  0.83378828  1
  Ni  Ni33  1  0.16690164  0.83465418  0.50087660  1
  Ni  Ni34  1  1.00054170  0.66769424  0.66722559  1
  Ni  Ni35  1  0.16718898  0.83419633  0.83378858  1
  Ni  Ni36  1  0.49994313  0.16749071  0.50075693  1
  Ni  Ni37  1  0.33403503  1.00076290  0.66759677  1
  Ni  Ni38  1  0.50086312  0.16726642  0.83417071  1
  Ni  Ni39  1  0.50132085  0.50023498  0.50087660  1
  Ni  Ni40  1  0.33436091  0.33387503  0.66722559  1
  Ni  Ni41  1  0.50086300  0.50052231  0.83378858  1
  Ni  Ni42  1  0.50128014  0.83461348  0.50076960  1
  Ni  Ni43  1  0.33436336  0.66769669  0.66678756  1
  Ni  Ni44  1  0.50120758  0.83454091  0.83378876  1
  Fe  Fe45  1  0.83444381  0.16777714  0.50104795  1
  Ni  Ni46  1  0.66738239  1.00071573  0.66671573  1
  Ni  Ni47  1  0.83393463  0.16726796  0.83340296  1
  Ni  Ni48  1  0.83411941  0.50161838  0.50087017  1
  Ni  Ni49  1  0.66734682  0.33428308  0.66752039  1
  Ni  Ni50  1  0.83427773  0.50086989  0.83417438  1
  Ni  Ni51  1  0.83415737  0.83327646  0.50075693  1
  Ni  Ni52  1  0.66742957  0.66736836  0.66759677  1
  Ni  Ni53  1  0.83393309  0.83419645  0.83417071  1
" 