6835,Ni5Fe95_5,-241.019767061664, 185.703806964547,Ni5Fe95,"# generated using pymatgen
 data_FeNi26
_symmetry_space_group_name_H-M   'P 1'
_cell_length_a   7.45519152
_cell_length_b   7.45519152
_cell_length_c   10.54323296
_cell_angle_alpha   90.00000000
_cell_angle_beta   90.00000000
_cell_angle_gamma   90.00000000
_symmetry_Int_Tables_number   1
_chemical_formula_structural   FeNi26
_chemical_formula_sum   'Fe2 Ni52'
_cell_volume   585.99162997
_cell_formula_units_Z   2
loop_
 _symmetry_equiv_pos_site_id
 _symmetry_equiv_pos_as_xyz
  1  'x, y, z'
loop_
 _atom_site_type_symbol
 _atom_site_label
 _atom_site_symmetry_multiplicity
 _atom_site_fract_x
 _atom_site_fract_y
 _atom_site_fract_z
 _atom_site_occupancy
  Fe  Fe0  1  0.00079516  0.00096420  0.00079516  1
  Ni  Ni1  1  0.16779136  0.16728313  0.16779087  1
  Ni  Ni2  1  0.00079516  0.00080365  0.33334704  1
  Ni  Ni3  1  0.00079516  0.33495002  0.00079516  1
  Ni  Ni4  1  0.16772587  0.50103802  0.16786553  1
  Ni  Ni5  1  0.00079516  0.33421141  0.33449306  1
  Ni  Ni6  1  0.00079516  0.66648339  0.00079516  1
  Ni  Ni7  1  0.16744615  0.83405791  0.16741021  1
  Ni  Ni8  1  0.00079516  0.66736410  0.33409361  1
  Ni  Ni9  1  0.33511452  1.00063145  0.00079516  1
  Ni  Ni10  1  0.50079516  0.16755955  0.16749671  1
  Ni  Ni11  1  0.33414416  0.00086574  0.33418010  1
  Ni  Ni12  1  0.33342219  0.33357827  0.00079516  1
  Ni  Ni13  1  0.50079516  0.50071224  0.16709726  1
  Ni  Ni14  1  0.33386444  0.33388563  0.33372478  1
  Ni  Ni15  1  0.33374096  0.66817500  0.00079516  1
  Ni  Ni16  1  0.50079516  0.83412000  0.16824327  1
  Ni  Ni17  1  0.33379895  0.66764052  0.33379944  1
  Ni  Ni18  1  0.66647579  1.00063145  0.00079516  1
  Ni  Ni19  1  0.83379895  0.16728313  0.16779087  1
  Ni  Ni20  1  0.66744615  0.00086574  0.33418010  1
  Ni  Ni21  1  0.66816813  0.33357827  0.00079516  1
  Ni  Ni22  1  0.83386444  0.50103802  0.16786553  1
  Ni  Ni23  1  0.66772587  0.33388563  0.33372478  1
  Ni  Ni24  1  0.66784936  0.66817500  0.00079516  1
  Ni  Ni25  1  0.83414416  0.83405791  0.16741021  1
  Ni  Ni26  1  0.66779136  0.66764052  0.33379944  1
  Ni  Ni27  1  0.16784936  0.16674865  0.50079516  1
  Ni  Ni28  1  0.00079516  0.00080365  0.66824327  1
  Ni  Ni29  1  0.16779136  0.16728313  0.83379944  1
  Ni  Ni30  1  0.16816813  0.50134537  0.50079516  1
  Ni  Ni31  1  0.00079516  0.33421141  0.66709726  1
  Ni  Ni32  1  0.16772587  0.50103802  0.83372478  1
  Ni  Ni33  1  0.16647579  0.83429219  0.50079516  1
  Ni  Ni34  1  0.00079516  0.66736410  0.66749671  1
  Ni  Ni35  1  0.16744615  0.83405791  0.83418010  1
  Ni  Ni36  1  0.50079516  0.16844025  0.50079516  1
  Ni  Ni37  1  0.33414416  0.00086574  0.66741021  1
  Ni  Ni38  1  0.50079516  0.16755955  0.83409361  1
  Ni  Ni39  1  0.50079516  0.49997362  0.50079516  1
  Ni  Ni40  1  0.33386444  0.33388563  0.66786553  1
  Ni  Ni41  1  0.50079516  0.50071224  0.83449306  1
  Fe  Fe42  1  0.50079516  0.83395945  0.50079516  1
  Ni  Ni43  1  0.33379895  0.66764052  0.66779087  1
  Ni  Ni44  1  0.50079516  0.83412000  0.83334704  1
  Ni  Ni45  1  0.83374096  0.16674865  0.50079516  1
  Ni  Ni46  1  0.66744615  0.00086574  0.66741021  1
  Ni  Ni47  1  0.83379895  0.16728313  0.83379944  1
  Ni  Ni48  1  0.83342219  0.50134537  0.50079516  1
  Ni  Ni49  1  0.66772587  0.33388563  0.66786553  1
  Ni  Ni50  1  0.83386444  0.50103802  0.83372478  1
  Ni  Ni51  1  0.83511452  0.83429219  0.50079516  1
  Ni  Ni52  1  0.66779136  0.66764052  0.66779087  1
  Ni  Ni53  1  0.83414416  0.83405791  0.83418010  1
" 