1188,Ni5Fe95_19,-241.01814118814, 185.823828463171,Ni5Fe95,"# generated using pymatgen
 data_FeNi26
_symmetry_space_group_name_H-M   'P 1'
_cell_length_a   7.45398720
_cell_length_b   7.45398720
_cell_length_c   10.54152979
_cell_angle_alpha   90.00000000
_cell_angle_beta   90.00000000
_cell_angle_gamma   90.00000000
_symmetry_Int_Tables_number   1
_chemical_formula_structural   FeNi26
_chemical_formula_sum   'Fe2 Ni52'
_cell_volume   585.70768868
_cell_formula_units_Z   2
loop_
 _symmetry_equiv_pos_site_id
 _symmetry_equiv_pos_as_xyz
  1  'x, y, z'
loop_
 _atom_site_type_symbol
 _atom_site_label
 _atom_site_symmetry_multiplicity
 _atom_site_fract_x
 _atom_site_fract_y
 _atom_site_fract_z
 _atom_site_occupancy
  Ni  Ni0  1  0.00109676  0.00111597  1.00057008  1
  Ni  Ni1  1  0.16758905  0.16685534  0.16754274  1
  Ni  Ni2  1  0.00109676  0.00111597  0.33451539  1
  Ni  Ni3  1  1.00073133  0.33410912  1.00082861  1
  Fe  Fe4  1  0.16757694  0.50084187  0.16754274  1
  Ni  Ni5  1  1.00073133  0.33410912  0.33425686  1
  Ni  Ni6  1  0.00101851  0.66740030  1.00053287  1
  Ni  Ni7  1  0.16750017  0.83494328  0.16754274  1
  Ni  Ni8  1  0.00101851  0.66740030  0.33455260  1
  Ni  Ni9  1  0.33423219  1.00083212  1.00086527  1
  Ni  Ni10  1  0.50032883  0.16808997  0.16754274  1
  Ni  Ni11  1  0.33423219  1.00083212  0.33422020  1
  Ni  Ni12  1  0.33431196  0.33410684  1.00025008  1
  Ni  Ni13  1  0.50156346  0.50082976  0.16754274  1
  Ni  Ni14  1  0.33431196  0.33410684  0.33483539  1
  Ni  Ni15  1  0.33430969  0.66768748  1.00082861  1
  Ni  Ni16  1  0.50041804  0.83370900  0.16754274  1
  Ni  Ni17  1  0.33430969  0.66768748  0.33425686  1
  Ni  Ni18  1  0.66729994  0.00111886  1.00070313  1
  Ni  Ni19  1  0.83470981  0.16800077  0.16754274  1
  Ni  Ni20  1  0.66729994  0.00111886  0.33438234  1
  Ni  Ni21  1  0.66758669  0.33418661  1.00086527  1
  Ni  Ni22  1  0.83347552  0.50091864  0.16754274  1
  Ni  Ni23  1  0.66758669  0.33418661  0.33422020  1
  Ni  Ni24  1  0.66730284  0.66732204  1.00057008  1
  Ni  Ni25  1  0.83470967  0.83370914  0.16754274  1
  Ni  Ni26  1  0.66730284  0.66732204  0.33451539  1
  Ni  Ni27  1  0.16744245  0.16739799  0.50082861  1
  Ni  Ni28  1  0.00133410  0.00137647  0.66754274  1
  Ni  Ni29  1  0.16744245  0.16739799  0.83425686  1
  Ni  Ni30  1  0.16744018  0.50097863  0.50025008  1
  Ni  Ni31  1  1.00018868  0.33425572  0.66754274  1
  Ni  Ni32  1  0.16744018  0.50097863  0.83483539  1
  Ni  Ni33  1  0.16751994  0.83425335  0.50086527  1
  Ni  Ni34  1  0.00142330  0.66699550  0.66754274  1
  Ni  Ni35  1  0.16751994  0.83425335  0.83422020  1
  Ni  Ni36  1  0.50073363  0.16768518  0.50053287  1
  Ni  Ni37  1  0.33425197  1.00014219  0.66754274  1
  Ni  Ni38  1  0.50073363  0.16768518  0.83455260  1
  Ni  Ni39  1  0.50102081  0.50097635  0.50082861  1
  Fe  Fe40  1  0.33417520  0.33424361  0.66754274  1
  Ni  Ni41  1  0.50102081  0.50097635  0.83425686  1
  Ni  Ni42  1  0.50065537  0.83396950  0.50057008  1
  Ni  Ni43  1  0.33416309  0.66823013  0.66754274  1
  Ni  Ni44  1  0.50065537  0.83396950  0.83451539  1
  Ni  Ni45  1  0.83444930  0.16776343  0.50057008  1
  Ni  Ni46  1  0.66704247  0.00137633  0.66754274  1
  Ni  Ni47  1  0.83444930  0.16776343  0.83451539  1
  Ni  Ni48  1  0.83416545  0.50089886  0.50086527  1
  Ni  Ni49  1  0.66827662  0.33416683  0.66754274  1
  Ni  Ni50  1  0.83416545  0.50089886  0.83422020  1
  Ni  Ni51  1  0.83445220  0.83396661  0.50070313  1
  Ni  Ni52  1  0.66704233  0.66708471  0.66754274  1
  Ni  Ni53  1  0.83445220  0.83396661  0.83438234  1
" 