8239,Ni60Fe32Cr6_11,-239.074807510816, 209.929713422251,Ni60Fe32Cr6,"# generated using pymatgen
 data_Cr5Fe17Ni32
_symmetry_space_group_name_H-M   'P 1'
_cell_length_a   7.42635748
_cell_length_b   7.42635748
_cell_length_c   10.50245546
_cell_angle_alpha   90.00000000
_cell_angle_beta   90.00000000
_cell_angle_gamma   90.00000000
_symmetry_Int_Tables_number   1
_chemical_formula_structural   Cr5Fe17Ni32
_chemical_formula_sum   'Cr5 Fe17 Ni32'
_cell_volume   579.21866716
_cell_formula_units_Z   1
loop_
 _symmetry_equiv_pos_site_id
 _symmetry_equiv_pos_as_xyz
  1  'x, y, z'
loop_
 _atom_site_type_symbol
 _atom_site_label
 _atom_site_symmetry_multiplicity
 _atom_site_fract_x
 _atom_site_fract_y
 _atom_site_fract_z
 _atom_site_occupancy
  Ni  Ni0  1  1.00159092  1.00245081  0.00339624  1
  Ni  Ni1  1  0.16874758  0.16993212  0.16986725  1
  Fe  Fe2  1  0.00315465  0.00309899  0.33514335  1
  Ni  Ni3  1  0.00336200  0.33516460  1.00221335  1
  Ni  Ni4  1  0.17058010  0.50271575  0.16875452  1
  Ni  Ni5  1  0.00356046  0.33458112  0.33610472  1
  Ni  Ni6  1  0.00436472  0.67060439  0.00309170  1
  Ni  Ni7  1  0.16751194  0.83557295  0.16863596  1
  Fe  Fe8  1  0.00360674  0.67082135  0.33572379  1
  Fe  Fe9  1  0.33462372  0.00415176  1.00257031  1
  Ni  Ni10  1  0.50295507  0.17096825  0.16895084  1
  Fe  Fe11  1  0.33532053  0.00387441  0.33733735  1
  Fe  Fe12  1  0.33664282  0.33651840  0.00345285  1
  Ni  Ni13  1  0.50062561  0.50118533  0.16911971  1
  Ni  Ni14  1  0.33617957  0.33661385  0.33464747  1
  Ni  Ni15  1  0.33447567  0.66758716  0.00310914  1
  Cr  Cr16  1  0.50310004  0.83598726  0.16827051  1
  Ni  Ni17  1  0.33585522  0.66855615  0.33618519  1
  Ni  Ni18  1  0.67137016  0.00447478  0.00328027  1
  Ni  Ni19  1  0.83651394  0.16789737  0.16832497  1
  Ni  Ni20  1  0.67043742  0.00344536  0.33620562  1
  Ni  Ni21  1  0.66835426  0.33438479  0.00280976  1
  Cr  Cr22  1  0.83655725  0.50254124  0.16926430  1
  Fe  Fe23  1  0.66776664  0.33505283  0.33689163  1
  Ni  Ni24  1  0.66937979  0.66935803  1.00226749  1
  Ni  Ni25  1  0.83804500  0.83789975  0.16919745  1
  Fe  Fe26  1  0.66854051  0.66892481  0.33700111  1
  Fe  Fe27  1  0.16950768  0.16754245  0.50172802  1
  Fe  Fe28  1  0.00281533  1.00256891  0.66961354  1
  Fe  Fe29  1  0.16893258  0.16866413  0.83706321  1
  Cr  Cr30  1  0.16901697  0.50363658  0.50213430  1
  Ni  Ni31  1  1.00015669  0.33607934  0.66990285  1
  Fe  Fe32  1  0.16879807  0.50398212  0.83688234  1
  Ni  Ni33  1  0.17001853  0.83660619  0.50382533  1
  Ni  Ni34  1  0.00294091  0.66997496  0.66998500  1
  Fe  Fe35  1  0.16869339  0.83557179  0.83589432  1
  Ni  Ni36  1  0.50474118  0.16838023  0.50261972  1
  Ni  Ni37  1  0.33659852  1.00114936  0.66762718  1
  Ni  Ni38  1  0.50369348  0.17054217  0.83664465  1
  Ni  Ni39  1  0.50438462  0.50365736  0.50244245  1
  Cr  Cr40  1  0.33739064  0.33582824  0.66974291  1
  Ni  Ni41  1  0.50311267  0.50172931  0.83665738  1
  Ni  Ni42  1  0.50198789  0.83617912  0.50391597  1
  Ni  Ni43  1  0.33534560  0.67142642  0.66892434  1
  Cr  Cr44  1  0.50323839  0.83613351  0.83583729  1
  Ni  Ni45  1  0.83563670  0.16977542  0.50364461  1
  Ni  Ni46  1  0.66949356  0.00392839  0.66873328  1
  Fe  Fe47  1  0.83482995  0.16959011  0.83618291  1
  Fe  Fe48  1  0.83453387  0.50216860  0.50318405  1
  Ni  Ni49  1  0.67094463  0.33482728  0.66850207  1
  Fe  Fe50  1  0.83539390  0.50262476  0.83625825  1
  Fe  Fe51  1  0.83502290  0.83653791  0.50293741  1
  Fe  Fe52  1  0.66955729  0.66847123  0.66916752  1
  Ni  Ni53  1  0.83792883  0.83599759  0.83606929  1
" 