4116,Ni60Fe27Cr12_5,-236.532172135999, 202.811867842472,Ni60Fe27Cr12,"# generated using pymatgen
 data_Cr4Fe7Ni16
_symmetry_space_group_name_H-M   'P 1'
_cell_length_a   7.43526868
_cell_length_b   7.43526868
_cell_length_c   10.51505781
_cell_angle_alpha   90.00000000
_cell_angle_beta   90.00000000
_cell_angle_gamma   90.00000000
_symmetry_Int_Tables_number   1
_chemical_formula_structural   Cr4Fe7Ni16
_chemical_formula_sum   'Cr8 Fe14 Ni32'
_cell_volume   581.30625790
_cell_formula_units_Z   2
loop_
 _symmetry_equiv_pos_site_id
 _symmetry_equiv_pos_as_xyz
  1  'x, y, z'
loop_
 _atom_site_type_symbol
 _atom_site_label
 _atom_site_symmetry_multiplicity
 _atom_site_fract_x
 _atom_site_fract_y
 _atom_site_fract_z
 _atom_site_occupancy
  Fe  Fe0  1  0.99792834  1.00168445  1.00103719  1
  Fe  Fe1  1  0.16941963  0.16847379  0.17029160  1
  Fe  Fe2  1  1.00078699  1.00204226  0.33693983  1
  Cr  Cr3  1  0.99966651  0.33699464  0.00290931  1
  Fe  Fe4  1  0.16745038  0.50109127  0.16860919  1
  Ni  Ni5  1  0.99996983  0.33493146  0.33396611  1
  Ni  Ni6  1  1.00008473  0.66902635  1.00060100  1
  Cr  Cr7  1  0.16785841  0.83561407  0.16569874  1
  Ni  Ni8  1  1.00039007  0.66772277  0.33650068  1
  Ni  Ni9  1  0.33654762  0.00307404  0.00246057  1
  Ni  Ni10  1  0.50287031  0.16847969  0.16850841  1
  Ni  Ni11  1  0.33607774  0.00386996  0.33675676  1
  Ni  Ni12  1  0.33669571  0.33418358  0.00445067  1
  Fe  Fe13  1  0.50519773  0.50049827  0.16705389  1
  Fe  Fe14  1  0.33667780  0.33431311  0.33488969  1
  Fe  Fe15  1  0.33685933  0.66566661  1.00158755  1
  Ni  Ni16  1  0.50298188  0.83774347  0.16681076  1
  Cr  Cr17  1  0.33671948  0.67155836  0.33453902  1
  Ni  Ni18  1  0.66834595  0.00248368  0.00405760  1
  Ni  Ni19  1  0.83379660  0.16875601  0.16891122  1
  Fe  Fe20  1  0.66878941  0.00364984  0.33477306  1
  Ni  Ni21  1  0.66806980  0.33544340  1.00134340  1
  Ni  Ni22  1  0.83586071  0.50145808  0.16821453  1
  Ni  Ni23  1  0.67118360  0.33449226  0.33521306  1
  Ni  Ni24  1  0.67145446  0.66858901  0.00442731  1
  Ni  Ni25  1  0.83483673  0.83632535  0.16864668  1
  Cr  Cr26  1  0.67111277  0.66830431  0.33510900  1
  Ni  Ni27  1  0.16615724  0.16835587  0.50005304  1
  Ni  Ni28  1  1.00051738  0.00255254  0.66819379  1
  Cr  Cr29  1  0.16762305  0.17007365  0.83570160  1
  Cr  Cr30  1  0.16788371  0.50072426  0.50272004  1
  Ni  Ni31  1  1.00040239  0.33456195  0.66891532  1
  Ni  Ni32  1  0.17118901  0.50299111  0.83453277  1
  Ni  Ni33  1  0.16833179  0.83672394  0.50412988  1
  Fe  Fe34  1  1.00089376  0.66913119  0.66994246  1
  Fe  Fe35  1  0.16639025  0.83320150  0.83584892  1
  Fe  Fe36  1  0.50340147  0.17093505  0.50077857  1
  Cr  Cr37  1  0.33577803  0.00249517  0.66759862  1
  Fe  Fe38  1  0.50488976  0.17127017  0.83692451  1
  Ni  Ni39  1  0.50399519  0.50192221  0.50354060  1
  Ni  Ni40  1  0.33654573  0.33639104  0.66747395  1
  Ni  Ni41  1  0.50116543  0.50137001  0.83587717  1
  Ni  Ni42  1  0.50283944  0.83547956  0.50230967  1
  Ni  Ni43  1  0.33626213  0.66834260  0.66941828  1
  Cr  Cr44  1  0.50487926  0.83386904  0.83749391  1
  Ni  Ni45  1  0.83607387  0.16977660  0.50230746  1
  Ni  Ni46  1  0.67098243  0.00279606  0.66687051  1
  Ni  Ni47  1  0.83317337  0.16708929  0.83508178  1
  Ni  Ni48  1  0.83425311  0.49916595  0.50406721  1
  Ni  Ni49  1  0.66970407  0.33584785  0.67005163  1
  Fe  Fe50  1  0.83368579  0.50346367  0.83491283  1
  Fe  Fe51  1  0.83678377  0.83512696  0.50354683  1
  Ni  Ni52  1  0.66890932  0.66819441  0.66734936  1
  Ni  Ni53  1  0.83505686  0.83707836  0.83545262  1
" 