8074,Ni60Fe27Cr12_16,-235.950055393119, 199.303502912445,Ni60Fe27Cr12,"# generated using pymatgen
 data_Cr4Fe7Ni16
_symmetry_space_group_name_H-M   'P 1'
_cell_length_a   7.43321157
_cell_length_b   7.43321157
_cell_length_c   10.51214862
_cell_angle_alpha   90.00000000
_cell_angle_beta   90.00000000
_cell_angle_gamma   90.00000000
_symmetry_Int_Tables_number   1
_chemical_formula_structural   Cr4Fe7Ni16
_chemical_formula_sum   'Cr8 Fe14 Ni32'
_cell_volume   580.82390316
_cell_formula_units_Z   2
loop_
 _symmetry_equiv_pos_site_id
 _symmetry_equiv_pos_as_xyz
  1  'x, y, z'
loop_
 _atom_site_type_symbol
 _atom_site_label
 _atom_site_symmetry_multiplicity
 _atom_site_fract_x
 _atom_site_fract_y
 _atom_site_fract_z
 _atom_site_occupancy
  Cr  Cr0  1  0.00241343  0.00434962  0.00426762  1
  Ni  Ni1  1  0.17002230  0.16982759  0.16899887  1
  Cr  Cr2  1  0.00471953  1.00025113  0.33376377  1
  Fe  Fe3  1  1.00012592  0.33436913  0.00291368  1
  Ni  Ni4  1  0.16963293  0.50173751  0.17006637  1
  Fe  Fe5  1  0.00325967  0.33895570  0.33474317  1
  Cr  Cr6  1  1.00104646  0.66750677  0.00403365  1
  Ni  Ni7  1  0.17188943  0.83526529  0.16979803  1
  Ni  Ni8  1  0.00260231  0.66788765  0.33623085  1
  Ni  Ni9  1  0.33698703  0.00325809  0.00263571  1
  Fe  Fe10  1  0.50149096  0.16960293  0.16827936  1
  Ni  Ni11  1  0.33416471  0.00280076  0.33610028  1
  Fe  Fe12  1  0.33705467  0.33462404  0.00319072  1
  Fe  Fe13  1  0.50276528  0.50212664  0.16936399  1
  Ni  Ni14  1  0.33573797  0.33601240  0.33566473  1
  Fe  Fe15  1  0.33964344  0.66973681  0.00341713  1
  Fe  Fe16  1  0.50157669  0.83509945  0.16802672  1
  Ni  Ni17  1  0.33444220  0.66802001  0.33466757  1
  Ni  Ni18  1  0.66682037  0.00329621  0.00295149  1
  Ni  Ni19  1  0.83470109  0.17105133  0.16734100  1
  Cr  Cr20  1  0.66777159  1.00159780  0.33410152  1
  Ni  Ni21  1  0.66883001  0.33613588  1.00145912  1
  Ni  Ni22  1  0.83492429  0.50068539  0.16979156  1
  Ni  Ni23  1  0.66746143  0.33873706  0.33503453  1
  Ni  Ni24  1  0.66708504  0.66739651  0.00276716  1
  Ni  Ni25  1  0.83389320  0.83508997  0.16951304  1
  Ni  Ni26  1  0.66978480  0.66631247  0.33543076  1
  Fe  Fe27  1  0.17178729  0.17028361  0.50287186  1
  Ni  Ni28  1  0.00285531  0.00323075  0.66890021  1
  Fe  Fe29  1  0.16939119  0.16993682  0.83489532  1
  Ni  Ni30  1  0.16954120  0.50317770  0.50191799  1
  Ni  Ni31  1  0.00271790  0.33471071  0.66991650  1
  Cr  Cr32  1  0.16988757  0.50083032  0.83495362  1
  Ni  Ni33  1  0.17142343  0.83461436  0.50289805  1
  Fe  Fe34  1  1.00120573  0.66731379  0.66605212  1
  Cr  Cr35  1  0.17294641  0.83658080  0.83412199  1
  Fe  Fe36  1  0.49968062  0.17058951  0.50277406  1
  Fe  Fe37  1  0.33688117  0.00265238  0.66805007  1
  Fe  Fe38  1  0.50351830  0.16922115  0.83577506  1
  Ni  Ni39  1  0.50195488  0.50296402  0.50215504  1
  Ni  Ni40  1  0.33575300  0.33580284  0.66849165  1
  Ni  Ni41  1  0.50389800  0.50248817  0.83563178  1
  Ni  Ni42  1  0.50002859  0.83478208  0.50312229  1
  Ni  Ni43  1  0.33718343  0.66824616  0.66816647  1
  Ni  Ni44  1  0.50196607  0.83581057  0.83630841  1
  Cr  Cr45  1  0.83475971  0.17127566  0.50303525  1
  Ni  Ni46  1  0.66899401  1.00180344  0.66992861  1
  Ni  Ni47  1  0.83423055  0.17154245  0.83567031  1
  Ni  Ni48  1  0.83533144  0.50239163  0.50238097  1
  Ni  Ni49  1  0.66835705  0.33691079  0.67033289  1
  Ni  Ni50  1  0.83251158  0.49783926  0.83465752  1
  Fe  Fe51  1  0.83543739  0.83122368  0.50363154  1
  Ni  Ni52  1  0.66790407  0.66811247  0.66863074  1
  Cr  Cr53  1  0.83191159  0.83683495  0.83308148  1
" 