2191,Ni60Fe32Cr6_17,-237.940022716291, 210.225650268634,Ni60Fe32Cr6,"# generated using pymatgen
 data_Cr5Fe17Ni32
_symmetry_space_group_name_H-M   'P 1'
_cell_length_a   7.41665877
_cell_length_b   7.41665877
_cell_length_c   10.48873942
_cell_angle_alpha   90.00000000
_cell_angle_beta   90.00000000
_cell_angle_gamma   90.00000000
_symmetry_Int_Tables_number   1
_chemical_formula_structural   Cr5Fe17Ni32
_chemical_formula_sum   'Cr5 Fe17 Ni32'
_cell_volume   576.95227758
_cell_formula_units_Z   1
loop_
 _symmetry_equiv_pos_site_id
 _symmetry_equiv_pos_as_xyz
  1  'x, y, z'
loop_
 _atom_site_type_symbol
 _atom_site_label
 _atom_site_symmetry_multiplicity
 _atom_site_fract_x
 _atom_site_fract_y
 _atom_site_fract_z
 _atom_site_occupancy
  Cr  Cr0  1  0.00521517  1.00308473  1.00259676  1
  Ni  Ni1  1  0.17199840  0.17133932  0.17035229  1
  Fe  Fe2  1  0.00391055  1.00231072  0.33753116  1
  Ni  Ni3  1  0.00427909  0.33844048  1.00248842  1
  Ni  Ni4  1  0.16977641  0.50385666  0.16999856  1
  Ni  Ni5  1  0.00378068  0.33723469  0.33757754  1
  Fe  Fe6  1  0.00373265  0.66811671  1.00285953  1
  Ni  Ni7  1  0.17098219  0.83499257  0.17083786  1
  Ni  Ni8  1  0.00375110  0.67019493  0.33618554  1
  Ni  Ni9  1  0.33756263  0.00355586  1.00332275  1
  Ni  Ni10  1  0.50264450  0.17017035  0.17047985  1
  Fe  Fe11  1  0.33673042  1.00298230  0.33669550  1
  Ni  Ni12  1  0.33678028  0.33592837  0.00388621  1
  Fe  Fe13  1  0.50282184  0.50334590  0.16988384  1
  Fe  Fe14  1  0.33589482  0.33685484  0.33560852  1
  Fe  Fe15  1  0.33656889  0.66936024  0.00366660  1
  Ni  Ni16  1  0.50317043  0.83665623  0.16962909  1
  Ni  Ni17  1  0.33595335  0.67196839  0.33575956  1
  Fe  Fe18  1  0.66743867  0.00354800  1.00241777  1
  Cr  Cr19  1  0.83555818  0.17123636  0.17008785  1
  Fe  Fe20  1  0.66955082  1.00230726  0.33819723  1
  Ni  Ni21  1  0.66913014  0.33829065  1.00251291  1
  Fe  Fe22  1  0.83692237  0.50443448  0.16991260  1
  Ni  Ni23  1  0.67046529  0.33645609  0.33683659  1
  Ni  Ni24  1  0.66987292  0.66971826  1.00323859  1
  Fe  Fe25  1  0.83624169  0.83463691  0.17083692  1
  Ni  Ni26  1  0.67048627  0.67098218  0.33682270  1
  Ni  Ni27  1  0.16889135  0.16923397  0.50277517  1
  Fe  Fe28  1  1.00326695  1.00330081  0.66978812  1
  Fe  Fe29  1  0.17024406  0.17064538  0.83703184  1
  Fe  Fe30  1  0.16687199  0.50359604  0.50186861  1
  Ni  Ni31  1  1.00129865  0.33715089  0.67012357  1
  Ni  Ni32  1  0.16844997  0.50390976  0.83799152  1
  Ni  Ni33  1  0.16885438  0.83730818  0.50272426  1
  Ni  Ni34  1  1.00222233  0.67005943  0.67001388  1
  Ni  Ni35  1  0.16929731  0.83608069  0.83662532  1
  Ni  Ni36  1  0.50457091  0.16868833  0.50230320  1
  Ni  Ni37  1  0.33745564  1.00276950  0.66979306  1
  Ni  Ni38  1  0.50446825  0.17034792  0.83740791  1
  Cr  Cr39  1  0.50477868  0.50313920  0.50231787  1
  Cr  Cr40  1  0.33618489  0.33442908  0.67025678  1
  Ni  Ni41  1  0.50501094  0.50205300  0.83887946  1
  Ni  Ni42  1  0.50406889  0.83839608  0.50367529  1
  Cr  Cr43  1  0.33576811  0.67298773  0.67101862  1
  Fe  Fe44  1  0.50402013  0.83691340  0.83740812  1
  Ni  Ni45  1  0.83672740  0.17022855  0.50430254  1
  Ni  Ni46  1  0.66947024  0.00369061  0.67022406  1
  Fe  Fe47  1  0.83591392  0.17179705  0.83564853  1
  Fe  Fe48  1  0.83820914  0.50308063  0.50351393  1
  Ni  Ni49  1  0.67284359  0.33503007  0.67084246  1
  Ni  Ni50  1  0.83672926  0.50345893  0.83638397  1
  Ni  Ni51  1  0.83726876  0.83681624  0.50302165  1
  Fe  Fe52  1  0.67245500  0.67078762  0.67100417  1
  Ni  Ni53  1  0.83687773  0.83553564  0.83627157  1
" 