2508,Ni60Fe40_19,-238.828425436929, 217.104983859335,Ni60Fe40,"# generated using pymatgen
 data_Fe16Ni11
_symmetry_space_group_name_H-M   'P 1'
_cell_length_a   7.39586498
_cell_length_b   7.39586498
_cell_length_c   10.45933256
_cell_angle_alpha   90.00000000
_cell_angle_beta   90.00000000
_cell_angle_gamma   90.00000000
_symmetry_Int_Tables_number   1
_chemical_formula_structural   Fe16Ni11
_chemical_formula_sum   'Fe32 Ni22'
_cell_volume   572.11313710
_cell_formula_units_Z   2
loop_
 _symmetry_equiv_pos_site_id
 _symmetry_equiv_pos_as_xyz
  1  'x, y, z'
loop_
 _atom_site_type_symbol
 _atom_site_label
 _atom_site_symmetry_multiplicity
 _atom_site_fract_x
 _atom_site_fract_y
 _atom_site_fract_z
 _atom_site_occupancy
  Fe  Fe0  1  1.00374950  1.00449761  0.00610988  1
  Ni  Ni1  1  0.17103176  0.17314772  0.17203879  1
  Ni  Ni2  1  0.00543799  1.00444577  0.33828665  1
  Fe  Fe3  1  1.00330574  0.33719091  1.00408894  1
  Fe  Fe4  1  0.17068483  0.50581474  0.17243953  1
  Fe  Fe5  1  1.00455845  0.33858789  0.33929630  1
  Ni  Ni6  1  0.00748748  0.67180933  1.00464555  1
  Ni  Ni7  1  0.17077584  0.83816701  0.17239532  1
  Ni  Ni8  1  1.00469988  0.67181577  0.33928124  1
  Fe  Fe9  1  0.33747777  1.00388730  0.00531702  1
  Ni  Ni10  1  0.50437975  0.17215743  0.17207447  1
  Fe  Fe11  1  0.33768468  1.00384069  0.33693659  1
  Fe  Fe12  1  0.33814380  0.33803007  1.00456790  1
  Fe  Fe13  1  0.50527586  0.50438109  0.17053082  1
  Fe  Fe14  1  0.33730129  0.33876450  0.33821032  1
  Fe  Fe15  1  0.33945391  0.67271033  1.00392111  1
  Ni  Ni16  1  0.50583343  0.83722512  0.17149955  1
  Fe  Fe17  1  0.33758017  0.67208631  0.33831523  1
  Ni  Ni18  1  0.66988570  0.00546933  0.00636024  1
  Ni  Ni19  1  0.83873306  0.17151281  0.17250942  1
  Fe  Fe20  1  0.67315964  1.00295278  0.33740061  1
  Ni  Ni21  1  0.67039037  0.33646997  1.00397676  1
  Fe  Fe22  1  0.83867518  0.50498166  0.17090459  1
  Fe  Fe23  1  0.67284759  0.33861422  0.33660665  1
  Fe  Fe24  1  0.67249537  0.67133790  0.00509421  1
  Ni  Ni25  1  0.83818342  0.83742158  0.17092575  1
  Ni  Ni26  1  0.67144057  0.67083562  0.33733905  1
  Ni  Ni27  1  0.17191433  0.17265245  0.50404753  1
  Fe  Fe28  1  1.00362371  0.00610558  0.67045768  1
  Ni  Ni29  1  0.17063787  0.17281429  0.83859296  1
  Ni  Ni30  1  0.17250809  0.50378377  0.50581440  1
  Ni  Ni31  1  0.00568173  0.33920186  0.67225806  1
  Fe  Fe32  1  0.17203310  0.50726766  0.83706798  1
  Fe  Fe33  1  0.17017265  0.83803319  0.50454751  1
  Fe  Fe34  1  1.00367183  0.67262506  0.67107855  1
  Ni  Ni35  1  0.17041401  0.84035589  0.83659768  1
  Fe  Fe36  1  0.50483975  0.17118083  0.50382259  1
  Fe  Fe37  1  0.33698945  0.00602821  0.67211109  1
  Fe  Fe38  1  0.50448759  0.16864966  0.83895063  1
  Fe  Fe39  1  0.50500654  0.50507737  0.50508554  1
  Fe  Fe40  1  0.33839335  0.33693160  0.67158347  1
  Ni  Ni41  1  0.50590709  0.50394962  0.83754911  1
  Fe  Fe42  1  0.50384221  0.83806099  0.50480504  1
  Fe  Fe43  1  0.33839757  0.67140173  0.67206239  1
  Ni  Ni44  1  0.50652538  0.83612815  0.83799492  1
  Fe  Fe45  1  0.83969378  0.17132729  0.50481932  1
  Ni  Ni46  1  0.66993831  1.00475272  0.67096037  1
  Fe  Fe47  1  0.83710327  0.16964662  0.83835702  1
  Fe  Fe48  1  0.83997319  0.50480846  0.50447209  1
  Fe  Fe49  1  0.67230203  0.33763900  0.67274544  1
  Fe  Fe50  1  0.83901951  0.50565961  0.83878616  1
  Ni  Ni51  1  0.83639568  0.83769110  0.50450554  1
  Fe  Fe52  1  0.67245019  0.67166994  0.67071009  1
  Ni  Ni53  1  0.83727038  0.83826753  0.83900997  1
" 