8835,Ni60Fe6Cr33_8,-225.973813172183, 152.751923766665,Ni60Fe6Cr33,"# generated using pymatgen
 data_Cr19Fe3Ni32
_symmetry_space_group_name_H-M   'P 1'
_cell_length_a   7.48401924
_cell_length_b   7.48401924
_cell_length_c   10.58400151
_cell_angle_alpha   90.00000000
_cell_angle_beta   90.00000000
_cell_angle_gamma   90.00000000
_symmetry_Int_Tables_number   1
_chemical_formula_structural   Cr19Fe3Ni32
_chemical_formula_sum   'Cr19 Fe3 Ni32'
_cell_volume   592.81568267
_cell_formula_units_Z   1
loop_
 _symmetry_equiv_pos_site_id
 _symmetry_equiv_pos_as_xyz
  1  'x, y, z'
loop_
 _atom_site_type_symbol
 _atom_site_label
 _atom_site_symmetry_multiplicity
 _atom_site_fract_x
 _atom_site_fract_y
 _atom_site_fract_z
 _atom_site_occupancy
  Ni  Ni0  1  0.99557614  -0.00069243  0.99666031  1
  Cr  Cr1  1  0.16460943  0.16573089  0.16697381  1
  Cr  Cr2  1  0.99407871  -0.00107637  0.33275998  1
  Ni  Ni3  1  0.99685141  0.32848703  0.99822456  1
  Cr  Cr4  1  0.16533568  0.49961028  0.16627181  1
  Ni  Ni5  1  0.99594919  0.33079869  0.33324225  1
  Ni  Ni6  1  0.99796282  0.66916100  0.99717841  1
  Cr  Cr7  1  0.16593667  0.83134780  0.16540116  1
  Cr  Cr8  1  0.99573670  0.66515032  0.33406191  1
  Cr  Cr9  1  0.33338304  0.99700222  0.99694855  1
  Fe  Fe10  1  0.50274382  0.16513801  0.16682907  1
  Ni  Ni11  1  0.33665262  0.99749564  0.33160271  1
  Cr  Cr12  1  0.33444076  0.33449838  0.99804240  1
  Ni  Ni13  1  0.50015826  0.49924773  0.16546331  1
  Ni  Ni14  1  0.33540483  0.33402452  0.33143028  1
  Ni  Ni15  1  0.33595083  0.66631106  0.99842369  1
  Ni  Ni16  1  0.50121902  0.83239874  0.16606912  1
  Ni  Ni17  1  0.33690624  0.66484060  0.33208226  1
  Ni  Ni18  1  0.66877290  0.99733868  -0.00004428  1
  Ni  Ni19  1  0.82934554  0.16500158  0.16536363  1
  Ni  Ni20  1  0.66462636  -0.00101725  0.33124235  1
  Ni  Ni21  1  0.66625161  0.33171539  -0.00071915  1
  Cr  Cr22  1  0.83072798  0.49811222  0.16217855  1
  Ni  Ni23  1  0.66539534  0.33162273  0.33257807  1
  Ni  Ni24  1  0.66248719  0.66751124  0.99853538  1
  Ni  Ni25  1  0.82854378  0.83520221  0.16236428  1
  Cr  Cr26  1  0.66364090  0.66625472  0.33290039  1
  Cr  Cr27  1  0.16929508  0.16533678  0.49786731  1
  Cr  Cr28  1  0.99812898  0.99827927  0.66761706  1
  Ni  Ni29  1  0.16441427  0.16379520  0.83185419  1
  Cr  Cr30  1  0.16696064  0.49893634  0.49753558  1
  Cr  Cr31  1  0.99696026  0.33041645  0.66525548  1
  Cr  Cr32  1  0.16578298  0.50107458  0.83303266  1
  Cr  Cr33  1  0.16958833  0.83217603  0.49934870  1
  Fe  Fe34  1  0.99683633  0.66651671  0.66594681  1
  Ni  Ni35  1  0.16570453  0.83232421  0.83208761  1
  Cr  Cr36  1  0.49868419  0.16477365  0.49812424  1
  Ni  Ni37  1  0.33191413  0.99612656  0.66752571  1
  Cr  Cr38  1  0.50188355  0.16615880  0.83065209  1
  Ni  Ni39  1  0.50061676  0.49883524  0.50009868  1
  Ni  Ni40  1  0.33398520  0.33435627  0.66667760  1
  Ni  Ni41  1  0.50052478  0.50150692  0.83113867  1
  Ni  Ni42  1  0.49991240  0.83138047  0.49872574  1
  Ni  Ni43  1  0.33666865  0.66611006  0.66627249  1
  Ni  Ni44  1  0.49968751  0.82948186  0.83186108  1
  Fe  Fe45  1  0.82893529  0.16692208  0.49756091  1
  Cr  Cr46  1  0.66700537  0.99602823  0.66536157  1
  Ni  Ni47  1  0.83200326  0.16516368  0.83470445  1
  Ni  Ni48  1  0.82888540  0.49830938  0.49967241  1
  Ni  Ni49  1  0.66470391  0.33595572  0.66472840  1
  Cr  Cr50  1  0.82779300  0.50012082  0.83417105  1
  Ni  Ni51  1  0.82879687  0.83025228  0.49977186  1
  Ni  Ni52  1  0.66332844  0.66500706  0.66467521  1
  Ni  Ni53  1  0.83108377  0.83221136  0.83443930  1
" 