8973,Ni60Fe27Cr12_3,-236.357723349958, 200.572816723234,Ni60Fe27Cr12,"# generated using pymatgen
 data_Cr4Fe7Ni16
_symmetry_space_group_name_H-M   'P 1'
_cell_length_a   7.43752659
_cell_length_b   7.43752659
_cell_length_c   10.51825097
_cell_angle_alpha   90.00000000
_cell_angle_beta   90.00000000
_cell_angle_gamma   90.00000000
_symmetry_Int_Tables_number   1
_chemical_formula_structural   Cr4Fe7Ni16
_chemical_formula_sum   'Cr8 Fe14 Ni32'
_cell_volume   581.83600327
_cell_formula_units_Z   2
loop_
 _symmetry_equiv_pos_site_id
 _symmetry_equiv_pos_as_xyz
  1  'x, y, z'
loop_
 _atom_site_type_symbol
 _atom_site_label
 _atom_site_symmetry_multiplicity
 _atom_site_fract_x
 _atom_site_fract_y
 _atom_site_fract_z
 _atom_site_occupancy
  Ni  Ni0  1  0.99978635  0.00513927  1.00089637  1
  Ni  Ni1  1  0.16847570  0.16923846  0.16877300  1
  Ni  Ni2  1  0.00239591  1.00190198  0.33607623  1
  Ni  Ni3  1  1.00196385  0.33307963  1.00147329  1
  Cr  Cr4  1  0.16830857  0.49952210  0.16964116  1
  Fe  Fe5  1  1.00003548  0.33379296  0.33598456  1
  Cr  Cr6  1  1.00064286  0.66859669  1.00084689  1
  Cr  Cr7  1  0.16780335  0.83683025  0.16957404  1
  Ni  Ni8  1  0.99969007  0.66878313  0.33713476  1
  Cr  Cr9  1  0.33345205  0.00333016  0.00375355  1
  Fe  Fe10  1  0.50310799  0.16984788  0.17004193  1
  Ni  Ni11  1  0.33519663  0.00392366  0.33618649  1
  Ni  Ni12  1  0.33472049  0.33652609  0.00201199  1
  Ni  Ni13  1  0.50428603  0.50193832  0.16679768  1
  Fe  Fe14  1  0.33645382  0.33379701  0.33607542  1
  Ni  Ni15  1  0.33785658  0.66525900  1.00091821  1
  Fe  Fe16  1  0.50455580  0.83370906  0.16957574  1
  Fe  Fe17  1  0.33728429  0.66979518  0.33700391  1
  Ni  Ni18  1  0.67189046  1.00181965  0.00423813  1
  Fe  Fe19  1  0.83598673  0.16869649  0.16927939  1
  Ni  Ni20  1  0.66843670  0.00231024  0.33579421  1
  Fe  Fe21  1  0.66973832  0.33661159  0.00320292  1
  Ni  Ni22  1  0.83223516  0.50207228  0.16923752  1
  Ni  Ni23  1  0.66836935  0.33605353  0.33509365  1
  Ni  Ni24  1  0.66837329  0.66757954  0.00288753  1
  Ni  Ni25  1  0.83203785  0.83592904  0.16868469  1
  Ni  Ni26  1  0.67027412  0.66761242  0.33537205  1
  Ni  Ni27  1  0.16960210  0.16911972  0.50220343  1
  Fe  Fe28  1  0.00288952  1.00177855  0.66787037  1
  Ni  Ni29  1  0.16705198  0.17057671  0.83490470  1
  Ni  Ni30  1  0.16761346  0.50197373  0.50198594  1
  Fe  Fe31  1  0.00408781  0.33606000  0.66893154  1
  Ni  Ni32  1  0.16811866  0.50040112  0.83523307  1
  Ni  Ni33  1  0.16934441  0.83486430  0.50285714  1
  Ni  Ni34  1  0.00366116  0.66837252  0.66864260  1
  Fe  Fe35  1  0.16740211  0.83489899  0.83337567  1
  Ni  Ni36  1  0.50145509  0.16639558  0.50152038  1
  Ni  Ni37  1  0.33354415  0.00297145  0.66669361  1
  Cr  Cr38  1  0.50153504  0.16842251  0.83519460  1
  Fe  Fe39  1  0.50041207  0.50183153  0.49989527  1
  Ni  Ni40  1  0.33294025  0.33525888  0.66769274  1
  Fe  Fe41  1  0.49939967  0.50156187  0.83729958  1
  Ni  Ni42  1  0.50171740  0.83752137  0.50069929  1
  Ni  Ni43  1  0.33177952  0.66763319  0.66791968  1
  Cr  Cr44  1  0.50263558  0.83497160  0.83567478  1
  Ni  Ni45  1  0.83495385  0.16800061  0.50174369  1
  Ni  Ni46  1  0.66969431  0.00263610  0.66609301  1
  Fe  Fe47  1  0.83778409  0.16822229  0.83580473  1
  Ni  Ni48  1  0.83770962  0.50221631  0.49977583  1
  Cr  Cr49  1  0.66868387  0.33479942  0.66766808  1
  Ni  Ni50  1  0.83723353  0.50180003  0.83700935  1
  Ni  Ni51  1  0.83501995  0.83566668  0.50173279  1
  Cr  Cr52  1  0.67052496  0.66850304  0.66671916  1
  Fe  Fe53  1  0.83701639  0.83701468  0.83547201  1
" 