835,Ni60Fe27Cr12_12,-236.156880024381, 202.116953324983,Ni60Fe27Cr12,"# generated using pymatgen
 data_Cr4Fe7Ni16
_symmetry_space_group_name_H-M   'P 1'
_cell_length_a   7.43564919
_cell_length_b   7.43564919
_cell_length_c   10.51559593
_cell_angle_alpha   90.00000000
_cell_angle_beta   90.00000000
_cell_angle_gamma   90.00000000
_symmetry_Int_Tables_number   1
_chemical_formula_structural   Cr4Fe7Ni16
_chemical_formula_sum   'Cr8 Fe14 Ni32'
_cell_volume   581.39551002
_cell_formula_units_Z   2
loop_
 _symmetry_equiv_pos_site_id
 _symmetry_equiv_pos_as_xyz
  1  'x, y, z'
loop_
 _atom_site_type_symbol
 _atom_site_label
 _atom_site_symmetry_multiplicity
 _atom_site_fract_x
 _atom_site_fract_y
 _atom_site_fract_z
 _atom_site_occupancy
  Fe  Fe0  1  0.00372509  0.00320695  1.00051515  1
  Cr  Cr1  1  0.16729502  0.16883811  0.16917424  1
  Ni  Ni2  1  0.00259098  1.00139966  0.33676569  1
  Ni  Ni3  1  0.00299011  0.33418267  1.00048047  1
  Ni  Ni4  1  0.16975781  0.50193805  0.16892124  1
  Ni  Ni5  1  1.00143250  0.33588447  0.33602491  1
  Cr  Cr6  1  0.00427400  0.66749946  0.99970700  1
  Ni  Ni7  1  0.17172695  0.83578758  0.17043816  1
  Ni  Ni8  1  0.00485950  0.66825661  0.33731147  1
  Ni  Ni9  1  0.33733816  1.00092894  1.00158757  1
  Fe  Fe10  1  0.50031934  0.16830535  0.16842249  1
  Ni  Ni11  1  0.33575479  1.00087257  0.33657758  1
  Ni  Ni12  1  0.33453953  0.33513743  1.00031175  1
  Cr  Cr13  1  0.50023570  0.50431760  0.17126784  1
  Ni  Ni14  1  0.33547318  0.33594728  0.33667270  1
  Ni  Ni15  1  0.33574389  0.66998075  1.00123000  1
  Ni  Ni16  1  0.49948850  0.83603401  0.16693765  1
  Ni  Ni17  1  0.33299392  0.67006590  0.33538516  1
  Fe  Fe18  1  0.66779059  0.00223640  1.00048743  1
  Ni  Ni19  1  0.83625484  0.16895224  0.16902242  1
  Cr  Cr20  1  0.66727203  0.00359929  0.33473925  1
  Cr  Cr21  1  0.66906171  0.33409425  1.00147941  1
  Cr  Cr22  1  0.83676094  0.49982500  0.17141512  1
  Ni  Ni23  1  0.66890789  0.33347360  0.33806997  1
  Ni  Ni24  1  0.66653134  0.67114904  0.99987385  1
  Cr  Cr25  1  0.83578871  0.83656024  0.16857945  1
  Fe  Fe26  1  0.66775422  0.66842323  0.33877504  1
  Fe  Fe27  1  0.16872397  0.16902281  0.50222183  1
  Ni  Ni28  1  1.00181726  1.00204707  0.66883112  1
  Fe  Fe29  1  0.17137787  0.16787777  0.83483318  1
  Ni  Ni30  1  0.16649628  0.50114641  0.50131789  1
  Ni  Ni31  1  0.00262326  0.33548610  0.66967632  1
  Fe  Fe32  1  0.17052425  0.49967415  0.83497028  1
  Ni  Ni33  1  0.16922250  0.83697668  0.50111228  1
  Ni  Ni34  1  1.00046965  0.66844213  0.66899087  1
  Ni  Ni35  1  0.16909178  0.83778881  0.83483719  1
  Fe  Fe36  1  0.49990444  0.16985308  0.50401325  1
  Ni  Ni37  1  0.33627952  0.00362209  0.66798208  1
  Ni  Ni38  1  0.50287133  0.16824819  0.83422357  1
  Fe  Fe39  1  0.50073499  0.50305957  0.50206781  1
  Ni  Ni40  1  0.33515168  0.33351085  0.66913329  1
  Ni  Ni41  1  0.50271768  0.50223208  0.83381786  1
  Ni  Ni42  1  0.50109326  0.83676057  0.50292190  1
  Cr  Cr43  1  0.33413937  0.66922647  0.66952871  1
  Ni  Ni44  1  0.50114426  0.83559732  0.83613666  1
  Fe  Fe45  1  0.83784296  0.16799404  0.50347546  1
  Ni  Ni46  1  0.66850420  1.00210053  0.66972190  1
  Ni  Ni47  1  0.83764092  0.16926331  0.83444610  1
  Ni  Ni48  1  0.83548614  0.49958191  0.50273012  1
  Fe  Fe49  1  0.66923129  0.33465732  0.66862191  1
  Fe  Fe50  1  0.83391494  0.50273603  0.83289050  1
  Fe  Fe51  1  0.83703250  0.83323955  0.50344158  1
  Ni  Ni52  1  0.67000423  0.67006135  0.66817249  1
  Fe  Fe53  1  0.83331078  0.83690965  0.83372338  1
" 