970,Ni60Fe6Cr33_1,-225.739522916011, 151.602221197461,Ni60Fe6Cr33,"# generated using pymatgen
 data_Cr19Fe3Ni32
_symmetry_space_group_name_H-M   'P 1'
_cell_length_a   7.48610727
_cell_length_b   7.48610727
_cell_length_c   10.58695443
_cell_angle_alpha   90.00000000
_cell_angle_beta   90.00000000
_cell_angle_gamma   90.00000000
_symmetry_Int_Tables_number   1
_chemical_formula_structural   Cr19Fe3Ni32
_chemical_formula_sum   'Cr19 Fe3 Ni32'
_cell_volume   593.31200471
_cell_formula_units_Z   1
loop_
 _symmetry_equiv_pos_site_id
 _symmetry_equiv_pos_as_xyz
  1  'x, y, z'
loop_
 _atom_site_type_symbol
 _atom_site_label
 _atom_site_symmetry_multiplicity
 _atom_site_fract_x
 _atom_site_fract_y
 _atom_site_fract_z
 _atom_site_occupancy
  Fe  Fe0  1  0.00092804  0.99808033  -0.00065748  1
  Ni  Ni1  1  0.16669709  0.16363463  0.16566155  1
  Ni  Ni2  1  0.99765468  0.99798033  0.33022920  1
  Cr  Cr3  1  0.99780358  0.33002870  0.99769833  1
  Cr  Cr4  1  0.16871793  0.49680407  0.16476622  1
  Cr  Cr5  1  0.99800366  0.33093831  0.33319764  1
  Ni  Ni6  1  0.99768303  0.66771022  0.99765599  1
  Cr  Cr7  1  0.16400654  0.83337543  0.16530172  1
  Ni  Ni8  1  0.99597325  0.66890116  0.33310372  1
  Ni  Ni9  1  0.33086945  -0.00013748  0.99799569  1
  Fe  Fe10  1  0.49723166  0.16464418  0.16492172  1
  Ni  Ni11  1  0.33212586  -0.00038675  0.33047365  1
  Ni  Ni12  1  0.33423468  0.32826893  0.00068689  1
  Ni  Ni13  1  0.49891475  0.49908374  0.16357110  1
  Ni  Ni14  1  0.33419239  0.32987257  0.32895482  1
  Ni  Ni15  1  0.33274280  0.66774857  -0.00069857  1
  Ni  Ni16  1  0.50069733  0.83117256  0.16592239  1
  Cr  Cr17  1  0.33401600  0.66598592  0.33332952  1
  Cr  Cr18  1  0.66394290  -0.00092158  0.00154869  1
  Ni  Ni19  1  0.83274010  0.16183224  0.16617824  1
  Ni  Ni20  1  0.66632299  0.99795037  0.32930207  1
  Ni  Ni21  1  0.66346689  0.33236284  -0.00101770  1
  Cr  Cr22  1  0.83061757  0.50169878  0.16395305  1
  Cr  Cr23  1  0.66458566  0.33222039  0.33215530  1
  Ni  Ni24  1  0.66577761  0.66430814  0.00107025  1
  Ni  Ni25  1  0.83031679  0.83361338  0.16652375  1
  Ni  Ni26  1  0.66600246  0.66679507  0.33048955  1
  Cr  Cr27  1  0.16349527  0.16181782  0.49789311  1
  Ni  Ni28  1  0.00079035  0.99837782  0.66617435  1
  Ni  Ni29  1  0.16684518  0.16233668  0.83217122  1
  Cr  Cr30  1  0.16573061  0.50034818  0.49806790  1
  Ni  Ni31  1  0.99493044  0.33215485  0.66516692  1
  Cr  Cr32  1  0.16442267  0.50029275  0.83369904  1
  Ni  Ni33  1  0.16352520  0.83294257  0.50014496  1
  Ni  Ni34  1  -0.00113224  0.66576849  0.66550196  1
  Ni  Ni35  1  0.16532504  0.83384433  0.83137055  1
  Cr  Cr36  1  0.50071088  0.16451609  0.49900663  1
  Ni  Ni37  1  0.32979676  0.99658817  0.66749202  1
  Ni  Ni38  1  0.49729060  0.16569107  0.83233946  1
  Ni  Ni39  1  0.50107472  0.49949699  0.49925916  1
  Cr  Cr40  1  0.33244582  0.33115310  0.66623868  1
  Cr  Cr41  1  0.50138516  0.49830079  0.83383296  1
  Cr  Cr42  1  0.49895057  0.83226137  0.50049861  1
  Ni  Ni43  1  0.33041896  0.66871188  0.66458197  1
  Cr  Cr44  1  0.49768145  0.83246413  0.82963982  1
  Ni  Ni45  1  0.83211912  0.16425885  0.50060223  1
  Ni  Ni46  1  0.66547883  0.00070325  0.66517517  1
  Cr  Cr47  1  0.83089317  0.16642793  0.82932282  1
  Fe  Fe48  1  0.83062617  0.49969081  0.50095413  1
  Ni  Ni49  1  0.66840794  0.33290384  0.66494211  1
  Ni  Ni50  1  0.83101181  0.49938858  0.83038709  1
  Cr  Cr51  1  0.83269606  0.83480811  0.49745471  1
  Ni  Ni52  1  0.66672994  0.66265918  0.66434923  1
  Cr  Cr53  1  0.83334170  0.82978517  0.83267375  1
" 