8116,Ni60Fe27Cr12_13,-236.109797333316, 201.6353768244,Ni60Fe27Cr12,"# generated using pymatgen
 data_Cr4Fe7Ni16
_symmetry_space_group_name_H-M   'P 1'
_cell_length_a   7.43862007
_cell_length_b   7.43862007
_cell_length_c   10.51979739
_cell_angle_alpha   90.00000000
_cell_angle_beta   90.00000000
_cell_angle_gamma   90.00000000
_symmetry_Int_Tables_number   1
_chemical_formula_structural   Cr4Fe7Ni16
_chemical_formula_sum   'Cr8 Fe14 Ni32'
_cell_volume   582.09267060
_cell_formula_units_Z   2
loop_
 _symmetry_equiv_pos_site_id
 _symmetry_equiv_pos_as_xyz
  1  'x, y, z'
loop_
 _atom_site_type_symbol
 _atom_site_label
 _atom_site_symmetry_multiplicity
 _atom_site_fract_x
 _atom_site_fract_y
 _atom_site_fract_z
 _atom_site_occupancy
  Ni  Ni0  1  0.00297986  1.00124779  1.00166422  1
  Cr  Cr1  1  0.16878459  0.16762114  0.16823505  1
  Ni  Ni2  1  0.00335302  1.00045031  0.33731746  1
  Ni  Ni3  1  0.00293483  0.33695880  1.00013115  1
  Ni  Ni4  1  0.16827347  0.50392239  0.16895776  1
  Ni  Ni5  1  1.00087643  0.33706233  0.33819441  1
  Fe  Fe6  1  0.99989065  0.66641158  0.00213869  1
  Ni  Ni7  1  0.16705082  0.83406529  0.16801680  1
  Ni  Ni8  1  0.00274326  0.66827040  0.33359648  1
  Fe  Fe9  1  0.33549946  0.00282162  0.00243515  1
  Ni  Ni10  1  0.50128481  0.17154509  0.16945632  1
  Ni  Ni11  1  0.33418981  1.00008721  0.33576042  1
  Fe  Fe12  1  0.33617774  0.33728679  1.00062860  1
  Ni  Ni13  1  0.50269973  0.50083705  0.16940258  1
  Fe  Fe14  1  0.33325032  0.33732258  0.33426225  1
  Ni  Ni15  1  0.33530473  0.66674275  0.00244568  1
  Cr  Cr16  1  0.49978770  0.83330503  0.17151344  1
  Ni  Ni17  1  0.33336194  0.67016449  0.33614628  1
  Cr  Cr18  1  0.66856833  1.00171131  0.00296396  1
  Cr  Cr19  1  0.83542252  0.17030812  0.17124318  1
  Fe  Fe20  1  0.66988350  0.99954766  0.33714428  1
  Ni  Ni21  1  0.66747791  0.33773943  1.00166290  1
  Ni  Ni22  1  0.83451564  0.50248354  0.16751209  1
  Ni  Ni23  1  0.67015323  0.33624072  0.33351447  1
  Ni  Ni24  1  0.66681269  0.66623854  1.00004827  1
  Fe  Fe25  1  0.83743511  0.83219779  0.16896946  1
  Ni  Ni26  1  0.66973182  0.66757170  0.33605983  1
  Fe  Fe27  1  0.16663876  0.16841345  0.50239937  1
  Fe  Fe28  1  1.00190330  1.00143067  0.66716201  1
  Ni  Ni29  1  0.17026806  0.16907837  0.83481331  1
  Fe  Fe30  1  0.16724577  0.50493555  0.50244055  1
  Ni  Ni31  1  0.00304469  0.33686990  0.66736610  1
  Ni  Ni32  1  0.16907376  0.50093702  0.83466761  1
  Ni  Ni33  1  0.16808236  0.83587866  0.50139757  1
  Ni  Ni34  1  0.00283987  0.66735548  0.66886605  1
  Cr  Cr35  1  0.16771996  0.83534570  0.83637636  1
  Cr  Cr36  1  0.50171006  0.16976448  0.50008704  1
  Fe  Fe37  1  0.33452404  0.00283649  0.66736905  1
  Fe  Fe38  1  0.50097845  0.17023122  0.83418290  1
  Cr  Cr39  1  0.50338291  0.50333846  0.50087515  1
  Ni  Ni40  1  0.33319525  0.33671523  0.67030866  1
  Ni  Ni41  1  0.50218836  0.50192656  0.83467948  1
  Ni  Ni42  1  0.50110630  0.83533300  0.50314664  1
  Ni  Ni43  1  0.33438513  0.66900009  0.66783576  1
  Fe  Fe44  1  0.50235176  0.83227782  0.83354944  1
  Fe  Fe45  1  0.83578520  0.16832550  0.50233683  1
  Ni  Ni46  1  0.66816000  0.99970540  0.66782093  1
  Cr  Cr47  1  0.83797642  0.17010166  0.83334665  1
  Ni  Ni48  1  0.83635639  0.50174572  0.50272082  1
  Ni  Ni49  1  0.66924051  0.33398102  0.67008636  1
  Ni  Ni50  1  0.83439346  0.50296149  0.83484770  1
  Ni  Ni51  1  0.83688650  0.83370916  0.50145093  1
  Fe  Fe52  1  0.67040616  0.66756505  0.66882906  1
  Ni  Ni53  1  0.83489623  0.83325899  0.83480000  1
" 