4454,Ni60Fe6Cr33_10,-226.066541318837, 154.092281696662,Ni60Fe6Cr33,"# generated using pymatgen
 data_Cr19Fe3Ni32
_symmetry_space_group_name_H-M   'P 1'
_cell_length_a   7.48348613
_cell_length_b   7.48348613
_cell_length_c   10.58324757
_cell_angle_alpha   90.00000000
_cell_angle_beta   90.00000000
_cell_angle_gamma   90.00000000
_symmetry_Int_Tables_number   1
_chemical_formula_structural   Cr19Fe3Ni32
_chemical_formula_sum   'Cr19 Fe3 Ni32'
_cell_volume   592.68900595
_cell_formula_units_Z   1
loop_
 _symmetry_equiv_pos_site_id
 _symmetry_equiv_pos_as_xyz
  1  'x, y, z'
loop_
 _atom_site_type_symbol
 _atom_site_label
 _atom_site_symmetry_multiplicity
 _atom_site_fract_x
 _atom_site_fract_y
 _atom_site_fract_z
 _atom_site_occupancy
  Cr  Cr0  1  0.00097262  0.00033589  -0.00037680  1
  Ni  Ni1  1  0.16426306  0.16658047  0.16620207  1
  Ni  Ni2  1  -0.00090733  0.99888797  0.33208241  1
  Ni  Ni3  1  0.99853658  0.33261868  0.99616105  1
  Ni  Ni4  1  0.16492006  0.49985281  0.16583288  1
  Ni  Ni5  1  0.99793200  0.33276953  0.33447756  1
  Cr  Cr6  1  0.00218158  0.66396609  0.99759813  1
  Ni  Ni7  1  0.16597198  0.83033808  0.16709943  1
  Ni  Ni8  1  0.00194072  0.66508035  0.33291090  1
  Cr  Cr9  1  0.33127520  0.99843403  0.99797698  1
  Ni  Ni10  1  0.49988583  0.16633996  0.16589456  1
  Cr  Cr11  1  0.33125650  -0.00093572  0.33321241  1
  Cr  Cr12  1  0.33127604  0.33180918  0.00016576  1
  Cr  Cr13  1  0.49759167  0.49803501  0.16599148  1
  Cr  Cr14  1  0.33249989  0.33311343  0.33338769  1
  Ni  Ni15  1  0.32916483  0.66630423  0.99804664  1
  Cr  Cr16  1  0.49748077  0.83162896  0.16666552  1
  Ni  Ni17  1  0.32941766  0.66568645  0.33355490  1
  Cr  Cr18  1  0.66443037  0.00227875  0.99678543  1
  Cr  Cr19  1  0.83271063  0.16687491  0.16703603  1
  Ni  Ni20  1  0.66597707  0.00174355  0.33436300  1
  Ni  Ni21  1  0.66721929  0.33041029  0.99721446  1
  Cr  Cr22  1  0.83368355  0.49676277  0.16659303  1
  Ni  Ni23  1  0.66653131  0.33064126  0.33432126  1
  Cr  Cr24  1  0.66516416  0.66380210  0.99730189  1
  Cr  Cr25  1  0.83396849  0.83309070  0.16992285  1
  Fe  Fe26  1  0.66529918  0.66437604  0.33569582  1
  Ni  Ni27  1  0.16376089  0.16549132  0.49859069  1
  Cr  Cr28  1  0.00141863  -0.00042979  0.66556561  1
  Ni  Ni29  1  0.16452085  0.16628417  0.83196250  1
  Ni  Ni30  1  0.16305276  0.49993740  0.49753091  1
  Fe  Fe31  1  0.99743144  0.33438804  0.66542992  1
  Ni  Ni32  1  0.16177200  0.49894476  0.83323393  1
  Ni  Ni33  1  0.16670592  0.83135416  0.49764326  1
  Ni  Ni34  1  0.99798997  0.66318809  0.66610362  1
  Ni  Ni35  1  0.16854953  0.83152478  0.83207627  1
  Ni  Ni36  1  0.50155573  0.16477873  0.49974262  1
  Ni  Ni37  1  0.33335099  -0.00083457  0.66603613  1
  Ni  Ni38  1  0.50065152  0.16353216  0.83104323  1
  Ni  Ni39  1  0.50151195  0.49982985  0.49720097  1
  Cr  Cr40  1  0.33259189  0.32931335  0.66317779  1
  Cr  Cr41  1  0.49970427  0.49917358  0.83359890  1
  Ni  Ni42  1  0.49853169  0.83207260  0.49928176  1
  Cr  Cr43  1  0.33086479  0.66763566  0.66476820  1
  Ni  Ni44  1  0.49665497  0.83404963  0.83057296  1
  Ni  Ni45  1  0.83136288  0.16851033  0.49744292  1
  Fe  Fe46  1  0.66217966  0.00013561  0.66498417  1
  Ni  Ni47  1  0.83153085  0.17037788  0.83216193  1
  Ni  Ni48  1  0.83215326  0.49699772  0.49928309  1
  Ni  Ni49  1  0.66777537  0.33188609  0.66522127  1
  Ni  Ni50  1  0.83402360  0.49495502  0.83060209  1
  Cr  Cr51  1  0.83204021  0.83198451  0.49686287  1
  Ni  Ni52  1  0.66717183  0.66329577  0.66435803  1
  Cr  Cr53  1  0.83118960  0.83148816  0.83009781  1
" 