5851,Ni60Fe40_10,-239.268479981765, 214.020858237496,Ni60Fe40,"# generated using pymatgen
 data_Fe16Ni11
_symmetry_space_group_name_H-M   'P 1'
_cell_length_a   7.40019416
_cell_length_b   7.40019416
_cell_length_c   10.46545495
_cell_angle_alpha   90.00000000
_cell_angle_beta   90.00000000
_cell_angle_gamma   90.00000000
_symmetry_Int_Tables_number   1
_chemical_formula_structural   Fe16Ni11
_chemical_formula_sum   'Fe32 Ni22'
_cell_volume   573.11838743
_cell_formula_units_Z   2
loop_
 _symmetry_equiv_pos_site_id
 _symmetry_equiv_pos_as_xyz
  1  'x, y, z'
loop_
 _atom_site_type_symbol
 _atom_site_label
 _atom_site_symmetry_multiplicity
 _atom_site_fract_x
 _atom_site_fract_y
 _atom_site_fract_z
 _atom_site_occupancy
  Fe  Fe0  1  0.00561018  1.00443569  0.00473311  1
  Ni  Ni1  1  0.17324287  0.17042561  0.17184562  1
  Fe  Fe2  1  1.00368221  1.00352067  0.33716109  1
  Ni  Ni3  1  1.00429575  0.33845487  1.00405435  1
  Ni  Ni4  1  0.16993441  0.50489761  0.17048673  1
  Ni  Ni5  1  1.00407051  0.33860744  0.33793701  1
  Fe  Fe6  1  0.00495313  0.67148597  0.00480730  1
  Ni  Ni7  1  0.17032650  0.83822745  0.17206775  1
  Ni  Ni8  1  0.00532537  0.66972957  0.33733687  1
  Ni  Ni9  1  0.33881548  1.00381129  1.00443477  1
  Ni  Ni10  1  0.50385339  0.17080728  0.17086471  1
  Fe  Fe11  1  0.33847463  0.00460351  0.33695654  1
  Fe  Fe12  1  0.33763463  0.33714271  0.00481306  1
  Fe  Fe13  1  0.50414899  0.50496612  0.17111179  1
  Fe  Fe14  1  0.33838452  0.33852320  0.33778573  1
  Fe  Fe15  1  0.33694864  0.67120915  0.00470515  1
  Fe  Fe16  1  0.50399601  0.83787461  0.17155970  1
  Ni  Ni17  1  0.33761320  0.67215345  0.33755682  1
  Fe  Fe18  1  0.67116295  0.00511807  0.00533433  1
  Fe  Fe19  1  0.83897389  0.17156797  0.17148170  1
  Ni  Ni20  1  0.66982292  0.00483380  0.33717287  1
  Fe  Fe21  1  0.67088513  0.33779587  0.00462925  1
  Ni  Ni22  1  0.83810978  0.50578146  0.17168866  1
  Ni  Ni23  1  0.67224608  0.33694149  0.33766479  1
  Fe  Fe24  1  0.67164634  0.67063578  0.00462505  1
  Ni  Ni25  1  0.83849253  0.83657373  0.17119849  1
  Ni  Ni26  1  0.67060862  0.67177624  0.33804551  1
  Fe  Fe27  1  0.17066372  0.17270873  0.50440583  1
  Fe  Fe28  1  0.00482850  1.00412074  0.67165964  1
  Fe  Fe29  1  0.17087296  0.17191115  0.83860081  1
  Ni  Ni30  1  0.16951798  0.50522072  0.50530775  1
  Ni  Ni31  1  1.00440831  0.33901069  0.67156159  1
  Fe  Fe32  1  0.17056946  0.50475343  0.83737502  1
  Fe  Fe33  1  0.17119275  0.83669740  0.50469665  1
  Ni  Ni34  1  0.00479639  0.66964218  0.67189095  1
  Ni  Ni35  1  0.17089132  0.83876178  0.83754042  1
  Ni  Ni36  1  0.50462013  0.17047676  0.50520040  1
  Fe  Fe37  1  0.33672914  0.00459894  0.67186837  1
  Fe  Fe38  1  0.50436889  0.17124520  0.83799708  1
  Fe  Fe39  1  0.50458485  0.50436376  0.50458853  1
  Fe  Fe40  1  0.33726176  0.33843460  0.67095259  1
  Ni  Ni41  1  0.50596909  0.50343393  0.83699407  1
  Fe  Fe42  1  0.50474622  0.83720737  0.50399266  1
  Fe  Fe43  1  0.33655602  0.67051807  0.67106104  1
  Fe  Fe44  1  0.50434336  0.83701588  0.83799747  1
  Fe  Fe45  1  0.83782726  0.17254603  0.50438267  1
  Fe  Fe46  1  0.67199340  0.00482700  0.67035243  1
  Fe  Fe47  1  0.83831121  0.17210921  0.83768507  1
  Ni  Ni48  1  0.83864830  0.50522089  0.50459507  1
  Fe  Fe49  1  0.67200620  0.33874800  0.67090721  1
  Ni  Ni50  1  0.83707941  0.50458628  0.83726935  1
  Fe  Fe51  1  0.83761112  0.83716897  0.50369889  1
  Fe  Fe52  1  0.67248209  0.66997375  0.67130252  1
  Fe  Fe53  1  0.83777982  0.83671624  0.83797546  1
" 