6381,Ni60Fe27Cr12_9,-236.125040465489, 199.043214075083,Ni60Fe27Cr12,"# generated using pymatgen
 data_Cr4Fe7Ni16
_symmetry_space_group_name_H-M   'P 1'
_cell_length_a   7.43733237
_cell_length_b   7.43733237
_cell_length_c   10.51797630
_cell_angle_alpha   90.00000000
_cell_angle_beta   90.00000000
_cell_angle_gamma   90.00000000
_symmetry_Int_Tables_number   1
_chemical_formula_structural   Cr4Fe7Ni16
_chemical_formula_sum   'Cr8 Fe14 Ni32'
_cell_volume   581.79042304
_cell_formula_units_Z   2
loop_
 _symmetry_equiv_pos_site_id
 _symmetry_equiv_pos_as_xyz
  1  'x, y, z'
loop_
 _atom_site_type_symbol
 _atom_site_label
 _atom_site_symmetry_multiplicity
 _atom_site_fract_x
 _atom_site_fract_y
 _atom_site_fract_z
 _atom_site_occupancy
  Cr  Cr0  1  1.00035124  0.99982113  0.99970946  1
  Cr  Cr1  1  0.16872843  0.16737384  0.16669850  1
  Ni  Ni2  1  1.00180538  1.00051723  0.33551192  1
  Ni  Ni3  1  0.99992485  0.33803823  0.00261459  1
  Fe  Fe4  1  0.16655503  0.50408231  0.16637490  1
  Fe  Fe5  1  1.00053252  0.33400510  0.33573119  1
  Ni  Ni6  1  0.00282074  0.66721199  1.00142543  1
  Ni  Ni7  1  0.16833297  0.83459380  0.17002402  1
  Fe  Fe8  1  0.00254467  0.66771223  0.33390197  1
  Ni  Ni9  1  0.33565866  0.99789661  0.99918550  1
  Cr  Cr10  1  0.50196160  0.16939196  0.16587988  1
  Ni  Ni11  1  0.33449848  0.99995143  0.33689537  1
  Fe  Fe12  1  0.33610477  0.33795377  0.99985237  1
  Ni  Ni13  1  0.50397853  0.50394587  0.16738878  1
  Cr  Cr14  1  0.33569035  0.34085891  0.33383374  1
  Ni  Ni15  1  0.33499833  0.66853044  0.00329967  1
  Fe  Fe16  1  0.50250200  0.83517261  0.16805368  1
  Fe  Fe17  1  0.33719724  0.67054506  0.33469293  1
  Ni  Ni18  1  0.66837177  1.00141046  0.00215844  1
  Ni  Ni19  1  0.83495663  0.16947287  0.17020117  1
  Ni  Ni20  1  0.66961486  1.00159438  0.33308710  1
  Ni  Ni21  1  0.67025752  0.33746968  1.00157263  1
  Ni  Ni22  1  0.83388496  0.50333384  0.16947869  1
  Ni  Ni23  1  0.66967489  0.33763833  0.33593741  1
  Ni  Ni24  1  0.66799072  0.66788072  0.00226099  1
  Ni  Ni25  1  0.83593662  0.83332673  0.16806289  1
  Fe  Fe26  1  0.66690817  0.66855888  0.33426158  1
  Ni  Ni27  1  0.16727594  0.16928490  0.50200277  1
  Cr  Cr28  1  0.00238219  0.00210317  0.67155244  1
  Ni  Ni29  1  0.17080778  0.17106283  0.83542621  1
  Fe  Fe30  1  0.16956952  0.50303286  0.50401074  1
  Ni  Ni31  1  0.00243209  0.33616108  0.66724982  1
  Ni  Ni32  1  0.16804075  0.50153376  0.83592814  1
  Fe  Fe33  1  0.17097706  0.83425957  0.50193078  1
  Ni  Ni34  1  0.00391887  0.66676326  0.67026442  1
  Ni  Ni35  1  0.17019572  0.83354412  0.83379544  1
  Cr  Cr36  1  0.49946145  0.16931707  0.50335634  1
  Fe  Fe37  1  0.33506299  1.00104975  0.66952241  1
  Fe  Fe38  1  0.50148588  0.17011941  0.83712396  1
  Ni  Ni39  1  0.50342122  0.50375003  0.50324580  1
  Ni  Ni40  1  0.33481082  0.33829875  0.67046354  1
  Ni  Ni41  1  0.50274851  0.50285322  0.83488277  1
  Ni  Ni42  1  0.50245444  0.83303831  0.50067269  1
  Ni  Ni43  1  0.33617671  0.66791945  0.66768488  1
  Ni  Ni44  1  0.50181946  0.83280668  0.83634964  1
  Fe  Fe45  1  0.83426272  0.16931629  0.50041937  1
  Cr  Cr46  1  0.66834097  1.00138143  0.67264368  1
  Fe  Fe47  1  0.83539081  0.17253212  0.83706633  1
  Fe  Fe48  1  0.83495284  0.50019591  0.50319330  1
  Ni  Ni49  1  0.66856261  0.33771733  0.66898761  1
  Ni  Ni50  1  0.83507400  0.50341928  0.83369421  1
  Cr  Cr51  1  0.83558378  0.83123972  0.50238453  1
  Ni  Ni52  1  0.66690294  0.66708272  0.66900620  1
  Ni  Ni53  1  0.83398227  0.82980486  0.83692345  1
" 