4126,Ni60Fe6Cr33_4,-226.012354056447, 153.568762494917,Ni60Fe6Cr33,"# generated using pymatgen
 data_Cr19Fe3Ni32
_symmetry_space_group_name_H-M   'P 1'
_cell_length_a   7.48660748
_cell_length_b   7.48660748
_cell_length_c   10.58766183
_cell_angle_alpha   90.00000000
_cell_angle_beta   90.00000000
_cell_angle_gamma   90.00000000
_symmetry_Int_Tables_number   1
_chemical_formula_structural   Cr19Fe3Ni32
_chemical_formula_sum   'Cr19 Fe3 Ni32'
_cell_volume   593.43094399
_cell_formula_units_Z   1
loop_
 _symmetry_equiv_pos_site_id
 _symmetry_equiv_pos_as_xyz
  1  'x, y, z'
loop_
 _atom_site_type_symbol
 _atom_site_label
 _atom_site_symmetry_multiplicity
 _atom_site_fract_x
 _atom_site_fract_y
 _atom_site_fract_z
 _atom_site_occupancy
  Ni  Ni0  1  0.99747077  0.99861522  0.00027507  1
  Ni  Ni1  1  0.16590404  0.16630382  0.16418768  1
  Ni  Ni2  1  0.99474728  -0.00013888  0.33175769  1
  Cr  Cr3  1  0.00160647  0.33141902  0.00169711  1
  Ni  Ni4  1  0.16380821  0.49747216  0.16720421  1
  Ni  Ni5  1  -0.00082318  0.33087503  0.33027512  1
  Ni  Ni6  1  0.99770571  0.66605832  0.00075198  1
  Cr  Cr7  1  0.16477962  0.83410526  0.16532807  1
  Fe  Fe8  1  0.99859848  0.66622325  0.33132963  1
  Ni  Ni9  1  0.33361207  0.00178528  -0.00123791  1
  Ni  Ni10  1  0.49816973  0.16348100  0.16553877  1
  Cr  Cr11  1  0.33234616  0.99796818  0.33309541  1
  Ni  Ni12  1  0.33021562  0.32891181  0.99856258  1
  Cr  Cr13  1  0.49898796  0.49751445  0.16942259  1
  Ni  Ni14  1  0.32907816  0.33292836  0.33010734  1
  Cr  Cr15  1  0.33176688  0.66358926  -0.00058122  1
  Ni  Ni16  1  0.50096614  0.83527978  0.16628748  1
  Ni  Ni17  1  0.33095279  0.66473315  0.33346545  1
  Ni  Ni18  1  0.66496183  0.99753455  -0.00001595  1
  Ni  Ni19  1  0.83184788  0.16319875  0.16748879  1
  Ni  Ni20  1  0.66813118  0.99790505  0.33208986  1
  Cr  Cr21  1  0.66393316  0.32935872  0.00059728  1
  Ni  Ni22  1  0.83434761  0.49996746  0.16892241  1
  Ni  Ni23  1  0.66763079  0.32837896  0.33065917  1
  Cr  Cr24  1  0.66649876  0.66877753  0.99857826  1
  Ni  Ni25  1  0.83158499  0.83317274  0.16466841  1
  Ni  Ni26  1  0.66586388  0.66958224  0.33076409  1
  Cr  Cr27  1  0.16482773  0.16569462  0.49824447  1
  Cr  Cr28  1  -0.00127395  0.99850382  0.66253634  1
  Ni  Ni29  1  0.16919164  0.16568684  0.83347180  1
  Ni  Ni30  1  0.16316342  0.50041713  0.49723172  1
  Ni  Ni31  1  0.00161771  0.33350722  0.66500424  1
  Fe  Fe32  1  0.16455484  0.49875671  0.83253056  1
  Ni  Ni33  1  0.16441007  0.82945031  0.49798085  1
  Ni  Ni34  1  -0.00023698  0.66515184  0.66378152  1
  Cr  Cr35  1  0.16325730  0.83601274  0.83335469  1
  Ni  Ni36  1  0.49996479  0.16337126  0.49632966  1
  Ni  Ni37  1  0.33324627  0.99834945  0.66494054  1
  Ni  Ni38  1  0.49444110  0.16199300  0.83407976  1
  Cr  Cr39  1  0.49870606  0.49710414  0.49382863  1
  Cr  Cr40  1  0.33077595  0.33039829  0.66706768  1
  Fe  Fe41  1  0.49682755  0.49757698  0.83336674  1
  Ni  Ni42  1  0.49839444  0.83356369  0.49652243  1
  Cr  Cr43  1  0.33150791  0.66812242  0.66405901  1
  Ni  Ni44  1  0.49780297  0.83726827  0.83346457  1
  Ni  Ni45  1  0.83145886  0.16487118  0.49588754  1
  Cr  Cr46  1  0.66334650  0.99745085  0.66256149  1
  Cr  Cr47  1  0.83411117  0.16256274  0.83204523  1
  Cr  Cr48  1  0.83367377  0.49714178  0.49685507  1
  Cr  Cr49  1  0.66552397  0.32865643  0.66501192  1
  Cr  Cr50  1  0.83442024  0.50056000  0.83039791  1
  Ni  Ni51  1  0.83337082  0.83155996  0.49634369  1
  Cr  Cr52  1  0.66508530  0.66965244  0.66704713  1
  Ni  Ni53  1  0.83259607  0.83107392  0.83429395  1
" 