6914,Ni60Fe40_8,-239.118471821889, 221.02106750911,Ni60Fe40,"# generated using pymatgen
 data_Fe16Ni11
_symmetry_space_group_name_H-M   'P 1'
_cell_length_a   7.39482450
_cell_length_b   7.39482450
_cell_length_c   10.45786111
_cell_angle_alpha   90.00000000
_cell_angle_beta   90.00000000
_cell_angle_gamma   90.00000000
_symmetry_Int_Tables_number   1
_chemical_formula_structural   Fe16Ni11
_chemical_formula_sum   'Fe32 Ni22'
_cell_volume   571.87170999
_cell_formula_units_Z   2
loop_
 _symmetry_equiv_pos_site_id
 _symmetry_equiv_pos_as_xyz
  1  'x, y, z'
loop_
 _atom_site_type_symbol
 _atom_site_label
 _atom_site_symmetry_multiplicity
 _atom_site_fract_x
 _atom_site_fract_y
 _atom_site_fract_z
 _atom_site_occupancy
  Fe  Fe0  1  0.00540929  0.00548527  0.00504278  1
  Fe  Fe1  1  0.17147112  0.17056545  0.17101243  1
  Fe  Fe2  1  0.00520431  1.00461595  0.33854612  1
  Ni  Ni3  1  0.00513613  0.33814551  0.00530644  1
  Fe  Fe4  1  0.17140913  0.50533573  0.17116962  1
  Fe  Fe5  1  0.00525691  0.33835230  0.33761281  1
  Fe  Fe6  1  0.00559422  0.67113090  1.00476144  1
  Ni  Ni7  1  0.17215843  0.83768187  0.17076218  1
  Fe  Fe8  1  0.00568066  0.67168318  0.33787029  1
  Ni  Ni9  1  0.33839794  0.00501993  0.00504722  1
  Fe  Fe10  1  0.50469285  0.17037342  0.17173516  1
  Fe  Fe11  1  0.33833547  1.00461508  0.33727121  1
  Ni  Ni12  1  0.33728095  0.33806572  0.00565534  1
  Fe  Fe13  1  0.50483254  0.50560520  0.17249296  1
  Ni  Ni14  1  0.33804178  0.33896177  0.33734420  1
  Fe  Fe15  1  0.33769697  0.67155860  0.00502923  1
  Ni  Ni16  1  0.50402297  0.83803188  0.17243859  1
  Ni  Ni17  1  0.33874078  0.67079001  0.33753053  1
  Fe  Fe18  1  0.67120222  0.00535159  1.00477710  1
  Ni  Ni19  1  0.83846386  0.17158839  0.17117677  1
  Fe  Fe20  1  0.67111315  0.00503402  0.33859455  1
  Fe  Fe21  1  0.67163130  0.33769198  0.00510708  1
  Fe  Fe22  1  0.83840806  0.50560194  0.17075075  1
  Fe  Fe23  1  0.67070913  0.33827925  0.33860668  1
  Fe  Fe24  1  0.67135973  0.67161022  1.00423680  1
  Ni  Ni25  1  0.83847047  0.83915295  0.17110999  1
  Fe  Fe26  1  0.67071121  0.67133911  0.33852458  1
  Fe  Fe27  1  0.17166863  0.17181980  0.50508220  1
  Ni  Ni28  1  1.00284243  0.00507672  0.67209944  1
  Fe  Fe29  1  0.17129247  0.17182844  0.83856031  1
  Fe  Fe30  1  0.17240913  0.50428317  0.50518610  1
  Fe  Fe31  1  1.00462739  0.33847150  0.67234522  1
  Ni  Ni32  1  0.17164063  0.50401200  0.83813758  1
  Fe  Fe33  1  0.17166611  0.83854780  0.50440495  1
  Fe  Fe34  1  1.00449983  0.67202047  0.67201240  1
  Fe  Fe35  1  0.17129047  0.83756555  0.83847332  1
  Ni  Ni36  1  0.50479013  0.17273234  0.50481226  1
  Fe  Fe37  1  0.33905859  1.00443421  0.67215126  1
  Fe  Fe38  1  0.50479844  0.17161883  0.83790884  1
  Ni  Ni39  1  0.50332702  0.50397351  0.50574542  1
  Ni  Ni40  1  0.33785787  0.33941592  0.67165255  1
  Fe  Fe41  1  0.50495112  0.50579914  0.83730218  1
  Fe  Fe42  1  0.50580006  0.83820391  0.50527225  1
  Ni  Ni43  1  0.33932810  0.67015023  0.67192581  1
  Ni  Ni44  1  0.50497289  0.83868508  0.83740384  1
  Ni  Ni45  1  0.83787899  0.17085259  0.50568449  1
  Ni  Ni46  1  0.67360660  1.00361252  0.67154541  1
  Fe  Fe47  1  0.83855810  0.17143043  0.83810034  1
  Fe  Fe48  1  0.83710073  0.50455298  0.50538212  1
  Fe  Fe49  1  0.67115584  0.33813969  0.67093693  1
  Ni  Ni50  1  0.83949785  0.50478154  0.83758210  1
  Ni  Ni51  1  0.83866682  0.83905157  0.50479281  1
  Ni  Ni52  1  0.67137691  0.67272939  0.67093952  1
  Ni  Ni53  1  0.83760643  0.83824462  0.83874868  1
" 