3215,Ni60Fe6Cr33_14,-226.045090168732, 153.899116397472,Ni60Fe6Cr33,"# generated using pymatgen
 data_Cr19Fe3Ni32
_symmetry_space_group_name_H-M   'P 1'
_cell_length_a   7.48512161
_cell_length_b   7.48512161
_cell_length_c   10.58556050
_cell_angle_alpha   90.00000000
_cell_angle_beta   90.00000000
_cell_angle_gamma   90.00000000
_symmetry_Int_Tables_number   1
_chemical_formula_structural   Cr19Fe3Ni32
_chemical_formula_sum   'Cr19 Fe3 Ni32'
_cell_volume   593.07767955
_cell_formula_units_Z   1
loop_
 _symmetry_equiv_pos_site_id
 _symmetry_equiv_pos_as_xyz
  1  'x, y, z'
loop_
 _atom_site_type_symbol
 _atom_site_label
 _atom_site_symmetry_multiplicity
 _atom_site_fract_x
 _atom_site_fract_y
 _atom_site_fract_z
 _atom_site_occupancy
  Ni  Ni0  1  0.00124965  -0.00114154  0.99672911  1
  Ni  Ni1  1  0.16610193  0.16928900  0.16375528  1
  Cr  Cr2  1  -0.00119915  -0.00086495  0.33229716  1
  Cr  Cr3  1  0.00008792  0.33192558  0.00111614  1
  Ni  Ni4  1  0.16767449  0.49594542  0.16798273  1
  Ni  Ni5  1  -0.00007461  0.33610689  0.33225495  1
  Cr  Cr6  1  0.99836771  0.66634504  0.99804784  1
  Cr  Cr7  1  0.16673724  0.83105469  0.16484719  1
  Ni  Ni8  1  0.00007471  0.66066268  0.33350924  1
  Ni  Ni9  1  0.33084769  -0.00033278  0.99548321  1
  Cr  Cr10  1  0.49639948  0.16557719  0.16443495  1
  Cr  Cr11  1  0.33247166  -0.00113958  0.33382457  1
  Ni  Ni12  1  0.33258453  0.33167263  0.99872038  1
  Ni  Ni13  1  0.49634101  0.50063550  0.16526468  1
  Ni  Ni14  1  0.33086096  0.33596630  0.33224014  1
  Ni  Ni15  1  0.33490296  0.66502152  0.99852619  1
  Cr  Cr16  1  0.50064092  0.82932343  0.16534537  1
  Ni  Ni17  1  0.33073814  0.66074194  0.33291698  1
  Ni  Ni18  1  0.66424488  0.99655088  0.99635958  1
  Cr  Cr19  1  0.83411181  0.16442786  0.16619617  1
  Ni  Ni20  1  0.66546222  -0.00031900  0.33437195  1
  Cr  Cr21  1  0.66366331  0.33545858  0.99819371  1
  Ni  Ni22  1  0.83238251  0.50042322  0.16724494  1
  Cr  Cr23  1  0.66559089  0.33289216  0.33375261  1
  Ni  Ni24  1  0.66341604  0.66505035  0.99632786  1
  Cr  Cr25  1  0.82900440  0.83130548  0.16526381  1
  Ni  Ni26  1  0.66556027  0.66247619  0.33214178  1
  Cr  Cr27  1  0.16517422  0.16783592  0.50075732  1
  Ni  Ni28  1  0.00231969  0.99740837  0.66676754  1
  Ni  Ni29  1  0.16771366  0.16242652  0.83214418  1
  Ni  Ni30  1  0.16472996  0.49921531  0.49691758  1
  Fe  Fe31  1  0.99874667  0.33314134  0.66417528  1
  Cr  Cr32  1  0.16663627  0.49679741  0.83106192  1
  Ni  Ni33  1  0.16467570  0.82962843  0.50010041  1
  Ni  Ni34  1  0.99773753  0.66592686  0.66504764  1
  Ni  Ni35  1  0.16592763  0.83641625  0.83180764  1
  Ni  Ni36  1  0.49875019  0.16706278  0.49914739  1
  Ni  Ni37  1  0.32903657  0.00035067  0.66742762  1
  Fe  Fe38  1  0.49494406  0.16403998  0.83286804  1
  Ni  Ni39  1  0.49785378  0.49791965  0.49745057  1
  Fe  Fe40  1  0.33240693  0.33119352  0.66515622  1
  Ni  Ni41  1  0.49976532  0.50101422  0.83367113  1
  Cr  Cr42  1  0.49878765  0.83093960  0.49617482  1
  Cr  Cr43  1  0.33138621  0.66701378  0.66469511  1
  Ni  Ni44  1  0.49937904  0.83139364  0.83458337  1
  Ni  Ni45  1  0.83211862  0.16698901  0.49792467  1
  Cr  Cr46  1  0.66401546  -0.00066117  0.66493340  1
  Cr  Cr47  1  0.83519539  0.16371731  0.83251037  1
  Ni  Ni48  1  0.83379649  0.49863996  0.49905594  1
  Cr  Cr49  1  0.66456841  0.33482267  0.66440250  1
  Ni  Ni50  1  0.82946267  0.50266116  0.83019101  1
  Cr  Cr51  1  0.83270897  0.83077448  0.49825949  1
  Ni  Ni52  1  0.66770436  0.66206435  0.66791696  1
  Ni  Ni53  1  0.83101923  0.83101755  0.83250764  1
" 