4179,Ni60Fe27Cr12_14,-236.214052817995, 200.682330599555,Ni60Fe27Cr12,"# generated using pymatgen
 data_Cr4Fe7Ni16
_symmetry_space_group_name_H-M   'P 1'
_cell_length_a   7.43037067
_cell_length_b   7.43037067
_cell_length_c   10.50813097
_cell_angle_alpha   90.00000000
_cell_angle_beta   90.00000000
_cell_angle_gamma   90.00000000
_symmetry_Int_Tables_number   1
_chemical_formula_structural   Cr4Fe7Ni16
_chemical_formula_sum   'Cr8 Fe14 Ni32'
_cell_volume   580.15820076
_cell_formula_units_Z   2
loop_
 _symmetry_equiv_pos_site_id
 _symmetry_equiv_pos_as_xyz
  1  'x, y, z'
loop_
 _atom_site_type_symbol
 _atom_site_label
 _atom_site_symmetry_multiplicity
 _atom_site_fract_x
 _atom_site_fract_y
 _atom_site_fract_z
 _atom_site_occupancy
  Ni  Ni0  1  0.00390708  0.00633020  1.00093184  1
  Ni  Ni1  1  0.16806690  0.16879331  0.16983972  1
  Ni  Ni2  1  0.00247190  0.00367276  0.33524281  1
  Ni  Ni3  1  1.00160135  0.33439513  0.00365817  1
  Ni  Ni4  1  0.16848779  0.49925066  0.16859118  1
  Ni  Ni5  1  0.00429865  0.33510056  0.33400642  1
  Fe  Fe6  1  1.00244682  0.66878639  1.00073614  1
  Fe  Fe7  1  0.17077640  0.83652930  0.16901540  1
  Cr  Cr8  1  0.00339755  0.66749956  0.33604011  1
  Ni  Ni9  1  0.33502017  1.00239607  0.00253470  1
  Cr  Cr10  1  0.49956896  0.16802808  0.16904450  1
  Fe  Fe11  1  0.33447583  0.99950985  0.33507520  1
  Fe  Fe12  1  0.33427107  0.33488224  1.00211462  1
  Ni  Ni13  1  0.50308731  0.50392990  0.16919637  1
  Ni  Ni14  1  0.33350897  0.33993899  0.33483917  1
  Cr  Cr15  1  0.33760598  0.66985299  1.00227883  1
  Ni  Ni16  1  0.50305934  0.83491742  0.17062818  1
  Ni  Ni17  1  0.33797917  0.66859460  0.33557770  1
  Fe  Fe18  1  0.66821256  1.00181952  1.00055458  1
  Fe  Fe19  1  0.83731491  0.16957089  0.16889827  1
  Ni  Ni20  1  0.66989863  0.99945240  0.33563856  1
  Fe  Fe21  1  0.66932005  0.33646821  1.00155541  1
  Ni  Ni22  1  0.83600064  0.50297680  0.16778623  1
  Cr  Cr23  1  0.67134461  0.33886126  0.33507582  1
  Ni  Ni24  1  0.66789046  0.66799239  1.00206430  1
  Cr  Cr25  1  0.83516699  0.83430438  0.16761699  1
  Ni  Ni26  1  0.66620632  0.67039419  0.33700966  1
  Cr  Cr27  1  0.17014004  0.16890570  0.50260126  1
  Fe  Fe28  1  0.00301230  0.99887592  0.67041497  1
  Ni  Ni29  1  0.16972298  0.16848211  0.83522712  1
  Fe  Fe30  1  0.17005547  0.50403474  0.50289160  1
  Ni  Ni31  1  1.00231207  0.33702716  0.66967889  1
  Fe  Fe32  1  0.16974124  0.50179597  0.83556262  1
  Ni  Ni33  1  0.16940923  0.83580061  0.50240803  1
  Ni  Ni34  1  0.00308058  0.66702162  0.67072400  1
  Ni  Ni35  1  0.16797578  0.83778537  0.83596928  1
  Cr  Cr36  1  0.50030099  0.16879815  0.50331075  1
  Ni  Ni37  1  0.33702487  0.99979518  0.67038821  1
  Ni  Ni38  1  0.50025226  0.16917663  0.83575756  1
  Ni  Ni39  1  0.50262218  0.50512624  0.50283278  1
  Fe  Fe40  1  0.33625102  0.33813967  0.67077058  1
  Ni  Ni41  1  0.50525286  0.50218585  0.83532729  1
  Ni  Ni42  1  0.50251911  0.83426716  0.50179586  1
  Ni  Ni43  1  0.33636379  0.67066781  0.66906052  1
  Ni  Ni44  1  0.50225650  0.83601186  0.83525406  1
  Cr  Cr45  1  0.83714165  0.16851453  0.50288860  1
  Ni  Ni46  1  0.66764897  1.00106202  0.67118958  1
  Fe  Fe47  1  0.83574043  0.16976608  0.83522392  1
  Ni  Ni48  1  0.83573239  0.50502509  0.50310800  1
  Fe  Fe49  1  0.66916401  0.33827635  0.67044309  1
  Ni  Ni50  1  0.83585888  0.50361449  0.83656542  1
  Ni  Ni51  1  0.83557052  0.83368870  0.50443942  1
  Ni  Ni52  1  0.66816607  0.67020251  0.66828646  1
  Fe  Fe53  1  0.83457168  0.83497876  0.83560349  1
" 