7196,Ni60Fe32Cr6_6,-239.170420496209, 211.175545226411,Ni60Fe32Cr6,"# generated using pymatgen
 data_Cr5Fe17Ni32
_symmetry_space_group_name_H-M   'P 1'
_cell_length_a   7.42873193
_cell_length_b   7.42873193
_cell_length_c   10.50581345
_cell_angle_alpha   90.00000000
_cell_angle_beta   90.00000000
_cell_angle_gamma   90.00000000
_symmetry_Int_Tables_number   1
_chemical_formula_structural   Cr5Fe17Ni32
_chemical_formula_sum   'Cr5 Fe17 Ni32'
_cell_volume   579.77443184
_cell_formula_units_Z   1
loop_
 _symmetry_equiv_pos_site_id
 _symmetry_equiv_pos_as_xyz
  1  'x, y, z'
loop_
 _atom_site_type_symbol
 _atom_site_label
 _atom_site_symmetry_multiplicity
 _atom_site_fract_x
 _atom_site_fract_y
 _atom_site_fract_z
 _atom_site_occupancy
  Ni  Ni0  1  1.00164504  0.00295163  0.00330715  1
  Ni  Ni1  1  0.17060644  0.17222062  0.17004347  1
  Ni  Ni2  1  0.00608707  0.00327852  0.33506487  1
  Ni  Ni3  1  0.00323896  0.33503238  1.00137118  1
  Ni  Ni4  1  0.16924754  0.50215303  0.16826360  1
  Fe  Fe5  1  0.00342833  0.33616859  0.33501841  1
  Fe  Fe6  1  1.00239499  0.66888404  0.00373453  1
  Fe  Fe7  1  0.16771133  0.83644041  0.17049400  1
  Ni  Ni8  1  1.00255632  0.66841310  0.33543945  1
  Cr  Cr9  1  0.33238640  0.00326346  0.00292693  1
  Ni  Ni10  1  0.50237697  0.17016213  0.16771061  1
  Ni  Ni11  1  0.33372351  0.00435636  0.33673171  1
  Ni  Ni12  1  0.33569465  0.33766199  1.00094570  1
  Fe  Fe13  1  0.50194869  0.50193994  0.16761294  1
  Fe  Fe14  1  0.33573631  0.33633411  0.33485679  1
  Ni  Ni15  1  0.33514763  0.66666559  0.00356060  1
  Fe  Fe16  1  0.50189579  0.83510831  0.16934856  1
  Fe  Fe17  1  0.33445524  0.67057285  0.33488859  1
  Ni  Ni18  1  0.67167195  0.00306513  1.00209432  1
  Fe  Fe19  1  0.83819378  0.16895605  0.16780940  1
  Cr  Cr20  1  0.66910537  1.00217028  0.33638758  1
  Ni  Ni21  1  0.66962863  0.33686857  0.00273643  1
  Fe  Fe22  1  0.83659334  0.50121383  0.16929545  1
  Fe  Fe23  1  0.66912706  0.33541623  0.33569408  1
  Ni  Ni24  1  0.66930501  0.66756927  0.00321612  1
  Ni  Ni25  1  0.83489322  0.83385573  0.16813718  1
  Ni  Ni26  1  0.66827767  0.66492214  0.33616793  1
  Ni  Ni27  1  0.16995339  0.17094259  0.50162527  1
  Ni  Ni28  1  0.00669575  0.00402271  0.66933136  1
  Ni  Ni29  1  0.16864259  0.17060988  0.83543335  1
  Ni  Ni30  1  0.16876672  0.50202511  0.50211594  1
  Fe  Fe31  1  1.00240571  0.33660620  0.66999050  1
  Ni  Ni32  1  0.16861922  0.50223055  0.83700692  1
  Ni  Ni33  1  0.17105815  0.83528808  0.50096885  1
  Fe  Fe34  1  0.00283395  0.66751522  0.66942064  1
  Ni  Ni35  1  0.16608887  0.83432121  0.83670363  1
  Ni  Ni36  1  0.50087719  0.16918893  0.50274911  1
  Fe  Fe37  1  0.33586336  0.00275878  0.66821012  1
  Ni  Ni38  1  0.50254555  0.17136273  0.83704593  1
  Fe  Fe39  1  0.50104629  0.50302427  0.50250404  1
  Fe  Fe40  1  0.33416907  0.33612460  0.67049468  1
  Ni  Ni41  1  0.50140315  0.50200621  0.83810917  1
  Ni  Ni42  1  0.50100897  0.83528861  0.50257004  1
  Fe  Fe43  1  0.33398045  0.66886834  0.66997895  1
  Cr  Cr44  1  0.50484806  0.83623309  0.83641489  1
  Ni  Ni45  1  0.83750145  0.17134071  0.50080517  1
  Fe  Fe46  1  0.67088954  0.00385785  0.66952151  1
  Ni  Ni47  1  0.83674982  0.16809116  0.83824385  1
  Ni  Ni48  1  0.83729517  0.50218310  0.49974149  1
  Cr  Cr49  1  0.67007771  0.33798976  0.66956752  1
  Ni  Ni50  1  0.83682496  0.50438591  0.83859469  1
  Cr  Cr51  1  0.83629031  0.83499758  0.50490162  1
  Ni  Ni52  1  0.66815375  0.66708371  0.66875871  1
  Ni  Ni53  1  0.83759335  0.83526857  0.83559420  1
" 