3009,Ni60Fe6Cr33_7,-225.888434754027, 151.787276299501,Ni60Fe6Cr33,"# generated using pymatgen
 data_Cr19Fe3Ni32
_symmetry_space_group_name_H-M   'P 1'
_cell_length_a   7.48642837
_cell_length_b   7.48642837
_cell_length_c   10.58740853
_cell_angle_alpha   90.00000000
_cell_angle_beta   90.00000000
_cell_angle_gamma   90.00000000
_symmetry_Int_Tables_number   1
_chemical_formula_structural   Cr19Fe3Ni32
_chemical_formula_sum   'Cr19 Fe3 Ni32'
_cell_volume   593.38835356
_cell_formula_units_Z   1
loop_
 _symmetry_equiv_pos_site_id
 _symmetry_equiv_pos_as_xyz
  1  'x, y, z'
loop_
 _atom_site_type_symbol
 _atom_site_label
 _atom_site_symmetry_multiplicity
 _atom_site_fract_x
 _atom_site_fract_y
 _atom_site_fract_z
 _atom_site_occupancy
  Ni  Ni0  1  0.99583919  0.00252334  0.99668262  1
  Ni  Ni1  1  0.16447234  0.16963025  0.16418520  1
  Cr  Cr2  1  0.99576195  0.00230164  0.33303634  1
  Fe  Fe3  1  0.99755332  0.33049884  -0.00108139  1
  Cr  Cr4  1  0.16384256  0.49757889  0.16309018  1
  Ni  Ni5  1  0.99821347  0.33196900  0.33081343  1
  Ni  Ni6  1  0.99700108  0.66412403  0.99700535  1
  Cr  Cr7  1  0.16455573  0.83108696  0.16279663  1
  Cr  Cr8  1  0.99469801  0.66123055  0.33621827  1
  Cr  Cr9  1  0.33308464  0.00191610  0.00003227  1
  Ni  Ni10  1  0.50043784  0.16724997  0.16483856  1
  Cr  Cr11  1  0.33411824  0.00019403  0.32868580  1
  Ni  Ni12  1  0.33310866  0.33401529  -0.00120489  1
  Ni  Ni13  1  0.50030786  0.49810879  0.16416440  1
  Ni  Ni14  1  0.33172173  0.33338541  0.33029247  1
  Ni  Ni15  1  0.33526140  0.66140192  0.99680692  1
  Ni  Ni16  1  0.50236687  0.83084791  0.16395385  1
  Cr  Cr17  1  0.33412694  0.66367663  0.33392237  1
  Ni  Ni18  1  0.66808390  0.00022458  -0.00091649  1
  Ni  Ni19  1  0.83101034  0.16715392  0.16341207  1
  Ni  Ni20  1  0.66603522  0.99834380  0.33092842  1
  Ni  Ni21  1  0.66452918  0.33202289  -0.00085199  1
  Ni  Ni22  1  0.82956684  0.49660872  0.16346898  1
  Cr  Cr23  1  0.66791336  0.33282961  0.33080594  1
  Ni  Ni24  1  0.66405973  0.66344475  -0.00096005  1
  Cr  Cr25  1  0.82979295  0.82975181  0.16320015  1
  Ni  Ni26  1  0.66478606  0.66488259  0.33250686  1
  Cr  Cr27  1  0.16565453  0.16770261  0.49939704  1
  Ni  Ni28  1  0.99595777  0.00174870  0.66549973  1
  Ni  Ni29  1  0.16261330  0.16981945  0.83188356  1
  Ni  Ni30  1  0.16458176  0.49569154  0.49906037  1
  Ni  Ni31  1  -0.00105514  0.33095218  0.66603039  1
  Ni  Ni32  1  0.16663112  0.49484461  0.83382460  1
  Ni  Ni33  1  0.16475586  0.83072862  0.49986990  1
  Cr  Cr34  1  0.99710240  0.66485771  0.66324281  1
  Cr  Cr35  1  0.16257931  0.83090845  0.83435014  1
  Cr  Cr36  1  0.50067096  0.16663798  0.49965220  1
  Cr  Cr37  1  0.33042507  0.99763782  0.66736601  1
  Cr  Cr38  1  0.50042136  0.16863300  0.83103325  1
  Fe  Fe39  1  0.49950744  0.49781327  0.49850460  1
  Ni  Ni40  1  0.33008945  0.33519648  0.66657886  1
  Ni  Ni41  1  0.49735730  0.49796265  0.83284834  1
  Ni  Ni42  1  0.50161792  0.83147057  0.49602142  1
  Cr  Cr43  1  0.33350601  0.66315033  0.66566932  1
  Ni  Ni44  1  0.50219002  0.82956247  0.83652979  1
  Ni  Ni45  1  0.83233472  0.16750809  0.50030243  1
  Cr  Cr46  1  0.66885537  0.99753843  0.66690365  1
  Ni  Ni47  1  0.83433176  0.16514425  0.83227239  1
  Ni  Ni48  1  0.83254386  0.49621692  0.49836361  1
  Fe  Fe49  1  0.66828478  0.33303898  0.66614429  1
  Cr  Cr50  1  0.83169109  0.49760996  0.83510924  1
  Ni  Ni51  1  0.82954900  0.83257914  0.49777656  1
  Cr  Cr52  1  0.66488579  0.66422548  0.66502607  1
  Ni  Ni53  1  0.83077056  0.83392089  0.83500994  1
" 