2100,Ni60Fe40_0,-238.918665447587, 217.108990974001,Ni60Fe40,"# generated using pymatgen
 data_Fe16Ni11
_symmetry_space_group_name_H-M   'P 1'
_cell_length_a   7.39361425
_cell_length_b   7.39361425
_cell_length_c   10.45614955
_cell_angle_alpha   90.00000000
_cell_angle_beta   90.00000000
_cell_angle_gamma   90.00000000
_symmetry_Int_Tables_number   1
_chemical_formula_structural   Fe16Ni11
_chemical_formula_sum   'Fe32 Ni22'
_cell_volume   571.59097505
_cell_formula_units_Z   2
loop_
 _symmetry_equiv_pos_site_id
 _symmetry_equiv_pos_as_xyz
  1  'x, y, z'
loop_
 _atom_site_type_symbol
 _atom_site_label
 _atom_site_symmetry_multiplicity
 _atom_site_fract_x
 _atom_site_fract_y
 _atom_site_fract_z
 _atom_site_occupancy
  Ni  Ni0  1  0.00513770  0.00502376  0.00502425  1
  Ni  Ni1  1  0.17126247  0.17174938  0.17172894  1
  Fe  Fe2  1  0.00539136  1.00496177  0.33774215  1
  Fe  Fe3  1  0.00504343  0.33822154  0.00517426  1
  Ni  Ni4  1  0.17173847  0.50533242  0.17226948  1
  Fe  Fe5  1  0.00510776  0.33839168  0.33806618  1
  Fe  Fe6  1  0.00528895  0.67159183  1.00491728  1
  Ni  Ni7  1  0.17221081  0.83781575  0.17140411  1
  Fe  Fe8  1  0.00551727  0.67154347  0.33848492  1
  Fe  Fe9  1  0.33838402  1.00488154  0.00529343  1
  Fe  Fe10  1  0.50392173  0.17151818  0.17188663  1
  Ni  Ni11  1  0.33754975  0.00564592  0.33779983  1
  Ni  Ni12  1  0.33814270  0.33803170  1.00449623  1
  Fe  Fe13  1  0.50450207  0.50501585  0.17131275  1
  Ni  Ni14  1  0.33797741  0.33756430  0.33893927  1
  Fe  Fe15  1  0.33809863  0.67145972  1.00476115  1
  Ni  Ni16  1  0.50461353  0.83824434  0.17172820  1
  Fe  Fe17  1  0.33825914  0.67191496  0.33834030  1
  Fe  Fe18  1  0.67184926  0.00512241  1.00480494  1
  Ni  Ni19  1  0.83811682  0.17174837  0.17206158  1
  Fe  Fe20  1  0.67095515  0.00516593  0.33818056  1
  Fe  Fe21  1  0.67171844  0.33793396  1.00431873  1
  Fe  Fe22  1  0.83852606  0.50533388  0.17213730  1
  Fe  Fe23  1  0.67132898  0.33809948  0.33892230  1
  Ni  Ni24  1  0.67204130  0.67141645  1.00436760  1
  Fe  Fe25  1  0.83868552  0.83837002  0.17114814  1
  Ni  Ni26  1  0.67226688  0.67147668  0.33878531  1
  Fe  Fe27  1  0.17194694  0.17145698  0.50448485  1
  Fe  Fe28  1  0.00503964  1.00475730  0.67206923  1
  Fe  Fe29  1  0.17170295  0.17175179  0.83873903  1
  Fe  Fe30  1  0.17177149  0.50492556  0.50501308  1
  Fe  Fe31  1  0.00507451  0.33850627  0.67166005  1
  Ni  Ni32  1  0.17220261  0.50544919  0.83787268  1
  Ni  Ni33  1  0.17184983  0.83793135  0.50480153  1
  Fe  Fe34  1  0.00533780  0.67163389  0.67149506  1
  Fe  Fe35  1  0.17169804  0.83850388  0.83795500  1
  Ni  Ni36  1  0.50522830  0.17162586  0.50464549  1
  Ni  Ni37  1  0.33772309  1.00476795  0.67213783  1
  Ni  Ni38  1  0.50564193  0.17198583  0.83874066  1
  Fe  Fe39  1  0.50511012  0.50500407  0.50524324  1
  Fe  Fe40  1  0.33882195  0.33833923  0.67195822  1
  Ni  Ni41  1  0.50427079  0.50455084  0.83792489  1
  Fe  Fe42  1  0.50476502  0.83826596  0.50459793  1
  Ni  Ni43  1  0.33836592  0.67205003  0.67146627  1
  Fe  Fe44  1  0.50517470  0.83808979  0.83845685  1
  Fe  Fe45  1  0.83826841  0.17180098  0.50513071  1
  Fe  Fe46  1  0.67111396  0.00530143  0.67191198  1
  Ni  Ni47  1  0.83752201  0.17105154  0.83772420  1
  Ni  Ni48  1  0.83825639  0.50490567  0.50539069  1
  Ni  Ni49  1  0.67205144  0.33872797  0.67180334  1
  Fe  Fe50  1  0.83769893  0.50473637  0.83788480  1
  Fe  Fe51  1  0.83818975  0.83808648  0.50512493  1
  Fe  Fe52  1  0.67128442  0.67155553  0.67170623  1
  Ni  Ni53  1  0.83841739  0.83882691  0.83812932  1
" 