7266,Ni60Fe32Cr6_16,-238.543257886025, 212.639669327783,Ni60Fe32Cr6,"# generated using pymatgen
 data_Cr5Fe17Ni32
_symmetry_space_group_name_H-M   'P 1'
_cell_length_a   7.41971085
_cell_length_b   7.41971085
_cell_length_c   10.49305571
_cell_angle_alpha   90.00000000
_cell_angle_beta   90.00000000
_cell_angle_gamma   90.00000000
_symmetry_Int_Tables_number   1
_chemical_formula_structural   Cr5Fe17Ni32
_chemical_formula_sum   'Cr5 Fe17 Ni32'
_cell_volume   577.66484675
_cell_formula_units_Z   1
loop_
 _symmetry_equiv_pos_site_id
 _symmetry_equiv_pos_as_xyz
  1  'x, y, z'
loop_
 _atom_site_type_symbol
 _atom_site_label
 _atom_site_symmetry_multiplicity
 _atom_site_fract_x
 _atom_site_fract_y
 _atom_site_fract_z
 _atom_site_occupancy
  Fe  Fe0  1  0.00347322  1.00091992  0.00323174  1
  Ni  Ni1  1  0.17124844  0.16773864  0.17171298  1
  Ni  Ni2  1  1.00250124  0.00348664  0.33605868  1
  Cr  Cr3  1  1.00247903  0.33797477  1.00301487  1
  Ni  Ni4  1  0.17070055  0.50440166  0.17090599  1
  Fe  Fe5  1  1.00264138  0.33665298  0.33655812  1
  Ni  Ni6  1  1.00212566  0.67194570  0.00413625  1
  Ni  Ni7  1  0.17066781  0.83742599  0.16883931  1
  Cr  Cr8  1  1.00275383  0.67010697  0.33565644  1
  Fe  Fe9  1  0.33697794  1.00174719  1.00285069  1
  Ni  Ni10  1  0.50140530  0.16917283  0.17040537  1
  Fe  Fe11  1  0.33770915  1.00167396  0.33540224  1
  Cr  Cr12  1  0.33882487  0.33549225  1.00263417  1
  Ni  Ni13  1  0.50392239  0.50493219  0.17037300  1
  Fe  Fe14  1  0.33791607  0.33735543  0.33544482  1
  Fe  Fe15  1  0.33724307  0.67073594  0.00373278  1
  Ni  Ni16  1  0.50251825  0.83546114  0.17051629  1
  Ni  Ni17  1  0.33803164  0.66945448  0.33577174  1
  Fe  Fe18  1  0.66911589  1.00230031  1.00285380  1
  Cr  Cr19  1  0.83656140  0.16945418  0.17114345  1
  Ni  Ni20  1  0.66931166  1.00301368  0.33719267  1
  Ni  Ni21  1  0.66853753  0.33710701  1.00292506  1
  Ni  Ni22  1  0.83494805  0.50551450  0.16987652  1
  Fe  Fe23  1  0.66901109  0.33759732  0.33759298  1
  Ni  Ni24  1  0.67095792  0.67025563  0.00397941  1
  Ni  Ni25  1  0.83638530  0.83491582  0.16838020  1
  Ni  Ni26  1  0.66827444  0.67048672  0.33622191  1
  Cr  Cr27  1  0.16957685  0.16937409  0.50287766  1
  Fe  Fe28  1  1.00310842  0.00337186  0.67005882  1
  Ni  Ni29  1  0.16941124  0.16783476  0.83491870  1
  Fe  Fe30  1  0.17035965  0.50374862  0.50421582  1
  Ni  Ni31  1  1.00196296  0.33772374  0.67061509  1
  Fe  Fe32  1  0.17003439  0.50400982  0.83467384  1
  Fe  Fe33  1  0.17030524  0.83549436  0.50381556  1
  Ni  Ni34  1  0.00363381  0.66941728  0.66969992  1
  Fe  Fe35  1  0.17037872  0.83660154  0.83642731  1
  Ni  Ni36  1  0.50409320  0.17027384  0.50373398  1
  Ni  Ni37  1  0.33794034  1.00295931  0.67042197  1
  Ni  Ni38  1  0.50305296  0.16927219  0.83543013  1
  Ni  Ni39  1  0.50352774  0.50395444  0.50344233  1
  Ni  Ni40  1  0.33773887  0.33640391  0.67098233  1
  Ni  Ni41  1  0.50446830  0.50456118  0.83575661  1
  Fe  Fe42  1  0.50415573  0.83645379  0.50294121  1
  Ni  Ni43  1  0.33553675  0.67020635  0.67015132  1
  Ni  Ni44  1  0.50220751  0.83573111  0.83609852  1
  Ni  Ni45  1  0.83596494  0.16948087  0.50351164  1
  Fe  Fe46  1  0.66933188  0.00412888  0.66930520  1
  Ni  Ni47  1  0.83710679  0.17009645  0.83483056  1
  Ni  Ni48  1  0.83515621  0.50337497  0.50391402  1
  Ni  Ni49  1  0.66986778  0.33531727  0.67017751  1
  Ni  Ni50  1  0.83552429  0.50357381  0.83578446  1
  Ni  Ni51  1  0.83624916  0.83671583  0.50430763  1
  Fe  Fe52  1  0.66941281  0.66846972  0.66983004  1
  Fe  Fe53  1  0.83590671  0.83638255  0.83692271  1
" 