1774,Ni60Fe6Cr33_15,-226.096800774445, 156.220362394837,Ni60Fe6Cr33,"# generated using pymatgen
 data_Cr19Fe3Ni32
_symmetry_space_group_name_H-M   'P 1'
_cell_length_a   7.48497720
_cell_length_b   7.48497720
_cell_length_c   10.58535628
_cell_angle_alpha   90.00000000
_cell_angle_beta   90.00000000
_cell_angle_gamma   90.00000000
_symmetry_Int_Tables_number   1
_chemical_formula_structural   Cr19Fe3Ni32
_chemical_formula_sum   'Cr19 Fe3 Ni32'
_cell_volume   593.04335475
_cell_formula_units_Z   1
loop_
 _symmetry_equiv_pos_site_id
 _symmetry_equiv_pos_as_xyz
  1  'x, y, z'
loop_
 _atom_site_type_symbol
 _atom_site_label
 _atom_site_symmetry_multiplicity
 _atom_site_fract_x
 _atom_site_fract_y
 _atom_site_fract_z
 _atom_site_occupancy
  Cr  Cr0  1  0.99679332  0.99868847  0.00086604  1
  Cr  Cr1  1  0.16889652  0.16787058  0.16826500  1
  Cr  Cr2  1  0.99712576  -0.00018850  0.33223729  1
  Cr  Cr3  1  0.99583175  0.33075912  -0.00086330  1
  Cr  Cr4  1  0.16762831  0.49747849  0.16797700  1
  Ni  Ni5  1  0.99791531  0.33036071  0.33546601  1
  Cr  Cr6  1  0.99754595  0.66743059  0.99876936  1
  Ni  Ni7  1  0.16702762  0.83157015  0.16811667  1
  Cr  Cr8  1  0.99818181  0.66576842  0.33441467  1
  Cr  Cr9  1  0.33512192  -0.00091515  0.99818907  1
  Ni  Ni10  1  0.50222642  0.16686340  0.16686493  1
  Fe  Fe11  1  0.33366173  0.00059540  0.33422603  1
  Ni  Ni12  1  0.33850387  0.33164413  -0.00075641  1
  Fe  Fe13  1  0.49950845  0.49707064  0.16782348  1
  Ni  Ni14  1  0.33553845  0.33256042  0.33435987  1
  Cr  Cr15  1  0.33609142  0.66401495  0.99820738  1
  Cr  Cr16  1  0.50119185  0.83308399  0.17015435  1
  Ni  Ni17  1  0.33337558  0.66274101  0.33384189  1
  Ni  Ni18  1  0.66485876  -0.00019576  -0.00111116  1
  Ni  Ni19  1  0.82706495  0.16494328  0.16654568  1
  Ni  Ni20  1  0.66627171  0.00123911  0.33272875  1
  Fe  Fe21  1  0.66276931  0.33150181  0.99855736  1
  Cr  Cr22  1  0.82872465  0.49848774  0.16686875  1
  Ni  Ni23  1  0.66359415  0.33087532  0.33238884  1
  Ni  Ni24  1  0.66419333  0.66552000  -0.00083918  1
  Ni  Ni25  1  0.82856375  0.83329388  0.16605892  1
  Ni  Ni26  1  0.66373628  0.66444024  0.33303515  1
  Ni  Ni27  1  0.16793656  0.16852415  0.49621878  1
  Cr  Cr28  1  0.99723775  -0.00077368  0.66275474  1
  Cr  Cr29  1  0.16710241  0.16721947  0.83128175  1
  Ni  Ni30  1  0.16725664  0.49795854  0.49909028  1
  Cr  Cr31  1  0.99302580  0.33318264  0.66085297  1
  Cr  Cr32  1  0.16503213  0.49826110  0.82909922  1
  Ni  Ni33  1  0.16683888  0.82979122  0.49906031  1
  Ni  Ni34  1  -0.00028537  0.66531599  0.66237230  1
  Ni  Ni35  1  0.16796701  0.82957694  0.82952771  1
  Ni  Ni36  1  0.50085224  0.16874567  0.49803776  1
  Cr  Cr37  1  0.33566475  0.00002907  0.66492436  1
  Ni  Ni38  1  0.50299246  0.16727447  0.83201259  1
  Ni  Ni39  1  0.49814786  0.49633416  0.49629732  1
  Ni  Ni40  1  0.33642762  0.33461178  0.66319960  1
  Ni  Ni41  1  0.50041940  0.49675707  0.83342277  1
  Cr  Cr42  1  0.50089853  0.83336588  0.49709618  1
  Ni  Ni43  1  0.33166017  0.66311518  0.66566010  1
  Ni  Ni44  1  0.50031793  0.83181661  0.83127864  1
  Ni  Ni45  1  0.82824110  0.16689929  0.49693369  1
  Ni  Ni46  1  0.66583134  0.00245969  0.66501303  1
  Ni  Ni47  1  0.82517213  0.16780252  0.83273348  1
  Ni  Ni48  1  0.83067350  0.49746837  0.49715336  1
  Ni  Ni49  1  0.66191706  0.33009070  0.66562534  1
  Ni  Ni50  1  0.82730538  0.49741334  0.83170892  1
  Ni  Ni51  1  0.83166180  0.83213450  0.49807822  1
  Cr  Cr52  1  0.66362024  0.66058496  0.66313150  1
  Cr  Cr53  1  0.82946565  0.83186188  0.83036657  1
" 