4773,Ni60Fe27Cr12_6,-236.306515199209, 200.791320152542,Ni60Fe27Cr12,"# generated using pymatgen
 data_Cr4Fe7Ni16
_symmetry_space_group_name_H-M   'P 1'
_cell_length_a   7.43936639
_cell_length_b   7.43936639
_cell_length_c   10.52085285
_cell_angle_alpha   90.00000000
_cell_angle_beta   90.00000000
_cell_angle_gamma   90.00000000
_symmetry_Int_Tables_number   1
_chemical_formula_structural   Cr4Fe7Ni16
_chemical_formula_sum   'Cr8 Fe14 Ni32'
_cell_volume   582.26789347
_cell_formula_units_Z   2
loop_
 _symmetry_equiv_pos_site_id
 _symmetry_equiv_pos_as_xyz
  1  'x, y, z'
loop_
 _atom_site_type_symbol
 _atom_site_label
 _atom_site_symmetry_multiplicity
 _atom_site_fract_x
 _atom_site_fract_y
 _atom_site_fract_z
 _atom_site_occupancy
  Ni  Ni0  1  1.00167181  0.00254547  0.00263157  1
  Ni  Ni1  1  0.16804304  0.16884452  0.16772438  1
  Fe  Fe2  1  0.00198196  0.00222259  0.33507737  1
  Ni  Ni3  1  0.00204540  0.33418142  1.00129026  1
  Ni  Ni4  1  0.16851429  0.50100126  0.16843005  1
  Ni  Ni5  1  0.00245945  0.33461928  0.33603198  1
  Ni  Ni6  1  0.00203543  0.66885346  0.00190195  1
  Ni  Ni7  1  0.16646914  0.83573511  0.16794654  1
  Fe  Fe8  1  1.00074755  0.66871877  0.33517166  1
  Ni  Ni9  1  0.33365128  0.00266262  1.00108169  1
  Cr  Cr10  1  0.50215875  0.16968343  0.16817384  1
  Ni  Ni11  1  0.33459996  0.00258455  0.33668026  1
  Ni  Ni12  1  0.33343494  0.33421878  1.00124944  1
  Fe  Fe13  1  0.50207807  0.50072787  0.16889917  1
  Ni  Ni14  1  0.33165483  0.33350350  0.33546678  1
  Cr  Cr15  1  0.33396920  0.66875230  0.00268385  1
  Fe  Fe16  1  0.50236814  0.83715333  0.16967967  1
  Cr  Cr17  1  0.33497129  0.66937764  0.33388977  1
  Ni  Ni18  1  0.67025485  0.00265158  1.00055881  1
  Ni  Ni19  1  0.83531624  0.16743819  0.16817520  1
  Ni  Ni20  1  0.66965039  0.99985703  0.33672751  1
  Ni  Ni21  1  0.67010540  0.33385722  1.00147421  1
  Fe  Fe22  1  0.83738028  0.50089601  0.16953950  1
  Fe  Fe23  1  0.66993395  0.33465810  0.33549386  1
  Cr  Cr24  1  0.66959688  0.66905792  0.00220066  1
  Ni  Ni25  1  0.83600850  0.83625783  0.16899518  1
  Ni  Ni26  1  0.67077369  0.67062450  0.33465200  1
  Ni  Ni27  1  0.17036022  0.16837093  0.50014979  1
  Cr  Cr28  1  1.00157997  0.00256008  0.66774827  1
  Fe  Fe29  1  0.16972281  0.16872080  0.83726203  1
  Ni  Ni30  1  0.16909135  0.50119330  0.50159646  1
  Cr  Cr31  1  0.00193191  0.33482421  0.66849885  1
  Ni  Ni32  1  0.17158514  0.50210305  0.83555537  1
  Ni  Ni33  1  0.16884612  0.83601826  0.50123991  1
  Cr  Cr34  1  1.00183712  0.66819729  0.66789801  1
  Ni  Ni35  1  0.16861608  0.83477425  0.83639553  1
  Fe  Fe36  1  0.50148165  0.16734174  0.50144611  1
  Fe  Fe37  1  0.33636933  1.00146296  0.66814348  1
  Fe  Fe38  1  0.50189107  0.16909046  0.83586433  1
  Cr  Cr39  1  0.50190517  0.50034176  0.50252894  1
  Ni  Ni40  1  0.33621818  0.33535756  0.66886282  1
  Ni  Ni41  1  0.50074544  0.49944878  0.83392085  1
  Fe  Fe42  1  0.50283757  0.83700500  0.50218704  1
  Ni  Ni43  1  0.33691911  0.66902479  0.66912152  1
  Fe  Fe44  1  0.50185765  0.83601759  0.83371632  1
  Ni  Ni45  1  0.83321241  0.16778185  0.49996625  1
  Fe  Fe46  1  0.66765923  0.00190115  0.66852296  1
  Ni  Ni47  1  0.83222282  0.16736302  0.83744349  1
  Ni  Ni48  1  0.83419439  0.50206984  0.50081649  1
  Ni  Ni49  1  0.66741349  0.33505387  0.66858819  1
  Fe  Fe50  1  0.83463509  0.50148320  0.83557475  1
  Ni  Ni51  1  0.83385361  0.83573018  0.50046054  1
  Ni  Ni52  1  0.66672202  0.66934016  0.66900306  1
  Ni  Ni53  1  0.83488091  0.83720421  0.83612605  1
" 