287,Ni60Fe27Cr12_18,-236.148769242966, 198.313636229117,Ni60Fe27Cr12,"# generated using pymatgen
 data_Cr4Fe7Ni16
_symmetry_space_group_name_H-M   'P 1'
_cell_length_a   7.43258773
_cell_length_b   7.43258773
_cell_length_c   10.51126638
_cell_angle_alpha   90.00000000
_cell_angle_beta   90.00000000
_cell_angle_gamma   90.00000000
_symmetry_Int_Tables_number   1
_chemical_formula_structural   Cr4Fe7Ni16
_chemical_formula_sum   'Cr8 Fe14 Ni32'
_cell_volume   580.67767680
_cell_formula_units_Z   2
loop_
 _symmetry_equiv_pos_site_id
 _symmetry_equiv_pos_as_xyz
  1  'x, y, z'
loop_
 _atom_site_type_symbol
 _atom_site_label
 _atom_site_symmetry_multiplicity
 _atom_site_fract_x
 _atom_site_fract_y
 _atom_site_fract_z
 _atom_site_occupancy
  Cr  Cr0  1  1.00226220  0.00329950  0.00273280  1
  Ni  Ni1  1  0.17108991  0.16943086  0.17306368  1
  Fe  Fe2  1  1.00156938  1.00193932  0.33600257  1
  Cr  Cr3  1  1.00209068  0.33634013  1.00164682  1
  Ni  Ni4  1  0.16920831  0.50202653  0.16814416  1
  Ni  Ni5  1  0.00316478  0.33572548  0.33601028  1
  Ni  Ni6  1  0.00282790  0.66779362  0.00350764  1
  Ni  Ni7  1  0.16599474  0.83533912  0.16894630  1
  Fe  Fe8  1  1.00109791  0.66829140  0.33573820  1
  Cr  Cr9  1  0.33542085  1.00114512  1.00173350  1
  Ni  Ni10  1  0.50202330  0.16975227  0.16803496  1
  Fe  Fe11  1  0.33618320  0.00417043  0.33631950  1
  Ni  Ni12  1  0.33532456  0.33601777  0.00480652  1
  Ni  Ni13  1  0.50227939  0.50038741  0.16739006  1
  Fe  Fe14  1  0.33591324  0.33494069  0.33593612  1
  Ni  Ni15  1  0.33562212  0.66866175  0.00256953  1
  Fe  Fe16  1  0.50291148  0.83505319  0.16839668  1
  Cr  Cr17  1  0.33701578  0.66903426  0.33445063  1
  Fe  Fe18  1  0.66820553  1.00189566  0.00345442  1
  Fe  Fe19  1  0.83636950  0.16914200  0.17094686  1
  Ni  Ni20  1  0.66826134  1.00143621  0.33474745  1
  Fe  Fe21  1  0.66873813  0.33677290  0.00303890  1
  Ni  Ni22  1  0.83549698  0.50532807  0.16945131  1
  Cr  Cr23  1  0.66982840  0.33652713  0.33573354  1
  Ni  Ni24  1  0.66831435  0.66888764  0.00550666  1
  Ni  Ni25  1  0.83550031  0.83529618  0.16992156  1
  Fe  Fe26  1  0.67035543  0.66935382  0.33569621  1
  Fe  Fe27  1  0.16923049  0.17014643  0.50195292  1
  Cr  Cr28  1  0.00337353  0.00343402  0.66906230  1
  Ni  Ni29  1  0.17197093  0.17116704  0.83269259  1
  Ni  Ni30  1  0.16964323  0.50208642  0.50351490  1
  Ni  Ni31  1  1.00178625  0.33728986  0.66862941  1
  Ni  Ni32  1  0.16899043  0.50231457  0.83552069  1
  Ni  Ni33  1  0.16728758  0.83512411  0.50318122  1
  Ni  Ni34  1  0.00368501  0.66656211  0.66826032  1
  Ni  Ni35  1  0.17026311  0.83352112  0.83499972  1
  Ni  Ni36  1  0.50251285  0.16935709  0.50403345  1
  Ni  Ni37  1  0.33719889  1.00123275  0.66809864  1
  Fe  Fe38  1  0.50142569  0.16909418  0.83427162  1
  Ni  Ni39  1  0.50145377  0.50046275  0.50395182  1
  Ni  Ni40  1  0.33476408  0.33555619  0.66712279  1
  Cr  Cr41  1  0.50187286  0.50206940  0.83553770  1
  Fe  Fe42  1  0.50265214  0.83655169  0.50372118  1
  Ni  Ni43  1  0.33515939  0.67018333  0.66962112  1
  Ni  Ni44  1  0.50294466  0.83613775  0.83436625  1
  Ni  Ni45  1  0.83416314  0.16715395  0.50264118  1
  Ni  Ni46  1  0.66678801  0.00310993  0.66890635  1
  Fe  Fe47  1  0.83417731  0.17101863  0.83363392  1
  Fe  Fe48  1  0.83703899  0.50187041  0.50338415  1
  Ni  Ni49  1  0.67033797  0.33514340  0.66850020  1
  Ni  Ni50  1  0.83532620  0.50299160  0.83375824  1
  Ni  Ni51  1  0.83549661  0.83618383  0.50166246  1
  Ni  Ni52  1  0.66816956  0.66883470  0.66497448  1
  Cr  Cr53  1  0.83439831  0.83259500  0.83525420  1
" 