1948,Ni60Fe40_3,-239.342301623474, 214.889835833497,Ni60Fe40,"# generated using pymatgen
 data_Fe16Ni11
_symmetry_space_group_name_H-M   'P 1'
_cell_length_a   7.39698630
_cell_length_b   7.39698630
_cell_length_c   10.46091834
_cell_angle_alpha   90.00000000
_cell_angle_beta   90.00000000
_cell_angle_gamma   90.00000000
_symmetry_Int_Tables_number   1
_chemical_formula_structural   Fe16Ni11
_chemical_formula_sum   'Fe32 Ni22'
_cell_volume   572.37339725
_cell_formula_units_Z   2
loop_
 _symmetry_equiv_pos_site_id
 _symmetry_equiv_pos_as_xyz
  1  'x, y, z'
loop_
 _atom_site_type_symbol
 _atom_site_label
 _atom_site_symmetry_multiplicity
 _atom_site_fract_x
 _atom_site_fract_y
 _atom_site_fract_z
 _atom_site_occupancy
  Fe  Fe0  1  0.00496821  1.00467086  1.00388974  1
  Fe  Fe1  1  0.17312423  0.17153971  0.17057128  1
  Fe  Fe2  1  1.00351024  1.00429666  0.33841377  1
  Fe  Fe3  1  0.00503191  0.33813680  1.00459121  1
  Ni  Ni4  1  0.17137609  0.50424048  0.17115128  1
  Fe  Fe5  1  1.00421791  0.33887268  0.33824077  1
  Ni  Ni6  1  0.00512751  0.67170392  1.00411874  1
  Fe  Fe7  1  0.17312552  0.83739231  0.17065465  1
  Fe  Fe8  1  1.00414154  0.67103515  0.33745821  1
  Ni  Ni9  1  0.33750779  1.00471274  1.00435038  1
  Ni  Ni10  1  0.50534425  0.17100588  0.17200058  1
  Fe  Fe11  1  0.34001387  1.00428473  0.33692532  1
  Fe  Fe12  1  0.33805595  0.33811029  1.00452139  1
  Ni  Ni13  1  0.50444762  0.50464459  0.17227260  1
  Fe  Fe14  1  0.33961650  0.33919683  0.33853806  1
  Fe  Fe15  1  0.33842741  0.67141963  0.00499065  1
  Ni  Ni16  1  0.50575081  0.83855708  0.17209010  1
  Ni  Ni17  1  0.33774413  0.67138893  0.33764263  1
  Fe  Fe18  1  0.67110880  1.00429364  0.00543064  1
  Fe  Fe19  1  0.83633940  0.17223914  0.17197402  1
  Ni  Ni20  1  0.67168763  0.00554153  0.33747572  1
  Ni  Ni21  1  0.67157867  0.33778414  1.00412816  1
  Fe  Fe22  1  0.83673960  0.50456221  0.17070491  1
  Ni  Ni23  1  0.67169121  0.33768350  0.33887880  1
  Fe  Fe24  1  0.67113479  0.67147371  1.00402686  1
  Fe  Fe25  1  0.83704886  0.83740628  0.17136167  1
  Ni  Ni26  1  0.67079079  0.67098268  0.33724524  1
  Fe  Fe27  1  0.17189522  0.17259519  0.50574218  1
  Fe  Fe28  1  0.00547882  1.00416024  0.67190226  1
  Ni  Ni29  1  0.17082582  0.17065120  0.83799735  1
  Ni  Ni30  1  0.17202015  0.50435677  0.50556950  1
  Fe  Fe31  1  0.00557731  0.33908088  0.67137428  1
  Fe  Fe32  1  0.17137183  0.50600787  0.83776106  1
  Fe  Fe33  1  0.17220778  0.83672794  0.50517244  1
  Fe  Fe34  1  0.00517081  0.67096791  0.67237944  1
  Ni  Ni35  1  0.17083298  0.83974877  0.83776125  1
  Fe  Fe36  1  0.50452153  0.17259786  0.50390335  1
  Fe  Fe37  1  0.33819913  1.00416094  0.67277402  1
  Fe  Fe38  1  0.50457995  0.17101939  0.83890276  1
  Ni  Ni39  1  0.50433881  0.50476396  0.50364520  1
  Ni  Ni40  1  0.33748547  0.33835764  0.67201195  1
  Ni  Ni41  1  0.50570226  0.50511681  0.83829348  1
  Fe  Fe42  1  0.50443792  0.83649967  0.50442086  1
  Ni  Ni43  1  0.33797353  0.67091608  0.67273722  1
  Ni  Ni44  1  0.50521703  0.83755830  0.83767219  1
  Fe  Fe45  1  0.83779157  0.17236064  0.50403058  1
  Fe  Fe46  1  0.67052790  1.00375163  0.67106759  1
  Fe  Fe47  1  0.83785453  0.17110433  0.83820237  1
  Fe  Fe48  1  0.83756091  0.50479498  0.50503490  1
  Fe  Fe49  1  0.67019675  0.33971835  0.67162646  1
  Ni  Ni50  1  0.83727408  0.50511679  0.83735761  1
  Fe  Fe51  1  0.83756142  0.83705278  0.50494519  1
  Ni  Ni52  1  0.67132072  0.67140733  0.67180387  1
  Ni  Ni53  1  0.83815780  0.83796290  0.83799651  1
" 