7139,Ni60Fe32Cr6_13,-239.141808516707, 214.726199606733,Ni60Fe32Cr6,"# generated using pymatgen
 data_Cr5Fe17Ni32
_symmetry_space_group_name_H-M   'P 1'
_cell_length_a   7.42591124
_cell_length_b   7.42591124
_cell_length_c   10.50182439
_cell_angle_alpha   90.00000000
_cell_angle_beta   90.00000000
_cell_angle_gamma   90.00000000
_symmetry_Int_Tables_number   1
_chemical_formula_structural   Cr5Fe17Ni32
_chemical_formula_sum   'Cr5 Fe17 Ni32'
_cell_volume   579.11426135
_cell_formula_units_Z   1
loop_
 _symmetry_equiv_pos_site_id
 _symmetry_equiv_pos_as_xyz
  1  'x, y, z'
loop_
 _atom_site_type_symbol
 _atom_site_label
 _atom_site_symmetry_multiplicity
 _atom_site_fract_x
 _atom_site_fract_y
 _atom_site_fract_z
 _atom_site_occupancy
  Ni  Ni0  1  0.00295569  1.00250940  1.00222051  1
  Ni  Ni1  1  0.16717543  0.16919865  0.16814606  1
  Ni  Ni2  1  1.00193207  1.00116623  0.33601414  1
  Fe  Fe3  1  0.00362262  0.33338135  1.00167051  1
  Ni  Ni4  1  0.16991093  0.50286241  0.16935794  1
  Ni  Ni5  1  1.00154076  0.33633920  0.33569073  1
  Fe  Fe6  1  1.00101411  0.67196144  1.00256370  1
  Ni  Ni7  1  0.16755171  0.83534031  0.17043358  1
  Ni  Ni8  1  0.00403579  0.67092655  0.33714792  1
  Ni  Ni9  1  0.33514263  1.00154142  1.00247158  1
  Fe  Fe10  1  0.50381089  0.16945709  0.16760230  1
  Cr  Cr11  1  0.33402460  1.00023889  0.33557978  1
  Fe  Fe12  1  0.33652533  0.33259467  1.00206777  1
  Fe  Fe13  1  0.50339089  0.50249608  0.16853660  1
  Cr  Cr14  1  0.33649860  0.33706733  0.33731424  1
  Cr  Cr15  1  0.33429838  0.66989489  0.00312357  1
  Fe  Fe16  1  0.50380104  0.83660648  0.16840798  1
  Ni  Ni17  1  0.33640972  0.66960444  0.33604680  1
  Ni  Ni18  1  0.67061563  0.00539709  1.00225057  1
  Ni  Ni19  1  0.83550103  0.16818372  0.17030841  1
  Fe  Fe20  1  0.66973993  1.00155339  0.33505196  1
  Ni  Ni21  1  0.67087822  0.33614713  1.00138186  1
  Cr  Cr22  1  0.83735681  0.50280727  0.16985198  1
  Ni  Ni23  1  0.66967935  0.33686557  0.33686883  1
  Fe  Fe24  1  0.67047578  0.67244470  1.00071712  1
  Ni  Ni25  1  0.83547000  0.83798149  0.16934457  1
  Fe  Fe26  1  0.66983900  0.67040550  0.33708746  1
  Ni  Ni27  1  0.16968302  0.17013190  0.50455592  1
  Fe  Fe28  1  0.00388707  0.00285645  0.66975728  1
  Ni  Ni29  1  0.16970957  0.16872876  0.83539740  1
  Ni  Ni30  1  0.16854493  0.50385778  0.50282559  1
  Ni  Ni31  1  1.00049585  0.33713244  0.67050005  1
  Ni  Ni32  1  0.16858435  0.50261162  0.83634663  1
  Ni  Ni33  1  0.16932863  0.83427069  0.50287080  1
  Fe  Fe34  1  0.00354771  0.66876242  0.66921287  1
  Ni  Ni35  1  0.16984887  0.83600208  0.83495622  1
  Ni  Ni36  1  0.50383927  0.16836613  0.50484289  1
  Ni  Ni37  1  0.33611312  1.00003895  0.66974684  1
  Ni  Ni38  1  0.50310978  0.16873488  0.83599393  1
  Fe  Fe39  1  0.50294726  0.50397923  0.50487623  1
  Fe  Fe40  1  0.33530752  0.33605513  0.66990172  1
  Ni  Ni41  1  0.50332231  0.50263591  0.83544617  1
  Ni  Ni42  1  0.50377036  0.83560284  0.50248091  1
  Ni  Ni43  1  0.33597226  0.67128343  0.66876571  1
  Ni  Ni44  1  0.50313362  0.83691425  0.83596431  1
  Cr  Cr45  1  0.83646839  0.16867653  0.50081738  1
  Fe  Fe46  1  0.66844699  1.00261779  0.67063621  1
  Ni  Ni47  1  0.83564234  0.17030812  0.83656952  1
  Fe  Fe48  1  0.83688991  0.50397162  0.50323916  1
  Ni  Ni49  1  0.67068657  0.33684324  0.67032430  1
  Ni  Ni50  1  0.83614312  0.50284868  0.83644679  1
  Ni  Ni51  1  0.83529243  0.83450092  0.50294766  1
  Fe  Fe52  1  0.66899247  0.66971294  0.67036339  1
  Fe  Fe53  1  0.83666377  0.83715103  0.83652406  1
" 