7587,Ni60Fe6Cr33_2,-226.045871201908, 154.887551110916,Ni60Fe6Cr33,"# generated using pymatgen
 data_Cr19Fe3Ni32
_symmetry_space_group_name_H-M   'P 1'
_cell_length_a   7.48582609
_cell_length_b   7.48582609
_cell_length_c   10.58655678
_cell_angle_alpha   90.00000000
_cell_angle_beta   90.00000000
_cell_angle_gamma   90.00000000
_symmetry_Int_Tables_number   1
_chemical_formula_structural   Cr19Fe3Ni32
_chemical_formula_sum   'Cr19 Fe3 Ni32'
_cell_volume   593.24515160
_cell_formula_units_Z   1
loop_
 _symmetry_equiv_pos_site_id
 _symmetry_equiv_pos_as_xyz
  1  'x, y, z'
loop_
 _atom_site_type_symbol
 _atom_site_label
 _atom_site_symmetry_multiplicity
 _atom_site_fract_x
 _atom_site_fract_y
 _atom_site_fract_z
 _atom_site_occupancy
  Ni  Ni0  1  0.99816061  0.00306444  0.99822192  1
  Fe  Fe1  1  0.16281821  0.16632363  0.16533887  1
  Ni  Ni2  1  0.00069912  0.00125232  0.33281189  1
  Ni  Ni3  1  -0.00041062  0.33043699  0.99860041  1
  Ni  Ni4  1  0.16408925  0.49617381  0.16468965  1
  Ni  Ni5  1  0.99671476  0.33072587  0.33004789  1
  Cr  Cr6  1  0.99789570  0.66229305  0.99678960  1
  Cr  Cr7  1  0.16546860  0.83390899  0.16748822  1
  Cr  Cr8  1  0.99683112  0.66487089  0.33429836  1
  Cr  Cr9  1  0.33304997  -0.00059176  0.99736235  1
  Cr  Cr10  1  0.49973032  0.16441484  0.16565523  1
  Ni  Ni11  1  0.33137837  0.99663941  0.33446534  1
  Ni  Ni12  1  0.32816880  0.33065408  0.99747622  1
  Cr  Cr13  1  0.49826761  0.50037218  0.16707260  1
  Cr  Cr14  1  0.33089033  0.32973623  0.33201142  1
  Cr  Cr15  1  0.33259114  0.66531507  0.99825392  1
  Ni  Ni16  1  0.49926135  0.83206002  0.16545556  1
  Ni  Ni17  1  0.33377421  0.66947500  0.33210845  1
  Ni  Ni18  1  0.66547041  0.99847706  0.99696042  1
  Ni  Ni19  1  0.83472060  0.16654338  0.16469741  1
  Cr  Cr20  1  0.66392786  0.99744793  0.33341367  1
  Cr  Cr21  1  0.66751353  0.33218796  0.99833107  1
  Ni  Ni22  1  0.83298817  0.49622494  0.16648491  1
  Ni  Ni23  1  0.66903629  0.33321958  0.33282396  1
  Ni  Ni24  1  0.66571885  0.66693277  -0.00023417  1
  Cr  Cr25  1  0.83115175  0.83521076  0.16389242  1
  Ni  Ni26  1  0.66476325  0.66515746  0.33210730  1
  Ni  Ni27  1  0.16694316  0.16142061  0.49569686  1
  Cr  Cr28  1  0.00167422  0.99815507  0.66441230  1
  Ni  Ni29  1  0.16548489  0.16448098  0.83487413  1
  Cr  Cr30  1  0.16514188  0.50060438  0.50000342  1
  Cr  Cr31  1  0.99724226  0.33333591  0.66728300  1
  Ni  Ni32  1  0.16463012  0.49929566  0.83216018  1
  Ni  Ni33  1  0.16669927  0.83381094  0.49892867  1
  Ni  Ni34  1  0.99777496  0.66613713  0.66538381  1
  Ni  Ni35  1  0.16585807  0.83262449  0.82981586  1
  Ni  Ni36  1  0.49818354  0.16302264  0.50023370  1
  Ni  Ni37  1  0.33353816  0.99711051  0.66483788  1
  Ni  Ni38  1  0.49964114  0.16366056  0.83047491  1
  Cr  Cr39  1  0.50058191  0.49862561  0.49805459  1
  Cr  Cr40  1  0.33210619  0.32746067  0.66692999  1
  Cr  Cr41  1  0.49868816  0.49854543  0.83129674  1
  Ni  Ni42  1  0.49754348  0.83233362  0.49959656  1
  Ni  Ni43  1  0.33174188  0.67029701  0.66636728  1
  Fe  Fe44  1  0.49919957  0.83302850  0.83048353  1
  Cr  Cr45  1  0.83143205  0.16621733  0.49822916  1
  Fe  Fe46  1  0.66342412  0.99814710  0.66551139  1
  Ni  Ni47  1  0.83092112  0.16555072  0.83354752  1
  Ni  Ni48  1  0.83009696  0.50021763  0.49886063  1
  Ni  Ni49  1  0.66621849  0.33179752  0.66563453  1
  Ni  Ni50  1  0.83208836  0.49848225  0.83104874  1
  Ni  Ni51  1  0.83188387  0.83033273  0.49915581  1
  Ni  Ni52  1  0.66657268  0.66565499  0.66416118  1
  Cr  Cr53  1  0.83228938  0.83339262  0.83266223  1
" 