2968,Ni60Fe6Cr33_5,-225.575411906499, 149.0977302711,Ni60Fe6Cr33,"# generated using pymatgen
 data_Cr19Fe3Ni32
_symmetry_space_group_name_H-M   'P 1'
_cell_length_a   7.48946474
_cell_length_b   7.48946474
_cell_length_c   10.59170261
_cell_angle_alpha   90.00000000
_cell_angle_beta   90.00000000
_cell_angle_gamma   90.00000000
_symmetry_Int_Tables_number   1
_chemical_formula_structural   Cr19Fe3Ni32
_chemical_formula_sum   'Cr19 Fe3 Ni32'
_cell_volume   594.11065185
_cell_formula_units_Z   1
loop_
 _symmetry_equiv_pos_site_id
 _symmetry_equiv_pos_as_xyz
  1  'x, y, z'
loop_
 _atom_site_type_symbol
 _atom_site_label
 _atom_site_symmetry_multiplicity
 _atom_site_fract_x
 _atom_site_fract_y
 _atom_site_fract_z
 _atom_site_occupancy
  Ni  Ni0  1  0.99692371  0.99704399  -0.00069569  1
  Cr  Cr1  1  0.16582724  0.16295206  0.16707970  1
  Fe  Fe2  1  -0.00074709  0.00009306  0.33150266  1
  Cr  Cr3  1  0.99653957  0.33054685  0.99604286  1
  Cr  Cr4  1  0.16635136  0.50127576  0.16548776  1
  Ni  Ni5  1  -0.00058683  0.32925591  0.33318768  1
  Fe  Fe6  1  0.99825771  0.66692959  -0.00139559  1
  Ni  Ni7  1  0.16454303  0.83167437  0.16495113  1
  Cr  Cr8  1  0.00085134  0.66515873  0.33174247  1
  Cr  Cr9  1  0.33097070  0.99657334  0.99826955  1
  Ni  Ni10  1  0.49983703  0.16487700  0.16779362  1
  Ni  Ni11  1  0.33198565  0.99651764  0.33179676  1
  Cr  Cr12  1  0.33281612  0.33391885  0.99717474  1
  Ni  Ni13  1  0.49768071  0.49865914  0.16604161  1
  Ni  Ni14  1  0.33023962  0.33234413  0.33249357  1
  Ni  Ni15  1  0.33194447  0.66550381  -0.00091153  1
  Fe  Fe16  1  0.49719235  0.83193825  0.16696249  1
  Ni  Ni17  1  0.33195540  0.66669070  0.33248960  1
  Cr  Cr18  1  0.66753616  0.99834282  -0.00048722  1
  Ni  Ni19  1  0.83078649  0.16261360  0.16721500  1
  Ni  Ni20  1  0.66479657  -0.00134785  0.32962898  1
  Cr  Cr21  1  0.66620750  0.33243702  0.00075923  1
  Ni  Ni22  1  0.83100138  0.49916849  0.16487407  1
  Cr  Cr23  1  0.66608290  0.33048414  0.32824605  1
  Cr  Cr24  1  0.66430960  0.66468769  -0.00144743  1
  Ni  Ni25  1  0.83390972  0.83370967  0.16460290  1
  Cr  Cr26  1  0.66191292  0.66642313  0.33099452  1
  Ni  Ni27  1  0.16512603  0.16621742  0.49783187  1
  Cr  Cr28  1  -0.00059575  0.00197793  0.66459145  1
  Ni  Ni29  1  0.16348951  0.16696013  0.82987213  1
  Ni  Ni30  1  0.16808698  0.49578713  0.49728600  1
  Ni  Ni31  1  -0.00086599  0.33052480  0.66594205  1
  Ni  Ni32  1  0.16525775  0.49681582  0.83210148  1
  Ni  Ni33  1  0.16907486  0.83354390  0.49585486  1
  Cr  Cr34  1  0.99824756  0.66278353  0.66610681  1
  Cr  Cr35  1  0.16489639  0.83203054  0.83494044  1
  Cr  Cr36  1  0.49824476  0.16460890  0.49985425  1
  Ni  Ni37  1  0.33293136  -0.00070825  0.66455931  1
  Cr  Cr38  1  0.49814528  0.16513293  0.82834560  1
  Ni  Ni39  1  0.49522780  0.49929216  0.49937451  1
  Ni  Ni40  1  0.32968209  0.33198648  0.66547689  1
  Ni  Ni41  1  0.49860410  0.50010735  0.83016728  1
  Ni  Ni42  1  0.49648679  0.83218999  0.49831458  1
  Cr  Cr43  1  0.33396040  0.66516058  0.66311299  1
  Ni  Ni44  1  0.50051040  0.82995418  0.83011785  1
  Ni  Ni45  1  0.83349595  0.16502273  0.49807482  1
  Ni  Ni46  1  0.66460088  0.99741854  0.66645438  1
  Ni  Ni47  1  0.83329618  0.16501958  0.83018720  1
  Cr  Cr48  1  0.83143288  0.49583668  0.50045647  1
  Ni  Ni49  1  0.66667229  0.33280127  0.66661113  1
  Ni  Ni50  1  0.83156874  0.49876282  0.83031352  1
  Cr  Cr51  1  0.82951831  0.83451005  0.49950685  1
  Ni  Ni52  1  0.66296441  0.66528180  0.66713544  1
  Ni  Ni53  1  0.82999953  0.83169394  0.83219514  1
" 