6320,Ni60Fe40_6,-239.035797611163, 218.915186507275,Ni60Fe40,"# generated using pymatgen
 data_Fe16Ni11
_symmetry_space_group_name_H-M   'P 1'
_cell_length_a   7.39834187
_cell_length_b   7.39834187
_cell_length_c   10.46283541
_cell_angle_alpha   90.00000000
_cell_angle_beta   90.00000000
_cell_angle_gamma   90.00000000
_symmetry_Int_Tables_number   1
_chemical_formula_structural   Fe16Ni11
_chemical_formula_sum   'Fe32 Ni22'
_cell_volume   572.68813448
_cell_formula_units_Z   2
loop_
 _symmetry_equiv_pos_site_id
 _symmetry_equiv_pos_as_xyz
  1  'x, y, z'
loop_
 _atom_site_type_symbol
 _atom_site_label
 _atom_site_symmetry_multiplicity
 _atom_site_fract_x
 _atom_site_fract_y
 _atom_site_fract_z
 _atom_site_occupancy
  Fe  Fe0  1  0.00500797  1.00355225  1.00400507  1
  Fe  Fe1  1  0.17053588  0.17131063  0.17160109  1
  Fe  Fe2  1  1.00422284  0.00582541  0.33859572  1
  Fe  Fe3  1  0.00484623  0.33968757  0.00582906  1
  Fe  Fe4  1  0.17013888  0.50422127  0.17159366  1
  Ni  Ni5  1  0.00518578  0.33844660  0.33806342  1
  Ni  Ni6  1  1.00367096  0.67184790  0.00506439  1
  Fe  Fe7  1  0.17003547  0.83802892  0.17087998  1
  Ni  Ni8  1  1.00301308  0.67223228  0.33733001  1
  Fe  Fe9  1  0.33811782  1.00259237  1.00303784  1
  Fe  Fe10  1  0.50535537  0.17079528  0.17059648  1
  Fe  Fe11  1  0.33686743  1.00399060  0.33928465  1
  Ni  Ni12  1  0.33794955  0.33635094  0.00522039  1
  Fe  Fe13  1  0.50551081  0.50415298  0.17006285  1
  Ni  Ni14  1  0.33907415  0.33620118  0.33854256  1
  Ni  Ni15  1  0.33816977  0.67020884  0.00538286  1
  Fe  Fe16  1  0.50631978  0.83836661  0.17197960  1
  Fe  Fe17  1  0.33676264  0.66973895  0.33739456  1
  Fe  Fe18  1  0.67093616  1.00396892  1.00454422  1
  Ni  Ni19  1  0.83791020  0.17176603  0.17029024  1
  Fe  Fe20  1  0.67288871  0.00523337  0.33885861  1
  Fe  Fe21  1  0.67106546  0.33999346  1.00350475  1
  Fe  Fe22  1  0.83838907  0.50537557  0.17140082  1
  Fe  Fe23  1  0.67282943  0.33797715  0.33876033  1
  Ni  Ni24  1  0.67199519  0.67246430  0.00475774  1
  Ni  Ni25  1  0.83883866  0.83919234  0.17185912  1
  Fe  Fe26  1  0.67154809  0.67095156  0.33825648  1
  Fe  Fe27  1  0.17090181  0.16944011  0.50440511  1
  Ni  Ni28  1  0.00548897  1.00330845  0.67062625  1
  Fe  Fe29  1  0.17284774  0.17101164  0.83775138  1
  Fe  Fe30  1  0.16994089  0.50565134  0.50354484  1
  Fe  Fe31  1  1.00281250  0.33697461  0.67010836  1
  Fe  Fe32  1  0.17204605  0.50488448  0.83897938  1
  Ni  Ni33  1  0.17130065  0.83638636  0.50376417  1
  Ni  Ni34  1  1.00459608  0.67183348  0.67138046  1
  Ni  Ni35  1  0.17009135  0.83680511  0.83817999  1
  Fe  Fe36  1  0.50496425  0.16890560  0.50562078  1
  Ni  Ni37  1  0.33760663  0.00593729  0.67161937  1
  Ni  Ni38  1  0.50581045  0.17306977  0.83827280  1
  Fe  Fe39  1  0.50527473  0.50534537  0.50541838  1
  Fe  Fe40  1  0.33839468  0.33812496  0.67162044  1
  Ni  Ni41  1  0.50455195  0.50442661  0.83791477  1
  Ni  Ni42  1  0.50407907  0.83669224  0.50547778  1
  Fe  Fe43  1  0.33831293  0.67337320  0.67221849  1
  Fe  Fe44  1  0.50411151  0.83765698  0.83716211  1
  Ni  Ni45  1  0.83790676  0.17209377  0.50497677  1
  Ni  Ni46  1  0.67086000  0.00468306  0.67160501  1
  Fe  Fe47  1  0.83769621  0.17108095  0.83697393  1
  Fe  Fe48  1  0.83850219  0.50663401  0.50488359  1
  Ni  Ni49  1  0.67026771  0.33799199  0.67048873  1
  Fe  Fe50  1  0.83727644  0.50552807  0.83745670  1
  Ni  Ni51  1  0.83832367  0.83947351  0.50483446  1
  Ni  Ni52  1  0.67257515  0.67140407  0.67117703  1
  Fe  Fe53  1  0.83701352  0.83754897  0.83758170  1
" 