298,Ni60Fe27Cr12_17,-236.084381229124, 203.961089661407,Ni60Fe27Cr12,"# generated using pymatgen
 data_Cr4Fe7Ni16
_symmetry_space_group_name_H-M   'P 1'
_cell_length_a   7.43917770
_cell_length_b   7.43917770
_cell_length_c   10.52058600
_cell_angle_alpha   90.00000000
_cell_angle_beta   90.00000000
_cell_angle_gamma   90.00000000
_symmetry_Int_Tables_number   1
_chemical_formula_structural   Cr4Fe7Ni16
_chemical_formula_sum   'Cr8 Fe14 Ni32'
_cell_volume   582.22358796
_cell_formula_units_Z   2
loop_
 _symmetry_equiv_pos_site_id
 _symmetry_equiv_pos_as_xyz
  1  'x, y, z'
loop_
 _atom_site_type_symbol
 _atom_site_label
 _atom_site_symmetry_multiplicity
 _atom_site_fract_x
 _atom_site_fract_y
 _atom_site_fract_z
 _atom_site_occupancy
  Ni  Ni0  1  0.00293427  0.00247755  1.00165209  1
  Fe  Fe1  1  0.16765288  0.17005685  0.16684064  1
  Cr  Cr2  1  0.00216784  0.00265407  0.33620096  1
  Ni  Ni3  1  1.00077017  0.33405353  0.00206426  1
  Ni  Ni4  1  0.17074301  0.50236424  0.16970439  1
  Ni  Ni5  1  1.00148803  0.33652483  0.33563544  1
  Ni  Ni6  1  0.00193519  0.66909007  0.00217137  1
  Ni  Ni7  1  0.16767229  0.83315703  0.16629877  1
  Fe  Fe8  1  0.00226828  0.66623699  0.33570017  1
  Ni  Ni9  1  0.33431767  1.00085414  0.00200973  1
  Fe  Fe10  1  0.50185509  0.17051329  0.16674712  1
  Cr  Cr11  1  0.33466208  1.00077677  0.33623406  1
  Fe  Fe12  1  0.33489295  0.33645191  1.00146713  1
  Ni  Ni13  1  0.50023449  0.50096695  0.16852863  1
  Ni  Ni14  1  0.33371797  0.33667933  0.33430575  1
  Ni  Ni15  1  0.33572011  0.67031266  1.00172454  1
  Fe  Fe16  1  0.50148199  0.83238814  0.16647074  1
  Ni  Ni17  1  0.33499451  0.66772525  0.33459944  1
  Fe  Fe18  1  0.66943453  1.00115164  1.00154455  1
  Ni  Ni19  1  0.83469100  0.16847202  0.16670080  1
  Cr  Cr20  1  0.66878690  1.00110817  0.33550500  1
  Ni  Ni21  1  0.66958916  0.33545524  1.00178823  1
  Fe  Fe22  1  0.83530438  0.50199152  0.16882359  1
  Ni  Ni23  1  0.67041121  0.33680294  0.33516523  1
  Ni  Ni24  1  0.66796466  0.66814636  1.00172014  1
  Ni  Ni25  1  0.83608758  0.83600585  0.16740317  1
  Ni  Ni26  1  0.66873701  0.66719635  0.33465427  1
  Fe  Fe27  1  0.16811064  0.17151545  0.50087924  1
  Cr  Cr28  1  0.00216746  1.00041307  0.66812234  1
  Fe  Fe29  1  0.17041824  0.16916443  0.83790013  1
  Ni  Ni30  1  0.16892678  0.50315150  0.50078681  1
  Cr  Cr31  1  1.00119900  0.33715068  0.66824885  1
  Ni  Ni32  1  0.17084160  0.50249318  0.83512865  1
  Ni  Ni33  1  0.16748552  0.83209394  0.50276761  1
  Ni  Ni34  1  1.00182928  0.66831916  0.66768784  1
  Fe  Fe35  1  0.16964710  0.83292088  0.83716446  1
  Fe  Fe36  1  0.50235480  0.17095434  0.50245263  1
  Cr  Cr37  1  0.33513239  1.00106073  0.66710424  1
  Ni  Ni38  1  0.50220985  0.17094809  0.83621295  1
  Cr  Cr39  1  0.50070816  0.50074402  0.50320028  1
  Ni  Ni40  1  0.33630735  0.33639113  0.66952963  1
  Ni  Ni41  1  0.50023641  0.50073956  0.83431704  1
  Fe  Fe42  1  0.50232673  0.83229613  0.50232067  1
  Ni  Ni43  1  0.33478763  0.66791529  0.66929728  1
  Ni  Ni44  1  0.50273326  0.83393392  0.83654423  1
  Ni  Ni45  1  0.83387534  0.16949642  0.50153792  1
  Cr  Cr46  1  0.66832144  1.00149227  0.66783469  1
  Fe  Fe47  1  0.83344291  0.16981074  0.83795593  1
  Ni  Ni48  1  0.83587655  0.50200057  0.50078616  1
  Ni  Ni49  1  0.66776247  0.33657844  0.66866643  1
  Fe  Fe50  1  0.83306754  0.50335496  0.83558393  1
  Ni  Ni51  1  0.83644317  0.83412227  0.50195914  1
  Ni  Ni52  1  0.66900404  0.66744583  0.66924510  1
  Ni  Ni53  1  0.83542106  0.83503126  0.83625760  1
" 