7058,Ni60Fe40_5,-239.117260307799, 218.342753923668,Ni60Fe40,"# generated using pymatgen
 data_Fe16Ni11
_symmetry_space_group_name_H-M   'P 1'
_cell_length_a   7.39497712
_cell_length_b   7.39497712
_cell_length_c   10.45807693
_cell_angle_alpha   90.00000000
_cell_angle_beta   90.00000000
_cell_angle_gamma   90.00000000
_symmetry_Int_Tables_number   1
_chemical_formula_structural   Fe16Ni11
_chemical_formula_sum   'Fe32 Ni22'
_cell_volume   571.90711748
_cell_formula_units_Z   2
loop_
 _symmetry_equiv_pos_site_id
 _symmetry_equiv_pos_as_xyz
  1  'x, y, z'
loop_
 _atom_site_type_symbol
 _atom_site_label
 _atom_site_symmetry_multiplicity
 _atom_site_fract_x
 _atom_site_fract_y
 _atom_site_fract_z
 _atom_site_occupancy
  Fe  Fe0  1  0.00546604  0.00487542  0.00579217  1
  Ni  Ni1  1  0.17153087  0.17162416  0.17239401  1
  Ni  Ni2  1  1.00441025  1.00479887  0.33762728  1
  Ni  Ni3  1  0.00560525  0.33962414  0.00596960  1
  Ni  Ni4  1  0.17192170  0.50451497  0.17126056  1
  Fe  Fe5  1  1.00460222  0.33791517  0.33815690  1
  Ni  Ni6  1  1.00447067  0.66984270  1.00419324  1
  Fe  Fe7  1  0.17159521  0.83819918  0.17145591  1
  Ni  Ni8  1  1.00402814  0.67132462  0.33860095  1
  Ni  Ni9  1  0.33946086  0.00552286  0.00538265  1
  Ni  Ni10  1  0.50395388  0.17202162  0.17153273  1
  Fe  Fe11  1  0.33825906  0.00494721  0.33750081  1
  Fe  Fe12  1  0.33749938  0.33840591  0.00624876  1
  Ni  Ni13  1  0.50394651  0.50450396  0.17124103  1
  Ni  Ni14  1  0.33791149  0.33771866  0.33774799  1
  Fe  Fe15  1  0.33762997  0.67113018  1.00454313  1
  Fe  Fe16  1  0.50460972  0.83857981  0.17100826  1
  Fe  Fe17  1  0.33833768  0.67129952  0.33824087  1
  Fe  Fe18  1  0.67189883  1.00474213  0.00500321  1
  Fe  Fe19  1  0.83841274  0.17181067  0.17216650  1
  Ni  Ni20  1  0.67114473  1.00404490  0.33790088  1
  Fe  Fe21  1  0.67154186  0.33863055  1.00470656  1
  Fe  Fe22  1  0.83878931  0.50490386  0.17072043  1
  Fe  Fe23  1  0.67121451  0.33799569  0.33850049  1
  Fe  Fe24  1  0.67175109  0.67124811  1.00441629  1
  Ni  Ni25  1  0.83914729  0.83848587  0.17122816  1
  Ni  Ni26  1  0.67191543  0.67247214  0.33790874  1
  Fe  Fe27  1  0.17182773  0.17232756  0.50440750  1
  Fe  Fe28  1  1.00381901  0.00509649  0.67066969  1
  Fe  Fe29  1  0.17182165  0.17225145  0.83891579  1
  Fe  Fe30  1  0.17175246  0.50358828  0.50424391  1
  Ni  Ni31  1  0.00602218  0.33868783  0.67102011  1
  Fe  Fe32  1  0.17115396  0.50514829  0.83882726  1
  Fe  Fe33  1  0.17161082  0.83870172  0.50461259  1
  Fe  Fe34  1  1.00390136  0.67148146  0.67183182  1
  Fe  Fe35  1  0.17220918  0.83722075  0.83855022  1
  Ni  Ni36  1  0.50554360  0.17201454  0.50554861  1
  Fe  Fe37  1  0.33888509  1.00471209  0.67236772  1
  Fe  Fe38  1  0.50528566  0.17128438  0.83829010  1
  Ni  Ni39  1  0.50469227  0.50470946  0.50534118  1
  Fe  Fe40  1  0.33940836  0.33850077  0.67059047  1
  Ni  Ni41  1  0.50533411  0.50568504  0.83803528  1
  Fe  Fe42  1  0.50621691  0.83878303  0.50577675  1
  Fe  Fe43  1  0.33926360  0.67140847  0.67183348  1
  Ni  Ni44  1  0.50485603  0.83765647  0.83804193  1
  Ni  Ni45  1  0.83838793  0.17040210  0.50446711  1
  Ni  Ni46  1  0.67030890  1.00363762  0.67193494  1
  Fe  Fe47  1  0.83751748  0.17234531  0.83725152  1
  Fe  Fe48  1  0.83744493  0.50438005  0.50569898  1
  Fe  Fe49  1  0.67184453  0.33842021  0.67141130  1
  Ni  Ni50  1  0.83820532  0.50521130  0.83791113  1
  Fe  Fe51  1  0.83678567  0.83870923  0.50370864  1
  Ni  Ni52  1  0.67107620  0.67267791  0.67191111  1
  Fe  Fe53  1  0.83690890  0.83691379  0.83849130  1
" 