3937,Ni60Fe6Cr33_19,-225.816908754281, 147.771562433628,Ni60Fe6Cr33,"# generated using pymatgen
 data_Cr19Fe3Ni32
_symmetry_space_group_name_H-M   'P 1'
_cell_length_a   7.48542297
_cell_length_b   7.48542297
_cell_length_c   10.58598669
_cell_angle_alpha   90.00000000
_cell_angle_beta   90.00000000
_cell_angle_gamma   90.00000000
_symmetry_Int_Tables_number   1
_chemical_formula_structural   Cr19Fe3Ni32
_chemical_formula_sum   'Cr19 Fe3 Ni32'
_cell_volume   593.14931734
_cell_formula_units_Z   1
loop_
 _symmetry_equiv_pos_site_id
 _symmetry_equiv_pos_as_xyz
  1  'x, y, z'
loop_
 _atom_site_type_symbol
 _atom_site_label
 _atom_site_symmetry_multiplicity
 _atom_site_fract_x
 _atom_site_fract_y
 _atom_site_fract_z
 _atom_site_occupancy
  Ni  Ni0  1  0.00025770  0.00071299  0.99849126  1
  Ni  Ni1  1  0.16210025  0.16535713  0.16522372  1
  Ni  Ni2  1  0.99713848  0.99693950  0.32973992  1
  Ni  Ni3  1  0.99765704  0.33153638  0.99857510  1
  Ni  Ni4  1  0.16574513  0.50060007  0.16628994  1
  Cr  Cr5  1  -0.00118213  0.33334945  0.32870427  1
  Cr  Cr6  1  -0.00080645  0.66405654  0.99827093  1
  Ni  Ni7  1  0.16528359  0.83040318  0.16645016  1
  Ni  Ni8  1  0.99735437  0.66576256  0.33255686  1
  Cr  Cr9  1  0.32851958  0.99575782  -0.00100950  1
  Cr  Cr10  1  0.50256229  0.16764319  0.16732540  1
  Cr  Cr11  1  0.33133818  0.99766708  0.33061822  1
  Cr  Cr12  1  0.32838682  0.33460954  -0.00078785  1
  Ni  Ni13  1  0.50013920  0.50151621  0.16585216  1
  Ni  Ni14  1  0.33314945  0.33589278  0.33095117  1
  Fe  Fe15  1  0.33205957  0.66499459  -0.00063870  1
  Ni  Ni16  1  0.49844264  0.82736888  0.16607916  1
  Ni  Ni17  1  0.33374833  0.66401146  0.32922398  1
  Cr  Cr18  1  0.66796864  0.99668396  0.99788530  1
  Ni  Ni19  1  0.83355749  0.16694003  0.16468907  1
  Ni  Ni20  1  0.66711510  0.99600322  0.33250137  1
  Ni  Ni21  1  0.66899299  0.33638567  0.99871745  1
  Ni  Ni22  1  0.83044103  0.49796936  0.16549962  1
  Ni  Ni23  1  0.66545506  0.33574625  0.33125858  1
  Ni  Ni24  1  0.66363714  0.66275278  0.99776354  1
  Cr  Cr25  1  0.83190405  0.83094566  0.16696811  1
  Ni  Ni26  1  0.66503305  0.66467607  0.33328761  1
  Cr  Cr27  1  0.16456850  0.16469040  0.50051255  1
  Ni  Ni28  1  -0.00101866  0.99812428  0.66849236  1
  Ni  Ni29  1  0.16067550  0.16430349  0.83082402  1
  Cr  Cr30  1  0.16423477  0.50046319  0.49828701  1
  Ni  Ni31  1  0.99802725  0.33272331  0.66860251  1
  Ni  Ni32  1  0.16297352  0.49958368  0.83177788  1
  Cr  Cr33  1  0.16326148  0.83123629  0.49846495  1
  Fe  Fe34  1  0.99758103  0.66537703  0.66664940  1
  Ni  Ni35  1  0.16478374  0.83248449  0.83131412  1
  Cr  Cr36  1  0.49867852  0.16598042  0.49747481  1
  Ni  Ni37  1  0.32983690  0.99599911  0.66714996  1
  Cr  Cr38  1  0.49978664  0.16605846  0.83131863  1
  Ni  Ni39  1  0.50033419  0.50122889  0.49493798  1
  Cr  Cr40  1  0.33049831  0.33320393  0.66606706  1
  Ni  Ni41  1  0.50003005  0.50207523  0.83522063  1
  Ni  Ni42  1  0.49969840  0.83005582  0.49677224  1
  Cr  Cr43  1  0.33452809  0.66606198  0.66734372  1
  Ni  Ni44  1  0.49695289  0.82917422  0.83341040  1
  Cr  Cr45  1  0.83305750  0.16491430  0.49720258  1
  Cr  Cr46  1  0.66590123  0.99450370  0.66581243  1
  Ni  Ni47  1  0.83646541  0.16703044  0.83373436  1
  Ni  Ni48  1  0.83164707  0.50147505  0.49796889  1
  Cr  Cr49  1  0.66830050  0.33625936  0.66564723  1
  Ni  Ni50  1  0.83316171  0.49758732  0.83272796  1
  Ni  Ni51  1  0.83252321  0.83033861  0.49794504  1
  Cr  Cr52  1  0.66697444  0.66527114  0.66506852  1
  Fe  Fe53  1  0.83425908  0.83123337  0.83250579  1
" 