1215,Ni60Fe40_18,-239.327862351768, 216.865709178997,Ni60Fe40,"# generated using pymatgen
 data_Fe16Ni11
_symmetry_space_group_name_H-M   'P 1'
_cell_length_a   7.39808024
_cell_length_b   7.39808024
_cell_length_c   10.46246541
_cell_angle_alpha   90.00000000
_cell_angle_beta   90.00000000
_cell_angle_gamma   90.00000000
_symmetry_Int_Tables_number   1
_chemical_formula_structural   Fe16Ni11
_chemical_formula_sum   'Fe32 Ni22'
_cell_volume   572.62737985
_cell_formula_units_Z   2
loop_
 _symmetry_equiv_pos_site_id
 _symmetry_equiv_pos_as_xyz
  1  'x, y, z'
loop_
 _atom_site_type_symbol
 _atom_site_label
 _atom_site_symmetry_multiplicity
 _atom_site_fract_x
 _atom_site_fract_y
 _atom_site_fract_z
 _atom_site_occupancy
  Ni  Ni0  1  1.00334490  1.00389524  1.00451210  1
  Ni  Ni1  1  0.17183852  0.17142154  0.17099701  1
  Ni  Ni2  1  0.00488569  0.00532162  0.33825718  1
  Fe  Fe3  1  1.00416645  0.33645775  0.00525127  1
  Fe  Fe4  1  0.17091982  0.50374032  0.17172994  1
  Ni  Ni5  1  1.00430500  0.33790812  0.33832373  1
  Ni  Ni6  1  1.00435740  0.67174981  0.00557817  1
  Fe  Fe7  1  0.17115891  0.83943712  0.17123440  1
  Fe  Fe8  1  0.00473327  0.67192331  0.33870089  1
  Fe  Fe9  1  0.33740065  0.00501679  0.00515656  1
  Ni  Ni10  1  0.50344547  0.17244040  0.17137295  1
  Ni  Ni11  1  0.33822485  0.00518922  0.33776256  1
  Fe  Fe12  1  0.33775419  0.33691646  1.00414016  1
  Ni  Ni13  1  0.50344056  0.50490195  0.17144175  1
  Fe  Fe14  1  0.33662643  0.33672363  0.33823284  1
  Fe  Fe15  1  0.33782880  0.67206151  0.00501282  1
  Fe  Fe16  1  0.50499616  0.83950957  0.17151821  1
  Fe  Fe17  1  0.33709503  0.67132757  0.33789975  1
  Ni  Ni18  1  0.67140697  0.00535686  0.00532844  1
  Ni  Ni19  1  0.83869684  0.16908659  0.17100039  1
  Fe  Fe20  1  0.67260627  0.00532082  0.33724044  1
  Fe  Fe21  1  0.67205969  0.33688783  0.00492269  1
  Fe  Fe22  1  0.83780000  0.50347622  0.17192139  1
  Fe  Fe23  1  0.67201126  0.33674253  0.33764103  1
  Fe  Fe24  1  0.67260265  0.67269704  0.00501635  1
  Ni  Ni25  1  0.83825010  0.83810389  0.17144839  1
  Fe  Fe26  1  0.67215205  0.67191951  0.33808594  1
  Ni  Ni27  1  0.17180915  0.17253702  0.50487563  1
  Fe  Fe28  1  0.00473400  0.00515315  0.67142238  1
  Ni  Ni29  1  0.17221098  0.17190733  0.83810526  1
  Ni  Ni30  1  0.17225158  0.50408918  0.50442937  1
  Fe  Fe31  1  0.00537590  0.33818235  0.67002701  1
  Fe  Fe32  1  0.17056834  0.50400255  0.83704739  1
  Fe  Fe33  1  0.16955340  0.83807166  0.50440168  1
  Ni  Ni34  1  1.00387335  0.67135842  0.67039974  1
  Fe  Fe35  1  0.17011657  0.83924404  0.83834736  1
  Fe  Fe36  1  0.50474252  0.17182108  0.50494500  1
  Fe  Fe37  1  0.33733245  0.00536811  0.67099372  1
  Ni  Ni38  1  0.50344775  0.17190415  0.83830109  1
  Fe  Fe39  1  0.50509333  0.50399832  0.50441789  1
  Ni  Ni40  1  0.33887715  0.33763186  0.67033170  1
  Fe  Fe41  1  0.50489878  0.50320080  0.83832865  1
  Fe  Fe42  1  0.50482573  0.83816223  0.50440186  1
  Fe  Fe43  1  0.33740396  0.67036023  0.67106951  1
  Fe  Fe44  1  0.50534568  0.84005187  0.83806526  1
  Ni  Ni45  1  0.83897329  0.17021421  0.50487897  1
  Fe  Fe46  1  0.67191607  0.00472979  0.67236820  1
  Ni  Ni47  1  0.83832496  0.16956006  0.83810732  1
  Ni  Ni48  1  0.83852583  0.50641145  0.50455428  1
  Fe  Fe49  1  0.67164082  0.33825129  0.67142248  1
  Fe  Fe50  1  0.83851851  0.50409165  0.83731027  1
  Ni  Ni51  1  0.83750815  0.83736196  0.50474925  1
  Fe  Fe52  1  0.67183912  0.67099883  0.67088188  1
  Ni  Ni53  1  0.83788770  0.83750619  0.83779253  1
" 