3413,Ni60Fe32Cr6_9,-238.341611124924, 211.034511263245,Ni60Fe32Cr6,"# generated using pymatgen
 data_Cr5Fe17Ni32
_symmetry_space_group_name_H-M   'P 1'
_cell_length_a   7.42343601
_cell_length_b   7.42343601
_cell_length_c   10.49832389
_cell_angle_alpha   90.00000000
_cell_angle_beta   90.00000000
_cell_angle_gamma   90.00000000
_symmetry_Int_Tables_number   1
_chemical_formula_structural   Cr5Fe17Ni32
_chemical_formula_sum   'Cr5 Fe17 Ni32'
_cell_volume   578.53535723
_cell_formula_units_Z   1
loop_
 _symmetry_equiv_pos_site_id
 _symmetry_equiv_pos_as_xyz
  1  'x, y, z'
loop_
 _atom_site_type_symbol
 _atom_site_label
 _atom_site_symmetry_multiplicity
 _atom_site_fract_x
 _atom_site_fract_y
 _atom_site_fract_z
 _atom_site_occupancy
  Fe  Fe0  1  1.00275723  0.00301264  1.00285631  1
  Ni  Ni1  1  0.17067571  0.16845764  0.17013687  1
  Ni  Ni2  1  1.00185586  0.00372509  0.33514216  1
  Fe  Fe3  1  1.00107728  0.33510670  1.00263492  1
  Cr  Cr4  1  0.16764339  0.50167999  0.16972962  1
  Ni  Ni5  1  1.00213066  0.33520740  0.33705309  1
  Fe  Fe6  1  1.00037295  0.67069037  0.00334479  1
  Ni  Ni7  1  0.16867257  0.83867655  0.16868233  1
  Ni  Ni8  1  1.00205450  0.66987920  0.33602086  1
  Fe  Fe9  1  0.33682336  1.00235218  0.00424705  1
  Ni  Ni10  1  0.50246168  0.16874009  0.17053151  1
  Fe  Fe11  1  0.33643644  0.00553286  0.33507209  1
  Ni  Ni12  1  0.33727233  0.33684538  0.00391665  1
  Fe  Fe13  1  0.50506911  0.50233766  0.16810570  1
  Fe  Fe14  1  0.33616129  0.33339628  0.33681028  1
  Ni  Ni15  1  0.33780471  0.67061616  1.00256946  1
  Ni  Ni16  1  0.50456221  0.83830184  0.16910938  1
  Cr  Cr17  1  0.33649830  0.66955316  0.33516009  1
  Ni  Ni18  1  0.67083622  1.00260770  0.00370052  1
  Fe  Fe19  1  0.83586485  0.16884129  0.16975326  1
  Ni  Ni20  1  0.67002175  0.00392980  0.33613662  1
  Ni  Ni21  1  0.66984167  0.33666350  0.00361373  1
  Ni  Ni22  1  0.83529279  0.50377580  0.16999804  1
  Ni  Ni23  1  0.66977266  0.33497288  0.33538046  1
  Ni  Ni24  1  0.66804903  0.66954069  1.00285636  1
  Ni  Ni25  1  0.83557814  0.83530068  0.17076031  1
  Fe  Fe26  1  0.67217832  0.66982504  0.33560917  1
  Ni  Ni27  1  0.16922664  0.17208957  0.50271618  1
  Ni  Ni28  1  1.00184507  0.00399356  0.67094382  1
  Ni  Ni29  1  0.16771382  0.16881862  0.83596060  1
  Ni  Ni30  1  0.16848676  0.49975603  0.50356727  1
  Ni  Ni31  1  1.00215340  0.33508142  0.66912220  1
  Cr  Cr32  1  0.16925259  0.50193421  0.83561724  1
  Cr  Cr33  1  0.16824351  0.83699309  0.50355599  1
  Ni  Ni34  1  0.00388014  0.66973753  0.66962883  1
  Fe  Fe35  1  0.16928276  0.83722618  0.83606197  1
  Fe  Fe36  1  0.50285820  0.16992245  0.50247924  1
  Fe  Fe37  1  0.33569878  1.00291566  0.66949335  1
  Cr  Cr38  1  0.50307736  0.16934146  0.83536178  1
  Ni  Ni39  1  0.50367466  0.50236185  0.50358355  1
  Fe  Fe40  1  0.33542301  0.33645828  0.66830897  1
  Ni  Ni41  1  0.50463168  0.50492285  0.83684994  1
  Ni  Ni42  1  0.50596107  0.83691984  0.50377943  1
  Ni  Ni43  1  0.33712437  0.66945939  0.67054723  1
  Ni  Ni44  1  0.50410865  0.83479294  0.83592186  1
  Fe  Fe45  1  0.83625009  0.16986212  0.50345421  1
  Ni  Ni46  1  0.67070374  0.00310432  0.66897680  1
  Ni  Ni47  1  0.83801158  0.16934617  0.83653991  1
  Fe  Fe48  1  0.83698752  0.50257928  0.50274253  1
  Ni  Ni49  1  0.67042359  0.33593837  0.66981727  1
  Ni  Ni50  1  0.83510283  0.50331558  0.83576491  1
  Fe  Fe51  1  0.83540702  0.83636970  0.50285581  1
  Fe  Fe52  1  0.66994780  0.66966090  0.67048626  1
  Ni  Ni53  1  0.83537944  0.83615109  0.83555224  1
" 