687,Ni60Fe27Cr12_11,-236.665427320115, 204.042897264034,Ni60Fe27Cr12,"# generated using pymatgen
 data_Cr4Fe7Ni16
_symmetry_space_group_name_H-M   'P 1'
_cell_length_a   7.43841027
_cell_length_b   7.43841027
_cell_length_c   10.51950069
_cell_angle_alpha   90.00000000
_cell_angle_beta   90.00000000
_cell_angle_gamma   90.00000000
_symmetry_Int_Tables_number   1
_chemical_formula_structural   Cr4Fe7Ni16
_chemical_formula_sum   'Cr8 Fe14 Ni32'
_cell_volume   582.04341961
_cell_formula_units_Z   2
loop_
 _symmetry_equiv_pos_site_id
 _symmetry_equiv_pos_as_xyz
  1  'x, y, z'
loop_
 _atom_site_type_symbol
 _atom_site_label
 _atom_site_symmetry_multiplicity
 _atom_site_fract_x
 _atom_site_fract_y
 _atom_site_fract_z
 _atom_site_occupancy
  Ni  Ni0  1  0.00214509  1.00157490  1.00053961  1
  Ni  Ni1  1  0.16935806  0.17083174  0.16941240  1
  Ni  Ni2  1  1.00179985  0.00366753  0.33507764  1
  Cr  Cr3  1  1.00113361  0.33510180  0.00274742  1
  Ni  Ni4  1  0.17041640  0.50095401  0.17091678  1
  Ni  Ni5  1  0.00389202  0.33603199  0.33434774  1
  Ni  Ni6  1  0.00298052  0.66867659  1.00012880  1
  Cr  Cr7  1  0.16685267  0.83424703  0.16776631  1
  Ni  Ni8  1  0.00279668  0.66607534  0.33558156  1
  Fe  Fe9  1  0.33514280  0.00239446  1.00163666  1
  Ni  Ni10  1  0.50217299  0.17003008  0.16701110  1
  Cr  Cr11  1  0.33628357  0.00253474  0.33560154  1
  Fe  Fe12  1  0.33543556  0.33555182  0.00328786  1
  Ni  Ni13  1  0.50035158  0.50099026  0.16794690  1
  Ni  Ni14  1  0.33330838  0.33672293  0.33418652  1
  Fe  Fe15  1  0.33577097  0.66782945  1.00122845  1
  Fe  Fe16  1  0.50287206  0.83527584  0.16770025  1
  Fe  Fe17  1  0.33538424  0.66631520  0.33567876  1
  Ni  Ni18  1  0.66780631  0.00227529  0.00279196  1
  Ni  Ni19  1  0.83424380  0.16749743  0.16956850  1
  Ni  Ni20  1  0.66794957  1.00124835  0.33453296  1
  Ni  Ni21  1  0.66743424  0.33548813  0.00302657  1
  Fe  Fe22  1  0.83562231  0.50102673  0.16895766  1
  Cr  Cr23  1  0.66916033  0.33492768  0.33441662  1
  Fe  Fe24  1  0.66887395  0.66828068  1.00079929  1
  Cr  Cr25  1  0.83490125  0.83580722  0.16948637  1
  Ni  Ni26  1  0.66725585  0.66879785  0.33430643  1
  Fe  Fe27  1  0.16776078  0.16922712  0.50281409  1
  Ni  Ni28  1  0.00306517  0.00290292  0.67015790  1
  Ni  Ni29  1  0.16853809  0.16844789  0.83390193  1
  Fe  Fe30  1  0.16733234  0.50104955  0.50113285  1
  Ni  Ni31  1  1.00161514  0.33529025  0.66878952  1
  Ni  Ni32  1  0.16777000  0.50199749  0.83464467  1
  Ni  Ni33  1  0.16775349  0.83495546  0.50239744  1
  Ni  Ni34  1  1.00124491  0.66758331  0.67006494  1
  Fe  Fe35  1  0.16644020  0.83625987  0.83543837  1
  Ni  Ni36  1  0.50116622  0.16904582  0.50359442  1
  Ni  Ni37  1  0.33473009  0.00253636  0.66843832  1
  Cr  Cr38  1  0.50166751  0.16884824  0.83498180  1
  Fe  Fe39  1  0.50235639  0.50179453  0.50161346  1
  Ni  Ni40  1  0.33467998  0.33416124  0.66836124  1
  Fe  Fe41  1  0.50344647  0.50213135  0.83598475  1
  Fe  Fe42  1  0.50264810  0.83555009  0.50258901  1
  Cr  Cr43  1  0.33528271  0.66944146  0.66813303  1
  Ni  Ni44  1  0.50371061  0.83510847  0.83561057  1
  Fe  Fe45  1  0.83603419  0.16893716  0.50268865  1
  Ni  Ni46  1  0.66797864  0.00216219  0.66845087  1
  Ni  Ni47  1  0.83575568  0.16720999  0.83352505  1
  Ni  Ni48  1  0.83609450  0.50253269  0.50229647  1
  Ni  Ni49  1  0.66947950  0.33598183  0.66821709  1
  Ni  Ni50  1  0.83553517  0.50422733  0.83442020  1
  Cr  Cr51  1  0.83618144  0.83444041  0.50195628  1
  Ni  Ni52  1  0.66910936  0.66763159  0.67037677  1
  Ni  Ni53  1  0.83522670  0.83433832  0.83468569  1
" 