211,Ni60Fe32Cr6_5,-238.833862734107, 214.170017606589,Ni60Fe32Cr6,"# generated using pymatgen
 data_Cr5Fe17Ni32
_symmetry_space_group_name_H-M   'P 1'
_cell_length_a   7.42228602
_cell_length_b   7.42228602
_cell_length_c   10.49669755
_cell_angle_alpha   90.00000000
_cell_angle_beta   90.00000000
_cell_angle_gamma   90.00000000
_symmetry_Int_Tables_number   1
_chemical_formula_structural   Cr5Fe17Ni32
_chemical_formula_sum   'Cr5 Fe17 Ni32'
_cell_volume   578.26652940
_cell_formula_units_Z   1
loop_
 _symmetry_equiv_pos_site_id
 _symmetry_equiv_pos_as_xyz
  1  'x, y, z'
loop_
 _atom_site_type_symbol
 _atom_site_label
 _atom_site_symmetry_multiplicity
 _atom_site_fract_x
 _atom_site_fract_y
 _atom_site_fract_z
 _atom_site_occupancy
  Cr  Cr0  1  1.00235851  1.00229332  1.00245944  1
  Fe  Fe1  1  0.17053544  0.17077539  0.17050485  1
  Ni  Ni2  1  1.00290741  1.00258738  0.33648152  1
  Fe  Fe3  1  0.00369613  0.33853451  1.00245601  1
  Ni  Ni4  1  0.16887747  0.50378540  0.16907759  1
  Fe  Fe5  1  0.00410865  0.33641366  0.33634125  1
  Ni  Ni6  1  1.00284613  0.66910157  0.00351169  1
  Ni  Ni7  1  0.16881800  0.83487867  0.17051017  1
  Fe  Fe8  1  0.00471562  0.67002486  0.33611801  1
  Fe  Fe9  1  0.33753001  0.00368995  1.00185704  1
  Ni  Ni10  1  0.50317845  0.16986295  0.17018198  1
  Ni  Ni11  1  0.33447182  0.00378285  0.33664866  1
  Ni  Ni12  1  0.33568123  0.33689709  1.00293663  1
  Ni  Ni13  1  0.50209934  0.50154052  0.17047341  1
  Ni  Ni14  1  0.33744786  0.33717406  0.33687812  1
  Fe  Fe15  1  0.33539409  0.66872113  1.00253075  1
  Cr  Cr16  1  0.50217085  0.83769604  0.16913869  1
  Ni  Ni17  1  0.33567489  0.66809227  0.33641971  1
  Ni  Ni18  1  0.66999613  1.00252879  1.00263765  1
  Ni  Ni19  1  0.83530408  0.16980606  0.17107334  1
  Fe  Fe20  1  0.66933721  0.00411345  0.33676053  1
  Cr  Cr21  1  0.66865025  0.33642609  0.00382760  1
  Ni  Ni22  1  0.83807258  0.50328029  0.16999514  1
  Fe  Fe23  1  0.66856709  0.33605944  0.33652273  1
  Ni  Ni24  1  0.67118662  0.66994389  1.00216859  1
  Ni  Ni25  1  0.83754982  0.83596050  0.17006391  1
  Fe  Fe26  1  0.66945888  0.66887264  0.33652225  1
  Fe  Fe27  1  0.17248116  0.16968763  0.50138598  1
  Cr  Cr28  1  0.00336000  1.00117186  0.66978092  1
  Ni  Ni29  1  0.17242717  0.17000808  0.83719863  1
  Ni  Ni30  1  0.16946996  0.50513074  0.50300089  1
  Cr  Cr31  1  1.00252999  0.33782127  0.67069100  1
  Ni  Ni32  1  0.16876955  0.50468179  0.83696817  1
  Ni  Ni33  1  0.17108149  0.83513892  0.50247423  1
  Ni  Ni34  1  0.00399949  0.66964931  0.66931920  1
  Ni  Ni35  1  0.17148702  0.83435839  0.83605768  1
  Ni  Ni36  1  0.50354524  0.16858518  0.50360954  1
  Ni  Ni37  1  0.33814162  1.00219363  0.66973136  1
  Ni  Ni38  1  0.50307641  0.16754460  0.83525573  1
  Ni  Ni39  1  0.50321795  0.50252108  0.50358407  1
  Fe  Fe40  1  0.33816830  0.33610782  0.66981999  1
  Fe  Fe41  1  0.50175977  0.50273977  0.83574022  1
  Ni  Ni42  1  0.50179508  0.83793944  0.50364817  1
  Ni  Ni43  1  0.33583491  0.66968559  0.66967392  1
  Fe  Fe44  1  0.50286669  0.83720924  0.83579437  1
  Fe  Fe45  1  0.83419377  0.16991832  0.50179685  1
  Ni  Ni46  1  0.66799196  0.00436843  0.66983852  1
  Ni  Ni47  1  0.83354624  0.17026292  0.83598608  1
  Ni  Ni48  1  0.83636111  0.50338170  0.50253422  1
  Ni  Ni49  1  0.66802860  0.33607600  0.66950799  1
  Ni  Ni50  1  0.83752222  0.50410501  0.83651629  1
  Fe  Fe51  1  0.83532034  0.83491867  0.50199069  1
  Fe  Fe52  1  0.66964378  0.66959757  0.66957961  1
  Fe  Fe53  1  0.83557455  0.83518321  0.83724738  1
" 