4267,Ni60Fe32Cr6_3,-238.351149602032, 210.193360403938,Ni60Fe32Cr6,"# generated using pymatgen
 data_Cr5Fe17Ni32
_symmetry_space_group_name_H-M   'P 1'
_cell_length_a   7.41895157
_cell_length_b   7.41895157
_cell_length_c   10.49198193
_cell_angle_alpha   90.00000000
_cell_angle_beta   90.00000000
_cell_angle_gamma   90.00000000
_symmetry_Int_Tables_number   1
_chemical_formula_structural   Cr5Fe17Ni32
_chemical_formula_sum   'Cr5 Fe17 Ni32'
_cell_volume   577.48752440
_cell_formula_units_Z   1
loop_
 _symmetry_equiv_pos_site_id
 _symmetry_equiv_pos_as_xyz
  1  'x, y, z'
loop_
 _atom_site_type_symbol
 _atom_site_label
 _atom_site_symmetry_multiplicity
 _atom_site_fract_x
 _atom_site_fract_y
 _atom_site_fract_z
 _atom_site_occupancy
  Cr  Cr0  1  1.00287101  0.00542081  0.00355055  1
  Ni  Ni1  1  0.17303917  0.16870614  0.17044455  1
  Ni  Ni2  1  1.00219920  0.00371553  0.33702253  1
  Ni  Ni3  1  0.00344829  0.33632796  1.00229999  1
  Ni  Ni4  1  0.17133126  0.50635812  0.16860693  1
  Cr  Cr5  1  1.00314934  0.33475754  0.33534419  1
  Ni  Ni6  1  0.00476764  0.67015752  1.00285205  1
  Ni  Ni7  1  0.17099843  0.83504823  0.17086082  1
  Fe  Fe8  1  0.00540482  0.67299447  0.33683925  1
  Fe  Fe9  1  0.33656275  0.00402037  1.00319100  1
  Ni  Ni10  1  0.50363232  0.16795216  0.16961630  1
  Ni  Ni11  1  0.33710592  1.00100202  0.33625264  1
  Ni  Ni12  1  0.33594314  0.33739752  0.00351657  1
  Cr  Cr13  1  0.50238644  0.50141662  0.17068866  1
  Fe  Fe14  1  0.33639880  0.33384228  0.33753134  1
  Ni  Ni15  1  0.33737594  0.67120035  1.00178652  1
  Fe  Fe16  1  0.50179321  0.83749440  0.17017622  1
  Ni  Ni17  1  0.33808942  0.67047991  0.33800750  1
  Fe  Fe18  1  0.66838996  0.00365189  1.00319016  1
  Ni  Ni19  1  0.83280341  0.16888339  0.16961695  1
  Ni  Ni20  1  0.67029302  1.00255913  0.33645426  1
  Ni  Ni21  1  0.67037388  0.33523846  1.00167440  1
  Cr  Cr22  1  0.83748468  0.50466228  0.16875898  1
  Fe  Fe23  1  0.66854696  0.33305124  0.33747554  1
  Fe  Fe24  1  0.67067179  0.66960108  1.00007594  1
  Fe  Fe25  1  0.83693116  0.83817946  0.17086505  1
  Fe  Fe26  1  0.67063745  0.67255625  0.33940029  1
  Fe  Fe27  1  0.16764972  0.16947273  0.50366270  1
  Ni  Ni28  1  1.00045592  0.00457464  0.66897262  1
  Ni  Ni29  1  0.17165880  0.17148600  0.83598730  1
  Ni  Ni30  1  0.17053155  0.50657905  0.50355010  1
  Ni  Ni31  1  1.00239354  0.33571646  0.67167786  1
  Ni  Ni32  1  0.17003149  0.50432510  0.83770223  1
  Ni  Ni33  1  0.16939965  0.83476049  0.50316397  1
  Fe  Fe34  1  0.00436959  0.66940835  0.67049217  1
  Ni  Ni35  1  0.16940114  0.83398297  0.83585469  1
  Ni  Ni36  1  0.50372300  0.17039188  0.50165568  1
  Cr  Cr37  1  0.33525669  1.00180743  0.67010284  1
  Ni  Ni38  1  0.50366166  0.17095189  0.83816770  1
  Fe  Fe39  1  0.50384093  0.50403073  0.50340439  1
  Ni  Ni40  1  0.33600320  0.33895617  0.66886147  1
  Fe  Fe41  1  0.50280949  0.50226798  0.83681755  1
  Fe  Fe42  1  0.50448671  0.83599305  0.50234124  1
  Ni  Ni43  1  0.33965598  0.66801654  0.67030547  1
  Fe  Fe44  1  0.50402815  0.83579409  0.83700635  1
  Ni  Ni45  1  0.83212805  0.16921067  0.50483374  1
  Fe  Fe46  1  0.66988297  0.00334571  0.66923524  1
  Ni  Ni47  1  0.83375478  0.17019155  0.83515964  1
  Ni  Ni48  1  0.83676364  0.50408511  0.50443971  1
  Fe  Fe49  1  0.66885860  0.33692743  0.67051053  1
  Ni  Ni50  1  0.83713105  0.50373653  0.83642335  1
  Ni  Ni51  1  0.83832913  0.83675145  0.50330726  1
  Ni  Ni52  1  0.66928367  0.66986788  0.66999660  1
  Ni  Ni53  1  0.83691878  0.83573025  0.83530568  1
" 