76,Ni60Fe40_15,-239.093147530327, 215.014541396219,Ni60Fe40,"# generated using pymatgen
 data_Fe16Ni11
_symmetry_space_group_name_H-M   'P 1'
_cell_length_a   7.39715304
_cell_length_b   7.39715304
_cell_length_c   10.46115415
_cell_angle_alpha   90.00000000
_cell_angle_beta   90.00000000
_cell_angle_gamma   90.00000000
_symmetry_Int_Tables_number   1
_chemical_formula_structural   Fe16Ni11
_chemical_formula_sum   'Fe32 Ni22'
_cell_volume   572.41210482
_cell_formula_units_Z   2
loop_
 _symmetry_equiv_pos_site_id
 _symmetry_equiv_pos_as_xyz
  1  'x, y, z'
loop_
 _atom_site_type_symbol
 _atom_site_label
 _atom_site_symmetry_multiplicity
 _atom_site_fract_x
 _atom_site_fract_y
 _atom_site_fract_z
 _atom_site_occupancy
  Ni  Ni0  1  0.00536345  0.00543461  1.00395591  1
  Ni  Ni1  1  0.17175903  0.17100072  0.17159227  1
  Ni  Ni2  1  1.00471995  0.00511004  0.33891214  1
  Ni  Ni3  1  1.00414950  0.33703559  0.00540445  1
  Fe  Fe4  1  0.17176679  0.50317662  0.17141847  1
  Fe  Fe5  1  0.00478420  0.33828200  0.33745066  1
  Fe  Fe6  1  1.00420048  0.67047694  1.00398651  1
  Fe  Fe7  1  0.17137827  0.83914503  0.17163492  1
  Fe  Fe8  1  1.00465301  0.67090453  0.33837751  1
  Ni  Ni9  1  0.33656661  1.00468680  1.00462809  1
  Ni  Ni10  1  0.50426329  0.17110430  0.17126016  1
  Fe  Fe11  1  0.33855317  0.00512887  0.33763991  1
  Ni  Ni12  1  0.33816484  0.33815329  0.00512656  1
  Ni  Ni13  1  0.50509917  0.50445487  0.17147123  1
  Fe  Fe14  1  0.33813186  0.33777594  0.33759402  1
  Fe  Fe15  1  0.33798890  0.67055593  1.00465491  1
  Fe  Fe16  1  0.50484867  0.83809730  0.17174072  1
  Ni  Ni17  1  0.33835484  0.67120867  0.33773193  1
  Fe  Fe18  1  0.67143047  0.00576619  1.00411042  1
  Ni  Ni19  1  0.83814948  0.17147650  0.17062176  1
  Fe  Fe20  1  0.67090966  0.00501151  0.33910466  1
  Ni  Ni21  1  0.67186681  0.33948053  1.00405336  1
  Ni  Ni22  1  0.83807725  0.50485220  0.17104247  1
  Ni  Ni23  1  0.67146735  0.33822660  0.33842351  1
  Ni  Ni24  1  0.67110811  0.67010296  1.00454452  1
  Fe  Fe25  1  0.83794184  0.83885994  0.17075241  1
  Fe  Fe26  1  0.67140726  0.67133646  0.33726801  1
  Fe  Fe27  1  0.17194138  0.17103915  0.50410060  1
  Fe  Fe28  1  1.00442852  1.00393973  0.67152502  1
  Fe  Fe29  1  0.17024798  0.17174504  0.83948326  1
  Ni  Ni30  1  0.17069693  0.50499412  0.50411588  1
  Fe  Fe31  1  0.00510690  0.33893988  0.67201502  1
  Ni  Ni32  1  0.17068049  0.50458348  0.83934453  1
  Fe  Fe33  1  0.17262617  0.83781936  0.50435033  1
  Fe  Fe34  1  1.00466938  0.67129304  0.67181173  1
  Fe  Fe35  1  0.17060287  0.83734354  0.83818900  1
  Ni  Ni36  1  0.50464066  0.16963589  0.50426768  1
  Fe  Fe37  1  0.33924105  1.00437802  0.67138973  1
  Fe  Fe38  1  0.50521697  0.17188585  0.83816499  1
  Fe  Fe39  1  0.50390307  0.50502704  0.50393523  1
  Fe  Fe40  1  0.33817081  0.33812823  0.67159211  1
  Fe  Fe41  1  0.50521145  0.50537652  0.83897693  1
  Ni  Ni42  1  0.50503419  0.83952823  0.50480269  1
  Ni  Ni43  1  0.33794524  0.67108348  0.67189352  1
  Fe  Fe44  1  0.50514669  0.83691575  0.83724712  1
  Fe  Fe45  1  0.83742083  0.17110813  0.50410278  1
  Ni  Ni46  1  0.67225749  0.00493918  0.67132590  1
  Fe  Fe47  1  0.83870987  0.17181407  0.83856908  1
  Fe  Fe48  1  0.83727182  0.50435300  0.50451642  1
  Fe  Fe49  1  0.67089165  0.33788760  0.67114601  1
  Ni  Ni50  1  0.83925734  0.50581696  0.83794075  1
  Fe  Fe51  1  0.83771463  0.83871760  0.50538569  1
  Fe  Fe52  1  0.67132685  0.67235673  0.67225378  1
  Ni  Ni53  1  0.83765338  0.83762433  0.83817162  1
" 