3568,Ni60Fe27Cr12_8,-236.057121450319, 201.598215591106,Ni60Fe27Cr12,"# generated using pymatgen
 data_Cr4Fe7Ni16
_symmetry_space_group_name_H-M   'P 1'
_cell_length_a   7.43186350
_cell_length_b   7.43186350
_cell_length_c   10.51024215
_cell_angle_alpha   90.00000000
_cell_angle_beta   90.00000000
_cell_angle_gamma   90.00000000
_symmetry_Int_Tables_number   1
_chemical_formula_structural   Cr4Fe7Ni16
_chemical_formula_sum   'Cr8 Fe14 Ni32'
_cell_volume   580.50794843
_cell_formula_units_Z   2
loop_
 _symmetry_equiv_pos_site_id
 _symmetry_equiv_pos_as_xyz
  1  'x, y, z'
loop_
 _atom_site_type_symbol
 _atom_site_label
 _atom_site_symmetry_multiplicity
 _atom_site_fract_x
 _atom_site_fract_y
 _atom_site_fract_z
 _atom_site_occupancy
  Ni  Ni0  1  0.00371541  1.00194396  1.00174256  1
  Ni  Ni1  1  0.16855301  0.16613243  0.16821762  1
  Ni  Ni2  1  0.00361860  0.99982360  0.33483762  1
  Fe  Fe3  1  1.00142279  0.33505263  1.00232754  1
  Fe  Fe4  1  0.16758678  0.50386301  0.16921246  1
  Cr  Cr5  1  1.00108297  0.33639371  0.33496893  1
  Ni  Ni6  1  1.00065168  0.66938746  1.00216087  1
  Fe  Fe7  1  0.16825574  0.83706997  0.16977329  1
  Ni  Ni8  1  1.00151191  0.67111769  0.33594690  1
  Ni  Ni9  1  0.33347263  0.00417486  0.00334003  1
  Ni  Ni10  1  0.50233730  0.16800492  0.17000629  1
  Ni  Ni11  1  0.33534855  1.00136202  0.33446659  1
  Cr  Cr12  1  0.33694513  0.33367883  1.00202891  1
  Ni  Ni13  1  0.50516165  0.50375477  0.16988270  1
  Cr  Cr14  1  0.33751848  0.33502065  0.33605620  1
  Cr  Cr15  1  0.33492122  0.66940160  0.00271651  1
  Ni  Ni16  1  0.50185733  0.83534225  0.17114998  1
  Ni  Ni17  1  0.33617613  0.67085687  0.33613496  1
  Cr  Cr18  1  0.66947717  0.00369489  1.00217118  1
  Ni  Ni19  1  0.83621168  0.16943466  0.16941837  1
  Fe  Fe20  1  0.66850592  1.00091991  0.33420116  1
  Fe  Fe21  1  0.67055869  0.33666435  1.00233397  1
  Ni  Ni22  1  0.83420621  0.50314375  0.16859354  1
  Ni  Ni23  1  0.66787364  0.33698703  0.33403471  1
  Fe  Fe24  1  0.67118226  0.66747557  0.00350141  1
  Ni  Ni25  1  0.83607547  0.83452179  0.16986899  1
  Ni  Ni26  1  0.66941309  0.66829259  0.33510142  1
  Ni  Ni27  1  0.16991342  0.16792431  0.50327689  1
  Ni  Ni28  1  0.00249315  1.00107769  0.67052056  1
  Ni  Ni29  1  0.16737899  0.16826288  0.83560808  1
  Ni  Ni30  1  0.16936470  0.50433027  0.50380749  1
  Fe  Fe31  1  0.00254424  0.33682939  0.66972525  1
  Ni  Ni32  1  0.16753523  0.50272585  0.83391710  1
  Ni  Ni33  1  0.16880338  0.83485058  0.50077451  1
  Ni  Ni34  1  1.00141787  0.66942584  0.66899305  1
  Ni  Ni35  1  0.16696249  0.83611446  0.83625289  1
  Fe  Fe36  1  0.50209952  0.16930654  0.50224949  1
  Cr  Cr37  1  0.33368914  0.00402761  0.66959288  1
  Ni  Ni38  1  0.50304392  0.17087995  0.83510611  1
  Fe  Fe39  1  0.50339842  0.50344166  0.50284996  1
  Fe  Fe40  1  0.33532020  0.33740533  0.66953220  1
  Ni  Ni41  1  0.50415847  0.50137730  0.83400028  1
  Fe  Fe42  1  0.50261766  0.83435428  0.50100205  1
  Fe  Fe43  1  0.33448910  0.66681903  0.66840367  1
  Cr  Cr44  1  0.50207776  0.83475971  0.83550585  1
  Cr  Cr45  1  0.83568717  0.16854161  0.50209969  1
  Fe  Fe46  1  0.67135910  1.00215811  0.66947243  1
  Ni  Ni47  1  0.83668081  0.17030671  0.83507976  1
  Ni  Ni48  1  0.83482586  0.50482895  0.50256328  1
  Ni  Ni49  1  0.66755874  0.33737652  0.67061991  1
  Ni  Ni50  1  0.83540717  0.50179602  0.83594506  1
  Ni  Ni51  1  0.83576254  0.83397152  0.50276223  1
  Ni  Ni52  1  0.67081110  0.66656266  0.66920093  1
  Fe  Fe53  1  0.83878249  0.83485357  0.83476775  1
" 