1140,Ni60Fe32Cr6_2,-238.398251959597, 212.162050419967,Ni60Fe32Cr6,"# generated using pymatgen
 data_Cr5Fe17Ni32
_symmetry_space_group_name_H-M   'P 1'
_cell_length_a   7.41916618
_cell_length_b   7.41916618
_cell_length_c   10.49228543
_cell_angle_alpha   90.00000000
_cell_angle_beta   90.00000000
_cell_angle_gamma   90.00000000
_symmetry_Int_Tables_number   1
_chemical_formula_structural   Cr5Fe17Ni32
_chemical_formula_sum   'Cr5 Fe17 Ni32'
_cell_volume   577.53763981
_cell_formula_units_Z   1
loop_
 _symmetry_equiv_pos_site_id
 _symmetry_equiv_pos_as_xyz
  1  'x, y, z'
loop_
 _atom_site_type_symbol
 _atom_site_label
 _atom_site_symmetry_multiplicity
 _atom_site_fract_x
 _atom_site_fract_y
 _atom_site_fract_z
 _atom_site_occupancy
  Ni  Ni0  1  0.00346279  0.00356233  0.00368508  1
  Ni  Ni1  1  0.16813887  0.17117590  0.16878559  1
  Ni  Ni2  1  0.00544101  0.00487267  0.33687885  1
  Ni  Ni3  1  0.00348764  0.33608305  1.00289756  1
  Ni  Ni4  1  0.17025141  0.50174148  0.16928867  1
  Ni  Ni5  1  1.00320990  0.33487306  0.33763793  1
  Ni  Ni6  1  1.00265904  0.66991675  0.00391273  1
  Fe  Fe7  1  0.16827852  0.83869564  0.16859791  1
  Cr  Cr8  1  1.00302277  0.67022746  0.33664079  1
  Ni  Ni9  1  0.33454866  0.00422952  1.00228355  1
  Fe  Fe10  1  0.50304846  0.17099715  0.16996627  1
  Ni  Ni11  1  0.33482984  0.00587080  0.33682695  1
  Ni  Ni12  1  0.33589728  0.33627808  0.00482017  1
  Fe  Fe13  1  0.50321403  0.50006115  0.16837200  1
  Fe  Fe14  1  0.33504226  0.33573289  0.33683618  1
  Ni  Ni15  1  0.33599102  0.66877404  1.00269730  1
  Cr  Cr16  1  0.50229031  0.83638034  0.16783108  1
  Fe  Fe17  1  0.33489171  0.66818451  0.33594133  1
  Ni  Ni18  1  0.67143414  0.00367710  0.00421949  1
  Ni  Ni19  1  0.83795450  0.17033447  0.17032886  1
  Fe  Fe20  1  0.67224371  0.00645593  0.33628506  1
  Ni  Ni21  1  0.67064609  0.33741774  0.00353716  1
  Fe  Fe22  1  0.83821423  0.50043627  0.16892748  1
  Ni  Ni23  1  0.66887179  0.33594894  0.33753226  1
  Ni  Ni24  1  0.67108848  0.66877897  1.00200700  1
  Ni  Ni25  1  0.83717744  0.83870309  0.16842219  1
  Cr  Cr26  1  0.67076766  0.66792138  0.33602046  1
  Ni  Ni27  1  0.16900673  0.16894666  0.50379865  1
  Ni  Ni28  1  0.00342614  1.00295200  0.66916246  1
  Ni  Ni29  1  0.16716640  0.16911759  0.83704301  1
  Fe  Fe30  1  0.17077395  0.50192294  0.50362535  1
  Ni  Ni31  1  0.00600560  0.33618501  0.66930601  1
  Fe  Fe32  1  0.17003488  0.50140050  0.83758067  1
  Ni  Ni33  1  0.16911268  0.83748387  0.50226313  1
  Ni  Ni34  1  1.00269954  0.67039509  0.66890693  1
  Ni  Ni35  1  0.16878848  0.83598116  0.83818158  1
  Ni  Ni36  1  0.50299987  0.17138101  0.50243617  1
  Fe  Fe37  1  0.33305900  0.00424140  0.67007974  1
  Cr  Cr38  1  0.50361583  0.17149768  0.83734584  1
  Ni  Ni39  1  0.50416666  0.50216916  0.50351307  1
  Ni  Ni40  1  0.33642439  0.33637989  0.66828119  1
  Ni  Ni41  1  0.50397321  0.50535102  0.83678559  1
  Cr  Cr42  1  0.50139749  0.83645864  0.50509743  1
  Fe  Fe43  1  0.33418394  0.66887738  0.67169285  1
  Fe  Fe44  1  0.50341243  0.83693308  0.83720228  1
  Fe  Fe45  1  0.83697429  0.17036939  0.50339564  1
  Ni  Ni46  1  0.67083158  1.00272879  0.66856146  1
  Ni  Ni47  1  0.83863553  0.17005738  0.83623312  1
  Ni  Ni48  1  0.83651080  0.50136932  0.50482821  1
  Fe  Fe49  1  0.67145392  0.33688218  0.66933670  1
  Fe  Fe50  1  0.83822361  0.50229638  0.83583479  1
  Fe  Fe51  1  0.83779812  0.83783220  0.50448259  1
  Ni  Ni52  1  0.67042233  0.66977268  0.67112328  1
  Fe  Fe53  1  0.83705026  0.83793812  0.83697358  1
" 