7690,Ni60Fe32Cr6_14,-238.577287812439, 208.65581370655,Ni60Fe32Cr6,"# generated using pymatgen
 data_Cr5Fe17Ni32
_symmetry_space_group_name_H-M   'P 1'
_cell_length_a   7.42607509
_cell_length_b   7.42607509
_cell_length_c   10.50205611
_cell_angle_alpha   90.00000000
_cell_angle_beta   90.00000000
_cell_angle_gamma   90.00000000
_symmetry_Int_Tables_number   1
_chemical_formula_structural   Cr5Fe17Ni32
_chemical_formula_sum   'Cr5 Fe17 Ni32'
_cell_volume   579.15259620
_cell_formula_units_Z   1
loop_
 _symmetry_equiv_pos_site_id
 _symmetry_equiv_pos_as_xyz
  1  'x, y, z'
loop_
 _atom_site_type_symbol
 _atom_site_label
 _atom_site_symmetry_multiplicity
 _atom_site_fract_x
 _atom_site_fract_y
 _atom_site_fract_z
 _atom_site_occupancy
  Ni  Ni0  1  0.00501528  0.00413852  1.00244705  1
  Fe  Fe1  1  0.16883812  0.16840560  0.16762711  1
  Fe  Fe2  1  0.00463885  1.00163604  0.33589686  1
  Ni  Ni3  1  0.00376042  0.33722969  1.00229501  1
  Fe  Fe4  1  0.16741171  0.50348506  0.16942438  1
  Fe  Fe5  1  1.00013558  0.33604402  0.33630773  1
  Ni  Ni6  1  0.00662093  0.66709293  1.00209260  1
  Ni  Ni7  1  0.17218376  0.83583231  0.16914690  1
  Ni  Ni8  1  1.00221717  0.66709392  0.33720758  1
  Ni  Ni9  1  0.33605682  0.00388212  1.00207663  1
  Ni  Ni10  1  0.50299805  0.17093344  0.16658787  1
  Ni  Ni11  1  0.33686932  1.00265677  0.33664017  1
  Ni  Ni12  1  0.33520320  0.33607300  1.00204732  1
  Ni  Ni13  1  0.50181932  0.50238088  0.17041415  1
  Cr  Cr14  1  0.33353193  0.33513890  0.33511468  1
  Fe  Fe15  1  0.33527144  0.66908158  0.00359773  1
  Fe  Fe16  1  0.50289111  0.83766374  0.17135140  1
  Ni  Ni17  1  0.33500724  0.66986359  0.33657671  1
  Ni  Ni18  1  0.66721734  0.00602865  1.00251908  1
  Ni  Ni19  1  0.83580581  0.17138043  0.16858104  1
  Ni  Ni20  1  0.66960441  0.00335761  0.33548157  1
  Ni  Ni21  1  0.66865147  0.33531075  1.00145878  1
  Ni  Ni22  1  0.83539269  0.50063096  0.16906813  1
  Fe  Fe23  1  0.66986926  0.33761520  0.33477564  1
  Cr  Cr24  1  0.66996029  0.66892849  0.00287158  1
  Cr  Cr25  1  0.84038257  0.83712756  0.16809471  1
  Ni  Ni26  1  0.67089415  0.67010134  0.33868577  1
  Ni  Ni27  1  0.16715313  0.16873458  0.50281376  1
  Fe  Fe28  1  0.00336851  0.00432440  0.66979686  1
  Ni  Ni29  1  0.16881608  0.16942934  0.83701254  1
  Ni  Ni30  1  0.16933250  0.50217428  0.50362378  1
  Fe  Fe31  1  1.00237495  0.33440820  0.66903723  1
  Fe  Fe32  1  0.16948702  0.50299040  0.83457169  1
  Fe  Fe33  1  0.16864428  0.83474406  0.50200417  1
  Ni  Ni34  1  1.00264520  0.66861874  0.66849982  1
  Ni  Ni35  1  0.17069698  0.83591475  0.83610373  1
  Cr  Cr36  1  0.50320711  0.17055249  0.50528882  1
  Fe  Fe37  1  0.33422423  1.00100941  0.67019277  1
  Fe  Fe38  1  0.50182117  0.16788216  0.83578162  1
  Ni  Ni39  1  0.50225102  0.50491917  0.50305875  1
  Ni  Ni40  1  0.33415187  0.33580856  0.67021037  1
  Ni  Ni41  1  0.50062340  0.50111471  0.83501238  1
  Ni  Ni42  1  0.50285092  0.83491817  0.50160185  1
  Fe  Fe43  1  0.33654156  0.66971540  0.66860056  1
  Ni  Ni44  1  0.49981388  0.83425192  0.83739214  1
  Ni  Ni45  1  0.83790000  0.16837560  0.50156868  1
  Ni  Ni46  1  0.66942271  1.00181068  0.67060123  1
  Ni  Ni47  1  0.83713265  0.17119860  0.83753546  1
  Ni  Ni48  1  0.83623945  0.50267560  0.50330418  1
  Fe  Fe49  1  0.67132858  0.33728730  0.67091771  1
  Fe  Fe50  1  0.83790368  0.50203175  0.83579767  1
  Ni  Ni51  1  0.83646335  0.83686686  0.50314941  1
  Fe  Fe52  1  0.66805925  0.66952385  0.66882354  1
  Cr  Cr53  1  0.83826766  0.83857532  0.83828050  1
" 