2478,Ni60Fe32Cr6_4,-238.942767929224, 212.324433242967,Ni60Fe32Cr6,"# generated using pymatgen
 data_Cr5Fe17Ni32
_symmetry_space_group_name_H-M   'P 1'
_cell_length_a   7.42637717
_cell_length_b   7.42637717
_cell_length_c   10.50248331
_cell_angle_alpha   90.00000000
_cell_angle_beta   90.00000000
_cell_angle_gamma   90.00000000
_symmetry_Int_Tables_number   1
_chemical_formula_structural   Cr5Fe17Ni32
_chemical_formula_sum   'Cr5 Fe17 Ni32'
_cell_volume   579.22327533
_cell_formula_units_Z   1
loop_
 _symmetry_equiv_pos_site_id
 _symmetry_equiv_pos_as_xyz
  1  'x, y, z'
loop_
 _atom_site_type_symbol
 _atom_site_label
 _atom_site_symmetry_multiplicity
 _atom_site_fract_x
 _atom_site_fract_y
 _atom_site_fract_z
 _atom_site_occupancy
  Ni  Ni0  1  0.00358865  1.00122575  1.00099569  1
  Cr  Cr1  1  0.16888733  0.16911236  0.17005468  1
  Fe  Fe2  1  1.00229529  1.00190302  0.33711974  1
  Ni  Ni3  1  1.00065118  0.33737453  1.00154292  1
  Ni  Ni4  1  0.16873651  0.50519085  0.17023112  1
  Fe  Fe5  1  1.00267698  0.33713678  0.33693928  1
  Ni  Ni6  1  1.00222646  0.66961481  0.00295281  1
  Fe  Fe7  1  0.17021665  0.83434342  0.16933971  1
  Ni  Ni8  1  0.00476026  0.66903323  0.33626014  1
  Ni  Ni9  1  0.33619666  1.00124863  1.00184487  1
  Ni  Ni10  1  0.50553128  0.16914036  0.17031878  1
  Ni  Ni11  1  0.33715949  0.00293336  0.33737018  1
  Cr  Cr12  1  0.33727417  0.33522856  1.00096282  1
  Ni  Ni13  1  0.50306450  0.50264048  0.16900215  1
  Ni  Ni14  1  0.33640816  0.33500204  0.33719494  1
  Fe  Fe15  1  0.33570050  0.67027881  1.00270036  1
  Fe  Fe16  1  0.50126312  0.83665469  0.16897162  1
  Ni  Ni17  1  0.33236566  0.67028260  0.33542467  1
  Fe  Fe18  1  0.66959626  0.00301264  1.00260319  1
  Fe  Fe19  1  0.83407865  0.17053525  0.16949244  1
  Ni  Ni20  1  0.66809493  0.00522717  0.33653728  1
  Ni  Ni21  1  0.67038472  0.33676097  0.00302819  1
  Fe  Fe22  1  0.83639439  0.50147629  0.16859021  1
  Ni  Ni23  1  0.66934808  0.33319965  0.33521986  1
  Ni  Ni24  1  0.67041961  0.66862728  1.00189620  1
  Fe  Fe25  1  0.83673918  0.83620364  0.16885559  1
  Cr  Cr26  1  0.67123756  0.66943129  0.33722368  1
  Ni  Ni27  1  0.16816699  0.16982414  0.50178480  1
  Fe  Fe28  1  1.00091997  0.00277606  0.66945493  1
  Ni  Ni29  1  0.16749679  0.16924838  0.83663862  1
  Ni  Ni30  1  0.16758247  0.50301066  0.50212374  1
  Fe  Fe31  1  1.00250599  0.33591994  0.66939602  1
  Ni  Ni32  1  0.16863229  0.50338703  0.83585685  1
  Ni  Ni33  1  0.16784413  0.83538005  0.50094218  1
  Ni  Ni34  1  0.00277726  0.66882426  0.66900345  1
  Ni  Ni35  1  0.16820359  0.83557584  0.83819957  1
  Ni  Ni36  1  0.50412965  0.16831307  0.50113426  1
  Cr  Cr37  1  0.33661352  0.00343395  0.66870386  1
  Ni  Ni38  1  0.50446487  0.16948652  0.83676174  1
  Cr  Cr39  1  0.50211862  0.50228417  0.50340430  1
  Fe  Fe40  1  0.33557550  0.33654638  0.67012861  1
  Ni  Ni41  1  0.50371621  0.50352523  0.83589780  1
  Ni  Ni42  1  0.50354047  0.83781038  0.50213217  1
  Fe  Fe43  1  0.33568661  0.66892174  0.66995829  1
  Ni  Ni44  1  0.50390859  0.83520579  0.83771585  1
  Ni  Ni45  1  0.83590618  0.16857135  0.50196711  1
  Ni  Ni46  1  0.66949521  0.00352330  0.66919578  1
  Fe  Fe47  1  0.83587311  0.16967038  0.83593988  1
  Ni  Ni48  1  0.83834193  0.50241683  0.50287458  1
  Ni  Ni49  1  0.66979025  0.33511775  0.66996118  1
  Fe  Fe50  1  0.83599726  0.50272612  0.83612274  1
  Ni  Ni51  1  0.83682468  0.83722550  0.50369581  1
  Fe  Fe52  1  0.67011195  0.67050390  0.67025512  1
  Fe  Fe53  1  0.83634477  0.83581785  0.83594273  1
" 