4495,Ni60Fe6Cr33_0,-226.114790373167, 152.358930245672,Ni60Fe6Cr33,"# generated using pymatgen
 data_Cr19Fe3Ni32
_symmetry_space_group_name_H-M   'P 1'
_cell_length_a   7.48807372
_cell_length_b   7.48807372
_cell_length_c   10.58973540
_cell_angle_alpha   90.00000000
_cell_angle_beta   90.00000000
_cell_angle_gamma   90.00000000
_symmetry_Int_Tables_number   1
_chemical_formula_structural   Cr19Fe3Ni32
_chemical_formula_sum   'Cr19 Fe3 Ni32'
_cell_volume   593.77967981
_cell_formula_units_Z   1
loop_
 _symmetry_equiv_pos_site_id
 _symmetry_equiv_pos_as_xyz
  1  'x, y, z'
loop_
 _atom_site_type_symbol
 _atom_site_label
 _atom_site_symmetry_multiplicity
 _atom_site_fract_x
 _atom_site_fract_y
 _atom_site_fract_z
 _atom_site_occupancy
  Ni  Ni0  1  0.99821668  -0.00105103  0.99838640  1
  Fe  Fe1  1  0.16538618  0.16354987  0.16479241  1
  Ni  Ni2  1  0.99619171  -0.00097923  0.32966441  1
  Cr  Cr3  1  0.00107419  0.32862338  0.00020241  1
  Ni  Ni4  1  0.16438476  0.49934698  0.16545874  1
  Ni  Ni5  1  0.99710283  0.33159801  0.33039587  1
  Cr  Cr6  1  0.99765670  0.66805614  0.99737449  1
  Cr  Cr7  1  0.16694145  0.83281609  0.16537844  1
  Ni  Ni8  1  0.99476077  0.66516528  0.33261155  1
  Ni  Ni9  1  0.33285285  -0.00091884  0.99663324  1
  Cr  Cr10  1  0.50255884  0.16206642  0.16470903  1
  Ni  Ni11  1  0.33451676  -0.00109947  0.33278142  1
  Ni  Ni12  1  0.33303975  0.33075687  0.99782413  1
  Cr  Cr13  1  0.49961770  0.50083606  0.16180264  1
  Cr  Cr14  1  0.33178618  0.32911702  0.32958545  1
  Ni  Ni15  1  0.33463591  0.66621047  0.99718500  1
  Ni  Ni16  1  0.49939471  0.83375040  0.16485107  1
  Cr  Cr17  1  0.33465996  0.66625179  0.33179626  1
  Ni  Ni18  1  0.66474028  0.99690511  0.99839697  1
  Ni  Ni19  1  0.83186522  0.16302637  0.16589331  1
  Ni  Ni20  1  0.66506097  0.99688785  0.33231343  1
  Ni  Ni21  1  0.66238744  0.33041833  0.99681499  1
  Cr  Cr22  1  0.82996252  0.49722812  0.16650502  1
  Ni  Ni23  1  0.66742119  0.33075623  0.33373312  1
  Ni  Ni24  1  0.66206971  0.66857107  0.99772781  1
  Fe  Fe25  1  0.82930664  0.83368589  0.16547258  1
  Ni  Ni26  1  0.66771156  0.66821018  0.33249200  1
  Cr  Cr27  1  0.16629963  0.16346901  0.49821271  1
  Cr  Cr28  1  0.99719268  0.99793344  0.66875914  1
  Ni  Ni29  1  0.16816294  0.16292642  0.83304040  1
  Cr  Cr30  1  0.16303420  0.49915221  0.49910462  1
  Ni  Ni31  1  0.00005821  0.33149141  0.66477585  1
  Cr  Cr32  1  0.16857891  0.49946759  0.83091646  1
  Cr  Cr33  1  0.16713045  0.83302785  0.49921003  1
  Cr  Cr34  1  0.99625286  0.66660107  0.66543876  1
  Ni  Ni35  1  0.16867262  0.83479322  0.83225275  1
  Ni  Ni36  1  0.50003046  0.16200167  0.49943169  1
  Ni  Ni37  1  0.33634647  -0.00031488  0.66664597  1
  Ni  Ni38  1  0.49740326  0.16438417  0.83165676  1
  Cr  Cr39  1  0.50062270  0.49742358  0.49928479  1
  Ni  Ni40  1  0.33332063  0.32942367  0.66734830  1
  Ni  Ni41  1  0.49759192  0.49810039  0.83379573  1
  Ni  Ni42  1  0.49996472  0.83547117  0.49797960  1
  Ni  Ni43  1  0.33530168  0.66668084  0.66745348  1
  Ni  Ni44  1  0.49723529  0.83321310  0.83320100  1
  Cr  Cr45  1  0.82942339  0.16575925  0.49892817  1
  Ni  Ni46  1  0.66152948  0.99742309  0.66519568  1
  Cr  Cr47  1  0.82888496  0.16440751  0.83209716  1
  Ni  Ni48  1  0.83175917  0.49815449  0.49674695  1
  Fe  Fe49  1  0.66216528  0.33049634  0.66550321  1
  Cr  Cr50  1  0.82773566  0.49712214  0.83140474  1
  Ni  Ni51  1  0.82988874  0.83204780  0.49496090  1
  Cr  Cr52  1  0.66456443  0.66938090  0.66509988  1
  Ni  Ni53  1  0.82973125  0.83436264  0.83495853  1
" 