5266,Ni60Fe40_11,-239.397628234284, 217.292208937947,Ni60Fe40,"# generated using pymatgen
 data_Fe16Ni11
_symmetry_space_group_name_H-M   'P 1'
_cell_length_a   7.39828659
_cell_length_b   7.39828659
_cell_length_c   10.46275723
_cell_angle_alpha   90.00000000
_cell_angle_beta   90.00000000
_cell_angle_gamma   90.00000000
_symmetry_Int_Tables_number   1
_chemical_formula_structural   Fe16Ni11
_chemical_formula_sum   'Fe32 Ni22'
_cell_volume   572.67529686
_cell_formula_units_Z   2
loop_
 _symmetry_equiv_pos_site_id
 _symmetry_equiv_pos_as_xyz
  1  'x, y, z'
loop_
 _atom_site_type_symbol
 _atom_site_label
 _atom_site_symmetry_multiplicity
 _atom_site_fract_x
 _atom_site_fract_y
 _atom_site_fract_z
 _atom_site_occupancy
  Ni  Ni0  1  0.00522899  0.00516766  0.00489566  1
  Ni  Ni1  1  0.17243600  0.17003958  0.17124329  1
  Ni  Ni2  1  0.00560674  1.00351285  0.33755524  1
  Ni  Ni3  1  1.00454678  0.33737301  0.00519043  1
  Fe  Fe4  1  0.17111240  0.50510772  0.17102173  1
  Fe  Fe5  1  1.00403360  0.33733571  0.33784964  1
  Fe  Fe6  1  1.00431446  0.67123598  0.00550919  1
  Ni  Ni7  1  0.17130528  0.83918306  0.17128762  1
  Ni  Ni8  1  0.00526810  0.67180645  0.33755919  1
  Fe  Fe9  1  0.33732427  0.00530925  0.00556247  1
  Ni  Ni10  1  0.50343702  0.17073271  0.17167218  1
  Ni  Ni11  1  0.33788218  1.00395667  0.33712285  1
  Fe  Fe12  1  0.33725128  0.33691283  0.00477535  1
  Fe  Fe13  1  0.50464848  0.50498094  0.17190232  1
  Fe  Fe14  1  0.33827107  0.33676659  0.33777873  1
  Fe  Fe15  1  0.33698757  0.67172040  0.00482967  1
  Ni  Ni16  1  0.50387798  0.83918661  0.17201555  1
  Fe  Fe17  1  0.33796236  0.67265568  0.33812922  1
  Fe  Fe18  1  0.67182721  0.00523895  0.00509164  1
  Fe  Fe19  1  0.83818086  0.17011707  0.17098613  1
  Ni  Ni20  1  0.67045202  0.00508747  0.33780368  1
  Fe  Fe21  1  0.67230559  0.33739370  1.00430009  1
  Ni  Ni22  1  0.83806944  0.50515177  0.17148497  1
  Ni  Ni23  1  0.67079222  0.33817824  0.33760477  1
  Fe  Fe24  1  0.67263955  0.67131012  1.00444394  1
  Ni  Ni25  1  0.83875959  0.83658543  0.17158062  1
  Fe  Fe26  1  0.67199920  0.67195328  0.33823856  1
  Fe  Fe27  1  0.17111265  0.17162722  0.50412913  1
  Fe  Fe28  1  1.00387119  0.00497848  0.67138867  1
  Fe  Fe29  1  0.17017045  0.17204996  0.83863914  1
  Fe  Fe30  1  0.17105427  0.50512826  0.50486549  1
  Ni  Ni31  1  1.00413801  0.33804203  0.67119682  1
  Fe  Fe32  1  0.17064785  0.50324871  0.83805397  1
  Ni  Ni33  1  0.17139844  0.83879156  0.50440227  1
  Fe  Fe34  1  1.00364919  0.67024882  0.67057682  1
  Fe  Fe35  1  0.17079753  0.83864230  0.83803098  1
  Fe  Fe36  1  0.50497973  0.17179220  0.50424501  1
  Fe  Fe37  1  0.33843931  0.00503454  0.67092492  1
  Ni  Ni38  1  0.50471422  0.17130414  0.83727843  1
  Ni  Ni39  1  0.50622164  0.50401976  0.50498560  1
  Fe  Fe40  1  0.33891898  0.33843747  0.67138634  1
  Fe  Fe41  1  0.50577216  0.50392961  0.83697189  1
  Fe  Fe42  1  0.50475532  0.83717221  0.50427939  1
  Fe  Fe43  1  0.33837969  0.67046967  0.67098366  1
  Fe  Fe44  1  0.50576999  0.83810877  0.83816617  1
  Fe  Fe45  1  0.83784790  0.17192413  0.50512581  1
  Fe  Fe46  1  0.67162909  0.00551573  0.67155088  1
  Ni  Ni47  1  0.83738586  0.17278429  0.83815477  1
  Ni  Ni48  1  0.83701384  0.50436803  0.50532862  1
  Ni  Ni49  1  0.67167285  0.33917096  0.67236911  1
  Ni  Ni50  1  0.83817341  0.50406821  0.83712814  1
  Fe  Fe51  1  0.83799979  0.83711283  0.50385580  1
  Ni  Ni52  1  0.67053675  0.67038720  0.67105130  1
  Fe  Fe53  1  0.83737255  0.83858609  0.83843904  1
" 