2087,Ni60Fe6Cr33_11,-226.218781575128, 153.21929500911,Ni60Fe6Cr33,"# generated using pymatgen
 data_Cr19Fe3Ni32
_symmetry_space_group_name_H-M   'P 1'
_cell_length_a   7.48485085
_cell_length_b   7.48485085
_cell_length_c   10.58517759
_cell_angle_alpha   90.00000000
_cell_angle_beta   90.00000000
_cell_angle_gamma   90.00000000
_symmetry_Int_Tables_number   1
_chemical_formula_structural   Cr19Fe3Ni32
_chemical_formula_sum   'Cr19 Fe3 Ni32'
_cell_volume   593.01332273
_cell_formula_units_Z   1
loop_
 _symmetry_equiv_pos_site_id
 _symmetry_equiv_pos_as_xyz
  1  'x, y, z'
loop_
 _atom_site_type_symbol
 _atom_site_label
 _atom_site_symmetry_multiplicity
 _atom_site_fract_x
 _atom_site_fract_y
 _atom_site_fract_z
 _atom_site_occupancy
  Ni  Ni0  1  -0.00053269  0.00163824  -0.00087894  1
  Fe  Fe1  1  0.16810077  0.16660737  0.16433334  1
  Cr  Cr2  1  0.00081755  0.99728871  0.33330140  1
  Ni  Ni3  1  0.00128761  0.32947586  0.99778743  1
  Ni  Ni4  1  0.16560369  0.49801812  0.16516626  1
  Ni  Ni5  1  0.00128147  0.33352148  0.33277287  1
  Cr  Cr6  1  0.00124003  0.66563393  0.00174227  1
  Ni  Ni7  1  0.16411716  0.83144819  0.16451682  1
  Ni  Ni8  1  0.99840051  0.66539526  0.33154474  1
  Ni  Ni9  1  0.33110594  -0.00000043  0.00047762  1
  Ni  Ni10  1  0.49737881  0.16873490  0.16503138  1
  Fe  Fe11  1  0.33073446  0.00207473  0.33221836  1
  Ni  Ni12  1  0.33137576  0.33308256  -0.00042120  1
  Ni  Ni13  1  0.49774346  0.49501513  0.16534939  1
  Ni  Ni14  1  0.33256714  0.33147771  0.33253868  1
  Ni  Ni15  1  0.33228561  0.66344349  0.99727948  1
  Cr  Cr16  1  0.49739237  0.83394128  0.16367247  1
  Cr  Cr17  1  0.33087174  0.66307744  0.33221701  1
  Ni  Ni18  1  0.66584217  0.00060308  0.99766888  1
  Cr  Cr19  1  0.83132858  0.16771712  0.16253058  1
  Cr  Cr20  1  0.66549938  -0.00059570  0.33364319  1
  Ni  Ni21  1  0.66387575  0.33067433  -0.00046444  1
  Fe  Fe22  1  0.83205456  0.49868372  0.16756797  1
  Ni  Ni23  1  0.66262403  0.33357516  0.33251881  1
  Cr  Cr24  1  0.66226522  0.66497966  0.00012869  1
  Ni  Ni25  1  0.83445288  0.83124535  0.16585360  1
  Ni  Ni26  1  0.66781492  0.66305334  0.33123836  1
  Ni  Ni27  1  0.16710627  0.16571105  0.49639048  1
  Cr  Cr28  1  0.99813539  0.00116660  0.66386712  1
  Ni  Ni29  1  0.16433945  0.16667796  0.83574583  1
  Ni  Ni30  1  0.16680784  0.49895555  0.49787847  1
  Cr  Cr31  1  0.00137773  0.32959601  0.66627439  1
  Ni  Ni32  1  0.16911088  0.49710791  0.83348136  1
  Ni  Ni33  1  0.16535469  0.83187486  0.49890690  1
  Cr  Cr34  1  0.00245545  0.66559567  0.66321623  1
  Cr  Cr35  1  0.17039761  0.83256176  0.83255245  1
  Ni  Ni36  1  0.49815816  0.16624460  0.49737847  1
  Ni  Ni37  1  0.33289026  0.99787669  0.66354574  1
  Cr  Cr38  1  0.49923571  0.16292731  0.83397362  1
  Ni  Ni39  1  0.49688934  0.49688166  0.49717926  1
  Cr  Cr40  1  0.33122572  0.33381991  0.66455767  1
  Ni  Ni41  1  0.49479849  0.50047318  0.83404922  1
  Cr  Cr42  1  0.49741204  0.83313631  0.50094007  1
  Ni  Ni43  1  0.33256397  0.66541265  0.66646586  1
  Ni  Ni44  1  0.49660734  0.83229356  0.83205939  1
  Ni  Ni45  1  0.83117621  0.16497299  0.49939555  1
  Ni  Ni46  1  0.66477624  -0.00076965  0.66492757  1
  Ni  Ni47  1  0.83280878  0.16500681  0.83436534  1
  Cr  Cr48  1  0.83281606  0.49830323  0.49396434  1
  Cr  Cr49  1  0.66395741  0.32946717  0.66461799  1
  Cr  Cr50  1  0.83320333  0.49435259  0.83454166  1
  Ni  Ni51  1  0.83318401  0.83314050  0.49773123  1
  Cr  Cr52  1  0.66175275  0.66665821  0.66589062  1
  Cr  Cr53  1  0.82970857  0.83652350  0.83254673  1
" 