5791,Ni60Fe6Cr33_3,-225.990256367476, 152.032048789589,Ni60Fe6Cr33,"# generated using pymatgen
 data_Cr19Fe3Ni32
_symmetry_space_group_name_H-M   'P 1'
_cell_length_a   7.48526858
_cell_length_b   7.48526858
_cell_length_c   10.58576835
_cell_angle_alpha   90.00000000
_cell_angle_beta   90.00000000
_cell_angle_gamma   90.00000000
_symmetry_Int_Tables_number   1
_chemical_formula_structural   Cr19Fe3Ni32
_chemical_formula_sum   'Cr19 Fe3 Ni32'
_cell_volume   593.11261581
_cell_formula_units_Z   1
loop_
 _symmetry_equiv_pos_site_id
 _symmetry_equiv_pos_as_xyz
  1  'x, y, z'
loop_
 _atom_site_type_symbol
 _atom_site_label
 _atom_site_symmetry_multiplicity
 _atom_site_fract_x
 _atom_site_fract_y
 _atom_site_fract_z
 _atom_site_occupancy
  Ni  Ni0  1  0.00278795  -0.00056891  0.99763247  1
  Ni  Ni1  1  0.16452527  0.16401990  0.16472675  1
  Ni  Ni2  1  0.00097929  -0.00121232  0.33357735  1
  Ni  Ni3  1  0.00466826  0.33041022  -0.00093023  1
  Ni  Ni4  1  0.16679586  0.49955909  0.16596736  1
  Ni  Ni5  1  0.00189360  0.33065089  0.33275637  1
  Cr  Cr6  1  0.00283505  0.66848029  0.99719745  1
  Ni  Ni7  1  0.16837587  0.83270681  0.16538844  1
  Ni  Ni8  1  0.00241926  0.66710069  0.33274430  1
  Fe  Fe9  1  0.32933562  0.99762727  -0.00120660  1
  Cr  Cr10  1  0.49567085  0.16299272  0.16451869  1
  Ni  Ni11  1  0.32873926  0.99653666  0.33043283  1
  Ni  Ni12  1  0.32973488  0.33431008  -0.00089059  1
  Ni  Ni13  1  0.49579527  0.50200551  0.16419300  1
  Cr  Cr14  1  0.32808071  0.33191544  0.33219503  1
  Ni  Ni15  1  0.33177679  0.66453129  0.99848663  1
  Ni  Ni16  1  0.49456889  0.83019816  0.16741522  1
  Ni  Ni17  1  0.32956182  0.66678878  0.33043683  1
  Cr  Cr18  1  0.66622059  0.99613116  0.99863393  1
  Cr  Cr19  1  0.83599306  0.16577148  0.16413958  1
  Ni  Ni20  1  0.66668703  0.99615924  0.33340504  1
  Ni  Ni21  1  0.66190753  0.33325108  0.99837972  1
  Cr  Cr22  1  0.83482950  0.49808441  0.16518888  1
  Cr  Cr23  1  0.66469607  0.33106048  0.33176759  1
  Cr  Cr24  1  0.66225458  0.66655563  0.99809035  1
  Cr  Cr25  1  0.83474558  0.83258386  0.16896801  1
  Ni  Ni26  1  0.66434316  0.66838177  0.33044684  1
  Ni  Ni27  1  0.16151363  0.16230844  0.49874298  1
  Ni  Ni28  1  -0.00025695  -0.00013504  0.66514771  1
  Ni  Ni29  1  0.16470307  0.16475911  0.83278743  1
  Ni  Ni30  1  0.16337048  0.50104127  0.49789769  1
  Ni  Ni31  1  0.00089106  0.32957311  0.66455046  1
  Ni  Ni32  1  0.16792100  0.49755753  0.83228051  1
  Ni  Ni33  1  0.16582529  0.83297326  0.49872893  1
  Cr  Cr34  1  0.00223048  0.66761639  0.66636825  1
  Fe  Fe35  1  0.16763276  0.83375234  0.83200041  1
  Cr  Cr36  1  0.49850542  0.16097974  0.50062917  1
  Ni  Ni37  1  0.32901144  0.99685690  0.66689372  1
  Cr  Cr38  1  0.49606509  0.16479585  0.83107243  1
  Cr  Cr39  1  0.49672482  0.50254818  0.49944795  1
  Cr  Cr40  1  0.32883453  0.33322114  0.66409022  1
  Ni  Ni41  1  0.49532646  0.50022887  0.83278441  1
  Cr  Cr42  1  0.49500794  0.83284651  0.49748649  1
  Ni  Ni43  1  0.33019268  0.66703296  0.66729751  1
  Ni  Ni44  1  0.49551552  0.83164019  0.83122431  1
  Ni  Ni45  1  0.83524368  0.16351300  0.50000155  1
  Ni  Ni46  1  0.66742277  0.99841912  0.66511156  1
  Cr  Cr47  1  0.83505528  0.16570855  0.83239866  1
  Cr  Cr48  1  0.83470543  0.49786099  0.49779537  1
  Ni  Ni49  1  0.66662114  0.33028348  0.66626088  1
  Cr  Cr50  1  0.83396643  0.49605538  0.83338372  1
  Fe  Fe51  1  0.83440489  0.83433605  0.49782880  1
  Cr  Cr52  1  0.66482585  0.66724449  0.66814333  1
  Ni  Ni53  1  0.83279362  0.83522591  0.83025969  1
" 