8851,Ni60Fe27Cr12_19,-235.944411654079, 200.695969106099,Ni60Fe27Cr12,"# generated using pymatgen
 data_Cr4Fe7Ni16
_symmetry_space_group_name_H-M   'P 1'
_cell_length_a   7.43253091
_cell_length_b   7.43253091
_cell_length_c   10.51118601
_cell_angle_alpha   90.00000000
_cell_angle_beta   90.00000000
_cell_angle_gamma   90.00000000
_symmetry_Int_Tables_number   1
_chemical_formula_structural   Cr4Fe7Ni16
_chemical_formula_sum   'Cr8 Fe14 Ni32'
_cell_volume   580.66435769
_cell_formula_units_Z   2
loop_
 _symmetry_equiv_pos_site_id
 _symmetry_equiv_pos_as_xyz
  1  'x, y, z'
loop_
 _atom_site_type_symbol
 _atom_site_label
 _atom_site_symmetry_multiplicity
 _atom_site_fract_x
 _atom_site_fract_y
 _atom_site_fract_z
 _atom_site_occupancy
  Fe  Fe0  1  1.00174879  0.00265631  0.00293064  1
  Ni  Ni1  1  0.17025318  0.16844167  0.16965922  1
  Ni  Ni2  1  1.00177209  1.00043209  0.33494330  1
  Cr  Cr3  1  1.00091494  0.33463866  0.00360543  1
  Ni  Ni4  1  0.17059156  0.50224163  0.16986300  1
  Cr  Cr5  1  0.00419298  0.33490976  0.33544726  1
  Cr  Cr6  1  1.00167985  0.67058884  0.00356009  1
  Ni  Ni7  1  0.17048907  0.83628301  0.16887282  1
  Ni  Ni8  1  0.00360120  0.67177925  0.33473255  1
  Ni  Ni9  1  0.33549471  0.00290000  0.00331744  1
  Fe  Fe10  1  0.50184442  0.16771262  0.16815028  1
  Fe  Fe11  1  0.33488912  1.00044397  0.33467984  1
  Fe  Fe12  1  0.33831637  0.33461260  0.00298806  1
  Fe  Fe13  1  0.50184231  0.50354378  0.16805028  1
  Ni  Ni14  1  0.33461905  0.33707481  0.33467299  1
  Fe  Fe15  1  0.33827818  0.66939253  0.00401204  1
  Ni  Ni16  1  0.50278479  0.83594896  0.16952748  1
  Ni  Ni17  1  0.33539540  0.66898300  0.33544414  1
  Ni  Ni18  1  0.66824785  0.00331821  0.00314653  1
  Ni  Ni19  1  0.83497078  0.16739676  0.16805944  1
  Ni  Ni20  1  0.67028913  0.99966040  0.33504505  1
  Ni  Ni21  1  0.66770237  0.33573877  1.00230155  1
  Ni  Ni22  1  0.83463541  0.50328367  0.16859097  1
  Cr  Cr23  1  0.66814937  0.33530286  0.33337377  1
  Ni  Ni24  1  0.66845486  0.66791125  0.00308686  1
  Ni  Ni25  1  0.83369422  0.83628525  0.16998949  1
  Ni  Ni26  1  0.66796824  0.67206344  0.33485422  1
  Fe  Fe27  1  0.16777291  0.16766647  0.50358549  1
  Ni  Ni28  1  0.00284689  1.00215389  0.66986498  1
  Ni  Ni29  1  0.16954323  0.16734829  0.83419535  1
  Ni  Ni30  1  0.17069599  0.50310529  0.50323017  1
  Ni  Ni31  1  1.00164088  0.33428839  0.66856773  1
  Cr  Cr32  1  0.16970152  0.50142255  0.83402607  1
  Ni  Ni33  1  0.16978701  0.83474410  0.50292927  1
  Ni  Ni34  1  0.00284623  0.67052170  0.66886645  1
  Fe  Fe35  1  0.16856410  0.83745693  0.83429711  1
  Cr  Cr36  1  0.50192612  0.16719235  0.50311414  1
  Ni  Ni37  1  0.33364493  1.00191497  0.66856116  1
  Fe  Fe38  1  0.50207554  0.17144694  0.83556256  1
  Fe  Fe39  1  0.49983842  0.50505153  0.50348302  1
  Ni  Ni40  1  0.33618267  0.33586045  0.66940913  1
  Ni  Ni41  1  0.50447364  0.50117555  0.83536410  1
  Ni  Ni42  1  0.50212056  0.83514911  0.50208957  1
  Ni  Ni43  1  0.33521891  0.66919090  0.66771202  1
  Cr  Cr44  1  0.50226553  0.83566893  0.83512872  1
  Ni  Ni45  1  0.83653967  0.16631592  0.50428139  1
  Fe  Fe46  1  0.67051898  0.00260849  0.66811480  1
  Fe  Fe47  1  0.83474468  0.16957939  0.83471067  1
  Cr  Cr48  1  0.83730293  0.50317514  0.50355725  1
  Ni  Ni49  1  0.66914180  0.33586136  0.67131363  1
  Ni  Ni50  1  0.83266101  0.50164583  0.83414295  1
  Ni  Ni51  1  0.83505731  0.83728749  0.50211132  1
  Fe  Fe52  1  0.66892655  0.66845707  0.66920153  1
  Fe  Fe53  1  0.83652985  0.83555495  0.83506280  1
" 