2822,Ni60Fe27Cr12_10,-236.23450299167, 201.406934319417,Ni60Fe27Cr12,"# generated using pymatgen
 data_Cr4Fe7Ni16
_symmetry_space_group_name_H-M   'P 1'
_cell_length_a   7.43660348
_cell_length_b   7.43660348
_cell_length_c   10.51694549
_cell_angle_alpha   90.00000000
_cell_angle_beta   90.00000000
_cell_angle_gamma   90.00000000
_symmetry_Int_Tables_number   1
_chemical_formula_structural   Cr4Fe7Ni16
_chemical_formula_sum   'Cr8 Fe14 Ni32'
_cell_volume   581.61938610
_cell_formula_units_Z   2
loop_
 _symmetry_equiv_pos_site_id
 _symmetry_equiv_pos_as_xyz
  1  'x, y, z'
loop_
 _atom_site_type_symbol
 _atom_site_label
 _atom_site_symmetry_multiplicity
 _atom_site_fract_x
 _atom_site_fract_y
 _atom_site_fract_z
 _atom_site_occupancy
  Ni  Ni0  1  1.00112352  1.00129211  0.00207362  1
  Cr  Cr1  1  0.16765060  0.17000421  0.16789069  1
  Ni  Ni2  1  1.00008636  0.99982641  0.33525326  1
  Fe  Fe3  1  0.00447821  0.33497154  1.00117566  1
  Ni  Ni4  1  0.16792252  0.50346090  0.16781025  1
  Fe  Fe5  1  0.00269205  0.33706052  0.33635190  1
  Ni  Ni6  1  0.00358162  0.66950374  0.00271231  1
  Ni  Ni7  1  0.16723303  0.83213720  0.16778650  1
  Ni  Ni8  1  1.00202058  0.66902463  0.33635388  1
  Ni  Ni9  1  0.33538413  0.00214358  1.00118483  1
  Cr  Cr10  1  0.50299898  0.16742965  0.16965118  1
  Cr  Cr11  1  0.33462450  1.00065357  0.33780819  1
  Ni  Ni12  1  0.33393531  0.33638044  0.99944531  1
  Fe  Fe13  1  0.49955563  0.50400685  0.17099177  1
  Ni  Ni14  1  0.33669135  0.33886233  0.33803593  1
  Fe  Fe15  1  0.33416529  0.66892909  0.00309409  1
  Ni  Ni16  1  0.50339415  0.83458815  0.16797749  1
  Ni  Ni17  1  0.33488938  0.66635723  0.33431175  1
  Ni  Ni18  1  0.66963724  1.00127821  1.00052318  1
  Fe  Fe19  1  0.83614033  0.16637488  0.16978424  1
  Ni  Ni20  1  0.67080294  1.00163262  0.33514422  1
  Cr  Cr21  1  0.66789383  0.33421399  1.00147510  1
  Fe  Fe22  1  0.83739678  0.50326867  0.17049538  1
  Ni  Ni23  1  0.66814102  0.33693427  0.33565616  1
  Cr  Cr24  1  0.66828334  0.67091230  0.00351236  1
  Ni  Ni25  1  0.83551126  0.83563876  0.16901080  1
  Fe  Fe26  1  0.66859192  0.66936053  0.33619041  1
  Ni  Ni27  1  0.17017364  0.17045128  0.50267707  1
  Ni  Ni28  1  0.00257844  0.00300197  0.66881450  1
  Ni  Ni29  1  0.16993432  0.17130793  0.83605314  1
  Ni  Ni30  1  0.16848149  0.50114784  0.50196376  1
  Ni  Ni31  1  0.00328795  0.33481187  0.66912947  1
  Ni  Ni32  1  0.16917500  0.49931056  0.83636983  1
  Fe  Fe33  1  0.16833231  0.83448740  0.50236294  1
  Fe  Fe34  1  0.00208153  0.66877839  0.66724217  1
  Cr  Cr35  1  0.16848646  0.83497419  0.83623423  1
  Ni  Ni36  1  0.50046390  0.16910779  0.50243635  1
  Ni  Ni37  1  0.33548739  0.00280503  0.66759775  1
  Ni  Ni38  1  0.50076583  0.16708849  0.83476727  1
  Ni  Ni39  1  0.50166684  0.50199554  0.50170495  1
  Fe  Fe40  1  0.33448893  0.33506743  0.66859423  1
  Fe  Fe41  1  0.49859715  0.50241092  0.83341106  1
  Ni  Ni42  1  0.50360501  0.83503957  0.50250539  1
  Ni  Ni43  1  0.33749938  0.66802618  0.66868005  1
  Ni  Ni44  1  0.50400402  0.83781556  0.83565651  1
  Cr  Cr45  1  0.83533357  0.16830208  0.50133077  1
  Fe  Fe46  1  0.66751149  1.00023226  0.66953194  1
  Fe  Fe47  1  0.83669771  0.16568102  0.83469494  1
  Ni  Ni48  1  0.83599058  0.50428355  0.50135693  1
  Fe  Fe49  1  0.66703603  0.33553365  0.66795257  1
  Cr  Cr50  1  0.83828137  0.50349547  0.83322314  1
  Ni  Ni51  1  0.83465322  0.83334463  0.50217481  1
  Ni  Ni52  1  0.66758065  0.66873631  0.66740899  1
  Ni  Ni53  1  0.83351312  0.83704992  0.83495799  1
" 