2799,Ni60Fe32Cr6_15,-238.921006563663, 208.194618517689,Ni60Fe32Cr6,"# generated using pymatgen
 data_Cr5Fe17Ni32
_symmetry_space_group_name_H-M   'P 1'
_cell_length_a   7.42703982
_cell_length_b   7.42703982
_cell_length_c   10.50342044
_cell_angle_alpha   90.00000000
_cell_angle_beta   90.00000000
_cell_angle_gamma   90.00000000
_symmetry_Int_Tables_number   1
_chemical_formula_structural   Cr5Fe17Ni32
_chemical_formula_sum   'Cr5 Fe17 Ni32'
_cell_volume   579.37834007
_cell_formula_units_Z   1
loop_
 _symmetry_equiv_pos_site_id
 _symmetry_equiv_pos_as_xyz
  1  'x, y, z'
loop_
 _atom_site_type_symbol
 _atom_site_label
 _atom_site_symmetry_multiplicity
 _atom_site_fract_x
 _atom_site_fract_y
 _atom_site_fract_z
 _atom_site_occupancy
  Ni  Ni0  1  0.00375502  1.00201693  1.00173927  1
  Ni  Ni1  1  0.16850574  0.16919021  0.16906179  1
  Ni  Ni2  1  0.00455370  1.00193854  0.33683488  1
  Ni  Ni3  1  0.00345503  0.33613269  1.00265563  1
  Ni  Ni4  1  0.16887956  0.50242596  0.16942838  1
  Fe  Fe5  1  1.00217139  0.33579786  0.33571525  1
  Ni  Ni6  1  1.00225662  0.66993081  0.00269371  1
  Ni  Ni7  1  0.16672572  0.83646473  0.16859868  1
  Ni  Ni8  1  1.00215054  0.67012512  0.33622785  1
  Ni  Ni9  1  0.33243751  0.00382340  1.00171206  1
  Cr  Cr10  1  0.50222710  0.17131264  0.16804498  1
  Ni  Ni11  1  0.33241610  1.00260746  0.33795684  1
  Ni  Ni12  1  0.33517352  0.33676311  1.00264858  1
  Ni  Ni13  1  0.50345460  0.50184130  0.16886466  1
  Fe  Fe14  1  0.33441580  0.33778436  0.33538060  1
  Fe  Fe15  1  0.33447772  0.66746189  0.00276492  1
  Cr  Cr16  1  0.50325602  0.83477722  0.16895039  1
  Fe  Fe17  1  0.33523703  0.66885953  0.33671783  1
  Ni  Ni18  1  0.67189308  1.00262510  0.00333927  1
  Fe  Fe19  1  0.83819209  0.16979442  0.16885146  1
  Fe  Fe20  1  0.67290702  1.00118378  0.33729441  1
  Ni  Ni21  1  0.66945478  0.33826176  1.00177877  1
  Ni  Ni22  1  0.83574162  0.50362193  0.16887659  1
  Ni  Ni23  1  0.66987871  0.33897988  0.33653262  1
  Ni  Ni24  1  0.67126104  0.66719408  1.00181648  1
  Ni  Ni25  1  0.83829588  0.83487194  0.16893367  1
  Ni  Ni26  1  0.67054766  0.66683655  0.33825888  1
  Ni  Ni27  1  0.16829765  0.16810520  0.50276377  1
  Fe  Fe28  1  1.00218192  1.00225375  0.66931471  1
  Ni  Ni29  1  0.16766078  0.16887261  0.83625402  1
  Fe  Fe30  1  0.16796230  0.50301277  0.50250245  1
  Fe  Fe31  1  1.00199371  0.33510112  0.66953518  1
  Fe  Fe32  1  0.16874225  0.50270113  0.83679034  1
  Ni  Ni33  1  0.16852371  0.83672745  0.50245650  1
  Ni  Ni34  1  0.00295589  0.66946577  0.66916112  1
  Ni  Ni35  1  0.16672993  0.83656123  0.83702486  1
  Cr  Cr36  1  0.50258663  0.16997673  0.50262393  1
  Fe  Fe37  1  0.33268209  1.00137783  0.66848040  1
  Cr  Cr38  1  0.50269518  0.17157215  0.83740673  1
  Ni  Ni39  1  0.50380914  0.50377618  0.50215458  1
  Fe  Fe40  1  0.33460435  0.33772324  0.66987859  1
  Ni  Ni41  1  0.50313929  0.50205904  0.83705932  1
  Fe  Fe42  1  0.50338631  0.83500327  0.50255956  1
  Fe  Fe43  1  0.33542405  0.66898234  0.66859939  1
  Cr  Cr44  1  0.50309219  0.83442037  0.83696375  1
  Ni  Ni45  1  0.83746941  0.16930402  0.50219677  1
  Ni  Ni46  1  0.67114791  1.00236238  0.66751349  1
  Ni  Ni47  1  0.83787799  0.16912713  0.83651057  1
  Ni  Ni48  1  0.83474828  0.50354685  0.50298685  1
  Fe  Fe49  1  0.67148119  0.33784689  0.66893424  1
  Fe  Fe50  1  0.83652137  0.50295588  0.83666382  1
  Ni  Ni51  1  0.83694488  0.83522635  0.50273092  1
  Fe  Fe52  1  0.67060151  0.66879504  0.66828314  1
  Ni  Ni53  1  0.83846241  0.83596299  0.83641546  1
" 