4830,Ni60Fe40_17,-238.901814994415, 217.327783871723,Ni60Fe40,"# generated using pymatgen
 data_Fe16Ni11
_symmetry_space_group_name_H-M   'P 1'
_cell_length_a   7.39536572
_cell_length_b   7.39536572
_cell_length_c   10.45862650
_cell_angle_alpha   90.00000000
_cell_angle_beta   90.00000000
_cell_angle_gamma   90.00000000
_symmetry_Int_Tables_number   1
_chemical_formula_structural   Fe16Ni11
_chemical_formula_sum   'Fe32 Ni22'
_cell_volume   571.99728225
_cell_formula_units_Z   2
loop_
 _symmetry_equiv_pos_site_id
 _symmetry_equiv_pos_as_xyz
  1  'x, y, z'
loop_
 _atom_site_type_symbol
 _atom_site_label
 _atom_site_symmetry_multiplicity
 _atom_site_fract_x
 _atom_site_fract_y
 _atom_site_fract_z
 _atom_site_occupancy
  Ni  Ni0  1  0.00568121  1.00465160  1.00447774  1
  Fe  Fe1  1  0.17222215  0.17145365  0.17056606  1
  Ni  Ni2  1  1.00450409  0.00505741  0.33839685  1
  Fe  Fe3  1  0.00538822  0.33746898  0.00505477  1
  Ni  Ni4  1  0.17055844  0.50569358  0.17016659  1
  Fe  Fe5  1  1.00370383  0.33834426  0.33834444  1
  Fe  Fe6  1  0.00555016  0.67265017  0.00489205  1
  Ni  Ni7  1  0.17139722  0.83792234  0.17182793  1
  Fe  Fe8  1  1.00443636  0.67184351  0.33783734  1
  Ni  Ni9  1  0.33724976  0.00502781  0.00513200  1
  Ni  Ni10  1  0.50570747  0.17092909  0.17140820  1
  Fe  Fe11  1  0.33939951  1.00398181  0.33788612  1
  Fe  Fe12  1  0.33798556  0.33747744  1.00448205  1
  Ni  Ni13  1  0.50531885  0.50446801  0.17294505  1
  Fe  Fe14  1  0.33880086  0.33805938  0.33854449  1
  Fe  Fe15  1  0.33760918  0.67243090  0.00534915  1
  Ni  Ni16  1  0.50447185  0.83913855  0.17064400  1
  Fe  Fe17  1  0.33843988  0.67250022  0.33775540  1
  Fe  Fe18  1  0.67138625  1.00479653  0.00497292  1
  Fe  Fe19  1  0.83805595  0.17145924  0.17229723  1
  Ni  Ni20  1  0.67214189  1.00381879  0.33711172  1
  Fe  Fe21  1  0.67116803  0.33769933  0.00527219  1
  Ni  Ni22  1  0.83866150  0.50446124  0.17171461  1
  Fe  Fe23  1  0.67203618  0.33738107  0.33780686  1
  Fe  Fe24  1  0.67137879  0.67204096  0.00538969  1
  Fe  Fe25  1  0.83768822  0.83752139  0.17143963  1
  Ni  Ni26  1  0.67129329  0.67122728  0.33809067  1
  Fe  Fe27  1  0.17214324  0.17148109  0.50571507  1
  Fe  Fe28  1  0.00525439  0.00534115  0.67217704  1
  Ni  Ni29  1  0.17125483  0.17058946  0.83752326  1
  Ni  Ni30  1  0.17095281  0.50515737  0.50560066  1
  Fe  Fe31  1  0.00547910  0.33714310  0.67113800  1
  Fe  Fe32  1  0.17157697  0.50504785  0.83764092  1
  Fe  Fe33  1  0.17185745  0.83908756  0.50484741  1
  Fe  Fe34  1  0.00562875  0.67205840  0.67180546  1
  Ni  Ni35  1  0.17042187  0.83930388  0.83731006  1
  Ni  Ni36  1  0.50635335  0.17038233  0.50559321  1
  Ni  Ni37  1  0.33854099  0.00587671  0.67120690  1
  Fe  Fe38  1  0.50391151  0.17068644  0.83767502  1
  Fe  Fe39  1  0.50482795  0.50434972  0.50509218  1
  Ni  Ni40  1  0.33769623  0.33826308  0.67205627  1
  Ni  Ni41  1  0.50502509  0.50426715  0.83759388  1
  Ni  Ni42  1  0.50512061  0.83938518  0.50560569  1
  Fe  Fe43  1  0.33859150  0.67184821  0.67143206  1
  Fe  Fe44  1  0.50429825  0.83872108  0.83780709  1
  Ni  Ni45  1  0.83723426  0.17122879  0.50541017  1
  Ni  Ni46  1  0.67126341  1.00426401  0.67212560  1
  Fe  Fe47  1  0.83876488  0.17066634  0.83768557  1
  Fe  Fe48  1  0.83756426  0.50463491  0.50414374  1
  Fe  Fe49  1  0.67038232  0.33704730  0.67146692  1
  Fe  Fe50  1  0.83866215  0.50543544  0.83875557  1
  Fe  Fe51  1  0.83724716  0.83902874  0.50500084  1
  Fe  Fe52  1  0.67031710  0.67206746  0.67147810  1
  Ni  Ni53  1  0.83910078  0.83883868  0.83801351  1
" 