4297,Ni60Fe27Cr12_4,-236.130960933523, 202.57904299645,Ni60Fe27Cr12,"# generated using pymatgen
 data_Cr4Fe7Ni16
_symmetry_space_group_name_H-M   'P 1'
_cell_length_a   7.43304659
_cell_length_b   7.43304659
_cell_length_c   10.51191530
_cell_angle_alpha   90.00000000
_cell_angle_beta   90.00000000
_cell_angle_gamma   90.00000000
_symmetry_Int_Tables_number   1
_chemical_formula_structural   Cr4Fe7Ni16
_chemical_formula_sum   'Cr8 Fe14 Ni32'
_cell_volume   580.78523035
_cell_formula_units_Z   2
loop_
 _symmetry_equiv_pos_site_id
 _symmetry_equiv_pos_as_xyz
  1  'x, y, z'
loop_
 _atom_site_type_symbol
 _atom_site_label
 _atom_site_symmetry_multiplicity
 _atom_site_fract_x
 _atom_site_fract_y
 _atom_site_fract_z
 _atom_site_occupancy
  Ni  Ni0  1  0.00279520  1.00211845  0.00331468  1
  Cr  Cr1  1  0.17082623  0.16672308  0.17107124  1
  Ni  Ni2  1  1.00192591  1.00101341  0.33725606  1
  Cr  Cr3  1  0.00320082  0.33741031  1.00075570  1
  Fe  Fe4  1  0.17206908  0.50416045  0.16921515  1
  Cr  Cr5  1  0.00336329  0.33549480  0.33863368  1
  Fe  Fe6  1  0.00394928  0.67044142  0.00310899  1
  Ni  Ni7  1  0.17025186  0.83785541  0.16769968  1
  Cr  Cr8  1  0.00262792  0.67089005  0.33370088  1
  Ni  Ni9  1  0.33681366  1.00112423  1.00082545  1
  Fe  Fe10  1  0.50194646  0.16628500  0.17055652  1
  Ni  Ni11  1  0.33665826  1.00167502  0.33754594  1
  Ni  Ni12  1  0.33584140  0.33633572  1.00003323  1
  Ni  Ni13  1  0.50149668  0.50171417  0.17225341  1
  Ni  Ni14  1  0.33784404  0.33623901  0.33707386  1
  Ni  Ni15  1  0.33545536  0.66951959  0.00359986  1
  Ni  Ni16  1  0.50156155  0.83446613  0.17078367  1
  Fe  Fe17  1  0.33601999  0.67150929  0.33631220  1
  Ni  Ni18  1  0.66688291  1.00129070  1.00221785  1
  Fe  Fe19  1  0.83402935  0.16527345  0.17016758  1
  Ni  Ni20  1  0.66803772  0.99976471  0.33548528  1
  Cr  Cr21  1  0.66710315  0.33407492  0.00339847  1
  Ni  Ni22  1  0.83222306  0.50295936  0.17090503  1
  Fe  Fe23  1  0.66799501  0.33388189  0.33656612  1
  Cr  Cr24  1  0.66731725  0.67000798  1.00121692  1
  Ni  Ni25  1  0.83524637  0.83658809  0.16891209  1
  Ni  Ni26  1  0.66769871  0.66930416  0.33740393  1
  Fe  Fe27  1  0.17222233  0.16908637  0.50360878  1
  Ni  Ni28  1  0.00359732  0.00244276  0.66618885  1
  Ni  Ni29  1  0.16885924  0.16734637  0.83225866  1
  Ni  Ni30  1  0.17227313  0.50390567  0.50402198  1
  Ni  Ni31  1  0.00257594  0.33532289  0.66775705  1
  Fe  Fe32  1  0.16993571  0.50433018  0.83294311  1
  Ni  Ni33  1  0.16843703  0.83668125  0.50223617  1
  Ni  Ni34  1  0.00366434  0.66939953  0.66892610  1
  Ni  Ni35  1  0.17050315  0.83759416  0.83677856  1
  Ni  Ni36  1  0.50253940  0.16978478  0.50147862  1
  Ni  Ni37  1  0.33549969  1.00107942  0.66836468  1
  Fe  Fe38  1  0.50080175  0.16631258  0.83494163  1
  Ni  Ni39  1  0.50111517  0.50257697  0.50095483  1
  Ni  Ni40  1  0.33516838  0.33566083  0.66940198  1
  Ni  Ni41  1  0.49953255  0.50335785  0.83451975  1
  Fe  Fe42  1  0.50123651  0.83651914  0.50234514  1
  Ni  Ni43  1  0.33535828  0.67048001  0.66763820  1
  Ni  Ni44  1  0.49937198  0.83452120  0.83336675  1
  Ni  Ni45  1  0.83547125  0.16626823  0.50141724  1
  Fe  Fe46  1  0.66806475  0.00260363  0.66781590  1
  Ni  Ni47  1  0.83841721  0.16772015  0.83604042  1
  Fe  Fe48  1  0.83547280  0.50339710  0.50370397  1
  Cr  Cr49  1  0.66798322  0.33495550  0.66983515  1
  Ni  Ni50  1  0.83539745  0.50178188  0.83269260  1
  Fe  Fe51  1  0.83461340  0.83569517  0.50252666  1
  Fe  Fe52  1  0.66677254  0.66944231  0.66778215  1
  Cr  Cr53  1  0.83744120  0.83711945  0.83394779  1
" 