6624,Ni60Fe40_12,-239.157201348625, 218.829947249389,Ni60Fe40,"# generated using pymatgen
 data_Fe16Ni11
_symmetry_space_group_name_H-M   'P 1'
_cell_length_a   7.39357899
_cell_length_b   7.39357899
_cell_length_c   10.45609968
_cell_angle_alpha   90.00000000
_cell_angle_beta   90.00000000
_cell_angle_gamma   90.00000000
_symmetry_Int_Tables_number   1
_chemical_formula_structural   Fe16Ni11
_chemical_formula_sum   'Fe32 Ni22'
_cell_volume   571.58279686
_cell_formula_units_Z   2
loop_
 _symmetry_equiv_pos_site_id
 _symmetry_equiv_pos_as_xyz
  1  'x, y, z'
loop_
 _atom_site_type_symbol
 _atom_site_label
 _atom_site_symmetry_multiplicity
 _atom_site_fract_x
 _atom_site_fract_y
 _atom_site_fract_z
 _atom_site_occupancy
  Fe  Fe0  1  1.00483736  0.00513170  0.00540302  1
  Ni  Ni1  1  0.17125860  0.17210774  0.17172034  1
  Ni  Ni2  1  1.00470616  1.00475014  0.33857141  1
  Fe  Fe3  1  0.00506617  0.33816805  0.00525314  1
  Fe  Fe4  1  0.17137854  0.50454320  0.17171486  1
  Ni  Ni5  1  0.00526395  0.33825989  0.33811935  1
  Fe  Fe6  1  1.00496310  0.67160432  1.00466257  1
  Fe  Fe7  1  0.17126892  0.83866819  0.17158083  1
  Ni  Ni8  1  1.00470340  0.67189535  0.33819490  1
  Ni  Ni9  1  0.33823814  0.00538900  1.00480089  1
  Fe  Fe10  1  0.50496219  0.17187209  0.17140508  1
  Fe  Fe11  1  0.33767612  0.00525927  0.33824504  1
  Ni  Ni12  1  0.33862781  0.33774464  1.00470112  1
  Ni  Ni13  1  0.50465488  0.50484474  0.17179831  1
  Ni  Ni14  1  0.33840843  0.33808478  0.33830894  1
  Fe  Fe15  1  0.33879719  0.67137025  1.00451095  1
  Fe  Fe16  1  0.50520099  0.83848528  0.17147846  1
  Fe  Fe17  1  0.33784745  0.67140288  0.33864021  1
  Fe  Fe18  1  0.67131509  0.00509622  1.00457037  1
  Ni  Ni19  1  0.83881510  0.17137200  0.17184202  1
  Fe  Fe20  1  0.67212967  0.00515678  0.33871479  1
  Ni  Ni21  1  0.67126437  0.33852066  0.00501706  1
  Fe  Fe22  1  0.83825811  0.50478158  0.17167214  1
  Fe  Fe23  1  0.67202806  0.33824238  0.33805223  1
  Ni  Ni24  1  0.67199888  0.67155549  1.00439737  1
  Ni  Ni25  1  0.83842482  0.83851856  0.17193398  1
  Fe  Fe26  1  0.67195724  0.67150622  0.33790244  1
  Fe  Fe27  1  0.17199619  0.17154334  0.50430059  1
  Fe  Fe28  1  1.00492521  1.00435441  0.67160223  1
  Fe  Fe29  1  0.17202224  0.17118177  0.83879602  1
  Fe  Fe30  1  0.17198951  0.50506525  0.50517157  1
  Fe  Fe31  1  0.00502887  0.33866724  0.67146850  1
  Ni  Ni32  1  0.17155291  0.50508516  0.83849524  1
  Fe  Fe33  1  0.17189753  0.83829554  0.50519471  1
  Ni  Ni34  1  0.00527259  0.67180252  0.67168508  1
  Ni  Ni35  1  0.17138147  0.83761515  0.83822005  1
  Ni  Ni36  1  0.50492462  0.17154603  0.50435336  1
  Fe  Fe37  1  0.33863885  1.00441534  0.67192172  1
  Ni  Ni38  1  0.50506354  0.17164023  0.83857838  1
  Fe  Fe39  1  0.50477422  0.50493112  0.50462892  1
  Fe  Fe40  1  0.33836276  0.33843374  0.67165820  1
  Fe  Fe41  1  0.50477199  0.50538283  0.83883342  1
  Ni  Ni42  1  0.50509722  0.83847017  0.50491917  1
  Ni  Ni43  1  0.33796011  0.67163057  0.67194435  1
  Ni  Ni44  1  0.50523378  0.83856447  0.83836087  1
  Fe  Fe45  1  0.83790301  0.17134910  0.50468356  1
  Ni  Ni46  1  0.67149852  0.00506610  0.67206764  1
  Fe  Fe47  1  0.83814098  0.17125203  0.83841549  1
  Fe  Fe48  1  0.83814143  0.50502946  0.50490865  1
  Fe  Fe49  1  0.67151343  0.33829009  0.67178669  1
  Fe  Fe50  1  0.83824918  0.50548490  0.83832188  1
  Fe  Fe51  1  0.83803784  0.83852718  0.50493280  1
  Fe  Fe52  1  0.67157485  0.67215967  0.67188325  1
  Ni  Ni53  1  0.83829034  0.83817916  0.83794981  1
" 