4740,Ni60Fe40_2,-239.041655313231, 221.19254791939,Ni60Fe40,"# generated using pymatgen
 data_Fe16Ni11
_symmetry_space_group_name_H-M   'P 1'
_cell_length_a   7.39631065
_cell_length_b   7.39631065
_cell_length_c   10.45996284
_cell_angle_alpha   90.00000000
_cell_angle_beta   90.00000000
_cell_angle_gamma   90.00000000
_symmetry_Int_Tables_number   1
_chemical_formula_structural   Fe16Ni11
_chemical_formula_sum   'Fe32 Ni22'
_cell_volume   572.21656886
_cell_formula_units_Z   2
loop_
 _symmetry_equiv_pos_site_id
 _symmetry_equiv_pos_as_xyz
  1  'x, y, z'
loop_
 _atom_site_type_symbol
 _atom_site_label
 _atom_site_symmetry_multiplicity
 _atom_site_fract_x
 _atom_site_fract_y
 _atom_site_fract_z
 _atom_site_occupancy
  Ni  Ni0  1  1.00417991  0.00493400  0.00495872  1
  Ni  Ni1  1  0.17090080  0.17048982  0.17057501  1
  Fe  Fe2  1  1.00465693  1.00412737  0.33776399  1
  Ni  Ni3  1  0.00569442  0.33786022  1.00362258  1
  Fe  Fe4  1  0.17193277  0.50445901  0.17098507  1
  Ni  Ni5  1  0.00533021  0.33827550  0.33856835  1
  Fe  Fe6  1  1.00456144  0.67105811  1.00408228  1
  Ni  Ni7  1  0.17090348  0.83987725  0.17093354  1
  Fe  Fe8  1  1.00403527  0.67171453  0.33886188  1
  Fe  Fe9  1  0.33751043  0.00633028  1.00451011  1
  Fe  Fe10  1  0.50438896  0.17130184  0.17089158  1
  Fe  Fe11  1  0.33823490  1.00410405  0.33838680  1
  Ni  Ni12  1  0.33774133  0.33901581  0.00543528  1
  Ni  Ni13  1  0.50588649  0.50469951  0.17110046  1
  Fe  Fe14  1  0.33885384  0.33871934  0.33791321  1
  Fe  Fe15  1  0.33806736  0.67085109  0.00560918  1
  Fe  Fe16  1  0.50423090  0.83818146  0.17239508  1
  Ni  Ni17  1  0.33907145  0.67108979  0.33918301  1
  Ni  Ni18  1  0.67205255  1.00457602  1.00442453  1
  Fe  Fe19  1  0.83852019  0.17137557  0.17096752  1
  Ni  Ni20  1  0.67144819  1.00347800  0.33865587  1
  Ni  Ni21  1  0.67091285  0.33784805  0.00547761  1
  Fe  Fe22  1  0.83873735  0.50430010  0.17191907  1
  Fe  Fe23  1  0.67126125  0.33934692  0.33792557  1
  Fe  Fe24  1  0.67171950  0.67070261  0.00537374  1
  Fe  Fe25  1  0.83810923  0.83866886  0.17176229  1
  Ni  Ni26  1  0.67029926  0.67260322  0.33820383  1
  Fe  Fe27  1  0.17144990  0.17152379  0.50526099  1
  Ni  Ni28  1  0.00483126  1.00372667  0.67090046  1
  Ni  Ni29  1  0.17109914  0.17178261  0.83862927  1
  Fe  Fe30  1  0.17137329  0.50571537  0.50532872  1
  Fe  Fe31  1  0.00593715  0.33784367  0.67156878  1
  Ni  Ni32  1  0.17145908  0.50328354  0.83871750  1
  Fe  Fe33  1  0.17145152  0.83710664  0.50479278  1
  Ni  Ni34  1  1.00439466  0.67195451  0.67064623  1
  Fe  Fe35  1  0.17096562  0.83836363  0.83810326  1
  Fe  Fe36  1  0.50567089  0.17117128  0.50521482  1
  Ni  Ni37  1  0.33796537  0.00532427  0.67145437  1
  Fe  Fe38  1  0.50378027  0.17212515  0.83824380  1
  Ni  Ni39  1  0.50563465  0.50539048  0.50549763  1
  Ni  Ni40  1  0.33840881  0.33821758  0.67089894  1
  Fe  Fe41  1  0.50363098  0.50363226  0.83847149  1
  Ni  Ni42  1  0.50561960  0.83750696  0.50445043  1
  Fe  Fe43  1  0.33744010  0.67179118  0.67085767  1
  Fe  Fe44  1  0.50392096  0.83859140  0.83764684  1
  Fe  Fe45  1  0.83722986  0.17124820  0.50442519  1
  Fe  Fe46  1  0.67137382  1.00430089  0.67104708  1
  Fe  Fe47  1  0.83903534  0.17163372  0.83894990  1
  Ni  Ni48  1  0.83716501  0.50539255  0.50494203  1
  Fe  Fe49  1  0.67144248  0.33812564  0.67151878  1
  Fe  Fe50  1  0.83925953  0.50418871  0.83784388  1
  Ni  Ni51  1  0.83752965  0.83785738  0.50457944  1
  Fe  Fe52  1  0.67145792  0.67191970  0.67010298  1
  Fe  Fe53  1  0.83945490  0.83851694  0.83764365  1
" 