5449,Ni60Fe27Cr12_2,-236.041093371548, 199.482456227799,Ni60Fe27Cr12,"# generated using pymatgen
 data_Cr4Fe7Ni16
_symmetry_space_group_name_H-M   'P 1'
_cell_length_a   7.43473881
_cell_length_b   7.43473881
_cell_length_c   10.51430846
_cell_angle_alpha   90.00000000
_cell_angle_beta   90.00000000
_cell_angle_gamma   90.00000000
_symmetry_Int_Tables_number   1
_chemical_formula_structural   Cr4Fe7Ni16
_chemical_formula_sum   'Cr8 Fe14 Ni32'
_cell_volume   581.18198706
_cell_formula_units_Z   2
loop_
 _symmetry_equiv_pos_site_id
 _symmetry_equiv_pos_as_xyz
  1  'x, y, z'
loop_
 _atom_site_type_symbol
 _atom_site_label
 _atom_site_symmetry_multiplicity
 _atom_site_fract_x
 _atom_site_fract_y
 _atom_site_fract_z
 _atom_site_occupancy
  Ni  Ni0  1  0.00262285  1.00129141  0.00319094  1
  Fe  Fe1  1  0.16775909  0.16831224  0.16895108  1
  Fe  Fe2  1  0.99993693  1.00176896  0.33502160  1
  Fe  Fe3  1  0.00358800  0.33289141  1.00195420  1
  Ni  Ni4  1  0.16869887  0.50245023  0.16767046  1
  Ni  Ni5  1  0.00483579  0.33531437  0.33519745  1
  Ni  Ni6  1  0.00325674  0.67089507  0.00292469  1
  Ni  Ni7  1  0.16933303  0.83463190  0.16955943  1
  Ni  Ni8  1  0.00345832  0.66933145  0.33679880  1
  Ni  Ni9  1  0.33453500  0.00297468  0.00307928  1
  Cr  Cr10  1  0.50331664  0.16662497  0.16910372  1
  Fe  Fe11  1  0.33359547  1.00170209  0.33579638  1
  Ni  Ni12  1  0.33377894  0.33446873  1.00007592  1
  Cr  Cr13  1  0.50051207  0.50409726  0.16797946  1
  Fe  Fe14  1  0.33351224  0.33654942  0.33654356  1
  Fe  Fe15  1  0.33528943  0.67025950  1.00153354  1
  Ni  Ni16  1  0.50159961  0.83645440  0.16830146  1
  Fe  Fe17  1  0.33405571  0.66835503  0.33587737  1
  Ni  Ni18  1  0.66908098  1.00134301  1.00120165  1
  Ni  Ni19  1  0.83692201  0.16650469  0.16769443  1
  Ni  Ni20  1  0.66901735  1.00088658  0.33570718  1
  Ni  Ni21  1  0.66741274  0.33379486  1.00126349  1
  Cr  Cr22  1  0.83783804  0.50160908  0.16750833  1
  Cr  Cr23  1  0.67062336  0.33496326  0.33899710  1
  Ni  Ni24  1  0.66915524  0.67147276  1.00189064  1
  Ni  Ni25  1  0.83524527  0.83728828  0.16792174  1
  Ni  Ni26  1  0.67047898  0.67141522  0.33626319  1
  Ni  Ni27  1  0.16854992  0.16975505  0.50247153  1
  Fe  Fe28  1  1.00091824  0.00230868  0.66872950  1
  Fe  Fe29  1  0.16786302  0.16828529  0.83494496  1
  Ni  Ni30  1  0.16841855  0.50135574  0.50266750  1
  Ni  Ni31  1  0.00346158  0.33496550  0.66861736  1
  Ni  Ni32  1  0.17024540  0.50063641  0.83580782  1
  Fe  Fe33  1  0.16756591  0.83594112  0.50266549  1
  Ni  Ni34  1  0.00241387  0.66814059  0.66671628  1
  Cr  Cr35  1  0.16860507  0.83402644  0.83416433  1
  Ni  Ni36  1  0.49982014  0.16795308  0.50278777  1
  Ni  Ni37  1  0.33526190  0.00369397  0.66851479  1
  Fe  Fe38  1  0.50145886  0.16721837  0.83615792  1
  Ni  Ni39  1  0.49951212  0.50271477  0.50277985  1
  Fe  Fe40  1  0.33372115  0.33728557  0.66875468  1
  Fe  Fe41  1  0.50201393  0.50445543  0.83583569  1
  Cr  Cr42  1  0.50242791  0.83572835  0.50170135  1
  Ni  Ni43  1  0.33502622  0.66934697  0.66895363  1
  Ni  Ni44  1  0.50255116  0.83689812  0.83638590  1
  Ni  Ni45  1  0.83750276  0.16698708  0.50205080  1
  Fe  Fe46  1  0.66989970  1.00095978  0.66929513  1
  Ni  Ni47  1  0.83555887  0.16719022  0.83662351  1
  Ni  Ni48  1  0.83790956  0.50338243  0.50198115  1
  Cr  Cr49  1  0.66914263  0.33504971  0.66657110  1
  Cr  Cr50  1  0.83881623  0.50298302  0.83712191  1
  Ni  Ni51  1  0.83625748  0.83578483  0.50307922  1
  Ni  Ni52  1  0.66898655  0.66942331  0.66838146  1
  Ni  Ni53  1  0.83396523  0.83721195  0.83556492  1
" 