3251,Ni60Fe40_7,-238.65831323834, 215.759830480092,Ni60Fe40,"# generated using pymatgen
 data_Fe16Ni11
_symmetry_space_group_name_H-M   'P 1'
_cell_length_a   7.39539738
_cell_length_b   7.39539738
_cell_length_c   10.45867127
_cell_angle_alpha   90.00000000
_cell_angle_beta   90.00000000
_cell_angle_gamma   90.00000000
_symmetry_Int_Tables_number   1
_chemical_formula_structural   Fe16Ni11
_chemical_formula_sum   'Fe32 Ni22'
_cell_volume   572.00462769
_cell_formula_units_Z   2
loop_
 _symmetry_equiv_pos_site_id
 _symmetry_equiv_pos_as_xyz
  1  'x, y, z'
loop_
 _atom_site_type_symbol
 _atom_site_label
 _atom_site_symmetry_multiplicity
 _atom_site_fract_x
 _atom_site_fract_y
 _atom_site_fract_z
 _atom_site_occupancy
  Fe  Fe0  1  0.00528463  1.00448711  0.00498654  1
  Ni  Ni1  1  0.17109928  0.17225606  0.17097185  1
  Fe  Fe2  1  0.00535053  0.00606899  0.33838312  1
  Fe  Fe3  1  0.00492748  0.33775224  0.00518896  1
  Fe  Fe4  1  0.17092170  0.50499609  0.17178254  1
  Ni  Ni5  1  1.00435518  0.33778800  0.33816125  1
  Fe  Fe6  1  1.00439189  0.67230201  1.00482193  1
  Fe  Fe7  1  0.17094004  0.83794931  0.17127709  1
  Fe  Fe8  1  1.00474771  0.67053077  0.33809770  1
  Fe  Fe9  1  0.33811032  1.00441415  1.00461838  1
  Fe  Fe10  1  0.50629838  0.17119731  0.17141098  1
  Fe  Fe11  1  0.33773478  0.00571087  0.33839204  1
  Fe  Fe12  1  0.33824598  0.33760318  0.00510406  1
  Fe  Fe13  1  0.50524113  0.50477385  0.17236500  1
  Ni  Ni14  1  0.33763522  0.33937926  0.33837483  1
  Ni  Ni15  1  0.33722368  0.67192224  0.00492196  1
  Ni  Ni16  1  0.50515577  0.83667839  0.17103958  1
  Ni  Ni17  1  0.33762684  0.67203637  0.33820160  1
  Ni  Ni18  1  0.67218516  0.00498735  0.00505938  1
  Ni  Ni19  1  0.83951360  0.17260809  0.17075831  1
  Fe  Fe20  1  0.67145245  0.00516238  0.33801787  1
  Fe  Fe21  1  0.67136312  0.33848669  0.00510723  1
  Ni  Ni22  1  0.83716132  0.50448448  0.17170865  1
  Ni  Ni23  1  0.67255418  0.33701351  0.33806616  1
  Fe  Fe24  1  0.67127410  0.67215187  0.00547890  1
  Ni  Ni25  1  0.83669267  0.83743399  0.17104972  1
  Fe  Fe26  1  0.67098960  0.67035468  0.33810353  1
  Ni  Ni27  1  0.17047901  0.17183061  0.50557536  1
  Fe  Fe28  1  1.00442970  0.00577078  0.67115862  1
  Ni  Ni29  1  0.17131066  0.17123149  0.83798660  1
  Fe  Fe30  1  0.17152584  0.50515931  0.50441566  1
  Ni  Ni31  1  1.00452428  0.33822042  0.67125261  1
  Fe  Fe32  1  0.17150993  0.50500797  0.83833501  1
  Ni  Ni33  1  0.17204543  0.83912300  0.50462914  1
  Fe  Fe34  1  1.00383842  0.67182304  0.67161550  1
  Ni  Ni35  1  0.17204944  0.83920975  0.83865407  1
  Fe  Fe36  1  0.50544222  0.17086337  0.50507652  1
  Fe  Fe37  1  0.33780211  0.00569757  0.67152924  1
  Fe  Fe38  1  0.50465195  0.17079213  0.83804267  1
  Ni  Ni39  1  0.50532900  0.50553162  0.50483406  1
  Fe  Fe40  1  0.33854668  0.33738560  0.67110854  1
  Fe  Fe41  1  0.50361016  0.50476261  0.83767462  1
  Ni  Ni42  1  0.50493574  0.83593355  0.50577465  1
  Fe  Fe43  1  0.33881758  0.67144818  0.67124499  1
  Fe  Fe44  1  0.50398022  0.83897327  0.83863361  1
  Ni  Ni45  1  0.83949912  0.17217893  0.50513844  1
  Ni  Ni46  1  0.67156932  0.00509081  0.67110066  1
  Fe  Fe47  1  0.83851946  0.17108758  0.83767095  1
  Fe  Fe48  1  0.83832086  0.50446951  0.50458568  1
  Ni  Ni49  1  0.67279389  0.33660437  0.67151750  1
  Fe  Fe50  1  0.83940977  0.50432727  0.83824640  1
  Ni  Ni51  1  0.83754209  0.83837088  0.50512748  1
  Fe  Fe52  1  0.67188057  0.67104967  0.67095686  1
  Fe  Fe53  1  0.83874904  0.83911671  0.83825460  1
" 