4608,Ni60Fe27Cr12_7,-235.94898187958, 202.111419663239,Ni60Fe27Cr12,"# generated using pymatgen
 data_Cr4Fe7Ni16
_symmetry_space_group_name_H-M   'P 1'
_cell_length_a   7.43595974
_cell_length_b   7.43595974
_cell_length_c   10.51603511
_cell_angle_alpha   90.00000000
_cell_angle_beta   90.00000000
_cell_angle_gamma   90.00000000
_symmetry_Int_Tables_number   1
_chemical_formula_structural   Cr4Fe7Ni16
_chemical_formula_sum   'Cr8 Fe14 Ni32'
_cell_volume   581.46835852
_cell_formula_units_Z   2
loop_
 _symmetry_equiv_pos_site_id
 _symmetry_equiv_pos_as_xyz
  1  'x, y, z'
loop_
 _atom_site_type_symbol
 _atom_site_label
 _atom_site_symmetry_multiplicity
 _atom_site_fract_x
 _atom_site_fract_y
 _atom_site_fract_z
 _atom_site_occupancy
  Ni  Ni0  1  0.00233391  1.00183157  1.00196317  1
  Fe  Fe1  1  0.16787039  0.17010069  0.16785217  1
  Cr  Cr2  1  0.00271441  1.00131473  0.33482389  1
  Ni  Ni3  1  1.00146733  0.33570718  0.00248963  1
  Ni  Ni4  1  0.16773592  0.50229365  0.17004846  1
  Ni  Ni5  1  0.00287308  0.33893839  0.33468318  1
  Ni  Ni6  1  0.99986581  0.66873665  0.00239430  1
  Ni  Ni7  1  0.16796809  0.83547940  0.16781334  1
  Ni  Ni8  1  1.00206026  0.66630300  0.33538395  1
  Ni  Ni9  1  0.33306335  0.00373177  0.00259990  1
  Cr  Cr10  1  0.49993218  0.17076015  0.16817892  1
  Ni  Ni11  1  0.33615105  1.00117595  0.33648255  1
  Ni  Ni12  1  0.33521162  0.33507957  1.00119364  1
  Ni  Ni13  1  0.50271331  0.50146114  0.16849604  1
  Ni  Ni14  1  0.33477102  0.33727761  0.33637880  1
  Cr  Cr15  1  0.33495769  0.66730949  0.00298662  1
  Fe  Fe16  1  0.50093321  0.83203528  0.16926002  1
  Ni  Ni17  1  0.33545452  0.66781517  0.33558647  1
  Cr  Cr18  1  0.67066760  1.00196073  0.00259158  1
  Fe  Fe19  1  0.83841627  0.17171063  0.16737211  1
  Cr  Cr20  1  0.66754438  1.00042639  0.33509119  1
  Ni  Ni21  1  0.66959103  0.33754941  1.00126564  1
  Ni  Ni22  1  0.83582428  0.50288474  0.16882823  1
  Fe  Fe23  1  0.66811391  0.33901899  0.33524401  1
  Ni  Ni24  1  0.67149303  0.66659169  0.00325696  1
  Ni  Ni25  1  0.83797374  0.83249982  0.16732277  1
  Fe  Fe26  1  0.66900965  0.66661010  0.33494433  1
  Fe  Fe27  1  0.17095879  0.16967638  0.50297992  1
  Ni  Ni28  1  1.00079533  0.00265183  0.66951715  1
  Fe  Fe29  1  0.16795676  0.16861984  0.83543820  1
  Fe  Fe30  1  0.16946387  0.50144849  0.50076702  1
  Ni  Ni31  1  0.00248108  0.33482483  0.66910021  1
  Fe  Fe32  1  0.16798038  0.49989512  0.83577268  1
  Ni  Ni33  1  0.17015832  0.83563913  0.50248040  1
  Cr  Cr34  1  1.00190002  0.66857171  0.66863935  1
  Fe  Fe35  1  0.16659160  0.83775653  0.83538251  1
  Ni  Ni36  1  0.49905987  0.16994763  0.50352613  1
  Ni  Ni37  1  0.33650470  0.00303683  0.66718638  1
  Ni  Ni38  1  0.50072742  0.17091666  0.83434481  1
  Ni  Ni39  1  0.50165984  0.50092412  0.50252050  1
  Ni  Ni40  1  0.33609930  0.33571980  0.66869876  1
  Fe  Fe41  1  0.50393442  0.49948445  0.83502313  1
  Fe  Fe42  1  0.50138599  0.83472409  0.50321362  1
  Ni  Ni43  1  0.33653926  0.66751309  0.66749724  1
  Cr  Cr44  1  0.50134430  0.83648677  0.83428401  1
  Cr  Cr45  1  0.83522663  0.17026342  0.50371104  1
  Ni  Ni46  1  0.66897003  0.00221294  0.66863809  1
  Ni  Ni47  1  0.83598479  0.16981989  0.83507516  1
  Ni  Ni48  1  0.83467982  0.50305776  0.50072070  1
  Fe  Fe49  1  0.66768016  0.33523216  0.66984891  1
  Ni  Ni50  1  0.83542505  0.50114675  0.83672143  1
  Ni  Ni51  1  0.83649996  0.83303960  0.50361462  1
  Fe  Fe52  1  0.66835041  0.66836294  0.66831135  1
  Ni  Ni53  1  0.83781107  0.83530353  0.83533502  1
" 