7655,Ni60Fe32Cr6_19,-238.927198564767, 211.299636605678,Ni60Fe32Cr6,"# generated using pymatgen
 data_Cr5Fe17Ni32
_symmetry_space_group_name_H-M   'P 1'
_cell_length_a   7.42579850
_cell_length_b   7.42579850
_cell_length_c   10.50166494
_cell_angle_alpha   90.00000000
_cell_angle_beta   90.00000000
_cell_angle_gamma   90.00000000
_symmetry_Int_Tables_number   1
_chemical_formula_structural   Cr5Fe17Ni32
_chemical_formula_sum   'Cr5 Fe17 Ni32'
_cell_volume   579.08788379
_cell_formula_units_Z   1
loop_
 _symmetry_equiv_pos_site_id
 _symmetry_equiv_pos_as_xyz
  1  'x, y, z'
loop_
 _atom_site_type_symbol
 _atom_site_label
 _atom_site_symmetry_multiplicity
 _atom_site_fract_x
 _atom_site_fract_y
 _atom_site_fract_z
 _atom_site_occupancy
  Fe  Fe0  1  0.00387587  0.00505344  1.00090888  1
  Cr  Cr1  1  0.16845657  0.16761997  0.17137984  1
  Fe  Fe2  1  1.00274083  0.00304186  0.33824957  1
  Ni  Ni3  1  1.00104116  0.33905004  0.00290433  1
  Fe  Fe4  1  0.16891887  0.50425793  0.17005627  1
  Ni  Ni5  1  0.00321446  0.33884246  0.33625720  1
  Fe  Fe6  1  0.00428703  0.66881409  1.00123142  1
  Ni  Ni7  1  0.17104221  0.83453729  0.16966590  1
  Ni  Ni8  1  0.00456635  0.66795155  0.33571355  1
  Ni  Ni9  1  0.33940332  1.00084388  1.00261092  1
  Ni  Ni10  1  0.50332174  0.17053817  0.16935690  1
  Fe  Fe11  1  0.33500931  1.00218626  0.33739843  1
  Cr  Cr12  1  0.33436590  0.33605399  1.00115012  1
  Ni  Ni13  1  0.50276288  0.50208309  0.16968181  1
  Ni  Ni14  1  0.33589795  0.33629224  0.33620415  1
  Fe  Fe15  1  0.33661756  0.67051325  1.00145485  1
  Ni  Ni16  1  0.49879402  0.83531466  0.16929231  1
  Fe  Fe17  1  0.33527789  0.66737382  0.33695623  1
  Ni  Ni18  1  0.66759270  1.00157460  0.00287374  1
  Ni  Ni19  1  0.83571600  0.17204697  0.16915116  1
  Cr  Cr20  1  0.66696111  0.00303643  0.33639747  1
  Fe  Fe21  1  0.67012475  0.33470694  1.00256277  1
  Ni  Ni22  1  0.83615717  0.50079801  0.16913106  1
  Ni  Ni23  1  0.66935959  0.33556441  0.33498819  1
  Fe  Fe24  1  0.66751240  0.66774874  1.00090152  1
  Cr  Cr25  1  0.83904935  0.83660645  0.16690451  1
  Cr  Cr26  1  0.67007437  0.66976622  0.33816563  1
  Fe  Fe27  1  0.17056269  0.17058514  0.50302343  1
  Fe  Fe28  1  0.00363011  1.00189635  0.66961160  1
  Fe  Fe29  1  0.16865816  0.16921467  0.83540318  1
  Ni  Ni30  1  0.17039941  0.50358288  0.50202068  1
  Ni  Ni31  1  0.00471413  0.33753993  0.66948818  1
  Ni  Ni32  1  0.16893587  0.50404688  0.83523925  1
  Ni  Ni33  1  0.16748993  0.83520461  0.50305512  1
  Ni  Ni34  1  1.00241803  0.66746842  0.66993064  1
  Fe  Fe35  1  0.17048385  0.83575243  0.83528442  1
  Ni  Ni36  1  0.50215670  0.17213467  0.50316736  1
  Ni  Ni37  1  0.33784192  0.00381086  0.66969799  1
  Ni  Ni38  1  0.50407642  0.16883459  0.83542499  1
  Ni  Ni39  1  0.50091043  0.49937226  0.50476890  1
  Ni  Ni40  1  0.33322460  0.33558569  0.67054489  1
  Ni  Ni41  1  0.50256400  0.50289064  0.83376368  1
  Fe  Fe42  1  0.50029610  0.83526475  0.50578163  1
  Ni  Ni43  1  0.33515523  0.66905979  0.66957321  1
  Ni  Ni44  1  0.50317297  0.83642626  0.83488928  1
  Fe  Fe45  1  0.83702291  0.17160490  0.50368539  1
  Ni  Ni46  1  0.66896517  1.00160760  0.66944994  1
  Ni  Ni47  1  0.83571557  0.16887914  0.83590163  1
  Fe  Fe48  1  0.83723609  0.50244364  0.50338594  1
  Fe  Fe49  1  0.66847220  0.33662419  0.66961819  1
  Ni  Ni50  1  0.83659119  0.50261973  0.83496975  1
  Ni  Ni51  1  0.83980921  0.83666941  0.50506254  1
  Ni  Ni52  1  0.67065633  0.67193324  0.66955316  1
  Ni  Ni53  1  0.83668004  0.83671124  0.83613694  1
" 