3857,Ni60Fe27Cr12_1,-236.344328887189, 203.051789924223,Ni60Fe27Cr12,"# generated using pymatgen
 data_Cr4Fe7Ni16
_symmetry_space_group_name_H-M   'P 1'
_cell_length_a   7.43588541
_cell_length_b   7.43588541
_cell_length_c   10.51592999
_cell_angle_alpha   90.00000000
_cell_angle_beta   90.00000000
_cell_angle_gamma   90.00000000
_symmetry_Int_Tables_number   1
_chemical_formula_structural   Cr4Fe7Ni16
_chemical_formula_sum   'Cr8 Fe14 Ni32'
_cell_volume   581.45092150
_cell_formula_units_Z   2
loop_
 _symmetry_equiv_pos_site_id
 _symmetry_equiv_pos_as_xyz
  1  'x, y, z'
loop_
 _atom_site_type_symbol
 _atom_site_label
 _atom_site_symmetry_multiplicity
 _atom_site_fract_x
 _atom_site_fract_y
 _atom_site_fract_z
 _atom_site_occupancy
  Ni  Ni0  1  1.00043246  0.00308291  1.00186155  1
  Ni  Ni1  1  0.16644168  0.16861857  0.16844975  1
  Ni  Ni2  1  0.00282158  0.00220403  0.33539048  1
  Ni  Ni3  1  1.00026661  0.33476024  0.00248754  1
  Ni  Ni4  1  0.16588252  0.50254790  0.16807701  1
  Ni  Ni5  1  0.99988300  0.33333131  0.33347233  1
  Fe  Fe6  1  0.99999521  0.66957072  0.00249305  1
  Ni  Ni7  1  0.16792759  0.83490902  0.17090889  1
  Ni  Ni8  1  1.00187574  0.67060096  0.33324687  1
  Cr  Cr9  1  0.33417958  1.00082751  0.00376927  1
  Ni  Ni10  1  0.50474595  0.16741354  0.16863934  1
  Ni  Ni11  1  0.33383610  1.00053637  0.33386697  1
  Fe  Fe12  1  0.33477343  0.33454316  0.00265976  1
  Fe  Fe13  1  0.50293625  0.50123275  0.16884699  1
  Cr  Cr14  1  0.33604911  0.33465509  0.33363404  1
  Cr  Cr15  1  0.33629693  0.66848467  0.00247785  1
  Ni  Ni16  1  0.50368632  0.83606158  0.16994669  1
  Ni  Ni17  1  0.33612650  0.67055368  0.33426395  1
  Ni  Ni18  1  0.67160808  0.00213946  0.00353831  1
  Ni  Ni19  1  0.83517438  0.16918017  0.16880246  1
  Fe  Fe20  1  0.66986521  1.00208882  0.33432056  1
  Ni  Ni21  1  0.67098096  0.33630790  0.00270201  1
  Fe  Fe22  1  0.83598319  0.50119345  0.16885134  1
  Ni  Ni23  1  0.66982436  0.33530564  0.33516254  1
  Fe  Fe24  1  0.67094543  0.66949056  1.00204954  1
  Fe  Fe25  1  0.83666023  0.83753075  0.16955894  1
  Ni  Ni26  1  0.66833643  0.66793961  0.33284051  1
  Fe  Fe27  1  0.16933636  0.16620735  0.50204141  1
  Ni  Ni28  1  1.00200565  1.00066112  0.66893975  1
  Ni  Ni29  1  0.16693417  0.16766873  0.83568294  1
  Cr  Cr30  1  0.16978455  0.50546130  0.50247089  1
  Cr  Cr31  1  1.00010569  0.33335307  0.66890229  1
  Fe  Fe32  1  0.16825002  0.50018061  0.83568739  1
  Ni  Ni33  1  0.16724285  0.83689629  0.50199354  1
  Ni  Ni34  1  1.00186261  0.67165345  0.67092293  1
  Fe  Fe35  1  0.16708638  0.83603912  0.83417704  1
  Fe  Fe36  1  0.50250831  0.16867649  0.50280095  1
  Ni  Ni37  1  0.33360959  1.00133777  0.66901885  1
  Cr  Cr38  1  0.50336882  0.16879881  0.83514591  1
  Ni  Ni39  1  0.50315915  0.50149889  0.50292285  1
  Ni  Ni40  1  0.33717042  0.33571099  0.67003590  1
  Ni  Ni41  1  0.50380833  0.50294344  0.83445650  1
  Cr  Cr42  1  0.50179096  0.83454388  0.50256651  1
  Ni  Ni43  1  0.33594041  0.66897471  0.67001918  1
  Fe  Fe44  1  0.50449145  0.83574161  0.83456660  1
  Fe  Fe45  1  0.83428331  0.16626253  0.50116292  1
  Ni  Ni46  1  0.67074111  0.00220744  0.66849704  1
  Ni  Ni47  1  0.83596014  0.16852645  0.83552756  1
  Cr  Cr48  1  0.83381655  0.50440624  0.50115591  1
  Ni  Ni49  1  0.66775790  0.33576900  0.66819258  1
  Ni  Ni50  1  0.83439158  0.50273130  0.83611351  1
  Ni  Ni51  1  0.83684336  0.83634652  0.50208715  1
  Ni  Ni52  1  0.66853858  0.66831004  0.67108211  1
  Fe  Fe53  1  0.83482812  0.83713367  0.83466246  1
" 