6116,Ni60Fe27Cr12_15,-235.903838112567, 199.353719140922,Ni60Fe27Cr12,"# generated using pymatgen
 data_Cr4Fe7Ni16
_symmetry_space_group_name_H-M   'P 1'
_cell_length_a   7.43488106
_cell_length_b   7.43488106
_cell_length_c   10.51450963
_cell_angle_alpha   90.00000000
_cell_angle_beta   90.00000000
_cell_angle_gamma   90.00000000
_symmetry_Int_Tables_number   1
_chemical_formula_structural   Cr4Fe7Ni16
_chemical_formula_sum   'Cr8 Fe14 Ni32'
_cell_volume   581.21534685
_cell_formula_units_Z   2
loop_
 _symmetry_equiv_pos_site_id
 _symmetry_equiv_pos_as_xyz
  1  'x, y, z'
loop_
 _atom_site_type_symbol
 _atom_site_label
 _atom_site_symmetry_multiplicity
 _atom_site_fract_x
 _atom_site_fract_y
 _atom_site_fract_z
 _atom_site_occupancy
  Ni  Ni0  1  0.00526250  0.00381980  0.00309906  1
  Fe  Fe1  1  0.17157062  0.16836588  0.16932079  1
  Fe  Fe2  1  0.00352803  1.00151681  0.33534717  1
  Ni  Ni3  1  0.00560350  0.33285283  1.00123662  1
  Ni  Ni4  1  0.17250267  0.50179820  0.16933074  1
  Ni  Ni5  1  0.00652510  0.33609196  0.33525738  1
  Cr  Cr6  1  0.00372455  0.66974186  0.00250824  1
  Ni  Ni7  1  0.17160959  0.83542129  0.16917629  1
  Fe  Fe8  1  0.00445651  0.67038152  0.33416877  1
  Ni  Ni9  1  0.33501606  1.00202493  0.00228071  1
  Ni  Ni10  1  0.50102223  0.16827098  0.16834719  1
  Ni  Ni11  1  0.33490719  1.00128832  0.33594412  1
  Ni  Ni12  1  0.33480828  0.33455469  0.00220488  1
  Ni  Ni13  1  0.49920523  0.50157007  0.16800194  1
  Fe  Fe14  1  0.33767971  0.33447731  0.33485847  1
  Fe  Fe15  1  0.33635825  0.66891649  1.00159113  1
  Ni  Ni16  1  0.50063411  0.83651453  0.16868891  1
  Fe  Fe17  1  0.33607148  0.66863701  0.33564293  1
  Ni  Ni18  1  0.66630112  1.00144135  1.00179419  1
  Cr  Cr19  1  0.83315629  0.16745033  0.16886101  1
  Ni  Ni20  1  0.66344277  1.00027135  0.33568554  1
  Ni  Ni21  1  0.66603450  0.33538597  1.00165445  1
  Cr  Cr22  1  0.83499018  0.50121176  0.16861060  1
  Ni  Ni23  1  0.66660192  0.33665118  0.33546146  1
  Ni  Ni24  1  0.66443140  0.66996460  0.00380243  1
  Ni  Ni25  1  0.83427153  0.83731072  0.16923330  1
  Ni  Ni26  1  0.66595150  0.66964941  0.33421868  1
  Ni  Ni27  1  0.17229589  0.16941936  0.50182626  1
  Ni  Ni28  1  0.00703482  0.00466259  0.66874541  1
  Fe  Fe29  1  0.16860810  0.16723094  0.83533586  1
  Ni  Ni30  1  0.17136745  0.50233901  0.50264376  1
  Ni  Ni31  1  0.00415463  0.33330783  0.66965731  1
  Ni  Ni32  1  0.17272267  0.50116254  0.83424915  1
  Ni  Ni33  1  0.17121551  0.83471930  0.50280077  1
  Fe  Fe34  1  0.00651098  0.66873781  0.66957468  1
  Ni  Ni35  1  0.17300178  0.83550128  0.83462512  1
  Ni  Ni36  1  0.49995285  0.16879969  0.50283796  1
  Ni  Ni37  1  0.33416422  1.00111397  0.66825708  1
  Fe  Fe38  1  0.50105576  0.16827931  0.83597287  1
  Fe  Fe39  1  0.50014496  0.50175802  0.50172736  1
  Fe  Fe40  1  0.33564179  0.33545637  0.66892227  1
  Fe  Fe41  1  0.50085550  0.50353855  0.83627669  1
  Fe  Fe42  1  0.49926875  0.83606028  0.50220117  1
  Ni  Ni43  1  0.33689442  0.67000716  0.66874682  1
  Ni  Ni44  1  0.49919240  0.83671712  0.83539041  1
  Cr  Cr45  1  0.83364162  0.16877412  0.50189262  1
  Fe  Fe46  1  0.66536910  0.00405618  0.66987487  1
  Ni  Ni47  1  0.83404432  0.16913321  0.83539185  1
  Cr  Cr48  1  0.83694162  0.50230317  0.50242531  1
  Ni  Ni49  1  0.66706336  0.33661635  0.66924874  1
  Cr  Cr50  1  0.83609929  0.49932004  0.83541341  1
  Cr  Cr51  1  0.83549695  0.83561208  0.50361774  1
  Ni  Ni52  1  0.66359996  0.66771840  0.66835305  1
  Cr  Cr53  1  0.83480832  0.83888799  0.83447830  1
" 