1041,Ni60Fe6Cr33_12,-226.100075819959, 153.008961522138,Ni60Fe6Cr33,"# generated using pymatgen
 data_Cr19Fe3Ni32
_symmetry_space_group_name_H-M   'P 1'
_cell_length_a   7.48783312
_cell_length_b   7.48783312
_cell_length_c   10.58939515
_cell_angle_alpha   90.00000000
_cell_angle_beta   90.00000000
_cell_angle_gamma   90.00000000
_symmetry_Int_Tables_number   1
_chemical_formula_structural   Cr19Fe3Ni32
_chemical_formula_sum   'Cr19 Fe3 Ni32'
_cell_volume   593.72244668
_cell_formula_units_Z   1
loop_
 _symmetry_equiv_pos_site_id
 _symmetry_equiv_pos_as_xyz
  1  'x, y, z'
loop_
 _atom_site_type_symbol
 _atom_site_label
 _atom_site_symmetry_multiplicity
 _atom_site_fract_x
 _atom_site_fract_y
 _atom_site_fract_z
 _atom_site_occupancy
  Cr  Cr0  1  -0.00072187  -0.00049962  0.00061408  1
  Ni  Ni1  1  0.16421670  0.16507252  0.16516249  1
  Cr  Cr2  1  0.00086208  0.00022630  0.33179013  1
  Ni  Ni3  1  0.00091653  0.33353187  0.00090883  1
  Fe  Fe4  1  0.16685921  0.49880587  0.16385407  1
  Ni  Ni5  1  0.99748803  0.33167955  0.33147037  1
  Ni  Ni6  1  0.00179911  0.66409867  0.00096025  1
  Ni  Ni7  1  0.16661456  0.83239967  0.16437616  1
  Cr  Cr8  1  0.00209889  0.66467415  0.33184214  1
  Ni  Ni9  1  0.33182299  0.99807134  0.99753364  1
  Cr  Cr10  1  0.49506292  0.16476244  0.16501163  1
  Ni  Ni11  1  0.32852108  0.99633973  0.33300025  1
  Ni  Ni12  1  0.32931333  0.33277779  -0.00071684  1
  Ni  Ni13  1  0.50066143  0.49977870  0.16502345  1
  Cr  Cr14  1  0.32958791  0.33476348  0.33120584  1
  Ni  Ni15  1  0.32985354  0.66508934  -0.00083787  1
  Cr  Cr16  1  0.49556070  0.83078745  0.16462711  1
  Ni  Ni17  1  0.33101271  0.66604036  0.33311097  1
  Ni  Ni18  1  0.66423978  0.99773616  0.99714827  1
  Fe  Fe19  1  0.83299245  0.16825884  0.16530857  1
  Cr  Cr20  1  0.66746420  0.00011598  0.33229021  1
  Cr  Cr21  1  0.66480551  0.32939145  -0.00126745  1
  Ni  Ni22  1  0.83329846  0.49780136  0.16457028  1
  Ni  Ni23  1  0.66834636  0.33383811  0.33211659  1
  Ni  Ni24  1  0.66497080  0.66653173  0.00044132  1
  Fe  Fe25  1  0.83207653  0.82939354  0.16353744  1
  Cr  Cr26  1  0.66426322  0.66296004  0.33519880  1
  Ni  Ni27  1  0.16294312  0.16510932  0.49965920  1
  Ni  Ni28  1  0.00022106  0.00040384  0.66282376  1
  Cr  Cr29  1  0.16561843  0.16670261  0.82958234  1
  Ni  Ni30  1  0.16421951  0.49628315  0.49765741  1
  Ni  Ni31  1  0.00103005  0.33016785  0.66300908  1
  Ni  Ni32  1  0.16463192  0.49830273  0.83525443  1
  Ni  Ni33  1  0.16724239  0.83428768  0.49820330  1
  Cr  Cr34  1  0.00227419  0.66601296  0.66330188  1
  Ni  Ni35  1  0.16805036  0.83186896  0.83306576  1
  Cr  Cr36  1  0.49455490  0.16493514  0.49756204  1
  Ni  Ni37  1  0.32994376  0.99815029  0.66517318  1
  Ni  Ni38  1  0.49606549  0.16205000  0.83365612  1
  Ni  Ni39  1  0.49742619  0.49883986  0.49631782  1
  Ni  Ni40  1  0.32870014  0.33166621  0.66488384  1
  Cr  Cr41  1  0.49623173  0.49905076  0.83396406  1
  Ni  Ni42  1  0.49489421  0.83183839  0.49707250  1
  Cr  Cr43  1  0.33074309  0.66487564  0.66395161  1
  Ni  Ni44  1  0.49526245  0.83475252  0.83554447  1
  Ni  Ni45  1  0.83597252  0.16800954  0.49772996  1
  Cr  Cr46  1  0.66563192  -0.00128554  0.66705747  1
  Ni  Ni47  1  0.83341395  0.16553048  0.83262963  1
  Ni  Ni48  1  0.83394603  0.49559479  0.49770294  1
  Cr  Cr49  1  0.66454954  0.33057740  0.66413452  1
  Cr  Cr50  1  0.83715317  0.49766003  0.83203582  1
  Ni  Ni51  1  0.83369918  0.83268328  0.49870657  1
  Cr  Cr52  1  0.66317781  0.66595807  0.66140081  1
  Cr  Cr53  1  0.83346628  0.83059778  0.83468933  1
" 