208,Ni60Fe40_16,-238.846043615748, 217.754899193463,Ni60Fe40,"# generated using pymatgen
 data_Fe16Ni11
_symmetry_space_group_name_H-M   'P 1'
_cell_length_a   7.39377510
_cell_length_b   7.39377510
_cell_length_c   10.45637702
_cell_angle_alpha   90.00000000
_cell_angle_beta   90.00000000
_cell_angle_gamma   90.00000000
_symmetry_Int_Tables_number   1
_chemical_formula_structural   Fe16Ni11
_chemical_formula_sum   'Fe32 Ni22'
_cell_volume   571.62828056
_cell_formula_units_Z   2
loop_
 _symmetry_equiv_pos_site_id
 _symmetry_equiv_pos_as_xyz
  1  'x, y, z'
loop_
 _atom_site_type_symbol
 _atom_site_label
 _atom_site_symmetry_multiplicity
 _atom_site_fract_x
 _atom_site_fract_y
 _atom_site_fract_z
 _atom_site_occupancy
  Fe  Fe0  1  0.00508798  0.00509007  1.00448346  1
  Fe  Fe1  1  0.17217704  0.17133228  0.17164346  1
  Fe  Fe2  1  0.00512853  0.00527236  0.33837855  1
  Fe  Fe3  1  1.00474758  0.33825944  1.00482166  1
  Fe  Fe4  1  0.17194524  0.50486064  0.17168302  1
  Fe  Fe5  1  1.00478251  0.33804902  0.33834918  1
  Fe  Fe6  1  0.00518561  0.67151602  0.00525736  1
  Ni  Ni7  1  0.17218038  0.83781587  0.17179906  1
  Ni  Ni8  1  1.00495271  0.67196768  0.33803401  1
  Fe  Fe9  1  0.33837885  1.00471241  0.00535361  1
  Ni  Ni10  1  0.50546764  0.17153869  0.17143200  1
  Ni  Ni11  1  0.33842845  0.00543442  0.33833058  1
  Ni  Ni12  1  0.33811567  0.33814572  0.00500172  1
  Fe  Fe13  1  0.50491637  0.50475966  0.17143226  1
  Ni  Ni14  1  0.33859870  0.33799184  0.33820116  1
  Fe  Fe15  1  0.33842440  0.67175554  1.00474903  1
  Ni  Ni16  1  0.50434439  0.83820085  0.17175940  1
  Fe  Fe17  1  0.33847217  0.67192679  0.33828563  1
  Fe  Fe18  1  0.67139805  0.00514913  0.00518585  1
  Ni  Ni19  1  0.83778565  0.17228458  0.17219530  1
  Ni  Ni20  1  0.67166165  0.00525424  0.33794566  1
  Fe  Fe21  1  0.67163751  0.33830444  0.00505006  1
  Fe  Fe22  1  0.83800318  0.50519986  0.17194698  1
  Ni  Ni23  1  0.67113299  0.33781674  0.33781966  1
  Ni  Ni24  1  0.67209842  0.67198079  0.00504846  1
  Fe  Fe25  1  0.83796792  0.83858009  0.17168148  1
  Fe  Fe26  1  0.67143728  0.67158274  0.33802480  1
  Ni  Ni27  1  0.17209339  0.17143406  0.50481635  1
  Ni  Ni28  1  1.00444012  1.00456690  0.67147612  1
  Ni  Ni29  1  0.17141184  0.17127334  0.83841210  1
  Fe  Fe30  1  0.17184570  0.50457160  0.50491415  1
  Fe  Fe31  1  1.00488212  0.33789747  0.67169518  1
  Fe  Fe32  1  0.17175914  0.50462914  0.83826701  1
  Fe  Fe33  1  0.17150965  0.83836814  0.50495405  1
  Fe  Fe34  1  1.00492151  0.67158835  0.67131975  1
  Ni  Ni35  1  0.17198025  0.83820099  0.83798247  1
  Ni  Ni36  1  0.50470016  0.17160466  0.50523185  1
  Fe  Fe37  1  0.33828338  0.00526227  0.67139642  1
  Fe  Fe38  1  0.50472555  0.17166320  0.83809545  1
  Fe  Fe39  1  0.50479061  0.50420337  0.50520214  1
  Ni  Ni40  1  0.33845352  0.33876278  0.67166165  1
  Fe  Fe41  1  0.50455789  0.50466936  0.83823121  1
  Fe  Fe42  1  0.50503173  0.83863990  0.50476803  1
  Ni  Ni43  1  0.33772513  0.67100872  0.67177467  1
  Fe  Fe44  1  0.50493403  0.83853298  0.83845375  1
  Fe  Fe45  1  0.83795536  0.17168458  0.50512632  1
  Ni  Ni46  1  0.67252954  0.00529806  0.67192515  1
  Ni  Ni47  1  0.83827810  0.17219310  0.83764132  1
  Ni  Ni48  1  0.83806907  0.50507990  0.50513524  1
  Ni  Ni49  1  0.67122804  0.33781751  0.67205053  1
  Fe  Fe50  1  0.83854723  0.50483932  0.83813611  1
  Fe  Fe51  1  0.83832402  0.83866696  0.50498963  1
  Fe  Fe52  1  0.67148376  0.67148730  0.67182816  1
  Fe  Fe53  1  0.83865304  0.83884485  0.83819252  1
" 