4287,Ni60Fe32Cr6_7,-238.891678359035, 207.654130963383,Ni60Fe32Cr6,"# generated using pymatgen
 data_Cr5Fe17Ni32
_symmetry_space_group_name_H-M   'P 1'
_cell_length_a   7.42463862
_cell_length_b   7.42463862
_cell_length_c   10.50002464
_cell_angle_alpha   90.00000000
_cell_angle_beta   90.00000000
_cell_angle_gamma   90.00000000
_symmetry_Int_Tables_number   1
_chemical_formula_structural   Cr5Fe17Ni32
_chemical_formula_sum   'Cr5 Fe17 Ni32'
_cell_volume   578.81657425
_cell_formula_units_Z   1
loop_
 _symmetry_equiv_pos_site_id
 _symmetry_equiv_pos_as_xyz
  1  'x, y, z'
loop_
 _atom_site_type_symbol
 _atom_site_label
 _atom_site_symmetry_multiplicity
 _atom_site_fract_x
 _atom_site_fract_y
 _atom_site_fract_z
 _atom_site_occupancy
  Ni  Ni0  1  0.00427992  0.00488338  0.00420432  1
  Ni  Ni1  1  0.16850288  0.16655318  0.17001209  1
  Fe  Fe2  1  0.00463883  1.00187733  0.33606726  1
  Ni  Ni3  1  1.00067449  0.33418295  1.00219561  1
  Fe  Fe4  1  0.17139207  0.50369918  0.16955861  1
  Cr  Cr5  1  0.00423152  0.33483058  0.33608357  1
  Fe  Fe6  1  0.00652471  0.66831326  0.00340330  1
  Ni  Ni7  1  0.16921165  0.83594987  0.16925009  1
  Fe  Fe8  1  0.00491565  0.67078681  0.33692042  1
  Ni  Ni9  1  0.33540632  1.00054831  1.00186679  1
  Ni  Ni10  1  0.50494692  0.16974074  0.17106194  1
  Ni  Ni11  1  0.33587777  1.00211221  0.33632261  1
  Cr  Cr12  1  0.33687543  0.33500308  0.00511108  1
  Ni  Ni13  1  0.50393719  0.50303271  0.17200278  1
  Ni  Ni14  1  0.33769768  0.33568594  0.33535000  1
  Ni  Ni15  1  0.33624979  0.67236350  1.00239249  1
  Ni  Ni16  1  0.50146588  0.83615332  0.17048770  1
  Ni  Ni17  1  0.33678789  0.67069550  0.33586337  1
  Fe  Fe18  1  0.66683509  0.00656751  0.00288093  1
  Ni  Ni19  1  0.83512557  0.16904548  0.16856089  1
  Fe  Fe20  1  0.66771505  0.00412183  0.33644469  1
  Ni  Ni21  1  0.67212032  0.33553275  1.00220927  1
  Fe  Fe22  1  0.83555229  0.50145328  0.16933705  1
  Ni  Ni23  1  0.66898379  0.33630264  0.33655725  1
  Cr  Cr24  1  0.66599538  0.66885664  1.00270201  1
  Fe  Fe25  1  0.83613646  0.83853245  0.17005695  1
  Fe  Fe26  1  0.66757912  0.66870768  0.33667670  1
  Ni  Ni27  1  0.16906708  0.16862747  0.50374386  1
  Ni  Ni28  1  1.00248262  0.00575621  0.66787513  1
  Ni  Ni29  1  0.16734943  0.16882463  0.83477417  1
  Ni  Ni30  1  0.17293306  0.50297164  0.50202999  1
  Ni  Ni31  1  0.00378334  0.33373438  0.67016200  1
  Ni  Ni32  1  0.17106045  0.50262096  0.83664146  1
  Ni  Ni33  1  0.16910226  0.83703307  0.50278102  1
  Cr  Cr34  1  0.00474145  0.66831720  0.67015159  1
  Ni  Ni35  1  0.17127170  0.83687648  0.83664024  1
  Fe  Fe36  1  0.50025754  0.17045427  0.50243178  1
  Fe  Fe37  1  0.33517893  1.00275576  0.67004445  1
  Ni  Ni38  1  0.50468659  0.16994255  0.83524043  1
  Ni  Ni39  1  0.50322317  0.50283852  0.50254225  1
  Ni  Ni40  1  0.33482693  0.33672647  0.66847813  1
  Ni  Ni41  1  0.50249475  0.50277550  0.83377048  1
  Fe  Fe42  1  0.50013650  0.83566695  0.50309134  1
  Ni  Ni43  1  0.33858734  0.66912378  0.67016025  1
  Ni  Ni44  1  0.50094507  0.83589999  0.83431599  1
  Fe  Fe45  1  0.83583794  0.16963458  0.50402894  1
  Ni  Ni46  1  0.66904703  1.00248389  0.66912273  1
  Ni  Ni47  1  0.83641576  0.17065086  0.83565133  1
  Fe  Fe48  1  0.83623452  0.50242887  0.50305396  1
  Fe  Fe49  1  0.66922546  0.33644354  0.66959279  1
  Fe  Fe50  1  0.83600913  0.49966171  0.83580537  1
  Fe  Fe51  1  0.83599406  0.83666760  0.50312865  1
  Ni  Ni52  1  0.66653415  0.67019000  0.66780198  1
  Cr  Cr53  1  0.83713609  0.83958299  0.83758195  1
" 