1965,Ni60Fe6Cr33_13,-225.826238181036, 150.594085690905,Ni60Fe6Cr33,"# generated using pymatgen
 data_Cr19Fe3Ni32
_symmetry_space_group_name_H-M   'P 1'
_cell_length_a   7.48493090
_cell_length_b   7.48493090
_cell_length_c   10.58529080
_cell_angle_alpha   90.00000000
_cell_angle_beta   90.00000000
_cell_angle_gamma   90.00000000
_symmetry_Int_Tables_number   1
_chemical_formula_structural   Cr19Fe3Ni32
_chemical_formula_sum   'Cr19 Fe3 Ni32'
_cell_volume   593.03234956
_cell_formula_units_Z   1
loop_
 _symmetry_equiv_pos_site_id
 _symmetry_equiv_pos_as_xyz
  1  'x, y, z'
loop_
 _atom_site_type_symbol
 _atom_site_label
 _atom_site_symmetry_multiplicity
 _atom_site_fract_x
 _atom_site_fract_y
 _atom_site_fract_z
 _atom_site_occupancy
  Ni  Ni0  1  0.00113691  0.00002393  0.99770830  1
  Ni  Ni1  1  0.16867338  0.16470199  0.16446283  1
  Cr  Cr2  1  -0.00101212  0.99806720  0.33133118  1
  Cr  Cr3  1  -0.00027666  0.32969089  0.99801893  1
  Ni  Ni4  1  0.16889369  0.49882385  0.16688263  1
  Cr  Cr5  1  0.00038486  0.33271686  0.33245974  1
  Cr  Cr6  1  0.00035793  0.66759087  0.99879476  1
  Ni  Ni7  1  0.16661995  0.83290633  0.16602361  1
  Ni  Ni8  1  0.99861270  0.66571964  0.33174522  1
  Ni  Ni9  1  0.32843925  0.00094532  0.99857325  1
  Ni  Ni10  1  0.49751805  0.16835262  0.16642171  1
  Ni  Ni11  1  0.33220236  0.00056683  0.33073829  1
  Ni  Ni12  1  0.33288041  0.33094011  0.00063812  1
  Ni  Ni13  1  0.49688723  0.49475953  0.16678198  1
  Ni  Ni14  1  0.33415534  0.33255790  0.33004219  1
  Cr  Cr15  1  0.33140956  0.66434981  0.99767537  1
  Cr  Cr16  1  0.49632993  0.83341316  0.16787592  1
  Ni  Ni17  1  0.33232219  0.66330267  0.33051108  1
  Cr  Cr18  1  0.66694463  0.00083278  0.99864404  1
  Ni  Ni19  1  0.83022309  0.16608347  0.16457937  1
  Ni  Ni20  1  0.66487965  -0.00067728  0.33122861  1
  Ni  Ni21  1  0.66385659  0.33155311  -0.00086939  1
  Cr  Cr22  1  0.83099343  0.49754149  0.16739984  1
  Ni  Ni23  1  0.66249709  0.33328549  0.33101459  1
  Cr  Cr24  1  0.66464330  0.66392573  0.99549771  1
  Cr  Cr25  1  0.83406128  0.83283325  0.16716440  1
  Ni  Ni26  1  0.66552158  0.66380748  0.33494290  1
  Ni  Ni27  1  0.16646864  0.16457043  0.50029469  1
  Ni  Ni28  1  0.00044799  0.00007739  0.66747854  1
  Ni  Ni29  1  0.16405705  0.16296055  0.83166992  1
  Cr  Cr30  1  0.16567712  0.49838873  0.49760257  1
  Fe  Fe31  1  0.99718154  0.33046844  0.66690194  1
  Fe  Fe32  1  0.16556295  0.49859246  0.83200308  1
  Cr  Cr33  1  0.16628350  0.83370022  0.49832958  1
  Cr  Cr34  1  0.99697811  0.66632297  0.66634104  1
  Ni  Ni35  1  0.16680138  0.83480548  0.83163608  1
  Cr  Cr36  1  0.49690478  0.16634241  0.49654270  1
  Ni  Ni37  1  0.32794920  0.99764811  0.66707372  1
  Cr  Cr38  1  0.49786187  0.16551429  0.83362970  1
  Ni  Ni39  1  0.50190561  0.49971794  0.49839358  1
  Cr  Cr40  1  0.33153487  0.33266615  0.66510985  1
  Fe  Fe41  1  0.50037713  0.49947891  0.83118756  1
  Cr  Cr42  1  0.49876232  0.83045235  0.49838326  1
  Ni  Ni43  1  0.33449011  0.66594994  0.66813519  1
  Ni  Ni44  1  0.49637652  0.83029191  0.82984501  1
  Cr  Cr45  1  0.83260015  0.16695585  0.50029603  1
  Cr  Cr46  1  0.66744638  0.99688273  0.66636752  1
  Ni  Ni47  1  0.83468996  0.16734576  0.83166021  1
  Ni  Ni48  1  0.82854317  0.50058665  0.49881973  1
  Ni  Ni49  1  0.66761947  0.33650652  0.66629359  1
  Ni  Ni50  1  0.83015813  0.49739625  0.83005688  1
  Ni  Ni51  1  0.83127373  0.82884357  0.49793289  1
  Ni  Ni52  1  0.66516121  0.66271967  0.66601014  1
  Ni  Ni53  1  0.83322210  0.83168979  0.83120831  1
" 