1351,Ni60Fe6Cr33_6,-225.887518852591, 150.244947744562,Ni60Fe6Cr33,"# generated using pymatgen
 data_Cr19Fe3Ni32
_symmetry_space_group_name_H-M   'P 1'
_cell_length_a   7.48545018
_cell_length_b   7.48545018
_cell_length_c   10.58602517
_cell_angle_alpha   90.00000000
_cell_angle_beta   90.00000000
_cell_angle_gamma   90.00000000
_symmetry_Int_Tables_number   1
_chemical_formula_structural   Cr19Fe3Ni32
_chemical_formula_sum   'Cr19 Fe3 Ni32'
_cell_volume   593.15578610
_cell_formula_units_Z   1
loop_
 _symmetry_equiv_pos_site_id
 _symmetry_equiv_pos_as_xyz
  1  'x, y, z'
loop_
 _atom_site_type_symbol
 _atom_site_label
 _atom_site_symmetry_multiplicity
 _atom_site_fract_x
 _atom_site_fract_y
 _atom_site_fract_z
 _atom_site_occupancy
  Cr  Cr0  1  0.00121394  0.99748938  -0.00046346  1
  Ni  Ni1  1  0.16803963  0.16538418  0.16706671  1
  Cr  Cr2  1  -0.00046340  -0.00004300  0.33232502  1
  Cr  Cr3  1  0.99796959  0.33375533  0.00034389  1
  Ni  Ni4  1  0.16347188  0.49881327  0.16569969  1
  Ni  Ni5  1  -0.00052239  0.33304611  0.33171713  1
  Ni  Ni6  1  0.00233631  0.66468034  -0.00032958  1
  Ni  Ni7  1  0.16751794  0.83211563  0.16314832  1
  Cr  Cr8  1  0.00042871  0.66343422  0.33311546  1
  Ni  Ni9  1  0.33112440  0.99578485  0.00063871  1
  Ni  Ni10  1  0.49792813  0.16542024  0.16668983  1
  Ni  Ni11  1  0.33341247  0.00072806  0.33189590  1
  Cr  Cr12  1  0.33250607  0.33154579  -0.00032490  1
  Cr  Cr13  1  0.49947225  0.49687349  0.16505542  1
  Ni  Ni14  1  0.33158340  0.33048613  0.33235156  1
  Ni  Ni15  1  0.32742825  0.66709178  0.99857434  1
  Cr  Cr16  1  0.49585035  0.83426267  0.16534217  1
  Fe  Fe17  1  0.33066537  0.66498223  0.33409333  1
  Cr  Cr18  1  0.66442400  0.00228390  -0.00017527  1
  Fe  Fe19  1  0.83099645  0.16926648  0.16750768  1
  Ni  Ni20  1  0.66263024  0.00205986  0.33409502  1
  Ni  Ni21  1  0.66677643  0.33206903  0.00044558  1
  Ni  Ni22  1  0.83333687  0.49618575  0.16375407  1
  Ni  Ni23  1  0.66523949  0.32989070  0.33244555  1
  Fe  Fe24  1  0.66603643  0.66312312  -0.00017540  1
  Cr  Cr25  1  0.83288880  0.83019451  0.16448924  1
  Cr  Cr26  1  0.66575936  0.66531828  0.33556241  1
  Ni  Ni27  1  0.16524582  0.16538474  0.49889563  1
  Ni  Ni28  1  0.99837226  0.00016624  0.66441651  1
  Cr  Cr29  1  0.16362338  0.16341649  0.82913907  1
  Ni  Ni30  1  0.16605186  0.49761911  0.49795452  1
  Ni  Ni31  1  0.99690819  0.33035302  0.66397582  1
  Ni  Ni32  1  0.16494315  0.50258475  0.83260059  1
  Ni  Ni33  1  0.16827717  0.83331243  0.50010798  1
  Cr  Cr34  1  0.00201920  0.66552677  0.66371456  1
  Ni  Ni35  1  0.16716492  0.83050634  0.83307954  1
  Ni  Ni36  1  0.49985510  0.16429296  0.49777241  1
  Ni  Ni37  1  0.33140336  0.99590434  0.66372291  1
  Cr  Cr38  1  0.50069602  0.16466466  0.83109105  1
  Ni  Ni39  1  0.49833589  0.49794260  0.49819597  1
  Cr  Cr40  1  0.33163697  0.33373380  0.66387890  1
  Cr  Cr41  1  0.49834333  0.49951354  0.83332485  1
  Ni  Ni42  1  0.49722309  0.83408885  0.49895978  1
  Ni  Ni43  1  0.33010459  0.66729651  0.66376223  1
  Cr  Cr44  1  0.49527464  0.83222061  0.83261502  1
  Ni  Ni45  1  0.83117002  0.16648649  0.49997263  1
  Ni  Ni46  1  0.66651321  0.00150889  0.66263922  1
  Ni  Ni47  1  0.83139126  0.16662070  0.82971457  1
  Ni  Ni48  1  0.83187433  0.49498076  0.49869147  1
  Ni  Ni49  1  0.66798536  0.32898568  0.66341175  1
  Cr  Cr50  1  0.83280692  0.49597746  0.83329949  1
  Ni  Ni51  1  0.83078191  0.83490935  0.50007077  1
  Cr  Cr52  1  0.66358998  0.66561259  0.66178740  1
  Cr  Cr53  1  0.83397905  0.83376994  0.83193890  1
" 