913,Ni60Fe6Cr33_18,-226.058785616352, 155.479741946567,Ni60Fe6Cr33,"# generated using pymatgen
 data_Cr19Fe3Ni32
_symmetry_space_group_name_H-M   'P 1'
_cell_length_a   7.48528569
_cell_length_b   7.48528569
_cell_length_c   10.58579254
_cell_angle_alpha   90.00000000
_cell_angle_beta   90.00000000
_cell_angle_gamma   90.00000000
_symmetry_Int_Tables_number   1
_chemical_formula_structural   Cr19Fe3Ni32
_chemical_formula_sum   'Cr19 Fe3 Ni32'
_cell_volume   593.11668314
_cell_formula_units_Z   1
loop_
 _symmetry_equiv_pos_site_id
 _symmetry_equiv_pos_as_xyz
  1  'x, y, z'
loop_
 _atom_site_type_symbol
 _atom_site_label
 _atom_site_symmetry_multiplicity
 _atom_site_fract_x
 _atom_site_fract_y
 _atom_site_fract_z
 _atom_site_occupancy
  Fe  Fe0  1  0.99848485  0.99870968  0.99675724  1
  Cr  Cr1  1  0.16279747  0.16470821  0.16191573  1
  Ni  Ni2  1  0.99712957  0.99652852  0.33144272  1
  Ni  Ni3  1  0.99816225  0.33286497  0.99703262  1
  Cr  Cr4  1  0.16561714  0.49970390  0.16350380  1
  Cr  Cr5  1  0.99609502  0.33196066  0.33232373  1
  Ni  Ni6  1  0.99541358  0.66462666  0.99727167  1
  Cr  Cr7  1  0.16296257  0.83210098  0.16699575  1
  Ni  Ni8  1  0.99845193  0.66768818  0.33217498  1
  Ni  Ni9  1  0.33141016  -0.00035076  0.99520589  1
  Cr  Cr10  1  0.49864204  0.16537887  0.16426857  1
  Cr  Cr11  1  0.33232909  0.99787166  0.33466254  1
  Ni  Ni12  1  0.32963331  0.32958652  0.99655693  1
  Ni  Ni13  1  0.50004847  0.50161563  0.16469772  1
  Cr  Cr14  1  0.33410739  0.33324738  0.33430407  1
  Cr  Cr15  1  0.33286731  0.66761625  0.99793127  1
  Fe  Fe16  1  0.50102701  0.83059866  0.16458715  1
  Ni  Ni17  1  0.33191527  0.66624214  0.33188466  1
  Cr  Cr18  1  0.66538424  0.99671419  0.99855416  1
  Ni  Ni19  1  0.83332244  0.16247830  0.16609459  1
  Ni  Ni20  1  0.66755793  0.99837871  0.32964586  1
  Cr  Cr21  1  0.66855325  0.33270018  0.00026418  1
  Ni  Ni22  1  0.83183929  0.50171050  0.16364487  1
  Cr  Cr23  1  0.66610205  0.33121028  0.33173758  1
  Ni  Ni24  1  0.66936266  0.66677966  -0.00026554  1
  Ni  Ni25  1  0.83267485  0.83194377  0.16506845  1
  Cr  Cr26  1  0.66587442  0.66434059  0.32976169  1
  Ni  Ni27  1  0.16598967  0.16201745  0.50190522  1
  Ni  Ni28  1  0.00128253  0.00102709  0.66744931  1
  Ni  Ni29  1  0.16505680  0.16481647  0.83254414  1
  Cr  Cr30  1  0.16515130  0.49949623  0.49827310  1
  Ni  Ni31  1  0.99841563  0.33014796  0.66741931  1
  Ni  Ni32  1  0.16216525  0.49623160  0.83400296  1
  Ni  Ni33  1  0.16432182  0.83534128  0.49697042  1
  Cr  Cr34  1  0.99796004  0.66523096  0.66708900  1
  Ni  Ni35  1  0.16495344  0.83533930  0.83285065  1
  Ni  Ni36  1  0.49841529  0.16631000  0.50233232  1
  Ni  Ni37  1  0.33116150  0.00170774  0.66645217  1
  Ni  Ni38  1  0.49736557  0.16282102  0.82964348  1
  Ni  Ni39  1  0.50061451  0.49702169  0.50041928  1
  Ni  Ni40  1  0.33170184  0.32746104  0.66552480  1
  Cr  Cr41  1  0.50024093  0.49732792  0.83088558  1
  Cr  Cr42  1  0.49959894  0.83300096  0.49959431  1
  Cr  Cr43  1  0.33136369  0.66797991  0.66548801  1
  Ni  Ni44  1  0.49947635  0.83493378  0.83207329  1
  Cr  Cr45  1  0.83148392  0.16380513  0.49990174  1
  Ni  Ni46  1  0.66400876  0.00047800  0.66825258  1
  Ni  Ni47  1  0.83386214  0.16598448  0.83057950  1
  Ni  Ni48  1  0.82963217  0.49901958  0.50071814  1
  Ni  Ni49  1  0.66610545  0.33150788  0.66468496  1
  Ni  Ni50  1  0.83366136  0.49839138  0.83216748  1
  Cr  Cr51  1  0.83393297  0.83293308  0.49967957  1
  Ni  Ni52  1  0.66661754  0.66447099  0.66728654  1
  Fe  Fe53  1  0.83190888  0.83245664  0.83200309  1
" 