4374,Ni60Fe6Cr33_16,-225.690008119046, 147.508531817088,Ni60Fe6Cr33,"# generated using pymatgen
 data_Cr19Fe3Ni32
_symmetry_space_group_name_H-M   'P 1'
_cell_length_a   7.49385148
_cell_length_b   7.49385148
_cell_length_c   10.59790640
_cell_angle_alpha   90.00000000
_cell_angle_beta   90.00000000
_cell_angle_gamma   90.00000000
_symmetry_Int_Tables_number   1
_chemical_formula_structural   Cr19Fe3Ni32
_chemical_formula_sum   'Cr19 Fe3 Ni32'
_cell_volume   595.15521446
_cell_formula_units_Z   1
loop_
 _symmetry_equiv_pos_site_id
 _symmetry_equiv_pos_as_xyz
  1  'x, y, z'
loop_
 _atom_site_type_symbol
 _atom_site_label
 _atom_site_symmetry_multiplicity
 _atom_site_fract_x
 _atom_site_fract_y
 _atom_site_fract_z
 _atom_site_occupancy
  Ni  Ni0  1  0.99753412  0.00148624  0.99760124  1
  Fe  Fe1  1  0.16592696  0.16649581  0.16420642  1
  Cr  Cr2  1  -0.00007795  0.99751767  0.33077355  1
  Ni  Ni3  1  -0.00074751  0.32819269  0.99801506  1
  Cr  Cr4  1  0.16672960  0.49956478  0.16386522  1
  Cr  Cr5  1  0.00093459  0.33309060  0.33186799  1
  Cr  Cr6  1  -0.00159636  0.66660337  0.99807282  1
  Cr  Cr7  1  0.16547156  0.83035424  0.16736506  1
  Ni  Ni8  1  0.99802314  0.66409690  0.33381844  1
  Cr  Cr9  1  0.32822310  -0.00090851  0.99755444  1
  Ni  Ni10  1  0.49812056  0.16939796  0.16659024  1
  Ni  Ni11  1  0.33213736  0.00092870  0.33384834  1
  Ni  Ni12  1  0.33100581  0.33305157  0.99820427  1
  Ni  Ni13  1  0.49734734  0.49359094  0.16499894  1
  Ni  Ni14  1  0.33322906  0.33116962  0.33243943  1
  Ni  Ni15  1  0.33257167  0.66122053  0.99468883  1
  Cr  Cr16  1  0.49376411  0.83074374  0.16509743  1
  Ni  Ni17  1  0.33176439  0.66288712  0.33443030  1
  Cr  Cr18  1  0.66767035  0.99672077  0.99804688  1
  Ni  Ni19  1  0.83002205  0.16743993  0.16177344  1
  Cr  Cr20  1  0.66360091  0.99765188  0.33066013  1
  Ni  Ni21  1  0.66439122  0.33183406  0.00125748  1
  Ni  Ni22  1  0.83077267  0.49511084  0.16545941  1
  Fe  Fe23  1  0.66294971  0.33229722  0.33059884  1
  Cr  Cr24  1  0.66248920  0.66444189  0.99806139  1
  Ni  Ni25  1  0.83439792  0.83200258  0.16507539  1
  Cr  Cr26  1  0.66672959  0.66404109  0.33123585  1
  Ni  Ni27  1  0.16918216  0.16301454  0.49742315  1
  Ni  Ni28  1  0.00177862  0.99575840  0.66624074  1
  Ni  Ni29  1  0.16270723  0.16352619  0.83323116  1
  Ni  Ni30  1  0.16523786  0.50191028  0.49745111  1
  Cr  Cr31  1  0.00277273  0.33156291  0.66520840  1
  Ni  Ni32  1  0.16738019  0.50005375  0.83266970  1
  Ni  Ni33  1  0.16682364  0.82964310  0.49853805  1
  Ni  Ni34  1  0.00070078  0.66723342  0.66257857  1
  Ni  Ni35  1  0.16524243  0.83100100  0.82917095  1
  Ni  Ni36  1  0.49431079  0.16412409  0.49571954  1
  Ni  Ni37  1  0.32822313  0.99629986  0.66286508  1
  Cr  Cr38  1  0.49924671  0.16612066  0.83161139  1
  Fe  Fe39  1  0.49514827  0.49972312  0.49681004  1
  Cr  Cr40  1  0.32874842  0.33252423  0.66425117  1
  Ni  Ni41  1  0.49381589  0.49951523  0.83390056  1
  Ni  Ni42  1  0.49344973  0.83277715  0.49836358  1
  Ni  Ni43  1  0.32942510  0.66643688  0.66565686  1
  Ni  Ni44  1  0.49356217  0.82917753  0.83043881  1
  Cr  Cr45  1  0.83035811  0.16519267  0.50069934  1
  Cr  Cr46  1  0.66384949  0.99497336  0.66581649  1
  Ni  Ni47  1  0.83512211  0.16316648  0.83346396  1
  Ni  Ni48  1  0.83394350  0.50096789  0.49663461  1
  Cr  Cr49  1  0.66273024  0.33380769  0.66250707  1
  Cr  Cr50  1  0.83277854  0.49514351  0.83202067  1
  Ni  Ni51  1  0.83455052  0.82853418  0.49913949  1
  Cr  Cr52  1  0.66315102  0.66610288  0.66517032  1
  Ni  Ni53  1  0.83580231  0.83411162  0.83023926  1
" 