3008,Ni60Fe32Cr6_10,-238.749403354019, 206.668401755699,Ni60Fe32Cr6,"# generated using pymatgen
 data_Cr5Fe17Ni32
_symmetry_space_group_name_H-M   'P 1'
_cell_length_a   7.42426223
_cell_length_b   7.42426223
_cell_length_c   10.49949234
_cell_angle_alpha   90.00000000
_cell_angle_beta   90.00000000
_cell_angle_gamma   90.00000000
_symmetry_Int_Tables_number   1
_chemical_formula_structural   Cr5Fe17Ni32
_chemical_formula_sum   'Cr5 Fe17 Ni32'
_cell_volume   578.72854948
_cell_formula_units_Z   1
loop_
 _symmetry_equiv_pos_site_id
 _symmetry_equiv_pos_as_xyz
  1  'x, y, z'
loop_
 _atom_site_type_symbol
 _atom_site_label
 _atom_site_symmetry_multiplicity
 _atom_site_fract_x
 _atom_site_fract_y
 _atom_site_fract_z
 _atom_site_occupancy
  Ni  Ni0  1  0.00339910  1.00081615  1.00140596  1
  Cr  Cr1  1  0.17064685  0.16767962  0.16865501  1
  Fe  Fe2  1  1.00284542  1.00191504  0.33746514  1
  Fe  Fe3  1  0.00372881  0.33689556  1.00262696  1
  Fe  Fe4  1  0.17206363  0.50458234  0.16904788  1
  Fe  Fe5  1  0.00324687  0.33750290  0.33724408  1
  Ni  Ni6  1  0.00400461  0.67151234  0.00431011  1
  Ni  Ni7  1  0.17010122  0.83626301  0.16990305  1
  Fe  Fe8  1  0.00412391  0.66890391  0.33571301  1
  Ni  Ni9  1  0.33530115  1.00285100  1.00106782  1
  Ni  Ni10  1  0.50150259  0.16943284  0.17256685  1
  Ni  Ni11  1  0.33552990  0.00313559  0.33775175  1
  Ni  Ni12  1  0.33631888  0.33686782  0.00289949  1
  Ni  Ni13  1  0.50438701  0.50478449  0.17017353  1
  Ni  Ni14  1  0.33746089  0.33685723  0.33624969  1
  Ni  Ni15  1  0.33553015  0.66909391  1.00219976  1
  Ni  Ni16  1  0.50043340  0.83448418  0.17089380  1
  Ni  Ni17  1  0.33600119  0.66890064  0.33724054  1
  Cr  Cr18  1  0.66871483  1.00196832  0.00351878  1
  Fe  Fe19  1  0.83550065  0.16953543  0.17140298  1
  Fe  Fe20  1  0.66692140  0.00315035  0.33694558  1
  Cr  Cr21  1  0.66569035  0.33589346  1.00250304  1
  Ni  Ni22  1  0.83619682  0.50393907  0.17097731  1
  Ni  Ni23  1  0.66882007  0.33623586  0.33698134  1
  Ni  Ni24  1  0.66946036  0.66999942  0.00317251  1
  Fe  Fe25  1  0.83608381  0.83479702  0.16967197  1
  Ni  Ni26  1  0.67041045  0.66906458  0.33633376  1
  Ni  Ni27  1  0.16914413  0.16829995  0.50336427  1
  Ni  Ni28  1  1.00242316  0.00319736  0.66993359  1
  Ni  Ni29  1  0.16913191  0.16888954  0.83565164  1
  Fe  Fe30  1  0.17207404  0.49944210  0.50290446  1
  Fe  Fe31  1  0.00375160  0.33385817  0.66888347  1
  Ni  Ni32  1  0.17125113  0.50226076  0.83756867  1
  Fe  Fe33  1  0.17107184  0.83862470  0.50170915  1
  Cr  Cr34  1  0.00432651  0.67171272  0.66844569  1
  Ni  Ni35  1  0.17016241  0.83742677  0.83677552  1
  Ni  Ni36  1  0.50233600  0.17052068  0.50221533  1
  Fe  Fe37  1  0.33642140  0.00299035  0.66936481  1
  Ni  Ni38  1  0.50099279  0.16915510  0.83399100  1
  Ni  Ni39  1  0.50388125  0.50428260  0.50293605  1
  Ni  Ni40  1  0.33640165  0.33601563  0.66949577  1
  Ni  Ni41  1  0.50124033  0.50470670  0.83531144  1
  Fe  Fe42  1  0.50356533  0.83733319  0.50248059  1
  Fe  Fe43  1  0.33764223  0.66993784  0.66990105  1
  Ni  Ni44  1  0.50237555  0.83470263  0.83526060  1
  Ni  Ni45  1  0.83698185  0.16916331  0.50208460  1
  Ni  Ni46  1  0.67088095  0.00323116  0.66949089  1
  Ni  Ni47  1  0.83866282  0.16780065  0.83487275  1
  Fe  Fe48  1  0.83425304  0.50105530  0.50156647  1
  Fe  Fe49  1  0.66837416  0.33438169  0.66807665  1
  Cr  Cr50  1  0.83504777  0.50345310  0.83516628  1
  Fe  Fe51  1  0.83372147  0.83835643  0.50326416  1
  Ni  Ni52  1  0.66874577  0.67093030  0.66912065  1
  Ni  Ni53  1  0.83631327  0.83680782  0.83684140  1
" 