971,Ni60Fe40_1,-239.055561398332, 212.551039995999,Ni60Fe40,"# generated using pymatgen
 data_Fe16Ni11
_symmetry_space_group_name_H-M   'P 1'
_cell_length_a   7.39953924
_cell_length_b   7.39953924
_cell_length_c   10.46452875
_cell_angle_alpha   90.00000000
_cell_angle_beta   90.00000000
_cell_angle_gamma   90.00000000
_symmetry_Int_Tables_number   1
_chemical_formula_structural   Fe16Ni11
_chemical_formula_sum   'Fe32 Ni22'
_cell_volume   572.96623682
_cell_formula_units_Z   2
loop_
 _symmetry_equiv_pos_site_id
 _symmetry_equiv_pos_as_xyz
  1  'x, y, z'
loop_
 _atom_site_type_symbol
 _atom_site_label
 _atom_site_symmetry_multiplicity
 _atom_site_fract_x
 _atom_site_fract_y
 _atom_site_fract_z
 _atom_site_occupancy
  Ni  Ni0  1  0.00530489  0.00516426  1.00419215  1
  Fe  Fe1  1  0.17002143  0.17037151  0.17078628  1
  Ni  Ni2  1  0.00501704  1.00432343  0.33799466  1
  Ni  Ni3  1  1.00339687  0.33619358  0.00532038  1
  Ni  Ni4  1  0.17142068  0.50627762  0.17106282  1
  Fe  Fe5  1  1.00392694  0.33901462  0.33797019  1
  Fe  Fe6  1  1.00428936  0.67095441  0.00553032  1
  Ni  Ni7  1  0.16987369  0.83589819  0.17070104  1
  Ni  Ni8  1  0.00537745  0.67286122  0.33789212  1
  Fe  Fe9  1  0.33783452  0.00589607  1.00447199  1
  Ni  Ni10  1  0.50548550  0.17187953  0.17096030  1
  Fe  Fe11  1  0.33824251  1.00394250  0.33767765  1
  Fe  Fe12  1  0.33762712  0.33712142  0.00470060  1
  Fe  Fe13  1  0.50497166  0.50476759  0.17205958  1
  Fe  Fe14  1  0.33834337  0.33880876  0.33781729  1
  Fe  Fe15  1  0.33683194  0.67066723  0.00475799  1
  Fe  Fe16  1  0.50433049  0.83774495  0.17142215  1
  Ni  Ni17  1  0.33824847  0.67202808  0.33769229  1
  Fe  Fe18  1  0.67206567  0.00590537  0.00475768  1
  Ni  Ni19  1  0.83641856  0.17032405  0.17075705  1
  Fe  Fe20  1  0.67201435  1.00394849  0.33789749  1
  Ni  Ni21  1  0.67156542  0.33773958  1.00429390  1
  Fe  Fe22  1  0.83803166  0.50426559  0.17162209  1
  Ni  Ni23  1  0.67113505  0.33804996  0.33800394  1
  Fe  Fe24  1  0.67256445  0.67116449  0.00495354  1
  Ni  Ni25  1  0.83951037  0.83825888  0.17085831  1
  Ni  Ni26  1  0.67006109  0.67012284  0.33825792  1
  Fe  Fe27  1  0.17016012  0.17155957  0.50486748  1
  Fe  Fe28  1  1.00421133  0.00483187  0.67087881  1
  Fe  Fe29  1  0.17093520  0.17129099  0.83803081  1
  Fe  Fe30  1  0.17082347  0.50450886  0.50430855  1
  Ni  Ni31  1  1.00291278  0.33671110  0.67082985  1
  Fe  Fe32  1  0.17157178  0.50393839  0.83816418  1
  Fe  Fe33  1  0.17096162  0.83762105  0.50380529  1
  Fe  Fe34  1  1.00416048  0.67031183  0.67054934  1
  Fe  Fe35  1  0.17201850  0.83845433  0.83830255  1
  Ni  Ni36  1  0.50479594  0.17239607  0.50518772  1
  Fe  Fe37  1  0.33839851  0.00560893  0.67153379  1
  Ni  Ni38  1  0.50457225  0.17186261  0.83753662  1
  Ni  Ni39  1  0.50407624  0.50348579  0.50519213  1
  Fe  Fe40  1  0.33845979  0.33803965  0.67116842  1
  Fe  Fe41  1  0.50477855  0.50422493  0.83719526  1
  Fe  Fe42  1  0.50559268  0.83710019  0.50465688  1
  Ni  Ni43  1  0.33844279  0.67233839  0.67098172  1
  Fe  Fe44  1  0.50411902  0.83795656  0.83760563  1
  Ni  Ni45  1  0.83691460  0.17085392  0.50528847  1
  Fe  Fe46  1  0.67107520  0.00534323  0.67103101  1
  Fe  Fe47  1  0.83783005  0.17194749  0.83818610  1
  Ni  Ni48  1  0.83799348  0.50538590  0.50436850  1
  Ni  Ni49  1  0.67196905  0.33743752  0.67138987  1
  Fe  Fe50  1  0.83733420  0.50314088  0.83741134  1
  Ni  Ni51  1  0.83918627  0.83744301  0.50493104  1
  Fe  Fe52  1  0.67157494  0.67024903  0.67033117  1
  Fe  Fe53  1  0.83755027  0.83859335  0.83818536  1
" 