6641,Ni60Fe32Cr6_1,-238.570419505662, 210.535272092589,Ni60Fe32Cr6,"# generated using pymatgen
 data_Cr5Fe17Ni32
_symmetry_space_group_name_H-M   'P 1'
_cell_length_a   7.42616148
_cell_length_b   7.42616148
_cell_length_c   10.50217829
_cell_angle_alpha   90.00000000
_cell_angle_beta   90.00000000
_cell_angle_gamma   90.00000000
_symmetry_Int_Tables_number   1
_chemical_formula_structural   Cr5Fe17Ni32
_chemical_formula_sum   'Cr5 Fe17 Ni32'
_cell_volume   579.17280906
_cell_formula_units_Z   1
loop_
 _symmetry_equiv_pos_site_id
 _symmetry_equiv_pos_as_xyz
  1  'x, y, z'
loop_
 _atom_site_type_symbol
 _atom_site_label
 _atom_site_symmetry_multiplicity
 _atom_site_fract_x
 _atom_site_fract_y
 _atom_site_fract_z
 _atom_site_occupancy
  Ni  Ni0  1  1.00151824  0.00285649  0.00462939  1
  Ni  Ni1  1  0.16999316  0.16920556  0.16845854  1
  Ni  Ni2  1  1.00192566  1.00118222  0.33566999  1
  Fe  Fe3  1  1.00113456  0.33549855  0.00451495  1
  Fe  Fe4  1  0.17000983  0.50373924  0.16856127  1
  Cr  Cr5  1  0.00367473  0.33451421  0.33683090  1
  Fe  Fe6  1  0.00287677  0.66964820  0.00420003  1
  Ni  Ni7  1  0.16972584  0.83641186  0.16889224  1
  Fe  Fe8  1  1.00150018  0.67090516  0.33619275  1
  Fe  Fe9  1  0.33703331  1.00172505  0.00358764  1
  Fe  Fe10  1  0.50338891  0.16889616  0.16954606  1
  Fe  Fe11  1  0.33684165  0.00349686  0.33604416  1
  Ni  Ni12  1  0.33723096  0.33772514  0.00496958  1
  Fe  Fe13  1  0.50285530  0.50298054  0.17013477  1
  Ni  Ni14  1  0.33745173  0.33697205  0.33569908  1
  Ni  Ni15  1  0.33639623  0.66854247  0.00293713  1
  Ni  Ni16  1  0.50296510  0.83557896  0.16939835  1
  Fe  Fe17  1  0.33714027  0.66945867  0.33628308  1
  Ni  Ni18  1  0.67064328  0.00368745  0.00354185  1
  Ni  Ni19  1  0.83638389  0.16887024  0.16793877  1
  Ni  Ni20  1  0.67081702  1.00198777  0.33602863  1
  Fe  Fe21  1  0.66980003  0.33544018  1.00227262  1
  Ni  Ni22  1  0.83554934  0.50371220  0.16869503  1
  Ni  Ni23  1  0.66666612  0.33609178  0.33588683  1
  Fe  Fe24  1  0.66840108  0.66934618  0.00380316  1
  Ni  Ni25  1  0.83557123  0.83567733  0.16958010  1
  Ni  Ni26  1  0.66880634  0.67017881  0.33585253  1
  Ni  Ni27  1  0.16925623  0.16957879  0.50302317  1
  Ni  Ni28  1  1.00177859  1.00224313  0.66795656  1
  Cr  Cr29  1  0.16874193  0.16812732  0.83623531  1
  Ni  Ni30  1  0.17010667  0.50321851  0.50229247  1
  Fe  Fe31  1  0.99869585  0.33650712  0.66774986  1
  Cr  Cr32  1  0.16797338  0.50420591  0.83701034  1
  Fe  Fe33  1  0.16927602  0.83650673  0.50299172  1
  Ni  Ni34  1  0.00347819  0.67062776  0.66791954  1
  Fe  Fe35  1  0.17056153  0.83620428  0.83636156  1
  Ni  Ni36  1  0.50311107  0.16884212  0.50153330  1
  Fe  Fe37  1  0.33797612  0.99975768  0.66862220  1
  Ni  Ni38  1  0.50476375  0.16762074  0.83696482  1
  Ni  Ni39  1  0.50228003  0.50398472  0.50241809  1
  Cr  Cr40  1  0.33854950  0.33719728  0.66742956  1
  Fe  Fe41  1  0.50548743  0.50312263  0.83622334  1
  Ni  Ni42  1  0.50385341  0.83543200  0.50330014  1
  Ni  Ni43  1  0.33632689  0.67060036  0.66900295  1
  Ni  Ni44  1  0.50166643  0.83622324  0.83556562  1
  Ni  Ni45  1  0.83589254  0.16801442  0.50447505  1
  Ni  Ni46  1  0.67040458  0.00387144  0.66868772  1
  Ni  Ni47  1  0.83436874  0.17137333  0.83585217  1
  Fe  Fe48  1  0.83419379  0.50329588  0.50381976  1
  Ni  Ni49  1  0.67037172  0.33563919  0.67005553  1
  Ni  Ni50  1  0.83516385  0.50134974  0.83499818  1
  Ni  Ni51  1  0.83512470  0.83628626  0.50201506  1
  Ni  Ni52  1  0.66844740  0.66873980  0.66947474  1
  Cr  Cr53  1  0.83450242  0.83575385  0.83652537  1
" 