8105,Ni60Fe27Cr12_0,-236.344632121743, 203.298652642783,Ni60Fe27Cr12,"# generated using pymatgen
 data_Cr4Fe7Ni16
_symmetry_space_group_name_H-M   'P 1'
_cell_length_a   7.43437701
_cell_length_b   7.43437701
_cell_length_c   10.51379679
_cell_angle_alpha   90.00000000
_cell_angle_beta   90.00000000
_cell_angle_gamma   90.00000000
_symmetry_Int_Tables_number   1
_chemical_formula_structural   Cr4Fe7Ni16
_chemical_formula_sum   'Cr8 Fe14 Ni32'
_cell_volume   581.09714342
_cell_formula_units_Z   2
loop_
 _symmetry_equiv_pos_site_id
 _symmetry_equiv_pos_as_xyz
  1  'x, y, z'
loop_
 _atom_site_type_symbol
 _atom_site_label
 _atom_site_symmetry_multiplicity
 _atom_site_fract_x
 _atom_site_fract_y
 _atom_site_fract_z
 _atom_site_occupancy
  Ni  Ni0  1  1.00128343  0.00365639  1.00189194  1
  Ni  Ni1  1  0.16791647  0.16974621  0.16846802  1
  Ni  Ni2  1  1.00181551  0.00313644  0.33617058  1
  Fe  Fe3  1  0.00389390  0.33536957  0.00250935  1
  Ni  Ni4  1  0.16976064  0.49910457  0.17004284  1
  Fe  Fe5  1  0.00248143  0.33432460  0.33559774  1
  Cr  Cr6  1  0.00437597  0.66982349  0.00360517  1
  Ni  Ni7  1  0.17101800  0.83743253  0.17006344  1
  Cr  Cr8  1  0.00328820  0.66968269  0.33428090  1
  Fe  Fe9  1  0.33214562  1.00133285  0.00460995  1
  Fe  Fe10  1  0.50163622  0.16954558  0.16992351  1
  Ni  Ni11  1  0.33481644  0.00416465  0.33392203  1
  Ni  Ni12  1  0.33632250  0.33698380  0.00221885  1
  Fe  Fe13  1  0.50160521  0.50209565  0.16947410  1
  Ni  Ni14  1  0.33655982  0.33541800  0.33593712  1
  Ni  Ni15  1  0.33526595  0.66626636  0.00312191  1
  Ni  Ni16  1  0.50184690  0.83567966  0.16884076  1
  Ni  Ni17  1  0.33610429  0.66689298  0.33390255  1
  Fe  Fe18  1  0.66895032  0.00335210  0.00482345  1
  Ni  Ni19  1  0.83677362  0.16961879  0.16962077  1
  Ni  Ni20  1  0.66984803  0.00406858  0.33383348  1
  Fe  Fe21  1  0.67014951  0.33695803  0.00262273  1
  Ni  Ni22  1  0.83478711  0.49961314  0.16902982  1
  Ni  Ni23  1  0.66734569  0.33487139  0.33631563  1
  Fe  Fe24  1  0.66745051  0.66631466  0.00405532  1
  Ni  Ni25  1  0.83327307  0.83711353  0.16960093  1
  Ni  Ni26  1  0.66859236  0.66765991  0.33393622  1
  Ni  Ni27  1  0.16978968  0.16863251  0.50174040  1
  Fe  Fe28  1  0.00516869  0.00223126  0.66818521  1
  Fe  Fe29  1  0.16842216  0.16935096  0.83699889  1
  Ni  Ni30  1  0.16963071  0.50063332  0.50159915  1
  Cr  Cr31  1  0.00260613  0.33618111  0.67007861  1
  Ni  Ni32  1  0.17009336  0.50248483  0.83548324  1
  Fe  Fe33  1  0.16961638  0.83498198  0.50219842  1
  Ni  Ni34  1  0.00375087  0.66967324  0.66865135  1
  Ni  Ni35  1  0.17006055  0.83626903  0.83370927  1
  Ni  Ni36  1  0.50032695  0.17039183  0.50050905  1
  Fe  Fe37  1  0.33254131  0.00325013  0.66677852  1
  Cr  Cr38  1  0.50116200  0.17008151  0.83567440  1
  Ni  Ni39  1  0.50254558  0.50115940  0.50279833  1
  Ni  Ni40  1  0.33665860  0.33685556  0.66819614  1
  Ni  Ni41  1  0.50185584  0.50186628  0.83457872  1
  Cr  Cr42  1  0.50176990  0.83383317  0.50127504  1
  Ni  Ni43  1  0.33289321  0.66526243  0.66943871  1
  Cr  Cr44  1  0.49927632  0.83314178  0.83612585  1
  Fe  Fe45  1  0.83522812  0.17173678  0.49990636  1
  Cr  Cr46  1  0.67102566  0.00623561  0.66631984  1
  Ni  Ni47  1  0.83655800  0.17080861  0.83704970  1
  Ni  Ni48  1  0.83435756  0.50239982  0.50286949  1
  Ni  Ni49  1  0.66712264  0.33678734  0.66880958  1
  Ni  Ni50  1  0.83465814  0.49994526  0.83559495  1
  Fe  Fe51  1  0.83649005  0.83430875  0.50126010  1
  Ni  Ni52  1  0.66993322  0.66525920  0.66929160  1
  Cr  Cr53  1  0.83580400  0.83466451  0.83511233  1
" 