1087,Ni60Fe6Cr33_9,-226.123728672754, 152.432119152171,Ni60Fe6Cr33,"# generated using pymatgen
 data_Cr19Fe3Ni32
_symmetry_space_group_name_H-M   'P 1'
_cell_length_a   7.48442359
_cell_length_b   7.48442359
_cell_length_c   10.58457335
_cell_angle_alpha   90.00000000
_cell_angle_beta   90.00000000
_cell_angle_gamma   90.00000000
_symmetry_Int_Tables_number   1
_chemical_formula_structural   Cr19Fe3Ni32
_chemical_formula_sum   'Cr19 Fe3 Ni32'
_cell_volume   592.91177414
_cell_formula_units_Z   1
loop_
 _symmetry_equiv_pos_site_id
 _symmetry_equiv_pos_as_xyz
  1  'x, y, z'
loop_
 _atom_site_type_symbol
 _atom_site_label
 _atom_site_symmetry_multiplicity
 _atom_site_fract_x
 _atom_site_fract_y
 _atom_site_fract_z
 _atom_site_occupancy
  Ni  Ni0  1  -0.00009932  0.00121112  0.99879432  1
  Ni  Ni1  1  0.16477723  0.16202725  0.16524485  1
  Ni  Ni2  1  0.00126993  0.00062274  0.33136198  1
  Ni  Ni3  1  0.99710172  0.33162025  0.99761662  1
  Cr  Cr4  1  0.16255465  0.49958135  0.16667148  1
  Cr  Cr5  1  -0.00080863  0.33059655  0.33297078  1
  Ni  Ni6  1  0.99739573  0.66372948  0.99760006  1
  Ni  Ni7  1  0.16473946  0.83613935  0.16673088  1
  Ni  Ni8  1  0.00152853  0.66579023  0.33147624  1
  Ni  Ni9  1  0.33081258  0.99856909  0.99878862  1
  Cr  Cr10  1  0.49589735  0.16696526  0.16569243  1
  Ni  Ni11  1  0.33009418  0.99783739  0.33099688  1
  Cr  Cr12  1  0.32952870  0.33200721  0.99481831  1
  Cr  Cr13  1  0.50267599  0.49615172  0.16627770  1
  Ni  Ni14  1  0.32998023  0.33166637  0.33345741  1
  Cr  Cr15  1  0.33460755  0.66741233  -0.00106236  1
  Ni  Ni16  1  0.49569888  0.83356736  0.16629258  1
  Ni  Ni17  1  0.33030745  0.66730069  0.33226614  1
  Cr  Cr18  1  0.66335145  0.99699861  0.99616865  1
  Fe  Fe19  1  0.83386510  0.16630492  0.16327958  1
  Cr  Cr20  1  0.66652084  -0.00098365  0.33342975  1
  Ni  Ni21  1  0.66910590  0.33369274  0.99686056  1
  Ni  Ni22  1  0.83265856  0.49749095  0.16348671  1
  Ni  Ni23  1  0.66804418  0.33090099  0.33084184  1
  Ni  Ni24  1  0.66636456  0.66436035  0.99677293  1
  Cr  Cr25  1  0.83761384  0.82926388  0.16338595  1
  Cr  Cr26  1  0.66352153  0.66723602  0.33024664  1
  Ni  Ni27  1  0.16848262  0.16482325  0.49799150  1
  Cr  Cr28  1  0.99858227  0.00204649  0.66666540  1
  Ni  Ni29  1  0.16681271  0.16543051  0.83314709  1
  Fe  Fe30  1  0.16790326  0.49973838  0.49975457  1
  Cr  Cr31  1  0.00070949  0.33219859  0.66624880  1
  Ni  Ni32  1  0.16371258  0.49829254  0.82972731  1
  Cr  Cr33  1  0.16574229  0.83317550  0.49821222  1
  Ni  Ni34  1  -0.00071719  0.66309399  0.66772009  1
  Cr  Cr35  1  0.16321909  0.83341799  0.83320595  1
  Cr  Cr36  1  0.49575286  0.16745513  0.49957196  1
  Ni  Ni37  1  0.33293644  -0.00053049  0.66698751  1
  Ni  Ni38  1  0.49772337  0.16714734  0.83091977  1
  Cr  Cr39  1  0.49893118  0.49730448  0.49909165  1
  Ni  Ni40  1  0.33143955  0.33260077  0.66724730  1
  Ni  Ni41  1  0.50179025  0.49752595  0.83015580  1
  Ni  Ni42  1  0.49560147  0.83180413  0.49962192  1
  Ni  Ni43  1  0.33364122  0.66445321  0.66598642  1
  Ni  Ni44  1  0.49881336  0.83162034  0.83065276  1
  Fe  Fe45  1  0.83175448  0.16602267  0.49938672  1
  Cr  Cr46  1  0.66431839  0.99778220  0.66688293  1
  Ni  Ni47  1  0.83216856  0.16758932  0.83373498  1
  Cr  Cr48  1  0.83122818  0.49995005  0.49985735  1
  Ni  Ni49  1  0.66551541  0.33306402  0.66869643  1
  Ni  Ni50  1  0.83125273  0.49982618  0.83341159  1
  Cr  Cr51  1  0.83467687  0.82930228  0.50077180  1
  Ni  Ni52  1  0.66379232  0.66496577  0.66884492  1
  Ni  Ni53  1  0.83242435  0.82915513  0.83235401  1
" 