6538,Ni60Fe32Cr6_0,-239.124421133462, 211.98889491349,Ni60Fe32Cr6,"# generated using pymatgen
 data_Cr5Fe17Ni32
_symmetry_space_group_name_H-M   'P 1'
_cell_length_a   7.42787009
_cell_length_b   7.42787009
_cell_length_c   10.50459463
_cell_angle_alpha   90.00000000
_cell_angle_beta   90.00000000
_cell_angle_gamma   90.00000000
_symmetry_Int_Tables_number   1
_chemical_formula_structural   Cr5Fe17Ni32
_chemical_formula_sum   'Cr5 Fe17 Ni32'
_cell_volume   579.57266910
_cell_formula_units_Z   1
loop_
 _symmetry_equiv_pos_site_id
 _symmetry_equiv_pos_as_xyz
  1  'x, y, z'
loop_
 _atom_site_type_symbol
 _atom_site_label
 _atom_site_symmetry_multiplicity
 _atom_site_fract_x
 _atom_site_fract_y
 _atom_site_fract_z
 _atom_site_occupancy
  Fe  Fe0  1  1.00195369  0.99796104  1.00211427  1
  Fe  Fe1  1  0.16821693  0.16633392  0.17065205  1
  Ni  Ni2  1  0.00356089  1.00108554  0.33616278  1
  Cr  Cr3  1  1.00158687  0.33510988  1.00197033  1
  Cr  Cr4  1  0.16901925  0.50581372  0.16979619  1
  Fe  Fe5  1  0.00298945  0.33577716  0.33877499  1
  Fe  Fe6  1  0.99964036  0.67150629  1.00164596  1
  Ni  Ni7  1  0.16933033  0.83512708  0.16848864  1
  Ni  Ni8  1  0.00285096  0.67083504  0.33590050  1
  Fe  Fe9  1  0.33682459  1.00112423  1.00114523  1
  Cr  Cr10  1  0.50234283  0.16842591  0.16997183  1
  Ni  Ni11  1  0.33346369  0.99986089  0.33449773  1
  Fe  Fe12  1  0.33934079  0.33722073  1.00078746  1
  Fe  Fe13  1  0.50487427  0.50532012  0.16954858  1
  Ni  Ni14  1  0.33572636  0.33740883  0.33609977  1
  Ni  Ni15  1  0.33682932  0.67104812  1.00183673  1
  Fe  Fe16  1  0.50349369  0.83390275  0.16946560  1
  Ni  Ni17  1  0.33598845  0.67030205  0.33666596  1
  Ni  Ni18  1  0.66970161  1.00082674  1.00036443  1
  Cr  Cr19  1  0.83284669  0.16848910  0.16998938  1
  Ni  Ni20  1  0.67079799  1.00084188  0.33684169  1
  Ni  Ni21  1  0.66947786  0.33787519  1.00043205  1
  Ni  Ni22  1  0.83504320  0.50502011  0.17113292  1
  Ni  Ni23  1  0.67022726  0.33900235  0.33582697  1
  Ni  Ni24  1  0.66806126  0.66951533  0.00385004  1
  Ni  Ni25  1  0.83695988  0.83415339  0.16980709  1
  Fe  Fe26  1  0.66879554  0.67100293  0.33603448  1
  Fe  Fe27  1  0.16829435  0.16729010  0.50242522  1
  Ni  Ni28  1  0.00328201  0.00287794  0.66973058  1
  Fe  Fe29  1  0.16989720  0.16762697  0.83422491  1
  Ni  Ni30  1  0.16804385  0.50471436  0.50294993  1
  Ni  Ni31  1  1.00194698  0.33579952  0.66782749  1
  Ni  Ni32  1  0.16894614  0.50412267  0.83486729  1
  Ni  Ni33  1  0.16968318  0.83285851  0.50301875  1
  Ni  Ni34  1  0.00366768  0.66888039  0.67108215  1
  Ni  Ni35  1  0.16927464  0.83324420  0.83610850  1
  Cr  Cr36  1  0.50489991  0.16717737  0.50333088  1
  Ni  Ni37  1  0.33472447  0.99972065  0.67040956  1
  Ni  Ni38  1  0.50400861  0.16936275  0.83527627  1
  Fe  Fe39  1  0.50201332  0.50432856  0.50245939  1
  Fe  Fe40  1  0.33507166  0.33678111  0.66978395  1
  Fe  Fe41  1  0.50316581  0.50589992  0.83602252  1
  Ni  Ni42  1  0.50135331  0.83660465  0.50198667  1
  Ni  Ni43  1  0.33618245  0.67056480  0.66911990  1
  Ni  Ni44  1  0.50274546  0.83872436  0.83573889  1
  Ni  Ni45  1  0.83498599  0.17011830  0.50296207  1
  Ni  Ni46  1  0.66989257  1.00176294  0.67055105  1
  Fe  Fe47  1  0.83510004  0.16765800  0.83405000  1
  Fe  Fe48  1  0.83607110  0.50366767  0.50350871  1
  Ni  Ni49  1  0.67150776  0.33709563  0.67216831  1
  Ni  Ni50  1  0.83702953  0.50364469  0.83518876  1
  Fe  Fe51  1  0.83714300  0.83689608  0.50354920  1
  Ni  Ni52  1  0.66792981  0.66954963  0.66903170  1
  Ni  Ni53  1  0.83560379  0.83454650  0.83523238  1
" 