2042,Ni60Fe40_14,-239.194958641745, 218.603101257612,Ni60Fe40,"# generated using pymatgen
 data_Fe16Ni11
_symmetry_space_group_name_H-M   'P 1'
_cell_length_a   7.39628092
_cell_length_b   7.39628092
_cell_length_c   10.45992079
_cell_angle_alpha   90.00000000
_cell_angle_beta   90.00000000
_cell_angle_gamma   90.00000000
_symmetry_Int_Tables_number   1
_chemical_formula_structural   Fe16Ni11
_chemical_formula_sum   'Fe32 Ni22'
_cell_volume   572.20966778
_cell_formula_units_Z   2
loop_
 _symmetry_equiv_pos_site_id
 _symmetry_equiv_pos_as_xyz
  1  'x, y, z'
loop_
 _atom_site_type_symbol
 _atom_site_label
 _atom_site_symmetry_multiplicity
 _atom_site_fract_x
 _atom_site_fract_y
 _atom_site_fract_z
 _atom_site_occupancy
  Fe  Fe0  1  0.00640124  0.00527809  0.00496720  1
  Ni  Ni1  1  0.17146053  0.17124384  0.17114911  1
  Fe  Fe2  1  0.00483857  0.00501412  0.33768701  1
  Ni  Ni3  1  1.00390239  0.33812431  0.00533398  1
  Fe  Fe4  1  0.17193831  0.50451994  0.17167248  1
  Fe  Fe5  1  0.00519553  0.33785068  0.33794052  1
  Fe  Fe6  1  0.00621496  0.67162584  1.00422506  1
  Fe  Fe7  1  0.17215924  0.83779468  0.17112499  1
  Fe  Fe8  1  1.00467836  0.67149029  0.33900643  1
  Ni  Ni9  1  0.33867851  1.00363932  0.00617409  1
  Fe  Fe10  1  0.50468918  0.17145252  0.17178610  1
  Fe  Fe11  1  0.33859302  0.00544087  0.33811585  1
  Ni  Ni12  1  0.33727392  0.33811191  1.00455202  1
  Ni  Ni13  1  0.50465866  0.50426069  0.17131700  1
  Ni  Ni14  1  0.33851449  0.33940673  0.33802898  1
  Ni  Ni15  1  0.33782833  0.67259485  0.00479297  1
  Fe  Fe16  1  0.50450037  0.83826671  0.17128287  1
  Ni  Ni17  1  0.33713657  0.67144019  0.33790654  1
  Fe  Fe18  1  0.67107252  0.00516951  0.00534542  1
  Fe  Fe19  1  0.83780589  0.17167555  0.17121515  1
  Ni  Ni20  1  0.67251126  0.00529249  0.33780544  1
  Fe  Fe21  1  0.67031207  0.33829888  1.00459945  1
  Fe  Fe22  1  0.83827856  0.50432420  0.17126966  1
  Ni  Ni23  1  0.67197963  0.33665942  0.33714800  1
  Fe  Fe24  1  0.67039746  0.67088420  0.00545454  1
  Ni  Ni25  1  0.83823647  0.83884314  0.17071324  1
  Fe  Fe26  1  0.67023040  0.67072181  0.33750545  1
  Fe  Fe27  1  0.17250240  0.17250740  0.50453226  1
  Fe  Fe28  1  0.00599866  0.00501621  0.67169679  1
  Fe  Fe29  1  0.17136018  0.17135824  0.83903468  1
  Ni  Ni30  1  0.17333805  0.50541604  0.50501653  1
  Ni  Ni31  1  1.00342320  0.33905967  0.67068686  1
  Fe  Fe32  1  0.17077689  0.50455501  0.83740233  1
  Ni  Ni33  1  0.17110146  0.83783516  0.50423178  1
  Ni  Ni34  1  0.00520268  0.67137003  0.67175924  1
  Ni  Ni35  1  0.17158229  0.83810435  0.83867600  1
  Fe  Fe36  1  0.50385125  0.17225434  0.50477948  1
  Ni  Ni37  1  0.33855013  1.00351162  0.67068368  1
  Fe  Fe38  1  0.50423825  0.17076890  0.83778208  1
  Ni  Ni39  1  0.50430017  0.50402461  0.50554910  1
  Ni  Ni40  1  0.33812623  0.33810294  0.67177460  1
  Fe  Fe41  1  0.50430978  0.50463107  0.83804830  1
  Fe  Fe42  1  0.50324648  0.83723767  0.50477355  1
  Ni  Ni43  1  0.33674761  0.67273426  0.67165149  1
  Fe  Fe44  1  0.50396501  0.83894828  0.83829750  1
  Fe  Fe45  1  0.83801092  0.17249483  0.50533973  1
  Fe  Fe46  1  0.67139579  0.00559860  0.67121900  1
  Ni  Ni47  1  0.83791356  0.17157621  0.83874537  1
  Fe  Fe48  1  0.83885122  0.50485284  0.50544633  1
  Ni  Ni49  1  0.67280491  0.33725619  0.67158560  1
  Fe  Fe50  1  0.83925487  0.50427506  0.83763046  1
  Fe  Fe51  1  0.83859939  0.83699383  0.50386328  1
  Fe  Fe52  1  0.67072579  0.67006113  0.67138969  1
  Fe  Fe53  1  0.83866901  0.83836331  0.83861736  1
" 