1762,Ni60Fe32Cr6_8,-238.266381648991, 209.169225495923,Ni60Fe32Cr6,"# generated using pymatgen
 data_Cr5Fe17Ni32
_symmetry_space_group_name_H-M   'P 1'
_cell_length_a   7.42280200
_cell_length_b   7.42280200
_cell_length_c   10.49742726
_cell_angle_alpha   90.00000000
_cell_angle_beta   90.00000000
_cell_angle_gamma   90.00000000
_symmetry_Int_Tables_number   1
_chemical_formula_structural   Cr5Fe17Ni32
_chemical_formula_sum   'Cr5 Fe17 Ni32'
_cell_volume   578.38713766
_cell_formula_units_Z   1
loop_
 _symmetry_equiv_pos_site_id
 _symmetry_equiv_pos_as_xyz
  1  'x, y, z'
loop_
 _atom_site_type_symbol
 _atom_site_label
 _atom_site_symmetry_multiplicity
 _atom_site_fract_x
 _atom_site_fract_y
 _atom_site_fract_z
 _atom_site_occupancy
  Fe  Fe0  1  1.00076767  0.00429917  0.00320165  1
  Fe  Fe1  1  0.16939081  0.17039440  0.17057668  1
  Ni  Ni2  1  0.00466692  1.00215111  0.33521773  1
  Ni  Ni3  1  1.00271935  0.33547719  1.00278608  1
  Ni  Ni4  1  0.17059505  0.50221124  0.17021420  1
  Ni  Ni5  1  1.00099012  0.33673508  0.33643134  1
  Cr  Cr6  1  1.00119579  0.66926820  0.00337356  1
  Ni  Ni7  1  0.16703046  0.83493200  0.17117999  1
  Ni  Ni8  1  1.00284093  0.66997726  0.33634048  1
  Cr  Cr9  1  0.33551478  0.00365895  1.00267888  1
  Ni  Ni10  1  0.50437111  0.17245191  0.17053629  1
  Ni  Ni11  1  0.33557836  1.00294293  0.33707519  1
  Ni  Ni12  1  0.33679739  0.33562701  0.00361176  1
  Ni  Ni13  1  0.50095413  0.50004263  0.16952104  1
  Fe  Fe14  1  0.33531474  0.33666135  0.33610544  1
  Fe  Fe15  1  0.33653313  0.66543691  0.00357920  1
  Cr  Cr16  1  0.50397680  0.83599647  0.17039152  1
  Ni  Ni17  1  0.33555890  0.67106826  0.33611550  1
  Fe  Fe18  1  0.67240728  0.00422583  1.00226204  1
  Fe  Fe19  1  0.83690892  0.17018186  0.17021498  1
  Fe  Fe20  1  0.67099301  0.00406943  0.33746177  1
  Fe  Fe21  1  0.66902421  0.33678157  1.00285499  1
  Fe  Fe22  1  0.83522062  0.50290309  0.17075985  1
  Ni  Ni23  1  0.66970968  0.33696564  0.33551439  1
  Ni  Ni24  1  0.66969019  0.66839430  1.00275203  1
  Ni  Ni25  1  0.83817143  0.83848906  0.17098678  1
  Fe  Fe26  1  0.67110996  0.66927835  0.33723999  1
  Fe  Fe27  1  0.16943803  0.16755006  0.50226104  1
  Ni  Ni28  1  0.00466314  1.00038224  0.67049336  1
  Fe  Fe29  1  0.16926237  0.17129285  0.83610770  1
  Ni  Ni30  1  0.16996828  0.50430323  0.50224719  1
  Cr  Cr31  1  0.00303086  0.33708952  0.66928778  1
  Ni  Ni32  1  0.17196334  0.50304252  0.83632702  1
  Ni  Ni33  1  0.16929048  0.83477305  0.50285081  1
  Ni  Ni34  1  1.00097241  0.67184146  0.66936593  1
  Fe  Fe35  1  0.16905737  0.83607286  0.83402751  1
  Ni  Ni36  1  0.50277710  0.16842919  0.50192181  1
  Ni  Ni37  1  0.33636147  0.00330201  0.66940966  1
  Ni  Ni38  1  0.50333777  0.16993678  0.83641489  1
  Fe  Fe39  1  0.50312455  0.50461151  0.50196869  1
  Ni  Ni40  1  0.33740120  0.33402282  0.66887947  1
  Ni  Ni41  1  0.50014862  0.50252304  0.83743293  1
  Ni  Ni42  1  0.50272888  0.83826992  0.50339965  1
  Fe  Fe43  1  0.33537875  0.66916292  0.66865857  1
  Fe  Fe44  1  0.50534910  0.83442508  0.83492430  1
  Ni  Ni45  1  0.83519112  0.16760860  0.50141948  1
  Fe  Fe46  1  0.67016798  1.00202225  0.66942652  1
  Ni  Ni47  1  0.83565348  0.16687079  0.83867299  1
  Ni  Ni48  1  0.83847413  0.50438374  0.50112221  1
  Cr  Cr49  1  0.66870585  0.33849610  0.67064735  1
  Ni  Ni50  1  0.83660113  0.50399976  0.83767539  1
  Ni  Ni51  1  0.83709412  0.83704570  0.50311168  1
  Ni  Ni52  1  0.67072008  0.67078969  0.66910916  1
  Ni  Ni53  1  0.83604740  0.83807189  0.83479431  1
" 