1764,Ni60Fe6Cr33_17,-225.834539507064, 150.846987187148,Ni60Fe6Cr33,"# generated using pymatgen
 data_Cr19Fe3Ni32
_symmetry_space_group_name_H-M   'P 1'
_cell_length_a   7.48765398
_cell_length_b   7.48765398
_cell_length_c   10.58914182
_cell_angle_alpha   90.00000000
_cell_angle_beta   90.00000000
_cell_angle_gamma   90.00000000
_symmetry_Int_Tables_number   1
_chemical_formula_structural   Cr19Fe3Ni32
_chemical_formula_sum   'Cr19 Fe3 Ni32'
_cell_volume   593.67983554
_cell_formula_units_Z   1
loop_
 _symmetry_equiv_pos_site_id
 _symmetry_equiv_pos_as_xyz
  1  'x, y, z'
loop_
 _atom_site_type_symbol
 _atom_site_label
 _atom_site_symmetry_multiplicity
 _atom_site_fract_x
 _atom_site_fract_y
 _atom_site_fract_z
 _atom_site_occupancy
  Ni  Ni0  1  -0.00101827  0.99692408  -0.00126744  1
  Ni  Ni1  1  0.16398049  0.16526178  0.16693586  1
  Ni  Ni2  1  -0.00094329  0.99675952  0.32981755  1
  Cr  Cr3  1  0.00073900  0.33029615  0.99786267  1
  Ni  Ni4  1  0.16728354  0.50043258  0.16692982  1
  Ni  Ni5  1  0.00132555  0.33237598  0.33098002  1
  Ni  Ni6  1  0.00301979  0.66776027  -0.00076396  1
  Ni  Ni7  1  0.16404464  0.83025114  0.16419135  1
  Fe  Fe8  1  0.00121180  0.66687630  0.33097245  1
  Cr  Cr9  1  0.32995371  0.99769207  -0.00122494  1
  Cr  Cr10  1  0.49747701  0.16542650  0.16784279  1
  Cr  Cr11  1  0.32982449  0.99570401  0.33278437  1
  Cr  Cr12  1  0.33124508  0.33454411  0.99830891  1
  Ni  Ni13  1  0.49514584  0.50152724  0.16738929  1
  Ni  Ni14  1  0.33005912  0.33527627  0.33138976  1
  Ni  Ni15  1  0.32910987  0.66456403  -0.00011032  1
  Ni  Ni16  1  0.49870003  0.82971939  0.16600578  1
  Ni  Ni17  1  0.33029272  0.66434486  0.32971808  1
  Ni  Ni18  1  0.66741991  0.99782765  -0.00108412  1
  Cr  Cr19  1  0.83361881  0.16283820  0.16591837  1
  Ni  Ni20  1  0.66690477  0.99674117  0.33102980  1
  Cr  Cr21  1  0.66429553  0.33084748  0.99560010  1
  Cr  Cr22  1  0.83382769  0.50022190  0.16759855  1
  Ni  Ni23  1  0.66434060  0.33293613  0.33231172  1
  Cr  Cr24  1  0.66288650  0.66503359  0.00080093  1
  Ni  Ni25  1  0.83320869  0.83262508  0.16582973  1
  Ni  Ni26  1  0.66386489  0.66631795  0.32943139  1
  Cr  Cr27  1  0.16688568  0.16709317  0.49835755  1
  Ni  Ni28  1  0.00044528  -0.00053251  0.66698677  1
  Ni  Ni29  1  0.16479505  0.16521826  0.83003743  1
  Ni  Ni30  1  0.16457045  0.49930467  0.49758231  1
  Ni  Ni31  1  0.00032000  0.33091679  0.66676484  1
  Ni  Ni32  1  0.16642830  0.49870693  0.83139851  1
  Ni  Ni33  1  0.16335211  0.83044179  0.49973563  1
  Fe  Fe34  1  0.00061243  0.66514473  0.66553613  1
  Fe  Fe35  1  0.16483352  0.83263587  0.83225325  1
  Ni  Ni36  1  0.49869536  0.16621368  0.50022183  1
  Ni  Ni37  1  0.32981925  0.00057151  0.66552604  1
  Ni  Ni38  1  0.49797585  0.16499506  0.82816358  1
  Cr  Cr39  1  0.49715115  0.49605450  0.49775428  1
  Ni  Ni40  1  0.33081821  0.33135027  0.66657886  1
  Ni  Ni41  1  0.49542953  0.49769310  0.83057911  1
  Cr  Cr42  1  0.49871089  0.83404387  0.49888299  1
  Cr  Cr43  1  0.33049450  0.66514283  0.66576248  1
  Cr  Cr44  1  0.49777439  0.83295846  0.83183953  1
  Cr  Cr45  1  0.83129842  0.16544923  0.49810183  1
  Ni  Ni46  1  0.66562338  0.00095376  0.66598669  1
  Ni  Ni47  1  0.83311742  0.16266316  0.83039407  1
  Cr  Cr48  1  0.83437155  0.49867077  0.49903167  1
  Ni  Ni49  1  0.66470041  0.33064052  0.66729478  1
  Cr  Cr50  1  0.83388429  0.49917217  0.82911488  1
  Cr  Cr51  1  0.83305783  0.83164550  0.49880624  1
  Ni  Ni52  1  0.66508738  0.66419948  0.66595000  1
  Cr  Cr53  1  0.83362356  0.83322171  0.83185495  1
" 