708,Ni60Fe32Cr6_12,-238.65073276471, 210.461309899606,Ni60Fe32Cr6,"# generated using pymatgen
 data_Cr5Fe17Ni32
_symmetry_space_group_name_H-M   'P 1'
_cell_length_a   7.42371313
_cell_length_b   7.42371313
_cell_length_c   10.49871579
_cell_angle_alpha   90.00000000
_cell_angle_beta   90.00000000
_cell_angle_gamma   90.00000000
_symmetry_Int_Tables_number   1
_chemical_formula_structural   Cr5Fe17Ni32
_chemical_formula_sum   'Cr5 Fe17 Ni32'
_cell_volume   578.60014904
_cell_formula_units_Z   1
loop_
 _symmetry_equiv_pos_site_id
 _symmetry_equiv_pos_as_xyz
  1  'x, y, z'
loop_
 _atom_site_type_symbol
 _atom_site_label
 _atom_site_symmetry_multiplicity
 _atom_site_fract_x
 _atom_site_fract_y
 _atom_site_fract_z
 _atom_site_occupancy
  Ni  Ni0  1  1.00260325  1.00222763  1.00240879  1
  Ni  Ni1  1  0.16973402  0.17074647  0.16950154  1
  Ni  Ni2  1  1.00169782  0.00398639  0.33652048  1
  Ni  Ni3  1  0.00371401  0.33544379  0.00352295  1
  Ni  Ni4  1  0.17002446  0.50010315  0.16796243  1
  Fe  Fe5  1  1.00281775  0.33484133  0.33621985  1
  Ni  Ni6  1  1.00229346  0.67107893  0.00403005  1
  Ni  Ni7  1  0.16945401  0.83790705  0.16767150  1
  Cr  Cr8  1  1.00160314  0.67115297  0.33643170  1
  Fe  Fe9  1  0.33532021  1.00204796  0.00377829  1
  Fe  Fe10  1  0.50205425  0.16952687  0.16920828  1
  Fe  Fe11  1  0.33636013  0.00345273  0.33596386  1
  Ni  Ni12  1  0.33608486  0.33684330  0.00484443  1
  Ni  Ni13  1  0.50316869  0.50173110  0.16816760  1
  Ni  Ni14  1  0.33616006  0.33528412  0.33618105  1
  Fe  Fe15  1  0.33687164  0.67033659  0.00377020  1
  Ni  Ni16  1  0.50451821  0.83705412  0.16847643  1
  Cr  Cr17  1  0.33708919  0.66790535  0.33633663  1
  Ni  Ni18  1  0.67112431  1.00158077  0.00374490  1
  Fe  Fe19  1  0.83675945  0.16856909  0.16964097  1
  Ni  Ni20  1  0.67086519  1.00256090  0.33627402  1
  Ni  Ni21  1  0.66895690  0.33715066  0.00348846  1
  Fe  Fe22  1  0.83574729  0.50343325  0.16810248  1
  Fe  Fe23  1  0.66986183  0.33632297  0.33613851  1
  Ni  Ni24  1  0.66972790  0.67002616  1.00259584  1
  Ni  Ni25  1  0.83478539  0.83734722  0.16916146  1
  Ni  Ni26  1  0.66972381  0.67065638  0.33679757  1
  Fe  Fe27  1  0.16862669  0.16933038  0.50249114  1
  Ni  Ni28  1  1.00198293  0.00405420  0.66982815  1
  Fe  Fe29  1  0.16757155  0.16759122  0.83690195  1
  Ni  Ni30  1  0.17008883  0.50026311  0.50338594  1
  Fe  Fe31  1  1.00171674  0.33468105  0.66878188  1
  Cr  Cr32  1  0.16921696  0.50237454  0.83776387  1
  Ni  Ni33  1  0.17101333  0.83787802  0.50376628  1
  Cr  Cr34  1  1.00194433  0.67205737  0.66805663  1
  Ni  Ni35  1  0.17031273  0.83814556  0.83731820  1
  Fe  Fe36  1  0.50335212  0.16930609  0.50312912  1
  Fe  Fe37  1  0.33587142  1.00063076  0.66901492  1
  Cr  Cr38  1  0.50345217  0.16881625  0.83685947  1
  Fe  Fe39  1  0.50370234  0.50325041  0.50342996  1
  Ni  Ni40  1  0.33624795  0.33723907  0.66772926  1
  Fe  Fe41  1  0.50468912  0.50554694  0.83662366  1
  Ni  Ni42  1  0.50378595  0.83747488  0.50404401  1
  Ni  Ni43  1  0.33868768  0.66854658  0.66891851  1
  Ni  Ni44  1  0.50346498  0.83593480  0.83623657  1
  Ni  Ni45  1  0.83590799  0.16998554  0.50350009  1
  Ni  Ni46  1  0.67154606  1.00161089  0.66873888  1
  Fe  Fe47  1  0.83783403  0.16835784  0.83617640  1
  Ni  Ni48  1  0.83550090  0.50064917  0.50248535  1
  Fe  Fe49  1  0.67073679  0.33730324  0.66914592  1
  Ni  Ni50  1  0.83469311  0.50190814  0.83738773  1
  Ni  Ni51  1  0.83395949  0.83812002  0.50302426  1
  Ni  Ni52  1  0.66759853  0.67039021  0.66935962  1
  Ni  Ni53  1  0.83498131  0.83684367  0.83656919  1
" 