5809,Ni60Fe40_13,-239.423753403102, 218.482203629054,Ni60Fe40,"# generated using pymatgen
 data_Fe16Ni11
_symmetry_space_group_name_H-M   'P 1'
_cell_length_a   7.39760814
_cell_length_b   7.39760814
_cell_length_c   10.46179776
_cell_angle_alpha   90.00000000
_cell_angle_beta   90.00000000
_cell_angle_gamma   90.00000000
_symmetry_Int_Tables_number   1
_chemical_formula_structural   Fe16Ni11
_chemical_formula_sum   'Fe32 Ni22'
_cell_volume   572.51776218
_cell_formula_units_Z   2
loop_
 _symmetry_equiv_pos_site_id
 _symmetry_equiv_pos_as_xyz
  1  'x, y, z'
loop_
 _atom_site_type_symbol
 _atom_site_label
 _atom_site_symmetry_multiplicity
 _atom_site_fract_x
 _atom_site_fract_y
 _atom_site_fract_z
 _atom_site_occupancy
  Fe  Fe0  1  1.00331440  0.00531240  0.00507476  1
  Ni  Ni1  1  0.17233489  0.17251915  0.17062760  1
  Fe  Fe2  1  1.00437092  1.00373242  0.33764801  1
  Fe  Fe3  1  1.00403207  0.33767074  1.00408616  1
  Fe  Fe4  1  0.17096123  0.50475387  0.17080700  1
  Fe  Fe5  1  1.00450768  0.33870370  0.33863488  1
  Fe  Fe6  1  1.00359937  0.67109479  1.00463460  1
  Fe  Fe7  1  0.17073181  0.83831366  0.17179212  1
  Ni  Ni8  1  1.00390226  0.67135918  0.33773867  1
  Fe  Fe9  1  0.33938923  0.00518381  1.00459733  1
  Fe  Fe10  1  0.50480735  0.17116875  0.17129082  1
  Fe  Fe11  1  0.33766590  1.00444824  0.33863027  1
  Ni  Ni12  1  0.33763579  0.33741867  0.00469604  1
  Fe  Fe13  1  0.50503531  0.50462247  0.17094377  1
  Fe  Fe14  1  0.33781630  0.33827667  0.33800455  1
  Fe  Fe15  1  0.33954023  0.67079071  1.00380405  1
  Fe  Fe16  1  0.50510898  0.83828870  0.17068103  1
  Fe  Fe17  1  0.33810515  0.67135915  0.33827342  1
  Ni  Ni18  1  0.67164262  1.00431515  0.00585908  1
  Fe  Fe19  1  0.83810873  0.17094004  0.17024778  1
  Fe  Fe20  1  0.67204184  1.00344657  0.33823757  1
  Ni  Ni21  1  0.67083279  0.33741451  0.00485282  1
  Fe  Fe22  1  0.83808312  0.50505255  0.17213487  1
  Fe  Fe23  1  0.67175751  0.33914151  0.33797283  1
  Ni  Ni24  1  0.67234722  0.67234838  1.00455605  1
  Ni  Ni25  1  0.83694481  0.83712459  0.17092537  1
  Ni  Ni26  1  0.67276328  0.67206061  0.33823566  1
  Ni  Ni27  1  0.17313522  0.17223049  0.50553580  1
  Fe  Fe28  1  0.00529662  0.00476451  0.67135682  1
  Fe  Fe29  1  0.17128762  0.17131908  0.83776380  1
  Fe  Fe30  1  0.17065745  0.50448832  0.50585917  1
  Ni  Ni31  1  0.00553830  0.33893185  0.67109035  1
  Ni  Ni32  1  0.17217455  0.50369308  0.83801896  1
  Fe  Fe33  1  0.17101242  0.83803120  0.50488053  1
  Ni  Ni34  1  0.00483757  0.67055114  0.67114238  1
  Fe  Fe35  1  0.17116606  0.83764615  0.83740472  1
  Ni  Ni36  1  0.50272597  0.17152838  0.50488077  1
  Ni  Ni37  1  0.33922030  0.00530231  0.67164707  1
  Fe  Fe38  1  0.50526071  0.17086868  0.83763195  1
  Fe  Fe39  1  0.50497838  0.50433437  0.50452114  1
  Ni  Ni40  1  0.33690114  0.33742183  0.67099697  1
  Fe  Fe41  1  0.50486256  0.50497236  0.83861140  1
  Fe  Fe42  1  0.50503649  0.83859395  0.50550444  1
  Ni  Ni43  1  0.33689191  0.67135526  0.67073575  1
  Ni  Ni44  1  0.50584067  0.83786470  0.83811652  1
  Fe  Fe45  1  0.83787523  0.17151013  0.50558373  1
  Ni  Ni46  1  0.67083558  1.00460610  0.67088413  1
  Ni  Ni47  1  0.83793322  0.17065027  0.83775932  1
  Ni  Ni48  1  0.83821688  0.50658290  0.50514085  1
  Fe  Fe49  1  0.67109112  0.33780184  0.67139489  1
  Fe  Fe50  1  0.83812274  0.50509227  0.83762772  1
  Ni  Ni51  1  0.83751571  0.83632399  0.50514300  1
  Fe  Fe52  1  0.67122379  0.67179357  0.67121022  1
  Ni  Ni53  1  0.83642313  0.83832241  0.83801264  1
" 