4531,Ni60Fe32Cr6_18,-238.430242799398, 210.241049500944,Ni60Fe32Cr6,"# generated using pymatgen
 data_Cr5Fe17Ni32
_symmetry_space_group_name_H-M   'P 1'
_cell_length_a   7.42377245
_cell_length_b   7.42377245
_cell_length_c   10.49879969
_cell_angle_alpha   90.00000000
_cell_angle_beta   90.00000000
_cell_angle_gamma   90.00000000
_symmetry_Int_Tables_number   1
_chemical_formula_structural   Cr5Fe17Ni32
_chemical_formula_sum   'Cr5 Fe17 Ni32'
_cell_volume   578.61402120
_cell_formula_units_Z   1
loop_
 _symmetry_equiv_pos_site_id
 _symmetry_equiv_pos_as_xyz
  1  'x, y, z'
loop_
 _atom_site_type_symbol
 _atom_site_label
 _atom_site_symmetry_multiplicity
 _atom_site_fract_x
 _atom_site_fract_y
 _atom_site_fract_z
 _atom_site_occupancy
  Fe  Fe0  1  0.00409384  0.00437667  0.00326045  1
  Ni  Ni1  1  0.16964571  0.17034097  0.16865515  1
  Cr  Cr2  1  0.00301318  0.00301274  0.33646601  1
  Fe  Fe3  1  0.00312756  0.33613071  0.00370144  1
  Ni  Ni4  1  0.16827442  0.50269683  0.17149626  1
  Ni  Ni5  1  0.00378076  0.33785935  0.33661628  1
  Fe  Fe6  1  0.00296662  0.66823839  0.00379610  1
  Ni  Ni7  1  0.16963944  0.83570463  0.16973699  1
  Ni  Ni8  1  1.00194603  0.66826469  0.33534389  1
  Ni  Ni9  1  0.33557204  0.00475614  1.00273767  1
  Ni  Ni10  1  0.50322938  0.16950963  0.17035472  1
  Fe  Fe11  1  0.33749514  1.00288927  0.33610206  1
  Ni  Ni12  1  0.33689551  0.33392475  0.00291942  1
  Ni  Ni13  1  0.50408617  0.50301304  0.17051818  1
  Ni  Ni14  1  0.33564663  0.33515196  0.33451771  1
  Cr  Cr15  1  0.33663180  0.66933412  1.00291245  1
  Ni  Ni16  1  0.50354835  0.83622139  0.17065530  1
  Fe  Fe17  1  0.33515681  0.66983277  0.33476885  1
  Fe  Fe18  1  0.66744999  0.00432543  0.00351159  1
  Ni  Ni19  1  0.83586953  0.17087860  0.16903074  1
  Fe  Fe20  1  0.66824909  0.00324953  0.33661889  1
  Ni  Ni21  1  0.66935788  0.33658792  0.00317113  1
  Ni  Ni22  1  0.83638555  0.50301797  0.16978767  1
  Fe  Fe23  1  0.67112597  0.33580571  0.33524957  1
  Ni  Ni24  1  0.67069520  0.66844386  0.00298884  1
  Fe  Fe25  1  0.83539665  0.83470417  0.16902521  1
  Ni  Ni26  1  0.67064017  0.67059597  0.33549208  1
  Ni  Ni27  1  0.16884205  0.16997482  0.50414723  1
  Ni  Ni28  1  0.00559763  1.00239308  0.66906308  1
  Ni  Ni29  1  0.16916673  0.16964208  0.83594397  1
  Fe  Fe30  1  0.16835676  0.50179730  0.50261000  1
  Fe  Fe31  1  0.00326995  0.33495815  0.66922091  1
  Ni  Ni32  1  0.16959282  0.50231847  0.83485835  1
  Fe  Fe33  1  0.17025224  0.83679168  0.50420242  1
  Ni  Ni34  1  0.00368123  0.66979122  0.66867059  1
  Ni  Ni35  1  0.17018748  0.83678097  0.83445497  1
  Ni  Ni36  1  0.50255482  0.16841086  0.50202067  1
  Ni  Ni37  1  0.33438625  0.00343292  0.66957606  1
  Ni  Ni38  1  0.50227763  0.17100173  0.83636882  1
  Cr  Cr39  1  0.50289735  0.50335701  0.50278671  1
  Ni  Ni40  1  0.33644702  0.33492997  0.67130598  1
  Ni  Ni41  1  0.50342590  0.50253343  0.83523640  1
  Ni  Ni42  1  0.50255586  0.83642641  0.50251958  1
  Fe  Fe43  1  0.33545865  0.67073946  0.67113463  1
  Ni  Ni44  1  0.50146760  0.83520917  0.83556713  1
  Ni  Ni45  1  0.83734955  0.17079867  0.50325611  1
  Cr  Cr46  1  0.66839539  0.00462914  0.66905267  1
  Ni  Ni47  1  0.83729958  0.17159935  0.83645960  1
  Fe  Fe48  1  0.83734179  0.50250412  0.50221052  1
  Ni  Ni49  1  0.66934327  0.33685234  0.67028187  1
  Fe  Fe50  1  0.83570449  0.50134387  0.83661157  1
  Fe  Fe51  1  0.83607355  0.83546296  0.50309018  1
  Fe  Fe52  1  0.66883703  0.66848147  0.66971050  1
  Cr  Cr53  1  0.83670822  0.83636233  0.83759504  1
" 