398,Ni60Fe40_9,-238.712151351563, 217.373775181738,Ni60Fe40,"# generated using pymatgen
 data_Fe16Ni11
_symmetry_space_group_name_H-M   'P 1'
_cell_length_a   7.39627481
_cell_length_b   7.39627481
_cell_length_c   10.45991215
_cell_angle_alpha   90.00000000
_cell_angle_beta   90.00000000
_cell_angle_gamma   90.00000000
_symmetry_Int_Tables_number   1
_chemical_formula_structural   Fe16Ni11
_chemical_formula_sum   'Fe32 Ni22'
_cell_volume   572.20825020
_cell_formula_units_Z   2
loop_
 _symmetry_equiv_pos_site_id
 _symmetry_equiv_pos_as_xyz
  1  'x, y, z'
loop_
 _atom_site_type_symbol
 _atom_site_label
 _atom_site_symmetry_multiplicity
 _atom_site_fract_x
 _atom_site_fract_y
 _atom_site_fract_z
 _atom_site_occupancy
  Ni  Ni0  1  0.00554132  0.00680301  0.00506166  1
  Fe  Fe1  1  0.17342218  0.17127270  0.17225243  1
  Fe  Fe2  1  0.00695886  0.00512777  0.33751071  1
  Ni  Ni3  1  0.00693289  0.33971353  1.00477018  1
  Fe  Fe4  1  0.17226973  0.50560599  0.17125651  1
  Ni  Ni5  1  0.00594744  0.33941673  0.33843253  1
  Fe  Fe6  1  0.00531465  0.67405922  0.00547046  1
  Ni  Ni7  1  0.17137006  0.83968734  0.17178601  1
  Ni  Ni8  1  1.00338544  0.67064303  0.33832383  1
  Ni  Ni9  1  0.33830146  0.00522179  1.00345185  1
  Fe  Fe10  1  0.50327858  0.16915548  0.17147259  1
  Ni  Ni11  1  0.33974256  0.00526115  0.33934549  1
  Fe  Fe12  1  0.33927282  0.33811021  0.00529395  1
  Ni  Ni13  1  0.50540153  0.50415960  0.17064434  1
  Ni  Ni14  1  0.33692548  0.33689874  0.33862419  1
  Fe  Fe15  1  0.33787472  0.67314550  0.00480312  1
  Ni  Ni16  1  0.50272366  0.83638035  0.17178482  1
  Fe  Fe17  1  0.33607244  0.67066419  0.33789923  1
  Ni  Ni18  1  0.66999530  1.00195166  1.00461612  1
  Fe  Fe19  1  0.83816600  0.17112071  0.17058454  1
  Fe  Fe20  1  0.67236033  0.00567404  0.33777519  1
  Fe  Fe21  1  0.67244586  0.33617080  1.00468084  1
  Fe  Fe22  1  0.83854456  0.50637395  0.17126078  1
  Fe  Fe23  1  0.67106850  0.33833509  0.33821970  1
  Ni  Ni24  1  0.67119830  0.67123188  1.00411642  1
  Fe  Fe25  1  0.83673549  0.83703940  0.17097770  1
  Fe  Fe26  1  0.66976579  0.67013406  0.33771903  1
  Ni  Ni27  1  0.16845289  0.16931360  0.50612760  1
  Fe  Fe28  1  1.00273147  1.00394095  0.67238501  1
  Fe  Fe29  1  0.17139805  0.17319152  0.83778735  1
  Fe  Fe30  1  0.17146590  0.50338154  0.50543649  1
  Fe  Fe31  1  1.00278750  0.33739011  0.67218352  1
  Ni  Ni32  1  0.17355663  0.50703111  0.83809300  1
  Ni  Ni33  1  0.17122390  0.83815008  0.50395498  1
  Fe  Fe34  1  0.00523550  0.67303179  0.67079672  1
  Ni  Ni35  1  0.17090930  0.83886021  0.83865764  1
  Fe  Fe36  1  0.50333775  0.17118861  0.50485850  1
  Fe  Fe37  1  0.33775191  1.00306086  0.67112574  1
  Fe  Fe38  1  0.50392579  0.17106605  0.83786099  1
  Ni  Ni39  1  0.50564625  0.50570232  0.50376980  1
  Fe  Fe40  1  0.34018773  0.33938630  0.67035218  1
  Ni  Ni41  1  0.50587651  0.50506615  0.83942506  1
  Fe  Fe42  1  0.50480217  0.83944927  0.50410226  1
  Fe  Fe43  1  0.33975007  0.67207291  0.67173756  1
  Fe  Fe44  1  0.50495406  0.83744520  0.83866985  1
  Ni  Ni45  1  0.83796122  0.17122087  0.50383060  1
  Ni  Ni46  1  0.67034817  1.00362262  0.67169195  1
  Ni  Ni47  1  0.83709200  0.17018733  0.83890361  1
  Fe  Fe48  1  0.83931587  0.50477033  0.50462275  1
  Fe  Fe49  1  0.67137947  0.33784601  0.67126965  1
  Fe  Fe50  1  0.83959363  0.50543318  0.83849579  1
  Fe  Fe51  1  0.83817248  0.83827567  0.50481682  1
  Ni  Ni52  1  0.67157630  0.67166567  0.67091528  1
  Fe  Fe53  1  0.83790667  0.83724698  0.83835021  1
" 