1953,Ni60Fe40_4,-239.60767852202, 216.417428367611,Ni60Fe40,"# generated using pymatgen
 data_Fe16Ni11
_symmetry_space_group_name_H-M   'P 1'
_cell_length_a   7.39866544
_cell_length_b   7.39866544
_cell_length_c   10.46329301
_cell_angle_alpha   90.00000000
_cell_angle_beta   90.00000000
_cell_angle_gamma   90.00000000
_symmetry_Int_Tables_number   1
_chemical_formula_structural   Fe16Ni11
_chemical_formula_sum   'Fe32 Ni22'
_cell_volume   572.76327769
_cell_formula_units_Z   2
loop_
 _symmetry_equiv_pos_site_id
 _symmetry_equiv_pos_as_xyz
  1  'x, y, z'
loop_
 _atom_site_type_symbol
 _atom_site_label
 _atom_site_symmetry_multiplicity
 _atom_site_fract_x
 _atom_site_fract_y
 _atom_site_fract_z
 _atom_site_occupancy
  Ni  Ni0  1  1.00384775  0.00569818  0.00532453  1
  Fe  Fe1  1  0.17027591  0.17255271  0.17112347  1
  Fe  Fe2  1  1.00461504  0.00529631  0.33787123  1
  Ni  Ni3  1  1.00217180  0.33636976  1.00443038  1
  Ni  Ni4  1  0.17226371  0.50550888  0.17087738  1
  Ni  Ni5  1  1.00205714  0.33737978  0.33795291  1
  Fe  Fe6  1  1.00433861  0.67069809  0.00484930  1
  Fe  Fe7  1  0.17147364  0.83705244  0.17128473  1
  Fe  Fe8  1  0.00508768  0.66998132  0.33803635  1
  Fe  Fe9  1  0.33757534  0.00520995  0.00523141  1
  Fe  Fe10  1  0.50531931  0.17295123  0.17212770  1
  Ni  Ni11  1  0.33803939  1.00216553  0.33834122  1
  Fe  Fe12  1  0.33751294  0.33836132  1.00430636  1
  Ni  Ni13  1  0.50316442  0.50511248  0.17198712  1
  Fe  Fe14  1  0.33803268  0.33825353  0.33856452  1
  Ni  Ni15  1  0.33904465  0.67218001  0.00481714  1
  Fe  Fe16  1  0.50420771  0.83657355  0.17159925  1
  Ni  Ni17  1  0.33882039  0.67275728  0.33834759  1
  Fe  Fe18  1  0.67243950  0.00523569  1.00414271  1
  Ni  Ni19  1  0.83764867  0.17096596  0.17109913  1
  Fe  Fe20  1  0.67081315  0.00569301  0.33835050  1
  Ni  Ni21  1  0.67303714  0.33805428  1.00421386  1
  Ni  Ni22  1  0.83843672  0.50382314  0.17037680  1
  Ni  Ni23  1  0.67337697  0.33816097  0.33856402  1
  Fe  Fe24  1  0.67210131  0.67075885  0.00468627  1
  Fe  Fe25  1  0.83818526  0.83713954  0.17036661  1
  Fe  Fe26  1  0.67114591  0.67037970  0.33772382  1
  Fe  Fe27  1  0.17052497  0.17234546  0.50501632  1
  Ni  Ni28  1  1.00341427  0.00579553  0.67047446  1
  Fe  Fe29  1  0.16952003  0.17074601  0.83772253  1
  Ni  Ni30  1  0.17147858  0.50572252  0.50464047  1
  Ni  Ni31  1  1.00352805  0.33617299  0.67147798  1
  Fe  Fe32  1  0.17072231  0.50447585  0.83755813  1
  Fe  Fe33  1  0.17138936  0.83809970  0.50454182  1
  Fe  Fe34  1  0.00538553  0.67061657  0.67097650  1
  Fe  Fe35  1  0.17038831  0.83864506  0.83803738  1
  Ni  Ni36  1  0.50500738  0.17028276  0.50480937  1
  Fe  Fe37  1  0.33736051  0.00545807  0.67044988  1
  Fe  Fe38  1  0.50560678  0.17114642  0.83734611  1
  Fe  Fe39  1  0.50477089  0.50380248  0.50434470  1
  Ni  Ni40  1  0.33796529  0.33952461  0.67058878  1
  Fe  Fe41  1  0.50520606  0.50487347  0.83856340  1
  Fe  Fe42  1  0.50437553  0.83765414  0.50431141  1
  Ni  Ni43  1  0.33925853  0.67139479  0.67069953  1
  Fe  Fe44  1  0.50514111  0.83784932  0.83795397  1
  Ni  Ni45  1  0.83686496  0.17117715  0.50519972  1
  Fe  Fe46  1  0.67160058  0.00543851  0.67137188  1
  Ni  Ni47  1  0.83786440  0.17003306  0.83756386  1
  Ni  Ni48  1  0.83944435  0.50405143  0.50514593  1
  Fe  Fe49  1  0.67150121  0.33740869  0.67082845  1
  Fe  Fe50  1  0.83793783  0.50400496  0.83818245  1
  Fe  Fe51  1  0.83810131  0.83818560  0.50562607  1
  Fe  Fe52  1  0.67189686  0.67101272  0.67145585  1
  Ni  Ni53  1  0.83825979  0.83931611  0.83806426  1
" 