1908,Ni61Fe3Cr34_18,-225.943337861297, 153.465768393339,Ni61Fe3Cr34,"# generated using pymatgen
 data_Cr19Fe2Ni33
_symmetry_space_group_name_H-M   'P 1'
_cell_length_a   7.48831747
_cell_length_b   7.48831747
_cell_length_c   10.59008012
_cell_angle_alpha   90.00000000
_cell_angle_beta   90.00000000
_cell_angle_gamma   90.00000000
_symmetry_Int_Tables_number   1
_chemical_formula_structural   Cr19Fe2Ni33
_chemical_formula_sum   'Cr19 Fe2 Ni33'
_cell_volume   593.83766737
_cell_formula_units_Z   1
loop_
 _symmetry_equiv_pos_site_id
 _symmetry_equiv_pos_as_xyz
  1  'x, y, z'
loop_
 _atom_site_type_symbol
 _atom_site_label
 _atom_site_symmetry_multiplicity
 _atom_site_fract_x
 _atom_site_fract_y
 _atom_site_fract_z
 _atom_site_occupancy
  Ni  Ni0  1  -0.00018911  0.99832006  0.99718079  1
  Cr  Cr1  1  0.16670109  0.16309297  0.16613490  1
  Cr  Cr2  1  0.99854394  0.99702322  0.33313773  1
  Cr  Cr3  1  0.99738728  0.32971927  -0.00075481  1
  Ni  Ni4  1  0.16416929  0.50084631  0.16612846  1
  Ni  Ni5  1  0.99543286  0.33432198  0.33137165  1
  Ni  Ni6  1  -0.00041331  0.66662701  0.00042312  1
  Ni  Ni7  1  0.16680011  0.83049815  0.16537838  1
  Ni  Ni8  1  -0.00005077  0.66398399  0.33170022  1
  Ni  Ni9  1  0.33304272  0.99755585  0.99715793  1
  Ni  Ni10  1  0.49976711  0.16271168  0.16538048  1
  Ni  Ni11  1  0.33360299  0.99407733  0.33268476  1
  Fe  Fe12  1  0.33303894  0.32933179  -0.00030152  1
  Ni  Ni13  1  0.49856577  0.49871880  0.16550945  1
  Cr  Cr14  1  0.33395878  0.33406495  0.33026361  1
  Cr  Cr15  1  0.33355056  0.66758784  0.00118875  1
  Ni  Ni16  1  0.49723031  0.83425352  0.16521921  1
  Ni  Ni17  1  0.33172766  0.66821560  0.33094845  1
  Ni  Ni18  1  0.66287554  -0.00074864  -0.00128993  1
  Ni  Ni19  1  0.82951798  0.16542063  0.16631892  1
  Ni  Ni20  1  0.66247941  -0.00095954  0.33021440  1
  Cr  Cr21  1  0.66477156  0.33062472  0.00068748  1
  Ni  Ni22  1  0.83299473  0.49893836  0.16640344  1
  Ni  Ni23  1  0.66709417  0.33282335  0.33020540  1
  Ni  Ni24  1  0.66392336  0.66635477  -0.00072036  1
  Cr  Cr25  1  0.83198220  0.83282432  0.16249507  1
  Cr  Cr26  1  0.66297615  0.66520390  0.33226635  1
  Ni  Ni27  1  0.16695405  0.16241018  0.49815402  1
  Cr  Cr28  1  0.00061861  0.99729847  0.66570349  1
  Ni  Ni29  1  0.16789699  0.16126079  0.83316270  1
  Cr  Cr30  1  0.16431843  0.49888534  0.49648020  1
  Cr  Cr31  1  0.99661146  0.32990793  0.66479024  1
  Cr  Cr32  1  0.16457185  0.50043818  0.83416693  1
  Ni  Ni33  1  0.16614703  0.83223656  0.49742850  1
  Ni  Ni34  1  0.99806294  0.66742349  0.66350972  1
  Ni  Ni35  1  0.16594452  0.83430474  0.83290528  1
  Cr  Cr36  1  0.49802645  0.16358586  0.49767789  1
  Ni  Ni37  1  0.33336334  0.99652825  0.66588332  1
  Ni  Ni38  1  0.49860118  0.16161734  0.83212543  1
  Ni  Ni39  1  0.50198485  0.49975746  0.49884072  1
  Cr  Cr40  1  0.33301922  0.32870631  0.66731626  1
  Cr  Cr41  1  0.50000528  0.49905200  0.83107780  1
  Ni  Ni42  1  0.49880229  0.83294071  0.49847199  1
  Cr  Cr43  1  0.33235342  0.67042030  0.66326213  1
  Ni  Ni44  1  0.49858093  0.83587659  0.83189446  1
  Cr  Cr45  1  0.82961277  0.16523550  0.49621135  1
  Ni  Ni46  1  0.66303714  -0.00140742  0.66634812  1
  Ni  Ni47  1  0.82944416  0.16310059  0.83224390  1
  Ni  Ni48  1  0.83041886  0.50062354  0.49884864  1
  Ni  Ni49  1  0.66547773  0.33112767  0.66478589  1
  Cr  Cr50  1  0.83125122  0.50159499  0.83004876  1
  Ni  Ni51  1  0.83086845  0.82950620  0.49975175  1
  Fe  Fe52  1  0.66521278  0.66777041  0.66318236  1
  Cr  Cr53  1  0.83064174  0.83167489  0.83370492  1
" 