1098,Ni61Fe3Cr34_19,-225.890844686441, 154.796204133472,Ni61Fe3Cr34,"# generated using pymatgen
 data_Cr19Fe2Ni33
_symmetry_space_group_name_H-M   'P 1'
_cell_length_a   7.48728199
_cell_length_b   7.48728199
_cell_length_c   10.58861573
_cell_angle_alpha   90.00000000
_cell_angle_beta   90.00000000
_cell_angle_gamma   90.00000000
_symmetry_Int_Tables_number   1
_chemical_formula_structural   Cr19Fe2Ni33
_chemical_formula_sum   'Cr19 Fe2 Ni33'
_cell_volume   593.59135481
_cell_formula_units_Z   1
loop_
 _symmetry_equiv_pos_site_id
 _symmetry_equiv_pos_as_xyz
  1  'x, y, z'
loop_
 _atom_site_type_symbol
 _atom_site_label
 _atom_site_symmetry_multiplicity
 _atom_site_fract_x
 _atom_site_fract_y
 _atom_site_fract_z
 _atom_site_occupancy
  Ni  Ni0  1  0.99745660  0.99831862  0.00082443  1
  Ni  Ni1  1  0.16449537  0.16763394  0.16617805  1
  Ni  Ni2  1  0.00017962  -0.00052767  0.33291302  1
  Ni  Ni3  1  -0.00071306  0.33305944  0.00066859  1
  Ni  Ni4  1  0.16708017  0.49667385  0.16313721  1
  Cr  Cr5  1  0.99766102  0.32998355  0.33172244  1
  Ni  Ni6  1  -0.00054617  0.66456750  -0.00073085  1
  Cr  Cr7  1  0.16353217  0.83137996  0.16478034  1
  Cr  Cr8  1  0.99707859  0.66676789  0.33166337  1
  Cr  Cr9  1  0.33321660  -0.00041015  0.99705430  1
  Ni  Ni10  1  0.49852935  0.16853094  0.16620588  1
  Ni  Ni11  1  0.32946520  -0.00046602  0.33354713  1
  Ni  Ni12  1  0.33169644  0.33322524  0.00035753  1
  Ni  Ni13  1  0.49685073  0.49674208  0.16763861  1
  Ni  Ni14  1  0.33315979  0.33071368  0.32899244  1
  Ni  Ni15  1  0.33039027  0.66315966  0.99712656  1
  Cr  Cr16  1  0.49985653  0.83071047  0.16680227  1
  Ni  Ni17  1  0.33388212  0.66569673  0.33222037  1
  Ni  Ni18  1  0.66627893  -0.00034600  -0.00119415  1
  Ni  Ni19  1  0.83292816  0.16445001  0.16423645  1
  Cr  Cr20  1  0.66607062  -0.00085750  0.33136897  1
  Cr  Cr21  1  0.66410210  0.33143825  -0.00001281  1
  Ni  Ni22  1  0.83199268  0.49828665  0.16584013  1
  Ni  Ni23  1  0.66485386  0.33382860  0.33001436  1
  Cr  Cr24  1  0.66562186  0.66451254  -0.00129771  1
  Ni  Ni25  1  0.83285728  0.83323825  0.16476578  1
  Ni  Ni26  1  0.66485602  0.66337304  0.33240767  1
  Ni  Ni27  1  0.16267219  0.16422543  0.49780640  1
  Cr  Cr28  1  -0.00042427  -0.00067420  0.66196373  1
  Cr  Cr29  1  0.16480367  0.16710704  0.83206353  1
  Cr  Cr30  1  0.16741053  0.49751909  0.49995671  1
  Ni  Ni31  1  0.99821465  0.33221257  0.66363868  1
  Cr  Cr32  1  0.16612040  0.49914028  0.83285559  1
  Ni  Ni33  1  0.16683809  0.83341987  0.49708096  1
  Cr  Cr34  1  0.99810468  0.66433246  0.66477266  1
  Ni  Ni35  1  0.16729390  0.82947217  0.83343857  1
  Cr  Cr36  1  0.49855643  0.16502873  0.49781704  1
  Cr  Cr37  1  0.33320032  0.99715775  0.66550296  1
  Ni  Ni38  1  0.49921661  0.16517166  0.83170337  1
  Cr  Cr39  1  0.49846690  0.50142312  0.49709707  1
  Ni  Ni40  1  0.33139042  0.33251411  0.66654138  1
  Ni  Ni41  1  0.49721636  0.50013543  0.83067869  1
  Ni  Ni42  1  0.49879634  0.82978741  0.49941295  1
  Ni  Ni43  1  0.33464016  0.66647869  0.66655616  1
  Ni  Ni44  1  0.49833777  0.83062229  0.83002930  1
  Ni  Ni45  1  0.83430991  0.16454340  0.49908360  1
  Ni  Ni46  1  0.66392313  0.99639888  0.66528547  1
  Cr  Cr47  1  0.83147389  0.16525119  0.83300147  1
  Fe  Fe48  1  0.83055503  0.49822142  0.49870717  1
  Cr  Cr49  1  0.66626044  0.33291971  0.66673792  1
  Ni  Ni50  1  0.83191010  0.49886804  0.83088201  1
  Fe  Fe51  1  0.83036692  0.83312694  0.49817697  1
  Ni  Ni52  1  0.66351433  0.66642906  0.66510742  1
  Cr  Cr53  1  0.83103071  0.83251641  0.83390435  1
" 