3213,Ni61Fe3Cr34_10,-225.912602264671, 152.690847066432,Ni61Fe3Cr34,"# generated using pymatgen
 data_Cr19Fe2Ni33
_symmetry_space_group_name_H-M   'P 1'
_cell_length_a   7.48813737
_cell_length_b   7.48813737
_cell_length_c   10.58982543
_cell_angle_alpha   90.00000000
_cell_angle_beta   90.00000000
_cell_angle_gamma   90.00000000
_symmetry_Int_Tables_number   1
_chemical_formula_structural   Cr19Fe2Ni33
_chemical_formula_sum   'Cr19 Fe2 Ni33'
_cell_volume   593.79482266
_cell_formula_units_Z   1
loop_
 _symmetry_equiv_pos_site_id
 _symmetry_equiv_pos_as_xyz
  1  'x, y, z'
loop_
 _atom_site_type_symbol
 _atom_site_label
 _atom_site_symmetry_multiplicity
 _atom_site_fract_x
 _atom_site_fract_y
 _atom_site_fract_z
 _atom_site_occupancy
  Ni  Ni0  1  0.00016397  0.99811301  -0.00107292  1
  Ni  Ni1  1  0.16551015  0.16420621  0.16437518  1
  Ni  Ni2  1  0.99857874  0.99725312  0.33098344  1
  Ni  Ni3  1  0.99798052  0.33163413  0.99832134  1
  Cr  Cr4  1  0.16630447  0.49599803  0.16594767  1
  Ni  Ni5  1  0.00041520  0.33009069  0.32947303  1
  Cr  Cr6  1  0.99791549  0.66639710  0.99631706  1
  Ni  Ni7  1  0.16400099  0.83634242  0.16496850  1
  Cr  Cr8  1  -0.00136455  0.66740035  0.33200698  1
  Ni  Ni9  1  0.32994057  0.00085892  -0.00110887  1
  Ni  Ni10  1  0.49657606  0.16603728  0.16420714  1
  Cr  Cr11  1  0.33179776  -0.00033711  0.33107798  1
  Ni  Ni12  1  0.33273647  0.32903650  0.99816222  1
  Cr  Cr13  1  0.49914307  0.49904543  0.16607068  1
  Ni  Ni14  1  0.33113329  0.33004082  0.33096037  1
  Cr  Cr15  1  0.32987909  0.66761598  0.99560364  1
  Cr  Cr16  1  0.49909990  0.83208785  0.16627109  1
  Ni  Ni17  1  0.33169825  0.66748286  0.33336308  1
  Cr  Cr18  1  0.66399471  -0.00047327  0.99701867  1
  Cr  Cr19  1  0.83454566  0.16378378  0.16438473  1
  Ni  Ni20  1  0.66553115  0.99617589  0.33320211  1
  Ni  Ni21  1  0.66502317  0.33135428  0.99630592  1
  Ni  Ni22  1  0.83141986  0.49772352  0.16518313  1
  Cr  Cr23  1  0.66448070  0.32897962  0.33189951  1
  Cr  Cr24  1  0.66820336  0.66385637  0.99728577  1
  Ni  Ni25  1  0.83318165  0.83324556  0.16754827  1
  Ni  Ni26  1  0.66618043  0.66882578  0.33140729  1
  Cr  Cr27  1  0.16405676  0.16413843  0.49836578  1
  Ni  Ni28  1  0.99800334  0.99400176  0.66607613  1
  Cr  Cr29  1  0.16365225  0.16303337  0.83337826  1
  Cr  Cr30  1  0.16796643  0.49969678  0.49972366  1
  Cr  Cr31  1  0.99721462  0.33436381  0.66743974  1
  Ni  Ni32  1  0.16746013  0.49805263  0.83015851  1
  Ni  Ni33  1  0.16619328  0.83324168  0.50099745  1
  Ni  Ni34  1  0.00047749  0.66932362  0.66741776  1
  Ni  Ni35  1  0.16619639  0.83356005  0.82968859  1
  Fe  Fe36  1  0.49830488  0.16283367  0.50000738  1
  Ni  Ni37  1  0.33389499  0.99712252  0.66549387  1
  Fe  Fe38  1  0.49814272  0.16475876  0.83187482  1
  Cr  Cr39  1  0.49678917  0.50114921  0.49793682  1
  Ni  Ni40  1  0.33578471  0.33089826  0.66668378  1
  Ni  Ni41  1  0.49739577  0.49703869  0.83140460  1
  Ni  Ni42  1  0.49891097  0.83239420  0.49858803  1
  Ni  Ni43  1  0.33065266  0.66724209  0.66678717  1
  Ni  Ni44  1  0.49689526  0.83261359  0.83015465  1
  Cr  Cr45  1  0.83236345  0.16129821  0.49994095  1
  Ni  Ni46  1  0.66366058  -0.00054290  0.66553679  1
  Ni  Ni47  1  0.83114071  0.16430048  0.83166066  1
  Cr  Cr48  1  0.83107261  0.49973607  0.49803082  1
  Ni  Ni49  1  0.66187471  0.32867366  0.66859069  1
  Ni  Ni50  1  0.83110518  0.49582825  0.83223470  1
  Ni  Ni51  1  0.83089042  0.83486996  0.49856347  1
  Cr  Cr52  1  0.66692217  0.66594993  0.66724243  1
  Ni  Ni53  1  0.83286479  0.83560467  0.82981606  1
" 