2850,Ni61Fe3Cr34_0,-225.672058656155, 144.36012861568,Ni61Fe3Cr34,"# generated using pymatgen
 data_Cr19Fe2Ni33
_symmetry_space_group_name_H-M   'P 1'
_cell_length_a   7.49256216
_cell_length_b   7.49256216
_cell_length_c   10.59608302
_cell_angle_alpha   90.00000000
_cell_angle_beta   90.00000000
_cell_angle_gamma   90.00000000
_symmetry_Int_Tables_number   1
_chemical_formula_structural   Cr19Fe2Ni33
_chemical_formula_sum   'Cr19 Fe2 Ni33'
_cell_volume   594.84807599
_cell_formula_units_Z   1
loop_
 _symmetry_equiv_pos_site_id
 _symmetry_equiv_pos_as_xyz
  1  'x, y, z'
loop_
 _atom_site_type_symbol
 _atom_site_label
 _atom_site_symmetry_multiplicity
 _atom_site_fract_x
 _atom_site_fract_y
 _atom_site_fract_z
 _atom_site_occupancy
  Ni  Ni0  1  0.99341464  -0.00080001  0.99801549  1
  Cr  Cr1  1  0.16322639  0.16102773  0.16339329  1
  Ni  Ni2  1  0.99529646  0.99594712  0.33282723  1
  Ni  Ni3  1  0.99404927  0.33062077  0.00010918  1
  Ni  Ni4  1  0.16361485  0.50175409  0.16390662  1
  Cr  Cr5  1  0.99406603  0.33101147  0.32866485  1
  Fe  Fe6  1  0.99529000  0.66552770  -0.00015853  1
  Cr  Cr7  1  0.16453410  0.83200804  0.16540671  1
  Ni  Ni8  1  0.99791657  0.66853761  0.33029811  1
  Ni  Ni9  1  0.33337363  0.99358875  0.99806754  1
  Cr  Cr10  1  0.50170391  0.16125548  0.16529412  1
  Ni  Ni11  1  0.33291278  0.99415971  0.33349463  1
  Cr  Cr12  1  0.33089582  0.33370967  -0.00049587  1
  Ni  Ni13  1  0.50010417  0.50031223  0.16412115  1
  Cr  Cr14  1  0.33355204  0.33296748  0.33088985  1
  Ni  Ni15  1  0.33492193  0.66690671  0.00062944  1
  Ni  Ni16  1  0.49919301  0.83054535  0.16378104  1
  Ni  Ni17  1  0.33200390  0.66861919  0.33057433  1
  Ni  Ni18  1  0.66811063  0.99544001  -0.00115842  1
  Ni  Ni19  1  0.83033472  0.16356690  0.16408366  1
  Fe  Fe20  1  0.66663636  0.99757781  0.33222400  1
  Ni  Ni21  1  0.66966021  0.33216310  0.00061872  1
  Ni  Ni22  1  0.83091409  0.49899576  0.16320316  1
  Ni  Ni23  1  0.66645012  0.32969769  0.33031262  1
  Ni  Ni24  1  0.66458646  0.66722426  -0.00068559  1
  Ni  Ni25  1  0.83098420  0.83236343  0.16410381  1
  Cr  Cr26  1  0.66554344  0.66603218  0.33023679  1
  Cr  Cr27  1  0.16396947  0.16200575  0.49906349  1
  Ni  Ni28  1  0.99357310  0.99752386  0.66430004  1
  Cr  Cr29  1  0.16178138  0.16394948  0.83237857  1
  Cr  Cr30  1  0.16267045  0.50188396  0.49940400  1
  Ni  Ni31  1  0.99554312  0.32880306  0.66523630  1
  Cr  Cr32  1  0.16241221  0.49902261  0.83047401  1
  Ni  Ni33  1  0.16281715  0.83209351  0.49632578  1
  Ni  Ni34  1  0.99516237  0.66890602  0.66421640  1
  Cr  Cr35  1  0.16199152  0.83203700  0.83415161  1
  Ni  Ni36  1  0.50217606  0.16260547  0.49820100  1
  Cr  Cr37  1  0.33348707  0.99747723  0.66473386  1
  Cr  Cr38  1  0.50282716  0.16323886  0.83207037  1
  Cr  Cr39  1  0.50108764  0.49706240  0.50007541  1
  Ni  Ni40  1  0.33243388  0.33046137  0.66391958  1
  Cr  Cr41  1  0.50169768  0.49965122  0.83048434  1
  Ni  Ni42  1  0.49976506  0.83442322  0.49735768  1
  Cr  Cr43  1  0.33354238  0.66771690  0.66422589  1
  Ni  Ni44  1  0.50224897  0.83195307  0.83397935  1
  Ni  Ni45  1  0.82849452  0.16225796  0.49889399  1
  Ni  Ni46  1  0.66817755  0.99690481  0.66388364  1
  Ni  Ni47  1  0.83110490  0.16319793  0.83177274  1
  Cr  Cr48  1  0.83122893  0.49934887  0.50106336  1
  Ni  Ni49  1  0.66701097  0.32829277  0.66400356  1
  Cr  Cr50  1  0.83061513  0.49918354  0.83011625  1
  Ni  Ni51  1  0.83265829  0.83397576  0.49937457  1
  Ni  Ni52  1  0.66691086  0.66976613  0.66538187  1
  Ni  Ni53  1  0.82937891  0.83355345  0.83121086  1
" 