4310,Ni61Fe3Cr34_4,-225.291548583359, 140.109258776939,Ni61Fe3Cr34,"# generated using pymatgen
 data_Cr19Fe2Ni33
_symmetry_space_group_name_H-M   'P 1'
_cell_length_a   7.49367895
_cell_length_b   7.49367895
_cell_length_c   10.59766241
_cell_angle_alpha   90.00000000
_cell_angle_beta   90.00000000
_cell_angle_gamma   90.00000000
_symmetry_Int_Tables_number   1
_chemical_formula_structural   Cr19Fe2Ni33
_chemical_formula_sum   'Cr19 Fe2 Ni33'
_cell_volume   595.11410885
_cell_formula_units_Z   1
loop_
 _symmetry_equiv_pos_site_id
 _symmetry_equiv_pos_as_xyz
  1  'x, y, z'
loop_
 _atom_site_type_symbol
 _atom_site_label
 _atom_site_symmetry_multiplicity
 _atom_site_fract_x
 _atom_site_fract_y
 _atom_site_fract_z
 _atom_site_occupancy
  Ni  Ni0  1  0.99717872  0.99349952  0.99695183  1
  Cr  Cr1  1  0.16510752  0.16328852  0.16769064  1
  Ni  Ni2  1  0.00189804  0.99652980  0.33200334  1
  Cr  Cr3  1  0.99653760  0.33356514  0.99661597  1
  Cr  Cr4  1  0.16432340  0.49987798  0.16573019  1
  Ni  Ni5  1  -0.00092197  0.33263149  0.33270960  1
  Ni  Ni6  1  0.99725326  0.66747922  0.99739512  1
  Ni  Ni7  1  0.16151661  0.83163611  0.16442535  1
  Ni  Ni8  1  0.99774401  0.66551235  0.33073084  1
  Cr  Cr9  1  0.33146608  0.99793666  -0.00156975  1
  Ni  Ni10  1  0.49926131  0.16709159  0.16565346  1
  Ni  Ni11  1  0.32873042  0.00108866  0.33280195  1
  Cr  Cr12  1  0.33470551  0.33295511  0.99642908  1
  Ni  Ni13  1  0.50179468  0.49707436  0.16472409  1
  Ni  Ni14  1  0.33328239  0.32978689  0.33425573  1
  Ni  Ni15  1  0.33060123  0.66407378  0.99741501  1
  Cr  Cr16  1  0.49853209  0.83033686  0.16397493  1
  Cr  Cr17  1  0.33054032  0.66450727  0.33197468  1
  Ni  Ni18  1  0.66645816  -0.00171300  0.99812214  1
  Cr  Cr19  1  0.83108949  0.16527771  0.16471020  1
  Cr  Cr20  1  0.66357711  -0.00078215  0.33033787  1
  Ni  Ni21  1  0.66306515  0.33319530  -0.00167263  1
  Ni  Ni22  1  0.82887196  0.50104870  0.16579240  1
  Ni  Ni23  1  0.66233566  0.33391886  0.33052874  1
  Ni  Ni24  1  0.66678360  0.66321574  0.99792955  1
  Ni  Ni25  1  0.83370921  0.82907416  0.16388949  1
  Ni  Ni26  1  0.66686351  0.66097506  0.33037851  1
  Ni  Ni27  1  0.16745965  0.16383132  0.49745329  1
  Ni  Ni28  1  0.00283109  0.99785327  0.66569636  1
  Ni  Ni29  1  0.16608982  0.16373051  0.82927638  1
  Ni  Ni30  1  0.16672332  0.49628501  0.49631728  1
  Cr  Cr31  1  -0.00024645  0.33151738  0.66578777  1
  Ni  Ni32  1  0.16563359  0.49835716  0.83256157  1
  Ni  Ni33  1  0.16445234  0.83456897  0.49764177  1
  Cr  Cr34  1  -0.00169486  0.66570994  0.66620336  1
  Fe  Fe35  1  0.16294534  0.83208079  0.83244990  1
  Ni  Ni36  1  0.49403977  0.16798451  0.49829504  1
  Ni  Ni37  1  0.32861181  0.00143197  0.66423579  1
  Ni  Ni38  1  0.49689364  0.16698011  0.83074774  1
  Ni  Ni39  1  0.49797199  0.49523974  0.49850357  1
  Fe  Fe40  1  0.33318302  0.32989903  0.66460932  1
  Ni  Ni41  1  0.49947077  0.49730408  0.83147732  1
  Cr  Cr42  1  0.49729897  0.83074859  0.49851358  1
  Cr  Cr43  1  0.33112559  0.66357298  0.66472929  1
  Cr  Cr44  1  0.49969721  0.83022001  0.83213537  1
  Cr  Cr45  1  0.83330630  0.16574391  0.49751312  1
  Cr  Cr46  1  0.66400284  -0.00061173  0.66535422  1
  Cr  Cr47  1  0.83163997  0.16380045  0.83237822  1
  Cr  Cr48  1  0.82993834  0.49831452  0.49646169  1
  Ni  Ni49  1  0.66083030  0.33376470  0.66583608  1
  Ni  Ni50  1  0.82950612  0.50106905  0.83243762  1
  Cr  Cr51  1  0.83283722  0.83063187  0.49788818  1
  Ni  Ni52  1  0.66440793  0.66103057  0.66638302  1
  Ni  Ni53  1  0.83278560  0.82990592  0.83323115  1
" 