8490,Ni61Fe3Cr34_6,-225.860002815792, 151.136397313263,Ni61Fe3Cr34,"# generated using pymatgen
 data_Cr19Fe2Ni33
_symmetry_space_group_name_H-M   'P 1'
_cell_length_a   7.48643108
_cell_length_b   7.48643108
_cell_length_c   10.58741236
_cell_angle_alpha   90.00000000
_cell_angle_beta   90.00000000
_cell_angle_gamma   90.00000000
_symmetry_Int_Tables_number   1
_chemical_formula_structural   Cr19Fe2Ni33
_chemical_formula_sum   'Cr19 Fe2 Ni33'
_cell_volume   593.38899773
_cell_formula_units_Z   1
loop_
 _symmetry_equiv_pos_site_id
 _symmetry_equiv_pos_as_xyz
  1  'x, y, z'
loop_
 _atom_site_type_symbol
 _atom_site_label
 _atom_site_symmetry_multiplicity
 _atom_site_fract_x
 _atom_site_fract_y
 _atom_site_fract_z
 _atom_site_occupancy
  Ni  Ni0  1  0.99520482  -0.00107851  -0.00102365  1
  Ni  Ni1  1  0.16178082  0.16919093  0.16566885  1
  Cr  Cr2  1  0.99625222  -0.00013154  0.33229685  1
  Ni  Ni3  1  0.99650970  0.33143855  0.00210284  1
  Fe  Fe4  1  0.16300631  0.49775648  0.16556250  1
  Ni  Ni5  1  0.99652498  0.33262255  0.33036299  1
  Ni  Ni6  1  -0.00049118  0.66585298  0.00032209  1
  Cr  Cr7  1  0.16303693  0.83107996  0.16322573  1
  Ni  Ni8  1  0.99552362  0.66268724  0.33169875  1
  Cr  Cr9  1  0.33293883  0.99661057  0.99852732  1
  Cr  Cr10  1  0.49961159  0.16513089  0.16808570  1
  Cr  Cr11  1  0.33198167  0.99744770  0.33388736  1
  Cr  Cr12  1  0.33282468  0.33509050  -0.00086754  1
  Ni  Ni13  1  0.50027422  0.50103622  0.16602244  1
  Ni  Ni14  1  0.33144978  0.33376954  0.33056995  1
  Ni  Ni15  1  0.33264947  0.66481696  -0.00083010  1
  Ni  Ni16  1  0.50340196  0.82873518  0.16458201  1
  Cr  Cr17  1  0.33435604  0.66532465  0.33258497  1
  Ni  Ni18  1  0.66897403  0.99841224  0.00022862  1
  Ni  Ni19  1  0.83396153  0.16590399  0.16495646  1
  Ni  Ni20  1  0.66690905  0.99769069  0.33031036  1
  Cr  Cr21  1  0.66752309  0.33107122  0.99634604  1
  Ni  Ni22  1  0.83270404  0.49975427  0.16675307  1
  Ni  Ni23  1  0.66793370  0.33442551  0.33293495  1
  Fe  Fe24  1  0.66562595  0.66551590  0.00142980  1
  Ni  Ni25  1  0.82968556  0.83028591  0.16409867  1
  Ni  Ni26  1  0.66599384  0.66396392  0.33052081  1
  Ni  Ni27  1  0.16417589  0.16384940  0.49827756  1
  Ni  Ni28  1  -0.00093254  0.99768984  0.66513158  1
  Cr  Cr29  1  0.16397690  0.16233785  0.83221847  1
  Cr  Cr30  1  0.16240664  0.49797655  0.49566647  1
  Cr  Cr31  1  0.99370745  0.33018526  0.66391722  1
  Cr  Cr32  1  0.16392270  0.50238563  0.83525098  1
  Ni  Ni33  1  0.16471587  0.83373602  0.50231317  1
  Ni  Ni34  1  0.99772613  0.66874761  0.66421068  1
  Ni  Ni35  1  0.16366428  0.83205315  0.83124169  1
  Cr  Cr36  1  0.50015185  0.16552486  0.49826039  1
  Ni  Ni37  1  0.33123796  0.99689994  0.66437754  1
  Ni  Ni38  1  0.50224556  0.16505251  0.82977822  1
  Ni  Ni39  1  0.50353756  0.49917499  0.49802214  1
  Cr  Cr40  1  0.33596184  0.33170048  0.66634059  1
  Ni  Ni41  1  0.50056577  0.49877788  0.83173752  1
  Ni  Ni42  1  0.50025609  0.83143772  0.49902306  1
  Cr  Cr43  1  0.33276813  0.66754287  0.66466108  1
  Cr  Cr44  1  0.49986345  0.83264363  0.83275797  1
  Ni  Ni45  1  0.83179950  0.16722138  0.49879296  1
  Ni  Ni46  1  0.66587712  0.00072541  0.66570823  1
  Ni  Ni47  1  0.83008375  0.16350867  0.83222365  1
  Ni  Ni48  1  0.82916082  0.49827751  0.49797180  1
  Ni  Ni49  1  0.66578439  0.33203064  0.66569026  1
  Cr  Cr50  1  0.83144004  0.50009019  0.83036371  1
  Cr  Cr51  1  0.83068346  0.82995902  0.49925367  1
  Ni  Ni52  1  0.66485441  0.66333968  0.66386998  1
  Cr  Cr53  1  0.83431077  0.83281984  0.83267460  1
" 