1157,Ni61Fe3Cr34_1,-226.039198645153, 153.945520993166,Ni61Fe3Cr34,"# generated using pymatgen
 data_Cr19Fe2Ni33
_symmetry_space_group_name_H-M   'P 1'
_cell_length_a   7.48654246
_cell_length_b   7.48654246
_cell_length_c   10.58756988
_cell_angle_alpha   90.00000000
_cell_angle_beta   90.00000000
_cell_angle_gamma   90.00000000
_symmetry_Int_Tables_number   1
_chemical_formula_structural   Cr19Fe2Ni33
_chemical_formula_sum   'Cr19 Fe2 Ni33'
_cell_volume   593.41548388
_cell_formula_units_Z   1
loop_
 _symmetry_equiv_pos_site_id
 _symmetry_equiv_pos_as_xyz
  1  'x, y, z'
loop_
 _atom_site_type_symbol
 _atom_site_label
 _atom_site_symmetry_multiplicity
 _atom_site_fract_x
 _atom_site_fract_y
 _atom_site_fract_z
 _atom_site_occupancy
  Ni  Ni0  1  0.00062003  -0.00096803  -0.00117991  1
  Ni  Ni1  1  0.16662304  0.16028578  0.16469128  1
  Ni  Ni2  1  0.99824795  0.99842761  0.33151907  1
  Cr  Cr3  1  0.99762560  0.32898369  -0.00052432  1
  Cr  Cr4  1  0.16519785  0.49958027  0.16711837  1
  Cr  Cr5  1  -0.00089681  0.32766565  0.33311602  1
  Ni  Ni6  1  0.99837485  0.66853889  0.99775252  1
  Ni  Ni7  1  0.16576662  0.83549893  0.16488782  1
  Ni  Ni8  1  0.00061901  0.66946504  0.33301946  1
  Ni  Ni9  1  0.33116492  0.00110635  0.00068033  1
  Ni  Ni10  1  0.49859829  0.16077312  0.16296923  1
  Fe  Fe11  1  0.33237664  0.99741214  0.33079970  1
  Ni  Ni12  1  0.33468846  0.32755629  0.99753333  1
  Cr  Cr13  1  0.49965253  0.49854955  0.16335698  1
  Cr  Cr14  1  0.33138916  0.32929496  0.33227351  1
  Cr  Cr15  1  0.33213219  0.66833749  0.99848261  1
  Ni  Ni16  1  0.49820062  0.83560821  0.16701701  1
  Ni  Ni17  1  0.33199961  0.66925773  0.33251971  1
  Ni  Ni18  1  0.66444099  0.00149615  -0.00072278  1
  Ni  Ni19  1  0.83099217  0.16107370  0.16418977  1
  Ni  Ni20  1  0.66509673  0.99769906  0.33390703  1
  Ni  Ni21  1  0.66372807  0.32955138  0.99689369  1
  Cr  Cr22  1  0.83110540  0.50024294  0.16419640  1
  Cr  Cr23  1  0.66552496  0.32760759  0.33122094  1
  Ni  Ni24  1  0.66531717  0.66498226  0.99818093  1
  Cr  Cr25  1  0.83164462  0.83352058  0.16552259  1
  Ni  Ni26  1  0.66350560  0.67086854  0.33259272  1
  Ni  Ni27  1  0.16548871  0.16691586  0.49891449  1
  Cr  Cr28  1  0.99655909  0.00059539  0.66611085  1
  Ni  Ni29  1  0.16661229  0.16570860  0.83316052  1
  Ni  Ni30  1  0.16550078  0.49835804  0.50050445  1
  Ni  Ni31  1  0.00041629  0.33126572  0.66432518  1
  Cr  Cr32  1  0.16568982  0.49736192  0.82896797  1
  Cr  Cr33  1  0.16503912  0.83073856  0.49849146  1
  Ni  Ni34  1  0.00034580  0.66409633  0.66530017  1
  Fe  Fe35  1  0.16497912  0.83395070  0.83330840  1
  Ni  Ni36  1  0.49814770  0.16119655  0.49917755  1
  Cr  Cr37  1  0.33380317  -0.00054873  0.66542924  1
  Ni  Ni38  1  0.49786647  0.16636345  0.83371910  1
  Cr  Cr39  1  0.49440383  0.49966155  0.49907649  1
  Ni  Ni40  1  0.33046522  0.33123147  0.66533716  1
  Ni  Ni41  1  0.49866600  0.49607681  0.83318580  1
  Ni  Ni42  1  0.50028933  0.83459592  0.49653885  1
  Ni  Ni43  1  0.33066507  0.66391119  0.66487328  1
  Cr  Cr44  1  0.49902934  0.83522154  0.83238071  1
  Ni  Ni45  1  0.83243876  0.16071821  0.49894686  1
  Ni  Ni46  1  0.66531253  0.00054331  0.66277580  1
  Ni  Ni47  1  0.83157103  0.16548376  0.83294598  1
  Cr  Cr48  1  0.83600465  0.50099286  0.49787096  1
  Cr  Cr49  1  0.66601795  0.32838965  0.66726510  1
  Ni  Ni50  1  0.83229331  0.49831017  0.83355766  1
  Ni  Ni51  1  0.83071489  0.83460243  0.49706692  1
  Cr  Cr52  1  0.66465593  0.66805204  0.66500635  1
  Cr  Cr53  1  0.83297991  0.83348325  0.83344108  1
" 