3431,Ni61Fe3Cr34_11,-225.614725395656, 145.097342452728,Ni61Fe3Cr34,"# generated using pymatgen
 data_Cr19Fe2Ni33
_symmetry_space_group_name_H-M   'P 1'
_cell_length_a   7.49395708
_cell_length_b   7.49395708
_cell_length_c   10.59805574
_cell_angle_alpha   90.00000000
_cell_angle_beta   90.00000000
_cell_angle_gamma   90.00000000
_symmetry_Int_Tables_number   1
_chemical_formula_structural   Cr19Fe2Ni33
_chemical_formula_sum   'Cr19 Fe2 Ni33'
_cell_volume   595.18037506
_cell_formula_units_Z   1
loop_
 _symmetry_equiv_pos_site_id
 _symmetry_equiv_pos_as_xyz
  1  'x, y, z'
loop_
 _atom_site_type_symbol
 _atom_site_label
 _atom_site_symmetry_multiplicity
 _atom_site_fract_x
 _atom_site_fract_y
 _atom_site_fract_z
 _atom_site_occupancy
  Ni  Ni0  1  0.99598833  0.99670783  0.99798128  1
  Cr  Cr1  1  0.16323011  0.16354773  0.16444970  1
  Cr  Cr2  1  -0.00081601  0.99810990  0.33003242  1
  Ni  Ni3  1  0.99547522  0.33228204  0.99800742  1
  Cr  Cr4  1  0.16276007  0.50010249  0.16531385  1
  Ni  Ni5  1  0.99482528  0.33368150  0.33133025  1
  Ni  Ni6  1  0.99519354  0.66566210  0.99730274  1
  Ni  Ni7  1  0.16395248  0.83199628  0.16525788  1
  Cr  Cr8  1  0.99788101  0.66303477  0.33202025  1
  Cr  Cr9  1  0.33186874  0.99749554  -0.00128220  1
  Ni  Ni10  1  0.50227148  0.16362946  0.16509386  1
  Ni  Ni11  1  0.33354522  0.99506229  0.33189799  1
  Cr  Cr12  1  0.33093008  0.33138306  0.99568558  1
  Cr  Cr13  1  0.50140391  0.49890836  0.16542730  1
  Cr  Cr14  1  0.33240293  0.33126922  0.33303080  1
  Cr  Cr15  1  0.33130232  0.66579668  0.99654654  1
  Fe  Fe16  1  0.49974380  0.83220475  0.16574499  1
  Ni  Ni17  1  0.33301234  0.66811772  0.33387229  1
  Ni  Ni18  1  0.66712451  0.99668896  0.00022682  1
  Ni  Ni19  1  0.82939139  0.16588143  0.16335753  1
  Cr  Cr20  1  0.66213366  0.99806952  0.32979925  1
  Ni  Ni21  1  0.66765020  0.33211280  -0.00076865  1
  Ni  Ni22  1  0.82996076  0.49751993  0.16394609  1
  Ni  Ni23  1  0.66632303  0.33315511  0.33209642  1
  Ni  Ni24  1  0.66809289  0.66582804  0.99747478  1
  Ni  Ni25  1  0.83123797  0.83123277  0.16167895  1
  Ni  Ni26  1  0.66315273  0.66283418  0.33147264  1
  Cr  Cr27  1  0.16562066  0.16252186  0.49845903  1
  Ni  Ni28  1  0.00197430  0.99470604  0.66689795  1
  Ni  Ni29  1  0.16277879  0.16331405  0.83178348  1
  Ni  Ni30  1  0.16542868  0.50193594  0.49782434  1
  Cr  Cr31  1  0.99794589  0.33413314  0.66485362  1
  Ni  Ni32  1  0.16429680  0.50036877  0.83172504  1
  Ni  Ni33  1  0.16868229  0.82950440  0.50020357  1
  Ni  Ni34  1  0.00110624  0.66609717  0.66554782  1
  Ni  Ni35  1  0.16268682  0.83092026  0.82922028  1
  Ni  Ni36  1  0.49836453  0.16549995  0.49820824  1
  Ni  Ni37  1  0.32973440  0.99496920  0.66427998  1
  Cr  Cr38  1  0.49884780  0.16568508  0.83111752  1
  Ni  Ni39  1  0.49909688  0.49898154  0.49754236  1
  Cr  Cr40  1  0.33299029  0.33296197  0.66587687  1
  Ni  Ni41  1  0.49902624  0.49998873  0.83127794  1
  Ni  Ni42  1  0.49355629  0.83012545  0.49656855  1
  Ni  Ni43  1  0.32961133  0.66676737  0.66438740  1
  Ni  Ni44  1  0.49824609  0.82894789  0.83207743  1
  Cr  Cr45  1  0.83012641  0.16747174  0.49830810  1
  Cr  Cr46  1  0.66330102  0.99787672  0.66442711  1
  Cr  Cr47  1  0.83283497  0.16357703  0.83264360  1
  Ni  Ni48  1  0.83004489  0.49708214  0.49718439  1
  Ni  Ni49  1  0.66369172  0.33371275  0.66321067  1
  Fe  Fe50  1  0.83184839  0.50025992  0.83329362  1
  Cr  Cr51  1  0.83292370  0.82977774  0.50004477  1
  Cr  Cr52  1  0.66452142  0.66312855  0.66556775  1
  Ni  Ni53  1  0.83372296  0.83041792  0.83351958  1
" 