4321,Ni61Fe3Cr34_8,-225.723474364732, 149.183049073633,Ni61Fe3Cr34,"# generated using pymatgen
 data_Cr19Fe2Ni33
_symmetry_space_group_name_H-M   'P 1'
_cell_length_a   7.48628285
_cell_length_b   7.48628285
_cell_length_c   10.58720273
_cell_angle_alpha   90.00000000
_cell_angle_beta   90.00000000
_cell_angle_gamma   90.00000000
_symmetry_Int_Tables_number   1
_chemical_formula_structural   Cr19Fe2Ni33
_chemical_formula_sum   'Cr19 Fe2 Ni33'
_cell_volume   593.35375152
_cell_formula_units_Z   1
loop_
 _symmetry_equiv_pos_site_id
 _symmetry_equiv_pos_as_xyz
  1  'x, y, z'
loop_
 _atom_site_type_symbol
 _atom_site_label
 _atom_site_symmetry_multiplicity
 _atom_site_fract_x
 _atom_site_fract_y
 _atom_site_fract_z
 _atom_site_occupancy
  Cr  Cr0  1  -0.00000598  0.99856767  -0.00063240  1
  Cr  Cr1  1  0.16420847  0.16778357  0.16564250  1
  Ni  Ni2  1  0.99605016  0.99614206  0.33155102  1
  Ni  Ni3  1  0.99849093  0.33421091  -0.00120560  1
  Ni  Ni4  1  0.16420357  0.49894030  0.16535469  1
  Ni  Ni5  1  0.00031901  0.33358333  0.33166686  1
  Ni  Ni6  1  -0.00046776  0.66420084  -0.00042517  1
  Ni  Ni7  1  0.16406174  0.83017259  0.16489206  1
  Ni  Ni8  1  -0.00033811  0.66637687  0.33340465  1
  Ni  Ni9  1  0.33426740  0.99669965  0.99611754  1
  Cr  Cr10  1  0.49950530  0.16401974  0.16493017  1
  Cr  Cr11  1  0.33186007  0.99812701  0.33210232  1
  Ni  Ni12  1  0.33162266  0.33150100  0.99825569  1
  Cr  Cr13  1  0.49600212  0.49971254  0.16287945  1
  Ni  Ni14  1  0.33022865  0.33378735  0.33414409  1
  Ni  Ni15  1  0.33164889  0.66801989  0.00026927  1
  Ni  Ni16  1  0.50041858  0.83348239  0.16230900  1
  Cr  Cr17  1  0.32892625  0.66352647  0.33158440  1
  Ni  Ni18  1  0.66227819  0.99776705  0.00045554  1
  Fe  Fe19  1  0.83237030  0.16335411  0.16548635  1
  Ni  Ni20  1  0.66831258  0.99796365  0.33063331  1
  Ni  Ni21  1  0.66601811  0.33158875  0.99718982  1
  Cr  Cr22  1  0.83492250  0.49921888  0.16278631  1
  Cr  Cr23  1  0.66517225  0.33079180  0.33436191  1
  Ni  Ni24  1  0.66494686  0.66680748  0.99852440  1
  Ni  Ni25  1  0.83164786  0.83350155  0.16657625  1
  Cr  Cr26  1  0.66705026  0.66728356  0.33353184  1
  Cr  Cr27  1  0.16576431  0.16589228  0.49996561  1
  Ni  Ni28  1  0.00246159  0.99711154  0.66485537  1
  Ni  Ni29  1  0.16823250  0.16441486  0.83086229  1
  Ni  Ni30  1  0.16423683  0.49800905  0.49750784  1
  Ni  Ni31  1  0.99850915  0.33363298  0.66565523  1
  Cr  Cr32  1  0.16288924  0.49766278  0.83354232  1
  Ni  Ni33  1  0.16131774  0.83144677  0.49970232  1
  Ni  Ni34  1  -0.00124257  0.66536031  0.66311628  1
  Ni  Ni35  1  0.16729331  0.83454854  0.83150019  1
  Fe  Fe36  1  0.49785517  0.16784964  0.49990056  1
  Ni  Ni37  1  0.32989421  0.00048536  0.66786105  1
  Ni  Ni38  1  0.49600232  0.16441351  0.83186192  1
  Ni  Ni39  1  0.49805737  0.49485347  0.49920452  1
  Ni  Ni40  1  0.33288519  0.32924991  0.66378488  1
  Cr  Cr41  1  0.50070882  0.49786433  0.83430511  1
  Cr  Cr42  1  0.49926126  0.83313287  0.49836148  1
  Cr  Cr43  1  0.32978045  0.66662380  0.66430936  1
  Ni  Ni44  1  0.49636880  0.83515520  0.83559899  1
  Cr  Cr45  1  0.83300354  0.16437660  0.49753155  1
  Cr  Cr46  1  0.66390449  0.00024398  0.66535410  1
  Cr  Cr47  1  0.83272534  0.16846223  0.83276372  1
  Ni  Ni48  1  0.83383821  0.49938349  0.50049953  1
  Ni  Ni49  1  0.66478499  0.33292438  0.66454362  1
  Ni  Ni50  1  0.83250642  0.49759860  0.83228674  1
  Ni  Ni51  1  0.83551821  0.83119110  0.49726307  1
  Cr  Cr52  1  0.66778686  0.66245569  0.66446520  1
  Cr  Cr53  1  0.83256169  0.82915198  0.83163715  1
" 