8773,Ni61Fe3Cr34_5,-225.847200732159, 150.41176299475,Ni61Fe3Cr34,"# generated using pymatgen
 data_Cr19Fe2Ni33
_symmetry_space_group_name_H-M   'P 1'
_cell_length_a   7.49108132
_cell_length_b   7.49108132
_cell_length_c   10.59398880
_cell_angle_alpha   90.00000000
_cell_angle_beta   90.00000000
_cell_angle_gamma   90.00000000
_symmetry_Int_Tables_number   1
_chemical_formula_structural   Cr19Fe2Ni33
_chemical_formula_sum   'Cr19 Fe2 Ni33'
_cell_volume   594.49544677
_cell_formula_units_Z   1
loop_
 _symmetry_equiv_pos_site_id
 _symmetry_equiv_pos_as_xyz
  1  'x, y, z'
loop_
 _atom_site_type_symbol
 _atom_site_label
 _atom_site_symmetry_multiplicity
 _atom_site_fract_x
 _atom_site_fract_y
 _atom_site_fract_z
 _atom_site_occupancy
  Cr  Cr0  1  -0.00136657  0.99769109  0.99807898  1
  Cr  Cr1  1  0.16421297  0.16945731  0.16359667  1
  Cr  Cr2  1  0.99721100  -0.00075456  0.33219930  1
  Ni  Ni3  1  0.99650812  0.33191764  -0.00013451  1
  Cr  Cr4  1  0.16570113  0.49786856  0.16385310  1
  Ni  Ni5  1  0.99465189  0.33383116  0.33321224  1
  Fe  Fe6  1  0.99699803  0.66419853  -0.00072322  1
  Cr  Cr7  1  0.16619888  0.82741126  0.16637567  1
  Ni  Ni8  1  0.99692259  0.66219028  0.33205309  1
  Cr  Cr9  1  0.33214179  0.99589747  0.99662674  1
  Cr  Cr10  1  0.50042409  0.16744135  0.16594455  1
  Cr  Cr11  1  0.33272483  0.99631542  0.33225608  1
  Ni  Ni12  1  0.33394258  0.33438128  0.99562086  1
  Ni  Ni13  1  0.50041317  0.50113143  0.16440054  1
  Cr  Cr14  1  0.33295552  0.33443613  0.33538463  1
  Ni  Ni15  1  0.33562149  0.66424500  0.99772709  1
  Ni  Ni16  1  0.50155692  0.82718964  0.16632234  1
  Ni  Ni17  1  0.33316249  0.66341250  0.33246363  1
  Cr  Cr18  1  0.66439415  0.99605245  -0.00053305  1
  Ni  Ni19  1  0.83048812  0.16750672  0.16648395  1
  Ni  Ni20  1  0.66661668  -0.00125068  0.33033927  1
  Ni  Ni21  1  0.66449890  0.33551583  -0.00043276  1
  Ni  Ni22  1  0.83052417  0.49856164  0.16524425  1
  Ni  Ni23  1  0.66796859  0.33395461  0.33255925  1
  Ni  Ni24  1  0.66241016  0.66248939  -0.00020265  1
  Ni  Ni25  1  0.82884005  0.82883390  0.16602625  1
  Ni  Ni26  1  0.66509015  0.66249230  0.32978981  1
  Ni  Ni27  1  0.16454864  0.16745603  0.49949201  1
  Ni  Ni28  1  -0.00007758  0.99788204  0.66445326  1
  Ni  Ni29  1  0.16680104  0.16563029  0.83214841  1
  Ni  Ni30  1  0.16515763  0.49974442  0.49813764  1
  Cr  Cr31  1  -0.00048120  0.33203347  0.66182039  1
  Cr  Cr32  1  0.16643045  0.49823225  0.83354069  1
  Fe  Fe33  1  0.16465366  0.82896910  0.49935804  1
  Ni  Ni34  1  0.00019650  0.66624716  0.66385312  1
  Ni  Ni35  1  0.16616131  0.83008895  0.82986480  1
  Ni  Ni36  1  0.49990763  0.16607103  0.49857945  1
  Cr  Cr37  1  0.33088283  -0.00067341  0.66651311  1
  Ni  Ni38  1  0.49649784  0.16671956  0.83152800  1
  Ni  Ni39  1  0.49770137  0.49919179  0.49857223  1
  Ni  Ni40  1  0.33227971  0.33320723  0.66492907  1
  Ni  Ni41  1  0.49672661  0.49961929  0.83226049  1
  Cr  Cr42  1  0.50032984  0.83061202  0.49746152  1
  Ni  Ni43  1  0.33207317  0.66346790  0.66497589  1
  Ni  Ni44  1  0.49776859  0.82899800  0.83103699  1
  Ni  Ni45  1  0.83091500  0.16492806  0.49709192  1
  Ni  Ni46  1  0.66448280  -0.00127475  0.66533758  1
  Cr  Cr47  1  0.83088625  0.16528858  0.83088976  1
  Ni  Ni48  1  0.83223704  0.49962249  0.49650228  1
  Cr  Cr49  1  0.66215211  0.33402163  0.66308410  1
  Cr  Cr50  1  0.83037084  0.50011752  0.83291924  1
  Cr  Cr51  1  0.83049097  0.83084572  0.50086358  1
  Ni  Ni52  1  0.66279462  0.66419771  0.66547903  1
  Cr  Cr53  1  0.83067610  0.82971388  0.82815089  1
" 