4662,Ni61Fe3Cr34_9,-225.746507452741, 150.694043515661,Ni61Fe3Cr34,"# generated using pymatgen
 data_Cr19Fe2Ni33
_symmetry_space_group_name_H-M   'P 1'
_cell_length_a   7.48885119
_cell_length_b   7.48885119
_cell_length_c   10.59083492
_cell_angle_alpha   90.00000000
_cell_angle_beta   90.00000000
_cell_angle_gamma   90.00000000
_symmetry_Int_Tables_number   1
_chemical_formula_structural   Cr19Fe2Ni33
_chemical_formula_sum   'Cr19 Fe2 Ni33'
_cell_volume   593.96465255
_cell_formula_units_Z   1
loop_
 _symmetry_equiv_pos_site_id
 _symmetry_equiv_pos_as_xyz
  1  'x, y, z'
loop_
 _atom_site_type_symbol
 _atom_site_label
 _atom_site_symmetry_multiplicity
 _atom_site_fract_x
 _atom_site_fract_y
 _atom_site_fract_z
 _atom_site_occupancy
  Cr  Cr0  1  -0.00055149  0.00023118  0.00119393  1
  Ni  Ni1  1  0.16422376  0.16926579  0.16559058  1
  Cr  Cr2  1  0.99680493  -0.00065032  0.33175984  1
  Ni  Ni3  1  -0.00056743  0.33248191  -0.00086141  1
  Ni  Ni4  1  0.16239922  0.49650093  0.16683054  1
  Ni  Ni5  1  0.99809806  0.33349516  0.33210476  1
  Cr  Cr6  1  0.99853806  0.66329911  -0.00089510  1
  Ni  Ni7  1  0.16427495  0.83020574  0.16709214  1
  Ni  Ni8  1  -0.00055910  0.66383715  0.33181747  1
  Cr  Cr9  1  0.33180387  -0.00037905  0.99687102  1
  Cr  Cr10  1  0.49960652  0.16639566  0.16544331  1
  Cr  Cr11  1  0.33050329  -0.00128900  0.33183501  1
  Ni  Ni12  1  0.33049686  0.33151283  0.99697574  1
  Cr  Cr13  1  0.49622494  0.49649885  0.16759893  1
  Ni  Ni14  1  0.32834240  0.33327212  0.33170514  1
  Cr  Cr15  1  0.33208799  0.66409495  0.99793643  1
  Ni  Ni16  1  0.49952707  0.83366368  0.16642085  1
  Ni  Ni17  1  0.32767681  0.66462665  0.33037493  1
  Ni  Ni18  1  0.66421815  -0.00054160  0.00026279  1
  Fe  Fe19  1  0.83261234  0.16750112  0.16552158  1
  Ni  Ni20  1  0.66765347  -0.00034264  0.33071084  1
  Ni  Ni21  1  0.66593455  0.33155928  0.99777004  1
  Ni  Ni22  1  0.83502010  0.49630408  0.16595819  1
  Ni  Ni23  1  0.66887949  0.33066692  0.33200603  1
  Cr  Cr24  1  0.66486595  0.66416896  0.99789776  1
  Ni  Ni25  1  0.83169196  0.83222498  0.16643913  1
  Cr  Cr26  1  0.66841036  0.66527228  0.33149247  1
  Fe  Fe27  1  0.16327257  0.16754182  0.49812912  1
  Cr  Cr28  1  0.00112234  0.00134598  0.66274975  1
  Ni  Ni29  1  0.16651761  0.16749256  0.83126906  1
  Ni  Ni30  1  0.16178821  0.49825169  0.49510466  1
  Ni  Ni31  1  0.99736819  0.33233552  0.66437654  1
  Ni  Ni32  1  0.16383778  0.49540222  0.83352192  1
  Ni  Ni33  1  0.16384234  0.82977466  0.49773823  1
  Cr  Cr34  1  0.99761735  0.66237409  0.66465658  1
  Ni  Ni35  1  0.16758223  0.83266111  0.83095275  1
  Cr  Cr36  1  0.50037990  0.16559130  0.49847046  1
  Ni  Ni37  1  0.33209525  -0.00125760  0.66719907  1
  Ni  Ni38  1  0.49892736  0.16524190  0.83184777  1
  Cr  Cr39  1  0.49805829  0.49718842  0.49614924  1
  Cr  Cr40  1  0.33035937  0.33040114  0.66663910  1
  Ni  Ni41  1  0.50008792  0.49588526  0.83187694  1
  Cr  Cr42  1  0.49858824  0.83265123  0.49904321  1
  Cr  Cr43  1  0.33222589  0.66488052  0.66738871  1
  Ni  Ni44  1  0.49912709  0.83438396  0.83007259  1
  Ni  Ni45  1  0.83112496  0.16702756  0.49765850  1
  Ni  Ni46  1  0.66404660  -0.00073098  0.66486517  1
  Cr  Cr47  1  0.83150189  0.16687463  0.83316209  1
  Ni  Ni48  1  0.83451687  0.49632747  0.49912041  1
  Ni  Ni49  1  0.66739859  0.33263820  0.66592985  1
  Ni  Ni50  1  0.83188339  0.49527538  0.83057124  1
  Ni  Ni51  1  0.83265045  0.83234393  0.49856458  1
  Ni  Ni52  1  0.66591134  0.66355000  0.66608314  1
  Cr  Cr53  1  0.83134114  0.83206155  0.83039667  1
" 