3380,Ni61Fe3Cr34_15,-225.863311452956, 148.567258635611,Ni61Fe3Cr34,"# generated using pymatgen
 data_Cr19Fe2Ni33
_symmetry_space_group_name_H-M   'P 1'
_cell_length_a   7.48897202
_cell_length_b   7.48897202
_cell_length_c   10.59100579
_cell_angle_alpha   90.00000000
_cell_angle_beta   90.00000000
_cell_angle_gamma   90.00000000
_symmetry_Int_Tables_number   1
_chemical_formula_structural   Cr19Fe2Ni33
_chemical_formula_sum   'Cr19 Fe2 Ni33'
_cell_volume   593.99340253
_cell_formula_units_Z   1
loop_
 _symmetry_equiv_pos_site_id
 _symmetry_equiv_pos_as_xyz
  1  'x, y, z'
loop_
 _atom_site_type_symbol
 _atom_site_label
 _atom_site_symmetry_multiplicity
 _atom_site_fract_x
 _atom_site_fract_y
 _atom_site_fract_z
 _atom_site_occupancy
  Cr  Cr0  1  0.99699656  0.00005548  0.99553480  1
  Cr  Cr1  1  0.16501702  0.16851666  0.16099919  1
  Ni  Ni2  1  0.99710565  0.99789414  0.33482545  1
  Ni  Ni3  1  0.99739438  0.33464767  0.99552021  1
  Ni  Ni4  1  0.16353808  0.49911126  0.16487015  1
  Cr  Cr5  1  -0.00137691  0.33256356  0.33446592  1
  Cr  Cr6  1  0.99589832  0.66192721  0.99833730  1
  Cr  Cr7  1  0.16366773  0.83288256  0.16911009  1
  Fe  Fe8  1  0.99702718  0.66269071  0.33307864  1
  Ni  Ni9  1  0.33422455  -0.00006469  0.99593769  1
  Cr  Cr10  1  0.49949801  0.16682050  0.16502868  1
  Cr  Cr11  1  0.33415206  -0.00023616  0.33380547  1
  Ni  Ni12  1  0.33111078  0.33172634  0.99648249  1
  Cr  Cr13  1  0.49956152  0.49690230  0.16635805  1
  Cr  Cr14  1  0.33328505  0.33489322  0.33583851  1
  Cr  Cr15  1  0.33414301  0.66586023  0.99842668  1
  Ni  Ni16  1  0.50101690  0.83018594  0.16570394  1
  Ni  Ni17  1  0.33206162  0.66462897  0.33361463  1
  Cr  Cr18  1  0.66280978  0.99651987  0.99697657  1
  Cr  Cr19  1  0.83139711  0.16683335  0.16692217  1
  Ni  Ni20  1  0.66707335  0.99813827  0.33247758  1
  Ni  Ni21  1  0.66700152  0.33333567  0.99703413  1
  Ni  Ni22  1  0.83137671  0.49980421  0.16523672  1
  Ni  Ni23  1  0.66748578  0.33393073  0.33591939  1
  Ni  Ni24  1  0.66553544  0.66314658  -0.00099098  1
  Ni  Ni25  1  0.82889316  0.82903739  0.16883915  1
  Ni  Ni26  1  0.66458703  0.66352780  0.33070559  1
  Ni  Ni27  1  0.16502859  0.16624064  0.50113700  1
  Cr  Cr28  1  0.99745448  0.00433689  0.66480709  1
  Ni  Ni29  1  0.16743825  0.16969893  0.83190540  1
  Ni  Ni30  1  0.16636058  0.49820472  0.50008036  1
  Ni  Ni31  1  0.99828790  0.33207144  0.66567012  1
  Ni  Ni32  1  0.16534290  0.49296431  0.83079769  1
  Fe  Fe33  1  0.16629455  0.83142343  0.49945428  1
  Cr  Cr34  1  -0.00119584  0.65823624  0.66440626  1
  Cr  Cr35  1  0.16887694  0.83193104  0.82712962  1
  Ni  Ni36  1  0.50058419  0.16674133  0.50035352  1
  Ni  Ni37  1  0.33445061  0.00160167  0.66568591  1
  Ni  Ni38  1  0.49756690  0.16616036  0.83046062  1
  Ni  Ni39  1  0.49930776  0.49819889  0.49951040  1
  Ni  Ni40  1  0.33135076  0.33117721  0.66319554  1
  Cr  Cr41  1  0.49946054  0.49685334  0.82909946  1
  Cr  Cr42  1  0.50008249  0.82990369  0.50141883  1
  Ni  Ni43  1  0.33336868  0.66288096  0.66362275  1
  Ni  Ni44  1  0.49874349  0.83287272  0.82938027  1
  Ni  Ni45  1  0.83057003  0.16652883  0.49889723  1
  Ni  Ni46  1  0.66238448  0.00227455  0.66626700  1
  Ni  Ni47  1  0.83037581  0.17064696  0.83006132  1
  Ni  Ni48  1  0.82991237  0.49719558  0.49939986  1
  Ni  Ni49  1  0.66595721  0.33133956  0.66256021  1
  Ni  Ni50  1  0.83087889  0.49386397  0.83134810  1
  Cr  Cr51  1  0.83074763  0.83136128  0.49815133  1
  Ni  Ni52  1  0.66351043  0.66227334  0.66616772  1
  Cr  Cr53  1  0.82733391  0.82869427  0.82892980  1
" 