1026,Ni61Fe3Cr34_7,-225.601322803982, 144.95275011835,Ni61Fe3Cr34,"# generated using pymatgen
 data_Cr19Fe2Ni33
_symmetry_space_group_name_H-M   'P 1'
_cell_length_a   7.49035573
_cell_length_b   7.49035573
_cell_length_c   10.59296266
_cell_angle_alpha   90.00000000
_cell_angle_beta   90.00000000
_cell_angle_gamma   90.00000000
_symmetry_Int_Tables_number   1
_chemical_formula_structural   Cr19Fe2Ni33
_chemical_formula_sum   'Cr19 Fe2 Ni33'
_cell_volume   594.32271450
_cell_formula_units_Z   1
loop_
 _symmetry_equiv_pos_site_id
 _symmetry_equiv_pos_as_xyz
  1  'x, y, z'
loop_
 _atom_site_type_symbol
 _atom_site_label
 _atom_site_symmetry_multiplicity
 _atom_site_fract_x
 _atom_site_fract_y
 _atom_site_fract_z
 _atom_site_occupancy
  Ni  Ni0  1  0.00005293  0.99690020  -0.00136169  1
  Ni  Ni1  1  0.16365690  0.16468294  0.16529350  1
  Ni  Ni2  1  0.99627500  0.99671158  0.33119612  1
  Cr  Cr3  1  0.00157499  0.33090594  0.99758139  1
  Ni  Ni4  1  0.16732739  0.50076174  0.16592754  1
  Ni  Ni5  1  -0.00094070  0.33236367  0.33336877  1
  Ni  Ni6  1  0.00291768  0.66767564  -0.00061757  1
  Ni  Ni7  1  0.16331635  0.82995882  0.16468508  1
  Ni  Ni8  1  -0.00127291  0.66629071  0.33234171  1
  Cr  Cr9  1  0.32944750  0.99818026  0.99736006  1
  Cr  Cr10  1  0.49750091  0.16659265  0.16436586  1
  Cr  Cr11  1  0.33108131  0.99547693  0.33074429  1
  Ni  Ni12  1  0.33247262  0.33458034  0.99805684  1
  Ni  Ni13  1  0.49551175  0.50118081  0.16372424  1
  Cr  Cr14  1  0.32880790  0.33562628  0.32896085  1
  Ni  Ni15  1  0.33014014  0.66294475  0.99817194  1
  Ni  Ni16  1  0.49799959  0.82796210  0.16814800  1
  Ni  Ni17  1  0.33197129  0.66518505  0.33190230  1
  Cr  Cr18  1  0.66609042  -0.00147415  0.99782458  1
  Cr  Cr19  1  0.83362787  0.16273016  0.16632203  1
  Ni  Ni20  1  0.66846806  0.99365241  0.33268143  1
  Ni  Ni21  1  0.66141732  0.33185199  0.99569347  1
  Cr  Cr22  1  0.83208737  0.50135546  0.16516985  1
  Cr  Cr23  1  0.66625412  0.33352418  0.33309365  1
  Cr  Cr24  1  0.66282895  0.66484447  -0.00039710  1
  Ni  Ni25  1  0.83408918  0.83160679  0.16718515  1
  Ni  Ni26  1  0.66463827  0.66806822  0.33251129  1
  Cr  Cr27  1  0.16289727  0.16372510  0.49789080  1
  Cr  Cr28  1  -0.00022458  -0.00002863  0.66630555  1
  Ni  Ni29  1  0.16565067  0.16458704  0.83177592  1
  Fe  Fe30  1  0.16333637  0.50094881  0.49750903  1
  Ni  Ni31  1  0.99654183  0.33135952  0.66466371  1
  Ni  Ni32  1  0.16815844  0.49955535  0.83191202  1
  Ni  Ni33  1  0.16536811  0.82946114  0.49813781  1
  Cr  Cr34  1  0.00114502  0.66326248  0.66426303  1
  Ni  Ni35  1  0.16822186  0.83121757  0.83259490  1
  Cr  Cr36  1  0.49997153  0.16470820  0.49928336  1
  Ni  Ni37  1  0.33180496  0.99528121  0.66727054  1
  Ni  Ni38  1  0.49822553  0.16717799  0.83153795  1
  Ni  Ni39  1  0.49968876  0.50163382  0.49842867  1
  Cr  Cr40  1  0.33117093  0.33326618  0.66693594  1
  Ni  Ni41  1  0.49580482  0.49697869  0.83305565  1
  Fe  Fe42  1  0.49828065  0.82932644  0.49755787  1
  Ni  Ni43  1  0.33201927  0.66677900  0.66529956  1
  Ni  Ni44  1  0.49322051  0.83112344  0.82951515  1
  Ni  Ni45  1  0.83250015  0.16635172  0.49794115  1
  Cr  Cr46  1  0.66391018  -0.00058028  0.66530637  1
  Ni  Ni47  1  0.83142570  0.16716714  0.83093766  1
  Ni  Ni48  1  0.83135399  0.49794886  0.49790916  1
  Ni  Ni49  1  0.66668129  0.33154916  0.66573788  1
  Cr  Cr50  1  0.83146304  0.49591118  0.83189736  1
  Ni  Ni51  1  0.83300183  0.83101154  0.49395596  1
  Cr  Cr52  1  0.66250566  0.66385105  0.66352832  1
  Cr  Cr53  1  0.83451671  0.83226906  0.83489784  1
" 