5329,Ni61Fe3Cr34_14,-225.808556640862, 152.057171396438,Ni61Fe3Cr34,"# generated using pymatgen
 data_Cr19Fe2Ni33
_symmetry_space_group_name_H-M   'P 1'
_cell_length_a   7.49015016
_cell_length_b   7.49015016
_cell_length_c   10.59267195
_cell_angle_alpha   90.00000000
_cell_angle_beta   90.00000000
_cell_angle_gamma   90.00000000
_symmetry_Int_Tables_number   1
_chemical_formula_structural   Cr19Fe2Ni33
_chemical_formula_sum   'Cr19 Fe2 Ni33'
_cell_volume   594.27378336
_cell_formula_units_Z   1
loop_
 _symmetry_equiv_pos_site_id
 _symmetry_equiv_pos_as_xyz
  1  'x, y, z'
loop_
 _atom_site_type_symbol
 _atom_site_label
 _atom_site_symmetry_multiplicity
 _atom_site_fract_x
 _atom_site_fract_y
 _atom_site_fract_z
 _atom_site_occupancy
  Ni  Ni0  1  -0.00085380  -0.00136637  0.99731708  1
  Ni  Ni1  1  0.16428294  0.16770344  0.16546842  1
  Cr  Cr2  1  0.00067138  0.99832207  0.33294413  1
  Ni  Ni3  1  0.99806646  0.33157293  0.00181627  1
  Ni  Ni4  1  0.16385763  0.49611028  0.16513609  1
  Ni  Ni5  1  -0.00047425  0.33268459  0.33121438  1
  Ni  Ni6  1  0.99823749  0.66472263  -0.00145517  1
  Cr  Cr7  1  0.16743153  0.82978810  0.16438848  1
  Cr  Cr8  1  0.99767665  0.66210945  0.33488387  1
  Cr  Cr9  1  0.33124519  0.99786891  0.99818932  1
  Ni  Ni10  1  0.49791880  0.16692792  0.16795777  1
  Ni  Ni11  1  0.33173141  0.00050793  0.33096293  1
  Cr  Cr12  1  0.33191850  0.33219268  0.99606139  1
  Cr  Cr13  1  0.49710999  0.50046718  0.16529965  1
  Ni  Ni14  1  0.32996004  0.33070700  0.33236504  1
  Ni  Ni15  1  0.33213849  0.66579046  0.99738896  1
  Ni  Ni16  1  0.49893260  0.83097352  0.16631111  1
  Ni  Ni17  1  0.33057186  0.66459253  0.33142821  1
  Cr  Cr18  1  0.66483077  0.99782205  -0.00113683  1
  Fe  Fe19  1  0.83275465  0.16761874  0.16469156  1
  Cr  Cr20  1  0.66446257  0.99799024  0.33120495  1
  Ni  Ni21  1  0.66688398  0.33403923  0.00085408  1
  Fe  Fe22  1  0.83218097  0.49686924  0.16513667  1
  Ni  Ni23  1  0.66569941  0.33294600  0.33083257  1
  Ni  Ni24  1  0.66520567  0.66476640  0.99759825  1
  Cr  Cr25  1  0.83198405  0.82970773  0.16344869  1
  Ni  Ni26  1  0.66537971  0.66324011  0.33193075  1
  Ni  Ni27  1  0.16494252  0.16597638  0.49760648  1
  Ni  Ni28  1  -0.00079920  0.99568483  0.66552563  1
  Ni  Ni29  1  0.16086649  0.16353811  0.83174707  1
  Ni  Ni30  1  0.16365929  0.49841768  0.49800345  1
  Ni  Ni31  1  -0.00000318  0.33244750  0.66264616  1
  Cr  Cr32  1  0.16427461  0.49983365  0.83212255  1
  Ni  Ni33  1  0.16471310  0.83108726  0.49906254  1
  Ni  Ni34  1  0.99843734  0.66631285  0.66280051  1
  Ni  Ni35  1  0.16292269  0.83117117  0.83264392  1
  Ni  Ni36  1  0.49686331  0.16552877  0.49587599  1
  Cr  Cr37  1  0.33088512  0.99821623  0.66564423  1
  Cr  Cr38  1  0.50066575  0.16664315  0.82992917  1
  Cr  Cr39  1  0.49712618  0.49934020  0.49759913  1
  Cr  Cr40  1  0.32939608  0.33356848  0.66529092  1
  Ni  Ni41  1  0.49982490  0.50408490  0.83281201  1
  Cr  Cr42  1  0.49774173  0.83143295  0.49610848  1
  Ni  Ni43  1  0.33040207  0.66671679  0.66668176  1
  Ni  Ni44  1  0.49938935  0.82729088  0.83202696  1
  Cr  Cr45  1  0.83200292  0.16464627  0.50044750  1
  Ni  Ni46  1  0.66641452  0.99421607  0.66502599  1
  Cr  Cr47  1  0.83526704  0.16363782  0.83179456  1
  Ni  Ni48  1  0.83289609  0.49919001  0.49753665  1
  Cr  Cr49  1  0.66492833  0.33454119  0.66433205  1
  Cr  Cr50  1  0.83188049  0.49914461  0.83287785  1
  Ni  Ni51  1  0.83242523  0.82906861  0.50196936  1
  Ni  Ni52  1  0.66668879  0.66768406  0.66582712  1
  Ni  Ni53  1  0.83310517  0.83062607  0.83054474  1
" 