1208,Ni61Fe3Cr34_13,-225.648165999899, 143.572497180861,Ni61Fe3Cr34,"# generated using pymatgen
 data_Cr19Fe2Ni33
_symmetry_space_group_name_H-M   'P 1'
_cell_length_a   7.49318211
_cell_length_b   7.49318211
_cell_length_c   10.59695976
_cell_angle_alpha   90.00000000
_cell_angle_beta   90.00000000
_cell_angle_gamma   90.00000000
_symmetry_Int_Tables_number   1
_chemical_formula_structural   Cr19Fe2Ni33
_chemical_formula_sum   'Cr19 Fe2 Ni33'
_cell_volume   594.99574484
_cell_formula_units_Z   1
loop_
 _symmetry_equiv_pos_site_id
 _symmetry_equiv_pos_as_xyz
  1  'x, y, z'
loop_
 _atom_site_type_symbol
 _atom_site_label
 _atom_site_symmetry_multiplicity
 _atom_site_fract_x
 _atom_site_fract_y
 _atom_site_fract_z
 _atom_site_occupancy
  Cr  Cr0  1  0.99809439  0.99494701  -0.00120110  1
  Cr  Cr1  1  0.16561040  0.16564946  0.16506203  1
  Cr  Cr2  1  0.99658024  0.99590546  0.33260433  1
  Ni  Ni3  1  0.99515396  0.33436879  0.99661549  1
  Cr  Cr4  1  0.16294440  0.50111811  0.16556389  1
  Ni  Ni5  1  0.99623513  0.33302553  0.33383606  1
  Ni  Ni6  1  0.00013692  0.66548986  0.99658319  1
  Ni  Ni7  1  0.16706474  0.82994566  0.16561253  1
  Ni  Ni8  1  0.00025890  0.66511323  0.33318508  1
  Ni  Ni9  1  0.33419665  0.99352002  -0.00097700  1
  Ni  Ni10  1  0.50083557  0.16130542  0.16614519  1
  Ni  Ni11  1  0.33316779  0.99647481  0.32924976  1
  Cr  Cr12  1  0.33326676  0.33406503  0.99650556  1
  Cr  Cr13  1  0.49739176  0.49861105  0.16676075  1
  Ni  Ni14  1  0.33297338  0.33278250  0.33342559  1
  Ni  Ni15  1  0.32964967  0.66860470  0.99645620  1
  Ni  Ni16  1  0.49656312  0.83575743  0.16455211  1
  Ni  Ni17  1  0.32901971  0.66541039  0.33238511  1
  Ni  Ni18  1  0.66357147  0.99798650  0.00046043  1
  Ni  Ni19  1  0.82796024  0.16474188  0.16526090  1
  Ni  Ni20  1  0.66532194  0.00001353  0.32945443  1
  Ni  Ni21  1  0.66636155  0.32985785  -0.00139800  1
  Cr  Cr22  1  0.83449550  0.49726366  0.16435335  1
  Ni  Ni23  1  0.66546848  0.32897063  0.33240928  1
  Cr  Cr24  1  0.66433871  0.66540905  0.99562460  1
  Ni  Ni25  1  0.83125130  0.83336965  0.16491050  1
  Cr  Cr26  1  0.66599895  0.66483102  0.33312834  1
  Cr  Cr27  1  0.16481040  0.16828176  0.49890233  1
  Cr  Cr28  1  0.99713822  0.99534663  0.66340547  1
  Cr  Cr29  1  0.16457937  0.16724269  0.83079245  1
  Ni  Ni30  1  0.16435750  0.49939659  0.49818419  1
  Ni  Ni31  1  -0.00138376  0.33666502  0.66418951  1
  Ni  Ni32  1  0.16358039  0.50143630  0.83077716  1
  Fe  Fe33  1  0.16405994  0.82657156  0.49748771  1
  Ni  Ni34  1  -0.00097897  0.66315129  0.66496443  1
  Ni  Ni35  1  0.16602010  0.82647852  0.83203780  1
  Cr  Cr36  1  0.49811517  0.16550044  0.49572764  1
  Cr  Cr37  1  0.32997851  0.99563948  0.66665685  1
  Cr  Cr38  1  0.49799842  0.16340614  0.83309399  1
  Ni  Ni39  1  0.49588848  0.49897367  0.49845790  1
  Ni  Ni40  1  0.33025298  0.33823208  0.66480968  1
  Ni  Ni41  1  0.49710117  0.50175966  0.82980237  1
  Cr  Cr42  1  0.49808248  0.82950845  0.49781673  1
  Ni  Ni43  1  0.33000778  0.66148875  0.66613360  1
  Ni  Ni44  1  0.49734840  0.82855576  0.83273138  1
  Ni  Ni45  1  0.83228161  0.16646127  0.49609414  1
  Cr  Cr46  1  0.66740159  0.99560878  0.66487347  1
  Cr  Cr47  1  0.83217066  0.16646269  0.83333457  1
  Ni  Ni48  1  0.83446844  0.49891669  0.49828576  1
  Cr  Cr49  1  0.66478138  0.33567455  0.66378479  1
  Ni  Ni50  1  0.83401936  0.50066970  0.83152798  1
  Ni  Ni51  1  0.83254050  0.82923221  0.49848172  1
  Fe  Fe52  1  0.66590238  0.66321119  0.66565080  1
  Ni  Ni53  1  0.83139608  0.82742009  0.83125717  1
" 