3774,Ni61Fe3Cr34_16,-225.562694195117, 147.278208774995,Ni61Fe3Cr34,"# generated using pymatgen
 data_Cr19Fe2Ni33
_symmetry_space_group_name_H-M   'P 1'
_cell_length_a   7.49477147
_cell_length_b   7.49477147
_cell_length_c   10.59920746
_cell_angle_alpha   90.00000000
_cell_angle_beta   90.00000000
_cell_angle_gamma   90.00000000
_symmetry_Int_Tables_number   1
_chemical_formula_structural   Cr19Fe2Ni33
_chemical_formula_sum   'Cr19 Fe2 Ni33'
_cell_volume   595.37443586
_cell_formula_units_Z   1
loop_
 _symmetry_equiv_pos_site_id
 _symmetry_equiv_pos_as_xyz
  1  'x, y, z'
loop_
 _atom_site_type_symbol
 _atom_site_label
 _atom_site_symmetry_multiplicity
 _atom_site_fract_x
 _atom_site_fract_y
 _atom_site_fract_z
 _atom_site_occupancy
  Cr  Cr0  1  0.99535011  0.99596177  0.99331241  1
  Cr  Cr1  1  0.16786536  0.16605970  0.16523821  1
  Ni  Ni2  1  0.99717577  -0.00184648  0.33449178  1
  Ni  Ni3  1  -0.00098295  0.33463219  0.00002696  1
  Fe  Fe4  1  0.16491623  0.49728300  0.16458736  1
  Ni  Ni5  1  0.99769990  0.33172049  0.33270733  1
  Ni  Ni6  1  -0.00049806  0.66410584  0.00028651  1
  Cr  Cr7  1  0.16451697  0.83182094  0.16511275  1
  Ni  Ni8  1  -0.00182604  0.66424531  0.33025036  1
  Ni  Ni9  1  0.33340558  0.99798770  0.99659498  1
  Ni  Ni10  1  0.49594583  0.16832865  0.16675187  1
  Fe  Fe11  1  0.33241577  0.00030356  0.33438326  1
  Ni  Ni12  1  0.33384264  0.33327098  0.00004114  1
  Ni  Ni13  1  0.49658744  0.49429274  0.16453360  1
  Ni  Ni14  1  0.33389210  0.33027334  0.33154117  1
  Ni  Ni15  1  0.33146592  0.66358016  0.99698605  1
  Cr  Cr16  1  0.49759593  0.83671516  0.16583514  1
  Cr  Cr17  1  0.33249108  0.66166730  0.33416746  1
  Cr  Cr18  1  0.66428896  0.99760743  0.99613431  1
  Cr  Cr19  1  0.83044633  0.16508786  0.16780434  1
  Ni  Ni20  1  0.66476393  0.00097442  0.33206286  1
  Cr  Cr21  1  0.66378488  0.33221769  0.99812095  1
  Ni  Ni22  1  0.83474969  0.49782044  0.16726132  1
  Ni  Ni23  1  0.66295624  0.33043289  0.33282692  1
  Cr  Cr24  1  0.66511160  0.66493141  0.00126076  1
  Ni  Ni25  1  0.83469992  0.82912346  0.16729859  1
  Cr  Cr26  1  0.66460389  0.66140068  0.32900571  1
  Ni  Ni27  1  0.16492207  0.16307134  0.49190912  1
  Cr  Cr28  1  0.99745893  -0.00173357  0.66591609  1
  Cr  Cr29  1  0.16712407  0.16650555  0.83600594  1
  Cr  Cr30  1  0.16263539  0.49933953  0.49849855  1
  Cr  Cr31  1  0.99545088  0.32799192  0.66177508  1
  Cr  Cr32  1  0.16640367  0.50066180  0.83427581  1
  Ni  Ni33  1  0.16539010  0.83217125  0.49719311  1
  Ni  Ni34  1  -0.00144110  0.66807264  0.66423921  1
  Ni  Ni35  1  0.16690744  0.82797412  0.83221348  1
  Ni  Ni36  1  0.50096988  0.16479419  0.49469858  1
  Cr  Cr37  1  0.33163580  0.99737753  0.66250062  1
  Ni  Ni38  1  0.49984402  0.16476137  0.83251086  1
  Ni  Ni39  1  0.50162266  0.49720822  0.50001272  1
  Cr  Cr40  1  0.33586641  0.33212440  0.66301344  1
  Ni  Ni41  1  0.49771579  0.49946540  0.83012689  1
  Ni  Ni42  1  0.49771838  0.83299755  0.49929021  1
  Ni  Ni43  1  0.33408156  0.66703416  0.66504165  1
  Ni  Ni44  1  0.49703079  0.83042835  0.83051649  1
  Ni  Ni45  1  0.82831040  0.16670222  0.49636960  1
  Ni  Ni46  1  0.66347268  -0.00062869  0.66657085  1
  Ni  Ni47  1  0.82703252  0.16497901  0.82970068  1
  Ni  Ni48  1  0.82857527  0.49613980  0.49755628  1
  Ni  Ni49  1  0.66255917  0.32972160  0.66270543  1
  Cr  Cr50  1  0.83056400  0.49848119  0.82758147  1
  Cr  Cr51  1  0.82907345  0.83000844  0.49722916  1
  Ni  Ni52  1  0.66149831  0.66517976  0.66419984  1
  Ni  Ni53  1  0.83043692  0.82929676  0.82984922  1
" 