4036,Ni61Fe3Cr34_12,-225.864939784069, 148.253818219084,Ni61Fe3Cr34,"# generated using pymatgen
 data_Cr19Fe2Ni33
_symmetry_space_group_name_H-M   'P 1'
_cell_length_a   7.48959181
_cell_length_b   7.48959181
_cell_length_c   10.59188231
_cell_angle_alpha   90.00000000
_cell_angle_beta   90.00000000
_cell_angle_gamma   90.00000000
_symmetry_Int_Tables_number   1
_chemical_formula_structural   Cr19Fe2Ni33
_chemical_formula_sum   'Cr19 Fe2 Ni33'
_cell_volume   594.14089185
_cell_formula_units_Z   1
loop_
 _symmetry_equiv_pos_site_id
 _symmetry_equiv_pos_as_xyz
  1  'x, y, z'
loop_
 _atom_site_type_symbol
 _atom_site_label
 _atom_site_symmetry_multiplicity
 _atom_site_fract_x
 _atom_site_fract_y
 _atom_site_fract_z
 _atom_site_occupancy
  Ni  Ni0  1  0.99751884  0.00236228  -0.00123557  1
  Ni  Ni1  1  0.16568276  0.16665072  0.16427453  1
  Ni  Ni2  1  0.99618078  -0.00148567  0.33268458  1
  Ni  Ni3  1  0.99772465  0.32933901  0.99656954  1
  Cr  Cr4  1  0.16504376  0.49654998  0.16668724  1
  Cr  Cr5  1  0.99787079  0.33060527  0.33398424  1
  Cr  Cr6  1  0.99484346  0.66167900  0.99762749  1
  Cr  Cr7  1  0.16146203  0.83078089  0.16717180  1
  Ni  Ni8  1  0.99430521  0.66502277  0.33365887  1
  Cr  Cr9  1  0.33129393  0.00075303  0.00073785  1
  Ni  Ni10  1  0.49955848  0.16817600  0.16523813  1
  Cr  Cr11  1  0.33237086  0.00071118  0.33100423  1
  Ni  Ni12  1  0.33223698  0.33117773  0.99840859  1
  Ni  Ni13  1  0.49990445  0.49553679  0.16710193  1
  Ni  Ni14  1  0.33329479  0.33345103  0.33171896  1
  Cr  Cr15  1  0.33599740  0.66276818  -0.00131478  1
  Ni  Ni16  1  0.50192000  0.83208809  0.16766281  1
  Ni  Ni17  1  0.33593659  0.66329235  0.33268825  1
  Fe  Fe18  1  0.66595044  0.00041345  0.00033381  1
  Cr  Cr19  1  0.83051188  0.16620358  0.16475116  1
  Ni  Ni20  1  0.66658276  0.99656689  0.33179974  1
  Ni  Ni21  1  0.66566617  0.33366929  0.99794565  1
  Ni  Ni22  1  0.82934687  0.49892067  0.16618119  1
  Ni  Ni23  1  0.66424494  0.33454945  0.33235319  1
  Cr  Cr24  1  0.66432438  0.66267403  0.00130694  1
  Ni  Ni25  1  0.83036001  0.83245594  0.16710520  1
  Ni  Ni26  1  0.66511274  0.66465797  0.33127768  1
  Ni  Ni27  1  0.16499384  0.16805890  0.49682358  1
  Cr  Cr28  1  0.99752483  0.00253846  0.66317479  1
  Ni  Ni29  1  0.16409269  0.16890939  0.83415637  1
  Ni  Ni30  1  0.16715442  0.49855783  0.49856394  1
  Cr  Cr31  1  0.99753804  0.33183768  0.66463059  1
  Ni  Ni32  1  0.16607262  0.49541033  0.83075641  1
  Cr  Cr33  1  0.16409375  0.82730549  0.49750497  1
  Fe  Fe34  1  0.99765863  0.66197352  0.66362384  1
  Cr  Cr35  1  0.16394529  0.82893305  0.83045389  1
  Cr  Cr36  1  0.50187669  0.16874776  0.49903840  1
  Cr  Cr37  1  0.33172593  0.00026712  0.66339580  1
  Cr  Cr38  1  0.50205656  0.16840849  0.83096601  1
  Ni  Ni39  1  0.49767187  0.49862071  0.49772910  1
  Ni  Ni40  1  0.33102320  0.33560711  0.66535483  1
  Ni  Ni41  1  0.49773743  0.49515664  0.83097815  1
  Ni  Ni42  1  0.50128441  0.82961661  0.49791183  1
  Ni  Ni43  1  0.33313213  0.66067782  0.66461723  1
  Cr  Cr44  1  0.49928833  0.83210870  0.82990462  1
  Ni  Ni45  1  0.82953540  0.16441823  0.49797048  1
  Ni  Ni46  1  0.66791933  -0.00088167  0.66379531  1
  Ni  Ni47  1  0.83143215  0.16721123  0.83306907  1
  Ni  Ni48  1  0.83058528  0.49879124  0.49715382  1
  Ni  Ni49  1  0.66637351  0.33318105  0.66512574  1
  Ni  Ni50  1  0.83162404  0.49463677  0.83215895  1
  Ni  Ni51  1  0.83012966  0.83216826  0.49632033  1
  Cr  Cr52  1  0.66509119  0.66245487  0.66378420  1
  Cr  Cr53  1  0.83192093  0.83444263  0.83204256  1
" 