8557,Ni61Fe3Cr34_3,-225.726079867542, 147.894371793399,Ni61Fe3Cr34,"# generated using pymatgen
 data_Cr19Fe2Ni33
_symmetry_space_group_name_H-M   'P 1'
_cell_length_a   7.49458664
_cell_length_b   7.49458664
_cell_length_c   10.59894607
_cell_angle_alpha   90.00000000
_cell_angle_beta   90.00000000
_cell_angle_gamma   90.00000000
_symmetry_Int_Tables_number   1
_chemical_formula_structural   Cr19Fe2Ni33
_chemical_formula_sum   'Cr19 Fe2 Ni33'
_cell_volume   595.33038837
_cell_formula_units_Z   1
loop_
 _symmetry_equiv_pos_site_id
 _symmetry_equiv_pos_as_xyz
  1  'x, y, z'
loop_
 _atom_site_type_symbol
 _atom_site_label
 _atom_site_symmetry_multiplicity
 _atom_site_fract_x
 _atom_site_fract_y
 _atom_site_fract_z
 _atom_site_occupancy
  Cr  Cr0  1  0.99677987  -0.00039115  0.99568044  1
  Ni  Ni1  1  0.16730869  0.16753704  0.16557785  1
  Ni  Ni2  1  0.00052614  0.00119311  0.33374668  1
  Ni  Ni3  1  0.99700098  0.33331125  -0.00121870  1
  Ni  Ni4  1  0.16442910  0.49543879  0.16400429  1
  Ni  Ni5  1  0.00115724  0.32990021  0.33183225  1
  Ni  Ni6  1  0.99738981  0.66158462  -0.00140267  1
  Cr  Cr7  1  0.16598786  0.83275085  0.16320596  1
  Fe  Fe8  1  0.00080073  0.66374668  0.33063519  1
  Ni  Ni9  1  0.33495809  0.00012809  0.00031812  1
  Ni  Ni10  1  0.49593716  0.16393080  0.16405663  1
  Ni  Ni11  1  0.33171532  -0.00008488  0.33222548  1
  Ni  Ni12  1  0.33379738  0.33148855  0.00041354  1
  Ni  Ni13  1  0.49585900  0.49557052  0.16241230  1
  Ni  Ni14  1  0.32868821  0.32907215  0.33075378  1
  Ni  Ni15  1  0.33256539  0.66298846  -0.00054322  1
  Ni  Ni16  1  0.49705733  0.83504841  0.16432769  1
  Cr  Cr17  1  0.33293387  0.66456837  0.33164445  1
  Ni  Ni18  1  0.66212187  0.00030132  0.99708557  1
  Cr  Cr19  1  0.83113457  0.16565497  0.16536358  1
  Ni  Ni20  1  0.66199590  -0.00108781  0.33293456  1
  Ni  Ni21  1  0.66378809  0.33113580  0.99727089  1
  Ni  Ni22  1  0.83443379  0.49645272  0.16387767  1
  Cr  Cr23  1  0.66192562  0.33046364  0.32997614  1
  Cr  Cr24  1  0.66405480  0.66346097  -0.00018691  1
  Cr  Cr25  1  0.83106773  0.83270493  0.16607630  1
  Cr  Cr26  1  0.66209760  0.66554080  0.32807580  1
  Ni  Ni27  1  0.16600683  0.16377253  0.49508965  1
  Cr  Cr28  1  -0.00091743  -0.00001606  0.66538207  1
  Cr  Cr29  1  0.16893710  0.16555031  0.83500892  1
  Ni  Ni30  1  0.16519257  0.49801311  0.49630009  1
  Cr  Cr31  1  0.99622354  0.32876727  0.66461166  1
  Cr  Cr32  1  0.16742332  0.49857332  0.83363293  1
  Ni  Ni33  1  0.16731140  0.83272290  0.49777112  1
  Cr  Cr34  1  -0.00168776  0.66566365  0.66497000  1
  Cr  Cr35  1  0.16731974  0.83024546  0.83299250  1
  Ni  Ni36  1  0.49816560  0.16167512  0.49801611  1
  Ni  Ni37  1  0.33311091  0.99758842  0.66191655  1
  Ni  Ni38  1  0.50074646  0.16589188  0.83238508  1
  Cr  Cr39  1  0.49761150  0.49752304  0.50121104  1
  Cr  Cr40  1  0.33296880  0.32914719  0.66328870  1
  Ni  Ni41  1  0.49995775  0.49645128  0.83135573  1
  Ni  Ni42  1  0.49660781  0.83498626  0.49964593  1
  Ni  Ni43  1  0.33415835  0.66694671  0.66301850  1
  Cr  Cr44  1  0.49692379  0.83254803  0.83063126  1
  Ni  Ni45  1  0.83017919  0.16399892  0.49763167  1
  Fe  Fe46  1  0.66332261  0.00001718  0.66487347  1
  Ni  Ni47  1  0.82672018  0.16634243  0.83208105  1
  Cr  Cr48  1  0.83188623  0.49613606  0.49687973  1
  Ni  Ni49  1  0.66461540  0.33023583  0.66674911  1
  Ni  Ni50  1  0.82901542  0.49708551  0.83268984  1
  Cr  Cr51  1  0.82939620  0.83288941  0.49615141  1
  Ni  Ni52  1  0.66314229  0.66445595  0.66652800  1
  Ni  Ni53  1  0.82893797  0.83116695  0.83183215  1
" 