4545,Ni61Fe3Cr34_17,-226.054239183254, 155.986267142716,Ni61Fe3Cr34,"# generated using pymatgen
 data_Cr19Fe2Ni33
_symmetry_space_group_name_H-M   'P 1'
_cell_length_a   7.48623593
_cell_length_b   7.48623593
_cell_length_c   10.58713639
_cell_angle_alpha   90.00000000
_cell_angle_beta   90.00000000
_cell_angle_gamma   90.00000000
_symmetry_Int_Tables_number   1
_chemical_formula_structural   Cr19Fe2Ni33
_chemical_formula_sum   'Cr19 Fe2 Ni33'
_cell_volume   593.34259656
_cell_formula_units_Z   1
loop_
 _symmetry_equiv_pos_site_id
 _symmetry_equiv_pos_as_xyz
  1  'x, y, z'
loop_
 _atom_site_type_symbol
 _atom_site_label
 _atom_site_symmetry_multiplicity
 _atom_site_fract_x
 _atom_site_fract_y
 _atom_site_fract_z
 _atom_site_occupancy
  Ni  Ni0  1  -0.00062163  0.99834610  -0.00030908  1
  Ni  Ni1  1  0.16474050  0.16088442  0.16594017  1
  Ni  Ni2  1  -0.00101654  0.00066635  0.33056800  1
  Cr  Cr3  1  0.99614856  0.33167666  0.99863471  1
  Cr  Cr4  1  0.16558755  0.49981650  0.16644424  1
  Cr  Cr5  1  -0.00016791  0.33008351  0.33328376  1
  Ni  Ni6  1  0.99648860  0.66626393  0.99760230  1
  Ni  Ni7  1  0.16602141  0.83489108  0.16522788  1
  Fe  Fe8  1  0.99861294  0.66518266  0.33205320  1
  Ni  Ni9  1  0.33014157  0.99855893  0.00065766  1
  Cr  Cr10  1  0.49779777  0.16576092  0.16491262  1
  Fe  Fe11  1  0.33254867  0.99847243  0.33200700  1
  Cr  Cr12  1  0.33295315  0.33146754  -0.00119810  1
  Ni  Ni13  1  0.50127884  0.50107692  0.16589955  1
  Ni  Ni14  1  0.33098067  0.33320867  0.33375917  1
  Cr  Cr15  1  0.33241863  0.66665434  0.00016975  1
  Ni  Ni16  1  0.49692268  0.83014492  0.16698261  1
  Ni  Ni17  1  0.33450260  0.66506835  0.33203545  1
  Cr  Cr18  1  0.66633019  -0.00091635  0.99733872  1
  Ni  Ni19  1  0.83391148  0.16524065  0.16502611  1
  Ni  Ni20  1  0.66571853  0.99713978  0.33325694  1
  Ni  Ni21  1  0.66747229  0.33338933  0.99848833  1
  Ni  Ni22  1  0.82915916  0.49979411  0.16364164  1
  Cr  Cr23  1  0.66541621  0.33262898  0.33262396  1
  Ni  Ni24  1  0.66768339  0.66315617  -0.00014314  1
  Cr  Cr25  1  0.83317132  0.83098462  0.16600156  1
  Ni  Ni26  1  0.66210298  0.66637059  0.33166155  1
  Ni  Ni27  1  0.16734351  0.16570886  0.49688854  1
  Cr  Cr28  1  0.99776124  -0.00066770  0.66602204  1
  Cr  Cr29  1  0.16707239  0.16410417  0.83333599  1
  Ni  Ni30  1  0.16652340  0.49899639  0.49876530  1
  Cr  Cr31  1  0.99700654  0.33402254  0.66423589  1
  Ni  Ni32  1  0.16234262  0.50134335  0.83069367  1
  Cr  Cr33  1  0.16684420  0.83146764  0.49871768  1
  Ni  Ni34  1  0.99849811  0.66260896  0.66650104  1
  Cr  Cr35  1  0.16348445  0.83081860  0.83209008  1
  Ni  Ni36  1  0.49772716  0.16512912  0.49899820  1
  Ni  Ni37  1  0.33401545  0.99820304  0.66367062  1
  Ni  Ni38  1  0.50042072  0.16561616  0.83190692  1
  Ni  Ni39  1  0.49865494  0.49968762  0.49864358  1
  Cr  Cr40  1  0.33251419  0.33276876  0.66386085  1
  Cr  Cr41  1  0.50118163  0.49701250  0.83188847  1
  Ni  Ni42  1  0.49788204  0.83133746  0.49810555  1
  Ni  Ni43  1  0.33196324  0.66524160  0.66382221  1
  Cr  Cr44  1  0.49910132  0.83317325  0.83081663  1
  Ni  Ni45  1  0.83108734  0.16648245  0.49802392  1
  Cr  Cr46  1  0.66421542  -0.00013273  0.66529992  1
  Ni  Ni47  1  0.82948984  0.16635249  0.83310499  1
  Ni  Ni48  1  0.83097468  0.49914995  0.50023420  1
  Ni  Ni49  1  0.66622613  0.33275605  0.66502395  1
  Ni  Ni50  1  0.83204797  0.50044606  0.83227877  1
  Cr  Cr51  1  0.83086873  0.83040214  0.49765066  1
  Ni  Ni52  1  0.66569288  0.66339902  0.66463823  1
  Ni  Ni53  1  0.83355131  0.82935516  0.83301053  1
" 