1388,Ni61Fe3Cr34_2,-225.7468128853, 151.046278979067,Ni61Fe3Cr34,"# generated using pymatgen
 data_Cr19Fe2Ni33
_symmetry_space_group_name_H-M   'P 1'
_cell_length_a   7.49129371
_cell_length_b   7.49129371
_cell_length_c   10.59428917
_cell_angle_alpha   90.00000000
_cell_angle_beta   90.00000000
_cell_angle_gamma   90.00000000
_symmetry_Int_Tables_number   1
_chemical_formula_structural   Cr19Fe2Ni33
_chemical_formula_sum   'Cr19 Fe2 Ni33'
_cell_volume   594.54601472
_cell_formula_units_Z   1
loop_
 _symmetry_equiv_pos_site_id
 _symmetry_equiv_pos_as_xyz
  1  'x, y, z'
loop_
 _atom_site_type_symbol
 _atom_site_label
 _atom_site_symmetry_multiplicity
 _atom_site_fract_x
 _atom_site_fract_y
 _atom_site_fract_z
 _atom_site_occupancy
  Ni  Ni0  1  0.99598916  0.99773609  0.99744051  1
  Ni  Ni1  1  0.16617203  0.16579438  0.16576095  1
  Ni  Ni2  1  -0.00160957  -0.00103963  0.33263609  1
  Ni  Ni3  1  0.99740487  0.33092535  0.99785107  1
  Cr  Cr4  1  0.16481303  0.49679940  0.16560055  1
  Ni  Ni5  1  0.00221688  0.33098317  0.33441609  1
  Ni  Ni6  1  0.99460417  0.66652242  0.99643220  1
  Cr  Cr7  1  0.16102670  0.83274384  0.16693343  1
  Ni  Ni8  1  0.99780745  0.66521427  0.33337838  1
  Cr  Cr9  1  0.33140397  -0.00035938  0.99768045  1
  Ni  Ni10  1  0.49682295  0.16658589  0.16436418  1
  Ni  Ni11  1  0.33141380  0.00093180  0.33161411  1
  Ni  Ni12  1  0.33258379  0.33076775  0.00142503  1
  Ni  Ni13  1  0.49748015  0.49538531  0.16355620  1
  Ni  Ni14  1  0.32958352  0.33081008  0.33139195  1
  Cr  Cr15  1  0.33259766  0.66485948  0.99813078  1
  Cr  Cr16  1  0.50110740  0.83299794  0.16673478  1
  Fe  Fe17  1  0.33153460  0.66347805  0.33346062  1
  Ni  Ni18  1  0.66738727  0.99750823  0.99813766  1
  Cr  Cr19  1  0.83199067  0.16260398  0.16456951  1
  Ni  Ni20  1  0.66539752  0.99661483  0.33231344  1
  Ni  Ni21  1  0.66517347  0.33206113  0.99816772  1
  Cr  Cr22  1  0.83228351  0.50007077  0.16255701  1
  Cr  Cr23  1  0.66501079  0.33172425  0.33265616  1
  Ni  Ni24  1  0.66758691  0.66554458  0.99733620  1
  Ni  Ni25  1  0.83244325  0.83276016  0.16357905  1
  Cr  Cr26  1  0.66575224  0.66614250  0.33320212  1
  Ni  Ni27  1  0.16331619  0.16664766  0.49665837  1
  Ni  Ni28  1  0.99703938  0.99692617  0.66505637  1
  Cr  Cr29  1  0.16293701  0.16421764  0.83204072  1
  Ni  Ni30  1  0.16478052  0.49698911  0.49671898  1
  Cr  Cr31  1  0.99674776  0.33134440  0.66236808  1
  Cr  Cr32  1  0.16247921  0.49967200  0.83254408  1
  Cr  Cr33  1  0.16329087  0.83179463  0.49682216  1
  Ni  Ni34  1  0.99500174  0.66622885  0.66534440  1
  Ni  Ni35  1  0.16157029  0.83165819  0.83175937  1
  Cr  Cr36  1  0.49830570  0.16538052  0.49863429  1
  Cr  Cr37  1  0.32980925  0.99806323  0.66626851  1
  Cr  Cr38  1  0.50136551  0.16631844  0.83233962  1
  Ni  Ni39  1  0.49776236  0.49898955  0.49976327  1
  Ni  Ni40  1  0.33236201  0.33283585  0.66230303  1
  Cr  Cr41  1  0.50176961  0.49765238  0.83149079  1
  Ni  Ni42  1  0.50024169  0.82995609  0.49684857  1
  Cr  Cr43  1  0.33269867  0.66503473  0.66413144  1
  Ni  Ni44  1  0.50051982  0.83088729  0.83233256  1
  Ni  Ni45  1  0.83411047  0.16419517  0.49778214  1
  Cr  Cr46  1  0.66769081  0.99682223  0.66449496  1
  Ni  Ni47  1  0.83159002  0.16527500  0.83332442  1
  Ni  Ni48  1  0.83262224  0.49939535  0.49987871  1
  Ni  Ni49  1  0.66619771  0.33483277  0.66435516  1
  Ni  Ni50  1  0.83082223  0.49903815  0.83258752  1
  Ni  Ni51  1  0.83193230  0.83154526  0.49857806  1
  Ni  Ni52  1  0.66714787  0.66387341  0.66428782  1
  Fe  Fe53  1  0.83252319  0.83087190  0.83257295  1
" 