2495,Ni62Fe28Cr8_19,-238.219042419298, 207.965428624372,Ni62Fe28Cr8,"# generated using pymatgen
 data_Cr2Fe5Ni11
_symmetry_space_group_name_H-M   'P 1'
_cell_length_a   7.42934297
_cell_length_b   7.42934297
_cell_length_c   10.50667758
_cell_angle_alpha   90.00000000
_cell_angle_beta   90.00000000
_cell_angle_gamma   90.00000000
_symmetry_Int_Tables_number   1
_chemical_formula_structural   Cr2Fe5Ni11
_chemical_formula_sum   'Cr6 Fe15 Ni33'
_cell_volume   579.91750734
_cell_formula_units_Z   3
loop_
 _symmetry_equiv_pos_site_id
 _symmetry_equiv_pos_as_xyz
  1  'x, y, z'
loop_
 _atom_site_type_symbol
 _atom_site_label
 _atom_site_symmetry_multiplicity
 _atom_site_fract_x
 _atom_site_fract_y
 _atom_site_fract_z
 _atom_site_occupancy
  Fe  Fe0  1  0.00383703  0.99998483  1.00249079  1
  Ni  Ni1  1  0.16959031  0.16817267  0.16966390  1
  Ni  Ni2  1  1.00241574  0.00294579  0.33425300  1
  Cr  Cr3  1  0.00260791  0.33636811  1.00203926  1
  Fe  Fe4  1  0.16929121  0.50404353  0.17041250  1
  Ni  Ni5  1  0.00281407  0.33608927  0.33656690  1
  Ni  Ni6  1  1.00240402  0.66979529  1.00205429  1
  Ni  Ni7  1  0.16878165  0.83633073  0.16929300  1
  Ni  Ni8  1  0.00270400  0.66857824  0.33539204  1
  Ni  Ni9  1  0.33384817  0.00269867  1.00155024  1
  Cr  Cr10  1  0.50101771  0.16947984  0.17000296  1
  Ni  Ni11  1  0.33550491  1.00208658  0.33709253  1
  Fe  Fe12  1  0.33669790  0.33684338  1.00151686  1
  Fe  Fe13  1  0.50289784  0.50497309  0.16922084  1
  Ni  Ni14  1  0.33480836  0.33665077  0.33611670  1
  Fe  Fe15  1  0.33506911  0.66909715  0.00307339  1
  Ni  Ni16  1  0.50209899  0.83433120  0.17042441  1
  Ni  Ni17  1  0.33577473  0.66887914  0.33496747  1
  Cr  Cr18  1  0.66997692  1.00192137  0.00292767  1
  Fe  Fe19  1  0.83766248  0.16845629  0.17079913  1
  Ni  Ni20  1  0.66969372  1.00197575  0.33650491  1
  Fe  Fe21  1  0.66847502  0.33829960  1.00120686  1
  Ni  Ni22  1  0.83521591  0.50440419  0.16963215  1
  Ni  Ni23  1  0.66999421  0.33636171  0.33556860  1
  Ni  Ni24  1  0.67008986  0.66743140  0.00255365  1
  Ni  Ni25  1  0.83673293  0.83352602  0.16957519  1
  Ni  Ni26  1  0.66913355  0.66927686  0.33583375  1
  Ni  Ni27  1  0.17048864  0.16926572  0.50222431  1
  Ni  Ni28  1  1.00183161  1.00171728  0.67107029  1
  Fe  Fe29  1  0.16968127  0.16705982  0.83583039  1
  Ni  Ni30  1  0.16700673  0.50181497  0.50017437  1
  Fe  Fe31  1  1.00125689  0.33540270  0.66877193  1
  Ni  Ni32  1  0.16859450  0.50356267  0.83681192  1
  Fe  Fe33  1  0.16796065  0.83668900  0.50191324  1
  Ni  Ni34  1  1.00127168  0.66947181  0.67016979  1
  Ni  Ni35  1  0.16636241  0.83603962  0.83642648  1
  Ni  Ni36  1  0.50203532  0.16811430  0.50231435  1
  Ni  Ni37  1  0.33559007  0.00361819  0.66896840  1
  Ni  Ni38  1  0.50276200  0.17129473  0.83564295  1
  Fe  Fe39  1  0.50406003  0.50180931  0.50105914  1
  Cr  Cr40  1  0.33627096  0.33453842  0.66985054  1
  Ni  Ni41  1  0.50361062  0.49977687  0.83784745  1
  Fe  Fe42  1  0.50312974  0.83699212  0.50112577  1
  Cr  Cr43  1  0.33417123  0.66974521  0.66854532  1
  Cr  Cr44  1  0.50275407  0.83678302  0.83532011  1
  Fe  Fe45  1  0.83601369  0.16953768  0.50290114  1
  Ni  Ni46  1  0.67019079  0.00431085  0.66884529  1
  Ni  Ni47  1  0.83490669  0.16906104  0.83402022  1
  Ni  Ni48  1  0.83658437  0.50377342  0.50362804  1
  Ni  Ni49  1  0.67038394  0.33488877  0.67080720  1
  Fe  Fe50  1  0.83498814  0.50369433  0.83535811  1
  Ni  Ni51  1  0.83543024  0.83454481  0.50264410  1
  Fe  Fe52  1  0.67185888  0.66932598  0.66862831  1
  Ni  Ni53  1  0.83869418  0.83519357  0.83539546  1
" 