5283,Ni62Fe28Cr8_1,-237.868265012196, 205.362667711776,Ni62Fe28Cr8,"# generated using pymatgen
 data_Cr2Fe5Ni11
_symmetry_space_group_name_H-M   'P 1'
_cell_length_a   7.42812375
_cell_length_b   7.42812375
_cell_length_c   10.50495335
_cell_angle_alpha   90.00000000
_cell_angle_beta   90.00000000
_cell_angle_gamma   90.00000000
_symmetry_Int_Tables_number   1
_chemical_formula_structural   Cr2Fe5Ni11
_chemical_formula_sum   'Cr6 Fe15 Ni33'
_cell_volume   579.63204605
_cell_formula_units_Z   3
loop_
 _symmetry_equiv_pos_site_id
 _symmetry_equiv_pos_as_xyz
  1  'x, y, z'
loop_
 _atom_site_type_symbol
 _atom_site_label
 _atom_site_symmetry_multiplicity
 _atom_site_fract_x
 _atom_site_fract_y
 _atom_site_fract_z
 _atom_site_occupancy
  Ni  Ni0  1  0.99933371  0.00569827  1.00091456  1
  Ni  Ni1  1  0.16833278  0.17125355  0.17020909  1
  Ni  Ni2  1  1.00069563  0.00494785  0.33663517  1
  Ni  Ni3  1  0.00419218  0.33405645  1.00166625  1
  Fe  Fe4  1  0.17166955  0.50017451  0.17000064  1
  Fe  Fe5  1  0.00322327  0.33399971  0.33682786  1
  Cr  Cr6  1  0.00279820  0.66978904  1.00249221  1
  Cr  Cr7  1  0.16897308  0.83644353  0.17091159  1
  Fe  Fe8  1  0.00343204  0.67176342  0.33882164  1
  Cr  Cr9  1  0.33561360  0.00620866  1.00051190  1
  Ni  Ni10  1  0.50328873  0.17155222  0.17059809  1
  Ni  Ni11  1  0.33590732  0.00457054  0.33774818  1
  Ni  Ni12  1  0.33531294  0.33718440  0.00372136  1
  Ni  Ni13  1  0.50079442  0.50032694  0.16880856  1
  Fe  Fe14  1  0.33655174  0.33457243  0.33650664  1
  Ni  Ni15  1  0.33705420  0.66460793  0.99998862  1
  Cr  Cr16  1  0.50293017  0.83664220  0.16850499  1
  Ni  Ni17  1  0.33549228  0.66617876  0.33832619  1
  Ni  Ni18  1  0.67200558  0.00382980  0.00300426  1
  Ni  Ni19  1  0.83639904  0.16886875  0.16907341  1
  Ni  Ni20  1  0.67077828  0.00446882  0.33621070  1
  Fe  Fe21  1  0.66854640  0.33386045  1.00185840  1
  Cr  Cr22  1  0.83645218  0.50086615  0.16970787  1
  Fe  Fe23  1  0.66810606  0.33350002  0.33693780  1
  Fe  Fe24  1  0.66834539  0.66904911  1.00040398  1
  Ni  Ni25  1  0.83637781  0.83867751  0.16948197  1
  Cr  Cr26  1  0.66999132  0.66979876  0.33753130  1
  Fe  Fe27  1  0.16846926  0.16915098  0.50302017  1
  Fe  Fe28  1  1.00152187  1.00195871  0.66992601  1
  Ni  Ni29  1  0.16911050  0.17107663  0.83467544  1
  Ni  Ni30  1  0.16888135  0.50238853  0.50150924  1
  Fe  Fe31  1  1.00260771  0.33593204  0.66984751  1
  Ni  Ni32  1  0.16906252  0.50154933  0.83627263  1
  Fe  Fe33  1  0.16871581  0.83710440  0.50290110  1
  Ni  Ni34  1  1.00131997  0.66776112  0.66800862  1
  Ni  Ni35  1  0.16989471  0.83518424  0.83314670  1
  Ni  Ni36  1  0.50257897  0.16775195  0.50188553  1
  Ni  Ni37  1  0.33721038  0.00541960  0.66894732  1
  Ni  Ni38  1  0.50332781  0.16934733  0.83566637  1
  Fe  Fe39  1  0.50338466  0.50180939  0.50361004  1
  Ni  Ni40  1  0.33497881  0.33560036  0.66876352  1
  Fe  Fe41  1  0.50266448  0.50137687  0.83585484  1
  Ni  Ni42  1  0.50119580  0.83777474  0.50321609  1
  Fe  Fe43  1  0.33632557  0.66966239  0.66901451  1
  Ni  Ni44  1  0.50309219  0.83615781  0.83535356  1
  Ni  Ni45  1  0.83486330  0.16977284  0.50276385  1
  Ni  Ni46  1  0.66904126  1.00190522  0.66850741  1
  Ni  Ni47  1  0.83525877  0.17014848  0.83596222  1
  Ni  Ni48  1  0.83856772  0.50093839  0.50361429  1
  Fe  Fe49  1  0.66868865  0.33489069  0.66874895  1
  Ni  Ni50  1  0.83657706  0.50121392  0.83451823  1
  Ni  Ni51  1  0.83557955  0.83681288  0.50281336  1
  Ni  Ni52  1  0.67120682  0.66964300  0.66972762  1
  Ni  Ni53  1  0.83475840  0.83626017  0.83580339  1
" 