2525,Ni62Fe4Cr32_10,-225.731880989216, 151.377544109744,Ni62Fe4Cr32,"# generated using pymatgen
 data_Cr19Fe2Ni33
_symmetry_space_group_name_H-M   'P 1'
_cell_length_a   7.49537872
_cell_length_b   7.49537872
_cell_length_c   10.60006624
_cell_angle_alpha   90.00000000
_cell_angle_beta   90.00000000
_cell_angle_gamma   90.00000000
_symmetry_Int_Tables_number   1
_chemical_formula_structural   Cr19Fe2Ni33
_chemical_formula_sum   'Cr19 Fe2 Ni33'
_cell_volume   595.51916500
_cell_formula_units_Z   1
loop_
 _symmetry_equiv_pos_site_id
 _symmetry_equiv_pos_as_xyz
  1  'x, y, z'
loop_
 _atom_site_type_symbol
 _atom_site_label
 _atom_site_symmetry_multiplicity
 _atom_site_fract_x
 _atom_site_fract_y
 _atom_site_fract_z
 _atom_site_occupancy
  Ni  Ni0  1  -0.00133441  -0.00187506  0.99590065  1
  Cr  Cr1  1  0.16622051  0.16512257  0.16438339  1
  Cr  Cr2  1  -0.00010381  0.99683197  0.33521563  1
  Ni  Ni3  1  0.00123442  0.33174776  -0.00146728  1
  Fe  Fe4  1  0.16745787  0.49797784  0.16249126  1
  Cr  Cr5  1  0.99720364  0.33296536  0.33201600  1
  Cr  Cr6  1  -0.00011112  0.66458890  -0.00146986  1
  Ni  Ni7  1  0.16772731  0.83087309  0.16445027  1
  Cr  Cr8  1  0.99648661  0.66449314  0.33198397  1
  Cr  Cr9  1  0.33280341  0.99673002  0.99697205  1
  Ni  Ni10  1  0.49645667  0.16476737  0.16613263  1
  Ni  Ni11  1  0.33256055  -0.00107275  0.33045186  1
  Ni  Ni12  1  0.32983214  0.33279119  0.99778776  1
  Ni  Ni13  1  0.49752174  0.49933151  0.16429655  1
  Ni  Ni14  1  0.33223106  0.32895096  0.33001301  1
  Ni  Ni15  1  0.33199542  0.66424079  -0.00095019  1
  Ni  Ni16  1  0.49800976  0.83020334  0.16497269  1
  Cr  Cr17  1  0.33145962  0.66690061  0.32851778  1
  Ni  Ni18  1  0.66340350  0.99602624  0.99714339  1
  Cr  Cr19  1  0.83124214  0.16385641  0.16221208  1
  Ni  Ni20  1  0.66197795  0.99700946  0.33133815  1
  Cr  Cr21  1  0.66348205  0.33112038  0.00011612  1
  Ni  Ni22  1  0.82953590  0.49928495  0.16452777  1
  Cr  Cr23  1  0.66489098  0.33245696  0.33079507  1
  Ni  Ni24  1  0.66235122  0.66699630  -0.00051864  1
  Cr  Cr25  1  0.82914737  0.83137476  0.16340483  1
  Ni  Ni26  1  0.66527253  0.66519150  0.33055887  1
  Ni  Ni27  1  0.16291631  0.16398337  0.49844249  1
  Ni  Ni28  1  0.99780745  0.99758507  0.66360855  1
  Ni  Ni29  1  0.16450005  0.16655008  0.83151012  1
  Cr  Cr30  1  0.16510752  0.49714926  0.50058466  1
  Ni  Ni31  1  0.99781795  0.33110970  0.66363880  1
  Ni  Ni32  1  0.16630337  0.49708343  0.83157639  1
  Ni  Ni33  1  0.16219903  0.83348314  0.49937558  1
  Ni  Ni34  1  -0.00155117  0.66566840  0.66417227  1
  Ni  Ni35  1  0.16397855  0.83068876  0.83048872  1
  Cr  Cr36  1  0.49753170  0.16498616  0.49709158  1
  Cr  Cr37  1  0.32994844  0.99713462  0.66629853  1
  Ni  Ni38  1  0.49690954  0.16384577  0.83104326  1
  Cr  Cr39  1  0.49919215  0.49883840  0.50047778  1
  Fe  Fe40  1  0.32964720  0.33112953  0.66668720  1
  Cr  Cr41  1  0.49542959  0.49968797  0.82922339  1
  Cr  Cr42  1  0.49984226  0.83057129  0.49704391  1
  Ni  Ni43  1  0.32932679  0.66549876  0.66694006  1
  Ni  Ni44  1  0.49981924  0.83100506  0.83211374  1
  Ni  Ni45  1  0.83309718  0.16371578  0.50041724  1
  Ni  Ni46  1  0.66686025  0.99805453  0.66580775  1
  Cr  Cr47  1  0.83300646  0.16161555  0.83218259  1
  Ni  Ni48  1  0.83093556  0.49906541  0.50016389  1
  Ni  Ni49  1  0.66670086  0.33079506  0.66317013  1
  Cr  Cr50  1  0.83279936  0.49990912  0.82993920  1
  Ni  Ni51  1  0.83178822  0.83156066  0.49969975  1
  Ni  Ni52  1  0.66654471  0.66549466  0.66427126  1
  Ni  Ni53  1  0.83053149  0.83285003  0.83070043  1
" 