5582,Ni62Fe28Cr8_18,-238.14096300611, 205.539851443787,Ni62Fe28Cr8,"# generated using pymatgen
 data_Cr2Fe5Ni11
_symmetry_space_group_name_H-M   'P 1'
_cell_length_a   7.42549492
_cell_length_b   7.42549492
_cell_length_c   10.50123562
_cell_angle_alpha   90.00000000
_cell_angle_beta   90.00000000
_cell_angle_gamma   90.00000000
_symmetry_Int_Tables_number   1
_chemical_formula_structural   Cr2Fe5Ni11
_chemical_formula_sum   'Cr6 Fe15 Ni33'
_cell_volume   579.01686460
_cell_formula_units_Z   3
loop_
 _symmetry_equiv_pos_site_id
 _symmetry_equiv_pos_as_xyz
  1  'x, y, z'
loop_
 _atom_site_type_symbol
 _atom_site_label
 _atom_site_symmetry_multiplicity
 _atom_site_fract_x
 _atom_site_fract_y
 _atom_site_fract_z
 _atom_site_occupancy
  Ni  Ni0  1  0.00651045  0.00411976  0.00295357  1
  Ni  Ni1  1  0.16952537  0.16976637  0.17018725  1
  Fe  Fe2  1  0.00354137  0.00502997  0.33567041  1
  Fe  Fe3  1  0.00391745  0.33772881  0.00345783  1
  Ni  Ni4  1  0.16980321  0.50239006  0.16890328  1
  Ni  Ni5  1  0.00399021  0.33695961  0.33435608  1
  Ni  Ni6  1  0.00451211  0.66842508  0.00334788  1
  Ni  Ni7  1  0.17131471  0.83643237  0.16985550  1
  Fe  Fe8  1  0.00367438  0.66730820  0.33644511  1
  Ni  Ni9  1  0.33351062  0.00426485  0.00428242  1
  Ni  Ni10  1  0.50049773  0.16978443  0.16826421  1
  Ni  Ni11  1  0.33396146  1.00202827  0.33569718  1
  Ni  Ni12  1  0.33724069  0.33546753  0.00395165  1
  Ni  Ni13  1  0.50153500  0.50358877  0.16878168  1
  Fe  Fe14  1  0.33569893  0.33694371  0.33567893  1
  Ni  Ni15  1  0.33425327  0.66883522  0.00367201  1
  Ni  Ni16  1  0.49965393  0.83510540  0.16711419  1
  Fe  Fe17  1  0.33717638  0.66893453  0.33604938  1
  Fe  Fe18  1  0.66767530  0.00506301  0.00326424  1
  Ni  Ni19  1  0.83826594  0.17132539  0.16588270  1
  Cr  Cr20  1  0.66640518  1.00220608  0.33477260  1
  Ni  Ni21  1  0.66949307  0.33721386  0.00284388  1
  Ni  Ni22  1  0.83742394  0.50174038  0.16907816  1
  Cr  Cr23  1  0.67160842  0.33892163  0.33635604  1
  Ni  Ni24  1  0.66946456  0.66413719  0.00476892  1
  Cr  Cr25  1  0.83685809  0.83512534  0.16813127  1
  Ni  Ni26  1  0.66894975  0.66842357  0.33674159  1
  Fe  Fe27  1  0.16888256  0.17296774  0.50091470  1
  Fe  Fe28  1  0.00326080  1.00271977  0.66958478  1
  Fe  Fe29  1  0.16998132  0.17144745  0.83793330  1
  Ni  Ni30  1  0.16927475  0.50183439  0.50350853  1
  Ni  Ni31  1  0.00305822  0.33701809  0.67106191  1
  Fe  Fe32  1  0.17095586  0.50374347  0.83585041  1
  Fe  Fe33  1  0.16882964  0.83354924  0.50220191  1
  Ni  Ni34  1  0.00332938  0.66680858  0.66826413  1
  Ni  Ni35  1  0.16805587  0.83565697  0.83642059  1
  Fe  Fe36  1  0.50255903  0.17190217  0.50337421  1
  Cr  Cr37  1  0.33612248  0.00326428  0.66962605  1
  Ni  Ni38  1  0.50261368  0.17270377  0.83579295  1
  Ni  Ni39  1  0.50118002  0.50498860  0.50495965  1
  Ni  Ni40  1  0.33425464  0.33710119  0.66836408  1
  Ni  Ni41  1  0.50262059  0.50037230  0.83481452  1
  Ni  Ni42  1  0.50209079  0.83462624  0.50331031  1
  Ni  Ni43  1  0.33473356  0.66779151  0.66934655  1
  Cr  Cr44  1  0.50134516  0.83392789  0.83925133  1
  Ni  Ni45  1  0.83937802  0.16932125  0.50598992  1
  Ni  Ni46  1  0.66992085  0.00417101  0.66789382  1
  Fe  Fe47  1  0.83519479  0.17071749  0.83610809  1
  Ni  Ni48  1  0.83793536  0.50138507  0.50371727  1
  Fe  Fe49  1  0.66929039  0.33776688  0.66972139  1
  Ni  Ni50  1  0.83645608  0.50128835  0.83578460  1
  Fe  Fe51  1  0.83560400  0.83349688  0.50385834  1
  Ni  Ni52  1  0.67018097  0.66840264  0.66727838  1
  Cr  Cr53  1  0.83752030  0.83484804  0.83565096  1
" 