3921,Ni62Fe22Cr15_17,-235.333441522225, 196.345410405828,Ni62Fe22Cr15,"# generated using pymatgen
 data_Cr3Fe4Ni11
_symmetry_space_group_name_H-M   'P 1'
_cell_length_a   7.44274339
_cell_length_b   7.44274339
_cell_length_c   10.52562864
_cell_angle_alpha   90.00000000
_cell_angle_beta   90.00000000
_cell_angle_gamma   90.00000000
_symmetry_Int_Tables_number   1
_chemical_formula_structural   Cr3Fe4Ni11
_chemical_formula_sum   'Cr9 Fe12 Ni33'
_cell_volume   583.06118980
_cell_formula_units_Z   3
loop_
 _symmetry_equiv_pos_site_id
 _symmetry_equiv_pos_as_xyz
  1  'x, y, z'
loop_
 _atom_site_type_symbol
 _atom_site_label
 _atom_site_symmetry_multiplicity
 _atom_site_fract_x
 _atom_site_fract_y
 _atom_site_fract_z
 _atom_site_occupancy
  Ni  Ni0  1  1.00130234  1.00037238  0.00192567  1
  Cr  Cr1  1  0.16875037  0.16967410  0.16637669  1
  Cr  Cr2  1  1.00007435  1.00065518  0.33465743  1
  Ni  Ni3  1  1.00136204  0.33548567  0.00172645  1
  Ni  Ni4  1  0.16573726  0.50239997  0.17050465  1
  Ni  Ni5  1  1.00040985  0.33746560  0.33493853  1
  Ni  Ni6  1  1.00107501  0.66904172  0.00220493  1
  Ni  Ni7  1  0.16782997  0.83302012  0.16834690  1
  Fe  Fe8  1  0.00234650  0.66610510  0.33503776  1
  Fe  Fe9  1  0.33545999  0.00288133  1.00022973  1
  Ni  Ni10  1  0.50399479  0.16820731  0.16900161  1
  Ni  Ni11  1  0.33589847  1.00059146  0.33471840  1
  Fe  Fe12  1  0.33565108  0.33437813  1.00079643  1
  Fe  Fe13  1  0.50262986  0.49906280  0.17000779  1
  Ni  Ni14  1  0.33659102  0.33773516  0.33456636  1
  Cr  Cr15  1  0.33450881  0.66729381  1.00111707  1
  Cr  Cr16  1  0.50232254  0.83666157  0.16940195  1
  Ni  Ni17  1  0.33338128  0.66657466  0.33515270  1
  Ni  Ni18  1  0.66925404  0.00228137  0.00208549  1
  Ni  Ni19  1  0.83222933  0.17029483  0.16792953  1
  Ni  Ni20  1  0.66846190  0.00348683  0.33489609  1
  Ni  Ni21  1  0.66785822  0.33489305  0.00323821  1
  Ni  Ni22  1  0.83602755  0.50071671  0.16737386  1
  Ni  Ni23  1  0.66789594  0.33495093  0.33473979  1
  Ni  Ni24  1  0.67006505  0.66771925  1.00029458  1
  Fe  Fe25  1  0.83576029  0.83452605  0.16646835  1
  Ni  Ni26  1  0.66820448  0.66646082  0.33457823  1
  Cr  Cr27  1  0.16986358  0.17043163  0.50243001  1
  Cr  Cr28  1  0.00167265  0.99999878  0.66806779  1
  Fe  Fe29  1  0.17064546  0.16879338  0.83526952  1
  Ni  Ni30  1  0.16622276  0.50187564  0.50030422  1
  Ni  Ni31  1  0.00183060  0.33788795  0.66823103  1
  Ni  Ni32  1  0.16598328  0.49978677  0.83409189  1
  Ni  Ni33  1  0.16857471  0.83292538  0.50110773  1
  Ni  Ni34  1  1.00067104  0.66699004  0.66792098  1
  Fe  Fe35  1  0.16751181  0.83588163  0.83568232  1
  Fe  Fe36  1  0.50235266  0.17050121  0.50168249  1
  Ni  Ni37  1  0.33631007  0.00303186  0.67035366  1
  Ni  Ni38  1  0.50009238  0.16641034  0.83408507  1
  Ni  Ni39  1  0.50320988  0.50015354  0.50077681  1
  Ni  Ni40  1  0.33585356  0.33448239  0.66938448  1
  Fe  Fe41  1  0.50380419  0.50044145  0.83423541  1
  Cr  Cr42  1  0.50202462  0.83621324  0.50130602  1
  Cr  Cr43  1  0.33424672  0.66732862  0.66857100  1
  Ni  Ni44  1  0.50397725  0.83762759  0.83435686  1
  Fe  Fe45  1  0.83229338  0.17095857  0.50126962  1
  Ni  Ni46  1  0.66682053  0.00187795  0.66791617  1
  Cr  Cr47  1  0.83418196  0.16941088  0.83549088  1
  Ni  Ni48  1  0.83546445  0.50105719  0.50306986  1
  Ni  Ni49  1  0.66721132  0.33557221  0.66692114  1
  Fe  Fe50  1  0.83455446  0.50358259  0.83495530  1
  Fe  Fe51  1  0.83484086  0.83202891  0.50254252  1
  Ni  Ni52  1  0.67022759  0.66745081  0.67002756  1
  Ni  Ni53  1  0.83264417  0.83253182  0.83580276  1
" 