7828,Ni62Fe19Cr18_3,-233.345962496808, 185.318593994595,Ni62Fe19Cr18,"# generated using pymatgen
 data_Cr11Fe10Ni33
_symmetry_space_group_name_H-M   'P 1'
_cell_length_a   7.44960864
_cell_length_b   7.44960864
_cell_length_c   10.53533757
_cell_angle_alpha   90.00000000
_cell_angle_beta   90.00000000
_cell_angle_gamma   90.00000000
_symmetry_Int_Tables_number   1
_chemical_formula_structural   Cr11Fe10Ni33
_chemical_formula_sum   'Cr11 Fe10 Ni33'
_cell_volume   584.67614113
_cell_formula_units_Z   1
loop_
 _symmetry_equiv_pos_site_id
 _symmetry_equiv_pos_as_xyz
  1  'x, y, z'
loop_
 _atom_site_type_symbol
 _atom_site_label
 _atom_site_symmetry_multiplicity
 _atom_site_fract_x
 _atom_site_fract_y
 _atom_site_fract_z
 _atom_site_occupancy
  Fe  Fe0  1  0.99839718  0.99969837  0.00201446  1
  Ni  Ni1  1  0.16575252  0.16695492  0.16961209  1
  Ni  Ni2  1  0.99895250  1.00083060  0.33331034  1
  Cr  Cr3  1  1.00107096  0.33436661  1.00032482  1
  Ni  Ni4  1  0.16865176  0.50301028  0.16928592  1
  Ni  Ni5  1  0.00211364  0.33388327  0.33531570  1
  Ni  Ni6  1  0.00118423  0.66919259  1.00003948  1
  Ni  Ni7  1  0.16600747  0.83354511  0.16839718  1
  Ni  Ni8  1  0.00301548  0.66879492  0.33601995  1
  Cr  Cr9  1  0.33599908  1.00002206  0.00135709  1
  Ni  Ni10  1  0.50326147  0.16709224  0.16753970  1
  Cr  Cr11  1  0.33520551  0.99871596  0.33477205  1
  Cr  Cr12  1  0.33540421  0.33670623  0.00174516  1
  Ni  Ni13  1  0.50022708  0.50274249  0.16721089  1
  Cr  Cr14  1  0.33265833  0.33726298  0.33293748  1
  Ni  Ni15  1  0.33502368  0.66730092  0.00268607  1
  Ni  Ni16  1  0.50274211  0.83367836  0.16838971  1
  Ni  Ni17  1  0.33343375  0.66791685  0.33344336  1
  Ni  Ni18  1  0.66938739  1.00072635  0.00123382  1
  Fe  Fe19  1  0.83418051  0.16448174  0.16788234  1
  Ni  Ni20  1  0.67004526  0.99962940  0.33404686  1
  Ni  Ni21  1  0.66748798  0.33306260  0.99937746  1
  Cr  Cr22  1  0.83429686  0.50247791  0.16821404  1
  Cr  Cr23  1  0.66811954  0.33344227  0.33474009  1
  Ni  Ni24  1  0.66730006  0.66972080  1.00030997  1
  Ni  Ni25  1  0.83476160  0.83658409  0.16842036  1
  Fe  Fe26  1  0.66709785  0.67062979  0.33504710  1
  Fe  Fe27  1  0.16843230  0.16803724  0.50096477  1
  Cr  Cr28  1  0.00147757  1.00048735  0.66841954  1
  Ni  Ni29  1  0.16823755  0.16877092  0.83263597  1
  Ni  Ni30  1  0.16762533  0.50266993  0.50060339  1
  Cr  Cr31  1  0.00170629  0.33598165  0.66844679  1
  Ni  Ni32  1  0.16810605  0.50138553  0.83362268  1
  Ni  Ni33  1  0.16775661  0.83310864  0.50085322  1
  Fe  Fe34  1  1.00056702  0.66612570  0.66742923  1
  Cr  Cr35  1  0.16786248  0.83310275  0.83461381  1
  Fe  Fe36  1  0.50057871  0.16810488  0.50274902  1
  Fe  Fe37  1  0.33615793  0.00183361  0.66740430  1
  Ni  Ni38  1  0.50269749  0.16923147  0.83266121  1
  Ni  Ni39  1  0.50132504  0.50247414  0.50269211  1
  Ni  Ni40  1  0.33557069  0.33554726  0.66833112  1
  Ni  Ni41  1  0.50282974  0.50092918  0.83360523  1
  Ni  Ni42  1  0.50099875  0.83310600  0.50086176  1
  Ni  Ni43  1  0.33584668  0.66635237  0.66738440  1
  Ni  Ni44  1  0.50325772  0.83335095  0.83426115  1
  Fe  Fe45  1  0.83449870  0.16785244  0.49968985  1
  Cr  Cr46  1  0.66660233  1.00027637  0.66863035  1
  Ni  Ni47  1  0.83257856  0.16834226  0.83701064  1
  Fe  Fe48  1  0.83450009  0.50328916  0.50149580  1
  Ni  Ni49  1  0.66568356  0.33615671  0.66881898  1
  Ni  Ni50  1  0.83257293  0.50194384  0.83330784  1
  Fe  Fe51  1  0.83456326  0.83236703  0.49928840  1
  Ni  Ni52  1  0.66635692  0.66668866  0.66791589  1
  Ni  Ni53  1  0.83303665  0.83321918  0.83583400  1
" 