6352,Ni62Fe4Cr32_14,-225.757448383595, 149.53826193974,Ni62Fe4Cr32,"# generated using pymatgen
 data_Cr19Fe2Ni33
_symmetry_space_group_name_H-M   'P 1'
_cell_length_a   7.48766054
_cell_length_b   7.48766054
_cell_length_c   10.58915109
_cell_angle_alpha   90.00000000
_cell_angle_beta   90.00000000
_cell_angle_gamma   90.00000000
_symmetry_Int_Tables_number   1
_chemical_formula_structural   Cr19Fe2Ni33
_chemical_formula_sum   'Cr19 Fe2 Ni33'
_cell_volume   593.68139493
_cell_formula_units_Z   1
loop_
 _symmetry_equiv_pos_site_id
 _symmetry_equiv_pos_as_xyz
  1  'x, y, z'
loop_
 _atom_site_type_symbol
 _atom_site_label
 _atom_site_symmetry_multiplicity
 _atom_site_fract_x
 _atom_site_fract_y
 _atom_site_fract_z
 _atom_site_occupancy
  Cr  Cr0  1  0.99804521  0.99616056  -0.00045007  1
  Ni  Ni1  1  0.16162457  0.16583123  0.16773432  1
  Ni  Ni2  1  0.99725457  0.00186892  0.32931950  1
  Cr  Cr3  1  0.99654958  0.33209203  -0.00007346  1
  Ni  Ni4  1  0.16501491  0.50035132  0.16578057  1
  Ni  Ni5  1  -0.00109719  0.33002012  0.33237888  1
  Ni  Ni6  1  0.99676911  0.66661669  -0.00131205  1
  Ni  Ni7  1  0.16368255  0.82967231  0.16502455  1
  Cr  Cr8  1  0.99792799  0.66464853  0.33028705  1
  Cr  Cr9  1  0.32959443  -0.00091452  0.99706699  1
  Cr  Cr10  1  0.50172227  0.16548823  0.16352107  1
  Cr  Cr11  1  0.33015881  0.99821404  0.33302873  1
  Cr  Cr12  1  0.33429815  0.33238356  -0.00115534  1
  Ni  Ni13  1  0.49901636  0.50143572  0.16469638  1
  Cr  Cr14  1  0.32992971  0.33390543  0.33259960  1
  Fe  Fe15  1  0.33177537  0.66442344  -0.00002942  1
  Cr  Cr16  1  0.50052002  0.82970322  0.16615598  1
  Ni  Ni17  1  0.33381366  0.66382541  0.33122602  1
  Ni  Ni18  1  0.66737666  -0.00111920  0.99751466  1
  Ni  Ni19  1  0.83304648  0.16459385  0.16675253  1
  Ni  Ni20  1  0.66787484  0.99739414  0.33304013  1
  Ni  Ni21  1  0.66491108  0.33405350  0.99731940  1
  Ni  Ni22  1  0.83182716  0.49935088  0.16423148  1
  Cr  Cr23  1  0.66724450  0.33351604  0.33248723  1
  Ni  Ni24  1  0.66746258  0.66295601  -0.00118433  1
  Ni  Ni25  1  0.83196458  0.83193487  0.16529919  1
  Ni  Ni26  1  0.66349668  0.66545624  0.33206192  1
  Ni  Ni27  1  0.16441124  0.16825518  0.49864889  1
  Cr  Cr28  1  -0.00087450  -0.00072451  0.66780807  1
  Ni  Ni29  1  0.16572964  0.16383013  0.82952358  1
  Ni  Ni30  1  0.16311322  0.49651772  0.49859378  1
  Ni  Ni31  1  0.99823620  0.33267802  0.66381284  1
  Cr  Cr32  1  0.16278827  0.50008675  0.83130735  1
  Cr  Cr33  1  0.16741394  0.83100791  0.49931352  1
  Ni  Ni34  1  0.99786866  0.66306418  0.66693306  1
  Ni  Ni35  1  0.16384910  0.83172294  0.83182901  1
  Ni  Ni36  1  0.49950060  0.16161282  0.50036102  1
  Ni  Ni37  1  0.33300547  0.00057282  0.66546380  1
  Ni  Ni38  1  0.50055212  0.16472188  0.83168217  1
  Fe  Fe39  1  0.49857866  0.49975087  0.49676063  1
  Cr  Cr40  1  0.33190795  0.32907599  0.66442388  1
  Ni  Ni41  1  0.50117331  0.49749657  0.83470779  1
  Ni  Ni42  1  0.49940072  0.83370084  0.49755499  1
  Cr  Cr43  1  0.33150105  0.66629327  0.66419279  1
  Cr  Cr44  1  0.49944685  0.83374386  0.83234181  1
  Ni  Ni45  1  0.83195238  0.16704626  0.49739948  1
  Ni  Ni46  1  0.66336830  0.00020620  0.66528841  1
  Ni  Ni47  1  0.82958389  0.16545488  0.83177033  1
  Ni  Ni48  1  0.83464597  0.49647855  0.49920902  1
  Cr  Cr49  1  0.66637476  0.33138538  0.66609589  1
  Ni  Ni50  1  0.83154568  0.49934555  0.83241538  1
  Cr  Cr51  1  0.82874126  0.83263415  0.49776872  1
  Cr  Cr52  1  0.66761754  0.66479954  0.66433737  1
  Ni  Ni53  1  0.83243423  0.83105085  0.83280610  1
" 