7206,Ni62Fe4Cr32_13,-225.918290800705, 152.074317491378,Ni62Fe4Cr32,"# generated using pymatgen
 data_Cr19Fe2Ni33
_symmetry_space_group_name_H-M   'P 1'
_cell_length_a   7.48732305
_cell_length_b   7.48732305
_cell_length_c   10.58867381
_cell_angle_alpha   90.00000000
_cell_angle_beta   90.00000000
_cell_angle_gamma   90.00000000
_symmetry_Int_Tables_number   1
_chemical_formula_structural   Cr19Fe2Ni33
_chemical_formula_sum   'Cr19 Fe2 Ni33'
_cell_volume   593.60112277
_cell_formula_units_Z   1
loop_
 _symmetry_equiv_pos_site_id
 _symmetry_equiv_pos_as_xyz
  1  'x, y, z'
loop_
 _atom_site_type_symbol
 _atom_site_label
 _atom_site_symmetry_multiplicity
 _atom_site_fract_x
 _atom_site_fract_y
 _atom_site_fract_z
 _atom_site_occupancy
  Ni  Ni0  1  0.00123595  0.00105471  0.99761553  1
  Cr  Cr1  1  0.16440043  0.16757281  0.16521505  1
  Ni  Ni2  1  0.99841622  0.00105418  0.33334830  1
  Ni  Ni3  1  0.99734868  0.32979283  0.99739144  1
  Cr  Cr4  1  0.16563755  0.49649180  0.16490945  1
  Ni  Ni5  1  0.99666628  0.32892691  0.33180447  1
  Cr  Cr6  1  -0.00024173  0.66376886  0.99693437  1
  Ni  Ni7  1  0.16701665  0.83305735  0.16488585  1
  Cr  Cr8  1  -0.00030497  0.66599180  0.33190146  1
  Ni  Ni9  1  0.33007566  0.99739728  -0.00077048  1
  Ni  Ni10  1  0.49892961  0.16321242  0.16454381  1
  Cr  Cr11  1  0.33090001  0.99689369  0.33248125  1
  Ni  Ni12  1  0.33151493  0.33104895  0.99632410  1
  Cr  Cr13  1  0.49608593  0.49917926  0.16558686  1
  Ni  Ni14  1  0.33221826  0.33165336  0.33299073  1
  Ni  Ni15  1  0.33300424  0.66753283  0.99815502  1
  Ni  Ni16  1  0.49889420  0.83218259  0.16455700  1
  Ni  Ni17  1  0.33374604  0.66653868  0.33138328  1
  Fe  Fe18  1  0.66489398  -0.00032943  0.00014198  1
  Ni  Ni19  1  0.83297166  0.16455941  0.16524762  1
  Ni  Ni20  1  0.66659227  -0.00079199  0.32903954  1
  Cr  Cr21  1  0.66795314  0.33249745  0.99796817  1
  Ni  Ni22  1  0.83186395  0.49728393  0.16623196  1
  Cr  Cr23  1  0.66699029  0.33110857  0.33269460  1
  Ni  Ni24  1  0.66368723  0.66335372  -0.00133557  1
  Cr  Cr25  1  0.83090505  0.83333422  0.16470304  1
  Ni  Ni26  1  0.66364302  0.66445870  0.33211179  1
  Ni  Ni27  1  0.16270516  0.16531160  0.49900636  1
  Ni  Ni28  1  0.00250830  -0.00074062  0.66517251  1
  Ni  Ni29  1  0.16433413  0.16533288  0.83213234  1
  Cr  Cr30  1  0.16764550  0.49592725  0.49627797  1
  Cr  Cr31  1  0.99703439  0.33114924  0.66676805  1
  Ni  Ni32  1  0.16631328  0.49692679  0.83374698  1
  Ni  Ni33  1  0.16320279  0.83352529  0.49975124  1
  Ni  Ni34  1  0.99837520  0.66596142  0.66660938  1
  Ni  Ni35  1  0.16457348  0.83384327  0.83153263  1
  Cr  Cr36  1  0.49679784  0.16846440  0.50019698  1
  Ni  Ni37  1  0.32597991  0.00017469  0.66531251  1
  Cr  Cr38  1  0.49607320  0.16699782  0.83155358  1
  Ni  Ni39  1  0.49926921  0.49853217  0.49917334  1
  Ni  Ni40  1  0.33237421  0.33156841  0.66638395  1
  Ni  Ni41  1  0.49813046  0.49846375  0.83121510  1
  Cr  Cr42  1  0.50037257  0.82954455  0.49848714  1
  Cr  Cr43  1  0.32992424  0.66615179  0.66642454  1
  Cr  Cr44  1  0.49934378  0.83116066  0.83339275  1
  Ni  Ni45  1  0.83460667  0.16470883  0.49754963  1
  Cr  Cr46  1  0.66645207  0.00274203  0.66583192  1
  Ni  Ni47  1  0.83500813  0.16580819  0.83288423  1
  Fe  Fe48  1  0.83155245  0.49799676  0.49928434  1
  Ni  Ni49  1  0.66580646  0.33544696  0.66520372  1
  Ni  Ni50  1  0.83142862  0.49845759  0.83046121  1
  Cr  Cr51  1  0.83271204  0.83262874  0.49992293  1
  Ni  Ni52  1  0.66657695  0.65914199  0.66529954  1
  Cr  Cr53  1  0.83273926  0.83283347  0.83124933  1
" 