4184,Ni62Fe28Cr8_4,-237.644975014045, 208.046470315878,Ni62Fe28Cr8,"# generated using pymatgen
 data_Cr2Fe5Ni11
_symmetry_space_group_name_H-M   'P 1'
_cell_length_a   7.42659492
_cell_length_b   7.42659492
_cell_length_c   10.50279126
_cell_angle_alpha   90.00000000
_cell_angle_beta   90.00000000
_cell_angle_gamma   90.00000000
_symmetry_Int_Tables_number   1
_chemical_formula_structural   Cr2Fe5Ni11
_chemical_formula_sum   'Cr6 Fe15 Ni33'
_cell_volume   579.27422669
_cell_formula_units_Z   3
loop_
 _symmetry_equiv_pos_site_id
 _symmetry_equiv_pos_as_xyz
  1  'x, y, z'
loop_
 _atom_site_type_symbol
 _atom_site_label
 _atom_site_symmetry_multiplicity
 _atom_site_fract_x
 _atom_site_fract_y
 _atom_site_fract_z
 _atom_site_occupancy
  Fe  Fe0  1  0.00274101  0.00538117  1.00114988  1
  Ni  Ni1  1  0.16890652  0.17070566  0.16844023  1
  Fe  Fe2  1  1.00225565  0.00389501  0.33809754  1
  Ni  Ni3  1  0.00304804  0.33640584  0.00407272  1
  Ni  Ni4  1  0.16980552  0.50228570  0.16847703  1
  Fe  Fe5  1  1.00106069  0.33694683  0.33600986  1
  Ni  Ni6  1  1.00210183  0.66743677  1.00102105  1
  Cr  Cr7  1  0.17063940  0.83518768  0.16982604  1
  Ni  Ni8  1  1.00251008  0.66906929  0.33797103  1
  Ni  Ni9  1  0.33688421  0.00449640  0.00294345  1
  Ni  Ni10  1  0.50346251  0.16964935  0.16846377  1
  Fe  Fe11  1  0.33649909  1.00267149  0.33570837  1
  Ni  Ni12  1  0.33506446  0.33314478  0.00326608  1
  Ni  Ni13  1  0.50277466  0.50355800  0.16908640  1
  Cr  Cr14  1  0.33675393  0.33488266  0.33627179  1
  Fe  Fe15  1  0.33606107  0.66812783  0.00279358  1
  Fe  Fe16  1  0.50215944  0.83604388  0.16912090  1
  Ni  Ni17  1  0.33564164  0.67031750  0.33503884  1
  Fe  Fe18  1  0.66841422  0.00437176  1.00142942  1
  Ni  Ni19  1  0.83579929  0.17076552  0.17000322  1
  Fe  Fe20  1  0.66942246  0.00390323  0.33671733  1
  Ni  Ni21  1  0.67005787  0.33535876  0.00428233  1
  Fe  Fe22  1  0.83594406  0.50049649  0.16917444  1
  Ni  Ni23  1  0.67052456  0.33562584  0.33566124  1
  Ni  Ni24  1  0.67023062  0.66925982  0.00333849  1
  Cr  Cr25  1  0.83464227  0.83585526  0.16955442  1
  Ni  Ni26  1  0.67001582  0.66803358  0.33591635  1
  Ni  Ni27  1  0.16785799  0.16955317  0.50241300  1
  Ni  Ni28  1  1.00163637  0.00290134  0.66938367  1
  Ni  Ni29  1  0.16821897  0.17020712  0.83732763  1
  Fe  Fe30  1  0.16789527  0.50347541  0.50358201  1
  Ni  Ni31  1  1.00211034  0.33596719  0.66905027  1
  Ni  Ni32  1  0.16764515  0.50301851  0.83586583  1
  Fe  Fe33  1  0.16628365  0.83567302  0.50189294  1
  Ni  Ni34  1  1.00261853  0.66930511  0.66918026  1
  Fe  Fe35  1  0.16878956  0.83544010  0.83668656  1
  Ni  Ni36  1  0.50380347  0.17055052  0.50335154  1
  Cr  Cr37  1  0.33558174  0.00402380  0.66978424  1
  Ni  Ni38  1  0.50335378  0.16762295  0.83636291  1
  Fe  Fe39  1  0.50470258  0.50160352  0.50292940  1
  Fe  Fe40  1  0.33506042  0.33650263  0.66907420  1
  Cr  Cr41  1  0.50250993  0.50307804  0.83451274  1
  Cr  Cr42  1  0.50421280  0.83471468  0.50098204  1
  Ni  Ni43  1  0.33439951  0.66863124  0.66948675  1
  Ni  Ni44  1  0.50362281  0.83649983  0.83783875  1
  Ni  Ni45  1  0.83650376  0.16930951  0.50271714  1
  Ni  Ni46  1  0.67107615  0.00415062  0.67041146  1
  Ni  Ni47  1  0.83659618  0.16895759  0.83545828  1
  Ni  Ni48  1  0.83629240  0.50357364  0.50209368  1
  Ni  Ni49  1  0.67040472  0.33491454  0.66821523  1
  Ni  Ni50  1  0.83814772  0.50328610  0.83671907  1
  Ni  Ni51  1  0.83729527  0.83529107  0.50362587  1
  Ni  Ni52  1  0.67114616  0.66910004  0.66890838  1
  Fe  Fe53  1  0.83588296  0.83584174  0.83537942  1
" 