8329,Ni62Fe22Cr15_7,-235.424003967883, 196.871281664778,Ni62Fe22Cr15,"# generated using pymatgen
 data_Cr3Fe4Ni11
_symmetry_space_group_name_H-M   'P 1'
_cell_length_a   7.44264794
_cell_length_b   7.44264794
_cell_length_c   10.52549366
_cell_angle_alpha   90.00000000
_cell_angle_beta   90.00000000
_cell_angle_gamma   90.00000000
_symmetry_Int_Tables_number   1
_chemical_formula_structural   Cr3Fe4Ni11
_chemical_formula_sum   'Cr9 Fe12 Ni33'
_cell_volume   583.03875827
_cell_formula_units_Z   3
loop_
 _symmetry_equiv_pos_site_id
 _symmetry_equiv_pos_as_xyz
  1  'x, y, z'
loop_
 _atom_site_type_symbol
 _atom_site_label
 _atom_site_symmetry_multiplicity
 _atom_site_fract_x
 _atom_site_fract_y
 _atom_site_fract_z
 _atom_site_occupancy
  Ni  Ni0  1  1.00117500  1.00103312  0.00212537  1
  Ni  Ni1  1  0.16789348  0.16730161  0.16713243  1
  Cr  Cr2  1  0.00242810  1.00151231  0.33530100  1
  Cr  Cr3  1  0.00222672  0.33333879  0.00376187  1
  Ni  Ni4  1  0.16820941  0.50357950  0.16845742  1
  Fe  Fe5  1  0.00245087  0.33580551  0.33432650  1
  Fe  Fe6  1  0.00320987  0.66914082  0.00369211  1
  Ni  Ni7  1  0.16954250  0.83403718  0.16770823  1
  Ni  Ni8  1  1.00155258  0.66853361  0.33431065  1
  Ni  Ni9  1  0.33407071  1.00056102  1.00153005  1
  Cr  Cr10  1  0.50178028  0.16807860  0.16850673  1
  Ni  Ni11  1  0.33379246  0.00186253  0.33498662  1
  Ni  Ni12  1  0.33507530  0.33565371  1.00081221  1
  Ni  Ni13  1  0.50241125  0.50352929  0.16799044  1
  Ni  Ni14  1  0.33510864  0.33554662  0.33601058  1
  Ni  Ni15  1  0.33547714  0.66870634  0.00415552  1
  Ni  Ni16  1  0.50047411  0.83348507  0.16739344  1
  Fe  Fe17  1  0.33441186  0.66715401  0.33373557  1
  Fe  Fe18  1  0.66831350  0.00213861  1.00035157  1
  Ni  Ni19  1  0.83484665  0.16924077  0.16811928  1
  Fe  Fe20  1  0.66818445  0.00183603  0.33572075  1
  Ni  Ni21  1  0.66798672  0.33489588  0.00221349  1
  Ni  Ni22  1  0.83429973  0.50187796  0.16874489  1
  Ni  Ni23  1  0.66772875  0.33636402  0.33533992  1
  Fe  Fe24  1  0.66717906  0.66921610  0.00358136  1
  Fe  Fe25  1  0.83494417  0.83366276  0.16835641  1
  Ni  Ni26  1  0.66881673  0.66721825  0.33328826  1
  Ni  Ni27  1  0.16952767  0.16834182  0.50342122  1
  Fe  Fe28  1  1.00027570  0.00321164  0.66729676  1
  Fe  Fe29  1  0.16943108  0.16968264  0.83441789  1
  Ni  Ni30  1  0.16875838  0.50151017  0.50150611  1
  Ni  Ni31  1  0.00284730  0.33333939  0.66784758  1
  Ni  Ni32  1  0.16814762  0.50142432  0.83495330  1
  Ni  Ni33  1  0.16696699  0.83506431  0.50147874  1
  Fe  Fe34  1  1.00108240  0.66844386  0.66680488  1
  Cr  Cr35  1  0.16821421  0.83519072  0.83530002  1
  Ni  Ni36  1  0.50168989  0.16953712  0.50215496  1
  Ni  Ni37  1  0.33482865  0.00435815  0.66839594  1
  Ni  Ni38  1  0.50254690  0.16677818  0.83468667  1
  Ni  Ni39  1  0.50123427  0.49909500  0.50108755  1
  Ni  Ni40  1  0.33359106  0.33300723  0.66809684  1
  Cr  Cr41  1  0.50105692  0.49960699  0.83555741  1
  Cr  Cr42  1  0.50157143  0.83623837  0.50100134  1
  Cr  Cr43  1  0.33507934  0.66716419  0.66606214  1
  Fe  Fe44  1  0.50345941  0.83739435  0.83570262  1
  Ni  Ni45  1  0.83369781  0.16774251  0.50273235  1
  Ni  Ni46  1  0.66975651  0.00189726  0.66891451  1
  Ni  Ni47  1  0.83286436  0.16645717  0.83407050  1
  Cr  Cr48  1  0.83458968  0.50123854  0.50240777  1
  Ni  Ni49  1  0.66847775  0.33295555  0.66736319  1
  Cr  Cr50  1  0.83567285  0.50130911  0.83356176  1
  Ni  Ni51  1  0.83611748  0.83551940  0.50330256  1
  Ni  Ni52  1  0.67009825  0.67006925  0.66857858  1
  Fe  Fe53  1  0.83334170  0.83662844  0.83415981  1
" 