7789,Ni62Fe22Cr15_13,-235.036553304792, 197.689657930711,Ni62Fe22Cr15,"# generated using pymatgen
 data_Cr3Fe4Ni11
_symmetry_space_group_name_H-M   'P 1'
_cell_length_a   7.43561941
_cell_length_b   7.43561941
_cell_length_c   10.51555381
_cell_angle_alpha   90.00000000
_cell_angle_beta   90.00000000
_cell_angle_gamma   90.00000000
_symmetry_Int_Tables_number   1
_chemical_formula_structural   Cr3Fe4Ni11
_chemical_formula_sum   'Cr9 Fe12 Ni33'
_cell_volume   581.38852422
_cell_formula_units_Z   3
loop_
 _symmetry_equiv_pos_site_id
 _symmetry_equiv_pos_as_xyz
  1  'x, y, z'
loop_
 _atom_site_type_symbol
 _atom_site_label
 _atom_site_symmetry_multiplicity
 _atom_site_fract_x
 _atom_site_fract_y
 _atom_site_fract_z
 _atom_site_occupancy
  Ni  Ni0  1  0.00632480  1.00148149  1.00209931  1
  Ni  Ni1  1  0.16957405  0.17055151  0.16846850  1
  Fe  Fe2  1  1.00185254  0.00366514  0.33732960  1
  Fe  Fe3  1  0.00412880  0.33639614  1.00193731  1
  Ni  Ni4  1  0.17132229  0.50131396  0.16840970  1
  Ni  Ni5  1  0.00383097  0.33458645  0.33525671  1
  Fe  Fe6  1  0.00401617  0.66948478  1.00061476  1
  Ni  Ni7  1  0.17073635  0.83432326  0.16761115  1
  Cr  Cr8  1  1.00168926  0.66900873  0.33507761  1
  Ni  Ni9  1  0.33450119  1.00162086  1.00176192  1
  Ni  Ni10  1  0.50150373  0.16891662  0.16701477  1
  Cr  Cr11  1  0.33449894  0.00225613  0.33443530  1
  Fe  Fe12  1  0.33634044  0.33466892  0.00216713  1
  Ni  Ni13  1  0.49936896  0.50209652  0.16949271  1
  Ni  Ni14  1  0.33451420  0.33418977  0.33416253  1
  Ni  Ni15  1  0.33410573  0.67013597  0.00341955  1
  Ni  Ni16  1  0.50133186  0.83496095  0.16945563  1
  Fe  Fe17  1  0.33753486  0.66776599  0.33432383  1
  Ni  Ni18  1  0.66568973  0.00259563  1.00133254  1
  Cr  Cr19  1  0.83515506  0.16781972  0.16820578  1
  Ni  Ni20  1  0.66691947  1.00045858  0.33660044  1
  Ni  Ni21  1  0.66745088  0.33617648  0.00219659  1
  Fe  Fe22  1  0.83588611  0.50136299  0.16819007  1
  Cr  Cr23  1  0.66823829  0.33652060  0.33601613  1
  Cr  Cr24  1  0.66707151  0.66764593  1.00152779  1
  Cr  Cr25  1  0.83423397  0.83756089  0.16817239  1
  Ni  Ni26  1  0.66755661  0.66964788  0.33598150  1
  Ni  Ni27  1  0.16913797  0.16839758  0.50180293  1
  Ni  Ni28  1  0.00433189  0.99974160  0.66690947  1
  Ni  Ni29  1  0.17148685  0.16859843  0.83583021  1
  Cr  Cr30  1  0.17171505  0.50246322  0.50253916  1
  Cr  Cr31  1  1.00168068  0.33475437  0.66862052  1
  Ni  Ni32  1  0.17053239  0.50339194  0.83588840  1
  Ni  Ni33  1  0.16901583  0.83594607  0.50367417  1
  Ni  Ni34  1  1.00118007  0.67180400  0.67096093  1
  Ni  Ni35  1  0.16967842  0.83440103  0.83506665  1
  Fe  Fe36  1  0.50179698  0.16887224  0.50339313  1
  Fe  Fe37  1  0.33478417  1.00204333  0.66975619  1
  Ni  Ni38  1  0.50134104  0.16867354  0.83563241  1
  Fe  Fe39  1  0.50240529  0.50295612  0.50274056  1
  Ni  Ni40  1  0.33790211  0.33407232  0.67009847  1
  Fe  Fe41  1  0.50072453  0.50229289  0.83474476  1
  Fe  Fe42  1  0.50285766  0.83437821  0.50273442  1
  Ni  Ni43  1  0.33647412  0.66996127  0.66895720  1
  Ni  Ni44  1  0.50148131  0.83630750  0.83482891  1
  Ni  Ni45  1  0.83438947  0.16700434  0.50167944  1
  Fe  Fe46  1  0.66827525  1.00123571  0.66844727  1
  Cr  Cr47  1  0.83367719  0.16696027  0.83628373  1
  Ni  Ni48  1  0.83360753  0.50312419  0.50240500  1
  Ni  Ni49  1  0.66640625  0.33697709  0.66808076  1
  Ni  Ni50  1  0.83568868  0.50324899  0.83556908  1
  Ni  Ni51  1  0.83384050  0.83620809  0.50335251  1
  Ni  Ni52  1  0.66895382  0.66804882  0.66867666  1
  Ni  Ni53  1  0.83537933  0.83504604  0.83418694  1
" 