8078,Ni62Fe4Cr32_4,-225.776185801229, 148.935296374488,Ni62Fe4Cr32,"# generated using pymatgen
 data_Cr19Fe2Ni33
_symmetry_space_group_name_H-M   'P 1'
_cell_length_a   7.48751450
_cell_length_b   7.48751450
_cell_length_c   10.58894456
_cell_angle_alpha   90.00000000
_cell_angle_beta   90.00000000
_cell_angle_gamma   90.00000000
_symmetry_Int_Tables_number   1
_chemical_formula_structural   Cr19Fe2Ni33
_chemical_formula_sum   'Cr19 Fe2 Ni33'
_cell_volume   593.64665871
_cell_formula_units_Z   1
loop_
 _symmetry_equiv_pos_site_id
 _symmetry_equiv_pos_as_xyz
  1  'x, y, z'
loop_
 _atom_site_type_symbol
 _atom_site_label
 _atom_site_symmetry_multiplicity
 _atom_site_fract_x
 _atom_site_fract_y
 _atom_site_fract_z
 _atom_site_occupancy
  Ni  Ni0  1  0.99778372  0.00066326  0.99692942  1
  Ni  Ni1  1  0.16375555  0.16508299  0.16791805  1
  Ni  Ni2  1  0.99813946  0.00105314  0.33358098  1
  Fe  Fe3  1  0.99589278  0.33150838  0.99819876  1
  Cr  Cr4  1  0.16334205  0.49857003  0.16725770  1
  Ni  Ni5  1  0.00095313  0.33061055  0.33123799  1
  Ni  Ni6  1  0.99808481  0.66387668  0.99716883  1
  Cr  Cr7  1  0.16579932  0.83218908  0.16588575  1
  Ni  Ni8  1  -0.00023052  0.66424238  0.33310513  1
  Cr  Cr9  1  0.33188527  0.99748047  0.99855455  1
  Ni  Ni10  1  0.49987436  0.16285138  0.16700193  1
  Ni  Ni11  1  0.33271184  0.00149474  0.33065557  1
  Cr  Cr12  1  0.33117220  0.33183914  0.99801686  1
  Cr  Cr13  1  0.49870590  0.49904425  0.16479047  1
  Ni  Ni14  1  0.32889937  0.32907151  0.33349396  1
  Ni  Ni15  1  0.33257030  0.66594701  0.99537565  1
  Ni  Ni16  1  0.49857155  0.83407997  0.16533213  1
  Ni  Ni17  1  0.32975405  0.66530261  0.33204855  1
  Ni  Ni18  1  0.66650575  -0.00041282  0.00016882  1
  Ni  Ni19  1  0.83222999  0.16584627  0.16426050  1
  Ni  Ni20  1  0.66504323  0.00031439  0.33183702  1
  Ni  Ni21  1  0.66861993  0.33231353  0.99816102  1
  Ni  Ni22  1  0.83351800  0.49657815  0.16356217  1
  Cr  Cr23  1  0.66604087  0.32868731  0.33108971  1
  Ni  Ni24  1  0.66522619  0.66397831  0.99749187  1
  Cr  Cr25  1  0.83203303  0.83302172  0.16549456  1
  Cr  Cr26  1  0.66724894  0.66799817  0.33099465  1
  Fe  Fe27  1  0.16403950  0.16574094  0.49610166  1
  Ni  Ni28  1  0.99833060  0.00015060  0.66535123  1
  Ni  Ni29  1  0.16093866  0.16416030  0.83199589  1
  Ni  Ni30  1  0.16633763  0.49841126  0.49562334  1
  Cr  Cr31  1  0.99808883  0.33005413  0.66658853  1
  Ni  Ni32  1  0.16593964  0.50088340  0.83318574  1
  Cr  Cr33  1  0.16333846  0.83116918  0.49716704  1
  Cr  Cr34  1  -0.00113376  0.66615630  0.66524404  1
  Ni  Ni35  1  0.16610657  0.83086339  0.83256871  1
  Ni  Ni36  1  0.49954924  0.16555894  0.49645059  1
  Cr  Cr37  1  0.32943897  0.99814150  0.66723860  1
  Cr  Cr38  1  0.50189560  0.16663877  0.83209951  1
  Cr  Cr39  1  0.49577351  0.49706986  0.50062738  1
  Cr  Cr40  1  0.33161648  0.33304056  0.66482998  1
  Ni  Ni41  1  0.49976642  0.50195415  0.83093368  1
  Cr  Cr42  1  0.49907649  0.83258336  0.49801876  1
  Ni  Ni43  1  0.33290367  0.66418747  0.66850077  1
  Ni  Ni44  1  0.49706941  0.82719667  0.83287981  1
  Ni  Ni45  1  0.83219832  0.16258199  0.49826191  1
  Cr  Cr46  1  0.66756570  -0.00104969  0.66362959  1
  Ni  Ni47  1  0.83389097  0.16700014  0.83333306  1
  Cr  Cr48  1  0.83328113  0.49847946  0.49858296  1
  Ni  Ni49  1  0.66602791  0.33296572  0.66636779  1
  Ni  Ni50  1  0.83017818  0.49683165  0.83367269  1
  Ni  Ni51  1  0.83363366  0.83554642  0.49768576  1
  Ni  Ni52  1  0.66374268  0.66348122  0.66729559  1
  Cr  Cr53  1  0.83247078  0.83316603  0.83234910  1
" 