3323,Ni62Fe19Cr18_7,-233.556116142111, 186.284613234218,Ni62Fe19Cr18,"# generated using pymatgen
 data_Cr11Fe10Ni33
_symmetry_space_group_name_H-M   'P 1'
_cell_length_a   7.44875670
_cell_length_b   7.44875670
_cell_length_c   10.53413274
_cell_angle_alpha   90.00000000
_cell_angle_beta   90.00000000
_cell_angle_gamma   90.00000000
_symmetry_Int_Tables_number   1
_chemical_formula_structural   Cr11Fe10Ni33
_chemical_formula_sum   'Cr11 Fe10 Ni33'
_cell_volume   584.47557136
_cell_formula_units_Z   1
loop_
 _symmetry_equiv_pos_site_id
 _symmetry_equiv_pos_as_xyz
  1  'x, y, z'
loop_
 _atom_site_type_symbol
 _atom_site_label
 _atom_site_symmetry_multiplicity
 _atom_site_fract_x
 _atom_site_fract_y
 _atom_site_fract_z
 _atom_site_occupancy
  Fe  Fe0  1  1.00063043  0.00192919  1.00055629  1
  Cr  Cr1  1  0.16860469  0.16739973  0.16468605  1
  Ni  Ni2  1  0.99859190  0.99911807  0.33658152  1
  Ni  Ni3  1  0.00164809  0.33532872  0.99981489  1
  Ni  Ni4  1  0.16788514  0.50360273  0.16627055  1
  Cr  Cr5  1  1.00017050  0.33479134  0.33554253  1
  Ni  Ni6  1  0.00285271  0.66582295  1.00078351  1
  Fe  Fe7  1  0.16956791  0.83168481  0.16768469  1
  Ni  Ni8  1  0.00469959  0.66982583  0.33570547  1
  Ni  Ni9  1  0.33643440  1.00032774  0.00258889  1
  Ni  Ni10  1  0.50323902  0.16622398  0.16696574  1
  Cr  Cr11  1  0.33664845  0.99831946  0.33564053  1
  Ni  Ni12  1  0.33271424  0.33494231  1.00045042  1
  Cr  Cr13  1  0.50086481  0.50095041  0.16726749  1
  Cr  Cr14  1  0.33523823  0.33586326  0.33589965  1
  Ni  Ni15  1  0.33370979  0.66841280  0.00218104  1
  Ni  Ni16  1  0.50105828  0.83619688  0.16643506  1
  Ni  Ni17  1  0.33182344  0.66978566  0.33408903  1
  Ni  Ni18  1  0.66673357  0.00153163  0.00198488  1
  Fe  Fe19  1  0.83131198  0.16747902  0.16790187  1
  Ni  Ni20  1  0.66847615  0.00282225  0.33544688  1
  Ni  Ni21  1  0.66932163  0.33260671  1.00113692  1
  Cr  Cr22  1  0.83519403  0.50162282  0.16812727  1
  Ni  Ni23  1  0.66843676  0.32993790  0.33434562  1
  Ni  Ni24  1  0.66711918  0.66954510  0.99835796  1
  Cr  Cr25  1  0.83467496  0.83487222  0.16856558  1
  Fe  Fe26  1  0.66734114  0.67096263  0.33536666  1
  Ni  Ni27  1  0.16767992  0.16673240  0.50436102  1
  Fe  Fe28  1  0.99958948  0.00145520  0.66618692  1
  Ni  Ni29  1  0.16764756  0.17002125  0.83461492  1
  Ni  Ni30  1  0.16779225  0.50269252  0.50223180  1
  Ni  Ni31  1  0.00228177  0.33420232  0.66841178  1
  Ni  Ni32  1  0.16678996  0.49926215  0.83518172  1
  Ni  Ni33  1  0.16659200  0.83425817  0.50042935  1
  Ni  Ni34  1  0.00228210  0.66673081  0.66719696  1
  Cr  Cr35  1  0.16684060  0.83509165  0.83579944  1
  Ni  Ni36  1  0.50242331  0.16626170  0.50147650  1
  Fe  Fe37  1  0.33489705  1.00107338  0.66616363  1
  Cr  Cr38  1  0.49978803  0.16836220  0.83490162  1
  Cr  Cr39  1  0.50126344  0.50112781  0.50145343  1
  Fe  Fe40  1  0.33289191  0.33524516  0.66790744  1
  Fe  Fe41  1  0.50140175  0.50291820  0.83477258  1
  Ni  Ni42  1  0.50218091  0.83606130  0.50206544  1
  Ni  Ni43  1  0.33386074  0.66826219  0.66741185  1
  Fe  Fe44  1  0.50276783  0.83254724  0.83488969  1
  Ni  Ni45  1  0.83357941  0.16506458  0.50115077  1
  Ni  Ni46  1  0.66801709  1.00074057  0.66624896  1
  Fe  Fe47  1  0.83652751  0.16878093  0.83412304  1
  Cr  Cr48  1  0.83488338  0.50304954  0.50078493  1
  Ni  Ni49  1  0.66955198  0.33254842  0.66819939  1
  Ni  Ni50  1  0.83446965  0.50278616  0.83508240  1
  Ni  Ni51  1  0.83490897  0.83617185  0.50099103  1
  Ni  Ni52  1  0.66753761  0.67039541  0.66943255  1
  Ni  Ni53  1  0.83286301  0.83255099  0.83445414  1
" 