7496,Ni62Fe19Cr18_19,-233.490508401978, 187.826572180967,Ni62Fe19Cr18,"# generated using pymatgen
 data_Cr11Fe10Ni33
_symmetry_space_group_name_H-M   'P 1'
_cell_length_a   7.45282879
_cell_length_b   7.45282879
_cell_length_c   10.53989155
_cell_angle_alpha   90.00000000
_cell_angle_beta   90.00000000
_cell_angle_gamma   90.00000000
_symmetry_Int_Tables_number   1
_chemical_formula_structural   Cr11Fe10Ni33
_chemical_formula_sum   'Cr11 Fe10 Ni33'
_cell_volume   585.43466002
_cell_formula_units_Z   1
loop_
 _symmetry_equiv_pos_site_id
 _symmetry_equiv_pos_as_xyz
  1  'x, y, z'
loop_
 _atom_site_type_symbol
 _atom_site_label
 _atom_site_symmetry_multiplicity
 _atom_site_fract_x
 _atom_site_fract_y
 _atom_site_fract_z
 _atom_site_occupancy
  Cr  Cr0  1  0.00109147  0.00107645  1.00087042  1
  Ni  Ni1  1  0.16745191  0.16814823  0.16719894  1
  Ni  Ni2  1  0.99828908  0.00135102  0.33576130  1
  Ni  Ni3  1  0.00227309  0.33587511  0.00132315  1
  Fe  Fe4  1  0.16715403  0.49967155  0.16857334  1
  Ni  Ni5  1  1.00078949  0.33338481  0.33321792  1
  Ni  Ni6  1  0.99905051  0.66601841  0.99996550  1
  Ni  Ni7  1  0.16770933  0.83462169  0.16827932  1
  Ni  Ni8  1  0.00178035  0.66812619  0.33376654  1
  Ni  Ni9  1  0.33566470  0.00323697  0.00151925  1
  Ni  Ni10  1  0.50029953  0.16720481  0.16640272  1
  Cr  Cr11  1  0.33430283  1.00006000  0.33334368  1
  Ni  Ni12  1  0.33312586  0.33239542  1.00072335  1
  Ni  Ni13  1  0.50217706  0.50151928  0.16938445  1
  Ni  Ni14  1  0.33416506  0.33718186  0.33373316  1
  Cr  Cr15  1  0.33376052  0.66698609  0.00171914  1
  Ni  Ni16  1  0.50146898  0.83413719  0.16728064  1
  Ni  Ni17  1  0.33464190  0.66579474  0.33550990  1
  Ni  Ni18  1  0.66625345  1.00001685  0.00176185  1
  Ni  Ni19  1  0.83510957  0.16885554  0.16965668  1
  Ni  Ni20  1  0.67023753  1.00087481  0.33365085  1
  Cr  Cr21  1  0.66753244  0.33432081  1.00001225  1
  Ni  Ni22  1  0.83462838  0.50126340  0.16776138  1
  Ni  Ni23  1  0.66790679  0.33368901  0.33394824  1
  Ni  Ni24  1  0.66973265  0.66855916  0.00208462  1
  Fe  Fe25  1  0.83317099  0.83413775  0.16860764  1
  Fe  Fe26  1  0.66667020  0.66782232  0.33348318  1
  Ni  Ni27  1  0.16489022  0.16749192  0.50037427  1
  Ni  Ni28  1  1.00048370  0.99968058  0.66680105  1
  Ni  Ni29  1  0.16805646  0.16728655  0.83528854  1
  Fe  Fe30  1  0.17001089  0.50163532  0.50015068  1
  Cr  Cr31  1  0.00151387  0.33323183  0.66810073  1
  Fe  Fe32  1  0.16771942  0.50111420  0.83413891  1
  Fe  Fe33  1  0.16580370  0.83295160  0.50114205  1
  Ni  Ni34  1  0.00310451  0.66988953  0.66912648  1
  Ni  Ni35  1  0.16552708  0.83502184  0.83222756  1
  Cr  Cr36  1  0.50090803  0.16991496  0.50084166  1
  Cr  Cr37  1  0.33182950  1.00070005  0.66727308  1
  Fe  Fe38  1  0.49930340  0.16995290  0.83571798  1
  Ni  Ni39  1  0.49892563  0.50251595  0.50106815  1
  Ni  Ni40  1  0.33507211  0.33709569  0.66840607  1
  Ni  Ni41  1  0.50183695  0.49911337  0.83240857  1
  Ni  Ni42  1  0.50062250  0.83056608  0.49949611  1
  Ni  Ni43  1  0.33269546  0.66477458  0.66616606  1
  Cr  Cr44  1  0.49984034  0.83389019  0.83647643  1
  Ni  Ni45  1  0.83711827  0.16579776  0.50000241  1
  Cr  Cr46  1  0.67076945  0.00226017  0.66738106  1
  Fe  Fe47  1  0.83480149  0.16768623  0.83436757  1
  Cr  Cr48  1  0.83359164  0.50064676  0.49934765  1
  Fe  Fe49  1  0.66619954  0.33526026  0.66858235  1
  Ni  Ni50  1  0.83435807  0.50164295  0.83524034  1
  Ni  Ni51  1  0.83615035  0.83574711  0.50010135  1
  Cr  Cr52  1  0.66705999  0.66647585  0.66719582  1
  Fe  Fe53  1  0.83688151  0.83283805  0.83454939  1
" 