2224,Ni62Fe28Cr8_11,-237.73335325553, 204.270881627499,Ni62Fe28Cr8,"# generated using pymatgen
 data_Cr2Fe5Ni11
_symmetry_space_group_name_H-M   'P 1'
_cell_length_a   7.42500423
_cell_length_b   7.42500423
_cell_length_c   10.50054169
_cell_angle_alpha   90.00000000
_cell_angle_beta   90.00000000
_cell_angle_gamma   90.00000000
_symmetry_Int_Tables_number   1
_chemical_formula_structural   Cr2Fe5Ni11
_chemical_formula_sum   'Cr6 Fe15 Ni33'
_cell_volume   578.90208599
_cell_formula_units_Z   3
loop_
 _symmetry_equiv_pos_site_id
 _symmetry_equiv_pos_as_xyz
  1  'x, y, z'
loop_
 _atom_site_type_symbol
 _atom_site_label
 _atom_site_symmetry_multiplicity
 _atom_site_fract_x
 _atom_site_fract_y
 _atom_site_fract_z
 _atom_site_occupancy
  Fe  Fe0  1  0.00425350  0.00336873  0.00294102  1
  Ni  Ni1  1  0.16904197  0.17012913  0.16833859  1
  Fe  Fe2  1  1.00270675  0.00378081  0.33530778  1
  Ni  Ni3  1  1.00202209  0.33610362  0.00285010  1
  Ni  Ni4  1  0.16959809  0.50298331  0.16982380  1
  Fe  Fe5  1  0.00427664  0.33590790  0.33533995  1
  Ni  Ni6  1  1.00253326  0.66927678  0.00304025  1
  Ni  Ni7  1  0.16940529  0.83538082  0.16910318  1
  Fe  Fe8  1  0.00529263  0.66880600  0.33422069  1
  Ni  Ni9  1  0.33528208  1.00201046  0.00340890  1
  Fe  Fe10  1  0.50270088  0.17113391  0.16862877  1
  Cr  Cr11  1  0.33581742  0.00333718  0.33786403  1
  Ni  Ni12  1  0.33520724  0.33609434  0.00435027  1
  Fe  Fe13  1  0.50200763  0.50228703  0.16940022  1
  Ni  Ni14  1  0.33485450  0.33663675  0.33506690  1
  Ni  Ni15  1  0.33579216  0.67038925  0.00313407  1
  Fe  Fe16  1  0.50265771  0.83507233  0.16904899  1
  Ni  Ni17  1  0.33596096  0.66871820  0.33591960  1
  Fe  Fe18  1  0.66995202  1.00248952  0.00294750  1
  Ni  Ni19  1  0.83585052  0.16985305  0.16969678  1
  Fe  Fe20  1  0.66933491  0.00348289  0.33655761  1
  Ni  Ni21  1  0.67126404  0.33661650  0.00382359  1
  Ni  Ni22  1  0.83586031  0.50269044  0.16996876  1
  Fe  Fe23  1  0.66892023  0.33505181  0.33415545  1
  Fe  Fe24  1  0.66924830  0.66826018  1.00217280  1
  Fe  Fe25  1  0.83762881  0.83575850  0.16948625  1
  Ni  Ni26  1  0.66943131  0.67034407  0.33329188  1
  Ni  Ni27  1  0.17033167  0.17139789  0.50268166  1
  Cr  Cr28  1  0.00355164  0.00416323  0.67066941  1
  Ni  Ni29  1  0.16942676  0.17029527  0.83747864  1
  Ni  Ni30  1  0.16984527  0.50213553  0.50268220  1
  Ni  Ni31  1  0.00348392  0.33695023  0.66989357  1
  Ni  Ni32  1  0.16885960  0.50274388  0.83597832  1
  Fe  Fe33  1  0.17175440  0.83490970  0.50306721  1
  Ni  Ni34  1  0.00345797  0.66718353  0.67023823  1
  Ni  Ni35  1  0.17006413  0.83545450  0.83636747  1
  Ni  Ni36  1  0.50290801  0.16757705  0.50337654  1
  Ni  Ni37  1  0.33787518  1.00220029  0.66782784  1
  Cr  Cr38  1  0.50120001  0.16938131  0.83540114  1
  Cr  Cr39  1  0.50074673  0.50334465  0.50374280  1
  Ni  Ni40  1  0.33403523  0.33588064  0.66907246  1
  Ni  Ni41  1  0.50333332  0.50464474  0.83626426  1
  Ni  Ni42  1  0.50240551  0.83786756  0.50431980  1
  Ni  Ni43  1  0.33623390  0.67041207  0.66944434  1
  Ni  Ni44  1  0.50333599  0.83475936  0.83548830  1
  Ni  Ni45  1  0.83525188  0.16948046  0.50237893  1
  Ni  Ni46  1  0.66774309  1.00216809  0.66822461  1
  Fe  Fe47  1  0.83719487  0.17060885  0.83688609  1
  Cr  Cr48  1  0.83809606  0.50217123  0.50359726  1
  Fe  Fe49  1  0.67004486  0.33568912  0.67059012  1
  Ni  Ni50  1  0.83629913  0.50401284  0.83551840  1
  Cr  Cr51  1  0.83459949  0.83628724  0.50176243  1
  Ni  Ni52  1  0.66880753  0.67101708  0.67253985  1
  Ni  Ni53  1  0.83509753  0.83418509  0.83750532  1
" 