8499,Ni62Fe4Cr32_8,-225.85062092659, 148.904789245489,Ni62Fe4Cr32,"# generated using pymatgen
 data_Cr19Fe2Ni33
_symmetry_space_group_name_H-M   'P 1'
_cell_length_a   7.48830631
_cell_length_b   7.48830631
_cell_length_c   10.59006434
_cell_angle_alpha   90.00000000
_cell_angle_beta   90.00000000
_cell_angle_gamma   90.00000000
_symmetry_Int_Tables_number   1
_chemical_formula_structural   Cr19Fe2Ni33
_chemical_formula_sum   'Cr19 Fe2 Ni33'
_cell_volume   593.83501353
_cell_formula_units_Z   1
loop_
 _symmetry_equiv_pos_site_id
 _symmetry_equiv_pos_as_xyz
  1  'x, y, z'
loop_
 _atom_site_type_symbol
 _atom_site_label
 _atom_site_symmetry_multiplicity
 _atom_site_fract_x
 _atom_site_fract_y
 _atom_site_fract_z
 _atom_site_occupancy
  Ni  Ni0  1  0.99804335  0.00233595  0.99672634  1
  Ni  Ni1  1  0.16481390  0.16686652  0.16362152  1
  Ni  Ni2  1  0.99806527  0.00138196  0.33462471  1
  Ni  Ni3  1  0.00150768  0.32844981  0.99826520  1
  Ni  Ni4  1  0.16545800  0.49356877  0.16464389  1
  Ni  Ni5  1  -0.00138164  0.32948476  0.33301567  1
  Cr  Cr6  1  0.99741199  0.66478149  0.99789747  1
  Cr  Cr7  1  0.16514248  0.83578301  0.16463838  1
  Cr  Cr8  1  -0.00098696  0.66467369  0.33365036  1
  Ni  Ni9  1  0.33315619  0.00360776  0.99772539  1
  Ni  Ni10  1  0.49903102  0.16759188  0.16398064  1
  Cr  Cr11  1  0.33077237  0.00263648  0.33196165  1
  Ni  Ni12  1  0.33218009  0.32946939  -0.00071274  1
  Ni  Ni13  1  0.49959038  0.49478943  0.16371675  1
  Cr  Cr14  1  0.33168797  0.33131992  0.33128434  1
  Cr  Cr15  1  0.33342342  0.66187010  -0.00060179  1
  Cr  Cr16  1  0.49951010  0.83449040  0.16318623  1
  Cr  Cr17  1  0.33129497  0.66205197  0.33141722  1
  Ni  Ni18  1  0.66462856  -0.00015166  0.99705677  1
  Cr  Cr19  1  0.83210869  0.16645948  0.16515630  1
  Fe  Fe20  1  0.66633336  0.00251935  0.33284955  1
  Ni  Ni21  1  0.66217261  0.33026133  0.99730956  1
  Cr  Cr22  1  0.83103045  0.49429100  0.16385044  1
  Ni  Ni23  1  0.66485475  0.33081489  0.33416115  1
  Ni  Ni24  1  0.66352700  0.66567022  0.99701615  1
  Cr  Cr25  1  0.83125714  0.83506846  0.16447161  1
  Cr  Cr26  1  0.66549679  0.66383130  0.33233908  1
  Ni  Ni27  1  0.16316835  0.16309057  0.49852962  1
  Ni  Ni28  1  -0.00092325  0.99838729  0.66454265  1
  Ni  Ni29  1  0.16521856  0.16466771  0.83383875  1
  Ni  Ni30  1  0.16376403  0.49947658  0.49929864  1
  Cr  Cr31  1  0.99773401  0.32952711  0.66513293  1
  Ni  Ni32  1  0.16687339  0.49710655  0.83187471  1
  Ni  Ni33  1  0.16357299  0.83310208  0.50097825  1
  Ni  Ni34  1  -0.00028673  0.66662393  0.66311290  1
  Cr  Cr35  1  0.16684512  0.83362559  0.82929782  1
  Ni  Ni36  1  0.50066725  0.16672179  0.49835329  1
  Ni  Ni37  1  0.33094542  -0.00035494  0.66540758  1
  Ni  Ni38  1  0.49874457  0.16526635  0.83323893  1
  Ni  Ni39  1  0.50006989  0.49674076  0.49944060  1
  Cr  Cr40  1  0.33352622  0.33026507  0.66521711  1
  Ni  Ni41  1  0.49801753  0.49747601  0.83255350  1
  Cr  Cr42  1  0.49490357  0.83316853  0.49959606  1
  Ni  Ni43  1  0.33105479  0.66452556  0.66464921  1
  Ni  Ni44  1  0.49858604  0.83304206  0.83325811  1
  Ni  Ni45  1  0.83218360  0.16684851  0.49687545  1
  Cr  Cr46  1  0.66676569  0.00241369  0.66625575  1
  Ni  Ni47  1  0.83167537  0.16414022  0.83374927  1
  Ni  Ni48  1  0.83207134  0.49543609  0.49837793  1
  Ni  Ni49  1  0.66446706  0.33090155  0.66413471  1
  Cr  Cr50  1  0.83160243  0.49538229  0.83320498  1
  Fe  Fe51  1  0.83415780  0.83341445  0.49978595  1
  Cr  Cr52  1  0.66618956  0.66400328  0.66679778  1
  Ni  Ni53  1  0.83162460  0.83443280  0.83259483  1
" 