7580,Ni62Fe22Cr15_9,-235.253759770612, 197.419129550522,Ni62Fe22Cr15,"# generated using pymatgen
 data_Cr3Fe4Ni11
_symmetry_space_group_name_H-M   'P 1'
_cell_length_a   7.43721393
_cell_length_b   7.43721393
_cell_length_c   10.51780881
_cell_angle_alpha   90.00000000
_cell_angle_beta   90.00000000
_cell_angle_gamma   90.00000000
_symmetry_Int_Tables_number   1
_chemical_formula_structural   Cr3Fe4Ni11
_chemical_formula_sum   'Cr9 Fe12 Ni33'
_cell_volume   581.76263029
_cell_formula_units_Z   3
loop_
 _symmetry_equiv_pos_site_id
 _symmetry_equiv_pos_as_xyz
  1  'x, y, z'
loop_
 _atom_site_type_symbol
 _atom_site_label
 _atom_site_symmetry_multiplicity
 _atom_site_fract_x
 _atom_site_fract_y
 _atom_site_fract_z
 _atom_site_occupancy
  Cr  Cr0  1  0.00264950  1.00118500  0.00352829  1
  Ni  Ni1  1  0.16764520  0.16910994  0.16803458  1
  Ni  Ni2  1  0.00273630  0.00279376  0.33485645  1
  Ni  Ni3  1  0.00571707  0.33587772  0.00224209  1
  Ni  Ni4  1  0.16961129  0.50241888  0.16695249  1
  Ni  Ni5  1  0.00319728  0.33379050  0.33498392  1
  Fe  Fe6  1  0.00334031  0.66784521  1.00073642  1
  Ni  Ni7  1  0.17012335  0.83466062  0.16927708  1
  Cr  Cr8  1  0.00462295  0.67038071  0.33553269  1
  Fe  Fe9  1  0.33631221  0.00315495  1.00076698  1
  Ni  Ni10  1  0.50245970  0.16771278  0.16871440  1
  Ni  Ni11  1  0.33452162  1.00186046  0.33574117  1
  Ni  Ni12  1  0.33371425  0.33656904  1.00098709  1
  Ni  Ni13  1  0.50068334  0.50382880  0.16837313  1
  Cr  Cr14  1  0.33520924  0.33602962  0.33516039  1
  Ni  Ni15  1  0.33476644  0.66686409  0.00247059  1
  Cr  Cr16  1  0.50074918  0.83422442  0.16941915  1
  Ni  Ni17  1  0.33653457  0.66876766  0.33598575  1
  Ni  Ni18  1  0.66837812  1.00019955  1.00187266  1
  Ni  Ni19  1  0.83603082  0.16812522  0.17152812  1
  Ni  Ni20  1  0.66877181  1.00160830  0.33507490  1
  Cr  Cr21  1  0.66574636  0.33388399  0.00322174  1
  Cr  Cr22  1  0.83532447  0.50124299  0.16908906  1
  Fe  Fe23  1  0.66709195  0.33501015  0.33551750  1
  Ni  Ni24  1  0.66735096  0.67062880  0.99878199  1
  Fe  Fe25  1  0.83420794  0.83676536  0.16980342  1
  Ni  Ni26  1  0.66697416  0.66915267  0.33802025  1
  Ni  Ni27  1  0.16825271  0.16839951  0.50395702  1
  Ni  Ni28  1  0.00397791  1.00009762  0.66782715  1
  Ni  Ni29  1  0.17007239  0.17007731  0.83406063  1
  Fe  Fe30  1  0.16930237  0.50206225  0.50372654  1
  Ni  Ni31  1  0.00430588  0.33751151  0.66877032  1
  Ni  Ni32  1  0.16773527  0.50268286  0.83547187  1
  Fe  Fe33  1  0.17079876  0.83752734  0.50278950  1
  Ni  Ni34  1  0.00314761  0.66880062  0.66947013  1
  Ni  Ni35  1  0.17115915  0.83318629  0.83407152  1
  Ni  Ni36  1  0.50038745  0.16622149  0.50222544  1
  Ni  Ni37  1  0.33571716  1.00104356  0.66934601  1
  Ni  Ni38  1  0.49943782  0.16536059  0.83520633  1
  Ni  Ni39  1  0.50159252  0.50564772  0.50202292  1
  Fe  Fe40  1  0.33315674  0.33434190  0.66886260  1
  Fe  Fe41  1  0.49752370  0.50366154  0.83560266  1
  Ni  Ni42  1  0.50228664  0.83450865  0.50206340  1
  Ni  Ni43  1  0.33498823  0.66888801  0.66763987  1
  Ni  Ni44  1  0.50173933  0.83449014  0.83464922  1
  Cr  Cr45  1  0.83764575  0.16723884  0.50046060  1
  Ni  Ni46  1  0.66658504  1.00004130  0.66903016  1
  Cr  Cr47  1  0.83721415  0.16874758  0.83362286  1
  Fe  Fe48  1  0.83519363  0.50298711  0.50205164  1
  Cr  Cr49  1  0.66543489  0.33616447  0.66825350  1
  Fe  Fe50  1  0.83774733  0.50441426  0.83572136  1
  Ni  Ni51  1  0.83401389  0.83464281  0.50316894  1
  Fe  Fe52  1  0.66885304  0.67138723  0.66817790  1
  Fe  Fe53  1  0.83556818  0.83448420  0.83338555  1
" 