2106,Ni62Fe19Cr18_13,-233.18000885061, 184.20565214145,Ni62Fe19Cr18,"# generated using pymatgen
 data_Cr11Fe10Ni33
_symmetry_space_group_name_H-M   'P 1'
_cell_length_a   7.44846716
_cell_length_b   7.44846716
_cell_length_c   10.53372328
_cell_angle_alpha   90.00000000
_cell_angle_beta   90.00000000
_cell_angle_gamma   90.00000000
_symmetry_Int_Tables_number   1
_chemical_formula_structural   Cr11Fe10Ni33
_chemical_formula_sum   'Cr11 Fe10 Ni33'
_cell_volume   584.40741775
_cell_formula_units_Z   1
loop_
 _symmetry_equiv_pos_site_id
 _symmetry_equiv_pos_as_xyz
  1  'x, y, z'
loop_
 _atom_site_type_symbol
 _atom_site_label
 _atom_site_symmetry_multiplicity
 _atom_site_fract_x
 _atom_site_fract_y
 _atom_site_fract_z
 _atom_site_occupancy
  Cr  Cr0  1  0.99932829  1.00093425  0.99842660  1
  Cr  Cr1  1  0.16886994  0.16939890  0.16879413  1
  Ni  Ni2  1  1.00085353  0.00208325  0.33816022  1
  Ni  Ni3  1  1.00015819  0.33788883  0.00134041  1
  Fe  Fe4  1  0.16922258  0.50141537  0.16821000  1
  Ni  Ni5  1  1.00025015  0.33527092  0.33568067  1
  Ni  Ni6  1  0.00256097  0.66438231  0.99990455  1
  Cr  Cr7  1  0.16970280  0.83306926  0.16805274  1
  Ni  Ni8  1  0.00241467  0.66638648  0.33579955  1
  Ni  Ni9  1  0.33906727  1.00061825  1.00027972  1
  Ni  Ni10  1  0.50216947  0.16919886  0.16706253  1
  Ni  Ni11  1  0.33587554  0.00129781  0.33625053  1
  Ni  Ni12  1  0.33528569  0.33588302  0.00127540  1
  Ni  Ni13  1  0.50007369  0.49918558  0.16742693  1
  Ni  Ni14  1  0.33441026  0.33398965  0.33501479  1
  Ni  Ni15  1  0.33373780  0.66724082  1.00052127  1
  Ni  Ni16  1  0.49982317  0.83535997  0.16764510  1
  Ni  Ni17  1  0.33303290  0.66845506  0.33443073  1
  Ni  Ni18  1  0.66543793  0.00302082  0.00126425  1
  Fe  Fe19  1  0.83163645  0.16985284  0.16867163  1
  Fe  Fe20  1  0.66687645  0.00353671  0.33551405  1
  Fe  Fe21  1  0.66768193  0.33318034  0.00125201  1
  Fe  Fe22  1  0.83542347  0.49853576  0.16812145  1
  Ni  Ni23  1  0.66908098  0.33242973  0.33351158  1
  Cr  Cr24  1  0.66749997  0.66901139  1.00015421  1
  Cr  Cr25  1  0.83458232  0.83484760  0.16829141  1
  Cr  Cr26  1  0.66773354  0.66835218  0.33561289  1
  Ni  Ni27  1  0.16758651  0.16638504  0.49954565  1
  Fe  Fe28  1  1.00054375  1.00058887  0.66679903  1
  Cr  Cr29  1  0.16835635  0.16641944  0.83512350  1
  Ni  Ni30  1  0.16699484  0.50164510  0.49825901  1
  Cr  Cr31  1  0.99904685  0.33435988  0.66614325  1
  Fe  Fe32  1  0.16771999  0.50437100  0.83692165  1
  Ni  Ni33  1  0.16843105  0.83571273  0.50049020  1
  Cr  Cr34  1  0.00126029  0.66890673  0.66773610  1
  Ni  Ni35  1  0.16983018  0.83340570  0.83516613  1
  Ni  Ni36  1  0.50144195  0.16629796  0.50059097  1
  Ni  Ni37  1  0.33685620  0.99834755  0.66720873  1
  Fe  Fe38  1  0.50415341  0.16583221  0.83520609  1
  Cr  Cr39  1  0.50155336  0.50113009  0.50209326  1
  Cr  Cr40  1  0.33548661  0.33414501  0.66688859  1
  Fe  Fe41  1  0.50153996  0.50205623  0.83483985  1
  Ni  Ni42  1  0.49992602  0.83647158  0.50152317  1
  Ni  Ni43  1  0.33514698  0.67119012  0.66878994  1
  Ni  Ni44  1  0.49996127  0.83447740  0.83457576  1
  Ni  Ni45  1  0.83471435  0.16773452  0.50015726  1
  Ni  Ni46  1  0.66730788  0.00136731  0.66757815  1
  Ni  Ni47  1  0.83238788  0.16894446  0.83546214  1
  Ni  Ni48  1  0.83547345  0.50012889  0.50009691  1
  Ni  Ni49  1  0.66924974  0.33281234  0.66924741  1
  Ni  Ni50  1  0.83345752  0.50019279  0.83587954  1
  Ni  Ni51  1  0.83538341  0.83587934  0.50177796  1
  Fe  Fe52  1  0.66680138  0.66911884  0.66862265  1
  Ni  Ni53  1  0.83395131  0.83460533  0.83396012  1
" 