7773,Ni62Fe28Cr8_3,-237.786135760665, 206.21498751422,Ni62Fe28Cr8,"# generated using pymatgen
 data_Cr2Fe5Ni11
_symmetry_space_group_name_H-M   'P 1'
_cell_length_a   7.42578530
_cell_length_b   7.42578530
_cell_length_c   10.50164628
_cell_angle_alpha   90.00000000
_cell_angle_beta   90.00000000
_cell_angle_gamma   90.00000000
_symmetry_Int_Tables_number   1
_chemical_formula_structural   Cr2Fe5Ni11
_chemical_formula_sum   'Cr6 Fe15 Ni33'
_cell_volume   579.08479638
_cell_formula_units_Z   3
loop_
 _symmetry_equiv_pos_site_id
 _symmetry_equiv_pos_as_xyz
  1  'x, y, z'
loop_
 _atom_site_type_symbol
 _atom_site_label
 _atom_site_symmetry_multiplicity
 _atom_site_fract_x
 _atom_site_fract_y
 _atom_site_fract_z
 _atom_site_occupancy
  Fe  Fe0  1  1.00157628  1.00236616  0.00470078  1
  Ni  Ni1  1  0.16960693  0.16842100  0.16910130  1
  Ni  Ni2  1  0.00430067  1.00200394  0.33528290  1
  Fe  Fe3  1  0.00352742  0.33674300  1.00274777  1
  Fe  Fe4  1  0.16922995  0.50250726  0.16847598  1
  Fe  Fe5  1  0.00287388  0.33616641  0.33615212  1
  Ni  Ni6  1  0.00297675  0.66856870  0.00364374  1
  Ni  Ni7  1  0.16882290  0.83735472  0.16861911  1
  Ni  Ni8  1  1.00152186  0.66941096  0.33661180  1
  Ni  Ni9  1  0.33671840  1.00233605  0.00579473  1
  Ni  Ni10  1  0.50201312  0.16914486  0.17074081  1
  Ni  Ni11  1  0.33547322  0.00476080  0.33588262  1
  Ni  Ni12  1  0.33450616  0.33716533  0.00440553  1
  Ni  Ni13  1  0.50328484  0.50304824  0.16866665  1
  Fe  Fe14  1  0.33661728  0.33445000  0.33569220  1
  Ni  Ni15  1  0.33575808  0.66883238  0.00291521  1
  Ni  Ni16  1  0.50328636  0.83614383  0.16773314  1
  Cr  Cr17  1  0.33517065  0.67022671  0.33571834  1
  Ni  Ni18  1  0.66957177  1.00132063  0.00327503  1
  Ni  Ni19  1  0.83671439  0.16841484  0.16913956  1
  Ni  Ni20  1  0.66856003  0.00345262  0.33514978  1
  Cr  Cr21  1  0.67002268  0.33573846  0.00333696  1
  Fe  Fe22  1  0.83615841  0.50412566  0.17035059  1
  Ni  Ni23  1  0.66878157  0.33672299  0.33540289  1
  Ni  Ni24  1  0.66960075  0.67077765  0.00294820  1
  Ni  Ni25  1  0.83622400  0.83608685  0.16923844  1
  Ni  Ni26  1  0.67152859  0.66815886  0.33576520  1
  Ni  Ni27  1  0.17083735  0.16806620  0.50336831  1
  Ni  Ni28  1  0.00312196  1.00256156  0.66910831  1
  Cr  Cr29  1  0.16774935  0.16946533  0.83599816  1
  Ni  Ni30  1  0.16906554  0.50305889  0.50450534  1
  Ni  Ni31  1  1.00259252  0.33783565  0.67004735  1
  Fe  Fe32  1  0.16842228  0.50234047  0.83608265  1
  Ni  Ni33  1  0.16909829  0.83720913  0.50359297  1
  Ni  Ni34  1  1.00231229  0.66793353  0.66808197  1
  Cr  Cr35  1  0.16989791  0.83532416  0.83646210  1
  Fe  Fe36  1  0.50088590  0.16994064  0.50261875  1
  Ni  Ni37  1  0.33631473  1.00258816  0.66665627  1
  Cr  Cr38  1  0.50397681  0.16880529  0.83520786  1
  Ni  Ni39  1  0.50426043  0.50256720  0.50446028  1
  Fe  Fe40  1  0.33589780  0.33718923  0.66792762  1
  Fe  Fe41  1  0.50287398  0.50445632  0.83574457  1
  Fe  Fe42  1  0.50304766  0.83650674  0.50323107  1
  Fe  Fe43  1  0.33659445  0.66907964  0.66844833  1
  Fe  Fe44  1  0.50503378  0.83530613  0.83672511  1
  Cr  Cr45  1  0.83622411  0.16971991  0.50351194  1
  Ni  Ni46  1  0.66889810  1.00230254  0.66990460  1
  Ni  Ni47  1  0.83625911  0.16973176  0.83537979  1
  Ni  Ni48  1  0.83501104  0.50430159  0.50240838  1
  Ni  Ni49  1  0.66991928  0.33760407  0.66974390  1
  Ni  Ni50  1  0.83576991  0.50327800  0.83504419  1
  Fe  Fe51  1  0.83704639  0.83379567  0.50234400  1
  Ni  Ni52  1  0.66994414  0.66842652  0.66961571  1
  Fe  Fe53  1  0.83454680  0.83618562  0.83631799  1
" 