121,Ni62Fe22Cr15_1,-235.532147365614, 196.165942217977,Ni62Fe22Cr15,"# generated using pymatgen
 data_Cr3Fe4Ni11
_symmetry_space_group_name_H-M   'P 1'
_cell_length_a   7.44235664
_cell_length_b   7.44235664
_cell_length_c   10.52508169
_cell_angle_alpha   90.00000000
_cell_angle_beta   90.00000000
_cell_angle_gamma   90.00000000
_symmetry_Int_Tables_number   1
_chemical_formula_structural   Cr3Fe4Ni11
_chemical_formula_sum   'Cr9 Fe12 Ni33'
_cell_volume   582.97030113
_cell_formula_units_Z   3
loop_
 _symmetry_equiv_pos_site_id
 _symmetry_equiv_pos_as_xyz
  1  'x, y, z'
loop_
 _atom_site_type_symbol
 _atom_site_label
 _atom_site_symmetry_multiplicity
 _atom_site_fract_x
 _atom_site_fract_y
 _atom_site_fract_z
 _atom_site_occupancy
  Ni  Ni0  1  1.00081832  0.00237023  0.00298800  1
  Ni  Ni1  1  0.16776374  0.16742928  0.16679816  1
  Fe  Fe2  1  1.00164398  0.99975948  0.33471968  1
  Ni  Ni3  1  0.00233772  0.33339914  0.00280094  1
  Ni  Ni4  1  0.16917823  0.50315268  0.16510488  1
  Cr  Cr5  1  1.00034737  0.33295445  0.33393304  1
  Fe  Fe6  1  0.00484172  0.66822719  0.00200958  1
  Ni  Ni7  1  0.16858391  0.83439222  0.16901212  1
  Fe  Fe8  1  1.00080250  0.67131502  0.33462569  1
  Fe  Fe9  1  0.33530138  1.00133154  0.00321627  1
  Ni  Ni10  1  0.50280715  0.16798084  0.16688729  1
  Ni  Ni11  1  0.33461894  1.00035408  0.33411426  1
  Ni  Ni12  1  0.33409317  0.33588143  0.00316182  1
  Ni  Ni13  1  0.50089671  0.50210607  0.16892625  1
  Cr  Cr14  1  0.33608208  0.33406864  0.33428437  1
  Ni  Ni15  1  0.33345294  0.66840545  0.00253980  1
  Ni  Ni16  1  0.50094267  0.83488976  0.16910907  1
  Ni  Ni17  1  0.33658815  0.67030328  0.33309398  1
  Fe  Fe18  1  0.66842461  0.00395043  0.00198929  1
  Ni  Ni19  1  0.83440489  0.16738741  0.16730713  1
  Ni  Ni20  1  0.66898423  1.00070391  0.33374976  1
  Ni  Ni21  1  0.66854689  0.33204237  0.00401821  1
  Fe  Fe22  1  0.83473975  0.50139205  0.16838328  1
  Fe  Fe23  1  0.66703238  0.33488162  0.33537748  1
  Cr  Cr24  1  0.66686698  0.67028522  0.00260262  1
  Ni  Ni25  1  0.83545218  0.83630578  0.16864629  1
  Ni  Ni26  1  0.66816440  0.66880805  0.33477423  1
  Ni  Ni27  1  0.16767041  0.16587155  0.50321530  1
  Ni  Ni28  1  1.00056776  0.00184808  0.66625794  1
  Cr  Cr29  1  0.16675290  0.16927897  0.83506477  1
  Cr  Cr30  1  0.16859246  0.50291905  0.50489370  1
  Ni  Ni31  1  1.00102420  0.33347517  0.66816321  1
  Ni  Ni32  1  0.16834651  0.50388728  0.83507134  1
  Fe  Fe33  1  0.16680391  0.83653050  0.50200657  1
  Ni  Ni34  1  0.00408282  0.66965882  0.66878513  1
  Ni  Ni35  1  0.16927534  0.83287139  0.83418981  1
  Ni  Ni36  1  0.50274887  0.16915864  0.50339994  1
  Fe  Fe37  1  0.33469827  1.00146413  0.66784849  1
  Fe  Fe38  1  0.50332001  0.16714742  0.83492791  1
  Ni  Ni39  1  0.50336771  0.50047147  0.50179954  1
  Fe  Fe40  1  0.33533142  0.33456359  0.66735515  1
  Cr  Cr41  1  0.49864415  0.50119569  0.83394317  1
  Cr  Cr42  1  0.50137247  0.83503282  0.50018092  1
  Ni  Ni43  1  0.33275140  0.66865229  0.66934089  1
  Ni  Ni44  1  0.49974090  0.83723145  0.83523384  1
  Ni  Ni45  1  0.83455653  0.16762530  0.50312511  1
  Ni  Ni46  1  0.66976623  0.00428995  0.67036189  1
  Ni  Ni47  1  0.83379700  0.16695231  0.83454425  1
  Ni  Ni48  1  0.83337316  0.50144407  0.50151586  1
  Ni  Ni49  1  0.66876292  0.33157716  0.66559252  1
  Cr  Cr50  1  0.83837889  0.49904381  0.83487845  1
  Ni  Ni51  1  0.83666061  0.83590777  0.50182156  1
  Cr  Cr52  1  0.66823504  0.66922860  0.66746003  1
  Fe  Fe53  1  0.83723709  0.83817108  0.83442517  1
" 