2305,Ni62Fe19Cr18_16,-233.678077191328, 187.731548503689,Ni62Fe19Cr18,"# generated using pymatgen
 data_Cr11Fe10Ni33
_symmetry_space_group_name_H-M   'P 1'
_cell_length_a   7.45008848
_cell_length_b   7.45008848
_cell_length_c   10.53601617
_cell_angle_alpha   90.00000000
_cell_angle_beta   90.00000000
_cell_angle_gamma   90.00000000
_symmetry_Int_Tables_number   1
_chemical_formula_structural   Cr11Fe10Ni33
_chemical_formula_sum   'Cr11 Fe10 Ni33'
_cell_volume   584.78912746
_cell_formula_units_Z   1
loop_
 _symmetry_equiv_pos_site_id
 _symmetry_equiv_pos_as_xyz
  1  'x, y, z'
loop_
 _atom_site_type_symbol
 _atom_site_label
 _atom_site_symmetry_multiplicity
 _atom_site_fract_x
 _atom_site_fract_y
 _atom_site_fract_z
 _atom_site_occupancy
  Ni  Ni0  1  1.00027434  1.00008718  0.00230347  1
  Ni  Ni1  1  0.16770709  0.16835896  0.16710972  1
  Ni  Ni2  1  0.00186250  0.99900054  0.33283404  1
  Ni  Ni3  1  0.00297557  0.33576018  0.00363016  1
  Ni  Ni4  1  0.16676595  0.49972039  0.16556444  1
  Cr  Cr5  1  0.00135741  0.33540095  0.33261543  1
  Ni  Ni6  1  1.00075071  0.66756338  0.00197015  1
  Fe  Fe7  1  0.16733505  0.83494041  0.16794027  1
  Cr  Cr8  1  1.00045915  0.66864434  0.33564422  1
  Cr  Cr9  1  0.33478675  1.00103225  0.00151629  1
  Ni  Ni10  1  0.50127399  0.16648745  0.16876395  1
  Ni  Ni11  1  0.33607098  1.00110274  0.33420385  1
  Ni  Ni12  1  0.33280754  0.33598651  1.00085473  1
  Cr  Cr13  1  0.50075551  0.50107497  0.16680790  1
  Ni  Ni14  1  0.33631047  0.33335760  0.33496856  1
  Fe  Fe15  1  0.33384301  0.66663897  0.99968844  1
  Ni  Ni16  1  0.50286056  0.83639108  0.16818613  1
  Fe  Fe17  1  0.33412991  0.66907917  0.33553343  1
  Ni  Ni18  1  0.66880595  0.99881284  0.00340091  1
  Fe  Fe19  1  0.83399260  0.16701887  0.16624403  1
  Fe  Fe20  1  0.66631857  1.00044446  0.33376244  1
  Ni  Ni21  1  0.66763057  0.33550749  0.00338295  1
  Ni  Ni22  1  0.83548780  0.50130695  0.16583639  1
  Fe  Fe23  1  0.66622980  0.33364062  0.33459276  1
  Ni  Ni24  1  0.66857891  0.66909195  1.00102183  1
  Ni  Ni25  1  0.83361583  0.83544981  0.16606025  1
  Fe  Fe26  1  0.66740293  0.66933174  0.33507884  1
  Cr  Cr27  1  0.17097606  0.16610070  0.50307111  1
  Ni  Ni28  1  0.00187496  0.99680609  0.66828067  1
  Fe  Fe29  1  0.16859241  0.16791448  0.83480390  1
  Ni  Ni30  1  0.16842461  0.50284445  0.50140038  1
  Cr  Cr31  1  0.00298279  0.33667192  0.66732027  1
  Ni  Ni32  1  0.16922188  0.50183390  0.83645090  1
  Ni  Ni33  1  0.16760154  0.83406683  0.50067011  1
  Ni  Ni34  1  0.99960814  0.67014617  0.66615367  1
  Ni  Ni35  1  0.16657192  0.83404902  0.83431909  1
  Ni  Ni36  1  0.50099876  0.16752491  0.50156270  1
  Ni  Ni37  1  0.33497359  0.00159771  0.66706260  1
  Cr  Cr38  1  0.50123125  0.16844921  0.83295682  1
  Fe  Fe39  1  0.50188270  0.50045854  0.50134822  1
  Ni  Ni40  1  0.33635417  0.33386427  0.66759492  1
  Ni  Ni41  1  0.49991834  0.50175905  0.83496307  1
  Ni  Ni42  1  0.50193696  0.83596222  0.50048815  1
  Cr  Cr43  1  0.33453589  0.66789096  0.66779574  1
  Ni  Ni44  1  0.50180125  0.83335621  0.83473832  1
  Cr  Cr45  1  0.83181108  0.16646953  0.50123459  1
  Ni  Ni46  1  0.66656674  0.99851557  0.66664094  1
  Cr  Cr47  1  0.83468168  0.16588952  0.83539986  1
  Ni  Ni48  1  0.83284801  0.50378449  0.50238402  1
  Ni  Ni49  1  0.66437335  0.33613310  0.66529151  1
  Cr  Cr50  1  0.83385491  0.50270093  0.83521975  1
  Ni  Ni51  1  0.83387645  0.83292670  0.50369994  1
  Ni  Ni52  1  0.66915996  0.66876633  0.66659889  1
  Fe  Fe53  1  0.83441304  0.83374728  0.83449615  1
" 