3449,Ni62Fe19Cr18_9,-233.408479839876, 188.887319634755,Ni62Fe19Cr18,"# generated using pymatgen
 data_Cr11Fe10Ni33
_symmetry_space_group_name_H-M   'P 1'
_cell_length_a   7.44882438
_cell_length_b   7.44882438
_cell_length_c   10.53422847
_cell_angle_alpha   90.00000000
_cell_angle_beta   90.00000000
_cell_angle_gamma   90.00000000
_symmetry_Int_Tables_number   1
_chemical_formula_structural   Cr11Fe10Ni33
_chemical_formula_sum   'Cr11 Fe10 Ni33'
_cell_volume   584.49150556
_cell_formula_units_Z   1
loop_
 _symmetry_equiv_pos_site_id
 _symmetry_equiv_pos_as_xyz
  1  'x, y, z'
loop_
 _atom_site_type_symbol
 _atom_site_label
 _atom_site_symmetry_multiplicity
 _atom_site_fract_x
 _atom_site_fract_y
 _atom_site_fract_z
 _atom_site_occupancy
  Ni  Ni0  1  0.00229671  0.99974574  0.00326218  1
  Ni  Ni1  1  0.16764383  0.16789381  0.16813532  1
  Ni  Ni2  1  0.00150411  0.00242394  0.33448444  1
  Cr  Cr3  1  0.00306613  0.33514563  0.00170340  1
  Ni  Ni4  1  0.16999442  0.50085376  0.16675725  1
  Ni  Ni5  1  0.00401676  0.33275676  0.33496498  1
  Ni  Ni6  1  0.00253768  0.66871065  0.00208667  1
  Ni  Ni7  1  0.16605322  0.83492324  0.16628651  1
  Cr  Cr8  1  0.00175111  0.66843201  0.33405628  1
  Fe  Fe9  1  0.33279357  0.00183344  0.00270903  1
  Ni  Ni10  1  0.50036466  0.16886735  0.16677774  1
  Fe  Fe11  1  0.33367605  0.00266931  0.33549344  1
  Fe  Fe12  1  0.33316495  0.33479755  0.00369840  1
  Ni  Ni13  1  0.49931993  0.50117943  0.16740471  1
  Ni  Ni14  1  0.33343761  0.33465442  0.33404201  1
  Ni  Ni15  1  0.33304882  0.66681175  0.00276829  1
  Cr  Cr16  1  0.50228833  0.83360570  0.16729013  1
  Fe  Fe17  1  0.33517934  0.66673722  0.33498499  1
  Ni  Ni18  1  0.66794387  1.00036798  0.00324484  1
  Ni  Ni19  1  0.83565687  0.16492525  0.16824865  1
  Ni  Ni20  1  0.66819298  1.00055905  0.33528258  1
  Cr  Cr21  1  0.66682135  0.33437312  0.00387306  1
  Fe  Fe22  1  0.83484485  0.50270058  0.16767169  1
  Cr  Cr23  1  0.66718568  0.33405456  0.33423562  1
  Ni  Ni24  1  0.66808338  0.66846316  0.00189515  1
  Ni  Ni25  1  0.83532971  0.83596944  0.16587222  1
  Ni  Ni26  1  0.66629631  0.66902482  0.33555614  1
  Ni  Ni27  1  0.16719222  0.16806465  0.50123637  1
  Ni  Ni28  1  0.00208279  0.00169915  0.66592344  1
  Ni  Ni29  1  0.16801228  0.16872244  0.83429671  1
  Ni  Ni30  1  0.16868587  0.50034844  0.50276956  1
  Ni  Ni31  1  0.00188294  0.33573583  0.66734953  1
  Fe  Fe32  1  0.16628666  0.50058647  0.83399295  1
  Ni  Ni33  1  0.16837303  0.83525701  0.50199019  1
  Ni  Ni34  1  0.00227143  0.66623461  0.66754178  1
  Cr  Cr35  1  0.16684049  0.83514826  0.83549764  1
  Ni  Ni36  1  0.50096921  0.16726851  0.50236820  1
  Fe  Fe37  1  0.33321287  0.00256126  0.66547009  1
  Cr  Cr38  1  0.49961453  0.16740214  0.83472216  1
  Ni  Ni39  1  0.50071593  0.50238094  0.50187549  1
  Fe  Fe40  1  0.33264609  0.33372259  0.66560187  1
  Cr  Cr41  1  0.50163731  0.50209520  0.83425122  1
  Ni  Ni42  1  0.50182506  0.83402043  0.50164902  1
  Fe  Fe43  1  0.33340684  0.66738701  0.66554660  1
  Cr  Cr44  1  0.50211814  0.83417128  0.83528807  1
  Ni  Ni45  1  0.83550447  0.16695633  0.50243361  1
  Ni  Ni46  1  0.66713253  0.00208107  0.66514195  1
  Cr  Cr47  1  0.83650047  0.16773389  0.83274044  1
  Ni  Ni48  1  0.83426902  0.50120120  0.50307922  1
  Ni  Ni49  1  0.66813084  0.33455773  0.66586141  1
  Ni  Ni50  1  0.83583057  0.50270735  0.83354800  1
  Ni  Ni51  1  0.83347336  0.83551240  0.50241204  1
  Fe  Fe52  1  0.67023657  0.66689230  0.66535363  1
  Cr  Cr53  1  0.83471058  0.83312616  0.83532743  1
" 