7448,Ni62Fe22Cr15_4,-234.994483740578, 194.754307693644,Ni62Fe22Cr15,"# generated using pymatgen
 data_Cr3Fe4Ni11
_symmetry_space_group_name_H-M   'P 1'
_cell_length_a   7.44083799
_cell_length_b   7.44083799
_cell_length_c   10.52293400
_cell_angle_alpha   90.00000000
_cell_angle_beta   90.00000000
_cell_angle_gamma   90.00000000
_symmetry_Int_Tables_number   1
_chemical_formula_structural   Cr3Fe4Ni11
_chemical_formula_sum   'Cr9 Fe12 Ni33'
_cell_volume   582.61350073
_cell_formula_units_Z   3
loop_
 _symmetry_equiv_pos_site_id
 _symmetry_equiv_pos_as_xyz
  1  'x, y, z'
loop_
 _atom_site_type_symbol
 _atom_site_label
 _atom_site_symmetry_multiplicity
 _atom_site_fract_x
 _atom_site_fract_y
 _atom_site_fract_z
 _atom_site_occupancy
  Fe  Fe0  1  1.00115711  0.99947199  1.00136835  1
  Cr  Cr1  1  0.16946126  0.16720414  0.16940789  1
  Fe  Fe2  1  1.00156206  1.00116200  0.33667480  1
  Cr  Cr3  1  1.00048958  0.33510883  0.00205788  1
  Ni  Ni4  1  0.17048896  0.50452578  0.16758170  1
  Cr  Cr5  1  1.00087778  0.33507924  0.33656057  1
  Ni  Ni6  1  0.00285470  0.66990406  0.00459043  1
  Ni  Ni7  1  0.16743754  0.83352970  0.16710532  1
  Cr  Cr8  1  0.00227188  0.66916563  0.33416813  1
  Fe  Fe9  1  0.33573600  1.00063851  1.00011184  1
  Ni  Ni10  1  0.50397532  0.17059523  0.16863303  1
  Ni  Ni11  1  0.33564500  1.00170229  0.33623032  1
  Fe  Fe12  1  0.33770865  0.33521556  0.00267774  1
  Ni  Ni13  1  0.50210890  0.50084046  0.16812938  1
  Ni  Ni14  1  0.33785965  0.33480352  0.33513621  1
  Ni  Ni15  1  0.33413286  0.66986683  0.00294346  1
  Cr  Cr16  1  0.50161245  0.83387766  0.16915552  1
  Ni  Ni17  1  0.33597742  0.66877778  0.33538214  1
  Ni  Ni18  1  0.66783144  0.00349877  1.00156165  1
  Ni  Ni19  1  0.83237297  0.16754846  0.16785460  1
  Fe  Fe20  1  0.66829476  0.00271997  0.33540963  1
  Fe  Fe21  1  0.66723644  0.33416082  0.00362279  1
  Ni  Ni22  1  0.83268852  0.50233740  0.16750472  1
  Ni  Ni23  1  0.66700903  0.33447318  0.33328351  1
  Ni  Ni24  1  0.66829676  0.66933578  0.00319186  1
  Fe  Fe25  1  0.83557280  0.83489966  0.16740268  1
  Ni  Ni26  1  0.66750362  0.66771441  0.33558268  1
  Ni  Ni27  1  0.16780382  0.16827316  0.50264021  1
  Ni  Ni28  1  0.00271889  0.00288629  0.66829978  1
  Ni  Ni29  1  0.16884632  0.16640866  0.83397100  1
  Ni  Ni30  1  0.17093939  0.50131899  0.50326124  1
  Ni  Ni31  1  1.00070400  0.33353807  0.66705261  1
  Cr  Cr32  1  0.16913591  0.50178792  0.83389322  1
  Ni  Ni33  1  0.16912144  0.83569199  0.50294889  1
  Ni  Ni34  1  0.00276640  0.66886024  0.66678273  1
  Fe  Fe35  1  0.17021949  0.83704254  0.83480297  1
  Fe  Fe36  1  0.50077907  0.16847954  0.50161785  1
  Ni  Ni37  1  0.33501027  1.00130454  0.66978655  1
  Ni  Ni38  1  0.50135743  0.16618085  0.83524413  1
  Ni  Ni39  1  0.50097655  0.50298439  0.50128943  1
  Ni  Ni40  1  0.33509547  0.33318924  0.66722662  1
  Cr  Cr41  1  0.50146251  0.50279956  0.83577286  1
  Ni  Ni42  1  0.50211716  0.83335698  0.50213535  1
  Ni  Ni43  1  0.33461089  0.67078884  0.66695669  1
  Ni  Ni44  1  0.50069725  0.83673836  0.83477459  1
  Ni  Ni45  1  0.83570519  0.16712988  0.50293767  1
  Fe  Fe46  1  0.66787423  0.00290044  0.66848471  1
  Ni  Ni47  1  0.83508003  0.16695148  0.83449390  1
  Fe  Fe48  1  0.83394634  0.50209558  0.50312669  1
  Ni  Ni49  1  0.66948426  0.33313698  0.66808499  1
  Cr  Cr50  1  0.83468431  0.50132946  0.83305857  1
  Ni  Ni51  1  0.83404264  0.83648645  0.50177837  1
  Fe  Fe52  1  0.66728250  0.66906971  0.66597070  1
  Cr  Cr53  1  0.83447963  0.83621705  0.83538371  1
" 