6696,Ni62Fe19Cr18_17,-233.431335938172, 188.718374730051,Ni62Fe19Cr18,"# generated using pymatgen
 data_Cr11Fe10Ni33
_symmetry_space_group_name_H-M   'P 1'
_cell_length_a   7.44633528
_cell_length_b   7.44633528
_cell_length_c   10.53070834
_cell_angle_alpha   90.00000000
_cell_angle_beta   90.00000000
_cell_angle_gamma   90.00000000
_symmetry_Int_Tables_number   1
_chemical_formula_structural   Cr11Fe10Ni33
_chemical_formula_sum   'Cr11 Fe10 Ni33'
_cell_volume   583.90575904
_cell_formula_units_Z   1
loop_
 _symmetry_equiv_pos_site_id
 _symmetry_equiv_pos_as_xyz
  1  'x, y, z'
loop_
 _atom_site_type_symbol
 _atom_site_label
 _atom_site_symmetry_multiplicity
 _atom_site_fract_x
 _atom_site_fract_y
 _atom_site_fract_z
 _atom_site_occupancy
  Ni  Ni0  1  0.00393812  0.00478144  0.00389554  1
  Fe  Fe1  1  0.16751511  0.16777329  0.16896469  1
  Fe  Fe2  1  1.00036511  1.00073100  0.33293682  1
  Ni  Ni3  1  0.00157773  0.33083442  0.00282852  1
  Ni  Ni4  1  0.16845264  0.49989650  0.16995261  1
  Ni  Ni5  1  1.00119075  0.33788978  0.33324348  1
  Cr  Cr6  1  0.99880378  0.66677412  0.00374074  1
  Ni  Ni7  1  0.16887847  0.83580727  0.17093299  1
  Ni  Ni8  1  0.00205672  0.66749587  0.33559396  1
  Ni  Ni9  1  0.33459268  0.00214985  0.00199936  1
  Fe  Fe10  1  0.50197352  0.16702199  0.17029746  1
  Ni  Ni11  1  0.33405512  1.00071126  0.33372790  1
  Fe  Fe12  1  0.33388699  0.33554663  0.00449962  1
  Ni  Ni13  1  0.50081378  0.50201132  0.16981745  1
  Ni  Ni14  1  0.33370560  0.33238389  0.33248625  1
  Ni  Ni15  1  0.33791124  0.67031506  0.00513070  1
  Ni  Ni16  1  0.50163480  0.83532744  0.16761714  1
  Fe  Fe17  1  0.33332815  0.66663666  0.33227050  1
  Fe  Fe18  1  0.66925654  1.00081554  0.00254253  1
  Ni  Ni19  1  0.83587415  0.16745922  0.17077200  1
  Ni  Ni20  1  0.66649904  0.00207133  0.33370762  1
  Cr  Cr21  1  0.66939944  0.33748479  0.00259425  1
  Ni  Ni22  1  0.83472841  0.50003497  0.16977326  1
  Ni  Ni23  1  0.66909045  0.33423595  0.33490792  1
  Ni  Ni24  1  0.66475925  0.66811411  1.00068694  1
  Ni  Ni25  1  0.83360147  0.83685307  0.16792145  1
  Ni  Ni26  1  0.67227972  0.66763061  0.33077593  1
  Cr  Cr27  1  0.16999784  0.16939506  0.50034629  1
  Cr  Cr28  1  1.00129907  0.00218313  0.66622306  1
  Fe  Fe29  1  0.16832652  0.16833756  0.83600023  1
  Ni  Ni30  1  0.16534941  0.50156890  0.50151294  1
  Ni  Ni31  1  1.00109348  0.33627091  0.66851491  1
  Cr  Cr32  1  0.16898107  0.49931334  0.83326147  1
  Ni  Ni33  1  0.16696066  0.83294861  0.49908931  1
  Fe  Fe34  1  1.00032263  0.66797446  0.66527545  1
  Cr  Cr35  1  0.16848654  0.83451346  0.83414709  1
  Ni  Ni36  1  0.50114829  0.16724079  0.49846414  1
  Ni  Ni37  1  0.33445137  1.00079981  0.66866913  1
  Ni  Ni38  1  0.49916432  0.16753102  0.83601133  1
  Cr  Cr39  1  0.49978812  0.49905261  0.49751048  1
  Fe  Fe40  1  0.33599454  0.33280464  0.66738586  1
  Ni  Ni41  1  0.49852478  0.50101333  0.83595526  1
  Cr  Cr42  1  0.50076513  0.83644477  0.49855422  1
  Ni  Ni43  1  0.33334264  0.66969189  0.66609701  1
  Ni  Ni44  1  0.50023125  0.83576905  0.83769954  1
  Fe  Fe45  1  0.83531566  0.16894396  0.49724726  1
  Cr  Cr46  1  0.66604299  0.00281708  0.66904809  1
  Ni  Ni47  1  0.83575934  0.16778474  0.83613016  1
  Ni  Ni48  1  0.83853445  0.50126421  0.49912423  1
  Cr  Cr49  1  0.67088868  0.33405919  0.66614640  1
  Ni  Ni50  1  0.83571087  0.49959931  0.83509568  1
  Ni  Ni51  1  0.83644675  0.83407602  0.49740801  1
  Cr  Cr52  1  0.66881487  0.66749361  0.67188201  1
  Ni  Ni53  1  0.83319173  0.83742292  0.83868455  1
" 