6842,Ni62Fe22Cr15_14,-235.03379287017, 192.796545519667,Ni62Fe22Cr15,"# generated using pymatgen
 data_Cr3Fe4Ni11
_symmetry_space_group_name_H-M   'P 1'
_cell_length_a   7.44083213
_cell_length_b   7.44083213
_cell_length_c   10.52292571
_cell_angle_alpha   90.00000000
_cell_angle_beta   90.00000000
_cell_angle_gamma   90.00000000
_symmetry_Int_Tables_number   1
_chemical_formula_structural   Cr3Fe4Ni11
_chemical_formula_sum   'Cr9 Fe12 Ni33'
_cell_volume   582.61212317
_cell_formula_units_Z   3
loop_
 _symmetry_equiv_pos_site_id
 _symmetry_equiv_pos_as_xyz
  1  'x, y, z'
loop_
 _atom_site_type_symbol
 _atom_site_label
 _atom_site_symmetry_multiplicity
 _atom_site_fract_x
 _atom_site_fract_y
 _atom_site_fract_z
 _atom_site_occupancy
  Ni  Ni0  1  0.00246434  1.00068172  0.00232368  1
  Ni  Ni1  1  0.16775264  0.16700323  0.16897227  1
  Ni  Ni2  1  0.00510564  0.00323764  0.33431327  1
  Fe  Fe3  1  0.00471767  0.33231365  1.00057208  1
  Fe  Fe4  1  0.17015713  0.50066495  0.16672452  1
  Ni  Ni5  1  0.00534186  0.33453550  0.33580899  1
  Ni  Ni6  1  0.00283904  0.66998130  1.00054903  1
  Ni  Ni7  1  0.17026482  0.83516111  0.16867181  1
  Cr  Cr8  1  0.00337332  0.66784870  0.33898268  1
  Cr  Cr9  1  0.33356164  0.00509731  0.99832601  1
  Ni  Ni10  1  0.49974320  0.16817238  0.16838229  1
  Ni  Ni11  1  0.33430761  0.00265243  0.33551382  1
  Ni  Ni12  1  0.33371687  0.33561834  1.00167587  1
  Fe  Fe13  1  0.49828501  0.50098380  0.16709806  1
  Fe  Fe14  1  0.33353899  0.33357827  0.33517492  1
  Fe  Fe15  1  0.33311097  0.67051318  1.00064969  1
  Ni  Ni16  1  0.49698712  0.83291354  0.16878359  1
  Fe  Fe17  1  0.33386192  0.66950181  0.33718610  1
  Cr  Cr18  1  0.66867571  1.00116365  1.00175910  1
  Ni  Ni19  1  0.83847983  0.17029254  0.16808621  1
  Cr  Cr20  1  0.66827741  0.00179702  0.33545096  1
  Fe  Fe21  1  0.66729107  0.33229932  1.00134903  1
  Cr  Cr22  1  0.83578534  0.50057810  0.16547423  1
  Cr  Cr23  1  0.66826528  0.33440409  0.33654689  1
  Ni  Ni24  1  0.66837758  0.67019894  0.00276720  1
  Fe  Fe25  1  0.83768870  0.83742899  0.16839250  1
  Cr  Cr26  1  0.66748918  0.66911418  0.33767249  1
  Ni  Ni27  1  0.16780551  0.16681421  0.50117459  1
  Ni  Ni28  1  0.00211655  0.00250337  0.66849555  1
  Ni  Ni29  1  0.16646542  0.16791120  0.83422840  1
  Fe  Fe30  1  0.16963024  0.50006342  0.50469010  1
  Ni  Ni31  1  0.00366991  0.33405247  0.66819879  1
  Ni  Ni32  1  0.16753564  0.50242899  0.83585549  1
  Ni  Ni33  1  0.16970880  0.83739085  0.50239042  1
  Ni  Ni34  1  0.00427177  0.66879877  0.66748580  1
  Ni  Ni35  1  0.16789155  0.83498055  0.83377552  1
  Ni  Ni36  1  0.49902774  0.16837935  0.50375463  1
  Fe  Fe37  1  0.33382783  1.00147037  0.66846063  1
  Ni  Ni38  1  0.50188334  0.16816530  0.83247440  1
  Ni  Ni39  1  0.50085902  0.50175644  0.50293565  1
  Fe  Fe40  1  0.33383758  0.33467604  0.66956764  1
  Cr  Cr41  1  0.50248191  0.50294172  0.83616775  1
  Ni  Ni42  1  0.49852132  0.83510043  0.50350352  1
  Ni  Ni43  1  0.33364816  0.66797362  0.66849284  1
  Ni  Ni44  1  0.50068930  0.83467010  0.83224013  1
  Ni  Ni45  1  0.83778190  0.16926268  0.50225149  1
  Ni  Ni46  1  0.66787543  0.00284478  0.66776111  1
  Ni  Ni47  1  0.83657738  0.16864622  0.83463922  1
  Ni  Ni48  1  0.83536952  0.49978511  0.50566492  1
  Ni  Ni49  1  0.66787203  0.33279500  0.66710825  1
  Cr  Cr50  1  0.83576350  0.50137858  0.83352134  1
  Ni  Ni51  1  0.83698520  0.83645449  0.50436177  1
  Ni  Ni52  1  0.66752193  0.66989109  0.66574625  1
  Fe  Fe53  1  0.83604785  0.83625538  0.83297272  1
" 