4047,Ni62Fe22Cr15_18,-235.032613067991, 193.600404742383,Ni62Fe22Cr15,"# generated using pymatgen
 data_Cr3Fe4Ni11
_symmetry_space_group_name_H-M   'P 1'
_cell_length_a   7.43645030
_cell_length_b   7.43645030
_cell_length_c   10.51672887
_cell_angle_alpha   90.00000000
_cell_angle_beta   90.00000000
_cell_angle_gamma   90.00000000
_symmetry_Int_Tables_number   1
_chemical_formula_structural   Cr3Fe4Ni11
_chemical_formula_sum   'Cr9 Fe12 Ni33'
_cell_volume   581.58344746
_cell_formula_units_Z   3
loop_
 _symmetry_equiv_pos_site_id
 _symmetry_equiv_pos_as_xyz
  1  'x, y, z'
loop_
 _atom_site_type_symbol
 _atom_site_label
 _atom_site_symmetry_multiplicity
 _atom_site_fract_x
 _atom_site_fract_y
 _atom_site_fract_z
 _atom_site_occupancy
  Fe  Fe0  1  0.00485842  1.00083033  0.00313791  1
  Ni  Ni1  1  0.17023014  0.16755401  0.17080013  1
  Fe  Fe2  1  0.00448319  0.99846953  0.33530129  1
  Cr  Cr3  1  0.00452315  0.33649908  0.00338617  1
  Ni  Ni4  1  0.16990343  0.50302656  0.17092524  1
  Fe  Fe5  1  0.00280873  0.33819141  0.33497348  1
  Ni  Ni6  1  0.00286930  0.67059501  0.00259029  1
  Ni  Ni7  1  0.17017515  0.83499927  0.16779481  1
  Ni  Ni8  1  0.00376250  0.66915577  0.33582921  1
  Fe  Fe9  1  0.33362048  1.00200235  0.00245886  1
  Fe  Fe10  1  0.49924386  0.16794171  0.17041114  1
  Fe  Fe11  1  0.33359945  1.00042676  0.33671304  1
  Ni  Ni12  1  0.33474322  0.33374175  0.00287469  1
  Fe  Fe13  1  0.49946628  0.50477786  0.17003602  1
  Fe  Fe14  1  0.33585702  0.33695046  0.33496956  1
  Ni  Ni15  1  0.33354728  0.66792296  0.00429179  1
  Ni  Ni16  1  0.49998700  0.83289975  0.17058303  1
  Ni  Ni17  1  0.33302695  0.66985819  0.33665330  1
  Cr  Cr18  1  0.66898491  1.00191426  0.00208886  1
  Ni  Ni19  1  0.83799846  0.16854261  0.17253447  1
  Cr  Cr20  1  0.66731230  1.00107898  0.33783717  1
  Cr  Cr21  1  0.66714137  0.33716730  0.00372006  1
  Ni  Ni22  1  0.83537766  0.50439483  0.17104686  1
  Ni  Ni23  1  0.66746081  0.33593174  0.33313698  1
  Ni  Ni24  1  0.66916459  0.66951035  0.00492680  1
  Ni  Ni25  1  0.83632719  0.83317907  0.16902696  1
  Ni  Ni26  1  0.66864082  0.66721895  0.33456087  1
  Ni  Ni27  1  0.17119186  0.16796159  0.50128311  1
  Ni  Ni28  1  0.00788451  0.99971449  0.66891289  1
  Ni  Ni29  1  0.17227667  0.16635849  0.83417538  1
  Fe  Fe30  1  0.16754568  0.50223876  0.50138749  1
  Ni  Ni31  1  0.00304361  0.33633643  0.66623154  1
  Cr  Cr32  1  0.17043330  0.50452798  0.83213798  1
  Ni  Ni33  1  0.16891006  0.83559554  0.50205113  1
  Ni  Ni34  1  0.00385013  0.67023668  0.66752855  1
  Ni  Ni35  1  0.16781525  0.83679831  0.83669928  1
  Ni  Ni36  1  0.49943015  0.17236917  0.50363152  1
  Ni  Ni37  1  0.33324609  0.00314871  0.66721014  1
  Ni  Ni38  1  0.49792324  0.17075080  0.83270079  1
  Ni  Ni39  1  0.50113062  0.50109178  0.50000551  1
  Fe  Fe40  1  0.33461445  0.33666487  0.66780484  1
  Ni  Ni41  1  0.50098048  0.50146271  0.83737204  1
  Fe  Fe42  1  0.50022854  0.83471383  0.50096761  1
  Ni  Ni43  1  0.33280156  0.67118845  0.66525635  1
  Cr  Cr44  1  0.49831965  0.83290781  0.83406086  1
  Cr  Cr45  1  0.83734307  0.17016971  0.50357093  1
  Fe  Fe46  1  0.66822972  1.00013960  0.66680522  1
  Cr  Cr47  1  0.83777789  0.16776131  0.82995035  1
  Ni  Ni48  1  0.83385165  0.50264944  0.50032630  1
  Ni  Ni49  1  0.66588271  0.33580019  0.66942438  1
  Ni  Ni50  1  0.83426144  0.50492675  0.83445466  1
  Ni  Ni51  1  0.83921297  0.83259414  0.50221048  1
  Cr  Cr52  1  0.66872126  0.66592293  0.66670190  1
  Ni  Ni53  1  0.83907138  0.83228028  0.83562138  1
" 