4944,Ni62Fe19Cr18_0,-233.753960373688, 191.733836494289,Ni62Fe19Cr18,"# generated using pymatgen
 data_Cr11Fe10Ni33
_symmetry_space_group_name_H-M   'P 1'
_cell_length_a   7.44176074
_cell_length_b   7.44176074
_cell_length_c   10.52423897
_cell_angle_alpha   90.00000000
_cell_angle_beta   90.00000000
_cell_angle_gamma   90.00000000
_symmetry_Int_Tables_number   1
_chemical_formula_structural   Cr11Fe10Ni33
_chemical_formula_sum   'Cr11 Fe10 Ni33'
_cell_volume   582.83028078
_cell_formula_units_Z   1
loop_
 _symmetry_equiv_pos_site_id
 _symmetry_equiv_pos_as_xyz
  1  'x, y, z'
loop_
 _atom_site_type_symbol
 _atom_site_label
 _atom_site_symmetry_multiplicity
 _atom_site_fract_x
 _atom_site_fract_y
 _atom_site_fract_z
 _atom_site_occupancy
  Cr  Cr0  1  1.00120537  1.00038746  0.00217001  1
  Fe  Fe1  1  0.16843290  0.16681437  0.17119816  1
  Ni  Ni2  1  0.00417148  0.00426340  0.33359289  1
  Cr  Cr3  1  0.99990980  0.33523921  1.00123516  1
  Cr  Cr4  1  0.16683719  0.50393634  0.16863527  1
  Ni  Ni5  1  1.00012254  0.33284512  0.33518988  1
  Ni  Ni6  1  0.99989348  0.66894129  0.00272650  1
  Ni  Ni7  1  0.16798319  0.83449729  0.16992092  1
  Fe  Fe8  1  0.99895790  0.66931977  0.33379102  1
  Cr  Cr9  1  0.33622846  1.00132397  0.00214127  1
  Ni  Ni10  1  0.50302622  0.16763165  0.16782408  1
  Ni  Ni11  1  0.33234238  1.00083739  0.33317607  1
  Fe  Fe12  1  0.33820457  0.33411073  1.00012043  1
  Cr  Cr13  1  0.50363020  0.50068470  0.16795971  1
  Fe  Fe14  1  0.33523772  0.33300024  0.33514255  1
  Fe  Fe15  1  0.33654250  0.66986959  1.00078357  1
  Ni  Ni16  1  0.50141078  0.83636189  0.16886102  1
  Ni  Ni17  1  0.33732391  0.67057387  0.33458771  1
  Ni  Ni18  1  0.66689199  1.00146579  0.00241011  1
  Ni  Ni19  1  0.83281411  0.16880882  0.16913148  1
  Cr  Cr20  1  0.66904266  1.00031267  0.33305373  1
  Ni  Ni21  1  0.66766656  0.33550161  1.00112233  1
  Ni  Ni22  1  0.83486001  0.50221374  0.16947505  1
  Ni  Ni23  1  0.67117704  0.33771506  0.33463650  1
  Ni  Ni24  1  0.66883538  0.66811121  1.00144444  1
  Ni  Ni25  1  0.83565179  0.83408471  0.16836304  1
  Ni  Ni26  1  0.66773366  0.66644510  0.33580209  1
  Ni  Ni27  1  0.16600869  0.16698436  0.50043896  1
  Ni  Ni28  1  0.00210957  0.00327869  0.66932394  1
  Ni  Ni29  1  0.16897748  0.16605984  0.83246475  1
  Cr  Cr30  1  0.16658184  0.50206033  0.50156494  1
  Ni  Ni31  1  0.99880033  0.33307373  0.66820565  1
  Cr  Cr32  1  0.16712821  0.50448976  0.83491932  1
  Cr  Cr33  1  0.16871045  0.83629532  0.50252454  1
  Ni  Ni34  1  0.99952815  0.66878793  0.66924317  1
  Ni  Ni35  1  0.16861289  0.83491445  0.83320200  1
  Cr  Cr36  1  0.50275962  0.16733964  0.50184047  1
  Ni  Ni37  1  0.33421342  0.99988125  0.66971876  1
  Ni  Ni38  1  0.50377318  0.16769266  0.83551531  1
  Fe  Fe39  1  0.50432634  0.50335667  0.50132612  1
  Cr  Cr40  1  0.33498683  0.33436902  0.66922355  1
  Ni  Ni41  1  0.50476222  0.50211057  0.83529410  1
  Fe  Fe42  1  0.50243023  0.83311674  0.50254554  1
  Ni  Ni43  1  0.33770189  0.67123813  0.66995740  1
  Ni  Ni44  1  0.50186648  0.83533728  0.83367168  1
  Ni  Ni45  1  0.83634127  0.17014663  0.50330528  1
  Ni  Ni46  1  0.66878977  1.00065318  0.66973843  1
  Fe  Fe47  1  0.83279269  0.16846713  0.83327664  1
  Ni  Ni48  1  0.83361146  0.50103674  0.50125565  1
  Ni  Ni49  1  0.67126993  0.33653563  0.66936105  1
  Ni  Ni50  1  0.83294543  0.50234672  0.83435505  1
  Fe  Fe51  1  0.83492568  0.83514111  0.50243363  1
  Ni  Ni52  1  0.66783929  0.66787009  0.66781525  1
  Fe  Fe53  1  0.83381798  0.83386456  0.83472898  1
" 