1377,Ni62Fe19Cr18_1,-233.504170911745, 185.001242674822,Ni62Fe19Cr18,"# generated using pymatgen
 data_Cr11Fe10Ni33
_symmetry_space_group_name_H-M   'P 1'
_cell_length_a   7.45463860
_cell_length_b   7.45463860
_cell_length_c   10.54245101
_cell_angle_alpha   90.00000000
_cell_angle_beta   90.00000000
_cell_angle_gamma   90.00000000
_symmetry_Int_Tables_number   1
_chemical_formula_structural   Cr11Fe10Ni33
_chemical_formula_sum   'Cr11 Fe10 Ni33'
_cell_volume   585.86125660
_cell_formula_units_Z   1
loop_
 _symmetry_equiv_pos_site_id
 _symmetry_equiv_pos_as_xyz
  1  'x, y, z'
loop_
 _atom_site_type_symbol
 _atom_site_label
 _atom_site_symmetry_multiplicity
 _atom_site_fract_x
 _atom_site_fract_y
 _atom_site_fract_z
 _atom_site_occupancy
  Ni  Ni0  1  1.00076970  0.00186995  1.00056070  1
  Ni  Ni1  1  0.16799175  0.16727056  0.16890020  1
  Ni  Ni2  1  0.99954273  0.00146242  0.33398310  1
  Ni  Ni3  1  0.00191546  0.33106343  0.00134832  1
  Fe  Fe4  1  0.16562929  0.49807510  0.16717736  1
  Ni  Ni5  1  1.00055021  0.33078155  0.33333184  1
  Ni  Ni6  1  1.00005116  0.66831742  0.99993734  1
  Ni  Ni7  1  0.16275523  0.83838326  0.16656676  1
  Ni  Ni8  1  0.99910949  0.66840787  0.33316603  1
  Ni  Ni9  1  0.33148118  0.00256767  1.00062408  1
  Cr  Cr10  1  0.50198407  0.16824954  0.16554747  1
  Ni  Ni11  1  0.33281994  0.00321234  0.33337314  1
  Ni  Ni12  1  0.33330326  0.33319380  1.00072332  1
  Ni  Ni13  1  0.50348884  0.49735306  0.16732925  1
  Ni  Ni14  1  0.33462446  0.33205078  0.33387560  1
  Cr  Cr15  1  0.33157465  0.66669841  0.00457572  1
  Fe  Fe16  1  0.50268563  0.83582631  0.16664892  1
  Cr  Cr17  1  0.33381337  0.66682505  0.32763473  1
  Ni  Ni18  1  0.67183255  0.00145227  0.00136310  1
  Fe  Fe19  1  0.83601611  0.16626794  0.16767604  1
  Ni  Ni20  1  0.67007284  0.00165231  0.33324953  1
  Ni  Ni21  1  0.66885182  0.33304885  0.99722133  1
  Cr  Cr22  1  0.83416225  0.49932880  0.16723294  1
  Ni  Ni23  1  0.66760902  0.33328599  0.33674013  1
  Ni  Ni24  1  0.66858677  0.66727059  0.00165886  1
  Ni  Ni25  1  0.83519293  0.83381964  0.16745770  1
  Ni  Ni26  1  0.66918754  0.66754847  0.33377461  1
  Fe  Fe27  1  0.16643872  0.16623465  0.50076132  1
  Ni  Ni28  1  0.00086665  0.00204750  0.66801132  1
  Ni  Ni29  1  0.16797544  0.16915363  0.83241129  1
  Cr  Cr30  1  0.16480421  0.49732601  0.49909265  1
  Ni  Ni31  1  1.00013393  0.33290927  0.66739349  1
  Ni  Ni32  1  0.16480866  0.49747415  0.83616261  1
  Cr  Cr33  1  0.16441373  0.83475403  0.50406241  1
  Ni  Ni34  1  0.99931372  0.66631963  0.67002255  1
  Ni  Ni35  1  0.16356328  0.83595628  0.83346924  1
  Ni  Ni36  1  0.50105096  0.17171005  0.50149661  1
  Ni  Ni37  1  0.33224438  0.00499073  0.66849825  1
  Fe  Fe38  1  0.49918313  0.16957642  0.83517564  1
  Fe  Fe39  1  0.50207577  0.49933938  0.49890507  1
  Ni  Ni40  1  0.33451648  0.33256383  0.66789838  1
  Fe  Fe41  1  0.50010483  0.49901594  0.83681716  1
  Cr  Cr42  1  0.50124154  0.83929961  0.49724590  1
  Cr  Cr43  1  0.33294380  0.66628045  0.67074204  1
  Cr  Cr44  1  0.50177083  0.83855993  0.83812052  1
  Ni  Ni45  1  0.83288426  0.16898012  0.49934917  1
  Cr  Cr46  1  0.67052452  0.00353056  0.66759779  1
  Fe  Fe47  1  0.83766249  0.16737583  0.83470308  1
  Fe  Fe48  1  0.83401319  0.49948564  0.49929046  1
  Ni  Ni49  1  0.66791245  0.33440864  0.66836153  1
  Fe  Fe50  1  0.83704931  0.49969703  0.83604077  1
  Ni  Ni51  1  0.83558673  0.83428443  0.49943902  1
  Cr  Cr52  1  0.66944716  0.66549273  0.66659651  1
  Ni  Ni53  1  0.83681185  0.83289442  0.83560137  1
" 