733,Ni62Fe28Cr8_5,-237.741544137809, 205.270897012745,Ni62Fe28Cr8,"# generated using pymatgen
 data_Cr2Fe5Ni11
_symmetry_space_group_name_H-M   'P 1'
_cell_length_a   7.42801611
_cell_length_b   7.42801611
_cell_length_c   10.50480112
_cell_angle_alpha   90.00000000
_cell_angle_beta   90.00000000
_cell_angle_gamma   90.00000000
_symmetry_Int_Tables_number   1
_chemical_formula_structural   Cr2Fe5Ni11
_chemical_formula_sum   'Cr6 Fe15 Ni33'
_cell_volume   579.60684867
_cell_formula_units_Z   3
loop_
 _symmetry_equiv_pos_site_id
 _symmetry_equiv_pos_as_xyz
  1  'x, y, z'
loop_
 _atom_site_type_symbol
 _atom_site_label
 _atom_site_symmetry_multiplicity
 _atom_site_fract_x
 _atom_site_fract_y
 _atom_site_fract_z
 _atom_site_occupancy
  Fe  Fe0  1  1.00253437  1.00251479  1.00198961  1
  Ni  Ni1  1  0.16707989  0.16703885  0.17066964  1
  Fe  Fe2  1  1.00190323  1.00122808  0.33601585  1
  Ni  Ni3  1  1.00212166  0.33488773  0.00269723  1
  Ni  Ni4  1  0.16838880  0.50376376  0.17104838  1
  Ni  Ni5  1  0.00356412  0.33586493  0.33578426  1
  Ni  Ni6  1  0.00269648  0.67018127  0.00386198  1
  Ni  Ni7  1  0.17125104  0.83698313  0.16792205  1
  Fe  Fe8  1  0.00365159  0.67015540  0.33700581  1
  Ni  Ni9  1  0.33715960  1.00101870  0.00348319  1
  Fe  Fe10  1  0.50303104  0.16718580  0.17099122  1
  Fe  Fe11  1  0.33720529  1.00091754  0.33526052  1
  Cr  Cr12  1  0.33496114  0.33409731  0.00358164  1
  Cr  Cr13  1  0.50394577  0.50595131  0.16849616  1
  Ni  Ni14  1  0.33374025  0.33607702  0.33537822  1
  Ni  Ni15  1  0.33570409  0.67272799  1.00215328  1
  Ni  Ni16  1  0.50213109  0.83680040  0.16965392  1
  Ni  Ni17  1  0.33534053  0.66977617  0.33693111  1
  Ni  Ni18  1  0.66825952  1.00155943  0.00309477  1
  Ni  Ni19  1  0.83691592  0.16813744  0.16938509  1
  Ni  Ni20  1  0.67018960  1.00144554  0.33592128  1
  Ni  Ni21  1  0.67121626  0.33334572  1.00112154  1
  Cr  Cr22  1  0.83552205  0.50197778  0.16776560  1
  Fe  Fe23  1  0.66914189  0.33525122  0.33767513  1
  Ni  Ni24  1  0.66954311  0.67269115  1.00117051  1
  Fe  Fe25  1  0.83602497  0.83755638  0.16845335  1
  Ni  Ni26  1  0.66937230  0.67387082  0.33729120  1
  Cr  Cr27  1  0.16999077  0.16580385  0.50251383  1
  Ni  Ni28  1  1.00150206  0.99987935  0.67057020  1
  Ni  Ni29  1  0.16945291  0.16479338  0.83558914  1
  Fe  Fe30  1  0.16935220  0.50317708  0.50137186  1
  Cr  Cr31  1  1.00099464  0.33662038  0.67003657  1
  Cr  Cr32  1  0.16903574  0.50366028  0.83571117  1
  Ni  Ni33  1  0.17062774  0.83485788  0.50448107  1
  Ni  Ni34  1  1.00075862  0.67134078  0.66713815  1
  Fe  Fe35  1  0.16896308  0.83615436  0.83571745  1
  Ni  Ni36  1  0.50391624  0.16876031  0.50221593  1
  Ni  Ni37  1  0.33741382  1.00239232  0.66961112  1
  Fe  Fe38  1  0.50383641  0.16830015  0.83437028  1
  Fe  Fe39  1  0.50250750  0.50202623  0.50262914  1
  Ni  Ni40  1  0.33857158  0.33515731  0.66887840  1
  Ni  Ni41  1  0.50647613  0.50485512  0.83472481  1
  Fe  Fe42  1  0.50344837  0.83741110  0.50244150  1
  Fe  Fe43  1  0.33771915  0.67064985  0.66857061  1
  Ni  Ni44  1  0.50318687  0.83595315  0.83550287  1
  Ni  Ni45  1  0.83374410  0.16960710  0.50301993  1
  Ni  Ni46  1  0.66896853  1.00167394  0.66888956  1
  Fe  Fe47  1  0.83407389  0.16814560  0.83644317  1
  Ni  Ni48  1  0.83358913  0.50362346  0.50202126  1
  Ni  Ni49  1  0.66753886  0.33618875  0.66854061  1
  Ni  Ni50  1  0.83261516  0.50443296  0.83734844  1
  Fe  Fe51  1  0.83579999  0.83791859  0.50389220  1
  Ni  Ni52  1  0.67050291  0.67015711  0.66904275  1
  Ni  Ni53  1  0.83469307  0.83532902  0.83580052  1
" 