8831,Ni62Fe4Cr32_6,-225.753807898739, 148.276912894723,Ni62Fe4Cr32,"# generated using pymatgen
 data_Cr19Fe2Ni33
_symmetry_space_group_name_H-M   'P 1'
_cell_length_a   7.48994785
_cell_length_b   7.48994785
_cell_length_c   10.59238583
_cell_angle_alpha   90.00000000
_cell_angle_beta   90.00000000
_cell_angle_gamma   90.00000000
_symmetry_Int_Tables_number   1
_chemical_formula_structural   Cr19Fe2Ni33
_chemical_formula_sum   'Cr19 Fe2 Ni33'
_cell_volume   594.22562902
_cell_formula_units_Z   1
loop_
 _symmetry_equiv_pos_site_id
 _symmetry_equiv_pos_as_xyz
  1  'x, y, z'
loop_
 _atom_site_type_symbol
 _atom_site_label
 _atom_site_symmetry_multiplicity
 _atom_site_fract_x
 _atom_site_fract_y
 _atom_site_fract_z
 _atom_site_occupancy
  Ni  Ni0  1  0.00133216  0.99691495  0.00039295  1
  Ni  Ni1  1  0.16378130  0.16196748  0.16654695  1
  Ni  Ni2  1  -0.00102405  0.99783694  0.32927383  1
  Ni  Ni3  1  0.99841882  0.33259267  0.99698097  1
  Cr  Cr4  1  0.16570900  0.49734170  0.16572993  1
  Ni  Ni5  1  0.00188246  0.33177033  0.33276245  1
  Ni  Ni6  1  -0.00074989  0.66586747  0.99766602  1
  Ni  Ni7  1  0.16596127  0.83534223  0.16275397  1
  Cr  Cr8  1  0.99700461  0.66623128  0.33379623  1
  Ni  Ni9  1  0.32983663  0.99454360  -0.00105427  1
  Cr  Cr10  1  0.49499836  0.16247552  0.16717465  1
  Ni  Ni11  1  0.33313382  -0.00117879  0.33030736  1
  Cr  Cr12  1  0.33135955  0.33056950  0.99736039  1
  Cr  Cr13  1  0.49797048  0.50336004  0.16547968  1
  Ni  Ni14  1  0.32921643  0.32967321  0.33301917  1
  Ni  Ni15  1  0.33139694  0.66875725  0.99704031  1
  Ni  Ni16  1  0.49769010  0.83085492  0.16625399  1
  Fe  Fe17  1  0.33289411  0.66773234  0.33184543  1
  Cr  Cr18  1  0.66336322  0.99731963  0.99798292  1
  Cr  Cr19  1  0.83687410  0.16272632  0.16515220  1
  Ni  Ni20  1  0.66327486  0.99347320  0.33339391  1
  Cr  Cr21  1  0.66595459  0.33295314  0.99414546  1
  Cr  Cr22  1  0.83169129  0.50079057  0.16329912  1
  Cr  Cr23  1  0.66449209  0.33173286  0.33319698  1
  Ni  Ni24  1  0.66480244  0.66584203  0.99836319  1
  Ni  Ni25  1  0.83174406  0.83221750  0.16582623  1
  Ni  Ni26  1  0.66526608  0.66978051  0.33224811  1
  Cr  Cr27  1  0.16612912  0.16703194  0.49802194  1
  Ni  Ni28  1  0.99769373  -0.00078508  0.66575785  1
  Cr  Cr29  1  0.16344198  0.16417771  0.83090123  1
  Ni  Ni30  1  0.16515386  0.49617795  0.49875495  1
  Ni  Ni31  1  -0.00034660  0.33320134  0.66565538  1
  Ni  Ni32  1  0.16553863  0.49912144  0.83121377  1
  Cr  Cr33  1  0.16678362  0.83247780  0.50052473  1
  Cr  Cr34  1  0.00014381  0.66332922  0.66419464  1
  Fe  Fe35  1  0.16791991  0.83086858  0.83306876  1
  Ni  Ni36  1  0.49672895  0.16150004  0.49889088  1
  Ni  Ni37  1  0.33510280  0.99804732  0.66617653  1
  Ni  Ni38  1  0.49807360  0.16319056  0.82926977  1
  Cr  Cr39  1  0.49530633  0.49998246  0.49683215  1
  Ni  Ni40  1  0.33100762  0.33218277  0.66540386  1
  Ni  Ni41  1  0.49620826  0.50097359  0.83241654  1
  Ni  Ni42  1  0.50014393  0.83405399  0.49732339  1
  Ni  Ni43  1  0.33131923  0.66513780  0.66660279  1
  Ni  Ni44  1  0.49563544  0.83120507  0.83183631  1
  Cr  Cr45  1  0.83278277  0.16253383  0.49934901  1
  Ni  Ni46  1  0.66262341  -0.00106045  0.66424792  1
  Ni  Ni47  1  0.83333240  0.16602627  0.83086372  1
  Ni  Ni48  1  0.83449827  0.49948020  0.49746272  1
  Cr  Cr49  1  0.66470479  0.32976560  0.66793817  1
  Ni  Ni50  1  0.83377022  0.49667528  0.83418978  1
  Ni  Ni51  1  0.82857391  0.83280772  0.49680947  1
  Cr  Cr52  1  0.66479484  0.66654128  0.66434348  1
  Cr  Cr53  1  0.83210887  0.83331590  0.83246063  1
" 