5866,Ni62Fe19Cr18_6,-233.588756521098, 187.339826875968,Ni62Fe19Cr18,"# generated using pymatgen
 data_Cr11Fe10Ni33
_symmetry_space_group_name_H-M   'P 1'
_cell_length_a   7.44670180
_cell_length_b   7.44670180
_cell_length_c   10.53122668
_cell_angle_alpha   90.00000000
_cell_angle_beta   90.00000000
_cell_angle_gamma   90.00000000
_symmetry_Int_Tables_number   1
_chemical_formula_structural   Cr11Fe10Ni33
_chemical_formula_sum   'Cr11 Fe10 Ni33'
_cell_volume   583.99198512
_cell_formula_units_Z   1
loop_
 _symmetry_equiv_pos_site_id
 _symmetry_equiv_pos_as_xyz
  1  'x, y, z'
loop_
 _atom_site_type_symbol
 _atom_site_label
 _atom_site_symmetry_multiplicity
 _atom_site_fract_x
 _atom_site_fract_y
 _atom_site_fract_z
 _atom_site_occupancy
  Ni  Ni0  1  0.00449495  0.99912187  0.00199709  1
  Ni  Ni1  1  0.16845889  0.16806259  0.16783282  1
  Ni  Ni2  1  0.00340066  0.99985011  0.33537952  1
  Ni  Ni3  1  0.00388926  0.33705655  0.00182425  1
  Fe  Fe4  1  0.16706820  0.50212118  0.16756510  1
  Fe  Fe5  1  0.00454357  0.33620654  0.33509625  1
  Ni  Ni6  1  1.00116943  0.66776897  1.00052081  1
  Ni  Ni7  1  0.16878153  0.83542747  0.16798672  1
  Ni  Ni8  1  0.00171560  0.66902805  0.33401876  1
  Ni  Ni9  1  0.33052183  1.00136275  1.00126757  1
  Cr  Cr10  1  0.49654795  0.16808006  0.16607460  1
  Ni  Ni11  1  0.33126619  0.00246242  0.33434238  1
  Ni  Ni12  1  0.33159840  0.33507141  0.99993961  1
  Fe  Fe13  1  0.50021817  0.50246963  0.16819850  1
  Ni  Ni14  1  0.33276268  0.33563502  0.33651151  1
  Ni  Ni15  1  0.33171162  0.66714165  0.00393404  1
  Ni  Ni16  1  0.49794431  0.83040592  0.16835268  1
  Ni  Ni17  1  0.33247988  0.66564119  0.33367411  1
  Cr  Cr18  1  0.66959800  0.99843439  0.00271239  1
  Cr  Cr19  1  0.84158127  0.17116773  0.16891599  1
  Cr  Cr20  1  0.66993471  0.99959894  0.33485347  1
  Ni  Ni21  1  0.66855398  0.33810322  0.00154265  1
  Ni  Ni22  1  0.83531911  0.50366251  0.16696749  1
  Fe  Fe23  1  0.66625319  0.33608849  0.33529747  1
  Ni  Ni24  1  0.67021693  0.66660510  0.00387214  1
  Ni  Ni25  1  0.83750449  0.83050563  0.16817394  1
  Ni  Ni26  1  0.66914253  0.66646083  0.33215169  1
  Ni  Ni27  1  0.16711616  0.16740557  0.49978153  1
  Fe  Fe28  1  0.00268079  1.00107906  0.66727905  1
  Ni  Ni29  1  0.16826470  0.16755110  0.83682542  1
  Fe  Fe30  1  0.16835217  0.50206209  0.50081800  1
  Ni  Ni31  1  0.00326749  0.33501351  0.66764039  1
  Ni  Ni32  1  0.16575922  0.50087393  0.83507782  1
  Fe  Fe33  1  0.16701534  0.83533457  0.49961776  1
  Fe  Fe34  1  0.00230099  0.66899675  0.66939866  1
  Fe  Fe35  1  0.16636234  0.83325384  0.83578292  1
  Ni  Ni36  1  0.49884936  0.16795568  0.50189256  1
  Ni  Ni37  1  0.33239355  1.00128525  0.66806702  1
  Fe  Fe38  1  0.50046821  0.16775692  0.83568648  1
  Ni  Ni39  1  0.50000857  0.50259483  0.49911247  1
  Cr  Cr40  1  0.33162568  0.33509113  0.66807650  1
  Cr  Cr41  1  0.50120232  0.50481100  0.83670044  1
  Cr  Cr42  1  0.49943431  0.83214811  0.50102076  1
  Ni  Ni43  1  0.33090356  0.66866813  0.66601528  1
  Cr  Cr44  1  0.49923123  0.83435919  0.83427496  1
  Ni  Ni45  1  0.83867101  0.16746215  0.50056762  1
  Ni  Ni46  1  0.66961247  0.99978523  0.66648289  1
  Cr  Cr47  1  0.83948890  0.16913010  0.83619154  1
  Cr  Cr48  1  0.83551332  0.50318362  0.50155996  1
  Cr  Cr49  1  0.66853834  0.33369142  0.66732627  1
  Ni  Ni50  1  0.83784590  0.50349446  0.83559631  1
  Ni  Ni51  1  0.83693916  0.83495834  0.50226133  1
  Ni  Ni52  1  0.66955241  0.67012468  0.66799272  1
  Ni  Ni53  1  0.83569436  0.83215831  0.83371893  1
" 