4876,Ni62Fe28Cr8_9,-237.642672682187, 207.42783999108,Ni62Fe28Cr8,"# generated using pymatgen
 data_Cr2Fe5Ni11
_symmetry_space_group_name_H-M   'P 1'
_cell_length_a   7.42503085
_cell_length_b   7.42503085
_cell_length_c   10.50057932
_cell_angle_alpha   90.00000000
_cell_angle_beta   90.00000000
_cell_angle_gamma   90.00000000
_symmetry_Int_Tables_number   1
_chemical_formula_structural   Cr2Fe5Ni11
_chemical_formula_sum   'Cr6 Fe15 Ni33'
_cell_volume   578.90831084
_cell_formula_units_Z   3
loop_
 _symmetry_equiv_pos_site_id
 _symmetry_equiv_pos_as_xyz
  1  'x, y, z'
loop_
 _atom_site_type_symbol
 _atom_site_label
 _atom_site_symmetry_multiplicity
 _atom_site_fract_x
 _atom_site_fract_y
 _atom_site_fract_z
 _atom_site_occupancy
  Fe  Fe0  1  1.00032476  0.00413663  1.00167751  1
  Fe  Fe1  1  0.16802341  0.17103581  0.16941006  1
  Fe  Fe2  1  1.00224790  1.00182586  0.33726503  1
  Ni  Ni3  1  0.00352686  0.33587208  0.00287425  1
  Cr  Cr4  1  0.16957389  0.50529606  0.17023485  1
  Fe  Fe5  1  1.00271487  0.33396080  0.33615451  1
  Ni  Ni6  1  1.00105296  0.67045143  1.00218566  1
  Ni  Ni7  1  0.16895937  0.83623508  0.16899294  1
  Ni  Ni8  1  0.00290980  0.67058389  0.33772447  1
  Cr  Cr9  1  0.33606993  0.00462684  0.00301381  1
  Fe  Fe10  1  0.50498598  0.17137030  0.16942362  1
  Cr  Cr11  1  0.33752694  0.00426829  0.33630030  1
  Ni  Ni12  1  0.33584877  0.33576383  1.00068993  1
  Ni  Ni13  1  0.50351285  0.50291451  0.16757071  1
  Ni  Ni14  1  0.33631654  0.33625892  0.33753197  1
  Fe  Fe15  1  0.33787860  0.66832151  1.00160408  1
  Ni  Ni16  1  0.50150055  0.83562424  0.16967635  1
  Ni  Ni17  1  0.33553596  0.66846452  0.33688218  1
  Ni  Ni18  1  0.66995959  1.00186092  1.00227939  1
  Ni  Ni19  1  0.83528724  0.16953738  0.17010469  1
  Ni  Ni20  1  0.67135394  0.00420448  0.33683925  1
  Ni  Ni21  1  0.66897898  0.33564288  0.00441919  1
  Ni  Ni22  1  0.83584608  0.49980610  0.16920125  1
  Fe  Fe23  1  0.66684817  0.33474074  0.33560903  1
  Ni  Ni24  1  0.67061279  0.67084639  0.00401384  1
  Fe  Fe25  1  0.83695692  0.83618912  0.16853649  1
  Cr  Cr26  1  0.66979458  0.67083947  0.33466061  1
  Ni  Ni27  1  0.16864604  0.16757669  0.50326584  1
  Ni  Ni28  1  0.00366477  0.00367999  0.67012123  1
  Ni  Ni29  1  0.16841812  0.16948330  0.83578517  1
  Fe  Fe30  1  0.17204743  0.50067567  0.50334403  1
  Ni  Ni31  1  0.00475630  0.33304614  0.66903766  1
  Ni  Ni32  1  0.16984730  0.50383010  0.83486459  1
  Ni  Ni33  1  0.17017842  0.83489500  0.50339659  1
  Fe  Fe34  1  0.00556113  0.67004376  0.66966786  1
  Ni  Ni35  1  0.17091657  0.83523865  0.83625260  1
  Ni  Ni36  1  0.50414758  0.17068144  0.50339362  1
  Ni  Ni37  1  0.33446221  0.00382508  0.66882029  1
  Ni  Ni38  1  0.50463646  0.16870574  0.83540638  1
  Ni  Ni39  1  0.50151934  0.50251901  0.50390036  1
  Ni  Ni40  1  0.33534236  0.33447364  0.66976790  1
  Fe  Fe41  1  0.50100908  0.50164850  0.83582103  1
  Fe  Fe42  1  0.50257610  0.83723591  0.50431823  1
  Ni  Ni43  1  0.33739392  0.66983687  0.66893419  1
  Ni  Ni44  1  0.50219495  0.83603619  0.83456740  1
  Ni  Ni45  1  0.83553431  0.16880411  0.50347075  1
  Fe  Fe46  1  0.66850781  0.00481227  0.66972044  1
  Ni  Ni47  1  0.83498884  0.16981382  0.83535702  1
  Cr  Cr48  1  0.83642347  0.50033453  0.50331130  1
  Ni  Ni49  1  0.66831771  0.33615910  0.66910187  1
  Cr  Cr50  1  0.83572844  0.50004762  0.83657379  1
  Fe  Fe51  1  0.83673887  0.83937241  0.50413688  1
  Ni  Ni52  1  0.66880656  0.67116507  0.66961486  1
  Fe  Fe53  1  0.83627528  0.83816889  0.83595978  1
" 