1346,Ni62Fe28Cr8_12,-237.977122944822, 207.746349979755,Ni62Fe28Cr8,"# generated using pymatgen
 data_Cr2Fe5Ni11
_symmetry_space_group_name_H-M   'P 1'
_cell_length_a   7.42538648
_cell_length_b   7.42538648
_cell_length_c   10.50108227
_cell_angle_alpha   90.00000000
_cell_angle_beta   90.00000000
_cell_angle_gamma   90.00000000
_symmetry_Int_Tables_number   1
_chemical_formula_structural   Cr2Fe5Ni11
_chemical_formula_sum   'Cr6 Fe15 Ni33'
_cell_volume   578.99149884
_cell_formula_units_Z   3
loop_
 _symmetry_equiv_pos_site_id
 _symmetry_equiv_pos_as_xyz
  1  'x, y, z'
loop_
 _atom_site_type_symbol
 _atom_site_label
 _atom_site_symmetry_multiplicity
 _atom_site_fract_x
 _atom_site_fract_y
 _atom_site_fract_z
 _atom_site_occupancy
  Ni  Ni0  1  1.00064644  1.00117658  1.00099189  1
  Cr  Cr1  1  0.16764523  0.16878350  0.16794237  1
  Ni  Ni2  1  1.00163716  1.00029407  0.33811452  1
  Ni  Ni3  1  1.00042381  0.33785202  1.00125041  1
  Fe  Fe4  1  0.16794397  0.50414227  0.16734983  1
  Cr  Cr5  1  1.00044623  0.33813158  0.33579387  1
  Ni  Ni6  1  1.00257009  0.66945249  0.00341981  1
  Fe  Fe7  1  0.16836564  0.83675739  0.16855601  1
  Ni  Ni8  1  1.00222425  0.67047950  0.33614513  1
  Ni  Ni9  1  0.33658067  1.00146305  1.00172848  1
  Cr  Cr10  1  0.50459010  0.17162976  0.16903889  1
  Ni  Ni11  1  0.33732312  1.00162795  0.33791106  1
  Ni  Ni12  1  0.33675588  0.33831865  1.00220263  1
  Ni  Ni13  1  0.50273879  0.50388162  0.16945709  1
  Fe  Fe14  1  0.33698772  0.33535682  0.33778766  1
  Ni  Ni15  1  0.33503748  0.66880268  1.00255754  1
  Fe  Fe16  1  0.50449445  0.83667070  0.16888625  1
  Cr  Cr17  1  0.33469303  0.67044383  0.33685818  1
  Ni  Ni18  1  0.67126546  0.00325122  0.00325430  1
  Ni  Ni19  1  0.83573067  0.16738548  0.16882915  1
  Ni  Ni20  1  0.66989868  0.00307674  0.33683858  1
  Ni  Ni21  1  0.67061204  0.33676917  1.00020633  1
  Fe  Fe22  1  0.83319677  0.50200436  0.16916612  1
  Ni  Ni23  1  0.66919323  0.33612944  0.33876866  1
  Fe  Fe24  1  0.67096563  0.66888573  0.00286448  1
  Ni  Ni25  1  0.83732849  0.83626508  0.17059036  1
  Fe  Fe26  1  0.67179144  0.67067548  0.33710508  1
  Fe  Fe27  1  0.16684001  0.16669662  0.50256025  1
  Fe  Fe28  1  1.00175543  1.00273747  0.66953232  1
  Fe  Fe29  1  0.16962691  0.16834105  0.83783596  1
  Ni  Ni30  1  0.16909279  0.50345701  0.50233651  1
  Ni  Ni31  1  1.00219571  0.33767100  0.67032535  1
  Ni  Ni32  1  0.16940275  0.50383325  0.83765045  1
  Ni  Ni33  1  0.16862614  0.83538140  0.50409220  1
  Ni  Ni34  1  1.00260858  0.66805253  0.66848416  1
  Ni  Ni35  1  0.16729044  0.83417234  0.83578623  1
  Fe  Fe36  1  0.50409795  0.16728152  0.50268384  1
  Ni  Ni37  1  0.33719849  1.00193771  0.66934198  1
  Ni  Ni38  1  0.50458536  0.17061379  0.83740928  1
  Fe  Fe39  1  0.50620313  0.50481069  0.50319857  1
  Cr  Cr40  1  0.33509375  0.33496639  0.66817001  1
  Ni  Ni41  1  0.50201706  0.50158569  0.83540659  1
  Ni  Ni42  1  0.50355845  0.83686686  0.50302434  1
  Fe  Fe43  1  0.33519936  0.67041233  0.66932565  1
  Cr  Cr44  1  0.50369702  0.83509152  0.83767731  1
  Ni  Ni45  1  0.83516809  0.16883739  0.50313839  1
  Ni  Ni46  1  0.66892040  1.00266626  0.66894802  1
  Ni  Ni47  1  0.83597789  0.16893987  0.83666620  1
  Ni  Ni48  1  0.83729692  0.50311711  0.50351295  1
  Fe  Fe49  1  0.67177505  0.33544114  0.67005170  1
  Fe  Fe50  1  0.83610151  0.50475624  0.83474803  1
  Ni  Ni51  1  0.83644936  0.83643727  0.50279314  1
  Ni  Ni52  1  0.67144785  0.67047995  0.66824880  1
  Ni  Ni53  1  0.83817426  0.83719557  0.83492423  1
" 