4212,Ni62Fe28Cr8_6,-237.992170447328, 207.034338934783,Ni62Fe28Cr8,"# generated using pymatgen
 data_Cr2Fe5Ni11
_symmetry_space_group_name_H-M   'P 1'
_cell_length_a   7.42617721
_cell_length_b   7.42617721
_cell_length_c   10.50220053
_cell_angle_alpha   90.00000000
_cell_angle_beta   90.00000000
_cell_angle_gamma   90.00000000
_symmetry_Int_Tables_number   1
_chemical_formula_structural   Cr2Fe5Ni11
_chemical_formula_sum   'Cr6 Fe15 Ni33'
_cell_volume   579.17648853
_cell_formula_units_Z   3
loop_
 _symmetry_equiv_pos_site_id
 _symmetry_equiv_pos_as_xyz
  1  'x, y, z'
loop_
 _atom_site_type_symbol
 _atom_site_label
 _atom_site_symmetry_multiplicity
 _atom_site_fract_x
 _atom_site_fract_y
 _atom_site_fract_z
 _atom_site_occupancy
  Fe  Fe0  1  0.00378054  0.00357115  0.00345540  1
  Ni  Ni1  1  0.16764816  0.16955792  0.17118743  1
  Ni  Ni2  1  0.00323827  1.00254358  0.33536680  1
  Ni  Ni3  1  0.00605482  0.33419701  0.00301514  1
  Ni  Ni4  1  0.17075912  0.50244129  0.16882493  1
  Ni  Ni5  1  0.00457947  0.33672508  0.33727759  1
  Ni  Ni6  1  0.00429668  0.67023665  0.00379903  1
  Ni  Ni7  1  0.16696024  0.83604796  0.16980513  1
  Ni  Ni8  1  1.00223454  0.66956878  0.33510804  1
  Fe  Fe9  1  0.33428971  1.00191344  1.00119988  1
  Fe  Fe10  1  0.50139696  0.16939910  0.16771368  1
  Fe  Fe11  1  0.33213019  0.00281977  0.33688376  1
  Ni  Ni12  1  0.33434913  0.33488340  1.00207448  1
  Ni  Ni13  1  0.50268289  0.50109712  0.16930886  1
  Ni  Ni14  1  0.33371961  0.33531675  0.33411290  1
  Ni  Ni15  1  0.33518544  0.66774373  1.00086131  1
  Cr  Cr16  1  0.50088653  0.83335632  0.17071719  1
  Fe  Fe17  1  0.33273363  0.66693594  0.33578559  1
  Ni  Ni18  1  0.67013907  0.00347264  1.00010412  1
  Ni  Ni19  1  0.83741746  0.17012405  0.16865832  1
  Cr  Cr20  1  0.67139509  1.00176141  0.33736077  1
  Fe  Fe21  1  0.66913976  0.33677048  0.00323880  1
  Fe  Fe22  1  0.83879619  0.50374896  0.16859379  1
  Ni  Ni23  1  0.67070361  0.33710328  0.33213962  1
  Ni  Ni24  1  0.66903937  0.67279570  0.00281663  1
  Ni  Ni25  1  0.83771803  0.83724866  0.16776005  1
  Ni  Ni26  1  0.67273707  0.66891829  0.33646043  1
  Fe  Fe27  1  0.16855014  0.16953383  0.50296829  1
  Fe  Fe28  1  0.00414672  1.00181438  0.66895099  1
  Ni  Ni29  1  0.16877707  0.16825251  0.83481729  1
  Ni  Ni30  1  0.16884594  0.50333290  0.50424508  1
  Fe  Fe31  1  0.00466724  0.33651063  0.66944191  1
  Fe  Fe32  1  0.16972760  0.50300961  0.83669436  1
  Ni  Ni33  1  0.16702036  0.83527440  0.50127018  1
  Ni  Ni34  1  0.00501372  0.67128750  0.66989845  1
  Ni  Ni35  1  0.16837326  0.83656320  0.83666612  1
  Cr  Cr36  1  0.50246948  0.17106902  0.50239445  1
  Ni  Ni37  1  0.33498904  0.00292894  0.66981031  1
  Ni  Ni38  1  0.50248780  0.17036654  0.83743603  1
  Cr  Cr39  1  0.50123460  0.50164650  0.50212691  1
  Ni  Ni40  1  0.33469621  0.33500813  0.67243007  1
  Ni  Ni41  1  0.50096251  0.50198841  0.83631567  1
  Fe  Fe42  1  0.49925309  0.83523726  0.50325162  1
  Ni  Ni43  1  0.33239915  0.67028504  0.67064787  1
  Ni  Ni44  1  0.50110920  0.83629952  0.83455797  1
  Fe  Fe45  1  0.83956327  0.17140024  0.50287484  1
  Fe  Fe46  1  0.66913694  0.00317666  0.67112610  1
  Ni  Ni47  1  0.83738480  0.16807799  0.83478199  1
  Fe  Fe48  1  0.83849205  0.50273025  0.50243542  1
  Ni  Ni49  1  0.66976781  0.33305694  0.67115466  1
  Cr  Cr50  1  0.83683509  0.50263008  0.83807488  1
  Ni  Ni51  1  0.83934503  0.83703395  0.50322820  1
  Cr  Cr52  1  0.67058327  0.67140641  0.66983345  1
  Ni  Ni53  1  0.83875307  0.83837676  0.83753327  1
" 