2937,Ni62Fe28Cr8_14,-237.790913705251, 205.087163300606,Ni62Fe28Cr8,"# generated using pymatgen
 data_Cr2Fe5Ni11
_symmetry_space_group_name_H-M   'P 1'
_cell_length_a   7.42635879
_cell_length_b   7.42635879
_cell_length_c   10.50245731
_cell_angle_alpha   90.00000000
_cell_angle_beta   90.00000000
_cell_angle_gamma   90.00000000
_symmetry_Int_Tables_number   1
_chemical_formula_structural   Cr2Fe5Ni11
_chemical_formula_sum   'Cr6 Fe15 Ni33'
_cell_volume   579.21897331
_cell_formula_units_Z   3
loop_
 _symmetry_equiv_pos_site_id
 _symmetry_equiv_pos_as_xyz
  1  'x, y, z'
loop_
 _atom_site_type_symbol
 _atom_site_label
 _atom_site_symmetry_multiplicity
 _atom_site_fract_x
 _atom_site_fract_y
 _atom_site_fract_z
 _atom_site_occupancy
  Ni  Ni0  1  1.00177914  1.00084735  0.00340918  1
  Ni  Ni1  1  0.17077420  0.16864361  0.16878235  1
  Ni  Ni2  1  0.00344496  0.00321259  0.33564925  1
  Cr  Cr3  1  0.00430173  0.33424016  1.00159950  1
  Ni  Ni4  1  0.16877654  0.50026342  0.17291755  1
  Ni  Ni5  1  0.00364553  0.33434379  0.33719072  1
  Fe  Fe6  1  0.00344156  0.66868841  1.00065209  1
  Fe  Fe7  1  0.16879773  0.83577217  0.16926272  1
  Fe  Fe8  1  1.00168249  0.67084353  0.33786162  1
  Fe  Fe9  1  0.33491675  0.00614520  1.00145249  1
  Ni  Ni10  1  0.50015603  0.17020589  0.16986303  1
  Ni  Ni11  1  0.33421288  1.00097076  0.33607088  1
  Ni  Ni12  1  0.33793274  0.33771612  0.00389019  1
  Ni  Ni13  1  0.50213055  0.50005614  0.17057006  1
  Fe  Fe14  1  0.33673963  0.33357215  0.33623371  1
  Cr  Cr15  1  0.33659262  0.66676780  0.00293553  1
  Cr  Cr16  1  0.50645446  0.83860932  0.16966582  1
  Fe  Fe17  1  0.33668007  0.66779959  0.33713388  1
  Fe  Fe18  1  0.66958879  0.00571120  1.00197384  1
  Fe  Fe19  1  0.83469014  0.16883535  0.17052269  1
  Ni  Ni20  1  0.67045517  0.00281069  0.33655019  1
  Ni  Ni21  1  0.66707683  0.33604607  0.00289876  1
  Cr  Cr22  1  0.83569681  0.50575565  0.17019065  1
  Ni  Ni23  1  0.66905873  0.33640110  0.33640963  1
  Fe  Fe24  1  0.67038011  0.66824845  1.00085480  1
  Ni  Ni25  1  0.83853309  0.83694394  0.16812190  1
  Ni  Ni26  1  0.66761660  0.66932023  0.33691799  1
  Ni  Ni27  1  0.17077150  0.16976627  0.50402841  1
  Cr  Cr28  1  0.00280535  0.00400866  0.66821349  1
  Fe  Fe29  1  0.17210785  0.17071526  0.83566933  1
  Fe  Fe30  1  0.17040979  0.50197971  0.50380552  1
  Ni  Ni31  1  1.00230860  0.33728416  0.66952073  1
  Ni  Ni32  1  0.16855505  0.50307720  0.83286042  1
  Fe  Fe33  1  0.17147598  0.83551060  0.50324112  1
  Ni  Ni34  1  0.00368554  0.66895769  0.67022014  1
  Ni  Ni35  1  0.16883222  0.83731740  0.83620775  1
  Ni  Ni36  1  0.49843028  0.16907262  0.50173351  1
  Ni  Ni37  1  0.33570869  1.00168883  0.67082228  1
  Ni  Ni38  1  0.50105409  0.17026491  0.83642298  1
  Ni  Ni39  1  0.50517084  0.50216652  0.50316541  1
  Ni  Ni40  1  0.33679701  0.33749953  0.67010163  1
  Ni  Ni41  1  0.50428348  0.50127484  0.83529617  1
  Ni  Ni42  1  0.50308810  0.83632772  0.50268635  1
  Ni  Ni43  1  0.33746910  0.66939375  0.66898877  1
  Ni  Ni44  1  0.50196471  0.83776555  0.83541437  1
  Fe  Fe45  1  0.83437165  0.17178175  0.50029628  1
  Cr  Cr46  1  0.66790846  0.00319583  0.66676636  1
  Fe  Fe47  1  0.83385327  0.17099607  0.83632900  1
  Ni  Ni48  1  0.83709336  0.50404860  0.50401019  1
  Ni  Ni49  1  0.66907958  0.33774561  0.66885144  1
  Ni  Ni50  1  0.83605390  0.50306400  0.83434658  1
  Ni  Ni51  1  0.83589048  0.83228430  0.50167274  1
  Ni  Ni52  1  0.66803916  0.66806614  0.67061272  1
  Fe  Fe53  1  0.83516837  0.83390806  0.83706758  1
" 