2938,Ni62Fe4Cr32_16,-225.893579811354, 150.206289900685,Ni62Fe4Cr32,"# generated using pymatgen
 data_Cr19Fe2Ni33
_symmetry_space_group_name_H-M   'P 1'
_cell_length_a   7.48775005
_cell_length_b   7.48775005
_cell_length_c   10.58927767
_cell_angle_alpha   90.00000000
_cell_angle_beta   90.00000000
_cell_angle_gamma   90.00000000
_symmetry_Int_Tables_number   1
_chemical_formula_structural   Cr19Fe2Ni33
_chemical_formula_sum   'Cr19 Fe2 Ni33'
_cell_volume   593.70268535
_cell_formula_units_Z   1
loop_
 _symmetry_equiv_pos_site_id
 _symmetry_equiv_pos_as_xyz
  1  'x, y, z'
loop_
 _atom_site_type_symbol
 _atom_site_label
 _atom_site_symmetry_multiplicity
 _atom_site_fract_x
 _atom_site_fract_y
 _atom_site_fract_z
 _atom_site_occupancy
  Cr  Cr0  1  -0.00019866  -0.00093242  0.99655801  1
  Ni  Ni1  1  0.16869741  0.16756097  0.16627680  1
  Cr  Cr2  1  0.99626432  -0.00008254  0.33300840  1
  Cr  Cr3  1  0.00057761  0.33334539  -0.00124061  1
  Ni  Ni4  1  0.16621667  0.49612071  0.16582219  1
  Ni  Ni5  1  -0.00011501  0.33341336  0.33157040  1
  Ni  Ni6  1  0.99779869  0.66361327  -0.00129723  1
  Cr  Cr7  1  0.16489531  0.83385073  0.16355621  1
  Cr  Cr8  1  0.99618170  0.66328556  0.33193982  1
  Ni  Ni9  1  0.33397006  0.00033332  0.99688174  1
  Cr  Cr10  1  0.49638344  0.16516955  0.16522911  1
  Ni  Ni11  1  0.33585929  0.00004087  0.33181940  1
  Ni  Ni12  1  0.33111117  0.33090602  0.99802839  1
  Ni  Ni13  1  0.49888122  0.49922090  0.16498452  1
  Ni  Ni14  1  0.33000003  0.33122351  0.33053697  1
  Cr  Cr15  1  0.33322552  0.66470675  0.99639972  1
  Fe  Fe16  1  0.50052131  0.83175370  0.16487585  1
  Cr  Cr17  1  0.33511715  0.66570350  0.33293563  1
  Ni  Ni18  1  0.66225794  0.99593198  0.99785666  1
  Cr  Cr19  1  0.83131674  0.16385476  0.16539561  1
  Ni  Ni20  1  0.66312661  0.99512269  0.33362437  1
  Cr  Cr21  1  0.66318195  0.33258666  0.99418518  1
  Ni  Ni22  1  0.83095743  0.50248425  0.16514110  1
  Cr  Cr23  1  0.66649303  0.33221364  0.33459813  1
  Ni  Ni24  1  0.66541556  0.66621766  0.00019782  1
  Ni  Ni25  1  0.82787035  0.82920032  0.16437831  1
  Ni  Ni26  1  0.66574454  0.66830410  0.33077249  1
  Cr  Cr27  1  0.16768948  0.16590615  0.49627252  1
  Fe  Fe28  1  0.99776365  -0.00014767  0.66631076  1
  Ni  Ni29  1  0.16792066  0.16343358  0.83302865  1
  Ni  Ni30  1  0.16478764  0.49770601  0.49724832  1
  Cr  Cr31  1  0.99605542  0.33159565  0.66575254  1
  Ni  Ni32  1  0.16641391  0.49982802  0.83306591  1
  Cr  Cr33  1  0.16749899  0.83217860  0.50254417  1
  Cr  Cr34  1  0.00014356  0.66395011  0.66530205  1
  Ni  Ni35  1  0.16777005  0.83276365  0.83062277  1
  Ni  Ni36  1  0.50018395  0.16214678  0.49878299  1
  Ni  Ni37  1  0.33561284  0.99726883  0.66716013  1
  Ni  Ni38  1  0.49856987  0.16354830  0.83173474  1
  Cr  Cr39  1  0.49751564  0.49733400  0.49961673  1
  Cr  Cr40  1  0.33383964  0.33183301  0.66775819  1
  Ni  Ni41  1  0.49881779  0.49871645  0.83193520  1
  Ni  Ni42  1  0.50039876  0.83527038  0.49768985  1
  Ni  Ni43  1  0.33233020  0.66806428  0.66709735  1
  Ni  Ni44  1  0.49754461  0.83361948  0.83265263  1
  Ni  Ni45  1  0.82914869  0.16427797  0.49979453  1
  Ni  Ni46  1  0.66286847  0.00060584  0.66412183  1
  Ni  Ni47  1  0.82948696  0.16439393  0.82971526  1
  Ni  Ni48  1  0.83175894  0.49805897  0.49725170  1
  Ni  Ni49  1  0.66635263  0.32840453  0.66653736  1
  Ni  Ni50  1  0.83059005  0.49862912  0.83324189  1
  Ni  Ni51  1  0.82826405  0.83343460  0.49806538  1
  Cr  Cr52  1  0.66289650  0.66554084  0.66461534  1
  Cr  Cr53  1  0.83137499  0.83183868  0.83339555  1
" 