4753,Ni62Fe28Cr8_15,-237.757619878255, 208.728054503722,Ni62Fe28Cr8,"# generated using pymatgen
 data_Cr2Fe5Ni11
_symmetry_space_group_name_H-M   'P 1'
_cell_length_a   7.42448841
_cell_length_b   7.42448841
_cell_length_c   10.49981221
_cell_angle_alpha   90.00000000
_cell_angle_beta   90.00000000
_cell_angle_gamma   90.00000000
_symmetry_Int_Tables_number   1
_chemical_formula_structural   Cr2Fe5Ni11
_chemical_formula_sum   'Cr6 Fe15 Ni33'
_cell_volume   578.78144434
_cell_formula_units_Z   3
loop_
 _symmetry_equiv_pos_site_id
 _symmetry_equiv_pos_as_xyz
  1  'x, y, z'
loop_
 _atom_site_type_symbol
 _atom_site_label
 _atom_site_symmetry_multiplicity
 _atom_site_fract_x
 _atom_site_fract_y
 _atom_site_fract_z
 _atom_site_occupancy
  Ni  Ni0  1  0.00372483  0.00394212  1.00215803  1
  Ni  Ni1  1  0.16781344  0.17016984  0.16836654  1
  Cr  Cr2  1  1.00239150  1.00269038  0.33588724  1
  Fe  Fe3  1  0.00377055  0.33293261  0.00328444  1
  Fe  Fe4  1  0.17075018  0.50151652  0.17055619  1
  Ni  Ni5  1  1.00261460  0.33726529  0.33515599  1
  Cr  Cr6  1  0.00332422  0.67230747  0.00356561  1
  Ni  Ni7  1  0.16961914  0.83599857  0.16965260  1
  Ni  Ni8  1  0.00292307  0.66886056  0.33677674  1
  Ni  Ni9  1  0.33253561  1.00275552  1.00233488  1
  Cr  Cr10  1  0.50310532  0.17078294  0.17063584  1
  Fe  Fe11  1  0.33662413  1.00281394  0.33751839  1
  Ni  Ni12  1  0.33615356  0.33694651  1.00171906  1
  Ni  Ni13  1  0.50323118  0.50324917  0.16887581  1
  Ni  Ni14  1  0.33652698  0.33759779  0.33759298  1
  Fe  Fe15  1  0.33725378  0.66899026  1.00187364  1
  Cr  Cr16  1  0.50207938  0.83463089  0.17002283  1
  Ni  Ni17  1  0.33603628  0.66834445  0.33566854  1
  Fe  Fe18  1  0.67185890  1.00239668  1.00218073  1
  Ni  Ni19  1  0.83780276  0.17140713  0.16822586  1
  Ni  Ni20  1  0.66997784  0.00296421  0.33776057  1
  Ni  Ni21  1  0.66898834  0.33765672  0.00402381  1
  Fe  Fe22  1  0.83518522  0.50180466  0.17090205  1
  Ni  Ni23  1  0.66945809  0.33712601  0.33674911  1
  Ni  Ni24  1  0.66780127  0.66862922  1.00245352  1
  Fe  Fe25  1  0.83635636  0.83652405  0.16968689  1
  Ni  Ni26  1  0.66963995  0.66850899  0.33703692  1
  Fe  Fe27  1  0.17008180  0.17043389  0.50382362  1
  Ni  Ni28  1  0.00322061  0.00319688  0.67082059  1
  Ni  Ni29  1  0.16796529  0.16966177  0.83682705  1
  Fe  Fe30  1  0.16943046  0.50292634  0.50286967  1
  Ni  Ni31  1  1.00223124  0.33424600  0.66978911  1
  Ni  Ni32  1  0.17123926  0.50234323  0.83580445  1
  Fe  Fe33  1  0.17051331  0.83523609  0.50374423  1
  Fe  Fe34  1  0.00388733  0.67040327  0.66883841  1
  Ni  Ni35  1  0.17089442  0.83659073  0.83554458  1
  Ni  Ni36  1  0.50294101  0.16931273  0.50154086  1
  Ni  Ni37  1  0.33437376  1.00084461  0.66837906  1
  Cr  Cr38  1  0.50280964  0.16881659  0.83677745  1
  Ni  Ni39  1  0.50312331  0.50278815  0.50294722  1
  Fe  Fe40  1  0.33496918  0.33651055  0.66892872  1
  Fe  Fe41  1  0.50134400  0.50452157  0.83670505  1
  Ni  Ni42  1  0.50259497  0.83649858  0.50212956  1
  Ni  Ni43  1  0.33671704  0.67037617  0.67131888  1
  Ni  Ni44  1  0.50218383  0.83483876  0.83671167  1
  Ni  Ni45  1  0.83514399  0.17108563  0.50380200  1
  Fe  Fe46  1  0.67047182  1.00241112  0.66806873  1
  Ni  Ni47  1  0.83814005  0.16844891  0.83656865  1
  Ni  Ni48  1  0.83660534  0.50264988  0.50179983  1
  Ni  Ni49  1  0.67022687  0.33658955  0.66782199  1
  Cr  Cr50  1  0.83645545  0.50154118  0.83492977  1
  Ni  Ni51  1  0.83535583  0.83486141  0.50311687  1
  Fe  Fe52  1  0.66878669  0.67071186  0.66855892  1
  Ni  Ni53  1  0.83551838  0.83811341  0.83593964  1
" 