4072,Ni62Fe22Cr15_5,-235.364157880256, 197.618708330223,Ni62Fe22Cr15,"# generated using pymatgen
 data_Cr3Fe4Ni11
_symmetry_space_group_name_H-M   'P 1'
_cell_length_a   7.43853717
_cell_length_b   7.43853717
_cell_length_c   10.51968015
_cell_angle_alpha   90.00000000
_cell_angle_beta   90.00000000
_cell_angle_gamma   90.00000000
_symmetry_Int_Tables_number   1
_chemical_formula_structural   Cr3Fe4Ni11
_chemical_formula_sum   'Cr9 Fe12 Ni33'
_cell_volume   582.07320842
_cell_formula_units_Z   3
loop_
 _symmetry_equiv_pos_site_id
 _symmetry_equiv_pos_as_xyz
  1  'x, y, z'
loop_
 _atom_site_type_symbol
 _atom_site_label
 _atom_site_symmetry_multiplicity
 _atom_site_fract_x
 _atom_site_fract_y
 _atom_site_fract_z
 _atom_site_occupancy
  Fe  Fe0  1  0.00259229  1.00178564  1.00061149  1
  Ni  Ni1  1  0.16832074  0.16647482  0.16888160  1
  Ni  Ni2  1  0.00347799  0.99912145  0.33540923  1
  Ni  Ni3  1  0.00203426  0.33698110  1.00043801  1
  Ni  Ni4  1  0.16841524  0.50447947  0.16790951  1
  Cr  Cr5  1  0.00482631  0.33710527  0.33499372  1
  Ni  Ni6  1  0.00264228  0.66731876  0.00248206  1
  Ni  Ni7  1  0.16977248  0.83479506  0.16924720  1
  Ni  Ni8  1  1.00108174  0.66952055  0.33556495  1
  Ni  Ni9  1  0.33534594  1.00085033  1.00080599  1
  Cr  Cr10  1  0.50208229  0.16718770  0.16981647  1
  Ni  Ni11  1  0.33474440  0.00268324  0.33585732  1
  Cr  Cr12  1  0.33315454  0.33516709  0.00288209  1
  Ni  Ni13  1  0.50214242  0.50446049  0.17140346  1
  Fe  Fe14  1  0.33547371  0.33581573  0.33641519  1
  Fe  Fe15  1  0.33372944  0.66972114  0.00261831  1
  Ni  Ni16  1  0.50028323  0.83431054  0.16864824  1
  Ni  Ni17  1  0.33529314  0.66780947  0.33381020  1
  Ni  Ni18  1  0.66744050  1.00145875  1.00053750  1
  Cr  Cr19  1  0.83580214  0.16839282  0.16741488  1
  Ni  Ni20  1  0.66752648  0.99936046  0.33484381  1
  Ni  Ni21  1  0.67028962  0.33505015  0.99984177  1
  Ni  Ni22  1  0.83519113  0.50300850  0.16832252  1
  Fe  Fe23  1  0.66654565  0.33770236  0.33539344  1
  Cr  Cr24  1  0.66964145  0.66923932  0.00221004  1
  Fe  Fe25  1  0.83613514  0.83382949  0.16993554  1
  Ni  Ni26  1  0.66937331  0.66873178  0.33468370  1
  Ni  Ni27  1  0.17091848  0.16817019  0.50265143  1
  Ni  Ni28  1  0.00396711  0.00313009  0.66920550  1
  Ni  Ni29  1  0.16705104  0.16722872  0.83421699  1
  Ni  Ni30  1  0.16959551  0.50150489  0.50200474  1
  Ni  Ni31  1  0.00472154  0.33478177  0.67012801  1
  Ni  Ni32  1  0.16900286  0.50211074  0.83583544  1
  Fe  Fe33  1  0.16701017  0.83637733  0.50047928  1
  Cr  Cr34  1  1.00023706  0.66805128  0.66743389  1
  Ni  Ni35  1  0.16974224  0.83641135  0.83541088  1
  Ni  Ni36  1  0.49945611  0.16996782  0.50085656  1
  Fe  Fe37  1  0.33214524  0.00352142  0.66923329  1
  Fe  Fe38  1  0.50200917  0.16901334  0.83545221  1
  Fe  Fe39  1  0.50210242  0.50037982  0.50207454  1
  Ni  Ni40  1  0.33424151  0.33478259  0.66754517  1
  Ni  Ni41  1  0.50239188  0.50242126  0.83282108  1
  Cr  Cr42  1  0.50155248  0.83477223  0.50137982  1
  Fe  Fe43  1  0.33526584  0.66699645  0.66940985  1
  Fe  Fe44  1  0.50083503  0.83499153  0.83580369  1
  Cr  Cr45  1  0.83560446  0.16824447  0.50203863  1
  Cr  Cr46  1  0.66905812  1.00040067  0.67055585  1
  Ni  Ni47  1  0.83595312  0.16925629  0.83607484  1
  Ni  Ni48  1  0.83423117  0.50378524  0.50235492  1
  Fe  Fe49  1  0.66863426  0.33772026  0.66994005  1
  Ni  Ni50  1  0.83435560  0.49973036  0.83507050  1
  Ni  Ni51  1  0.83602546  0.83361195  0.49940223  1
  Ni  Ni52  1  0.66837397  0.66699869  0.66902142  1
  Ni  Ni53  1  0.83564593  0.83676343  0.83610659  1
" 