8623,Ni62Fe22Cr15_0,-235.156232998823, 195.453485633989,Ni62Fe22Cr15,"# generated using pymatgen
 data_Cr3Fe4Ni11
_symmetry_space_group_name_H-M   'P 1'
_cell_length_a   7.43920861
_cell_length_b   7.43920861
_cell_length_c   10.52062971
_cell_angle_alpha   90.00000000
_cell_angle_beta   90.00000000
_cell_angle_gamma   90.00000000
_symmetry_Int_Tables_number   1
_chemical_formula_structural   Cr3Fe4Ni11
_chemical_formula_sum   'Cr9 Fe12 Ni33'
_cell_volume   582.23084559
_cell_formula_units_Z   3
loop_
 _symmetry_equiv_pos_site_id
 _symmetry_equiv_pos_as_xyz
  1  'x, y, z'
loop_
 _atom_site_type_symbol
 _atom_site_label
 _atom_site_symmetry_multiplicity
 _atom_site_fract_x
 _atom_site_fract_y
 _atom_site_fract_z
 _atom_site_occupancy
  Fe  Fe0  1  0.00286016  1.00024932  0.00327028  1
  Ni  Ni1  1  0.16865844  0.16835372  0.16787230  1
  Ni  Ni2  1  1.00134234  0.00365283  0.33343700  1
  Cr  Cr3  1  0.00349511  0.33479761  0.00310090  1
  Ni  Ni4  1  0.16881469  0.50108324  0.17170162  1
  Ni  Ni5  1  0.00237089  0.33493473  0.33536195  1
  Cr  Cr6  1  1.00023192  0.66913141  0.00274835  1
  Ni  Ni7  1  0.16683285  0.83617375  0.16985480  1
  Fe  Fe8  1  0.00274954  0.66764678  0.33438588  1
  Ni  Ni9  1  0.33468439  0.00388028  1.00051126  1
  Cr  Cr10  1  0.50175957  0.16995320  0.16933448  1
  Ni  Ni11  1  0.33418218  0.00217781  0.33564150  1
  Ni  Ni12  1  0.33494196  0.33349599  1.00083215  1
  Fe  Fe13  1  0.50123361  0.50085642  0.16880622  1
  Ni  Ni14  1  0.33214529  0.33539674  0.33516151  1
  Cr  Cr15  1  0.33580987  0.66843116  0.00188493  1
  Cr  Cr16  1  0.50157684  0.83590515  0.16851421  1
  Ni  Ni17  1  0.33294860  0.66803705  0.33379109  1
  Ni  Ni18  1  0.66860574  1.00033006  1.00144029  1
  Fe  Fe19  1  0.83685050  0.16754580  0.17016561  1
  Ni  Ni20  1  0.67009085  0.00284443  0.33742203  1
  Fe  Fe21  1  0.66617595  0.33637079  1.00185430  1
  Ni  Ni22  1  0.83484444  0.50151068  0.16857018  1
  Ni  Ni23  1  0.67109896  0.33370209  0.33424682  1
  Ni  Ni24  1  0.66972593  0.66905261  1.00061871  1
  Ni  Ni25  1  0.83671982  0.83585365  0.16799379  1
  Cr  Cr26  1  0.66950055  0.66942276  0.33552455  1
  Ni  Ni27  1  0.16835618  0.17046617  0.50257554  1
  Fe  Fe28  1  1.00113002  1.00113616  0.66798015  1
  Fe  Fe29  1  0.17099863  0.16744069  0.83475175  1
  Ni  Ni30  1  0.16731906  0.50001671  0.50146394  1
  Ni  Ni31  1  0.00233816  0.33717467  0.66717949  1
  Ni  Ni32  1  0.17015276  0.50216268  0.83244839  1
  Cr  Cr33  1  0.16893952  0.83438659  0.50084125  1
  Ni  Ni34  1  1.00109231  0.66607081  0.66899938  1
  Ni  Ni35  1  0.16849065  0.83526448  0.83449050  1
  Fe  Fe36  1  0.50252634  0.16677437  0.50194508  1
  Ni  Ni37  1  0.33670547  0.00192212  0.66946210  1
  Ni  Ni38  1  0.50088855  0.16901760  0.83503046  1
  Cr  Cr39  1  0.50081478  0.50133014  0.50177474  1
  Fe  Fe40  1  0.33450692  0.33506718  0.66945672  1
  Fe  Fe41  1  0.50243758  0.50166751  0.83438549  1
  Ni  Ni42  1  0.50304555  0.83764775  0.50318812  1
  Ni  Ni43  1  0.33460190  0.66955394  0.67029820  1
  Fe  Fe44  1  0.50239776  0.83632535  0.83404699  1
  Ni  Ni45  1  0.83447120  0.16871950  0.50084534  1
  Ni  Ni46  1  0.66688261  1.00068119  0.66675605  1
  Cr  Cr47  1  0.83323849  0.16732153  0.83560213  1
  Ni  Ni48  1  0.83699049  0.50028108  0.50370824  1
  Ni  Ni49  1  0.67036586  0.33507303  0.66889107  1
  Fe  Fe50  1  0.83417789  0.50380941  0.83326865  1
  Ni  Ni51  1  0.83339310  0.83661327  0.50279826  1
  Ni  Ni52  1  0.66992025  0.66986266  0.66998330  1
  Ni  Ni53  1  0.83460637  0.83446273  0.83482133  1
" 