6167,Ni62Fe22Cr15_19,-235.23715108207, 195.879561348199,Ni62Fe22Cr15,"# generated using pymatgen
 data_Cr3Fe4Ni11
_symmetry_space_group_name_H-M   'P 1'
_cell_length_a   7.43770389
_cell_length_b   7.43770389
_cell_length_c   10.51850171
_cell_angle_alpha   90.00000000
_cell_angle_beta   90.00000000
_cell_angle_gamma   90.00000000
_symmetry_Int_Tables_number   1
_chemical_formula_structural   Cr3Fe4Ni11
_chemical_formula_sum   'Cr9 Fe12 Ni33'
_cell_volume   581.87761552
_cell_formula_units_Z   3
loop_
 _symmetry_equiv_pos_site_id
 _symmetry_equiv_pos_as_xyz
  1  'x, y, z'
loop_
 _atom_site_type_symbol
 _atom_site_label
 _atom_site_symmetry_multiplicity
 _atom_site_fract_x
 _atom_site_fract_y
 _atom_site_fract_z
 _atom_site_occupancy
  Ni  Ni0  1  1.00032051  1.00175883  0.00263926  1
  Ni  Ni1  1  0.16643179  0.16874100  0.16796896  1
  Fe  Fe2  1  1.00011408  0.99848369  0.33305850  1
  Ni  Ni3  1  1.00105566  0.33501235  0.00219221  1
  Ni  Ni4  1  0.16765725  0.50223688  0.16835639  1
  Ni  Ni5  1  0.00288798  0.33586334  0.33278390  1
  Ni  Ni6  1  0.00345946  0.66932764  1.00137101  1
  Ni  Ni7  1  0.16862025  0.83484832  0.16927226  1
  Ni  Ni8  1  0.00273561  0.66827914  0.33470719  1
  Fe  Fe9  1  0.33165402  1.00138358  0.00276930  1
  Cr  Cr10  1  0.50072380  0.16699715  0.16658135  1
  Ni  Ni11  1  0.33544488  0.99802183  0.33345783  1
  Ni  Ni12  1  0.33514781  0.33817273  0.00204294  1
  Ni  Ni13  1  0.50119951  0.50519009  0.16776784  1
  Fe  Fe14  1  0.33457634  0.33932734  0.33334210  1
  Ni  Ni15  1  0.33406810  0.66764549  0.00288533  1
  Ni  Ni16  1  0.50206497  0.83406905  0.16808661  1
  Ni  Ni17  1  0.33530658  0.66947751  0.33685915  1
  Ni  Ni18  1  0.67147626  0.00274323  1.00156534  1
  Ni  Ni19  1  0.83734724  0.16779322  0.16954717  1
  Ni  Ni20  1  0.66952734  0.99907626  0.33646160  1
  Ni  Ni21  1  0.66959461  0.33494529  1.00120966  1
  Ni  Ni22  1  0.83710476  0.50276543  0.16657306  1
  Cr  Cr23  1  0.67024628  0.33769078  0.33353786  1
  Fe  Fe24  1  0.67015694  0.66599614  0.00305338  1
  Ni  Ni25  1  0.83502490  0.83453262  0.16670866  1
  Ni  Ni26  1  0.66789803  0.67156871  0.33270486  1
  Cr  Cr27  1  0.16657534  0.17009231  0.49713605  1
  Cr  Cr28  1  1.00099389  1.00072604  0.66803940  1
  Fe  Fe29  1  0.16695859  0.17025130  0.83859013  1
  Ni  Ni30  1  0.16790398  0.50268617  0.50276021  1
  Ni  Ni31  1  1.00090456  0.33594487  0.67043066  1
  Fe  Fe32  1  0.16745645  0.50435349  0.83650003  1
  Fe  Fe33  1  0.16875876  0.83135074  0.50101604  1
  Ni  Ni34  1  0.00244999  0.66790449  0.67021817  1
  Ni  Ni35  1  0.16778725  0.83425142  0.83585277  1
  Cr  Cr36  1  0.50241943  0.16776947  0.50239969  1
  Cr  Cr37  1  0.33544412  0.99947089  0.67082759  1
  Fe  Fe38  1  0.50407384  0.17012388  0.83812616  1
  Ni  Ni39  1  0.50147106  0.50601794  0.50214139  1
  Cr  Cr40  1  0.33504707  0.33853627  0.67049157  1
  Ni  Ni41  1  0.50342024  0.50246666  0.83552614  1
  Ni  Ni42  1  0.50384460  0.83367315  0.50155625  1
  Ni  Ni43  1  0.33554001  0.66822039  0.66703354  1
  Cr  Cr44  1  0.50148126  0.83307999  0.83818284  1
  Fe  Fe45  1  0.83491792  0.16874372  0.50138632  1
  Fe  Fe46  1  0.67028632  1.00002087  0.66918021  1
  Ni  Ni47  1  0.83582991  0.16996193  0.83423463  1
  Cr  Cr48  1  0.83728625  0.50415070  0.50296020  1
  Fe  Fe49  1  0.66974911  0.33776992  0.67069999  1
  Ni  Ni50  1  0.83594952  0.50081524  0.83549875  1
  Ni  Ni51  1  0.83386352  0.83451230  0.50252729  1
  Ni  Ni52  1  0.66825107  0.66880991  0.66912529  1
  Fe  Fe53  1  0.83601315  0.83287049  0.83657711  1
" 