4530,Ni62Fe28Cr8_17,-237.886287090214, 205.884782008799,Ni62Fe28Cr8,"# generated using pymatgen
 data_Cr2Fe5Ni11
_symmetry_space_group_name_H-M   'P 1'
_cell_length_a   7.42873575
_cell_length_b   7.42873575
_cell_length_c   10.50581885
_cell_angle_alpha   90.00000000
_cell_angle_beta   90.00000000
_cell_angle_gamma   90.00000000
_symmetry_Int_Tables_number   1
_chemical_formula_structural   Cr2Fe5Ni11
_chemical_formula_sum   'Cr6 Fe15 Ni33'
_cell_volume   579.77532514
_cell_formula_units_Z   3
loop_
 _symmetry_equiv_pos_site_id
 _symmetry_equiv_pos_as_xyz
  1  'x, y, z'
loop_
 _atom_site_type_symbol
 _atom_site_label
 _atom_site_symmetry_multiplicity
 _atom_site_fract_x
 _atom_site_fract_y
 _atom_site_fract_z
 _atom_site_occupancy
  Cr  Cr0  1  1.00125340  0.99843710  0.00398592  1
  Ni  Ni1  1  0.16780611  0.16926999  0.16989243  1
  Ni  Ni2  1  1.00231511  1.00230228  0.33664037  1
  Ni  Ni3  1  1.00158072  0.33899451  0.00495886  1
  Fe  Fe4  1  0.16948540  0.50302596  0.16983865  1
  Fe  Fe5  1  0.00426899  0.33589560  0.33555677  1
  Ni  Ni6  1  0.00548392  0.66764017  0.00288760  1
  Ni  Ni7  1  0.17170450  0.83567523  0.17199275  1
  Ni  Ni8  1  0.00359965  0.66952860  0.33566589  1
  Fe  Fe9  1  0.33584285  1.00058891  0.00441680  1
  Fe  Fe10  1  0.50230048  0.16964002  0.16988819  1
  Ni  Ni11  1  0.33488499  0.00420851  0.33516250  1
  Fe  Fe12  1  0.33541611  0.33676409  0.00511110  1
  Ni  Ni13  1  0.50399487  0.50500361  0.16919194  1
  Ni  Ni14  1  0.33704816  0.33705248  0.33573206  1
  Ni  Ni15  1  0.33523514  0.66857864  0.00375966  1
  Ni  Ni16  1  0.50200318  0.83487406  0.17033732  1
  Ni  Ni17  1  0.33497308  0.66689424  0.33498825  1
  Ni  Ni18  1  0.66686309  0.00314941  0.00420231  1
  Ni  Ni19  1  0.83676756  0.17129194  0.17024583  1
  Ni  Ni20  1  0.67039722  0.00452105  0.33447561  1
  Ni  Ni21  1  0.66766968  0.33540559  0.00380205  1
  Ni  Ni22  1  0.83599004  0.50187188  0.17027891  1
  Fe  Fe23  1  0.66854452  0.33705032  0.33579533  1
  Fe  Fe24  1  0.67115171  0.66898062  0.00393986  1
  Fe  Fe25  1  0.83561453  0.83477993  0.17182548  1
  Ni  Ni26  1  0.66948179  0.66830141  0.33589940  1
  Ni  Ni27  1  0.16790474  0.17028227  0.50305222  1
  Ni  Ni28  1  0.00337568  1.00068805  0.66713527  1
  Cr  Cr29  1  0.16958073  0.17115624  0.83501209  1
  Ni  Ni30  1  0.16921428  0.50215165  0.50101902  1
  Ni  Ni31  1  0.00280168  0.33837316  0.66719298  1
  Ni  Ni32  1  0.16786428  0.50373487  0.83764036  1
  Fe  Fe33  1  0.16841920  0.83559714  0.50142284  1
  Ni  Ni34  1  0.00625014  0.66882681  0.66928841  1
  Ni  Ni35  1  0.17239437  0.83375359  0.83382507  1
  Ni  Ni36  1  0.50076983  0.17001138  0.49911786  1
  Fe  Fe37  1  0.33479302  1.00209781  0.66807943  1
  Ni  Ni38  1  0.50061381  0.16738547  0.83865619  1
  Ni  Ni39  1  0.50104514  0.50340648  0.50208384  1
  Fe  Fe40  1  0.33361374  0.33675870  0.66706154  1
  Fe  Fe41  1  0.50076921  0.50235754  0.83712284  1
  Cr  Cr42  1  0.50147677  0.83386274  0.49964815  1
  Ni  Ni43  1  0.33463382  0.66663772  0.66910161  1
  Ni  Ni44  1  0.50175842  0.83385868  0.83711998  1
  Ni  Ni45  1  0.83833579  0.16906346  0.50007949  1
  Cr  Cr46  1  0.66937259  0.00383956  0.66904401  1
  Cr  Cr47  1  0.83734203  0.17315910  0.83715920  1
  Fe  Fe48  1  0.83718647  0.50333785  0.50131211  1
  Cr  Cr49  1  0.66641533  0.33614498  0.66639092  1
  Ni  Ni50  1  0.83649502  0.50494798  0.83589807  1
  Ni  Ni51  1  0.83694622  0.83508362  0.50151077  1
  Fe  Fe52  1  0.67132856  0.66898551  0.66870275  1
  Fe  Fe53  1  0.83686810  0.83401732  0.83509694  1
" 