977,Ni62Fe19Cr18_14,-233.450062610887, 186.224373608734,Ni62Fe19Cr18,"# generated using pymatgen
 data_Cr11Fe10Ni33
_symmetry_space_group_name_H-M   'P 1'
_cell_length_a   7.44735220
_cell_length_b   7.44735220
_cell_length_c   10.53214649
_cell_angle_alpha   90.00000000
_cell_angle_beta   90.00000000
_cell_angle_gamma   90.00000000
_symmetry_Int_Tables_number   1
_chemical_formula_structural   Cr11Fe10Ni33
_chemical_formula_sum   'Cr11 Fe10 Ni33'
_cell_volume   584.14501867
_cell_formula_units_Z   1
loop_
 _symmetry_equiv_pos_site_id
 _symmetry_equiv_pos_as_xyz
  1  'x, y, z'
loop_
 _atom_site_type_symbol
 _atom_site_label
 _atom_site_symmetry_multiplicity
 _atom_site_fract_x
 _atom_site_fract_y
 _atom_site_fract_z
 _atom_site_occupancy
  Ni  Ni0  1  0.00446029  0.00277969  0.00372487  1
  Ni  Ni1  1  0.16550762  0.16526983  0.16707242  1
  Ni  Ni2  1  0.00239457  0.00277100  0.33369119  1
  Ni  Ni3  1  0.00401052  0.33257013  0.00166676  1
  Cr  Cr4  1  0.16868223  0.50105273  0.16923559  1
  Ni  Ni5  1  0.00202205  0.33219191  0.33430233  1
  Cr  Cr6  1  1.00051487  0.66789899  0.00139176  1
  Ni  Ni7  1  0.16828863  0.83730747  0.16881028  1
  Fe  Fe8  1  0.00288061  0.66893667  0.33551844  1
  Fe  Fe9  1  0.33093099  0.00180858  1.00088768  1
  Cr  Cr10  1  0.49980976  0.16980407  0.16948369  1
  Fe  Fe11  1  0.33030489  0.99993997  0.33523597  1
  Ni  Ni12  1  0.33300821  0.33476408  0.99945384  1
  Ni  Ni13  1  0.50233731  0.50293979  0.16729539  1
  Ni  Ni14  1  0.33275839  0.33647301  0.33509813  1
  Fe  Fe15  1  0.33563721  0.66734364  1.00123093  1
  Fe  Fe16  1  0.49928285  0.83184670  0.16761776  1
  Ni  Ni17  1  0.33504432  0.66757102  0.33470364  1
  Cr  Cr18  1  0.66885145  0.99911200  0.00290892  1
  Ni  Ni19  1  0.83837114  0.16875784  0.16901783  1
  Cr  Cr20  1  0.67036595  1.00057684  0.33476282  1
  Cr  Cr21  1  0.66748958  0.33829332  0.00192534  1
  Ni  Ni22  1  0.83295586  0.50015287  0.16836504  1
  Fe  Fe23  1  0.66957529  0.33630256  0.33451866  1
  Ni  Ni24  1  0.66610826  0.66680786  0.00337730  1
  Fe  Fe25  1  0.83661284  0.83497844  0.16788830  1
  Cr  Cr26  1  0.66668166  0.66755441  0.33381801  1
  Ni  Ni27  1  0.16567293  0.16727698  0.50107658  1
  Ni  Ni28  1  0.00223394  1.00100297  0.66654870  1
  Fe  Fe29  1  0.16969478  0.16899645  0.83465223  1
  Fe  Fe30  1  0.16854998  0.50132211  0.50178090  1
  Ni  Ni31  1  0.00211664  0.33508667  0.66799703  1
  Ni  Ni32  1  0.16898422  0.50099499  0.83384136  1
  Ni  Ni33  1  0.16740589  0.83454311  0.50128471  1
  Ni  Ni34  1  0.00165695  0.66787775  0.66676086  1
  Ni  Ni35  1  0.16866444  0.83463321  0.83387141  1
  Cr  Cr36  1  0.50125934  0.16925827  0.50254308  1
  Ni  Ni37  1  0.33365815  1.00120572  0.66799462  1
  Ni  Ni38  1  0.49863103  0.17034631  0.83261648  1
  Ni  Ni39  1  0.50052791  0.50230677  0.50195824  1
  Ni  Ni40  1  0.33436874  0.33547358  0.66941514  1
  Ni  Ni41  1  0.50011277  0.49975623  0.83471300  1
  Ni  Ni42  1  0.49968021  0.83236638  0.50285562  1
  Ni  Ni43  1  0.33462601  0.66728729  0.66755820  1
  Cr  Cr44  1  0.49930110  0.83413296  0.83339110  1
  Ni  Ni45  1  0.83704322  0.16812622  0.50171477  1
  Ni  Ni46  1  0.66807307  1.00074326  0.66636416  1
  Cr  Cr47  1  0.83528227  0.16942458  0.83273179  1
  Fe  Fe48  1  0.83534790  0.50075376  0.50273489  1
  Ni  Ni49  1  0.66748388  0.33605459  0.66780457  1
  Ni  Ni50  1  0.83486920  0.50078838  0.83321803  1
  Ni  Ni51  1  0.83687924  0.83527059  0.50325923  1
  Ni  Ni52  1  0.66768652  0.66716923  0.66710615  1
  Cr  Cr53  1  0.83670700  0.83340090  0.83260897  1
" 