8357,Ni62Fe28Cr8_8,-237.592929448935, 207.1317181644,Ni62Fe28Cr8,"# generated using pymatgen
 data_Cr2Fe5Ni11
_symmetry_space_group_name_H-M   'P 1'
_cell_length_a   7.42589693
_cell_length_b   7.42589693
_cell_length_c   10.50180415
_cell_angle_alpha   90.00000000
_cell_angle_beta   90.00000000
_cell_angle_gamma   90.00000000
_symmetry_Int_Tables_number   1
_chemical_formula_structural   Cr2Fe5Ni11
_chemical_formula_sum   'Cr6 Fe15 Ni33'
_cell_volume   579.11091261
_cell_formula_units_Z   3
loop_
 _symmetry_equiv_pos_site_id
 _symmetry_equiv_pos_as_xyz
  1  'x, y, z'
loop_
 _atom_site_type_symbol
 _atom_site_label
 _atom_site_symmetry_multiplicity
 _atom_site_fract_x
 _atom_site_fract_y
 _atom_site_fract_z
 _atom_site_occupancy
  Ni  Ni0  1  0.00428400  1.00218879  0.00320344  1
  Fe  Fe1  1  0.16858416  0.16857296  0.17020580  1
  Ni  Ni2  1  1.00243860  1.00238666  0.33515290  1
  Fe  Fe3  1  1.00106861  0.33508005  0.00287908  1
  Ni  Ni4  1  0.16996627  0.50349686  0.17042457  1
  Fe  Fe5  1  0.00328880  0.33572480  0.33601493  1
  Fe  Fe6  1  0.00413308  0.66983892  0.00282734  1
  Fe  Fe7  1  0.16899581  0.83554479  0.16987323  1
  Ni  Ni8  1  0.00346177  0.66913145  0.33535020  1
  Ni  Ni9  1  0.33333539  1.00215855  1.00270517  1
  Fe  Fe10  1  0.50352500  0.16972575  0.17148877  1
  Ni  Ni11  1  0.33573587  0.00415882  0.33569701  1
  Cr  Cr12  1  0.33689259  0.33637886  0.00300343  1
  Ni  Ni13  1  0.50214289  0.50364997  0.17105871  1
  Ni  Ni14  1  0.33607564  0.33601284  0.33549208  1
  Fe  Fe15  1  0.33503836  0.67096092  1.00277066  1
  Ni  Ni16  1  0.50127619  0.83538324  0.17082871  1
  Ni  Ni17  1  0.33392335  0.66814172  0.33384456  1
  Cr  Cr18  1  0.67053462  0.00415438  1.00248024  1
  Ni  Ni19  1  0.83697087  0.16952704  0.17009005  1
  Ni  Ni20  1  0.67013624  0.00453600  0.33424129  1
  Ni  Ni21  1  0.67033814  0.33680653  0.00300835  1
  Ni  Ni22  1  0.83620656  0.50160774  0.16934330  1
  Fe  Fe23  1  0.67015519  0.33496756  0.33534560  1
  Cr  Cr24  1  0.67029489  0.66752830  1.00275177  1
  Ni  Ni25  1  0.83681354  0.83717099  0.17134574  1
  Fe  Fe26  1  0.66984920  0.66951719  0.33340833  1
  Ni  Ni27  1  0.16929662  0.16885865  0.50280501  1
  Ni  Ni28  1  1.00250260  1.00243448  0.66996160  1
  Ni  Ni29  1  0.16807635  0.16824133  0.83577570  1
  Fe  Fe30  1  0.16808533  0.50268345  0.50265908  1
  Fe  Fe31  1  1.00227745  0.33616244  0.66941570  1
  Ni  Ni32  1  0.17068842  0.50369866  0.83479154  1
  Ni  Ni33  1  0.16949436  0.83697215  0.50252592  1
  Ni  Ni34  1  0.00353730  0.66967405  0.67024102  1
  Ni  Ni35  1  0.16935385  0.83637010  0.83688216  1
  Ni  Ni36  1  0.50223279  0.16994191  0.50282250  1
  Fe  Fe37  1  0.33526505  0.00318287  0.66989488  1
  Fe  Fe38  1  0.50250024  0.16979555  0.83410878  1
  Cr  Cr39  1  0.50282864  0.50211820  0.50207097  1
  Ni  Ni40  1  0.33624870  0.33623813  0.66985619  1
  Ni  Ni41  1  0.50220370  0.50308556  0.83491430  1
  Cr  Cr42  1  0.50108481  0.83677330  0.50350565  1
  Ni  Ni43  1  0.33406659  0.66781974  0.67147719  1
  Fe  Fe44  1  0.50090523  0.83602323  0.83465493  1
  Ni  Ni45  1  0.83678355  0.17087033  0.50285641  1
  Ni  Ni46  1  0.67074749  0.00462273  0.67131959  1
  Ni  Ni47  1  0.83699778  0.16910164  0.83536627  1
  Ni  Ni48  1  0.83710516  0.50087964  0.50314601  1
  Ni  Ni49  1  0.66889190  0.33520769  0.67041536  1
  Fe  Fe50  1  0.83714214  0.50213901  0.83496767  1
  Cr  Cr51  1  0.83750854  0.83648378  0.50253566  1
  Ni  Ni52  1  0.67070919  0.66848344  0.67143187  1
  Ni  Ni53  1  0.83762137  0.83740702  0.83438353  1
" 