4774,Ni62Fe4Cr32_19,-225.811969380058, 148.087684976802,Ni62Fe4Cr32,"# generated using pymatgen
 data_Cr19Fe2Ni33
_symmetry_space_group_name_H-M   'P 1'
_cell_length_a   7.49119230
_cell_length_b   7.49119230
_cell_length_c   10.59414576
_cell_angle_alpha   90.00000000
_cell_angle_beta   90.00000000
_cell_angle_gamma   90.00000000
_symmetry_Int_Tables_number   1
_chemical_formula_structural   Cr19Fe2Ni33
_chemical_formula_sum   'Cr19 Fe2 Ni33'
_cell_volume   594.52187042
_cell_formula_units_Z   1
loop_
 _symmetry_equiv_pos_site_id
 _symmetry_equiv_pos_as_xyz
  1  'x, y, z'
loop_
 _atom_site_type_symbol
 _atom_site_label
 _atom_site_symmetry_multiplicity
 _atom_site_fract_x
 _atom_site_fract_y
 _atom_site_fract_z
 _atom_site_occupancy
  Ni  Ni0  1  0.99733458  0.99670153  -0.00096413  1
  Ni  Ni1  1  0.16601723  0.16180731  0.16767138  1
  Ni  Ni2  1  0.99699253  0.99800865  0.33251248  1
  Cr  Cr3  1  -0.00019653  0.33505570  0.00123528  1
  Ni  Ni4  1  0.16539438  0.49918380  0.16871463  1
  Cr  Cr5  1  0.00013726  0.33052503  0.33286358  1
  Ni  Ni6  1  0.99798492  0.66854793  0.99713399  1
  Cr  Cr7  1  0.16315162  0.83082257  0.16582277  1
  Ni  Ni8  1  0.99664873  0.66619196  0.33184507  1
  Ni  Ni9  1  0.33347994  0.99696653  -0.00159710  1
  Ni  Ni10  1  0.49768563  0.16049564  0.16577840  1
  Ni  Ni11  1  0.33183895  -0.00079417  0.33108349  1
  Cr  Cr12  1  0.33076163  0.32840447  0.00216146  1
  Cr  Cr13  1  0.49662361  0.50119256  0.16929311  1
  Ni  Ni14  1  0.33129333  0.33067673  0.33132211  1
  Cr  Cr15  1  0.32961528  0.66648750  0.99622391  1
  Ni  Ni16  1  0.49922006  0.83586799  0.16864630  1
  Ni  Ni17  1  0.33313495  0.66528839  0.33386949  1
  Ni  Ni18  1  0.66406580  0.99662450  0.00043828  1
  Ni  Ni19  1  0.83230536  0.15978112  0.16566743  1
  Fe  Fe20  1  0.66572901  0.99713831  0.33139196  1
  Cr  Cr21  1  0.66536951  0.32796368  -0.00051614  1
  Cr  Cr22  1  0.83279623  0.50464628  0.16515717  1
  Cr  Cr23  1  0.66691646  0.33125334  0.33151046  1
  Cr  Cr24  1  0.66678223  0.67013822  0.99697750  1
  Ni  Ni25  1  0.83066864  0.83572490  0.16671158  1
  Ni  Ni26  1  0.66538989  0.66952207  0.33498330  1
  Ni  Ni27  1  0.16278142  0.16501406  0.49685874  1
  Ni  Ni28  1  0.99716980  -0.00002067  0.66297896  1
  Cr  Cr29  1  0.16304333  0.16271065  0.83080019  1
  Ni  Ni30  1  0.16672212  0.49904056  0.49606349  1
  Ni  Ni31  1  0.99591820  0.33347586  0.66094242  1
  Ni  Ni32  1  0.16316765  0.50100495  0.83061542  1
  Cr  Cr33  1  0.16448917  0.83275188  0.49655430  1
  Cr  Cr34  1  -0.00130900  0.66685960  0.66536079  1
  Ni  Ni35  1  0.16398506  0.83090075  0.83220743  1
  Cr  Cr36  1  0.49798325  0.16612078  0.49773752  1
  Cr  Cr37  1  0.32996413  0.99350664  0.66636618  1
  Ni  Ni38  1  0.49879380  0.16035688  0.83328225  1
  Ni  Ni39  1  0.49900525  0.50055636  0.49803904  1
  Cr  Cr40  1  0.32863008  0.33178237  0.66335794  1
  Cr  Cr41  1  0.50163381  0.49481134  0.82831801  1
  Fe  Fe42  1  0.49905710  0.82858057  0.49721008  1
  Ni  Ni43  1  0.33406682  0.66346529  0.66435146  1
  Ni  Ni44  1  0.49870249  0.83145230  0.83017513  1
  Ni  Ni45  1  0.83404431  0.16357758  0.49928446  1
  Cr  Cr46  1  0.66623753  0.99423313  0.66335388  1
  Cr  Cr47  1  0.83017850  0.16654199  0.82954880  1
  Ni  Ni48  1  0.82999218  0.49988557  0.49952810  1
  Ni  Ni49  1  0.66727830  0.33289072  0.66349909  1
  Ni  Ni50  1  0.83434963  0.50138009  0.82904073  1
  Ni  Ni51  1  0.83144979  0.83162906  0.49580838  1
  Ni  Ni52  1  0.66547458  0.66368966  0.66325338  1
  Ni  Ni53  1  0.83302641  0.83255638  0.83250297  1
" 