6670,Ni62Fe28Cr8_7,-237.410497727914, 204.14651884145,Ni62Fe28Cr8,"# generated using pymatgen
 data_Cr2Fe5Ni11
_symmetry_space_group_name_H-M   'P 1'
_cell_length_a   7.42477361
_cell_length_b   7.42477361
_cell_length_c   10.50021554
_cell_angle_alpha   90.00000000
_cell_angle_beta   90.00000000
_cell_angle_gamma   90.00000000
_symmetry_Int_Tables_number   1
_chemical_formula_structural   Cr2Fe5Ni11
_chemical_formula_sum   'Cr6 Fe15 Ni33'
_cell_volume   578.84814559
_cell_formula_units_Z   3
loop_
 _symmetry_equiv_pos_site_id
 _symmetry_equiv_pos_as_xyz
  1  'x, y, z'
loop_
 _atom_site_type_symbol
 _atom_site_label
 _atom_site_symmetry_multiplicity
 _atom_site_fract_x
 _atom_site_fract_y
 _atom_site_fract_z
 _atom_site_occupancy
  Ni  Ni0  1  1.00252824  0.00338639  1.00276715  1
  Ni  Ni1  1  0.17086744  0.17048731  0.17065774  1
  Fe  Fe2  1  1.00273482  1.00266525  0.33616074  1
  Cr  Cr3  1  1.00267967  0.33474790  0.00304883  1
  Ni  Ni4  1  0.17015103  0.50162631  0.17021203  1
  Ni  Ni5  1  0.00451544  0.33662923  0.33587841  1
  Cr  Cr6  1  0.00444734  0.67088264  1.00166406  1
  Fe  Fe7  1  0.17016186  0.83677840  0.17009249  1
  Ni  Ni8  1  1.00263555  0.66879303  0.33651498  1
  Fe  Fe9  1  0.33638518  0.00308182  0.00342870  1
  Ni  Ni10  1  0.50143629  0.16848632  0.16757418  1
  Ni  Ni11  1  0.33623717  1.00273316  0.33665516  1
  Ni  Ni12  1  0.33754335  0.33612112  0.00324731  1
  Fe  Fe13  1  0.50151647  0.50279024  0.16844510  1
  Fe  Fe14  1  0.33384355  0.33613397  0.33626294  1
  Ni  Ni15  1  0.33633578  0.66945870  0.00335047  1
  Ni  Ni16  1  0.50343735  0.83715615  0.17012068  1
  Fe  Fe17  1  0.33571126  0.66962174  0.33603868  1
  Ni  Ni18  1  0.66944678  0.00459386  0.00385295  1
  Fe  Fe19  1  0.83612556  0.16823189  0.16893271  1
  Fe  Fe20  1  0.66960388  1.00079462  0.33643372  1
  Ni  Ni21  1  0.66766801  0.33368864  1.00190816  1
  Ni  Ni22  1  0.83695944  0.50362408  0.17107571  1
  Cr  Cr23  1  0.67038171  0.33590928  0.33643483  1
  Cr  Cr24  1  0.66802217  0.67019626  1.00258158  1
  Ni  Ni25  1  0.83496270  0.83643809  0.17067333  1
  Ni  Ni26  1  0.67000285  0.67139029  0.33648826  1
  Ni  Ni27  1  0.17071663  0.17016442  0.50188790  1
  Fe  Fe28  1  1.00258850  1.00097485  0.67014380  1
  Ni  Ni29  1  0.17069398  0.16823545  0.83599663  1
  Ni  Ni30  1  0.16934186  0.50216142  0.50157899  1
  Cr  Cr31  1  0.00376533  0.33641765  0.66971331  1
  Fe  Fe32  1  0.17097153  0.50334561  0.83614033  1
  Ni  Ni33  1  0.16863371  0.83621338  0.50173242  1
  Ni  Ni34  1  1.00105949  0.67066983  0.66980089  1
  Ni  Ni35  1  0.16934449  0.83784223  0.83691268  1
  Ni  Ni36  1  0.50177314  0.16883144  0.50470481  1
  Fe  Fe37  1  0.33622584  0.00369253  0.66863233  1
  Fe  Fe38  1  0.50354890  0.16949452  0.83639025  1
  Fe  Fe39  1  0.50257929  0.50293592  0.50368354  1
  Ni  Ni40  1  0.33676478  0.33422648  0.66872568  1
  Ni  Ni41  1  0.50339834  0.50169010  0.83698904  1
  Ni  Ni42  1  0.50442846  0.83697603  0.50193947  1
  Cr  Cr43  1  0.33589264  0.66995609  0.66926016  1
  Ni  Ni44  1  0.50303985  0.83640141  0.83648281  1
  Ni  Ni45  1  0.83604949  0.16812141  0.50217230  1
  Ni  Ni46  1  0.66924742  1.00217579  0.66878104  1
  Ni  Ni47  1  0.83538232  0.16859406  0.83751506  1
  Fe  Fe48  1  0.83688751  0.50485227  0.50248619  1
  Fe  Fe49  1  0.66824919  0.33663730  0.67007887  1
  Ni  Ni50  1  0.83393862  0.50303634  0.83422941  1
  Ni  Ni51  1  0.83547694  0.83559797  0.50344316  1
  Ni  Ni52  1  0.67123268  0.67112614  0.66938041  1
  Ni  Ni53  1  0.83615651  0.83691102  0.83442595  1
" 