4570,Ni62Fe4Cr32_0,-225.788600847657, 150.726329937711,Ni62Fe4Cr32,"# generated using pymatgen
 data_Cr19Fe2Ni33
_symmetry_space_group_name_H-M   'P 1'
_cell_length_a   7.49008281
_cell_length_b   7.49008281
_cell_length_c   10.59257670
_cell_angle_alpha   90.00000000
_cell_angle_beta   90.00000000
_cell_angle_gamma   90.00000000
_symmetry_Int_Tables_number   1
_chemical_formula_structural   Cr19Fe2Ni33
_chemical_formula_sum   'Cr19 Fe2 Ni33'
_cell_volume   594.25775292
_cell_formula_units_Z   1
loop_
 _symmetry_equiv_pos_site_id
 _symmetry_equiv_pos_as_xyz
  1  'x, y, z'
loop_
 _atom_site_type_symbol
 _atom_site_label
 _atom_site_symmetry_multiplicity
 _atom_site_fract_x
 _atom_site_fract_y
 _atom_site_fract_z
 _atom_site_occupancy
  Ni  Ni0  1  0.99784861  0.99821392  -0.00116042  1
  Cr  Cr1  1  0.16483691  0.16475565  0.16454919  1
  Ni  Ni2  1  0.99759005  0.99772603  0.33069649  1
  Ni  Ni3  1  0.99531151  0.33095431  -0.00085210  1
  Cr  Cr4  1  0.16286990  0.49727699  0.16614145  1
  Ni  Ni5  1  0.99512183  0.33097445  0.33078457  1
  Cr  Cr6  1  0.99783731  0.66661854  -0.00112637  1
  Ni  Ni7  1  0.16348222  0.83400169  0.16683475  1
  Ni  Ni8  1  0.99700197  0.66680510  0.33010742  1
  Cr  Cr9  1  0.33097956  0.99646869  -0.00073282  1
  Ni  Ni10  1  0.50069687  0.16445605  0.16674110  1
  Ni  Ni11  1  0.33345728  0.99791848  0.33196832  1
  Ni  Ni12  1  0.33358512  0.33189452  0.99805492  1
  Cr  Cr13  1  0.50084731  0.49652370  0.16533627  1
  Ni  Ni14  1  0.33460306  0.32931853  0.33282218  1
  Cr  Cr15  1  0.33213185  0.66643860  0.99785255  1
  Ni  Ni16  1  0.49920608  0.83461068  0.16771649  1
  Cr  Cr17  1  0.33164969  0.66761160  0.33218934  1
  Cr  Cr18  1  0.66651878  -0.00125714  -0.00030307  1
  Ni  Ni19  1  0.83109888  0.16628105  0.16577185  1
  Ni  Ni20  1  0.66431608  -0.00014346  0.33099195  1
  Ni  Ni21  1  0.66656319  0.33267620  -0.00086563  1
  Ni  Ni22  1  0.83175019  0.49643223  0.16653565  1
  Ni  Ni23  1  0.66572368  0.32992332  0.33176116  1
  Cr  Cr24  1  0.66543384  0.66424285  0.99696998  1
  Fe  Fe25  1  0.83209808  0.83306191  0.16753973  1
  Ni  Ni26  1  0.66582151  0.66570377  0.33088707  1
  Cr  Cr27  1  0.16501320  0.16378690  0.49907553  1
  Ni  Ni28  1  0.00068021  0.99707212  0.66583266  1
  Cr  Cr29  1  0.16461858  0.16439425  0.83181731  1
  Cr  Cr30  1  0.16569155  0.49886702  0.49841913  1
  Ni  Ni31  1  -0.00153534  0.33122254  0.66546641  1
  Cr  Cr32  1  0.16570036  0.49715576  0.83084273  1
  Ni  Ni33  1  0.16632095  0.83322127  0.49943777  1
  Fe  Fe34  1  -0.00080177  0.66685405  0.66644413  1
  Ni  Ni35  1  0.16405270  0.83252532  0.82916170  1
  Ni  Ni36  1  0.49802790  0.16486576  0.49600009  1
  Ni  Ni37  1  0.32999670  0.99469312  0.66434058  1
  Cr  Cr38  1  0.49626715  0.16648116  0.83311439  1
  Ni  Ni39  1  0.49854128  0.49860238  0.49884603  1
  Ni  Ni40  1  0.33213927  0.33357590  0.66453192  1
  Ni  Ni41  1  0.49967891  0.50008814  0.83112649  1
  Ni  Ni42  1  0.49699527  0.83188288  0.49868616  1
  Ni  Ni43  1  0.33382096  0.66710326  0.66559640  1
  Ni  Ni44  1  0.49803922  0.82850134  0.82904404  1
  Ni  Ni45  1  0.83195285  0.16498708  0.49660731  1
  Cr  Cr46  1  0.66472481  0.99704468  0.66422786  1
  Cr  Cr47  1  0.83447508  0.16522252  0.83264414  1
  Cr  Cr48  1  0.83090991  0.49867154  0.49733813  1
  Cr  Cr49  1  0.66526083  0.33371982  0.66395325  1
  Ni  Ni50  1  0.83064597  0.49998010  0.83138198  1
  Cr  Cr51  1  0.83175632  0.83243556  0.49730392  1
  Ni  Ni52  1  0.66230840  0.66495069  0.66768678  1
  Ni  Ni53  1  0.83330085  0.82957001  0.83082462  1
" 