2779,Ni62Fe22Cr15_6,-235.446465238545, 201.11818148049,Ni62Fe22Cr15,"# generated using pymatgen
 data_Cr3Fe4Ni11
_symmetry_space_group_name_H-M   'P 1'
_cell_length_a   7.43939710
_cell_length_b   7.43939710
_cell_length_c   10.52089628
_cell_angle_alpha   90.00000000
_cell_angle_beta   90.00000000
_cell_angle_gamma   90.00000000
_symmetry_Int_Tables_number   1
_chemical_formula_structural   Cr3Fe4Ni11
_chemical_formula_sum   'Cr9 Fe12 Ni33'
_cell_volume   582.27510414
_cell_formula_units_Z   3
loop_
 _symmetry_equiv_pos_site_id
 _symmetry_equiv_pos_as_xyz
  1  'x, y, z'
loop_
 _atom_site_type_symbol
 _atom_site_label
 _atom_site_symmetry_multiplicity
 _atom_site_fract_x
 _atom_site_fract_y
 _atom_site_fract_z
 _atom_site_occupancy
  Ni  Ni0  1  0.99994653  1.00109259  0.00231908  1
  Fe  Fe1  1  0.16753788  0.16769427  0.16936874  1
  Ni  Ni2  1  1.00115364  0.00226207  0.33515627  1
  Cr  Cr3  1  0.00211517  0.33507908  1.00067976  1
  Fe  Fe4  1  0.16974471  0.50185009  0.16984835  1
  Ni  Ni5  1  0.00220980  0.33479627  0.33611319  1
  Ni  Ni6  1  1.00047760  0.66951952  1.00103443  1
  Fe  Fe7  1  0.16706832  0.83602899  0.16928843  1
  Ni  Ni8  1  0.00269383  0.66851653  0.33640307  1
  Ni  Ni9  1  0.33616402  0.00330659  1.00122864  1
  Cr  Cr10  1  0.50162039  0.16991716  0.16919784  1
  Ni  Ni11  1  0.33438812  1.00178076  0.33528826  1
  Ni  Ni12  1  0.33543694  0.33424720  1.00126931  1
  Ni  Ni13  1  0.50055437  0.50257423  0.16991612  1
  Ni  Ni14  1  0.33395265  0.33590119  0.33503462  1
  Cr  Cr15  1  0.33460032  0.66796832  0.00350056  1
  Fe  Fe16  1  0.50364372  0.83473873  0.16988016  1
  Ni  Ni17  1  0.33395169  0.66789218  0.33363563  1
  Ni  Ni18  1  0.66946893  1.00161514  1.00052457  1
  Ni  Ni19  1  0.83614807  0.16524906  0.16964202  1
  Ni  Ni20  1  0.67003219  0.00226585  0.33541390  1
  Ni  Ni21  1  0.66797129  0.33371168  1.00056437  1
  Cr  Cr22  1  0.83319122  0.50259525  0.16873784  1
  Ni  Ni23  1  0.66940959  0.33435813  0.33653006  1
  Fe  Fe24  1  0.67054754  0.67020640  1.00178563  1
  Ni  Ni25  1  0.83647074  0.83658219  0.16854228  1
  Ni  Ni26  1  0.66892851  0.66895255  0.33376668  1
  Ni  Ni27  1  0.16813977  0.16732411  0.50157664  1
  Ni  Ni28  1  1.00079509  0.00530286  0.66810121  1
  Ni  Ni29  1  0.16926277  0.16835796  0.83514533  1
  Fe  Fe30  1  0.16751584  0.49990053  0.50116162  1
  Ni  Ni31  1  1.00185237  0.33414617  0.66907776  1
  Ni  Ni32  1  0.16848028  0.49971971  0.83439246  1
  Fe  Fe33  1  0.16796541  0.83694767  0.50104683  1
  Cr  Cr34  1  1.00124222  0.66628268  0.66793309  1
  Cr  Cr35  1  0.16774778  0.83779207  0.83479696  1
  Ni  Ni36  1  0.50099286  0.16823800  0.50209673  1
  Ni  Ni37  1  0.33641974  0.00317797  0.66905937  1
  Fe  Fe38  1  0.50208725  0.16697108  0.83556540  1
  Cr  Cr39  1  0.50282163  0.50095191  0.50082938  1
  Fe  Fe40  1  0.33303018  0.33308987  0.66866517  1
  Cr  Cr41  1  0.50282024  0.50133789  0.83442193  1
  Cr  Cr42  1  0.50110521  0.83606766  0.50160355  1
  Ni  Ni43  1  0.33569920  0.66853966  0.66849503  1
  Fe  Fe44  1  0.50434618  0.83766722  0.83358552  1
  Ni  Ni45  1  0.83644189  0.16884209  0.50110310  1
  Ni  Ni46  1  0.66836140  0.00255267  0.66963881  1
  Ni  Ni47  1  0.83522639  0.16717271  0.83482965  1
  Ni  Ni48  1  0.83563072  0.50104818  0.50107842  1
  Fe  Fe49  1  0.67087665  0.33338098  0.66826172  1
  Ni  Ni50  1  0.83446479  0.50244698  0.83560853  1
  Fe  Fe51  1  0.83539652  0.83683509  0.50092255  1
  Ni  Ni52  1  0.66865154  0.66960082  0.67043821  1
  Ni  Ni53  1  0.83355102  0.83595613  0.83624791  1
" 