8763,Ni62Fe19Cr18_12,-233.526449012787, 184.606377983889,Ni62Fe19Cr18,"# generated using pymatgen
 data_Cr11Fe10Ni33
_symmetry_space_group_name_H-M   'P 1'
_cell_length_a   7.45083878
_cell_length_b   7.45083878
_cell_length_c   10.53707726
_cell_angle_alpha   90.00000000
_cell_angle_beta   90.00000000
_cell_angle_gamma   90.00000000
_symmetry_Int_Tables_number   1
_chemical_formula_structural   Cr11Fe10Ni33
_chemical_formula_sum   'Cr11 Fe10 Ni33'
_cell_volume   584.96582875
_cell_formula_units_Z   1
loop_
 _symmetry_equiv_pos_site_id
 _symmetry_equiv_pos_as_xyz
  1  'x, y, z'
loop_
 _atom_site_type_symbol
 _atom_site_label
 _atom_site_symmetry_multiplicity
 _atom_site_fract_x
 _atom_site_fract_y
 _atom_site_fract_z
 _atom_site_occupancy
  Cr  Cr0  1  0.99919106  0.00190476  0.00273152  1
  Fe  Fe1  1  0.16842295  0.16835581  0.16822776  1
  Ni  Ni2  1  0.00359334  0.00178890  0.33273874  1
  Fe  Fe3  1  1.00044421  0.33455391  0.00179612  1
  Ni  Ni4  1  0.16664280  0.49969891  0.16815130  1
  Ni  Ni5  1  0.00163921  0.33509464  0.33287080  1
  Cr  Cr6  1  1.00041661  0.66633918  0.00258594  1
  Ni  Ni7  1  0.16740930  0.83514654  0.16952751  1
  Ni  Ni8  1  0.00263692  0.66638966  0.33384400  1
  Ni  Ni9  1  0.33843038  0.00276591  0.00375333  1
  Ni  Ni10  1  0.50098231  0.16832477  0.16657438  1
  Fe  Fe11  1  0.33239056  0.00160152  0.33447498  1
  Ni  Ni12  1  0.33658479  0.33422776  0.00169269  1
  Ni  Ni13  1  0.50136796  0.49837264  0.16666255  1
  Fe  Fe14  1  0.33384063  0.33374426  0.33396638  1
  Cr  Cr15  1  0.33541605  0.66717031  0.00205432  1
  Ni  Ni16  1  0.50067987  0.83658627  0.16562923  1
  Cr  Cr17  1  0.33330908  0.66777233  0.33420596  1
  Ni  Ni18  1  0.66608994  0.00275575  1.00050616  1
  Ni  Ni19  1  0.83381934  0.16910745  0.16731713  1
  Cr  Cr20  1  0.66660848  0.00261979  0.33334392  1
  Ni  Ni21  1  0.66685559  0.33313492  0.00231706  1
  Ni  Ni22  1  0.83527485  0.49939728  0.16797995  1
  Fe  Fe23  1  0.66821336  0.33539010  0.33329384  1
  Fe  Fe24  1  0.66696313  0.66847094  0.00139337  1
  Ni  Ni25  1  0.83517169  0.83476828  0.16769405  1
  Cr  Cr26  1  0.66770200  0.66561286  0.33350294  1
  Fe  Fe27  1  0.16901105  0.16782241  0.50147558  1
  Ni  Ni28  1  0.00115831  0.00117913  0.66744499  1
  Cr  Cr29  1  0.16864219  0.17036209  0.83380665  1
  Ni  Ni30  1  0.16700119  0.50110207  0.50239297  1
  Ni  Ni31  1  0.00212816  0.33608117  0.66861943  1
  Ni  Ni32  1  0.16746033  0.49947138  0.83271301  1
  Ni  Ni33  1  0.16861251  0.83413060  0.50206136  1
  Ni  Ni34  1  0.00212135  0.66600316  0.66676548  1
  Cr  Cr35  1  0.16860874  0.83305693  0.83171488  1
  Ni  Ni36  1  0.49838297  0.16786171  0.50127928  1
  Ni  Ni37  1  0.33620368  0.99992723  0.66555963  1
  Ni  Ni38  1  0.50267626  0.16652017  0.83543087  1
  Ni  Ni39  1  0.49959143  0.49990863  0.50205745  1
  Fe  Fe40  1  0.33355474  0.33532026  0.66736538  1
  Fe  Fe41  1  0.50114731  0.50107090  0.83454863  1
  Ni  Ni42  1  0.49813501  0.83548458  0.50412095  1
  Ni  Ni43  1  0.33480293  0.66764861  0.66690691  1
  Ni  Ni44  1  0.50411817  0.83587667  0.83353853  1
  Cr  Cr45  1  0.83502252  0.16878236  0.50145907  1
  Ni  Ni46  1  0.66589858  0.99994522  0.66998465  1
  Ni  Ni47  1  0.83226048  0.16738640  0.83445676  1
  Ni  Ni48  1  0.83666237  0.50079722  0.50097341  1
  Cr  Cr49  1  0.66760827  0.33418348  0.66705418  1
  Fe  Fe50  1  0.83436937  0.50109781  0.83386235  1
  Cr  Cr51  1  0.83631122  0.83299786  0.50298034  1
  Ni  Ni52  1  0.66631097  0.66864312  0.66877484  1
  Ni  Ni53  1  0.83084028  0.83498018  0.83255327  1
" 