1165,Ni62Fe4Cr32_7,-225.869456017613, 149.612980557238,Ni62Fe4Cr32,"# generated using pymatgen
 data_Cr19Fe2Ni33
_symmetry_space_group_name_H-M   'P 1'
_cell_length_a   7.48573816
_cell_length_b   7.48573816
_cell_length_c   10.58643243
_cell_angle_alpha   90.00000000
_cell_angle_beta   90.00000000
_cell_angle_gamma   90.00000000
_symmetry_Int_Tables_number   1
_chemical_formula_structural   Cr19Fe2Ni33
_chemical_formula_sum   'Cr19 Fe2 Ni33'
_cell_volume   593.22424658
_cell_formula_units_Z   1
loop_
 _symmetry_equiv_pos_site_id
 _symmetry_equiv_pos_as_xyz
  1  'x, y, z'
loop_
 _atom_site_type_symbol
 _atom_site_label
 _atom_site_symmetry_multiplicity
 _atom_site_fract_x
 _atom_site_fract_y
 _atom_site_fract_z
 _atom_site_occupancy
  Cr  Cr0  1  -0.00108594  0.00229895  0.00012884  1
  Ni  Ni1  1  0.16616092  0.16354091  0.16530813  1
  Ni  Ni2  1  0.99693013  -0.00094220  0.33065520  1
  Ni  Ni3  1  0.99765297  0.32992983  0.99860409  1
  Cr  Cr4  1  0.16742763  0.49873601  0.16673135  1
  Cr  Cr5  1  0.99866120  0.32851359  0.33145069  1
  Cr  Cr6  1  0.99765669  0.66497560  0.00118637  1
  Ni  Ni7  1  0.16798517  0.83411264  0.16603924  1
  Cr  Cr8  1  0.99855538  0.66855473  0.33249072  1
  Ni  Ni9  1  0.33245412  0.99756804  0.00064663  1
  Ni  Ni10  1  0.49847423  0.16320085  0.16850040  1
  Ni  Ni11  1  0.33414404  -0.00097535  0.32959706  1
  Cr  Cr12  1  0.33216443  0.32798735  0.99851502  1
  Cr  Cr13  1  0.49892382  0.49872983  0.16747718  1
  Ni  Ni14  1  0.33481000  0.33045048  0.33391979  1
  Ni  Ni15  1  0.33390563  0.66854933  -0.00110883  1
  Ni  Ni16  1  0.49776673  0.83303562  0.16638682  1
  Ni  Ni17  1  0.33501370  0.66675939  0.33320960  1
  Cr  Cr18  1  0.66332712  -0.00025706  0.00088835  1
  Ni  Ni19  1  0.83150276  0.16483279  0.16709313  1
  Ni  Ni20  1  0.66504068  -0.00091576  0.33222192  1
  Cr  Cr21  1  0.66813584  0.33010983  -0.00067209  1
  Fe  Fe22  1  0.83060202  0.49795018  0.16683671  1
  Ni  Ni23  1  0.66330923  0.32938565  0.33204973  1
  Cr  Cr24  1  0.66397279  0.66607827  0.99761087  1
  Ni  Ni25  1  0.83033669  0.83392085  0.16866709  1
  Ni  Ni26  1  0.66306981  0.66767690  0.33246009  1
  Cr  Cr27  1  0.16625909  0.16537494  0.50019478  1
  Ni  Ni28  1  0.99700946  0.00310651  0.66510879  1
  Ni  Ni29  1  0.16438681  0.16629204  0.83099349  1
  Ni  Ni30  1  0.16898080  0.49631777  0.49832043  1
  Ni  Ni31  1  0.99793100  0.32943418  0.66703226  1
  Cr  Cr32  1  0.16511135  0.49657363  0.83167042  1
  Cr  Cr33  1  0.16595245  0.83489533  0.49758145  1
  Cr  Cr34  1  0.99734952  0.66483350  0.66248286  1
  Cr  Cr35  1  0.16819836  0.83623821  0.83272018  1
  Ni  Ni36  1  0.50086435  0.16533695  0.49784491  1
  Ni  Ni37  1  0.33455640  0.00054586  0.66587716  1
  Cr  Cr38  1  0.49896184  0.16253365  0.82999282  1
  Ni  Ni39  1  0.49923057  0.49755007  0.49865897  1
  Ni  Ni40  1  0.33340097  0.33055958  0.66390610  1
  Fe  Fe41  1  0.50035172  0.49803743  0.83005557  1
  Ni  Ni42  1  0.50166302  0.83344033  0.49793248  1
  Cr  Cr43  1  0.33560362  0.66497296  0.66369951  1
  Ni  Ni44  1  0.49833395  0.83203295  0.83168328  1
  Ni  Ni45  1  0.82891720  0.16309571  0.50015576  1
  Ni  Ni46  1  0.66425332  -0.00058416  0.66341653  1
  Ni  Ni47  1  0.83342820  0.16882473  0.82921780  1
  Cr  Cr48  1  0.82890841  0.49692205  0.49796913  1
  Ni  Ni49  1  0.66512625  0.33170189  0.66532349  1
  Ni  Ni50  1  0.83079502  0.49544460  0.83167231  1
  Ni  Ni51  1  0.82741603  0.83574571  0.49886385  1
  Ni  Ni52  1  0.66336959  0.66514040  0.66554179  1
  Cr  Cr53  1  0.82932873  0.83441178  0.82777559  1
" 