2086,Ni62Fe22Cr15_10,-235.116425384839, 193.049390869889,Ni62Fe22Cr15,"# generated using pymatgen
 data_Cr3Fe4Ni11
_symmetry_space_group_name_H-M   'P 1'
_cell_length_a   7.43741971
_cell_length_b   7.43741971
_cell_length_c   10.51809982
_cell_angle_alpha   90.00000000
_cell_angle_beta   90.00000000
_cell_angle_gamma   90.00000000
_symmetry_Int_Tables_number   1
_chemical_formula_structural   Cr3Fe4Ni11
_chemical_formula_sum   'Cr9 Fe12 Ni33'
_cell_volume   581.81092047
_cell_formula_units_Z   3
loop_
 _symmetry_equiv_pos_site_id
 _symmetry_equiv_pos_as_xyz
  1  'x, y, z'
loop_
 _atom_site_type_symbol
 _atom_site_label
 _atom_site_symmetry_multiplicity
 _atom_site_fract_x
 _atom_site_fract_y
 _atom_site_fract_z
 _atom_site_occupancy
  Cr  Cr0  1  0.00260593  0.00373490  0.00323324  1
  Ni  Ni1  1  0.17041175  0.16976227  0.16826054  1
  Fe  Fe2  1  1.00126011  0.00304395  0.33480596  1
  Ni  Ni3  1  0.00215583  0.33651082  1.00039337  1
  Ni  Ni4  1  0.16638705  0.50099521  0.16933805  1
  Ni  Ni5  1  0.00386881  0.33338155  0.33502785  1
  Ni  Ni6  1  1.00068668  0.66639880  0.00342004  1
  Ni  Ni7  1  0.16963084  0.83522793  0.17123669  1
  Fe  Fe8  1  0.00258341  0.66925981  0.33414557  1
  Ni  Ni9  1  0.33602603  0.00364370  0.00340994  1
  Ni  Ni10  1  0.50120051  0.16588276  0.16856515  1
  Ni  Ni11  1  0.33524504  1.00093419  0.33588797  1
  Ni  Ni12  1  0.33451472  0.33494509  0.00384659  1
  Fe  Fe13  1  0.50112600  0.50144480  0.16785556  1
  Fe  Fe14  1  0.33506950  0.33517077  0.33432809  1
  Cr  Cr15  1  0.33569526  0.66746991  0.00264956  1
  Ni  Ni16  1  0.50174055  0.83871882  0.16661963  1
  Ni  Ni17  1  0.33364962  0.66910766  0.33640778  1
  Ni  Ni18  1  0.66847549  1.00179736  0.00255547  1
  Ni  Ni19  1  0.83474019  0.16900133  0.16773735  1
  Ni  Ni20  1  0.66807883  0.00207316  0.33587391  1
  Ni  Ni21  1  0.66920864  0.33598547  0.00367793  1
  Ni  Ni22  1  0.83776898  0.50185874  0.16668384  1
  Cr  Cr23  1  0.66947720  0.33264979  0.33376982  1
  Ni  Ni24  1  0.66965318  0.66801792  1.00166144  1
  Ni  Ni25  1  0.83406329  0.83493006  0.16822618  1
  Cr  Cr26  1  0.66470336  0.67013642  0.33325015  1
  Ni  Ni27  1  0.17024738  0.16972966  0.50141155  1
  Cr  Cr28  1  0.00207738  0.00543364  0.66802491  1
  Ni  Ni29  1  0.17010683  0.17131091  0.83617020  1
  Ni  Ni30  1  0.17133689  0.49962960  0.50150936  1
  Fe  Fe31  1  0.00333798  0.33502969  0.66896825  1
  Ni  Ni32  1  0.16816271  0.49956668  0.83513352  1
  Fe  Fe33  1  0.16973302  0.83498081  0.50062324  1
  Cr  Cr34  1  0.00344007  0.66769820  0.66802092  1
  Cr  Cr35  1  0.17185796  0.83636439  0.83607259  1
  Fe  Fe36  1  0.50178758  0.16809764  0.50192834  1
  Ni  Ni37  1  0.33608321  0.00220602  0.66705042  1
  Cr  Cr38  1  0.50079201  0.16630373  0.83623335  1
  Ni  Ni39  1  0.49939437  0.50285269  0.50357808  1
  Fe  Fe40  1  0.33507142  0.33578080  0.66928247  1
  Ni  Ni41  1  0.50347584  0.50117037  0.83537194  1
  Ni  Ni42  1  0.50149838  0.83625189  0.50449026  1
  Ni  Ni43  1  0.33762904  0.66685766  0.66779876  1
  Fe  Fe44  1  0.50363412  0.83384973  0.83448909  1
  Ni  Ni45  1  0.83586474  0.16729780  0.50267379  1
  Ni  Ni46  1  0.66811482  0.00207181  0.66739419  1
  Fe  Fe47  1  0.83474892  0.17202015  0.83561854  1
  Cr  Cr48  1  0.83538076  0.50245470  0.50172070  1
  Fe  Fe49  1  0.66773593  0.33561792  0.66885217  1
  Ni  Ni50  1  0.83441113  0.50238133  0.83588256  1
  Ni  Ni51  1  0.83234396  0.83750549  0.50096484  1
  Ni  Ni52  1  0.66628385  0.66881989  0.66953896  1
  Fe  Fe53  1  0.83298083  0.83419152  0.83588726  1
" 