6625,Ni62Fe19Cr18_5,-233.195315225934, 184.574824114283,Ni62Fe19Cr18,"# generated using pymatgen
 data_Cr11Fe10Ni33
_symmetry_space_group_name_H-M   'P 1'
_cell_length_a   7.44846292
_cell_length_b   7.44846292
_cell_length_c   10.53371729
_cell_angle_alpha   90.00000000
_cell_angle_beta   90.00000000
_cell_angle_gamma   90.00000000
_symmetry_Int_Tables_number   1
_chemical_formula_structural   Cr11Fe10Ni33
_chemical_formula_sum   'Cr11 Fe10 Ni33'
_cell_volume   584.40642075
_cell_formula_units_Z   1
loop_
 _symmetry_equiv_pos_site_id
 _symmetry_equiv_pos_as_xyz
  1  'x, y, z'
loop_
 _atom_site_type_symbol
 _atom_site_label
 _atom_site_symmetry_multiplicity
 _atom_site_fract_x
 _atom_site_fract_y
 _atom_site_fract_z
 _atom_site_occupancy
  Ni  Ni0  1  1.00028785  0.99868053  0.00284791  1
  Fe  Fe1  1  0.16745807  0.16579583  0.16870948  1
  Fe  Fe2  1  0.00126173  0.00129881  0.33503029  1
  Cr  Cr3  1  0.99915496  0.33499918  1.00015563  1
  Cr  Cr4  1  0.16789424  0.50238116  0.16864382  1
  Fe  Fe5  1  0.00158415  0.33426383  0.33592597  1
  Ni  Ni6  1  1.00009852  0.67033176  1.00059066  1
  Ni  Ni7  1  0.16714246  0.83659269  0.16517640  1
  Fe  Fe8  1  0.99916435  0.66818068  0.33537305  1
  Ni  Ni9  1  0.33556190  0.99880452  0.00260575  1
  Fe  Fe10  1  0.50127494  0.16787720  0.16640896  1
  Cr  Cr11  1  0.33334390  0.00320017  0.33439610  1
  Cr  Cr12  1  0.33698343  0.33459653  0.00201094  1
  Ni  Ni13  1  0.50379949  0.50224682  0.16715412  1
  Ni  Ni14  1  0.33324842  0.33397470  0.33566850  1
  Ni  Ni15  1  0.33561846  0.67033912  0.99981641  1
  Ni  Ni16  1  0.50147711  0.83377393  0.16499482  1
  Cr  Cr17  1  0.33610535  0.66696485  0.33659484  1
  Ni  Ni18  1  0.66789263  1.00044868  1.00095255  1
  Ni  Ni19  1  0.83537165  0.16747682  0.16634995  1
  Cr  Cr20  1  0.66905653  0.99895541  0.33580447  1
  Fe  Fe21  1  0.66769484  0.33473910  1.00124365  1
  Ni  Ni22  1  0.83255793  0.50143825  0.16758219  1
  Cr  Cr23  1  0.66729356  0.33672980  0.33434159  1
  Ni  Ni24  1  0.66802308  0.66850713  0.00253257  1
  Fe  Fe25  1  0.83463808  0.83307639  0.16655013  1
  Ni  Ni26  1  0.67012220  0.66728689  0.33452137  1
  Ni  Ni27  1  0.16609435  0.16818971  0.50014594  1
  Ni  Ni28  1  1.00102078  0.00256236  0.66653821  1
  Cr  Cr29  1  0.16692103  0.16575020  0.83397344  1
  Ni  Ni30  1  0.16738118  0.50001802  0.50057552  1
  Ni  Ni31  1  0.99870709  0.33307289  0.66624352  1
  Ni  Ni32  1  0.16809646  0.50443892  0.83457452  1
  Ni  Ni33  1  0.16738110  0.83553561  0.50275159  1
  Cr  Cr34  1  0.00295933  0.66794639  0.66837013  1
  Ni  Ni35  1  0.16834215  0.83334429  0.83581787  1
  Ni  Ni36  1  0.50129310  0.16806862  0.50257592  1
  Ni  Ni37  1  0.33481989  0.99929187  0.66678098  1
  Ni  Ni38  1  0.50462631  0.16681718  0.83525069  1
  Ni  Ni39  1  0.50111249  0.50124617  0.50062659  1
  Cr  Cr40  1  0.33518484  0.33537896  0.66614294  1
  Ni  Ni41  1  0.50163202  0.50187589  0.83596355  1
  Ni  Ni42  1  0.50123453  0.83442816  0.50333588  1
  Ni  Ni43  1  0.33463481  0.66980919  0.66801749  1
  Ni  Ni44  1  0.50052765  0.83504916  0.83541355  1
  Ni  Ni45  1  0.83635268  0.16806543  0.50413253  1
  Fe  Fe46  1  0.66769453  0.00289896  0.66793681  1
  Fe  Fe47  1  0.83247131  0.16658846  0.83372389  1
  Ni  Ni48  1  0.83524802  0.49996116  0.50019401  1
  Ni  Ni49  1  0.66960182  0.33288520  0.66826822  1
  Fe  Fe50  1  0.83367360  0.50138094  0.83525711  1
  Ni  Ni51  1  0.83512877  0.83571428  0.49892084  1
  Cr  Cr52  1  0.66624505  0.66774840  0.66644867  1
  Ni  Ni53  1  0.83487306  0.83634060  0.83740527  1
" 