7774,Ni62Fe4Cr32_12,-225.875284475929, 151.509607394917,Ni62Fe4Cr32,"# generated using pymatgen
 data_Cr19Fe2Ni33
_symmetry_space_group_name_H-M   'P 1'
_cell_length_a   7.49024796
_cell_length_b   7.49024796
_cell_length_c   10.59281025
_cell_angle_alpha   90.00000000
_cell_angle_beta   90.00000000
_cell_angle_gamma   90.00000000
_symmetry_Int_Tables_number   1
_chemical_formula_structural   Cr19Fe2Ni33
_chemical_formula_sum   'Cr19 Fe2 Ni33'
_cell_volume   594.29706078
_cell_formula_units_Z   1
loop_
 _symmetry_equiv_pos_site_id
 _symmetry_equiv_pos_as_xyz
  1  'x, y, z'
loop_
 _atom_site_type_symbol
 _atom_site_label
 _atom_site_symmetry_multiplicity
 _atom_site_fract_x
 _atom_site_fract_y
 _atom_site_fract_z
 _atom_site_occupancy
  Cr  Cr0  1  0.99844587  0.99655596  0.99825826  1
  Cr  Cr1  1  0.16483882  0.16150846  0.16809731  1
  Ni  Ni2  1  0.99788082  -0.00007641  0.33443769  1
  Cr  Cr3  1  0.99716639  0.33378662  0.99839900  1
  Cr  Cr4  1  0.16604774  0.50040133  0.16855883  1
  Ni  Ni5  1  0.99713147  0.32917621  0.33431053  1
  Cr  Cr6  1  -0.00032394  0.66516824  0.99476371  1
  Ni  Ni7  1  0.16799282  0.83469209  0.16699400  1
  Cr  Cr8  1  -0.00014050  0.66606535  0.33529580  1
  Ni  Ni9  1  0.33586649  0.99545106  -0.00068224  1
  Ni  Ni10  1  0.50032572  0.16342859  0.16504284  1
  Ni  Ni11  1  0.33310442  0.99660646  0.33166089  1
  Cr  Cr12  1  0.33256065  0.33105039  0.99781735  1
  Cr  Cr13  1  0.50053728  0.49948157  0.16855587  1
  Ni  Ni14  1  0.33124655  0.33039057  0.33325405  1
  Cr  Cr15  1  0.33202259  0.66865428  -0.00080078  1
  Fe  Fe16  1  0.49922677  0.83437754  0.16709044  1
  Ni  Ni17  1  0.33256095  0.66877786  0.33290756  1
  Ni  Ni18  1  0.66157600  0.99706104  -0.00055524  1
  Ni  Ni19  1  0.82759049  0.16389527  0.16698610  1
  Ni  Ni20  1  0.66448855  -0.00109464  0.33192140  1
  Ni  Ni21  1  0.66536535  0.33075181  -0.00073434  1
  Cr  Cr22  1  0.82877280  0.49879995  0.16623043  1
  Ni  Ni23  1  0.66684011  0.32884098  0.33205325  1
  Ni  Ni24  1  0.66407892  0.66775873  0.99637611  1
  Cr  Cr25  1  0.83185711  0.83317838  0.16604226  1
  Ni  Ni26  1  0.66335204  0.66815743  0.33451414  1
  Ni  Ni27  1  0.16484350  0.16279672  0.49742769  1
  Ni  Ni28  1  -0.00040086  0.99464019  0.66236414  1
  Cr  Cr29  1  0.16708066  0.16037271  0.82866382  1
  Ni  Ni30  1  0.16587318  0.49937390  0.49891155  1
  Cr  Cr31  1  0.99703447  0.33298070  0.66269751  1
  Fe  Fe32  1  0.16524649  0.50134799  0.82754060  1
  Ni  Ni33  1  0.16564900  0.83321798  0.49899632  1
  Ni  Ni34  1  0.99806441  0.66678355  0.66549346  1
  Ni  Ni35  1  0.16580139  0.83199540  0.82947686  1
  Cr  Cr36  1  0.49617419  0.16520847  0.49989324  1
  Ni  Ni37  1  0.33031966  0.99421404  0.66433983  1
  Cr  Cr38  1  0.49772962  0.16373745  0.83019042  1
  Cr  Cr39  1  0.49902013  0.50054610  0.49851001  1
  Ni  Ni40  1  0.32985647  0.33303206  0.66365904  1
  Cr  Cr41  1  0.50082442  0.49950355  0.82846930  1
  Ni  Ni42  1  0.49698624  0.83045340  0.49695489  1
  Ni  Ni43  1  0.33058411  0.66827047  0.66447357  1
  Ni  Ni44  1  0.49789171  0.83066991  0.83258078  1
  Ni  Ni45  1  0.83375718  0.16422629  0.49567051  1
  Cr  Cr46  1  0.66566508  0.99491609  0.66304678  1
  Cr  Cr47  1  0.83015661  0.16301330  0.83212608  1
  Ni  Ni48  1  0.83095300  0.49979781  0.49814472  1
  Ni  Ni49  1  0.66720877  0.33415732  0.66408669  1
  Ni  Ni50  1  0.82896964  0.50204781  0.83142203  1
  Ni  Ni51  1  0.83269078  0.83117787  0.49903243  1
  Ni  Ni52  1  0.66643450  0.66668776  0.66477445  1
  Ni  Ni53  1  0.83154337  0.82835599  0.83062804  1
" 