4695,Ni62Fe22Cr15_12,-235.195619791594, 194.921022684766,Ni62Fe22Cr15,"# generated using pymatgen
 data_Cr3Fe4Ni11
_symmetry_space_group_name_H-M   'P 1'
_cell_length_a   7.43734348
_cell_length_b   7.43734348
_cell_length_c   10.51799202
_cell_angle_alpha   90.00000000
_cell_angle_beta   90.00000000
_cell_angle_gamma   90.00000000
_symmetry_Int_Tables_number   1
_chemical_formula_structural   Cr3Fe4Ni11
_chemical_formula_sum   'Cr9 Fe12 Ni33'
_cell_volume   581.79303213
_cell_formula_units_Z   3
loop_
 _symmetry_equiv_pos_site_id
 _symmetry_equiv_pos_as_xyz
  1  'x, y, z'
loop_
 _atom_site_type_symbol
 _atom_site_label
 _atom_site_symmetry_multiplicity
 _atom_site_fract_x
 _atom_site_fract_y
 _atom_site_fract_z
 _atom_site_occupancy
  Fe  Fe0  1  0.00204471  0.99962155  1.00121170  1
  Ni  Ni1  1  0.17251210  0.16687354  0.16873801  1
  Ni  Ni2  1  0.00272261  1.00078966  0.33513407  1
  Cr  Cr3  1  1.00149752  0.33467864  0.00265066  1
  Ni  Ni4  1  0.17002975  0.50302997  0.16806281  1
  Cr  Cr5  1  0.00248248  0.33548774  0.33595695  1
  Ni  Ni6  1  1.00101619  0.67123284  0.00450089  1
  Ni  Ni7  1  0.16739020  0.83618002  0.16725773  1
  Fe  Fe8  1  1.00042348  0.67103707  0.33429258  1
  Ni  Ni9  1  0.33428905  0.00256408  0.00337776  1
  Ni  Ni10  1  0.49937426  0.16924142  0.16858167  1
  Ni  Ni11  1  0.33543160  0.00370508  0.33540931  1
  Fe  Fe12  1  0.33777935  0.33509379  0.00319331  1
  Ni  Ni13  1  0.50237434  0.50102379  0.16724175  1
  Ni  Ni14  1  0.33603385  0.33338174  0.33438837  1
  Fe  Fe15  1  0.33567911  0.66804964  0.00374779  1
  Fe  Fe16  1  0.50254937  0.83612590  0.16852645  1
  Cr  Cr17  1  0.33677773  0.66913536  0.33536699  1
  Fe  Fe18  1  0.66930533  1.00182413  0.00251345  1
  Cr  Cr19  1  0.83394025  0.16651217  0.16955062  1
  Ni  Ni20  1  0.66779934  1.00015616  0.33581682  1
  Ni  Ni21  1  0.66631131  0.33650922  0.00248792  1
  Ni  Ni22  1  0.83359068  0.50613702  0.16867420  1
  Fe  Fe23  1  0.66565520  0.33527377  0.33615507  1
  Ni  Ni24  1  0.66918905  0.66791036  0.00340417  1
  Ni  Ni25  1  0.83598194  0.83314694  0.16850279  1
  Ni  Ni26  1  0.66997237  0.66910914  0.33510745  1
  Ni  Ni27  1  0.16965257  0.16788956  0.50278922  1
  Ni  Ni28  1  0.00267380  0.00429446  0.67001900  1
  Ni  Ni29  1  0.16902519  0.16653010  0.83454073  1
  Fe  Fe30  1  0.16901379  0.49926940  0.50203295  1
  Ni  Ni31  1  1.00129666  0.33145677  0.66742260  1
  Cr  Cr32  1  0.17147977  0.50034269  0.83546803  1
  Fe  Fe33  1  0.16806579  0.83897698  0.50082017  1
  Cr  Cr34  1  0.99966776  0.67010070  0.66645987  1
  Fe  Fe35  1  0.16682067  0.83859354  0.83725446  1
  Ni  Ni36  1  0.50043435  0.16853870  0.50250094  1
  Ni  Ni37  1  0.33390968  0.00447996  0.66719235  1
  Fe  Fe38  1  0.50224749  0.17042673  0.83538387  1
  Ni  Ni39  1  0.50345807  0.50118167  0.50299911  1
  Ni  Ni40  1  0.33640001  0.33242719  0.66883503  1
  Ni  Ni41  1  0.50235233  0.50065999  0.83582818  1
  Ni  Ni42  1  0.50385020  0.83627966  0.50157498  1
  Cr  Cr43  1  0.33797644  0.66961742  0.66730876  1
  Cr  Cr44  1  0.50355920  0.83451457  0.83552275  1
  Ni  Ni45  1  0.83582729  0.16749846  0.50346301  1
  Fe  Fe46  1  0.66983347  0.00306617  0.66700661  1
  Ni  Ni47  1  0.83601324  0.16568103  0.83375898  1
  Ni  Ni48  1  0.83337174  0.50288863  0.50209285  1
  Ni  Ni49  1  0.66836979  0.33538188  0.66791261  1
  Cr  Cr50  1  0.83223996  0.50243737  0.83483053  1
  Ni  Ni51  1  0.83418468  0.83561316  0.50144529  1
  Ni  Ni52  1  0.66848375  0.66786662  0.66747183  1
  Ni  Ni53  1  0.83547485  0.83799157  0.83604978  1
" 