3382,Ni62Fe4Cr32_2,-225.603935958949, 144.872592754406,Ni62Fe4Cr32,"# generated using pymatgen
 data_Cr19Fe2Ni33
_symmetry_space_group_name_H-M   'P 1'
_cell_length_a   7.49185545
_cell_length_b   7.49185545
_cell_length_c   10.59508359
_cell_angle_alpha   90.00000000
_cell_angle_beta   90.00000000
_cell_angle_gamma   90.00000000
_symmetry_Int_Tables_number   1
_chemical_formula_structural   Cr19Fe2Ni33
_chemical_formula_sum   'Cr19 Fe2 Ni33'
_cell_volume   594.67977180
_cell_formula_units_Z   1
loop_
 _symmetry_equiv_pos_site_id
 _symmetry_equiv_pos_as_xyz
  1  'x, y, z'
loop_
 _atom_site_type_symbol
 _atom_site_label
 _atom_site_symmetry_multiplicity
 _atom_site_fract_x
 _atom_site_fract_y
 _atom_site_fract_z
 _atom_site_occupancy
  Ni  Ni0  1  0.99718053  -0.00066642  0.99534634  1
  Cr  Cr1  1  0.16207320  0.16555176  0.16503933  1
  Ni  Ni2  1  0.99713253  -0.00078855  0.33468007  1
  Ni  Ni3  1  0.99672650  0.33220063  -0.00097981  1
  Ni  Ni4  1  0.16156806  0.49992741  0.16561841  1
  Ni  Ni5  1  -0.00156074  0.33208138  0.33129539  1
  Ni  Ni6  1  0.00121172  0.66352074  0.99786777  1
  Cr  Cr7  1  0.16516946  0.82926021  0.16455070  1
  Ni  Ni8  1  -0.00093202  0.66373872  0.33173580  1
  Cr  Cr9  1  0.33273695  0.99656322  0.99774537  1
  Ni  Ni10  1  0.50092144  0.16457168  0.16411382  1
  Cr  Cr11  1  0.33211190  0.99647794  0.33096218  1
  Cr  Cr12  1  0.33163463  0.33292726  0.99655539  1
  Cr  Cr13  1  0.49876885  0.50012468  0.16518682  1
  Cr  Cr14  1  0.32927786  0.33344745  0.33271922  1
  Ni  Ni15  1  0.32930985  0.66456095  0.99675352  1
  Ni  Ni16  1  0.49721866  0.83025280  0.16660880  1
  Ni  Ni17  1  0.33148895  0.66480105  0.33309785  1
  Cr  Cr18  1  0.66518391  0.00037240  -0.00126271  1
  Ni  Ni19  1  0.83286711  0.16811822  0.16457767  1
  Cr  Cr20  1  0.66613167  0.99668970  0.33024924  1
  Ni  Ni21  1  0.66707969  0.32964091  -0.00126270  1
  Ni  Ni22  1  0.83483657  0.49630692  0.16530824  1
  Cr  Cr23  1  0.66717036  0.33155215  0.32991597  1
  Cr  Cr24  1  0.66475744  0.66534968  0.99764639  1
  Cr  Cr25  1  0.83332133  0.83034451  0.16582545  1
  Ni  Ni26  1  0.66443661  0.66605903  0.33292992  1
  Ni  Ni27  1  0.16127715  0.16292000  0.49825148  1
  Ni  Ni28  1  0.99785882  -0.00163193  0.66492163  1
  Ni  Ni29  1  0.16331346  0.16285462  0.83132111  1
  Fe  Fe30  1  0.16626068  0.49998963  0.49656981  1
  Cr  Cr31  1  0.00021787  0.32904785  0.66468169  1
  Ni  Ni32  1  0.16709784  0.50017276  0.83362630  1
  Fe  Fe33  1  0.16505334  0.83252629  0.49871790  1
  Cr  Cr34  1  -0.00061587  0.66789645  0.66594177  1
  Ni  Ni35  1  0.16525656  0.83204621  0.83158444  1
  Cr  Cr36  1  0.49738928  0.16377112  0.50015626  1
  Ni  Ni37  1  0.33143048  0.99597665  0.66601268  1
  Ni  Ni38  1  0.49869730  0.16421440  0.83094754  1
  Ni  Ni39  1  0.49669542  0.50445143  0.49861021  1
  Cr  Cr40  1  0.33041668  0.33289857  0.66578593  1
  Ni  Ni41  1  0.49639792  0.50029553  0.83096612  1
  Ni  Ni42  1  0.49834966  0.82732813  0.49959218  1
  Ni  Ni43  1  0.33415360  0.66688469  0.66525474  1
  Ni  Ni44  1  0.49681708  0.83051275  0.82879357  1
  Ni  Ni45  1  0.83677729  0.16147325  0.49798237  1
  Ni  Ni46  1  0.66573817  0.99543361  0.66585640  1
  Ni  Ni47  1  0.83304963  0.16237815  0.83243055  1
  Cr  Cr48  1  0.83018958  0.50017346  0.49631089  1
  Cr  Cr49  1  0.66432726  0.33092375  0.66634611  1
  Cr  Cr50  1  0.83093064  0.49854375  0.83404259  1
  Ni  Ni51  1  0.83158525  0.83290146  0.49840641  1
  Ni  Ni52  1  0.66119881  0.66930584  0.66443603  1
  Ni  Ni53  1  0.83290777  0.83431983  0.83022355  1
" 