3620,Ni62Fe4Cr32_3,-225.6223764751, 147.550988966011,Ni62Fe4Cr32,"# generated using pymatgen
 data_Cr19Fe2Ni33
_symmetry_space_group_name_H-M   'P 1'
_cell_length_a   7.48996758
_cell_length_b   7.48996758
_cell_length_c   10.59241373
_cell_angle_alpha   90.00000000
_cell_angle_beta   90.00000000
_cell_angle_gamma   90.00000000
_symmetry_Int_Tables_number   1
_chemical_formula_structural   Cr19Fe2Ni33
_chemical_formula_sum   'Cr19 Fe2 Ni33'
_cell_volume   594.23032567
_cell_formula_units_Z   1
loop_
 _symmetry_equiv_pos_site_id
 _symmetry_equiv_pos_as_xyz
  1  'x, y, z'
loop_
 _atom_site_type_symbol
 _atom_site_label
 _atom_site_symmetry_multiplicity
 _atom_site_fract_x
 _atom_site_fract_y
 _atom_site_fract_z
 _atom_site_occupancy
  Ni  Ni0  1  -0.00148436  -0.00063972  0.99730365  1
  Ni  Ni1  1  0.16380523  0.16379773  0.16445557  1
  Ni  Ni2  1  -0.00077145  -0.00103409  0.33427523  1
  Ni  Ni3  1  -0.00125367  0.33125574  0.00040523  1
  Fe  Fe4  1  0.16327045  0.49821161  0.16453690  1
  Cr  Cr5  1  0.99620162  0.32906377  0.33173437  1
  Ni  Ni6  1  -0.00033845  0.66470691  0.99762083  1
  Cr  Cr7  1  0.16388483  0.83393872  0.16621575  1
  Ni  Ni8  1  0.99596596  0.66579250  0.33324935  1
  Ni  Ni9  1  0.33100290  0.99750933  0.00012545  1
  Ni  Ni10  1  0.49716249  0.16543252  0.16642984  1
  Ni  Ni11  1  0.33034537  0.00023191  0.33120844  1
  Cr  Cr12  1  0.33125863  0.33256190  -0.00009826  1
  Ni  Ni13  1  0.50112024  0.49824581  0.16732129  1
  Cr  Cr14  1  0.33352435  0.32912430  0.33197395  1
  Cr  Cr15  1  0.33229351  0.66610909  0.99639575  1
  Ni  Ni16  1  0.49748036  0.83165927  0.16575388  1
  Cr  Cr17  1  0.33251827  0.66596963  0.33145029  1
  Cr  Cr18  1  0.66484411  0.99843284  0.99821942  1
  Ni  Ni19  1  0.83437693  0.16656385  0.16457761  1
  Cr  Cr20  1  0.66565496  0.00145876  0.33078510  1
  Cr  Cr21  1  0.66632476  0.32980766  0.00058154  1
  Fe  Fe22  1  0.83193024  0.49800634  0.16628389  1
  Ni  Ni23  1  0.66531625  0.33265078  0.33192945  1
  Cr  Cr24  1  0.66370855  0.66675698  0.99767595  1
  Cr  Cr25  1  0.83358095  0.83024734  0.16637247  1
  Ni  Ni26  1  0.66639763  0.66264039  0.33193757  1
  Ni  Ni27  1  0.16635364  0.16048826  0.49905190  1
  Ni  Ni28  1  0.99708924  0.99792275  0.66409151  1
  Cr  Cr29  1  0.16452004  0.16427121  0.83183712  1
  Cr  Cr30  1  0.16557842  0.49850610  0.49859028  1
  Cr  Cr31  1  0.99790123  0.32912119  0.66402171  1
  Ni  Ni32  1  0.16541803  0.49880529  0.83393979  1
  Ni  Ni33  1  0.16227005  0.83675443  0.49698728  1
  Cr  Cr34  1  0.99770417  0.66863331  0.66461876  1
  Ni  Ni35  1  0.16382475  0.83358794  0.83284009  1
  Ni  Ni36  1  0.49851828  0.16694781  0.49950486  1
  Ni  Ni37  1  0.33110426  -0.00150749  0.66384192  1
  Cr  Cr38  1  0.49882906  0.16524944  0.82861646  1
  Ni  Ni39  1  0.50346183  0.49578810  0.49986229  1
  Ni  Ni40  1  0.33390370  0.33127612  0.66400536  1
  Ni  Ni41  1  0.49851933  0.49875630  0.82835718  1
  Cr  Cr42  1  0.49943316  0.83241784  0.49798503  1
  Cr  Cr43  1  0.33163612  0.66529143  0.66791901  1
  Ni  Ni44  1  0.49833861  0.83244181  0.83080660  1
  Ni  Ni45  1  0.83059381  0.16439780  0.49953972  1
  Ni  Ni46  1  0.66723158  0.99831448  0.66567590  1
  Ni  Ni47  1  0.83308443  0.16282501  0.83143724  1
  Ni  Ni48  1  0.82702157  0.49945108  0.49623322  1
  Ni  Ni49  1  0.66439673  0.33102543  0.66265715  1
  Cr  Cr50  1  0.83116725  0.49723055  0.83215579  1
  Ni  Ni51  1  0.83313823  0.83152783  0.49826051  1
  Ni  Ni52  1  0.66506496  0.66593365  0.66494518  1
  Ni  Ni53  1  0.83315447  0.83341802  0.83087524  1
" 