974,Ni62Fe4Cr32_15,-225.870026517657, 152.818398751416,Ni62Fe4Cr32,"# generated using pymatgen
 data_Cr19Fe2Ni33
_symmetry_space_group_name_H-M   'P 1'
_cell_length_a   7.48644832
_cell_length_b   7.48644832
_cell_length_c   10.58743674
_cell_angle_alpha   90.00000000
_cell_angle_beta   90.00000000
_cell_angle_gamma   90.00000000
_symmetry_Int_Tables_number   1
_chemical_formula_structural   Cr19Fe2Ni33
_chemical_formula_sum   'Cr19 Fe2 Ni33'
_cell_volume   593.39309745
_cell_formula_units_Z   1
loop_
 _symmetry_equiv_pos_site_id
 _symmetry_equiv_pos_as_xyz
  1  'x, y, z'
loop_
 _atom_site_type_symbol
 _atom_site_label
 _atom_site_symmetry_multiplicity
 _atom_site_fract_x
 _atom_site_fract_y
 _atom_site_fract_z
 _atom_site_occupancy
  Ni  Ni0  1  0.00057079  0.99617644  -0.00020040  1
  Ni  Ni1  1  0.17014449  0.16452971  0.16556248  1
  Cr  Cr2  1  0.00376156  0.99691333  0.33129559  1
  Cr  Cr3  1  0.00080498  0.33411273  0.99819132  1
  Ni  Ni4  1  0.16598003  0.50064532  0.16524407  1
  Cr  Cr5  1  0.00082313  0.33409785  0.33206893  1
  Ni  Ni6  1  0.00023179  0.66581650  0.00062371  1
  Ni  Ni7  1  0.16480208  0.83084684  0.16408183  1
  Fe  Fe8  1  0.00137181  0.66482429  0.33067769  1
  Ni  Ni9  1  0.33107071  -0.00081325  0.00040863  1
  Ni  Ni10  1  0.49417978  0.16561903  0.16538264  1
  Ni  Ni11  1  0.32999056  0.99750908  0.33220301  1
  Ni  Ni12  1  0.33173317  0.33209412  -0.00078374  1
  Cr  Cr13  1  0.49641873  0.49799437  0.16644897  1
  Ni  Ni14  1  0.33041898  0.33192538  0.33043323  1
  Ni  Ni15  1  0.32932694  0.66463446  0.99688662  1
  Cr  Cr16  1  0.49738244  0.83108366  0.16445636  1
  Ni  Ni17  1  0.33026093  0.66671062  0.33344684  1
  Ni  Ni18  1  0.66448258  0.99857958  0.99860010  1
  Cr  Cr19  1  0.83136532  0.16417646  0.16360530  1
  Cr  Cr20  1  0.66153298  0.99659243  0.33044011  1
  Cr  Cr21  1  0.66257025  0.33299937  0.99707735  1
  Ni  Ni22  1  0.83334555  0.50357499  0.16737981  1
  Ni  Ni23  1  0.66508288  0.33552114  0.33119481  1
  Ni  Ni24  1  0.66673449  0.66499503  -0.00096276  1
  Ni  Ni25  1  0.83446197  0.82821893  0.16352001  1
  Ni  Ni26  1  0.66607569  0.66372374  0.33212576  1
  Fe  Fe27  1  0.16907688  0.16654935  0.49839580  1
  Cr  Cr28  1  0.00140116  0.99813690  0.66501995  1
  Cr  Cr29  1  0.16786711  0.16378276  0.83250923  1
  Ni  Ni30  1  0.16705617  0.50049045  0.49791660  1
  Cr  Cr31  1  -0.00099932  0.33468842  0.66593424  1
  Ni  Ni32  1  0.16875123  0.50131536  0.83298279  1
  Ni  Ni33  1  0.17020178  0.82987656  0.49820498  1
  Cr  Cr34  1  0.00242463  0.66375342  0.66523093  1
  Ni  Ni35  1  0.16724170  0.82996104  0.83379865  1
  Cr  Cr36  1  0.49748903  0.16609374  0.49864951  1
  Ni  Ni37  1  0.33322389  0.99729669  0.66338983  1
  Ni  Ni38  1  0.49879493  0.16625167  0.83136708  1
  Cr  Cr39  1  0.49709318  0.49855240  0.49758841  1
  Ni  Ni40  1  0.33296727  0.33336814  0.66637478  1
  Ni  Ni41  1  0.49556446  0.49652274  0.83171521  1
  Ni  Ni42  1  0.49385417  0.83212321  0.49875717  1
  Ni  Ni43  1  0.33046605  0.66553185  0.66548384  1
  Cr  Cr44  1  0.49551877  0.83252458  0.83220679  1
  Cr  Cr45  1  0.83028136  0.16783699  0.50147166  1
  Ni  Ni46  1  0.66168345  0.00108242  0.66664490  1
  Ni  Ni47  1  0.82857765  0.16508188  0.83131060  1
  Ni  Ni48  1  0.83286470  0.49829771  0.49636287  1
  Ni  Ni49  1  0.66434028  0.33192599  0.66804981  1
  Ni  Ni50  1  0.83162149  0.49810581  0.83261245  1
  Cr  Cr51  1  0.83103659  0.83024555  0.49725412  1
  Cr  Cr52  1  0.66219641  0.66375189  0.66554573  1
  Cr  Cr53  1  0.83451140  0.83378133  0.83584481  1
" 