7215,Ni62Fe19Cr18_10,-233.531065290544, 191.908196607872,Ni62Fe19Cr18,"# generated using pymatgen
 data_Cr11Fe10Ni33
_symmetry_space_group_name_H-M   'P 1'
_cell_length_a   7.44816864
_cell_length_b   7.44816864
_cell_length_c   10.53330111
_cell_angle_alpha   90.00000000
_cell_angle_beta   90.00000000
_cell_angle_gamma   90.00000000
_symmetry_Int_Tables_number   1
_chemical_formula_structural   Cr11Fe10Ni33
_chemical_formula_sum   'Cr11 Fe10 Ni33'
_cell_volume   584.33715521
_cell_formula_units_Z   1
loop_
 _symmetry_equiv_pos_site_id
 _symmetry_equiv_pos_as_xyz
  1  'x, y, z'
loop_
 _atom_site_type_symbol
 _atom_site_label
 _atom_site_symmetry_multiplicity
 _atom_site_fract_x
 _atom_site_fract_y
 _atom_site_fract_z
 _atom_site_occupancy
  Ni  Ni0  1  0.00262556  0.99940386  0.00269676  1
  Ni  Ni1  1  0.16733417  0.16700320  0.16767471  1
  Ni  Ni2  1  0.00190925  1.00047707  0.33538111  1
  Ni  Ni3  1  0.00142009  0.33713671  1.00110604  1
  Fe  Fe4  1  0.16544280  0.50234494  0.16868473  1
  Ni  Ni5  1  0.00255970  0.33513169  0.33479507  1
  Ni  Ni6  1  0.99989300  0.66726527  0.00262845  1
  Ni  Ni7  1  0.16675719  0.83393108  0.16734217  1
  Ni  Ni8  1  0.00315953  0.66819345  0.33387993  1
  Ni  Ni9  1  0.33580108  1.00105132  0.00174340  1
  Ni  Ni10  1  0.50188818  0.16715510  0.16815206  1
  Cr  Cr11  1  0.33379423  1.00103613  0.33379598  1
  Cr  Cr12  1  0.33401944  0.33210581  1.00035837  1
  Cr  Cr13  1  0.50158028  0.50063694  0.16903199  1
  Fe  Fe14  1  0.33144898  0.33500907  0.33429207  1
  Fe  Fe15  1  0.33414694  0.66961837  0.00132347  1
  Ni  Ni16  1  0.50075354  0.83549497  0.16587059  1
  Fe  Fe17  1  0.33104188  0.66813323  0.33502571  1
  Ni  Ni18  1  0.66537736  0.99952686  0.00239984  1
  Cr  Cr19  1  0.83464236  0.16778902  0.16795208  1
  Fe  Fe20  1  0.67030745  0.00147364  0.33430626  1
  Ni  Ni21  1  0.66802734  0.33556558  1.00080977  1
  Fe  Fe22  1  0.83683722  0.50183546  0.16711149  1
  Ni  Ni23  1  0.66838588  0.33337883  0.33348958  1
  Fe  Fe24  1  0.66961721  0.66915251  1.00012737  1
  Ni  Ni25  1  0.83629414  0.83432659  0.16770749  1
  Cr  Cr26  1  0.66909494  0.66971547  0.33446214  1
  Ni  Ni27  1  0.16482331  0.16768155  0.50257391  1
  Ni  Ni28  1  0.00169082  1.00071693  0.66572335  1
  Ni  Ni29  1  0.16917430  0.16843386  0.83355357  1
  Ni  Ni30  1  0.16712051  0.50170527  0.49989633  1
  Fe  Fe31  1  0.00282765  0.33430856  0.66784930  1
  Ni  Ni32  1  0.16696324  0.50021990  0.83451233  1
  Ni  Ni33  1  0.16645533  0.83441623  0.50075519  1
  Ni  Ni34  1  0.99926850  0.66817711  0.66729516  1
  Cr  Cr35  1  0.16656009  0.83603036  0.83575705  1
  Cr  Cr36  1  0.50313329  0.16787900  0.50151915  1
  Ni  Ni37  1  0.33455800  0.00374261  0.66846025  1
  Ni  Ni38  1  0.50077349  0.16858892  0.83406754  1
  Cr  Cr39  1  0.49998449  0.50136819  0.50141437  1
  Ni  Ni40  1  0.33382620  0.33266448  0.66887987  1
  Ni  Ni41  1  0.50334509  0.50043046  0.83375148  1
  Ni  Ni42  1  0.50121282  0.83496292  0.50226824  1
  Cr  Cr43  1  0.33450558  0.66748517  0.66722884  1
  Fe  Fe44  1  0.50354098  0.83562833  0.83490803  1
  Ni  Ni45  1  0.83616941  0.16642964  0.50084112  1
  Ni  Ni46  1  0.66755764  0.99981101  0.66659638  1
  Cr  Cr47  1  0.83469880  0.16770151  0.83456664  1
  Cr  Cr48  1  0.83600237  0.49973378  0.50250276  1
  Ni  Ni49  1  0.66677455  0.33508423  0.66950495  1
  Ni  Ni50  1  0.83349313  0.50289103  0.83530837  1
  Fe  Fe51  1  0.83637391  0.83696987  0.50245069  1
  Ni  Ni52  1  0.66979560  0.66890782  0.67012585  1
  Ni  Ni53  1  0.83364845  0.83257630  0.83397788  1
" 