6602,Ni62Fe19Cr18_18,-233.559080272759, 183.093124662433,Ni62Fe19Cr18,"# generated using pymatgen
 data_Cr11Fe10Ni33
_symmetry_space_group_name_H-M   'P 1'
_cell_length_a   7.45212048
_cell_length_b   7.45212048
_cell_length_c   10.53888985
_cell_angle_alpha   90.00000000
_cell_angle_beta   90.00000000
_cell_angle_gamma   90.00000000
_symmetry_Int_Tables_number   1
_chemical_formula_structural   Cr11Fe10Ni33
_chemical_formula_sum   'Cr11 Fe10 Ni33'
_cell_volume   585.26775833
_cell_formula_units_Z   1
loop_
 _symmetry_equiv_pos_site_id
 _symmetry_equiv_pos_as_xyz
  1  'x, y, z'
loop_
 _atom_site_type_symbol
 _atom_site_label
 _atom_site_symmetry_multiplicity
 _atom_site_fract_x
 _atom_site_fract_y
 _atom_site_fract_z
 _atom_site_occupancy
  Ni  Ni0  1  0.00266871  0.99977771  0.00149066  1
  Ni  Ni1  1  0.16528869  0.16682318  0.16585262  1
  Ni  Ni2  1  0.99928721  1.00048272  0.33453295  1
  Ni  Ni3  1  0.00186446  0.33455818  1.00086901  1
  Cr  Cr4  1  0.16655268  0.49982517  0.16560475  1
  Fe  Fe5  1  0.99812088  0.33257056  0.33466457  1
  Ni  Ni6  1  0.99949678  0.66869275  0.99987258  1
  Fe  Fe7  1  0.16362368  0.83609714  0.16550212  1
  Fe  Fe8  1  0.99754060  0.66884393  0.33447516  1
  Ni  Ni9  1  0.33191708  0.00175290  1.00063235  1
  Fe  Fe10  1  0.50365865  0.16962550  0.16620445  1
  Cr  Cr11  1  0.33194788  0.00277440  0.33452780  1
  Ni  Ni12  1  0.33413983  0.33396941  1.00071085  1
  Ni  Ni13  1  0.50358645  0.50049060  0.16635445  1
  Cr  Cr14  1  0.33588785  0.33383489  0.33519480  1
  Fe  Fe15  1  0.33457589  0.66749856  0.99915973  1
  Cr  Cr16  1  0.50354989  0.83384917  0.16605051  1
  Cr  Cr17  1  0.33394273  0.66645533  0.33412889  1
  Ni  Ni18  1  0.66838514  0.99939184  0.00192235  1
  Ni  Ni19  1  0.83532861  0.16685520  0.16808177  1
  Ni  Ni20  1  0.67208057  0.00223827  0.33471087  1
  Ni  Ni21  1  0.66702969  0.33716146  0.00259742  1
  Ni  Ni22  1  0.83268361  0.50084963  0.16840230  1
  Ni  Ni23  1  0.66882443  0.33527899  0.33491731  1
  Ni  Ni24  1  0.66895098  0.66651329  0.99969489  1
  Ni  Ni25  1  0.83439377  0.83530928  0.16789670  1
  Ni  Ni26  1  0.67088309  0.66552521  0.33479194  1
  Ni  Ni27  1  0.16642885  0.16833279  0.50231070  1
  Ni  Ni28  1  0.00409658  0.99823364  0.66696343  1
  Ni  Ni29  1  0.16823897  0.16741439  0.83480213  1
  Ni  Ni30  1  0.16783106  0.50044246  0.50173570  1
  Cr  Cr31  1  0.00354244  0.33397871  0.66776537  1
  Ni  Ni32  1  0.16874615  0.50135123  0.83523333  1
  Fe  Fe33  1  0.16462103  0.83527576  0.50265906  1
  Fe  Fe34  1  1.00055110  0.66891638  0.66870986  1
  Ni  Ni35  1  0.16771823  0.83423743  0.83429574  1
  Ni  Ni36  1  0.50086483  0.16926359  0.50002751  1
  Fe  Fe37  1  0.33161078  0.00176444  0.66826573  1
  Cr  Cr38  1  0.49859379  0.16733806  0.83600026  1
  Ni  Ni39  1  0.50033207  0.50051182  0.50159349  1
  Ni  Ni40  1  0.33298024  0.33574495  0.66633169  1
  Ni  Ni41  1  0.49967621  0.50424684  0.83501719  1
  Cr  Cr42  1  0.50337497  0.83361249  0.50210768  1
  Fe  Fe43  1  0.33387998  0.66616669  0.66854107  1
  Ni  Ni44  1  0.50077139  0.83139065  0.83488359  1
  Ni  Ni45  1  0.83570347  0.16554777  0.49790555  1
  Cr  Cr46  1  0.66961896  0.99840440  0.66731832  1
  Cr  Cr47  1  0.83718506  0.16667069  0.83734438  1
  Fe  Fe48  1  0.83344199  0.50172599  0.49949209  1
  Cr  Cr49  1  0.66560589  0.33788644  0.66634768  1
  Ni  Ni50  1  0.83455940  0.50472532  0.83590732  1
  Ni  Ni51  1  0.83565613  0.83464313  0.49996470  1
  Ni  Ni52  1  0.66776359  0.66725296  0.66856228  1
  Ni  Ni53  1  0.83447992  0.83195865  0.83515329  1
" 