6022,Ni62Fe4Cr32_11,-225.709875804764, 149.667796662288,Ni62Fe4Cr32,"# generated using pymatgen
 data_Cr19Fe2Ni33
_symmetry_space_group_name_H-M   'P 1'
_cell_length_a   7.49109550
_cell_length_b   7.49109550
_cell_length_c   10.59400885
_cell_angle_alpha   90.00000000
_cell_angle_beta   90.00000000
_cell_angle_gamma   90.00000000
_symmetry_Int_Tables_number   1
_chemical_formula_structural   Cr19Fe2Ni33
_chemical_formula_sum   'Cr19 Fe2 Ni33'
_cell_volume   594.49882222
_cell_formula_units_Z   1
loop_
 _symmetry_equiv_pos_site_id
 _symmetry_equiv_pos_as_xyz
  1  'x, y, z'
loop_
 _atom_site_type_symbol
 _atom_site_label
 _atom_site_symmetry_multiplicity
 _atom_site_fract_x
 _atom_site_fract_y
 _atom_site_fract_z
 _atom_site_occupancy
  Ni  Ni0  1  0.99667885  0.99806780  -0.00094243  1
  Ni  Ni1  1  0.16730828  0.16594371  0.16464189  1
  Cr  Cr2  1  0.99729728  -0.00005967  0.33013489  1
  Cr  Cr3  1  0.00043202  0.33123676  0.99647632  1
  Fe  Fe4  1  0.16687274  0.49666758  0.16518890  1
  Ni  Ni5  1  -0.00122877  0.33254604  0.33318412  1
  Ni  Ni6  1  0.99672174  0.66543414  -0.00120926  1
  Ni  Ni7  1  0.16313176  0.83264844  0.16299951  1
  Cr  Cr8  1  -0.00106297  0.66307327  0.33168539  1
  Cr  Cr9  1  0.33147102  0.00092262  0.00050688  1
  Ni  Ni10  1  0.49716522  0.16714778  0.16509577  1
  Cr  Cr11  1  0.33436839  -0.00147475  0.33111604  1
  Ni  Ni12  1  0.33115737  0.33176830  0.00031798  1
  Ni  Ni13  1  0.49847904  0.49682046  0.16492467  1
  Ni  Ni14  1  0.33286941  0.33270029  0.33012110  1
  Cr  Cr15  1  0.33132889  0.66244573  0.00092486  1
  Ni  Ni16  1  0.50142731  0.83121024  0.16510785  1
  Cr  Cr17  1  0.33323877  0.66401603  0.33196899  1
  Ni  Ni18  1  0.66685165  0.99753344  0.00054977  1
  Cr  Cr19  1  0.83081157  0.16362252  0.16630222  1
  Ni  Ni20  1  0.66316178  -0.00129812  0.33141368  1
  Fe  Fe21  1  0.66442769  0.33156073  -0.00155798  1
  Cr  Cr22  1  0.82942155  0.50051403  0.16581084  1
  Ni  Ni23  1  0.66353321  0.33156848  0.33361198  1
  Ni  Ni24  1  0.66672483  0.66596866  0.00029225  1
  Ni  Ni25  1  0.83058031  0.83117893  0.16270995  1
  Ni  Ni26  1  0.66312871  0.66492773  0.33150269  1
  Cr  Cr27  1  0.16524552  0.16623394  0.49996062  1
  Ni  Ni28  1  0.00007459  0.00088188  0.66588880  1
  Ni  Ni29  1  0.16327838  0.16694057  0.83017748  1
  Ni  Ni30  1  0.16439254  0.49753321  0.49881658  1
  Ni  Ni31  1  0.99756472  0.33251727  0.66586520  1
  Ni  Ni32  1  0.16227827  0.49551805  0.83138212  1
  Ni  Ni33  1  0.16585764  0.83086161  0.50181960  1
  Ni  Ni34  1  -0.00026221  0.66176109  0.66479528  1
  Cr  Cr35  1  0.16265413  0.83302482  0.82942210  1
  Ni  Ni36  1  0.49967873  0.16731155  0.49818417  1
  Ni  Ni37  1  0.33003312  0.00020155  0.66332831  1
  Cr  Cr38  1  0.49720948  0.16695200  0.83178267  1
  Ni  Ni39  1  0.49943573  0.49560804  0.49733666  1
  Ni  Ni40  1  0.33027989  0.33093315  0.66470451  1
  Cr  Cr41  1  0.49927299  0.49600067  0.83302701  1
  Ni  Ni42  1  0.49745385  0.83231460  0.49736150  1
  Cr  Cr43  1  0.33031480  0.66453614  0.66224769  1
  Cr  Cr44  1  0.49887861  0.83222936  0.83205669  1
  Ni  Ni45  1  0.82997745  0.16886189  0.49839485  1
  Cr  Cr46  1  0.66476582  0.00183824  0.66302639  1
  Ni  Ni47  1  0.83394336  0.16690981  0.83149581  1
  Ni  Ni48  1  0.83137556  0.49523825  0.49885230  1
  Ni  Ni49  1  0.66731495  0.33134073  0.66407539  1
  Ni  Ni50  1  0.83362468  0.49688644  0.83123272  1
  Cr  Cr51  1  0.83268276  0.83141576  0.49736302  1
  Cr  Cr52  1  0.66607525  0.66176957  0.66323740  1
  Cr  Cr53  1  0.83362645  0.83101339  0.83461092  1
" 