2806,Ni62Fe22Cr15_15,-235.481696910701, 198.11570896615,Ni62Fe22Cr15,"# generated using pymatgen
 data_Cr3Fe4Ni11
_symmetry_space_group_name_H-M   'P 1'
_cell_length_a   7.43920413
_cell_length_b   7.43920413
_cell_length_c   10.52062337
_cell_angle_alpha   90.00000000
_cell_angle_beta   90.00000000
_cell_angle_gamma   90.00000000
_symmetry_Int_Tables_number   1
_chemical_formula_structural   Cr3Fe4Ni11
_chemical_formula_sum   'Cr9 Fe12 Ni33'
_cell_volume   582.22979330
_cell_formula_units_Z   3
loop_
 _symmetry_equiv_pos_site_id
 _symmetry_equiv_pos_as_xyz
  1  'x, y, z'
loop_
 _atom_site_type_symbol
 _atom_site_label
 _atom_site_symmetry_multiplicity
 _atom_site_fract_x
 _atom_site_fract_y
 _atom_site_fract_z
 _atom_site_occupancy
  Fe  Fe0  1  0.00407673  0.99931450  1.00129973  1
  Fe  Fe1  1  0.16734692  0.16681091  0.16853714  1
  Fe  Fe2  1  1.00164897  0.00225041  0.33484534  1
  Cr  Cr3  1  1.00120139  0.33576257  1.00122480  1
  Cr  Cr4  1  0.16873426  0.50277748  0.16882607  1
  Ni  Ni5  1  1.00059168  0.33482531  0.33635314  1
  Ni  Ni6  1  1.00073801  0.67007439  1.00122107  1
  Ni  Ni7  1  0.16582748  0.83603894  0.16742837  1
  Ni  Ni8  1  1.00110315  0.66755700  0.33481135  1
  Ni  Ni9  1  0.33395871  1.00099289  1.00082799  1
  Cr  Cr10  1  0.50119354  0.17063472  0.16766394  1
  Cr  Cr11  1  0.33441190  0.99952895  0.33531958  1
  Ni  Ni12  1  0.33486540  0.33246608  1.00101362  1
  Cr  Cr13  1  0.50303101  0.50184121  0.16833035  1
  Ni  Ni14  1  0.33311607  0.33591772  0.33633420  1
  Ni  Ni15  1  0.33453630  0.67215679  1.00141533  1
  Ni  Ni16  1  0.50286079  0.83413084  0.16847495  1
  Ni  Ni17  1  0.33576256  0.66962544  0.33750882  1
  Cr  Cr18  1  0.66714622  1.00004785  1.00129245  1
  Fe  Fe19  1  0.83623665  0.16866220  0.17037114  1
  Fe  Fe20  1  0.67035202  1.00052797  0.33450918  1
  Ni  Ni21  1  0.66941377  0.33604651  1.00093345  1
  Ni  Ni22  1  0.83428203  0.50333456  0.16917484  1
  Ni  Ni23  1  0.67190946  0.33650775  0.33593082  1
  Ni  Ni24  1  0.67034097  0.66916542  0.00285279  1
  Ni  Ni25  1  0.83692759  0.83405392  0.16893443  1
  Ni  Ni26  1  0.66874866  0.66853018  0.33422222  1
  Ni  Ni27  1  0.16649381  0.17060194  0.50198590  1
  Ni  Ni28  1  0.00298418  0.00305888  0.66938289  1
  Ni  Ni29  1  0.16987926  0.16764321  0.83509151  1
  Ni  Ni30  1  0.16910087  0.50090154  0.50203900  1
  Ni  Ni31  1  0.00275311  0.33530524  0.66782842  1
  Fe  Fe32  1  0.16830760  0.50292145  0.83429835  1
  Ni  Ni33  1  0.16791247  0.83410922  0.50268554  1
  Ni  Ni34  1  1.00156446  0.66725120  0.66957994  1
  Ni  Ni35  1  0.16645193  0.83622846  0.83550180  1
  Cr  Cr36  1  0.50215191  0.17046271  0.50343786  1
  Ni  Ni37  1  0.33535596  1.00183522  0.66982415  1
  Ni  Ni38  1  0.50051752  0.16918132  0.83470184  1
  Ni  Ni39  1  0.50120918  0.50213328  0.50062685  1
  Ni  Ni40  1  0.33252145  0.33346218  0.66826541  1
  Cr  Cr41  1  0.50193246  0.50030366  0.83679059  1
  Ni  Ni42  1  0.50197072  0.83244522  0.50263618  1
  Fe  Fe43  1  0.33412353  0.67023719  0.66712920  1
  Ni  Ni44  1  0.50219655  0.83643004  0.83450522  1
  Fe  Fe45  1  0.83730697  0.17010339  0.50199204  1
  Ni  Ni46  1  0.66727598  1.00064739  0.66970480  1
  Fe  Fe47  1  0.83493525  0.16721725  0.83325275  1
  Fe  Fe48  1  0.83574704  0.50104123  0.50107309  1
  Fe  Fe49  1  0.67000215  0.33466280  0.66861649  1
  Fe  Fe50  1  0.83586234  0.50360594  0.83514446  1
  Cr  Cr51  1  0.83605789  0.83541656  0.50165186  1
  Ni  Ni52  1  0.66911563  0.67008368  0.66853839  1
  Ni  Ni53  1  0.83696325  0.83418301  0.83511406  1
" 