6844,Ni62Fe19Cr18_2,-233.34880578717, 188.135933456806,Ni62Fe19Cr18,"# generated using pymatgen
 data_Cr11Fe10Ni33
_symmetry_space_group_name_H-M   'P 1'
_cell_length_a   7.44641957
_cell_length_b   7.44641957
_cell_length_c   10.53082755
_cell_angle_alpha   90.00000000
_cell_angle_beta   90.00000000
_cell_angle_gamma   90.00000000
_symmetry_Int_Tables_number   1
_chemical_formula_structural   Cr11Fe10Ni33
_chemical_formula_sum   'Cr11 Fe10 Ni33'
_cell_volume   583.92558841
_cell_formula_units_Z   1
loop_
 _symmetry_equiv_pos_site_id
 _symmetry_equiv_pos_as_xyz
  1  'x, y, z'
loop_
 _atom_site_type_symbol
 _atom_site_label
 _atom_site_symmetry_multiplicity
 _atom_site_fract_x
 _atom_site_fract_y
 _atom_site_fract_z
 _atom_site_occupancy
  Ni  Ni0  1  1.00078938  1.00089924  0.00462148  1
  Ni  Ni1  1  0.16616151  0.16597432  0.16631624  1
  Fe  Fe2  1  1.00029939  0.99958486  0.33399125  1
  Ni  Ni3  1  0.00253539  0.33566073  0.00240025  1
  Fe  Fe4  1  0.16757708  0.50344372  0.16555393  1
  Cr  Cr5  1  1.00066039  0.33560162  0.33498588  1
  Ni  Ni6  1  1.00050623  0.66769258  1.00093293  1
  Ni  Ni7  1  0.16672081  0.83565570  0.16837333  1
  Ni  Ni8  1  1.00121438  0.66950623  0.33624166  1
  Ni  Ni9  1  0.33466985  0.99994602  0.00182168  1
  Cr  Cr10  1  0.50054705  0.16836314  0.16863505  1
  Ni  Ni11  1  0.33356350  1.00007263  0.33514297  1
  Ni  Ni12  1  0.33306484  0.33674230  1.00073785  1
  Ni  Ni13  1  0.50247383  0.50399029  0.16853882  1
  Cr  Cr14  1  0.33313929  0.33449189  0.33502767  1
  Ni  Ni15  1  0.33587080  0.66785485  0.00284649  1
  Ni  Ni16  1  0.50062198  0.83164561  0.16931354  1
  Fe  Fe17  1  0.33392289  0.66986629  0.33271960  1
  Cr  Cr18  1  0.66849064  0.99746596  1.00003445  1
  Ni  Ni19  1  0.83809333  0.16746219  0.16925247  1
  Ni  Ni20  1  0.66851776  1.00047662  0.33517358  1
  Cr  Cr21  1  0.66910780  0.33650447  1.00114618  1
  Fe  Fe22  1  0.83481687  0.50395148  0.16820884  1
  Ni  Ni23  1  0.66963512  0.33417911  0.33501153  1
  Ni  Ni24  1  0.66775595  0.66899676  1.00114954  1
  Ni  Ni25  1  0.83673314  0.83344131  0.16924971  1
  Ni  Ni26  1  0.67105522  0.66945539  0.33256843  1
  Fe  Fe27  1  0.16882890  0.16478495  0.50202340  1
  Ni  Ni28  1  0.99910209  0.99992819  0.66535096  1
  Cr  Cr29  1  0.16855747  0.16782058  0.83724785  1
  Fe  Fe30  1  0.16696862  0.50471435  0.50232394  1
  Cr  Cr31  1  1.00097532  0.33644497  0.66717339  1
  Ni  Ni32  1  0.16727646  0.50082720  0.83596244  1
  Ni  Ni33  1  0.16423208  0.83673655  0.50001002  1
  Ni  Ni34  1  0.99877211  0.66958214  0.66701610  1
  Cr  Cr35  1  0.16496421  0.83483926  0.83635497  1
  Ni  Ni36  1  0.50119412  0.16853736  0.50223375  1
  Fe  Fe37  1  0.33504340  0.00241199  0.66730227  1
  Ni  Ni38  1  0.50013753  0.16936912  0.83226491  1
  Cr  Cr39  1  0.50603981  0.49938351  0.50065113  1
  Ni  Ni40  1  0.33614558  0.33295584  0.66803768  1
  Ni  Ni41  1  0.50240620  0.50039570  0.83450817  1
  Cr  Cr42  1  0.50314273  0.83596674  0.50003200  1
  Cr  Cr43  1  0.33366290  0.66719960  0.66887797  1
  Ni  Ni44  1  0.50315665  0.83435387  0.83491373  1
  Fe  Fe45  1  0.83123690  0.16601290  0.50060866  1
  Fe  Fe46  1  0.66939659  0.00150606  0.66858503  1
  Fe  Fe47  1  0.83475661  0.16748812  0.83465655  1
  Ni  Ni48  1  0.83432304  0.50333909  0.50099149  1
  Ni  Ni49  1  0.66745892  0.33359852  0.66806949  1
  Ni  Ni50  1  0.83442887  0.50387258  0.83482872  1
  Ni  Ni51  1  0.83770759  0.83297303  0.50144484  1
  Ni  Ni52  1  0.67102535  0.66842880  0.67015460  1
  Ni  Ni53  1  0.83531078  0.83239898  0.83317586  1
" 