1017,Ni62Fe28Cr8_0,-237.940106474798, 207.414850883206,Ni62Fe28Cr8,"# generated using pymatgen
 data_Cr2Fe5Ni11
_symmetry_space_group_name_H-M   'P 1'
_cell_length_a   7.42946039
_cell_length_b   7.42946039
_cell_length_c   10.50684365
_cell_angle_alpha   90.00000000
_cell_angle_beta   90.00000000
_cell_angle_gamma   90.00000000
_symmetry_Int_Tables_number   1
_chemical_formula_structural   Cr2Fe5Ni11
_chemical_formula_sum   'Cr6 Fe15 Ni33'
_cell_volume   579.94500593
_cell_formula_units_Z   3
loop_
 _symmetry_equiv_pos_site_id
 _symmetry_equiv_pos_as_xyz
  1  'x, y, z'
loop_
 _atom_site_type_symbol
 _atom_site_label
 _atom_site_symmetry_multiplicity
 _atom_site_fract_x
 _atom_site_fract_y
 _atom_site_fract_z
 _atom_site_occupancy
  Ni  Ni0  1  1.00149970  1.00129734  1.00119428  1
  Cr  Cr1  1  0.16747646  0.16874970  0.17103597  1
  Fe  Fe2  1  1.00124105  1.00221006  0.33569384  1
  Ni  Ni3  1  1.00045491  0.33704582  1.00154890  1
  Ni  Ni4  1  0.16853020  0.50473691  0.16980951  1
  Fe  Fe5  1  1.00125730  0.33602521  0.33573975  1
  Ni  Ni6  1  0.00255058  0.66920598  1.00220029  1
  Ni  Ni7  1  0.16989338  0.83447102  0.16796521  1
  Ni  Ni8  1  1.00127169  0.66898408  0.33409381  1
  Ni  Ni9  1  0.33573365  1.00155695  1.00214600  1
  Fe  Fe10  1  0.50384814  0.16825425  0.17048685  1
  Ni  Ni11  1  0.33744777  0.00382331  0.33670621  1
  Cr  Cr12  1  0.33688634  0.33715988  1.00189567  1
  Ni  Ni13  1  0.50348765  0.50453935  0.16958503  1
  Ni  Ni14  1  0.33721650  0.33523547  0.33641796  1
  Ni  Ni15  1  0.33413123  0.66951194  0.00316263  1
  Ni  Ni16  1  0.50262660  0.83518950  0.16916532  1
  Ni  Ni17  1  0.33616527  0.66854076  0.33461742  1
  Ni  Ni18  1  0.67031366  0.00367265  0.00364711  1
  Fe  Fe19  1  0.83391721  0.16931718  0.16909036  1
  Ni  Ni20  1  0.66889784  0.00313105  0.33614376  1
  Ni  Ni21  1  0.67064309  0.33548273  1.00174606  1
  Fe  Fe22  1  0.83587643  0.50339053  0.16853908  1
  Ni  Ni23  1  0.66840119  0.33523850  0.33667209  1
  Ni  Ni24  1  0.67092161  0.66845854  0.00321869  1
  Fe  Fe25  1  0.83590588  0.83488458  0.16846073  1
  Ni  Ni26  1  0.67016076  0.66922271  0.33690970  1
  Ni  Ni27  1  0.16729581  0.16834141  0.50174189  1
  Fe  Fe28  1  1.00179407  1.00222697  0.67009832  1
  Fe  Fe29  1  0.16746950  0.16811110  0.83598285  1
  Cr  Cr30  1  0.16944787  0.50196349  0.50060814  1
  Fe  Fe31  1  1.00063627  0.33553185  0.67035130  1
  Ni  Ni32  1  0.16716365  0.50327320  0.83666706  1
  Cr  Cr33  1  0.17092049  0.83707027  0.50283070  1
  Ni  Ni34  1  1.00036002  0.66895737  0.67125278  1
  Fe  Fe35  1  0.16762871  0.83413689  0.83630454  1
  Ni  Ni36  1  0.50430619  0.16780596  0.50135047  1
  Ni  Ni37  1  0.33619458  0.00379356  0.66877060  1
  Fe  Fe38  1  0.50478979  0.16934638  0.83564497  1
  Ni  Ni39  1  0.50508375  0.50398608  0.50210968  1
  Cr  Cr40  1  0.33673780  0.33491107  0.66952506  1
  Ni  Ni41  1  0.50402234  0.50317500  0.83591334  1
  Ni  Ni42  1  0.50432081  0.83582307  0.50256434  1
  Ni  Ni43  1  0.33585715  0.66927848  0.66978105  1
  Cr  Cr44  1  0.50296961  0.83500066  0.83609799  1
  Ni  Ni45  1  0.83589343  0.16911662  0.50277440  1
  Ni  Ni46  1  0.66995722  0.00301147  0.66782120  1
  Fe  Fe47  1  0.83535607  0.16982442  0.83622020  1
  Fe  Fe48  1  0.83373188  0.50230036  0.50277276  1
  Fe  Fe49  1  0.66984672  0.33661617  0.66894259  1
  Ni  Ni50  1  0.83638486  0.50203590  0.83601642  1
  Fe  Fe51  1  0.83347180  0.83621474  0.50311127  1
  Ni  Ni52  1  0.67134297  0.66909070  0.66746215  1
  Ni  Ni53  1  0.83685931  0.83631955  0.83599041  1
" 