1842,Ni62Fe22Cr15_3,-235.245866993972, 196.7983920505,Ni62Fe22Cr15,"# generated using pymatgen
 data_Cr3Fe4Ni11
_symmetry_space_group_name_H-M   'P 1'
_cell_length_a   7.43854125
_cell_length_b   7.43854125
_cell_length_c   10.51968593
_cell_angle_alpha   90.00000000
_cell_angle_beta   90.00000000
_cell_angle_gamma   90.00000000
_symmetry_Int_Tables_number   1
_chemical_formula_structural   Cr3Fe4Ni11
_chemical_formula_sum   'Cr9 Fe12 Ni33'
_cell_volume   582.07416767
_cell_formula_units_Z   3
loop_
 _symmetry_equiv_pos_site_id
 _symmetry_equiv_pos_as_xyz
  1  'x, y, z'
loop_
 _atom_site_type_symbol
 _atom_site_label
 _atom_site_symmetry_multiplicity
 _atom_site_fract_x
 _atom_site_fract_y
 _atom_site_fract_z
 _atom_site_occupancy
  Ni  Ni0  1  0.00206290  0.00234314  0.00258812  1
  Ni  Ni1  1  0.16920813  0.16594060  0.16830680  1
  Fe  Fe2  1  0.00216275  0.99903761  0.33526747  1
  Cr  Cr3  1  0.00220319  0.33499816  0.00246958  1
  Fe  Fe4  1  0.16847467  0.50380000  0.16906829  1
  Cr  Cr5  1  0.00372629  0.33449302  0.33493256  1
  Fe  Fe6  1  1.00168156  0.67208064  0.00320413  1
  Ni  Ni7  1  0.16729426  0.83504085  0.16754443  1
  Ni  Ni8  1  1.00167156  0.66737129  0.33504187  1
  Ni  Ni9  1  0.33491628  1.00124556  1.00175009  1
  Ni  Ni10  1  0.50129399  0.16816568  0.16570433  1
  Cr  Cr11  1  0.33583698  1.00149039  0.33544964  1
  Ni  Ni12  1  0.33332384  0.33435276  0.00363842  1
  Cr  Cr13  1  0.50182503  0.50286368  0.16815509  1
  Fe  Fe14  1  0.33580953  0.33615962  0.33657313  1
  Fe  Fe15  1  0.33602465  0.67198035  1.00134331  1
  Ni  Ni16  1  0.50147387  0.83431276  0.16732176  1
  Ni  Ni17  1  0.33491152  0.66965070  0.33531915  1
  Ni  Ni18  1  0.66854094  0.99830953  0.00361445  1
  Ni  Ni19  1  0.83537669  0.16648707  0.16728666  1
  Cr  Cr20  1  0.66786617  0.99891795  0.33427087  1
  Fe  Fe21  1  0.66862001  0.33377465  0.00223369  1
  Ni  Ni22  1  0.83482290  0.50496250  0.16719518  1
  Cr  Cr23  1  0.67023271  0.33521951  0.33568548  1
  Ni  Ni24  1  0.66882511  0.67037330  1.00188669  1
  Ni  Ni25  1  0.83696225  0.83418026  0.16885113  1
  Ni  Ni26  1  0.66888571  0.66952103  0.33623079  1
  Ni  Ni27  1  0.16904431  0.16625471  0.50307903  1
  Ni  Ni28  1  1.00158750  0.00230014  0.66823161  1
  Ni  Ni29  1  0.16801750  0.16523365  0.83455480  1
  Ni  Ni30  1  0.17025327  0.50525125  0.50060990  1
  Cr  Cr31  1  0.00236428  0.33537698  0.66829193  1
  Cr  Cr32  1  0.17166400  0.50495998  0.83512005  1
  Ni  Ni33  1  0.16718962  0.83430689  0.50318647  1
  Fe  Fe34  1  0.00283948  0.67169912  0.66688116  1
  Ni  Ni35  1  0.16751875  0.83716094  0.83509487  1
  Ni  Ni36  1  0.50198242  0.16984475  0.50465044  1
  Ni  Ni37  1  0.33500713  1.00037246  0.66887482  1
  Cr  Cr38  1  0.50207111  0.16897549  0.83525428  1
  Ni  Ni39  1  0.50157933  0.50314414  0.50288783  1
  Ni  Ni40  1  0.33413278  0.33594700  0.66577773  1
  Ni  Ni41  1  0.50358937  0.50316839  0.83497603  1
  Fe  Fe42  1  0.50094921  0.83391536  0.50344460  1
  Ni  Ni43  1  0.33751156  0.66953825  0.66844776  1
  Ni  Ni44  1  0.50138224  0.83359685  0.83517087  1
  Ni  Ni45  1  0.83473236  0.16662081  0.50306870  1
  Ni  Ni46  1  0.66888421  0.99892805  0.66782160  1
  Ni  Ni47  1  0.83446137  0.16632092  0.83538782  1
  Ni  Ni48  1  0.83400923  0.50443296  0.50340960  1
  Fe  Fe49  1  0.66724542  0.33512687  0.66732329  1
  Fe  Fe50  1  0.83268160  0.50357553  0.83524032  1
  Fe  Fe51  1  0.83646740  0.83431842  0.50215085  1
  Ni  Ni52  1  0.66779194  0.66928565  0.66791880  1
  Fe  Fe53  1  0.83447990  0.83674259  0.83568250  1
" 