8688,Ni62Fe19Cr18_4,-233.78096542915, 191.924963165763,Ni62Fe19Cr18,"# generated using pymatgen
 data_Cr11Fe10Ni33
_symmetry_space_group_name_H-M   'P 1'
_cell_length_a   7.44702772
_cell_length_b   7.44702772
_cell_length_c   10.53168760
_cell_angle_alpha   90.00000000
_cell_angle_beta   90.00000000
_cell_angle_gamma   90.00000000
_symmetry_Int_Tables_number   1
_chemical_formula_structural   Cr11Fe10Ni33
_chemical_formula_sum   'Cr11 Fe10 Ni33'
_cell_volume   584.06866690
_cell_formula_units_Z   1
loop_
 _symmetry_equiv_pos_site_id
 _symmetry_equiv_pos_as_xyz
  1  'x, y, z'
loop_
 _atom_site_type_symbol
 _atom_site_label
 _atom_site_symmetry_multiplicity
 _atom_site_fract_x
 _atom_site_fract_y
 _atom_site_fract_z
 _atom_site_occupancy
  Ni  Ni0  1  0.99992733  1.00085461  0.00187963  1
  Ni  Ni1  1  0.17090435  0.16782606  0.16577065  1
  Cr  Cr2  1  1.00051184  1.00111309  0.33223633  1
  Cr  Cr3  1  0.00203071  0.33500959  0.99954593  1
  Ni  Ni4  1  0.16990060  0.50326821  0.16778625  1
  Cr  Cr5  1  1.00098717  0.33579216  0.33483067  1
  Ni  Ni6  1  1.00063644  0.66875106  0.00310283  1
  Ni  Ni7  1  0.16882538  0.83307625  0.16751227  1
  Fe  Fe8  1  0.00143675  0.66804830  0.33331638  1
  Ni  Ni9  1  0.33565630  1.00019760  0.00362663  1
  Ni  Ni10  1  0.50062345  0.16967438  0.16773716  1
  Ni  Ni11  1  0.33723904  1.00042912  0.33355539  1
  Ni  Ni12  1  0.33493709  0.33629207  1.00128678  1
  Fe  Fe13  1  0.50106099  0.50229684  0.16715884  1
  Ni  Ni14  1  0.33416236  0.33545496  0.33391064  1
  Ni  Ni15  1  0.33614346  0.66780657  0.00182261  1
  Ni  Ni16  1  0.50091389  0.83399960  0.16636980  1
  Ni  Ni17  1  0.33667701  0.66824166  0.33351879  1
  Ni  Ni18  1  0.66844932  0.99948067  0.00141523  1
  Ni  Ni19  1  0.83211524  0.16813145  0.16554067  1
  Cr  Cr20  1  0.66657170  0.99900933  0.33512967  1
  Ni  Ni21  1  0.66768919  0.33547091  0.00321178  1
  Fe  Fe22  1  0.83300410  0.50347913  0.16735598  1
  Fe  Fe23  1  0.66626816  0.33452768  0.33339457  1
  Ni  Ni24  1  0.66717179  0.66949932  0.99933836  1
  Ni  Ni25  1  0.83453208  0.83272098  0.16527520  1
  Ni  Ni26  1  0.66786721  0.66943038  0.33521947  1
  Cr  Cr27  1  0.17112289  0.16823519  0.50255077  1
  Fe  Fe28  1  0.99902009  1.00040348  0.66902346  1
  Fe  Fe29  1  0.16874821  0.16692758  0.83588921  1
  Ni  Ni30  1  0.16803729  0.50306676  0.50218779  1
  Cr  Cr31  1  0.00154331  0.33633899  0.66981967  1
  Fe  Fe32  1  0.16933007  0.50371341  0.83487741  1
  Cr  Cr33  1  0.16879163  0.83180752  0.49925357  1
  Ni  Ni34  1  1.00028105  0.66770996  0.66654816  1
  Cr  Cr35  1  0.16732584  0.83428106  0.83688603  1
  Ni  Ni36  1  0.50115070  0.16740278  0.50085126  1
  Fe  Fe37  1  0.33701976  1.00031393  0.66831961  1
  Cr  Cr38  1  0.50149150  0.16855055  0.83677866  1
  Cr  Cr39  1  0.49984684  0.50117357  0.49979777  1
  Ni  Ni40  1  0.33413231  0.33673154  0.66908152  1
  Ni  Ni41  1  0.50086112  0.50202957  0.83652936  1
  Ni  Ni42  1  0.50168222  0.83477626  0.50346225  1
  Ni  Ni43  1  0.33557121  0.66763358  0.66867409  1
  Ni  Ni44  1  0.50196655  0.83280703  0.83457004  1
  Ni  Ni45  1  0.83232875  0.16751423  0.50234600  1
  Fe  Fe46  1  0.66804056  0.99876587  0.66839019  1
  Ni  Ni47  1  0.83434402  0.16630099  0.83592403  1
  Ni  Ni48  1  0.83530980  0.50377288  0.49918003  1
  Cr  Cr49  1  0.66844328  0.33467210  0.66683306  1
  Ni  Ni50  1  0.83324389  0.50353717  0.83622403  1
  Ni  Ni51  1  0.83386485  0.83238526  0.50398796  1
  Fe  Fe52  1  0.66798650  0.66800110  0.66917530  1
  Ni  Ni53  1  0.83485712  0.83384994  0.83457454  1
" 