7924,Ni62Fe4Cr32_1,-225.68014409662, 147.761271743483,Ni62Fe4Cr32,"# generated using pymatgen
 data_Cr19Fe2Ni33
_symmetry_space_group_name_H-M   'P 1'
_cell_length_a   7.49278452
_cell_length_b   7.49278452
_cell_length_c   10.59639749
_cell_angle_alpha   90.00000000
_cell_angle_beta   90.00000000
_cell_angle_gamma   90.00000000
_symmetry_Int_Tables_number   1
_chemical_formula_structural   Cr19Fe2Ni33
_chemical_formula_sum   'Cr19 Fe2 Ni33'
_cell_volume   594.90103895
_cell_formula_units_Z   1
loop_
 _symmetry_equiv_pos_site_id
 _symmetry_equiv_pos_as_xyz
  1  'x, y, z'
loop_
 _atom_site_type_symbol
 _atom_site_label
 _atom_site_symmetry_multiplicity
 _atom_site_fract_x
 _atom_site_fract_y
 _atom_site_fract_z
 _atom_site_occupancy
  Cr  Cr0  1  0.99710592  0.99571966  -0.00137410  1
  Cr  Cr1  1  0.16306177  0.16744974  0.16817939  1
  Ni  Ni2  1  0.99658975  -0.00058874  0.33085666  1
  Cr  Cr3  1  0.99611863  0.33355619  0.99643103  1
  Cr  Cr4  1  0.16563531  0.50028510  0.16727133  1
  Ni  Ni5  1  0.99513956  0.33173421  0.33248197  1
  Ni  Ni6  1  0.99586069  0.66475586  0.99706717  1
  Cr  Cr7  1  0.16443419  0.82736802  0.16594991  1
  Ni  Ni8  1  0.99474492  0.66366570  0.33013227  1
  Cr  Cr9  1  0.33193886  0.99760210  -0.00037211  1
  Ni  Ni10  1  0.50413642  0.16613753  0.16558821  1
  Cr  Cr11  1  0.33447036  -0.00099437  0.33133720  1
  Cr  Cr12  1  0.33358785  0.33209173  -0.00112948  1
  Ni  Ni13  1  0.50069369  0.49956153  0.16533831  1
  Fe  Fe14  1  0.33525226  0.33204836  0.33222161  1
  Ni  Ni15  1  0.33293909  0.66413421  0.99651920  1
  Ni  Ni16  1  0.50185715  0.82917962  0.16501326  1
  Ni  Ni17  1  0.33624530  0.66452870  0.33225445  1
  Ni  Ni18  1  0.66559175  0.99662359  0.00147664  1
  Ni  Ni19  1  0.82749927  0.16529920  0.16660545  1
  Ni  Ni20  1  0.66393312  0.99818270  0.33021925  1
  Ni  Ni21  1  0.66500222  0.33453338  -0.00003422  1
  Ni  Ni22  1  0.82942861  0.49885413  0.16586786  1
  Ni  Ni23  1  0.66465846  0.33299000  0.33105465  1
  Ni  Ni24  1  0.66620064  0.66381589  -0.00074336  1
  Ni  Ni25  1  0.82859088  0.83062684  0.16587912  1
  Ni  Ni26  1  0.66391334  0.66355315  0.33124965  1
  Ni  Ni27  1  0.16465668  0.16534905  0.49852601  1
  Ni  Ni28  1  0.00117838  -0.00116354  0.66662727  1
  Ni  Ni29  1  0.16399319  0.16446111  0.82809066  1
  Cr  Cr30  1  0.16390083  0.49773668  0.49489587  1
  Ni  Ni31  1  -0.00004878  0.33178912  0.66574242  1
  Ni  Ni32  1  0.16531614  0.50031309  0.83183326  1
  Cr  Cr33  1  0.16541252  0.83158582  0.49781396  1
  Cr  Cr34  1  0.99587159  0.66315930  0.66740642  1
  Ni  Ni35  1  0.16468511  0.83005183  0.83082269  1
  Ni  Ni36  1  0.49847288  0.16427389  0.49744912  1
  Ni  Ni37  1  0.33059727  -0.00162483  0.66403785  1
  Cr  Cr38  1  0.50056875  0.16473488  0.83262709  1
  Ni  Ni39  1  0.49879489  0.49903708  0.49548672  1
  Cr  Cr40  1  0.33154991  0.33148147  0.66431827  1
  Ni  Ni41  1  0.49831638  0.50023240  0.83366529  1
  Ni  Ni42  1  0.49822877  0.83165827  0.49826815  1
  Fe  Fe43  1  0.33181476  0.66523090  0.66510558  1
  Cr  Cr44  1  0.49951590  0.83100802  0.83128707  1
  Cr  Cr45  1  0.83208598  0.16527805  0.49895911  1
  Ni  Ni46  1  0.66308541  0.99669435  0.66358699  1
  Cr  Cr47  1  0.82981521  0.16358120  0.83024117  1
  Ni  Ni48  1  0.83104073  0.49697227  0.49554088  1
  Cr  Cr49  1  0.66559488  0.33575836  0.66402893  1
  Ni  Ni50  1  0.83128072  0.49959178  0.83339086  1
  Cr  Cr51  1  0.83016091  0.83259594  0.49616521  1
  Cr  Cr52  1  0.66479430  0.66365715  0.66316443  1
  Ni  Ni53  1  0.83194459  0.83110021  0.83283529  1
" 