2931,Ni62Fe22Cr15_8,-235.25501284663, 192.881718112666,Ni62Fe22Cr15,"# generated using pymatgen
 data_Cr3Fe4Ni11
_symmetry_space_group_name_H-M   'P 1'
_cell_length_a   7.44173046
_cell_length_b   7.44173046
_cell_length_c   10.52419615
_cell_angle_alpha   90.00000000
_cell_angle_beta   90.00000000
_cell_angle_gamma   90.00000000
_symmetry_Int_Tables_number   1
_chemical_formula_structural   Cr3Fe4Ni11
_chemical_formula_sum   'Cr9 Fe12 Ni33'
_cell_volume   582.82316641
_cell_formula_units_Z   3
loop_
 _symmetry_equiv_pos_site_id
 _symmetry_equiv_pos_as_xyz
  1  'x, y, z'
loop_
 _atom_site_type_symbol
 _atom_site_label
 _atom_site_symmetry_multiplicity
 _atom_site_fract_x
 _atom_site_fract_y
 _atom_site_fract_z
 _atom_site_occupancy
  Ni  Ni0  1  0.00225022  1.00128732  0.00290557  1
  Fe  Fe1  1  0.16939545  0.16838201  0.16736067  1
  Cr  Cr2  1  1.00129439  0.00205849  0.33486620  1
  Fe  Fe3  1  1.00108138  0.33415734  1.00080183  1
  Cr  Cr4  1  0.16614490  0.50278555  0.16820920  1
  Ni  Ni5  1  0.99992787  0.33539835  0.33559682  1
  Ni  Ni6  1  1.00075954  0.67089529  1.00068694  1
  Ni  Ni7  1  0.16847404  0.83538109  0.16776999  1
  Ni  Ni8  1  0.00179436  0.66834026  0.33606133  1
  Ni  Ni9  1  0.33362026  0.00312899  0.00182771  1
  Ni  Ni10  1  0.50388253  0.16757968  0.16777136  1
  Fe  Fe11  1  0.33476145  1.00114454  0.33447413  1
  Ni  Ni12  1  0.33749009  0.33290484  1.00099644  1
  Ni  Ni13  1  0.50334941  0.50038288  0.17034778  1
  Fe  Fe14  1  0.33367721  0.33329992  0.33412712  1
  Cr  Cr15  1  0.33541330  0.66909672  1.00020941  1
  Ni  Ni16  1  0.50060792  0.83717344  0.17017424  1
  Fe  Fe17  1  0.33434935  0.67062640  0.33480201  1
  Fe  Fe18  1  0.66778588  0.00280190  0.00192516  1
  Ni  Ni19  1  0.83366915  0.16971214  0.16746226  1
  Ni  Ni20  1  0.66814271  0.00177664  0.33397825  1
  Ni  Ni21  1  0.66765077  0.33433987  0.00190824  1
  Ni  Ni22  1  0.83542920  0.49974847  0.16869107  1
  Ni  Ni23  1  0.66999282  0.33475450  0.33362408  1
  Cr  Cr24  1  0.66888904  0.66720157  0.00265148  1
  Fe  Fe25  1  0.83501989  0.83456510  0.16838418  1
  Fe  Fe26  1  0.67132414  0.66928555  0.33416649  1
  Ni  Ni27  1  0.16557407  0.16791932  0.50152754  1
  Ni  Ni28  1  0.00201859  0.00233929  0.66742663  1
  Ni  Ni29  1  0.16636304  0.16689414  0.83609945  1
  Ni  Ni30  1  0.16401476  0.50258015  0.50044599  1
  Ni  Ni31  1  1.00157111  0.33376414  0.66795236  1
  Ni  Ni32  1  0.16492514  0.50164717  0.83565950  1
  Ni  Ni33  1  0.16895156  0.83452700  0.50221660  1
  Fe  Fe34  1  1.00072515  0.66879068  0.66824354  1
  Ni  Ni35  1  0.16680859  0.83642995  0.83506672  1
  Cr  Cr36  1  0.50368433  0.16440269  0.50196386  1
  Ni  Ni37  1  0.33307765  1.00039266  0.66875312  1
  Ni  Ni38  1  0.50289146  0.16553830  0.83652391  1
  Cr  Cr39  1  0.50310164  0.50390439  0.49864103  1
  Cr  Cr40  1  0.33198488  0.33348899  0.66995957  1
  Ni  Ni41  1  0.50264081  0.50150468  0.83630689  1
  Ni  Ni42  1  0.50197000  0.83607499  0.50110629  1
  Cr  Cr43  1  0.33528314  0.66919216  0.67025614  1
  Ni  Ni44  1  0.50215114  0.83803395  0.83392568  1
  Ni  Ni45  1  0.83608020  0.16897635  0.50177797  1
  Ni  Ni46  1  0.67010725  0.99911651  0.66938445  1
  Ni  Ni47  1  0.83576416  0.16748521  0.83564206  1
  Ni  Ni48  1  0.83802467  0.50153854  0.50128406  1
  Cr  Cr49  1  0.67073486  0.33548860  0.66976166  1
  Fe  Fe50  1  0.83656885  0.50147660  0.83524766  1
  Fe  Fe51  1  0.83460414  0.83494591  0.50241466  1
  Ni  Ni52  1  0.66983974  0.67044544  0.66807026  1
  Fe  Fe53  1  0.83621714  0.83674872  0.83441781  1
" 