2713,Ni62Fe4Cr32_17,-226.0622771187, 150.080896680388,Ni62Fe4Cr32,"# generated using pymatgen
 data_Cr19Fe2Ni33
_symmetry_space_group_name_H-M   'P 1'
_cell_length_a   7.48410139
_cell_length_b   7.48410139
_cell_length_c   10.58411769
_cell_angle_alpha   90.00000000
_cell_angle_beta   90.00000000
_cell_angle_gamma   90.00000000
_symmetry_Int_Tables_number   1
_chemical_formula_structural   Cr19Fe2Ni33
_chemical_formula_sum   'Cr19 Fe2 Ni33'
_cell_volume   592.83520449
_cell_formula_units_Z   1
loop_
 _symmetry_equiv_pos_site_id
 _symmetry_equiv_pos_as_xyz
  1  'x, y, z'
loop_
 _atom_site_type_symbol
 _atom_site_label
 _atom_site_symmetry_multiplicity
 _atom_site_fract_x
 _atom_site_fract_y
 _atom_site_fract_z
 _atom_site_occupancy
  Ni  Ni0  1  0.99528527  0.00114780  -0.00068461  1
  Cr  Cr1  1  0.16289923  0.16806763  0.16734051  1
  Ni  Ni2  1  0.99537248  0.99678273  0.33299323  1
  Ni  Ni3  1  0.99485536  0.33117854  -0.00077478  1
  Ni  Ni4  1  0.16566317  0.49713938  0.16636431  1
  Fe  Fe5  1  0.99682731  0.33303055  0.33366688  1
  Cr  Cr6  1  0.99788967  0.66512629  0.00088182  1
  Cr  Cr7  1  0.16452356  0.83299189  0.16529005  1
  Ni  Ni8  1  0.99720767  0.66612248  0.33373176  1
  Cr  Cr9  1  0.33370362  0.00019107  0.99855168  1
  Ni  Ni10  1  0.50138128  0.16845058  0.16841012  1
  Ni  Ni11  1  0.33272347  0.00170258  0.33345654  1
  Cr  Cr12  1  0.33603209  0.33341707  -0.00064848  1
  Ni  Ni13  1  0.49920656  0.49625043  0.16602141  1
  Ni  Ni14  1  0.33499188  0.33286111  0.33258298  1
  Ni  Ni15  1  0.33265515  0.66185088  -0.00053603  1
  Cr  Cr16  1  0.50180052  0.83143855  0.16778867  1
  Cr  Cr17  1  0.32974485  0.66199178  0.33282173  1
  Cr  Cr18  1  0.66796037  0.00316802  -0.00000680  1
  Ni  Ni19  1  0.83138956  0.16579515  0.16588367  1
  Ni  Ni20  1  0.66881740  0.00162085  0.33222726  1
  Ni  Ni21  1  0.66663515  0.33124603  0.99780825  1
  Cr  Cr22  1  0.83136494  0.49614767  0.16754663  1
  Ni  Ni23  1  0.66421633  0.33118183  0.33283116  1
  Cr  Cr24  1  0.66553061  0.66189291  -0.00034607  1
  Ni  Ni25  1  0.83271955  0.83428753  0.16871364  1
  Ni  Ni26  1  0.66904662  0.66387343  0.33361341  1
  Cr  Cr27  1  0.16295993  0.16638953  0.49714913  1
  Ni  Ni28  1  0.99413359  0.99823838  0.66423993  1
  Cr  Cr29  1  0.16018964  0.16649252  0.83186176  1
  Ni  Ni30  1  0.16357533  0.49960689  0.49838412  1
  Ni  Ni31  1  0.99388528  0.33372804  0.66415090  1
  Cr  Cr32  1  0.16317665  0.49834717  0.83207737  1
  Ni  Ni33  1  0.16288349  0.83121834  0.49952560  1
  Ni  Ni34  1  0.99830676  0.66464057  0.66275660  1
  Cr  Cr35  1  0.16528244  0.83209558  0.83151758  1
  Ni  Ni36  1  0.50271629  0.16722420  0.49679388  1
  Cr  Cr37  1  0.33334604  0.00015745  0.66389358  1
  Ni  Ni38  1  0.50358869  0.16782956  0.83109565  1
  Ni  Ni39  1  0.50122233  0.49747992  0.49885118  1
  Cr  Cr40  1  0.33567153  0.33384879  0.66380025  1
  Ni  Ni41  1  0.50185595  0.49808345  0.83142086  1
  Cr  Cr42  1  0.50196944  0.83237674  0.49856339  1
  Ni  Ni43  1  0.33077591  0.66298611  0.66432199  1
  Cr  Cr44  1  0.49978371  0.82953761  0.82999539  1
  Ni  Ni45  1  0.83049182  0.16600494  0.49908430  1
  Ni  Ni46  1  0.66905132  0.00312699  0.66429469  1
  Ni  Ni47  1  0.83120796  0.16841959  0.83173657  1
  Ni  Ni48  1  0.83166545  0.49814295  0.49918695  1
  Ni  Ni49  1  0.66733408  0.33144932  0.66597923  1
  Ni  Ni50  1  0.83009278  0.49498964  0.83037842  1
  Ni  Ni51  1  0.83323363  0.83228955  0.49828635  1
  Fe  Fe52  1  0.66746384  0.66269731  0.66350649  1
  Cr  Cr53  1  0.83216842  0.83212004  0.83009487  1
" 