8741,Ni62Fe19Cr18_15,-233.477608607654, 190.787883614288,Ni62Fe19Cr18,"# generated using pymatgen
 data_Cr11Fe10Ni33
_symmetry_space_group_name_H-M   'P 1'
_cell_length_a   7.44645319
_cell_length_b   7.44645319
_cell_length_c   10.53087509
_cell_angle_alpha   90.00000000
_cell_angle_beta   90.00000000
_cell_angle_gamma   90.00000000
_symmetry_Int_Tables_number   1
_chemical_formula_structural   Cr11Fe10Ni33
_chemical_formula_sum   'Cr11 Fe10 Ni33'
_cell_volume   583.93349661
_cell_formula_units_Z   1
loop_
 _symmetry_equiv_pos_site_id
 _symmetry_equiv_pos_as_xyz
  1  'x, y, z'
loop_
 _atom_site_type_symbol
 _atom_site_label
 _atom_site_symmetry_multiplicity
 _atom_site_fract_x
 _atom_site_fract_y
 _atom_site_fract_z
 _atom_site_occupancy
  Ni  Ni0  1  1.00083936  0.00214083  0.00144158  1
  Fe  Fe1  1  0.16480376  0.17025895  0.16821343  1
  Ni  Ni2  1  0.99979115  0.00198246  0.33367449  1
  Ni  Ni3  1  0.00355663  0.33373433  0.00167759  1
  Fe  Fe4  1  0.16816544  0.49966970  0.16709605  1
  Ni  Ni5  1  0.00251126  0.33460639  0.33433481  1
  Ni  Ni6  1  0.00171124  0.66827417  1.00049258  1
  Cr  Cr7  1  0.16596956  0.83422310  0.16727813  1
  Ni  Ni8  1  0.99936944  0.66756161  0.33714575  1
  Cr  Cr9  1  0.33366233  0.00169590  0.99995465  1
  Cr  Cr10  1  0.50282991  0.16989641  0.16921139  1
  Cr  Cr11  1  0.33512746  0.00261351  0.33687121  1
  Ni  Ni12  1  0.33362944  0.33756209  0.00162183  1
  Ni  Ni13  1  0.50062421  0.50211902  0.16647332  1
  Fe  Fe14  1  0.33424558  0.33555334  0.33564928  1
  Fe  Fe15  1  0.33579829  0.66511211  1.00016275  1
  Ni  Ni16  1  0.50367102  0.83190754  0.16795623  1
  Cr  Cr17  1  0.33647237  0.66626538  0.33520734  1
  Cr  Cr18  1  0.67035971  0.99975381  1.00130974  1
  Ni  Ni19  1  0.83725269  0.16707537  0.16852076  1
  Ni  Ni20  1  0.66936193  0.99954059  0.33442113  1
  Ni  Ni21  1  0.66696041  0.33668210  1.00008863  1
  Cr  Cr22  1  0.83445570  0.50092295  0.16809502  1
  Ni  Ni23  1  0.66783595  0.33585681  0.33574000  1
  Ni  Ni24  1  0.66636478  0.66776311  0.00256360  1
  Ni  Ni25  1  0.83472821  0.83613145  0.16825781  1
  Ni  Ni26  1  0.66853742  0.66875124  0.33488889  1
  Ni  Ni27  1  0.16821016  0.16821793  0.50092136  1
  Ni  Ni28  1  0.00243926  1.00130505  0.66902779  1
  Fe  Fe29  1  0.16659548  0.16858950  0.83438910  1
  Ni  Ni30  1  0.16645071  0.50135814  0.50107482  1
  Ni  Ni31  1  0.00156965  0.33422769  0.66813424  1
  Ni  Ni32  1  0.16892302  0.50233958  0.83636734  1
  Fe  Fe33  1  0.16694878  0.83466561  0.50275347  1
  Fe  Fe34  1  0.00346961  0.66842485  0.66692880  1
  Fe  Fe35  1  0.16759271  0.83370840  0.83405643  1
  Ni  Ni36  1  0.50087062  0.16739465  0.50217374  1
  Ni  Ni37  1  0.33459248  0.99948978  0.66761093  1
  Fe  Fe38  1  0.50246908  0.16950196  0.83354880  1
  Ni  Ni39  1  0.50150447  0.50105055  0.50057096  1
  Cr  Cr40  1  0.33475949  0.33509513  0.66692796  1
  Ni  Ni41  1  0.49926638  0.50203448  0.83710143  1
  Ni  Ni42  1  0.50166799  0.83570207  0.50162745  1
  Ni  Ni43  1  0.33389352  0.66979051  0.66880353  1
  Ni  Ni44  1  0.49942025  0.83423893  0.83456563  1
  Cr  Cr45  1  0.83433908  0.16833545  0.50113235  1
  Ni  Ni46  1  0.66711634  0.00169771  0.66867799  1
  Ni  Ni47  1  0.83583587  0.16753864  0.83435680  1
  Ni  Ni48  1  0.83619407  0.50215103  0.50087315  1
  Ni  Ni49  1  0.66829140  0.33352898  0.66832155  1
  Cr  Cr50  1  0.83550421  0.49895939  0.83479715  1
  Ni  Ni51  1  0.83537242  0.83394313  0.50015704  1
  Cr  Cr52  1  0.66697242  0.66796399  0.66634533  1
  Fe  Fe53  1  0.83576834  0.83576561  0.83507991  1
" 