5327,Ni62Fe22Cr15_11,-235.482093726509, 197.253139106216,Ni62Fe22Cr15,"# generated using pymatgen
 data_Cr3Fe4Ni11
_symmetry_space_group_name_H-M   'P 1'
_cell_length_a   7.43675692
_cell_length_b   7.43675692
_cell_length_c   10.51716249
_cell_angle_alpha   90.00000000
_cell_angle_beta   90.00000000
_cell_angle_gamma   90.00000000
_symmetry_Int_Tables_number   1
_chemical_formula_structural   Cr3Fe4Ni11
_chemical_formula_sum   'Cr9 Fe12 Ni33'
_cell_volume   581.65538843
_cell_formula_units_Z   3
loop_
 _symmetry_equiv_pos_site_id
 _symmetry_equiv_pos_as_xyz
  1  'x, y, z'
loop_
 _atom_site_type_symbol
 _atom_site_label
 _atom_site_symmetry_multiplicity
 _atom_site_fract_x
 _atom_site_fract_y
 _atom_site_fract_z
 _atom_site_occupancy
  Fe  Fe0  1  1.00081327  0.00336761  1.00082664  1
  Ni  Ni1  1  0.16801715  0.16907219  0.16697002  1
  Fe  Fe2  1  1.00135341  1.00148959  0.33316538  1
  Ni  Ni3  1  1.00095365  0.33802316  0.00320124  1
  Ni  Ni4  1  0.16981778  0.50110428  0.16881563  1
  Fe  Fe5  1  0.00351254  0.33595103  0.33279379  1
  Ni  Ni6  1  0.00233845  0.66795671  1.00131373  1
  Fe  Fe7  1  0.16819426  0.83422683  0.16596184  1
  Ni  Ni8  1  0.00460148  0.66668227  0.33252376  1
  Ni  Ni9  1  0.33643617  1.00099077  1.00186761  1
  Ni  Ni10  1  0.50156809  0.16862311  0.16670715  1
  Cr  Cr11  1  0.33964459  1.00129303  0.33318337  1
  Fe  Fe12  1  0.33511325  0.33485101  0.00278449  1
  Ni  Ni13  1  0.49995711  0.50233582  0.16621595  1
  Ni  Ni14  1  0.33400706  0.33690337  0.33297988  1
  Fe  Fe15  1  0.33582247  0.66862722  1.00157465  1
  Ni  Ni16  1  0.50227269  0.83493835  0.16696311  1
  Ni  Ni17  1  0.33246137  0.66653702  0.33338748  1
  Ni  Ni18  1  0.66686494  0.00226724  0.00327964  1
  Ni  Ni19  1  0.83670967  0.16709771  0.16867405  1
  Ni  Ni20  1  0.66996301  0.00311699  0.33397403  1
  Ni  Ni21  1  0.67023571  0.33442895  0.00265934  1
  Ni  Ni22  1  0.83654251  0.50248661  0.16634010  1
  Cr  Cr23  1  0.66766283  0.33311269  0.33373847  1
  Fe  Fe24  1  0.66927422  0.66898299  1.00119740  1
  Ni  Ni25  1  0.83587293  0.83698520  0.16663266  1
  Cr  Cr26  1  0.66748610  0.67071943  0.33198763  1
  Cr  Cr27  1  0.16764120  0.16974844  0.50268796  1
  Ni  Ni28  1  0.00303282  0.00205908  0.67286734  1
  Fe  Fe29  1  0.16996099  0.16842683  0.83772145  1
  Ni  Ni30  1  0.17345259  0.50191250  0.50177558  1
  Cr  Cr31  1  1.00131842  0.33723960  0.67134656  1
  Fe  Fe32  1  0.16849186  0.50494016  0.83707593  1
  Cr  Cr33  1  0.16915332  0.83336413  0.50314650  1
  Ni  Ni34  1  0.00370545  0.66902514  0.67197002  1
  Ni  Ni35  1  0.16949978  0.83741248  0.83541075  1
  Fe  Fe36  1  0.50153627  0.17125578  0.50206993  1
  Ni  Ni37  1  0.33567795  0.00227013  0.67068229  1
  Fe  Fe38  1  0.50309112  0.16823021  0.83794093  1
  Ni  Ni39  1  0.49813037  0.50191054  0.50367113  1
  Ni  Ni40  1  0.33732770  0.33579686  0.67136105  1
  Ni  Ni41  1  0.50173578  0.50091827  0.83590221  1
  Fe  Fe42  1  0.50165764  0.83300249  0.50266538  1
  Ni  Ni43  1  0.33499215  0.66813815  0.66954880  1
  Ni  Ni44  1  0.50038341  0.83332195  0.83500841  1
  Ni  Ni45  1  0.83495602  0.16731855  0.50086858  1
  Cr  Cr46  1  0.66712736  0.00371034  0.66887512  1
  Ni  Ni47  1  0.83591391  0.16922213  0.83712279  1
  Cr  Cr48  1  0.83514107  0.50194139  0.50344511  1
  Ni  Ni49  1  0.66651627  0.33533232  0.66968549  1
  Ni  Ni50  1  0.83218754  0.50218729  0.83607885  1
  Cr  Cr51  1  0.83673782  0.83668754  0.50401020  1
  Ni  Ni52  1  0.66712667  0.66700117  0.67163007  1
  Ni  Ni53  1  0.83598163  0.83542917  0.83568639  1
" 