5847,Ni62Fe4Cr32_18,-225.918038179318, 150.704764529115,Ni62Fe4Cr32,"# generated using pymatgen
 data_Cr19Fe2Ni33
_symmetry_space_group_name_H-M   'P 1'
_cell_length_a   7.48679460
_cell_length_b   7.48679460
_cell_length_c   10.58792646
_cell_angle_alpha   90.00000000
_cell_angle_beta   90.00000000
_cell_angle_gamma   90.00000000
_symmetry_Int_Tables_number   1
_chemical_formula_structural   Cr19Fe2Ni33
_chemical_formula_sum   'Cr19 Fe2 Ni33'
_cell_volume   593.47544259
_cell_formula_units_Z   1
loop_
 _symmetry_equiv_pos_site_id
 _symmetry_equiv_pos_as_xyz
  1  'x, y, z'
loop_
 _atom_site_type_symbol
 _atom_site_label
 _atom_site_symmetry_multiplicity
 _atom_site_fract_x
 _atom_site_fract_y
 _atom_site_fract_z
 _atom_site_occupancy
  Cr  Cr0  1  0.99756231  0.99636935  0.99844855  1
  Cr  Cr1  1  0.16624629  0.16373941  0.16668072  1
  Cr  Cr2  1  0.99782988  0.99691138  0.33532195  1
  Ni  Ni3  1  0.99630649  0.33396741  0.99499491  1
  Cr  Cr4  1  0.16230135  0.50007860  0.16618342  1
  Ni  Ni5  1  0.99657258  0.33218524  0.33533772  1
  Ni  Ni6  1  0.99663452  0.66704307  0.99672599  1
  Ni  Ni7  1  0.16554293  0.83110874  0.16614113  1
  Ni  Ni8  1  0.99744958  0.66719479  0.33303072  1
  Ni  Ni9  1  0.33469876  0.99708915  0.99806194  1
  Ni  Ni10  1  0.49967553  0.16129262  0.16705522  1
  Ni  Ni11  1  0.33299343  0.99720502  0.33251976  1
  Cr  Cr12  1  0.33381066  0.32962095  0.99772512  1
  Cr  Cr13  1  0.50098272  0.50002734  0.17050650  1
  Ni  Ni14  1  0.33284326  0.32926582  0.33201228  1
  Cr  Cr15  1  0.33168202  0.66838733  0.99580701  1
  Cr  Cr16  1  0.50078271  0.83384472  0.16596454  1
  Ni  Ni17  1  0.33123583  0.66922050  0.33355258  1
  Ni  Ni18  1  0.66368382  0.99706562  0.99651813  1
  Cr  Cr19  1  0.83001747  0.16430735  0.16594284  1
  Ni  Ni20  1  0.66428955  0.99806765  0.33344406  1
  Cr  Cr21  1  0.66518626  0.32992163  0.99727119  1
  Cr  Cr22  1  0.83283449  0.50121017  0.16593201  1
  Ni  Ni23  1  0.66637879  0.33023392  0.33330009  1
  Ni  Ni24  1  0.66908459  0.66903483  0.99659017  1
  Fe  Fe25  1  0.83180526  0.83144083  0.16573881  1
  Ni  Ni26  1  0.66757282  0.66781108  0.33448860  1
  Ni  Ni27  1  0.16522383  0.16257136  0.49866755  1
  Ni  Ni28  1  0.99760949  0.99740899  0.66356059  1
  Cr  Cr29  1  0.16489940  0.16356472  0.83049208  1
  Cr  Cr30  1  0.16526273  0.49759133  0.49633801  1
  Cr  Cr31  1  0.99585174  0.33032360  0.66477822  1
  Ni  Ni32  1  0.16153464  0.49968570  0.83346138  1
  Ni  Ni33  1  0.16628108  0.83510484  0.49772530  1
  Cr  Cr34  1  0.99626549  0.66911970  0.66544433  1
  Ni  Ni35  1  0.16482469  0.83319506  0.83225810  1
  Cr  Cr36  1  0.49838396  0.16314873  0.49956008  1
  Ni  Ni37  1  0.33134744  0.99764876  0.66549403  1
  Ni  Ni38  1  0.50080848  0.16010861  0.83064633  1
  Cr  Cr39  1  0.50127743  0.50072458  0.49713339  1
  Ni  Ni40  1  0.33386491  0.32848135  0.66685487  1
  Cr  Cr41  1  0.50088270  0.50045680  0.82891649  1
  Ni  Ni42  1  0.49996158  0.83324737  0.49841814  1
  Cr  Cr43  1  0.33267000  0.66868331  0.66607390  1
  Ni  Ni44  1  0.50126529  0.83614333  0.83095206  1
  Ni  Ni45  1  0.83166027  0.16457800  0.49926701  1
  Fe  Fe46  1  0.66683173  0.99749517  0.66537673  1
  Ni  Ni47  1  0.82945002  0.16336161  0.83054834  1
  Ni  Ni48  1  0.83017336  0.49911892  0.49672832  1
  Ni  Ni49  1  0.66649468  0.33147976  0.66614193  1
  Ni  Ni50  1  0.83231206  0.50015795  0.83284062  1
  Ni  Ni51  1  0.82989650  0.83220110  0.49783568  1
  Ni  Ni52  1  0.66751958  0.66706130  0.66508126  1
  Ni  Ni53  1  0.83022847  0.83247899  0.83289473  1
" 