8524,Ni62Fe28Cr8_16,-237.863976497791, 205.782183772706,Ni62Fe28Cr8,"# generated using pymatgen
 data_Cr2Fe5Ni11
_symmetry_space_group_name_H-M   'P 1'
_cell_length_a   7.43194662
_cell_length_b   7.43194662
_cell_length_c   10.51035970
_cell_angle_alpha   90.00000000
_cell_angle_beta   90.00000000
_cell_angle_gamma   90.00000000
_symmetry_Int_Tables_number   1
_chemical_formula_structural   Cr2Fe5Ni11
_chemical_formula_sum   'Cr6 Fe15 Ni33'
_cell_volume   580.52742627
_cell_formula_units_Z   3
loop_
 _symmetry_equiv_pos_site_id
 _symmetry_equiv_pos_as_xyz
  1  'x, y, z'
loop_
 _atom_site_type_symbol
 _atom_site_label
 _atom_site_symmetry_multiplicity
 _atom_site_fract_x
 _atom_site_fract_y
 _atom_site_fract_z
 _atom_site_occupancy
  Ni  Ni0  1  0.00245994  0.00407273  0.00318707  1
  Ni  Ni1  1  0.16953863  0.16882793  0.16929900  1
  Ni  Ni2  1  0.00363788  1.00105283  0.33512499  1
  Ni  Ni3  1  0.00408393  0.33360616  1.00069896  1
  Ni  Ni4  1  0.17132276  0.50295030  0.16813501  1
  Fe  Fe5  1  0.00303173  0.33415438  0.33416996  1
  Fe  Fe6  1  0.00263603  0.66938169  1.00228780  1
  Ni  Ni7  1  0.16844298  0.83530667  0.16997662  1
  Ni  Ni8  1  1.00158652  0.67159130  0.33599826  1
  Ni  Ni9  1  0.33487038  0.00262546  1.00209692  1
  Ni  Ni10  1  0.50185767  0.16888617  0.17038272  1
  Ni  Ni11  1  0.33459110  0.00368491  0.33731565  1
  Fe  Fe12  1  0.33390520  0.33576799  0.00275621  1
  Ni  Ni13  1  0.49968883  0.50250569  0.17055860  1
  Ni  Ni14  1  0.33762137  0.33414666  0.33446425  1
  Ni  Ni15  1  0.33714641  0.66855431  0.00348825  1
  Fe  Fe16  1  0.50202845  0.83586763  0.16927786  1
  Fe  Fe17  1  0.33656816  0.67019396  0.33483835  1
  Fe  Fe18  1  0.66958379  1.00097604  0.00257289  1
  Ni  Ni19  1  0.83568840  0.16600881  0.16976997  1
  Ni  Ni20  1  0.66885412  1.00232884  0.33450032  1
  Cr  Cr21  1  0.66888138  0.33597257  1.00209347  1
  Cr  Cr22  1  0.83623587  0.50329951  0.17048099  1
  Ni  Ni23  1  0.66652069  0.33619575  0.33632330  1
  Ni  Ni24  1  0.66745489  0.67018049  1.00043655  1
  Ni  Ni25  1  0.83613319  0.83747523  0.16911562  1
  Ni  Ni26  1  0.66915338  0.66855931  0.33758106  1
  Ni  Ni27  1  0.17188743  0.16816659  0.50154682  1
  Cr  Cr28  1  0.00322653  1.00201651  0.66846805  1
  Ni  Ni29  1  0.17004942  0.17175956  0.83623670  1
  Cr  Cr30  1  0.16870391  0.50318281  0.50186224  1
  Fe  Fe31  1  0.00309697  0.33780313  0.67169691  1
  Ni  Ni32  1  0.16907602  0.50117870  0.83647277  1
  Ni  Ni33  1  0.16968850  0.83557524  0.50125644  1
  Ni  Ni34  1  1.00110933  0.66801403  0.66985995  1
  Cr  Cr35  1  0.16900899  0.83410204  0.83622144  1
  Ni  Ni36  1  0.50120403  0.16846586  0.50227504  1
  Fe  Fe37  1  0.33726396  0.00264010  0.66775389  1
  Ni  Ni38  1  0.50210516  0.16896912  0.83442863  1
  Fe  Fe39  1  0.50347382  0.50263051  0.50192629  1
  Fe  Fe40  1  0.33573454  0.33534569  0.66967086  1
  Ni  Ni41  1  0.50162505  0.50251023  0.83463345  1
  Ni  Ni42  1  0.50257778  0.83610249  0.50255538  1
  Ni  Ni43  1  0.33715346  0.66853339  0.66860251  1
  Fe  Fe44  1  0.50368487  0.83519802  0.83565862  1
  Cr  Cr45  1  0.83439240  0.16913317  0.50015635  1
  Fe  Fe46  1  0.66704617  1.00080495  0.66927787  1
  Ni  Ni47  1  0.83493032  0.16893742  0.83628143  1
  Fe  Fe48  1  0.83440077  0.50460625  0.50229657  1
  Fe  Fe49  1  0.66825245  0.33686104  0.67014598  1
  Ni  Ni50  1  0.83638437  0.50351824  0.83402162  1
  Ni  Ni51  1  0.83482109  0.83324654  0.50133974  1
  Fe  Fe52  1  0.66950547  0.66941583  0.66931434  1
  Ni  Ni53  1  0.83359417  0.83462989  0.83663015  1
" 