2302,Ni62Fe19Cr18_11,-233.35909652525, 187.017522694944,Ni62Fe19Cr18,"# generated using pymatgen
 data_Cr11Fe10Ni33
_symmetry_space_group_name_H-M   'P 1'
_cell_length_a   7.44868026
_cell_length_b   7.44868026
_cell_length_c   10.53402464
_cell_angle_alpha   90.00000000
_cell_angle_beta   90.00000000
_cell_angle_gamma   90.00000000
_symmetry_Int_Tables_number   1
_chemical_formula_structural   Cr11Fe10Ni33
_chemical_formula_sum   'Cr11 Fe10 Ni33'
_cell_volume   584.45757823
_cell_formula_units_Z   1
loop_
 _symmetry_equiv_pos_site_id
 _symmetry_equiv_pos_as_xyz
  1  'x, y, z'
loop_
 _atom_site_type_symbol
 _atom_site_label
 _atom_site_symmetry_multiplicity
 _atom_site_fract_x
 _atom_site_fract_y
 _atom_site_fract_z
 _atom_site_occupancy
  Cr  Cr0  1  0.00151600  1.00101930  1.00052499  1
  Ni  Ni1  1  0.17000172  0.16920519  0.16790753  1
  Fe  Fe2  1  0.00139415  1.00122953  0.33411808  1
  Ni  Ni3  1  1.00111956  0.33549200  1.00099408  1
  Fe  Fe4  1  0.16670191  0.50056768  0.16836753  1
  Fe  Fe5  1  0.00207423  0.33411777  0.33430931  1
  Ni  Ni6  1  0.99939692  0.66716892  1.00095928  1
  Ni  Ni7  1  0.16662812  0.83390071  0.16999786  1
  Ni  Ni8  1  0.00328369  0.66926957  0.33299732  1
  Fe  Fe9  1  0.33579520  0.00366873  0.00132055  1
  Ni  Ni10  1  0.50023330  0.16796930  0.16683884  1
  Cr  Cr11  1  0.33317494  0.00190627  0.33395887  1
  Ni  Ni12  1  0.33487981  0.33248015  1.00117365  1
  Fe  Fe13  1  0.50017136  0.50025555  0.16716616  1
  Ni  Ni14  1  0.33387552  0.33462092  0.33446230  1
  Cr  Cr15  1  0.33399826  0.66783855  1.00104807  1
  Fe  Fe16  1  0.50256446  0.83594206  0.16758118  1
  Ni  Ni17  1  0.33145821  0.66714319  0.33428264  1
  Ni  Ni18  1  0.66700677  0.00163278  1.00105309  1
  Fe  Fe19  1  0.83439483  0.16722695  0.16754718  1
  Ni  Ni20  1  0.66991699  0.00318677  0.33373669  1
  Ni  Ni21  1  0.66769965  0.33403845  0.00125344  1
  Ni  Ni22  1  0.83567493  0.50299484  0.16612704  1
  Cr  Cr23  1  0.66749310  0.33322867  0.33525891  1
  Ni  Ni24  1  0.67001730  0.66802873  0.00137381  1
  Ni  Ni25  1  0.83443934  0.83306702  0.16849319  1
  Cr  Cr26  1  0.66842289  0.66705764  0.33305233  1
  Ni  Ni27  1  0.16706758  0.16893395  0.50037224  1
  Cr  Cr28  1  0.00174622  0.00324711  0.66807311  1
  Ni  Ni29  1  0.16955224  0.17023514  0.83541832  1
  Cr  Cr30  1  0.16959299  0.50052611  0.50033946  1
  Ni  Ni31  1  0.99957079  0.33303594  0.66827893  1
  Ni  Ni32  1  0.16826301  0.49986595  0.83495058  1
  Ni  Ni33  1  0.16841766  0.83478048  0.49894344  1
  Cr  Cr34  1  1.00117975  0.66716671  0.67036008  1
  Ni  Ni35  1  0.16819692  0.83359772  0.83475864  1
  Fe  Fe36  1  0.50200315  0.17082890  0.50167976  1
  Cr  Cr37  1  0.33331550  0.00181743  0.66938768  1
  Ni  Ni38  1  0.50156657  0.16905097  0.83497349  1
  Ni  Ni39  1  0.50092030  0.49992162  0.50252492  1
  Ni  Ni40  1  0.33632552  0.33497703  0.66805808  1
  Ni  Ni41  1  0.50188366  0.50007712  0.83329636  1
  Cr  Cr42  1  0.50067785  0.83279428  0.50223899  1
  Ni  Ni43  1  0.33662659  0.66678754  0.66814085  1
  Fe  Fe44  1  0.50316341  0.83408894  0.83426683  1
  Ni  Ni45  1  0.83465597  0.16929250  0.50041246  1
  Fe  Fe46  1  0.66813008  0.00341502  0.66962653  1
  Ni  Ni47  1  0.83258140  0.16898559  0.83493088  1
  Ni  Ni48  1  0.83299978  0.49857571  0.50252832  1
  Ni  Ni49  1  0.66780307  0.33543901  0.66715161  1
  Ni  Ni50  1  0.83355126  0.50143113  0.83504447  1
  Cr  Cr51  1  0.83489307  0.83515758  0.50026375  1
  Ni  Ni52  1  0.66618955  0.66500912  0.66918781  1
  Ni  Ni53  1  0.83237100  0.83328220  0.83546653  1
" 