6697,Ni62Fe19Cr18_8,-233.326774622953, 190.047564480934,Ni62Fe19Cr18,"# generated using pymatgen
 data_Cr11Fe10Ni33
_symmetry_space_group_name_H-M   'P 1'
_cell_length_a   7.44242036
_cell_length_b   7.44242036
_cell_length_c   10.52517182
_cell_angle_alpha   90.00000000
_cell_angle_beta   90.00000000
_cell_angle_gamma   90.00000000
_symmetry_Int_Tables_number   1
_chemical_formula_structural   Cr11Fe10Ni33
_chemical_formula_sum   'Cr11 Fe10 Ni33'
_cell_volume   582.98527669
_cell_formula_units_Z   1
loop_
 _symmetry_equiv_pos_site_id
 _symmetry_equiv_pos_as_xyz
  1  'x, y, z'
loop_
 _atom_site_type_symbol
 _atom_site_label
 _atom_site_symmetry_multiplicity
 _atom_site_fract_x
 _atom_site_fract_y
 _atom_site_fract_z
 _atom_site_occupancy
  Cr  Cr0  1  1.00128789  0.00209105  0.00205003  1
  Ni  Ni1  1  0.16850593  0.17009414  0.16815710  1
  Ni  Ni2  1  0.00261037  1.00051180  0.33703126  1
  Ni  Ni3  1  0.00427180  0.33655492  1.00058989  1
  Ni  Ni4  1  0.16843149  0.50284540  0.16728728  1
  Fe  Fe5  1  0.00452270  0.33563704  0.33484715  1
  Ni  Ni6  1  1.00049080  0.66623305  0.00180197  1
  Ni  Ni7  1  0.16894907  0.83188248  0.16912684  1
  Ni  Ni8  1  0.00225112  0.66990832  0.33365627  1
  Fe  Fe9  1  0.33470066  1.00060658  0.00376391  1
  Ni  Ni10  1  0.50186411  0.16989973  0.16531683  1
  Cr  Cr11  1  0.33233332  0.00430342  0.33195039  1
  Ni  Ni12  1  0.33325195  0.33507337  0.00330981  1
  Ni  Ni13  1  0.50140555  0.50245857  0.16949187  1
  Ni  Ni14  1  0.33515648  0.33640434  0.33535351  1
  Ni  Ni15  1  0.33558946  0.66600974  0.00232702  1
  Ni  Ni16  1  0.50054052  0.83255825  0.16563214  1
  Ni  Ni17  1  0.33396785  0.66490277  0.33556095  1
  Ni  Ni18  1  0.66768861  0.99935948  1.00018466  1
  Cr  Cr19  1  0.83528354  0.17154086  0.16963872  1
  Cr  Cr20  1  0.66960581  1.00132317  0.33683884  1
  Fe  Fe21  1  0.66986465  0.33734627  0.00239149  1
  Fe  Fe22  1  0.83554093  0.50329907  0.16782377  1
  Ni  Ni23  1  0.66487619  0.33640476  0.33452513  1
  Ni  Ni24  1  0.66888043  0.66990300  0.00307052  1
  Fe  Fe25  1  0.83536620  0.83340141  0.16901067  1
  Ni  Ni26  1  0.66867418  0.66679307  0.33268031  1
  Ni  Ni27  1  0.16609557  0.16993191  0.50077534  1
  Ni  Ni28  1  1.00062389  0.00214086  0.66672117  1
  Ni  Ni29  1  0.16604708  0.16987532  0.83547360  1
  Ni  Ni30  1  0.16826484  0.50247299  0.50320798  1
  Ni  Ni31  1  0.00293719  0.33444031  0.66951993  1
  Fe  Fe32  1  0.16743535  0.49925540  0.83528159  1
  Ni  Ni33  1  0.16553971  0.83259338  0.50103401  1
  Ni  Ni34  1  1.00109656  0.66806743  0.66953512  1
  Cr  Cr35  1  0.17022395  0.83253795  0.83491729  1
  Ni  Ni36  1  0.50319409  0.17151810  0.50236844  1
  Cr  Cr37  1  0.33320003  0.00430127  0.66748753  1
  Cr  Cr38  1  0.50233035  0.16749835  0.83753090  1
  Fe  Fe39  1  0.50023594  0.49921542  0.50040802  1
  Ni  Ni40  1  0.33355646  0.33494797  0.66648394  1
  Cr  Cr41  1  0.50109219  0.50272005  0.83456086  1
  Cr  Cr42  1  0.50002640  0.83281227  0.50203884  1
  Fe  Fe43  1  0.33201332  0.66580310  0.66762006  1
  Ni  Ni44  1  0.50208680  0.83414212  0.83694756  1
  Ni  Ni45  1  0.83581389  0.16909026  0.50332777  1
  Fe  Fe46  1  0.67104416  0.00372656  0.66865637  1
  Ni  Ni47  1  0.83614345  0.17100025  0.83294884  1
  Cr  Cr48  1  0.83643444  0.50005299  0.49867419  1
  Ni  Ni49  1  0.66838738  0.33454904  0.66790576  1
  Ni  Ni50  1  0.83681680  0.50010613  0.83721656  1
  Ni  Ni51  1  0.83829602  0.83547141  0.50198979  1
  Cr  Cr52  1  0.67020681  0.66808721  0.66843036  1
  Fe  Fe53  1  0.83428971  0.83563988  0.83486385  1
" 