5981,Ni62Fe4Cr32_9,-225.717858224658, 149.881660757927,Ni62Fe4Cr32,"# generated using pymatgen
 data_Cr19Fe2Ni33
_symmetry_space_group_name_H-M   'P 1'
_cell_length_a   7.48463483
_cell_length_b   7.48463483
_cell_length_c   10.58487209
_cell_angle_alpha   90.00000000
_cell_angle_beta   90.00000000
_cell_angle_gamma   90.00000000
_symmetry_Int_Tables_number   1
_chemical_formula_structural   Cr19Fe2Ni33
_chemical_formula_sum   'Cr19 Fe2 Ni33'
_cell_volume   592.96197893
_cell_formula_units_Z   1
loop_
 _symmetry_equiv_pos_site_id
 _symmetry_equiv_pos_as_xyz
  1  'x, y, z'
loop_
 _atom_site_type_symbol
 _atom_site_label
 _atom_site_symmetry_multiplicity
 _atom_site_fract_x
 _atom_site_fract_y
 _atom_site_fract_z
 _atom_site_occupancy
  Ni  Ni0  1  -0.00074330  0.00029479  0.00062997  1
  Fe  Fe1  1  0.16401238  0.16294154  0.16431955  1
  Ni  Ni2  1  0.00092997  -0.00102295  0.33058493  1
  Cr  Cr3  1  0.99754651  0.33029324  0.99610109  1
  Cr  Cr4  1  0.16539199  0.50261476  0.16269046  1
  Cr  Cr5  1  0.99878071  0.33243109  0.33185710  1
  Ni  Ni6  1  -0.00109046  0.66552531  -0.00001689  1
  Ni  Ni7  1  0.16529199  0.83334708  0.16482645  1
  Ni  Ni8  1  -0.00082800  0.66487162  0.33350195  1
  Ni  Ni9  1  0.33242889  0.99722731  -0.00104072  1
  Cr  Cr10  1  0.50014277  0.16610383  0.16502089  1
  Cr  Cr11  1  0.33036049  0.99841027  0.33274807  1
  Cr  Cr12  1  0.33175364  0.33138842  0.99702565  1
  Ni  Ni13  1  0.50159209  0.49913903  0.16384742  1
  Cr  Cr14  1  0.33310554  0.33335804  0.33418530  1
  Ni  Ni15  1  0.33394749  0.66790016  0.00012707  1
  Ni  Ni16  1  0.49639545  0.83195393  0.16057510  1
  Cr  Cr17  1  0.33334622  0.66520310  0.33208648  1
  Ni  Ni18  1  0.66457576  -0.00058270  0.99712352  1
  Ni  Ni19  1  0.83198431  0.16610549  0.16437426  1
  Cr  Cr20  1  0.66518335  0.99842073  0.33269696  1
  Ni  Ni21  1  0.66643673  0.33133740  0.00120850  1
  Ni  Ni22  1  0.83075509  0.49735145  0.16502011  1
  Fe  Fe23  1  0.66629695  0.33359741  0.33233692  1
  Ni  Ni24  1  0.66359112  0.66613678  0.00105884  1
  Cr  Cr25  1  0.83497760  0.83301253  0.16438365  1
  Cr  Cr26  1  0.66508617  0.66263042  0.33136074  1
  Ni  Ni27  1  0.16697579  0.16564182  0.49954028  1
  Cr  Cr28  1  0.00031812  0.00171387  0.66612519  1
  Ni  Ni29  1  0.16736315  0.16522909  0.83195333  1
  Ni  Ni30  1  0.16513854  0.49932195  0.50218615  1
  Ni  Ni31  1  0.00066698  0.33328260  0.66601065  1
  Ni  Ni32  1  0.16615268  0.49917657  0.82973839  1
  Ni  Ni33  1  0.16480215  0.83116457  0.49856117  1
  Ni  Ni34  1  0.00033375  0.66130299  0.66253807  1
  Cr  Cr35  1  0.16793088  0.82898018  0.83313687  1
  Ni  Ni36  1  0.49726905  0.16915173  0.50185346  1
  Ni  Ni37  1  0.33337896  0.00093473  0.66524415  1
  Ni  Ni38  1  0.49951615  0.16401972  0.83061625  1
  Ni  Ni39  1  0.49919088  0.49536379  0.50061179  1
  Ni  Ni40  1  0.33075926  0.33112269  0.66447984  1
  Cr  Cr41  1  0.49720866  0.49902420  0.83222899  1
  Cr  Cr42  1  0.49754515  0.83383747  0.50347882  1
  Ni  Ni43  1  0.33208236  0.66438716  0.66427311  1
  Ni  Ni44  1  0.49770309  0.83403202  0.83278372  1
  Cr  Cr45  1  0.83006146  0.16677400  0.49939585  1
  Ni  Ni46  1  0.66177882  0.00060473  0.66814546  1
  Ni  Ni47  1  0.82937458  0.16594058  0.83273552  1
  Ni  Ni48  1  0.83254054  0.49791863  0.49993072  1
  Ni  Ni49  1  0.66491926  0.33167259  0.66356696  1
  Cr  Cr50  1  0.83269260  0.49875868  0.83111248  1
  Cr  Cr51  1  0.83544062  0.83067831  0.50070988  1
  Ni  Ni52  1  0.66398756  0.66443072  0.66458404  1
  Cr  Cr53  1  0.83017355  0.83210055  0.83238150  1
" 