3980,Ni62Fe4Cr32_5,-225.715420296926, 150.707457503545,Ni62Fe4Cr32,"# generated using pymatgen
 data_Cr19Fe2Ni33
_symmetry_space_group_name_H-M   'P 1'
_cell_length_a   7.49208558
_cell_length_b   7.49208558
_cell_length_c   10.59540903
_cell_angle_alpha   90.00000000
_cell_angle_beta   90.00000000
_cell_angle_gamma   90.00000000
_symmetry_Int_Tables_number   1
_chemical_formula_structural   Cr19Fe2Ni33
_chemical_formula_sum   'Cr19 Fe2 Ni33'
_cell_volume   594.73457314
_cell_formula_units_Z   1
loop_
 _symmetry_equiv_pos_site_id
 _symmetry_equiv_pos_as_xyz
  1  'x, y, z'
loop_
 _atom_site_type_symbol
 _atom_site_label
 _atom_site_symmetry_multiplicity
 _atom_site_fract_x
 _atom_site_fract_y
 _atom_site_fract_z
 _atom_site_occupancy
  Ni  Ni0  1  0.00048954  -0.00124690  0.99826080  1
  Ni  Ni1  1  0.16449180  0.16347136  0.16524281  1
  Ni  Ni2  1  -0.00052944  0.99805546  0.33324775  1
  Ni  Ni3  1  0.00218279  0.33181020  -0.00009524  1
  Ni  Ni4  1  0.16236324  0.49914090  0.16363695  1
  Ni  Ni5  1  -0.00087256  0.33205096  0.33223278  1
  Fe  Fe6  1  0.00021500  0.66466748  0.00011304  1
  Ni  Ni7  1  0.16426357  0.83251124  0.16492788  1
  Ni  Ni8  1  0.99697716  0.66505667  0.33138432  1
  Ni  Ni9  1  0.33094864  0.99810877  -0.00079090  1
  Ni  Ni10  1  0.49679345  0.16173850  0.16554451  1
  Ni  Ni11  1  0.32834400  0.00026104  0.33173228  1
  Cr  Cr12  1  0.33252390  0.33177211  -0.00025712  1
  Ni  Ni13  1  0.49799607  0.49987041  0.16538767  1
  Cr  Cr14  1  0.33014896  0.32913176  0.32924965  1
  Ni  Ni15  1  0.33090087  0.66511163  -0.00142751  1
  Cr  Cr16  1  0.49633631  0.83352922  0.16743847  1
  Cr  Cr17  1  0.32816617  0.66430062  0.33068081  1
  Ni  Ni18  1  0.66337625  0.99712376  0.99610044  1
  Cr  Cr19  1  0.83486431  0.16377866  0.16369880  1
  Ni  Ni20  1  0.66593530  -0.00117239  0.33334932  1
  Cr  Cr21  1  0.66461136  0.33145295  0.00247039  1
  Ni  Ni22  1  0.83615207  0.49917787  0.16739783  1
  Cr  Cr23  1  0.66631215  0.33165473  0.32797780  1
  Cr  Cr24  1  0.66464905  0.66462721  -0.00138241  1
  Cr  Cr25  1  0.83367886  0.83282976  0.16512012  1
  Ni  Ni26  1  0.66937174  0.66505128  0.33173501  1
  Ni  Ni27  1  0.16208557  0.16639641  0.49574518  1
  Cr  Cr28  1  0.99721250  -0.00072483  0.66279303  1
  Ni  Ni29  1  0.16523966  0.16745907  0.83358694  1
  Ni  Ni30  1  0.16012781  0.49715292  0.49752919  1
  Ni  Ni31  1  -0.00162781  0.33188998  0.66289573  1
  Ni  Ni32  1  0.16563167  0.49648296  0.83367481  1
  Ni  Ni33  1  0.16093600  0.83209697  0.49350778  1
  Cr  Cr34  1  0.99705792  0.66690718  0.66299320  1
  Cr  Cr35  1  0.16501080  0.83218979  0.83624960  1
  Ni  Ni36  1  0.50093914  0.16360885  0.49763126  1
  Cr  Cr37  1  0.33053922  -0.00023063  0.66360755  1
  Ni  Ni38  1  0.49909383  0.16312141  0.83151383  1
  Cr  Cr39  1  0.49934207  0.49768722  0.49952482  1
  Cr  Cr40  1  0.33006524  0.33018835  0.66604735  1
  Ni  Ni41  1  0.49833069  0.49916880  0.83074484  1
  Cr  Cr42  1  0.49891505  0.83257125  0.49659071  1
  Cr  Cr43  1  0.33038861  0.66520647  0.66661283  1
  Ni  Ni44  1  0.50030178  0.83217114  0.83206633  1
  Ni  Ni45  1  0.83180635  0.16486658  0.49823971  1
  Ni  Ni46  1  0.66548250  0.99785469  0.66547167  1
  Cr  Cr47  1  0.83338213  0.16408401  0.83277499  1
  Fe  Fe48  1  0.83272968  0.49742377  0.49730433  1
  Ni  Ni49  1  0.66592603  0.33024456  0.66443045  1
  Cr  Cr50  1  0.83428992  0.49669181  0.83042835  1
  Ni  Ni51  1  0.83051812  0.83277039  0.49626991  1
  Ni  Ni52  1  0.66649372  0.66620333  0.66583428  1
  Ni  Ni53  1  0.82885933  0.83242044  0.83272320  1
" 