4127,Ni62Fe28Cr8_13,-237.701130249628, 209.581892102589,Ni62Fe28Cr8,"# generated using pymatgen
 data_Cr2Fe5Ni11
_symmetry_space_group_name_H-M   'P 1'
_cell_length_a   7.42158494
_cell_length_b   7.42158494
_cell_length_c   10.49570608
_cell_angle_alpha   90.00000000
_cell_angle_beta   90.00000000
_cell_angle_gamma   90.00000000
_symmetry_Int_Tables_number   1
_chemical_formula_structural   Cr2Fe5Ni11
_chemical_formula_sum   'Cr6 Fe15 Ni33'
_cell_volume   578.10268287
_cell_formula_units_Z   3
loop_
 _symmetry_equiv_pos_site_id
 _symmetry_equiv_pos_as_xyz
  1  'x, y, z'
loop_
 _atom_site_type_symbol
 _atom_site_label
 _atom_site_symmetry_multiplicity
 _atom_site_fract_x
 _atom_site_fract_y
 _atom_site_fract_z
 _atom_site_occupancy
  Ni  Ni0  1  0.00357217  1.00249722  1.00280965  1
  Fe  Fe1  1  0.16872931  0.17003537  0.16987852  1
  Ni  Ni2  1  1.00245674  1.00132404  0.33674058  1
  Ni  Ni3  1  1.00272856  0.33607441  0.00531433  1
  Ni  Ni4  1  0.16816403  0.50382326  0.17046047  1
  Fe  Fe5  1  0.00333620  0.33524288  0.33693846  1
  Ni  Ni6  1  0.00340837  0.67058799  0.00326719  1
  Ni  Ni7  1  0.16840597  0.83482027  0.16858022  1
  Ni  Ni8  1  1.00245943  0.67037209  0.33679099  1
  Fe  Fe9  1  0.33564957  1.00283450  0.00353777  1
  Ni  Ni10  1  0.50445678  0.16925101  0.16940924  1
  Cr  Cr11  1  0.33579836  0.00386696  0.33663508  1
  Ni  Ni12  1  0.33578178  0.33552227  0.00334871  1
  Cr  Cr13  1  0.50198968  0.50198742  0.16907179  1
  Ni  Ni14  1  0.33646898  0.33601128  0.33772985  1
  Fe  Fe15  1  0.33498823  0.67112839  1.00209943  1
  Ni  Ni16  1  0.50235596  0.83868598  0.16941388  1
  Fe  Fe17  1  0.33448535  0.67006172  0.33668406  1
  Ni  Ni18  1  0.67026670  0.00326962  0.00497422  1
  Ni  Ni19  1  0.83621760  0.16930064  0.16968493  1
  Fe  Fe20  1  0.67148530  0.00371826  0.33663590  1
  Ni  Ni21  1  0.67061878  0.33554823  1.00273948  1
  Ni  Ni22  1  0.83964239  0.50204557  0.17043812  1
  Ni  Ni23  1  0.67046646  0.33577315  0.33597190  1
  Cr  Cr24  1  0.67114720  0.66962954  1.00194180  1
  Ni  Ni25  1  0.83830019  0.83793079  0.17001502  1
  Fe  Fe26  1  0.67176415  0.67138833  0.33605436  1
  Ni  Ni27  1  0.16856973  0.16982148  0.50468951  1
  Ni  Ni28  1  0.00339295  0.00321098  0.66980367  1
  Fe  Fe29  1  0.16809538  0.16884246  0.83562696  1
  Fe  Fe30  1  0.16814758  0.50294183  0.50272709  1
  Ni  Ni31  1  1.00071834  0.33588063  0.66781216  1
  Cr  Cr32  1  0.16842705  0.50319711  0.83585760  1
  Fe  Fe33  1  0.16804243  0.83671839  0.50400156  1
  Fe  Fe34  1  1.00173046  0.67082303  0.66921249  1
  Ni  Ni35  1  0.16909610  0.83776599  0.83592866  1
  Ni  Ni36  1  0.50365472  0.16889857  0.50405140  1
  Ni  Ni37  1  0.33557900  1.00042211  0.66886759  1
  Cr  Cr38  1  0.50400342  0.16893658  0.83557305  1
  Cr  Cr39  1  0.50380240  0.50292836  0.50439638  1
  Fe  Fe40  1  0.33537903  0.33415632  0.66892704  1
  Ni  Ni41  1  0.50346853  0.50318008  0.83521174  1
  Ni  Ni42  1  0.50385492  0.83746207  0.50370704  1
  Ni  Ni43  1  0.33665860  0.67175210  0.66925490  1
  Ni  Ni44  1  0.50144049  0.83707578  0.83574157  1
  Ni  Ni45  1  0.83695382  0.16940868  0.50317729  1
  Ni  Ni46  1  0.66996726  1.00293751  0.66766068  1
  Fe  Fe47  1  0.83789481  0.16921837  0.83659827  1
  Ni  Ni48  1  0.83791493  0.50311448  0.50275849  1
  Ni  Ni49  1  0.67187249  0.33707496  0.67036045  1
  Ni  Ni50  1  0.83695139  0.50116636  0.83595964  1
  Ni  Ni51  1  0.83691518  0.83699087  0.50355403  1
  Fe  Fe52  1  0.67102032  0.67124534  0.67086018  1
  Fe  Fe53  1  0.83669930  0.83749327  0.83590947  1
" 