1170,Ni62Fe22Cr15_16,-234.977654352374, 191.401427144774,Ni62Fe22Cr15,"# generated using pymatgen
 data_Cr3Fe4Ni11
_symmetry_space_group_name_H-M   'P 1'
_cell_length_a   7.43749629
_cell_length_b   7.43749629
_cell_length_c   10.51820813
_cell_angle_alpha   90.00000000
_cell_angle_beta   90.00000000
_cell_angle_gamma   90.00000000
_symmetry_Int_Tables_number   1
_chemical_formula_structural   Cr3Fe4Ni11
_chemical_formula_sum   'Cr9 Fe12 Ni33'
_cell_volume   581.82889370
_cell_formula_units_Z   3
loop_
 _symmetry_equiv_pos_site_id
 _symmetry_equiv_pos_as_xyz
  1  'x, y, z'
loop_
 _atom_site_type_symbol
 _atom_site_label
 _atom_site_symmetry_multiplicity
 _atom_site_fract_x
 _atom_site_fract_y
 _atom_site_fract_z
 _atom_site_occupancy
  Ni  Ni0  1  0.00205904  0.00306478  1.00008222  1
  Cr  Cr1  1  0.17268544  0.17147778  0.16841702  1
  Cr  Cr2  1  0.00252847  0.00322987  0.33866688  1
  Fe  Fe3  1  1.00046449  0.33719701  1.00147236  1
  Ni  Ni4  1  0.16811703  0.50124354  0.16840471  1
  Ni  Ni5  1  1.00170689  0.33717528  0.33478586  1
  Ni  Ni6  1  0.00394678  0.66771974  1.00112905  1
  Cr  Cr7  1  0.17057896  0.83384683  0.16826064  1
  Ni  Ni8  1  0.00425553  0.66558875  0.33508750  1
  Fe  Fe9  1  0.33744611  1.00074830  1.00041987  1
  Ni  Ni10  1  0.50268670  0.16910295  0.16783186  1
  Ni  Ni11  1  0.33854384  1.00172782  0.33664797  1
  Fe  Fe12  1  0.33688379  0.33690885  1.00137444  1
  Fe  Fe13  1  0.50114591  0.50143713  0.16840932  1
  Ni  Ni14  1  0.33679538  0.33689126  0.33601760  1
  Ni  Ni15  1  0.33527726  0.66711556  1.00188839  1
  Fe  Fe16  1  0.50160966  0.83472181  0.16848125  1
  Ni  Ni17  1  0.33558322  0.66723114  0.33570134  1
  Ni  Ni18  1  0.66812520  0.00401846  0.00228743  1
  Fe  Fe19  1  0.83467396  0.17070786  0.16799104  1
  Ni  Ni20  1  0.66529591  0.00435201  0.33489361  1
  Ni  Ni21  1  0.66778971  0.33511359  0.00240339  1
  Ni  Ni22  1  0.83468770  0.50178763  0.16775899  1
  Ni  Ni23  1  0.66720922  0.33459318  0.33378338  1
  Ni  Ni24  1  0.66627441  0.66662375  1.00139675  1
  Cr  Cr25  1  0.83269419  0.83290738  0.16840438  1
  Ni  Ni26  1  0.66512659  0.66703083  0.33445995  1
  Ni  Ni27  1  0.17242195  0.17213152  0.50216793  1
  Cr  Cr28  1  0.00349414  0.00375460  0.66656999  1
  Ni  Ni29  1  0.17034284  0.17073563  0.83609540  1
  Ni  Ni30  1  0.16941360  0.50078719  0.50199553  1
  Ni  Ni31  1  0.00314658  0.33579512  0.66995237  1
  Fe  Fe32  1  0.16929689  0.50266938  0.83504536  1
  Ni  Ni33  1  0.17282473  0.83292211  0.50212938  1
  Ni  Ni34  1  0.00648101  0.66688800  0.66980052  1
  Ni  Ni35  1  0.17129511  0.83525980  0.83620453  1
  Ni  Ni36  1  0.49994650  0.16769684  0.50222264  1
  Ni  Ni37  1  0.33667361  1.00116214  0.66942153  1
  Fe  Fe38  1  0.50105952  0.16642452  0.83603021  1
  Fe  Fe39  1  0.49971183  0.50185112  0.50129282  1
  Ni  Ni40  1  0.33462907  0.33633096  0.66911132  1
  Fe  Fe41  1  0.50044051  0.50238273  0.83609724  1
  Ni  Ni42  1  0.50070231  0.83628894  0.50150136  1
  Ni  Ni43  1  0.33481752  0.66874025  0.66837559  1
  Ni  Ni44  1  0.50105024  0.83447656  0.83611597  1
  Ni  Ni45  1  0.83311431  0.17101397  0.50001538  1
  Ni  Ni46  1  0.66583302  0.00347386  0.66870842  1
  Ni  Ni47  1  0.83544011  0.17060774  0.83753098  1
  Cr  Cr48  1  0.83645531  0.50204989  0.50210982  1
  Cr  Cr49  1  0.66758416  0.33321818  0.66907053  1
  Fe  Fe50  1  0.83659846  0.50146303  0.83667863  1
  Cr  Cr51  1  0.83195664  0.83300273  0.50283732  1
  Fe  Fe52  1  0.66482831  0.66874540  0.66935585  1
  Cr  Cr53  1  0.83352911  0.83384349  0.83438495  1
" 