8574,Ni62Fe28Cr8_10,-237.885232546576, 207.222433061817,Ni62Fe28Cr8,"# generated using pymatgen
 data_Cr2Fe5Ni11
_symmetry_space_group_name_H-M   'P 1'
_cell_length_a   7.42554220
_cell_length_b   7.42554220
_cell_length_c   10.50130249
_cell_angle_alpha   90.00000000
_cell_angle_beta   90.00000000
_cell_angle_gamma   90.00000000
_symmetry_Int_Tables_number   1
_chemical_formula_structural   Cr2Fe5Ni11
_chemical_formula_sum   'Cr6 Fe15 Ni33'
_cell_volume   579.02792641
_cell_formula_units_Z   3
loop_
 _symmetry_equiv_pos_site_id
 _symmetry_equiv_pos_as_xyz
  1  'x, y, z'
loop_
 _atom_site_type_symbol
 _atom_site_label
 _atom_site_symmetry_multiplicity
 _atom_site_fract_x
 _atom_site_fract_y
 _atom_site_fract_z
 _atom_site_occupancy
  Ni  Ni0  1  0.00397014  0.00370597  0.00370397  1
  Ni  Ni1  1  0.17008322  0.16876089  0.17069758  1
  Ni  Ni2  1  1.00210823  0.00383501  0.33368659  1
  Ni  Ni3  1  1.00240645  0.33410597  1.00265446  1
  Cr  Cr4  1  0.16900650  0.50157520  0.16973895  1
  Fe  Fe5  1  1.00018068  0.33385298  0.33549431  1
  Ni  Ni6  1  1.00145614  0.67053297  0.00344589  1
  Ni  Ni7  1  0.16948432  0.83725101  0.16999546  1
  Fe  Fe8  1  0.99992822  0.66991876  0.33468938  1
  Ni  Ni9  1  0.33532310  0.00356680  0.00311461  1
  Ni  Ni10  1  0.50312140  0.16954726  0.16940360  1
  Fe  Fe11  1  0.33864632  0.00390051  0.33464692  1
  Ni  Ni12  1  0.33820573  0.33442803  1.00278780  1
  Ni  Ni13  1  0.50466408  0.50223686  0.16953200  1
  Ni  Ni14  1  0.33919211  0.33481288  0.33556689  1
  Fe  Fe15  1  0.33547302  0.67084201  0.00319999  1
  Ni  Ni16  1  0.50341492  0.83672014  0.16913183  1
  Ni  Ni17  1  0.34035292  0.66984380  0.33336180  1
  Fe  Fe18  1  0.66900510  0.00489039  0.00285311  1
  Ni  Ni19  1  0.83525934  0.16997081  0.16924338  1
  Fe  Fe20  1  0.66843593  0.00349228  0.33589583  1
  Fe  Fe21  1  0.67059202  0.33529410  0.00341457  1
  Ni  Ni22  1  0.83450526  0.50263100  0.16991521  1
  Ni  Ni23  1  0.66796206  0.33676275  0.33530503  1
  Fe  Fe24  1  0.66893979  0.66837767  0.00413886  1
  Ni  Ni25  1  0.83509055  0.83576629  0.17018531  1
  Ni  Ni26  1  0.66812742  0.66911853  0.33638698  1
  Ni  Ni27  1  0.17146060  0.17099338  0.50187288  1
  Cr  Cr28  1  0.00303757  0.00466354  0.67177846  1
  Ni  Ni29  1  0.17118991  0.17113534  0.83594578  1
  Cr  Cr30  1  0.16701165  0.50057531  0.50174265  1
  Ni  Ni31  1  1.00225230  0.33553594  0.66985702  1
  Fe  Fe32  1  0.16753148  0.50072581  0.83743402  1
  Cr  Cr33  1  0.17141394  0.83694374  0.50136360  1
  Ni  Ni34  1  1.00045013  0.66810517  0.66958212  1
  Ni  Ni35  1  0.17096132  0.83578056  0.83769336  1
  Ni  Ni36  1  0.50322669  0.16905434  0.50367164  1
  Fe  Fe37  1  0.33873230  0.00520290  0.67072062  1
  Ni  Ni38  1  0.50300512  0.16901787  0.83513461  1
  Fe  Fe39  1  0.50308194  0.50135010  0.50109587  1
  Ni  Ni40  1  0.33759697  0.33450795  0.67009145  1
  Fe  Fe41  1  0.50511822  0.50074646  0.83796921  1
  Ni  Ni42  1  0.50568920  0.83781677  0.50282096  1
  Cr  Cr43  1  0.33826836  0.66820859  0.67292547  1
  Ni  Ni44  1  0.50250106  0.83808045  0.83634355  1
  Fe  Fe45  1  0.83528434  0.16994683  0.50191969  1
  Ni  Ni46  1  0.66846615  0.00355817  0.66851566  1
  Ni  Ni47  1  0.83449948  0.17346101  0.83628687  1
  Fe  Fe48  1  0.83258428  0.50183322  0.50352285  1
  Ni  Ni49  1  0.66824642  0.33614868  0.66969071  1
  Ni  Ni50  1  0.83693247  0.50134480  0.83489713  1
  Fe  Fe51  1  0.83440155  0.83689902  0.50152098  1
  Ni  Ni52  1  0.66882266  0.66861369  0.66801921  1
  Cr  Cr53  1  0.83421666  0.83492721  0.83631106  1
" 