611,Ni62Fe22Cr15_2,-235.021379378285, 197.428399315106,Ni62Fe22Cr15,"# generated using pymatgen
 data_Cr3Fe4Ni11
_symmetry_space_group_name_H-M   'P 1'
_cell_length_a   7.43485124
_cell_length_b   7.43485124
_cell_length_c   10.51446745
_cell_angle_alpha   90.00000000
_cell_angle_beta   90.00000000
_cell_angle_gamma   90.00000000
_symmetry_Int_Tables_number   1
_chemical_formula_structural   Cr3Fe4Ni11
_chemical_formula_sum   'Cr9 Fe12 Ni33'
_cell_volume   581.20835309
_cell_formula_units_Z   3
loop_
 _symmetry_equiv_pos_site_id
 _symmetry_equiv_pos_as_xyz
  1  'x, y, z'
loop_
 _atom_site_type_symbol
 _atom_site_label
 _atom_site_symmetry_multiplicity
 _atom_site_fract_x
 _atom_site_fract_y
 _atom_site_fract_z
 _atom_site_occupancy
  Ni  Ni0  1  1.00200395  1.00122077  1.00186350  1
  Fe  Fe1  1  0.16860003  0.16734256  0.16770228  1
  Ni  Ni2  1  1.00051760  1.00189450  0.33569264  1
  Cr  Cr3  1  0.00267533  0.33283303  1.00101594  1
  Ni  Ni4  1  0.17114047  0.50400999  0.16820357  1
  Cr  Cr5  1  0.00361234  0.33410761  0.33627723  1
  Ni  Ni6  1  0.99938239  0.67224770  1.00162379  1
  Cr  Cr7  1  0.16742200  0.83476387  0.16887725  1
  Ni  Ni8  1  0.00291635  0.67108765  0.33709049  1
  Ni  Ni9  1  0.33516767  0.00464495  1.00053585  1
  Fe  Fe10  1  0.50371419  0.16897837  0.16825295  1
  Fe  Fe11  1  0.33487064  1.00099290  0.33733563  1
  Ni  Ni12  1  0.33722290  0.33261930  0.00380627  1
  Ni  Ni13  1  0.50047129  0.50134367  0.16779602  1
  Cr  Cr14  1  0.33622671  0.33569314  0.33493642  1
  Fe  Fe15  1  0.33528798  0.66860786  1.00181856  1
  Cr  Cr16  1  0.50251335  0.83654698  0.16790535  1
  Ni  Ni17  1  0.33560353  0.66781338  0.33650518  1
  Fe  Fe18  1  0.67049076  0.00320400  1.00143673  1
  Ni  Ni19  1  0.83321997  0.16578162  0.16913625  1
  Ni  Ni20  1  0.67005325  0.00295012  0.33578784  1
  Ni  Ni21  1  0.66652604  0.33485973  0.00307814  1
  Cr  Cr22  1  0.83557338  0.50275908  0.16787483  1
  Fe  Fe23  1  0.66930000  0.33391825  0.33637426  1
  Ni  Ni24  1  0.66950998  0.67026074  1.00128843  1
  Ni  Ni25  1  0.83587471  0.83874244  0.16893922  1
  Cr  Cr26  1  0.66867099  0.66955095  0.33819700  1
  Ni  Ni27  1  0.16900244  0.16653191  0.50319592  1
  Ni  Ni28  1  0.00220949  0.00256528  0.66896559  1
  Ni  Ni29  1  0.16974585  0.16693144  0.83446967  1
  Ni  Ni30  1  0.16801023  0.50453911  0.50337246  1
  Ni  Ni31  1  1.00196631  0.33342310  0.66820374  1
  Cr  Cr32  1  0.16753625  0.50264171  0.83433175  1
  Ni  Ni33  1  0.16983374  0.83511551  0.50211516  1
  Ni  Ni34  1  1.00060422  0.67094617  0.66787382  1
  Fe  Fe35  1  0.16787574  0.83727649  0.83471700  1
  Ni  Ni36  1  0.50344299  0.16680486  0.50207087  1
  Fe  Fe37  1  0.33533285  0.00222024  0.66934461  1
  Ni  Ni38  1  0.50263783  0.16698931  0.83606890  1
  Fe  Fe39  1  0.50106004  0.50065168  0.50410378  1
  Ni  Ni40  1  0.33560387  0.33328939  0.66780738  1
  Cr  Cr41  1  0.50331021  0.50141295  0.83535535  1
  Fe  Fe42  1  0.50115422  0.83685603  0.50324179  1
  Ni  Ni43  1  0.33672142  0.67030281  0.66775147  1
  Ni  Ni44  1  0.50235914  0.83744537  0.83531600  1
  Ni  Ni45  1  0.83421881  0.16857143  0.50275379  1
  Fe  Fe46  1  0.66935559  0.00226066  0.66873306  1
  Ni  Ni47  1  0.83427438  0.16809473  0.83434025  1
  Ni  Ni48  1  0.83637555  0.50161892  0.50432748  1
  Ni  Ni49  1  0.66871353  0.33495706  0.66762548  1
  Ni  Ni50  1  0.83478192  0.50258063  0.83448918  1
  Fe  Fe51  1  0.83833107  0.83773850  0.50297108  1
  Ni  Ni52  1  0.66918936  0.67032184  0.66812201  1
  Ni  Ni53  1  0.83470774  0.83606029  0.83590341  1
" 