6828,Ni62Fe28Cr8_2,-237.705065167828, 206.677228839911,Ni62Fe28Cr8,"# generated using pymatgen
 data_Cr2Fe5Ni11
_symmetry_space_group_name_H-M   'P 1'
_cell_length_a   7.42616004
_cell_length_b   7.42616004
_cell_length_c   10.50217624
_cell_angle_alpha   90.00000000
_cell_angle_beta   90.00000000
_cell_angle_gamma   90.00000000
_symmetry_Int_Tables_number   1
_chemical_formula_structural   Cr2Fe5Ni11
_chemical_formula_sum   'Cr6 Fe15 Ni33'
_cell_volume   579.17247049
_cell_formula_units_Z   3
loop_
 _symmetry_equiv_pos_site_id
 _symmetry_equiv_pos_as_xyz
  1  'x, y, z'
loop_
 _atom_site_type_symbol
 _atom_site_label
 _atom_site_symmetry_multiplicity
 _atom_site_fract_x
 _atom_site_fract_y
 _atom_site_fract_z
 _atom_site_occupancy
  Ni  Ni0  1  0.00284489  0.00461040  1.00146865  1
  Ni  Ni1  1  0.16823825  0.16773815  0.16957632  1
  Ni  Ni2  1  0.00292481  0.00292155  0.33520163  1
  Ni  Ni3  1  0.00498046  0.33421925  0.00459329  1
  Ni  Ni4  1  0.16877166  0.50116328  0.16794070  1
  Fe  Fe5  1  1.00182997  0.33541389  0.33630105  1
  Cr  Cr6  1  1.00209373  0.67031518  0.00281685  1
  Ni  Ni7  1  0.16905224  0.83940627  0.17080198  1
  Ni  Ni8  1  0.00300650  0.66855766  0.33610699  1
  Ni  Ni9  1  0.33617048  0.00461857  0.00300556  1
  Fe  Fe10  1  0.50240663  0.16853165  0.16811969  1
  Ni  Ni11  1  0.33619080  0.00402621  0.33711822  1
  Ni  Ni12  1  0.33490584  0.33523869  1.00143057  1
  Ni  Ni13  1  0.50405308  0.50186415  0.16601255  1
  Cr  Cr14  1  0.33638137  0.33486852  0.33615810  1
  Fe  Fe15  1  0.33666941  0.67148364  1.00274774  1
  Ni  Ni16  1  0.50262649  0.83791787  0.16908508  1
  Cr  Cr17  1  0.33501862  0.66975740  0.33434309  1
  Ni  Ni18  1  0.66904165  1.00121224  1.00256580  1
  Fe  Fe19  1  0.83645727  0.16875711  0.16927208  1
  Ni  Ni20  1  0.66904047  0.00501278  0.33481998  1
  Fe  Fe21  1  0.66956942  0.33427379  0.00360653  1
  Ni  Ni22  1  0.83581616  0.50087602  0.17229834  1
  Ni  Ni23  1  0.67006732  0.33432701  0.33674317  1
  Ni  Ni24  1  0.66828102  0.67075960  0.00380440  1
  Ni  Ni25  1  0.83634509  0.83805413  0.16876830  1
  Cr  Cr26  1  0.67017264  0.66896920  0.33551740  1
  Fe  Fe27  1  0.16844505  0.16890875  0.50367203  1
  Fe  Fe28  1  0.00380492  0.00465152  0.67056893  1
  Ni  Ni29  1  0.16918015  0.16810713  0.83514197  1
  Ni  Ni30  1  0.16956500  0.50295483  0.50447791  1
  Ni  Ni31  1  0.00414066  0.33509411  0.66798859  1
  Fe  Fe32  1  0.17171881  0.50048442  0.83534689  1
  Fe  Fe33  1  0.17049598  0.83670234  0.50311233  1
  Fe  Fe34  1  0.00579417  0.66987391  0.66918926  1
  Ni  Ni35  1  0.17139284  0.83859377  0.83458568  1
  Fe  Fe36  1  0.50406014  0.16881746  0.50407623  1
  Ni  Ni37  1  0.33708099  0.00369423  0.66849050  1
  Ni  Ni38  1  0.50241084  0.16941614  0.83559762  1
  Ni  Ni39  1  0.50245105  0.50190385  0.50563379  1
  Ni  Ni40  1  0.33438744  0.33560593  0.67018517  1
  Ni  Ni41  1  0.50212049  0.50315533  0.83646253  1
  Fe  Fe42  1  0.50145561  0.83757987  0.50412461  1
  Ni  Ni43  1  0.33714406  0.66882477  0.67046485  1
  Ni  Ni44  1  0.50138076  0.83585348  0.83548146  1
  Ni  Ni45  1  0.83626002  0.16955383  0.50232501  1
  Ni  Ni46  1  0.66891108  1.00274374  0.67100394  1
  Ni  Ni47  1  0.83694011  0.16874044  0.83631391  1
  Fe  Fe48  1  0.83691558  0.50039675  0.50352860  1
  Fe  Fe49  1  0.66694281  0.33381259  0.66809182  1
  Cr  Cr50  1  0.83396011  0.50051330  0.83323300  1
  Cr  Cr51  1  0.83673739  0.83853505  0.50410748  1
  Ni  Ni52  1  0.66826009  0.67051900  0.66925450  1
  Fe  Fe53  1  0.83374644  0.83872810  0.83597621  1
" 