784,Ni63Fe13Cr23_14,-231.37861271158, 176.057963829361,Ni63Fe13Cr23,"# generated using pymatgen
 data_Cr13Fe7Ni34
_symmetry_space_group_name_H-M   'P 1'
_cell_length_a   7.45734178
_cell_length_b   7.45734178
_cell_length_c   10.54627389
_cell_angle_alpha   90.00000000
_cell_angle_beta   90.00000000
_cell_angle_gamma   90.00000000
_symmetry_Int_Tables_number   1
_chemical_formula_structural   Cr13Fe7Ni34
_chemical_formula_sum   'Cr13 Fe7 Ni34'
_cell_volume   586.49881853
_cell_formula_units_Z   1
loop_
 _symmetry_equiv_pos_site_id
 _symmetry_equiv_pos_as_xyz
  1  'x, y, z'
loop_
 _atom_site_type_symbol
 _atom_site_label
 _atom_site_symmetry_multiplicity
 _atom_site_fract_x
 _atom_site_fract_y
 _atom_site_fract_z
 _atom_site_occupancy
  Cr  Cr0  1  1.00054809  1.00003197  0.00134981  1
  Ni  Ni1  1  0.17153946  0.16785624  0.16943981  1
  Cr  Cr2  1  0.00118729  0.99885310  0.33490157  1
  Cr  Cr3  1  0.00149240  0.33196769  0.99928556  1
  Ni  Ni4  1  0.16432172  0.49966002  0.16898044  1
  Ni  Ni5  1  0.00104649  0.33340221  0.33547958  1
  Ni  Ni6  1  0.00145269  0.67077654  0.99956224  1
  Ni  Ni7  1  0.16764034  0.83472300  0.16697263  1
  Ni  Ni8  1  1.00021712  0.66780832  0.33581140  1
  Ni  Ni9  1  0.33422335  1.00054696  1.00044464  1
  Ni  Ni10  1  0.49922510  0.16350514  0.16908611  1
  Ni  Ni11  1  0.33448328  0.00222061  0.33381329  1
  Cr  Cr12  1  0.33533155  0.33316131  0.00190750  1
  Fe  Fe13  1  0.50045392  0.50074091  0.17074748  1
  Ni  Ni14  1  0.33519768  0.33291575  0.33354237  1
  Cr  Cr15  1  0.33302946  0.66769253  0.00345050  1
  Ni  Ni16  1  0.50242528  0.83852409  0.16739736  1
  Cr  Cr17  1  0.33291227  0.66697427  0.33380486  1
  Fe  Fe18  1  0.66667082  1.00019008  0.00187973  1
  Fe  Fe19  1  0.83391748  0.16559229  0.17013791  1
  Ni  Ni20  1  0.66749253  0.00181461  0.33356565  1
  Cr  Cr21  1  0.66549535  0.33143324  0.00142081  1
  Cr  Cr22  1  0.83633692  0.50161919  0.16921564  1
  Ni  Ni23  1  0.66560461  0.33279342  0.33548693  1
  Fe  Fe24  1  0.66844318  0.67014976  0.00184757  1
  Ni  Ni25  1  0.83177648  0.83172873  0.16732740  1
  Ni  Ni26  1  0.66801596  0.66718757  0.33376830  1
  Ni  Ni27  1  0.16975311  0.17025755  0.49957455  1
  Cr  Cr28  1  0.99913553  0.00119418  0.66570668  1
  Ni  Ni29  1  0.16967190  0.16834110  0.83268798  1
  Ni  Ni30  1  0.16517022  0.49867770  0.50181366  1
  Ni  Ni31  1  0.00066900  0.33262200  0.66717004  1
  Ni  Ni32  1  0.16591088  0.50043895  0.83179962  1
  Ni  Ni33  1  0.16713757  0.83333390  0.50182763  1
  Ni  Ni34  1  0.00143657  0.66895069  0.66661447  1
  Fe  Fe35  1  0.16656683  0.83403960  0.83277545  1
  Ni  Ni36  1  0.49960937  0.16872440  0.50100388  1
  Fe  Fe37  1  0.33239271  0.00288329  0.66590336  1
  Ni  Ni38  1  0.49966499  0.16428264  0.83175182  1
  Ni  Ni39  1  0.50171236  0.49887410  0.50078171  1
  Ni  Ni40  1  0.33481556  0.33424122  0.66716100  1
  Cr  Cr41  1  0.50039653  0.50064701  0.83185600  1
  Cr  Cr42  1  0.50128478  0.83676844  0.50108987  1
  Ni  Ni43  1  0.33237220  0.66560861  0.66630405  1
  Cr  Cr44  1  0.50134941  0.83693371  0.83204502  1
  Ni  Ni45  1  0.83259320  0.17002941  0.49909359  1
  Fe  Fe46  1  0.66920329  0.00239057  0.66550510  1
  Ni  Ni47  1  0.83214945  0.16531040  0.83334920  1
  Ni  Ni48  1  0.83499711  0.50083278  0.50140976  1
  Ni  Ni49  1  0.66645538  0.33184001  0.66577212  1
  Cr  Cr50  1  0.83690339  0.50236307  0.83167568  1
  Ni  Ni51  1  0.83292297  0.83092164  0.49979349  1
  Ni  Ni52  1  0.66791131  0.66664067  0.66557355  1
  Ni  Ni53  1  0.83247439  0.83412367  0.83447453  1
" 