2613,Ni63Fe30Cr6_19,-239.396847395145, 210.700792395839,Ni63Fe30Cr6,"# generated using pymatgen
 data_Cr2Fe8Ni17
_symmetry_space_group_name_H-M   'P 1'
_cell_length_a   7.41942631
_cell_length_b   7.41942631
_cell_length_c   10.49265331
_cell_angle_alpha   90.00000000
_cell_angle_beta   90.00000000
_cell_angle_gamma   90.00000000
_symmetry_Int_Tables_number   1
_chemical_formula_structural   Cr2Fe8Ni17
_chemical_formula_sum   'Cr4 Fe16 Ni34'
_cell_volume   577.59839077
_cell_formula_units_Z   2
loop_
 _symmetry_equiv_pos_site_id
 _symmetry_equiv_pos_as_xyz
  1  'x, y, z'
loop_
 _atom_site_type_symbol
 _atom_site_label
 _atom_site_symmetry_multiplicity
 _atom_site_fract_x
 _atom_site_fract_y
 _atom_site_fract_z
 _atom_site_occupancy
  Ni  Ni0  1  0.00380903  1.00198667  1.00301766  1
  Fe  Fe1  1  0.16913724  0.16902969  0.16891738  1
  Ni  Ni2  1  0.00431762  1.00271590  0.33705498  1
  Ni  Ni3  1  0.00456811  0.33733057  1.00211467  1
  Fe  Fe4  1  0.16909620  0.50349564  0.16991098  1
  Ni  Ni5  1  1.00305869  0.33714024  0.33691017  1
  Ni  Ni6  1  1.00307972  0.67030842  0.00407390  1
  Ni  Ni7  1  0.17027890  0.83654764  0.17002542  1
  Ni  Ni8  1  0.00331495  0.66977234  0.33629560  1
  Ni  Ni9  1  0.33658570  0.00344179  0.00374010  1
  Ni  Ni10  1  0.50209394  0.16952655  0.16921089  1
  Fe  Fe11  1  0.33483808  1.00183685  0.33611895  1
  Ni  Ni12  1  0.33585663  0.33591070  1.00303592  1
  Fe  Fe13  1  0.50324912  0.50451704  0.17072370  1
  Fe  Fe14  1  0.33631498  0.33724308  0.33701488  1
  Fe  Fe15  1  0.33521016  0.67004600  0.00327076  1
  Ni  Ni16  1  0.50159622  0.83650532  0.16880862  1
  Ni  Ni17  1  0.33661734  0.66973443  0.33716405  1
  Fe  Fe18  1  0.67032151  1.00256390  0.00367056  1
  Ni  Ni19  1  0.83752723  0.17052225  0.16965073  1
  Cr  Cr20  1  0.67006148  1.00290759  0.33655035  1
  Cr  Cr21  1  0.66962063  0.33640152  0.00413979  1
  Ni  Ni22  1  0.83748069  0.50332557  0.17081406  1
  Fe  Fe23  1  0.67098373  0.33850884  0.33694339  1
  Fe  Fe24  1  0.67047386  0.67096638  0.00384417  1
  Ni  Ni25  1  0.83774962  0.83578236  0.16860087  1
  Ni  Ni26  1  0.66969487  0.66847740  0.33698825  1
  Fe  Fe27  1  0.16881911  0.17059045  0.50296138  1
  Ni  Ni28  1  1.00127088  0.00350595  0.66955302  1
  Ni  Ni29  1  0.16843980  0.17024167  0.83751480  1
  Ni  Ni30  1  0.17094225  0.50336904  0.50300354  1
  Fe  Fe31  1  1.00261942  0.33434826  0.67016419  1
  Ni  Ni32  1  0.17118032  0.50249573  0.83776039  1
  Ni  Ni33  1  0.17015024  0.83625013  0.50131711  1
  Cr  Cr34  1  0.00349230  0.67022403  0.66889225  1
  Ni  Ni35  1  0.17039641  0.83688750  0.83828124  1
  Ni  Ni36  1  0.50394503  0.17131356  0.50373854  1
  Cr  Cr37  1  0.33645304  0.00376407  0.66867323  1
  Fe  Fe38  1  0.50246451  0.17104379  0.83633942  1
  Ni  Ni39  1  0.50292054  0.50311709  0.50300044  1
  Ni  Ni40  1  0.33825706  0.33801858  0.67012314  1
  Ni  Ni41  1  0.50214649  0.50394916  0.83560453  1
  Ni  Ni42  1  0.50240503  0.83519728  0.50341378  1
  Fe  Fe43  1  0.33814730  0.66839284  0.66924327  1
  Fe  Fe44  1  0.50354352  0.83574110  0.83727429  1
  Ni  Ni45  1  0.83681973  0.17052325  0.50428950  1
  Ni  Ni46  1  0.67111357  0.00419298  0.67052082  1
  Ni  Ni47  1  0.83775573  0.16946153  0.83569034  1
  Ni  Ni48  1  0.83576556  0.50182909  0.50236368  1
  Ni  Ni49  1  0.66858190  0.33624142  0.66891836  1
  Ni  Ni50  1  0.83629872  0.50199028  0.83645062  1
  Ni  Ni51  1  0.83706902  0.83727360  0.50328886  1
  Fe  Fe52  1  0.66825239  0.66962625  0.66914292  1
  Fe  Fe53  1  0.83711235  0.83716514  0.83716401  1
" 