7136,Ni63Fe12Cr23_7,-230.445448414651, 163.903575937884,Ni63Fe12Cr23,"# generated using pymatgen
 data_Cr7Fe3Ni17
_symmetry_space_group_name_H-M   'P 1'
_cell_length_a   7.46549063
_cell_length_b   7.46549063
_cell_length_c   10.55779809
_cell_angle_alpha   90.00000000
_cell_angle_beta   90.00000000
_cell_angle_gamma   90.00000000
_symmetry_Int_Tables_number   1
_chemical_formula_structural   Cr7Fe3Ni17
_chemical_formula_sum   'Cr14 Fe6 Ni34'
_cell_volume   588.42357120
_cell_formula_units_Z   2
loop_
 _symmetry_equiv_pos_site_id
 _symmetry_equiv_pos_as_xyz
  1  'x, y, z'
loop_
 _atom_site_type_symbol
 _atom_site_label
 _atom_site_symmetry_multiplicity
 _atom_site_fract_x
 _atom_site_fract_y
 _atom_site_fract_z
 _atom_site_occupancy
  Ni  Ni0  1  0.00106074  0.00036439  0.99893086  1
  Fe  Fe1  1  0.16738470  0.16474906  0.16442709  1
  Cr  Cr2  1  0.00437522  0.00230023  0.33479748  1
  Fe  Fe3  1  0.99989075  0.33286929  0.99893006  1
  Ni  Ni4  1  0.16690919  0.50276866  0.16546504  1
  Cr  Cr5  1  0.00067171  0.33133904  0.33163378  1
  Ni  Ni6  1  0.00177105  0.66681075  0.99951014  1
  Ni  Ni7  1  0.17061831  0.83175094  0.16538615  1
  Cr  Cr8  1  0.00356432  0.66640970  0.33283072  1
  Ni  Ni9  1  0.33185742  0.99864909  0.00118457  1
  Ni  Ni10  1  0.50174098  0.16593387  0.16598752  1
  Ni  Ni11  1  0.33329408  0.99912855  0.33268690  1
  Cr  Cr12  1  0.33347943  0.33338505  0.00097118  1
  Ni  Ni13  1  0.49893558  0.49917388  0.16742042  1
  Cr  Cr14  1  0.33444061  0.33155612  0.33340576  1
  Ni  Ni15  1  0.33161542  0.66742750  0.00019562  1
  Ni  Ni16  1  0.49476765  0.83491557  0.16575268  1
  Ni  Ni17  1  0.33336781  0.66748058  0.33323562  1
  Ni  Ni18  1  0.66720138  0.00143605  1.00002252  1
  Ni  Ni19  1  0.83136221  0.16973728  0.16446701  1
  Cr  Cr20  1  0.66407516  0.00291692  0.33302529  1
  Ni  Ni21  1  0.66836139  0.33267081  0.00175360  1
  Ni  Ni22  1  0.83440606  0.49574794  0.16474190  1
  Ni  Ni23  1  0.66571391  0.33230328  0.33235144  1
  Cr  Cr24  1  0.66518574  0.66635935  0.99874617  1
  Cr  Cr25  1  0.83510558  0.83444998  0.16535442  1
  Cr  Cr26  1  0.66274631  0.66468284  0.33249681  1
  Fe  Fe27  1  0.16791812  0.16559132  0.50311791  1
  Ni  Ni28  1  0.00109929  0.00258689  0.66731383  1
  Ni  Ni29  1  0.16523794  0.16674467  0.83220084  1
  Ni  Ni30  1  0.16981595  0.50047622  0.50153292  1
  Ni  Ni31  1  0.00123857  0.33089723  0.66812619  1
  Ni  Ni32  1  0.16683266  0.50054527  0.83317962  1
  Ni  Ni33  1  0.17252382  0.83226802  0.50106926  1
  Cr  Cr34  1  0.00224156  0.66832937  0.66837928  1
  Ni  Ni35  1  0.16811905  0.83295066  0.83412273  1
  Ni  Ni36  1  0.50062885  0.16637429  0.50144093  1
  Ni  Ni37  1  0.33223793  0.99978042  0.66633388  1
  Cr  Cr38  1  0.50076799  0.16509489  0.83295474  1
  Fe  Fe39  1  0.49829763  0.49956971  0.50070411  1
  Ni  Ni40  1  0.33263421  0.33397210  0.66583505  1
  Fe  Fe41  1  0.49754829  0.49957908  0.83343561  1
  Ni  Ni42  1  0.49452012  0.83635947  0.50077896  1
  Ni  Ni43  1  0.33367339  0.66638896  0.66717176  1
  Ni  Ni44  1  0.49752819  0.83479879  0.83376012  1
  Ni  Ni45  1  0.83061200  0.16890865  0.50286781  1
  Ni  Ni46  1  0.66679693  0.00142428  0.66712624  1
  Ni  Ni47  1  0.83349758  0.16709355  0.83293440  1
  Cr  Cr48  1  0.83492467  0.49624259  0.50002892  1
  Ni  Ni49  1  0.66617774  0.33220158  0.66646273  1
  Fe  Fe50  1  0.83512414  0.49792540  0.83435126  1
  Cr  Cr51  1  0.83372783  0.83685590  0.50157871  1
  Cr  Cr52  1  0.66359815  0.66814526  0.66914007  1
  Ni  Ni53  1  0.83440576  0.83720978  0.83397241  1
" 