8337,Ni63Fe14Cr22_10,-231.797661518396, 176.692753095421,Ni63Fe14Cr22,"# generated using pymatgen
 data_Cr13Fe7Ni34
_symmetry_space_group_name_H-M   'P 1'
_cell_length_a   7.46269067
_cell_length_b   7.46269067
_cell_length_c   10.55383836
_cell_angle_alpha   90.00000000
_cell_angle_beta   90.00000000
_cell_angle_gamma   90.00000000
_symmetry_Int_Tables_number   1
_chemical_formula_structural   Cr13Fe7Ni34
_chemical_formula_sum   'Cr13 Fe7 Ni34'
_cell_volume   587.76174934
_cell_formula_units_Z   1
loop_
 _symmetry_equiv_pos_site_id
 _symmetry_equiv_pos_as_xyz
  1  'x, y, z'
loop_
 _atom_site_type_symbol
 _atom_site_label
 _atom_site_symmetry_multiplicity
 _atom_site_fract_x
 _atom_site_fract_y
 _atom_site_fract_z
 _atom_site_occupancy
  Ni  Ni0  1  0.00138114  0.00050037  0.00136051  1
  Ni  Ni1  1  0.16778039  0.16613457  0.16611391  1
  Ni  Ni2  1  0.00113091  1.00026564  0.33264050  1
  Ni  Ni3  1  0.00360426  0.32892003  0.00293815  1
  Ni  Ni4  1  0.16938611  0.49782278  0.16593191  1
  Fe  Fe5  1  0.00242212  0.33017284  0.33403864  1
  Cr  Cr6  1  0.00196687  0.67017351  0.00179913  1
  Ni  Ni7  1  0.16757520  0.83640539  0.16655943  1
  Fe  Fe8  1  0.00160602  0.66718260  0.33317725  1
  Ni  Ni9  1  0.33239288  0.00063210  0.00033387  1
  Ni  Ni10  1  0.49809545  0.16516145  0.16841522  1
  Ni  Ni11  1  0.33194429  0.00237303  0.33415675  1
  Ni  Ni12  1  0.33423902  0.33256302  0.00232255  1
  Ni  Ni13  1  0.49849150  0.50019643  0.16586499  1
  Ni  Ni14  1  0.33442517  0.33182530  0.33191096  1
  Ni  Ni15  1  0.33661193  0.66769320  0.00150372  1
  Ni  Ni16  1  0.50055788  0.83548588  0.16549238  1
  Cr  Cr17  1  0.33063727  0.66605989  0.33043184  1
  Fe  Fe18  1  0.66495881  0.99931096  0.00196724  1
  Ni  Ni19  1  0.83505525  0.16360935  0.16702075  1
  Ni  Ni20  1  0.66781078  0.00463445  0.33048383  1
  Cr  Cr21  1  0.66245605  0.33242700  0.00107670  1
  Cr  Cr22  1  0.83424656  0.49922636  0.16819027  1
  Ni  Ni23  1  0.66670289  0.33089958  0.33464716  1
  Ni  Ni24  1  0.66337320  0.66961752  0.00056515  1
  Ni  Ni25  1  0.83260287  0.83633352  0.16723006  1
  Fe  Fe26  1  0.66588405  0.66718364  0.33117174  1
  Ni  Ni27  1  0.16855810  0.16781985  0.50009355  1
  Cr  Cr28  1  0.00277422  0.00159901  0.66721528  1
  Ni  Ni29  1  0.17051700  0.16612691  0.83466469  1
  Ni  Ni30  1  0.16604819  0.49811176  0.50031258  1
  Ni  Ni31  1  0.00164196  0.33205003  0.66368841  1
  Cr  Cr32  1  0.17005222  0.49589104  0.83533646  1
  Ni  Ni33  1  0.16826654  0.83496235  0.50041747  1
  Cr  Cr34  1  0.00229320  0.66817531  0.66529049  1
  Fe  Fe35  1  0.17011838  0.83570945  0.83498916  1
  Ni  Ni36  1  0.49864624  0.16750895  0.49944814  1
  Fe  Fe37  1  0.33314137  0.00273161  0.66714358  1
  Ni  Ni38  1  0.49539223  0.16734677  0.83296967  1
  Cr  Cr39  1  0.50055899  0.49892778  0.50135073  1
  Ni  Ni40  1  0.33428731  0.33313510  0.66677670  1
  Ni  Ni41  1  0.49842050  0.50125741  0.83291370  1
  Cr  Cr42  1  0.49847375  0.83655893  0.50001858  1
  Ni  Ni43  1  0.33399388  0.66703898  0.66852114  1
  Fe  Fe44  1  0.49887944  0.83304823  0.83506728  1
  Ni  Ni45  1  0.83396004  0.16987833  0.49875423  1
  Cr  Cr46  1  0.66647077  0.00335459  0.66815450  1
  Cr  Cr47  1  0.83663639  0.16700198  0.83607220  1
  Ni  Ni48  1  0.83473763  0.49766852  0.50057811  1
  Ni  Ni49  1  0.66495791  0.33360232  0.66571915  1
  Cr  Cr50  1  0.83200741  0.50068150  0.83159702  1
  Cr  Cr51  1  0.83204957  0.83333977  0.49641378  1
  Ni  Ni52  1  0.66486601  0.66564220  0.66845502  1
  Ni  Ni53  1  0.83067525  0.83378430  0.83645718  1
" 