8029,Ni63Fe13Cr23_6,-231.533347129063, 174.524530325938,Ni63Fe13Cr23,"# generated using pymatgen
 data_Cr13Fe7Ni34
_symmetry_space_group_name_H-M   'P 1'
_cell_length_a   7.46107995
_cell_length_b   7.46107995
_cell_length_c   10.55156045
_cell_angle_alpha   90.00000000
_cell_angle_beta   90.00000000
_cell_angle_gamma   90.00000000
_symmetry_Int_Tables_number   1
_chemical_formula_structural   Cr13Fe7Ni34
_chemical_formula_sum   'Cr13 Fe7 Ni34'
_cell_volume   587.38124922
_cell_formula_units_Z   1
loop_
 _symmetry_equiv_pos_site_id
 _symmetry_equiv_pos_as_xyz
  1  'x, y, z'
loop_
 _atom_site_type_symbol
 _atom_site_label
 _atom_site_symmetry_multiplicity
 _atom_site_fract_x
 _atom_site_fract_y
 _atom_site_fract_z
 _atom_site_occupancy
  Cr  Cr0  1  0.00415566  0.99586042  0.00070871  1
  Cr  Cr1  1  0.16680985  0.17063520  0.16777287  1
  Ni  Ni2  1  0.99865674  0.99829631  0.33680516  1
  Ni  Ni3  1  0.00070334  0.33763074  1.00036453  1
  Ni  Ni4  1  0.16529242  0.50161314  0.16805518  1
  Fe  Fe5  1  0.99863672  0.33484898  0.33516589  1
  Ni  Ni6  1  0.99896747  0.66353558  0.00161058  1
  Ni  Ni7  1  0.16578704  0.83105867  0.16818743  1
  Ni  Ni8  1  0.99949835  0.66813961  0.33183570  1
  Ni  Ni9  1  0.33528711  0.00180286  0.99991177  1
  Cr  Cr10  1  0.50147886  0.16627824  0.16484856  1
  Cr  Cr11  1  0.33400731  0.99649524  0.33442633  1
  Ni  Ni12  1  0.33330016  0.33417540  0.99741073  1
  Cr  Cr13  1  0.49936078  0.50122212  0.16871429  1
  Fe  Fe14  1  0.33445598  0.33428397  0.33606608  1
  Cr  Cr15  1  0.33056133  0.66976294  0.00233206  1
  Ni  Ni16  1  0.50334611  0.83257973  0.16747188  1
  Ni  Ni17  1  0.33376220  0.66629148  0.33369630  1
  Ni  Ni18  1  0.66482664  0.99960413  0.00229612  1
  Cr  Cr19  1  0.83329425  0.16672142  0.16755612  1
  Ni  Ni20  1  0.66853426  0.99920101  0.33537655  1
  Ni  Ni21  1  0.66682894  0.33580815  0.99895106  1
  Fe  Fe22  1  0.83458209  0.50297030  0.16714702  1
  Fe  Fe23  1  0.66745604  0.33451396  0.33702073  1
  Ni  Ni24  1  0.66900750  0.66563411  0.00138243  1
  Ni  Ni25  1  0.83202488  0.83207836  0.16745774  1
  Ni  Ni26  1  0.66777213  0.66749540  0.33562088  1
  Ni  Ni27  1  0.16716167  0.16638428  0.50067694  1
  Ni  Ni28  1  0.00221396  0.99855761  0.66383917  1
  Ni  Ni29  1  0.17019776  0.16812906  0.83352912  1
  Cr  Cr30  1  0.16827254  0.50246704  0.49907359  1
  Cr  Cr31  1  0.99988471  0.33399397  0.66699794  1
  Ni  Ni32  1  0.16703804  0.50002711  0.83406562  1
  Ni  Ni33  1  0.16628096  0.83398683  0.50188749  1
  Ni  Ni34  1  0.00103697  0.66775418  0.66742931  1
  Ni  Ni35  1  0.16827716  0.83291555  0.83118550  1
  Ni  Ni36  1  0.50023253  0.16709458  0.50063617  1
  Ni  Ni37  1  0.33313303  0.00043583  0.66584810  1
  Fe  Fe38  1  0.49851196  0.16738975  0.83364046  1
  Ni  Ni39  1  0.50063233  0.50175619  0.50056639  1
  Ni  Ni40  1  0.33494362  0.33358127  0.66737750  1
  Fe  Fe41  1  0.49903925  0.50047453  0.83340040  1
  Ni  Ni42  1  0.50152013  0.83251084  0.50057365  1
  Ni  Ni43  1  0.33315326  0.66736148  0.66593189  1
  Cr  Cr44  1  0.50145510  0.83450154  0.83263691  1
  Ni  Ni45  1  0.83355142  0.16517186  0.49828114  1
  Ni  Ni46  1  0.66589914  0.00126167  0.66242980  1
  Cr  Cr47  1  0.83359693  0.16519049  0.83571627  1
  Ni  Ni48  1  0.83244095  0.50299375  0.49811987  1
  Cr  Cr49  1  0.66633807  0.33522699  0.66571417  1
  Ni  Ni50  1  0.83412783  0.50132172  0.83681866  1
  Ni  Ni51  1  0.83334841  0.83381153  0.50147820  1
  Fe  Fe52  1  0.66722510  0.66721396  0.66454972  1
  Cr  Cr53  1  0.83368867  0.83154456  0.83099900  1
" 