9007,Ni63Fe12Cr23_16,-230.257738384032, 169.477844565272,Ni63Fe12Cr23,"# generated using pymatgen
 data_Cr7Fe3Ni17
_symmetry_space_group_name_H-M   'P 1'
_cell_length_a   7.46534625
_cell_length_b   7.46534625
_cell_length_c   10.55759391
_cell_angle_alpha   90.00000000
_cell_angle_beta   90.00000000
_cell_angle_gamma   90.00000000
_symmetry_Int_Tables_number   1
_chemical_formula_structural   Cr7Fe3Ni17
_chemical_formula_sum   'Cr14 Fe6 Ni34'
_cell_volume   588.38943171
_cell_formula_units_Z   2
loop_
 _symmetry_equiv_pos_site_id
 _symmetry_equiv_pos_as_xyz
  1  'x, y, z'
loop_
 _atom_site_type_symbol
 _atom_site_label
 _atom_site_symmetry_multiplicity
 _atom_site_fract_x
 _atom_site_fract_y
 _atom_site_fract_z
 _atom_site_occupancy
  Ni  Ni0  1  0.00018494  0.00078952  0.99857719  1
  Ni  Ni1  1  0.16776160  0.16738014  0.16617960  1
  Ni  Ni2  1  0.00159328  0.99766846  0.33501788  1
  Ni  Ni3  1  0.00165533  0.33452469  0.00017783  1
  Ni  Ni4  1  0.16575549  0.49960336  0.16507993  1
  Cr  Cr5  1  0.00126065  0.33534182  0.33482417  1
  Fe  Fe6  1  0.00092587  0.66508572  0.99920129  1
  Cr  Cr7  1  0.16614630  0.83369842  0.16769832  1
  Ni  Ni8  1  0.99949559  0.66710118  0.33338879  1
  Cr  Cr9  1  0.33262153  0.00151246  0.00120154  1
  Ni  Ni10  1  0.49754389  0.16596025  0.16661413  1
  Ni  Ni11  1  0.33346736  0.99868094  0.33372773  1
  Ni  Ni12  1  0.33188817  0.33480048  1.00008813  1
  Cr  Cr13  1  0.49930081  0.50081553  0.16554425  1
  Cr  Cr14  1  0.33108374  0.33163400  0.33262536  1
  Ni  Ni15  1  0.33126720  0.66333737  0.99889788  1
  Ni  Ni16  1  0.50022779  0.83350559  0.16903675  1
  Ni  Ni17  1  0.33214837  0.66950099  0.33440231  1
  Cr  Cr18  1  0.66785499  0.00037148  0.00062459  1
  Cr  Cr19  1  0.83568288  0.16661283  0.16450747  1
  Cr  Cr20  1  0.66541540  0.99751560  0.33286388  1
  Ni  Ni21  1  0.66679913  0.33412474  0.99812646  1
  Ni  Ni22  1  0.83518764  0.50228943  0.16683602  1
  Cr  Cr23  1  0.66799917  0.33395508  0.33432310  1
  Cr  Cr24  1  0.66802565  0.66637872  0.00171333  1
  Ni  Ni25  1  0.83376628  0.83150368  0.16793322  1
  Fe  Fe26  1  0.66864042  0.66947187  0.33369518  1
  Ni  Ni27  1  0.16585282  0.16365304  0.49908096  1
  Ni  Ni28  1  0.99989905  0.99752818  0.66674473  1
  Ni  Ni29  1  0.16630915  0.16571831  0.83508105  1
  Ni  Ni30  1  0.16532711  0.50203296  0.49951193  1
  Cr  Cr31  1  0.99919088  0.33464335  0.66558513  1
  Ni  Ni32  1  0.16708653  0.50118285  0.83574868  1
  Fe  Fe33  1  0.16570348  0.83358943  0.50010757  1
  Ni  Ni34  1  0.99892052  0.66843949  0.66729382  1
  Ni  Ni35  1  0.16392097  0.83344117  0.83181810  1
  Fe  Fe36  1  0.50071928  0.16371289  0.50195884  1
  Ni  Ni37  1  0.33355156  0.99951665  0.66541863  1
  Ni  Ni38  1  0.50052126  0.16992922  0.83222658  1
  Cr  Cr39  1  0.50108286  0.50291004  0.50147379  1
  Cr  Cr40  1  0.33366724  0.33256505  0.66760784  1
  Ni  Ni41  1  0.50046094  0.49768902  0.83369592  1
  Ni  Ni42  1  0.49973154  0.83401950  0.50024023  1
  Fe  Fe43  1  0.33233999  0.66863798  0.66710605  1
  Cr  Cr44  1  0.49928088  0.83239618  0.83106995  1
  Ni  Ni45  1  0.83468017  0.16489849  0.50239967  1
  Ni  Ni46  1  0.66689090  0.99994191  0.66606462  1
  Fe  Fe47  1  0.83373557  0.16711706  0.83315949  1
  Ni  Ni48  1  0.83404121  0.50195336  0.50029525  1
  Ni  Ni49  1  0.66708466  0.33316893  0.66807589  1
  Ni  Ni50  1  0.83279380  0.50007838  0.83321189  1
  Ni  Ni51  1  0.83358357  0.83349170  0.50046985  1
  Ni  Ni52  1  0.66907472  0.66723083  0.66586145  1
  Ni  Ni53  1  0.83700321  0.83350303  0.83193911  1
" 