8901,Ni63Fe13Cr23_4,-231.615058689241, 178.811320913539,Ni63Fe13Cr23,"# generated using pymatgen
 data_Cr13Fe7Ni34
_symmetry_space_group_name_H-M   'P 1'
_cell_length_a   7.45901861
_cell_length_b   7.45901861
_cell_length_c   10.54864528
_cell_angle_alpha   90.00000000
_cell_angle_beta   90.00000000
_cell_angle_gamma   90.00000000
_symmetry_Int_Tables_number   1
_chemical_formula_structural   Cr13Fe7Ni34
_chemical_formula_sum   'Cr13 Fe7 Ni34'
_cell_volume   586.89454069
_cell_formula_units_Z   1
loop_
 _symmetry_equiv_pos_site_id
 _symmetry_equiv_pos_as_xyz
  1  'x, y, z'
loop_
 _atom_site_type_symbol
 _atom_site_label
 _atom_site_symmetry_multiplicity
 _atom_site_fract_x
 _atom_site_fract_y
 _atom_site_fract_z
 _atom_site_occupancy
  Ni  Ni0  1  0.99937349  1.00028435  0.00212050  1
  Ni  Ni1  1  0.16781642  0.16590937  0.16565129  1
  Ni  Ni2  1  0.00074516  0.99922123  0.33486444  1
  Ni  Ni3  1  0.99974951  0.33450611  0.99874142  1
  Cr  Cr4  1  0.16599711  0.50164269  0.16650497  1
  Cr  Cr5  1  0.00165824  0.33267418  0.33671905  1
  Ni  Ni6  1  0.99832426  0.66688875  0.00161509  1
  Ni  Ni7  1  0.16417938  0.83517491  0.16810432  1
  Ni  Ni8  1  0.00072791  0.66864343  0.33384736  1
  Ni  Ni9  1  0.33378131  0.00224591  0.00283785  1
  Fe  Fe10  1  0.49989607  0.16956898  0.16563805  1
  Cr  Cr11  1  0.33035870  0.00208635  0.33366548  1
  Ni  Ni12  1  0.33390242  0.33298395  0.00180392  1
  Ni  Ni13  1  0.50103067  0.49711400  0.16853333  1
  Ni  Ni14  1  0.33411984  0.33522311  0.33348534  1
  Cr  Cr15  1  0.33389424  0.66618230  0.99862903  1
  Cr  Cr16  1  0.49967986  0.83363206  0.16607875  1
  Ni  Ni17  1  0.33282360  0.66520341  0.33598898  1
  Ni  Ni18  1  0.66857673  0.00085353  0.99893074  1
  Cr  Cr19  1  0.83431393  0.16812864  0.16554331  1
  Cr  Cr20  1  0.67036336  0.00087738  0.33464039  1
  Ni  Ni21  1  0.66760430  0.33455317  0.00188295  1
  Ni  Ni22  1  0.83271604  0.50123135  0.16709319  1
  Fe  Fe23  1  0.66737509  0.33533865  0.33502599  1
  Cr  Cr24  1  0.66935887  0.66711718  0.99861607  1
  Ni  Ni25  1  0.83789754  0.83340525  0.16630789  1
  Cr  Cr26  1  0.66846741  0.66606488  0.33423920  1
  Ni  Ni27  1  0.16624377  0.16700729  0.50244301  1
  Ni  Ni28  1  0.99849231  0.00121467  0.66495037  1
  Cr  Cr29  1  0.16544852  0.16779797  0.83310677  1
  Ni  Ni30  1  0.16765930  0.50194401  0.50206754  1
  Ni  Ni31  1  0.99972305  0.33457475  0.66647509  1
  Fe  Fe32  1  0.16483849  0.50058161  0.83229644  1
  Fe  Fe33  1  0.16539255  0.83190618  0.50119153  1
  Ni  Ni34  1  0.99910901  0.66552145  0.66660172  1
  Cr  Cr35  1  0.16615980  0.83384152  0.83381487  1
  Cr  Cr36  1  0.50135688  0.16918099  0.50166463  1
  Ni  Ni37  1  0.33384581  0.99934714  0.66523547  1
  Cr  Cr38  1  0.50189764  0.16643380  0.83435255  1
  Ni  Ni39  1  0.49989777  0.50172845  0.50132356  1
  Ni  Ni40  1  0.33240534  0.33596442  0.66629578  1
  Fe  Fe41  1  0.50212578  0.49938726  0.83184163  1
  Fe  Fe42  1  0.49995488  0.83188320  0.50305690  1
  Ni  Ni43  1  0.33506430  0.66580129  0.66618163  1
  Ni  Ni44  1  0.50128396  0.83429979  0.83104154  1
  Ni  Ni45  1  0.83534475  0.16704228  0.50361370  1
  Ni  Ni46  1  0.66934544  0.99881541  0.66782970  1
  Ni  Ni47  1  0.83334007  0.16802127  0.83284198  1
  Ni  Ni48  1  0.83390833  0.50124633  0.50137108  1
  Ni  Ni49  1  0.66935843  0.33558436  0.66601500  1
  Ni  Ni50  1  0.83455535  0.49972509  0.83331481  1
  Fe  Fe51  1  0.83635533  0.83255083  0.50221803  1
  Ni  Ni52  1  0.66742509  0.66693801  0.66753679  1
  Ni  Ni53  1  0.83379979  0.83396874  0.83327214  1
" 