1011,Ni63Fe26Cr10_11,-237.812013990557, 204.515900494055,Ni63Fe26Cr10,"# generated using pymatgen
 data_Cr3Fe7Ni17
_symmetry_space_group_name_H-M   'P 1'
_cell_length_a   7.42927188
_cell_length_b   7.42927188
_cell_length_c   10.50657705
_cell_angle_alpha   90.00000000
_cell_angle_beta   90.00000000
_cell_angle_gamma   90.00000000
_symmetry_Int_Tables_number   1
_chemical_formula_structural   Cr3Fe7Ni17
_chemical_formula_sum   'Cr6 Fe14 Ni34'
_cell_volume   579.90086054
_cell_formula_units_Z   2
loop_
 _symmetry_equiv_pos_site_id
 _symmetry_equiv_pos_as_xyz
  1  'x, y, z'
loop_
 _atom_site_type_symbol
 _atom_site_label
 _atom_site_symmetry_multiplicity
 _atom_site_fract_x
 _atom_site_fract_y
 _atom_site_fract_z
 _atom_site_occupancy
  Ni  Ni0  1  0.00285134  0.00444383  0.00360845  1
  Fe  Fe1  1  0.16960101  0.16729336  0.16999010  1
  Ni  Ni2  1  0.00335487  1.00248385  0.33515031  1
  Fe  Fe3  1  1.00202036  0.33440828  1.00105764  1
  Cr  Cr4  1  0.17045146  0.50286041  0.17014824  1
  Ni  Ni5  1  1.00209208  0.33419853  0.33620097  1
  Cr  Cr6  1  1.00017785  0.67048723  1.00198842  1
  Ni  Ni7  1  0.16875285  0.83733962  0.17005260  1
  Fe  Fe8  1  1.00201574  0.67012299  0.33702659  1
  Fe  Fe9  1  0.33545776  0.00260760  0.00332687  1
  Ni  Ni10  1  0.50246842  0.17102343  0.17031178  1
  Ni  Ni11  1  0.33454567  0.00303751  0.33493504  1
  Ni  Ni12  1  0.33645562  0.33570413  1.00172747  1
  Ni  Ni13  1  0.50356363  0.50117593  0.16839477  1
  Ni  Ni14  1  0.33663001  0.33446919  0.33691928  1
  Ni  Ni15  1  0.33945026  0.66795251  0.00280003  1
  Fe  Fe16  1  0.50168777  0.83434945  0.16972674  1
  Fe  Fe17  1  0.33627999  0.66958954  0.33665559  1
  Cr  Cr18  1  0.67040845  1.00089418  1.00224885  1
  Fe  Fe19  1  0.83688866  0.16959783  0.17025410  1
  Fe  Fe20  1  0.66927891  0.00347073  0.33663858  1
  Fe  Fe21  1  0.66863802  0.33757071  1.00243162  1
  Fe  Fe22  1  0.83274372  0.50238515  0.16992146  1
  Ni  Ni23  1  0.66890279  0.33723878  0.33512769  1
  Ni  Ni24  1  0.66759733  0.66819770  1.00234550  1
  Ni  Ni25  1  0.83680563  0.83624271  0.17022481  1
  Ni  Ni26  1  0.66945500  0.66886247  0.33469130  1
  Ni  Ni27  1  0.17027916  0.17110433  0.50171869  1
  Cr  Cr28  1  1.00151668  0.00297162  0.66878924  1
  Fe  Fe29  1  0.16953299  0.17149302  0.83620615  1
  Ni  Ni30  1  0.16895072  0.50296563  0.50313856  1
  Ni  Ni31  1  0.00313589  0.33728777  0.66995589  1
  Ni  Ni32  1  0.16924464  0.50108105  0.83471521  1
  Ni  Ni33  1  0.16974664  0.83355361  0.50166597  1
  Ni  Ni34  1  0.00314652  0.66719461  0.66816494  1
  Cr  Cr35  1  0.17062663  0.83398247  0.83520232  1
  Ni  Ni36  1  0.50335061  0.16907430  0.50300113  1
  Ni  Ni37  1  0.33818062  0.00360771  0.66934259  1
  Ni  Ni38  1  0.50311366  0.16970423  0.83431308  1
  Fe  Fe39  1  0.50146691  0.50153478  0.50113913  1
  Ni  Ni40  1  0.33553910  0.33574586  0.66897915  1
  Fe  Fe41  1  0.50218806  0.50211658  0.83736501  1
  Ni  Ni42  1  0.50185838  0.83761636  0.50151031  1
  Ni  Ni43  1  0.33506317  0.66827422  0.66849945  1
  Ni  Ni44  1  0.50265110  0.83682794  0.83670274  1
  Ni  Ni45  1  0.83399729  0.16986583  0.50174921  1
  Ni  Ni46  1  0.66787476  0.00361934  0.66865204  1
  Ni  Ni47  1  0.83428209  0.17116791  0.83607981  1
  Fe  Fe48  1  0.83702266  0.50141864  0.50220718  1
  Ni  Ni49  1  0.66895177  0.33416675  0.66974350  1
  Ni  Ni50  1  0.83708160  0.50062024  0.83640393  1
  Ni  Ni51  1  0.83602179  0.83628658  0.50172323  1
  Cr  Cr52  1  0.66961939  0.67015718  0.67073576  1
  Ni  Ni53  1  0.83426931  0.83584109  0.83567831  1
" 