2216,Ni63Fe30Cr6_6,-239.591704013537, 213.501350151188,Ni63Fe30Cr6,"# generated using pymatgen
 data_Cr2Fe8Ni17
_symmetry_space_group_name_H-M   'P 1'
_cell_length_a   7.42011043
_cell_length_b   7.42011043
_cell_length_c   10.49362080
_cell_angle_alpha   90.00000000
_cell_angle_beta   90.00000000
_cell_angle_gamma   90.00000000
_symmetry_Int_Tables_number   1
_chemical_formula_structural   Cr2Fe8Ni17
_chemical_formula_sum   'Cr4 Fe16 Ni34'
_cell_volume   577.75818106
_cell_formula_units_Z   2
loop_
 _symmetry_equiv_pos_site_id
 _symmetry_equiv_pos_as_xyz
  1  'x, y, z'
loop_
 _atom_site_type_symbol
 _atom_site_label
 _atom_site_symmetry_multiplicity
 _atom_site_fract_x
 _atom_site_fract_y
 _atom_site_fract_z
 _atom_site_occupancy
  Fe  Fe0  1  0.00488163  1.00270543  1.00236631  1
  Fe  Fe1  1  0.17096736  0.16956030  0.17058669  1
  Ni  Ni2  1  0.00395211  0.00437846  0.33687228  1
  Ni  Ni3  1  0.00392430  0.33878033  1.00257640  1
  Ni  Ni4  1  0.17019739  0.50286549  0.16873923  1
  Ni  Ni5  1  1.00273389  0.33481825  0.33597724  1
  Ni  Ni6  1  1.00295503  0.66916312  0.00371202  1
  Ni  Ni7  1  0.17119820  0.83582421  0.16990931  1
  Cr  Cr8  1  1.00206477  0.67047717  0.33599714  1
  Fe  Fe9  1  0.33506252  0.00350721  0.00360777  1
  Ni  Ni10  1  0.50135812  0.17005863  0.17068653  1
  Ni  Ni11  1  0.33717730  0.00318830  0.33617997  1
  Ni  Ni12  1  0.33665604  0.33655386  0.00385286  1
  Fe  Fe13  1  0.50339214  0.50385472  0.16947641  1
  Fe  Fe14  1  0.33656624  0.33557936  0.33581866  1
  Fe  Fe15  1  0.33595983  0.66889577  1.00296752  1
  Ni  Ni16  1  0.50189630  0.83625679  0.17093274  1
  Ni  Ni17  1  0.33960044  0.67130350  0.33525897  1
  Cr  Cr18  1  0.66884469  1.00222455  1.00281604  1
  Cr  Cr19  1  0.83679079  0.17070317  0.17129361  1
  Fe  Fe20  1  0.66907213  1.00164726  0.33761805  1
  Ni  Ni21  1  0.66891137  0.33805778  1.00237100  1
  Ni  Ni22  1  0.83712602  0.50339742  0.16918129  1
  Fe  Fe23  1  0.66931694  0.33696526  0.33668789  1
  Fe  Fe24  1  0.67055190  0.66740320  0.00351756  1
  Ni  Ni25  1  0.83639722  0.83501244  0.16968406  1
  Ni  Ni26  1  0.66818261  0.67008951  0.33568059  1
  Ni  Ni27  1  0.16941820  0.16966235  0.50254808  1
  Ni  Ni28  1  1.00226138  1.00287289  0.66997336  1
  Fe  Fe29  1  0.16939361  0.17024847  0.83567301  1
  Cr  Cr30  1  0.17055148  0.50250020  0.50445517  1
  Ni  Ni31  1  1.00248562  0.33637543  0.67092689  1
  Ni  Ni32  1  0.17005669  0.50318032  0.83656790  1
  Fe  Fe33  1  0.17076421  0.84005356  0.50398200  1
  Ni  Ni34  1  1.00247703  0.67024848  0.67033000  1
  Ni  Ni35  1  0.17031642  0.83566769  0.83562233  1
  Ni  Ni36  1  0.50341949  0.16891322  0.50346761  1
  Ni  Ni37  1  0.33770705  1.00305472  0.67015768  1
  Fe  Fe38  1  0.50279107  0.17074641  0.83586998  1
  Fe  Fe39  1  0.50454393  0.50318097  0.50351630  1
  Ni  Ni40  1  0.33721867  0.33592869  0.67039451  1
  Ni  Ni41  1  0.50221263  0.50315044  0.83653817  1
  Ni  Ni42  1  0.50364890  0.83700920  0.50293119  1
  Ni  Ni43  1  0.33703914  0.67051291  0.67062980  1
  Ni  Ni44  1  0.50199936  0.83574679  0.83561973  1
  Ni  Ni45  1  0.83665137  0.16921362  0.50284102  1
  Ni  Ni46  1  0.66952075  1.00305006  0.66920261  1
  Ni  Ni47  1  0.83714121  0.17084828  0.83530946  1
  Fe  Fe48  1  0.83439649  0.50194512  0.50358157  1
  Fe  Fe49  1  0.66997791  0.33580401  0.67046284  1
  Ni  Ni50  1  0.83721688  0.50199856  0.83631862  1
  Ni  Ni51  1  0.83487917  0.83824993  0.50368634  1
  Fe  Fe52  1  0.66979573  0.67072291  0.66970041  1
  Ni  Ni53  1  0.83717141  0.83663641  0.83611840  1
" 