8706,Ni63Fe26Cr10_6,-238.236863332879, 206.430553195139,Ni63Fe26Cr10,"# generated using pymatgen
 data_Cr3Fe7Ni17
_symmetry_space_group_name_H-M   'P 1'
_cell_length_a   7.42810427
_cell_length_b   7.42810427
_cell_length_c   10.50492580
_cell_angle_alpha   90.00000000
_cell_angle_beta   90.00000000
_cell_angle_gamma   90.00000000
_symmetry_Int_Tables_number   1
_chemical_formula_structural   Cr3Fe7Ni17
_chemical_formula_sum   'Cr6 Fe14 Ni34'
_cell_volume   579.62748656
_cell_formula_units_Z   2
loop_
 _symmetry_equiv_pos_site_id
 _symmetry_equiv_pos_as_xyz
  1  'x, y, z'
loop_
 _atom_site_type_symbol
 _atom_site_label
 _atom_site_symmetry_multiplicity
 _atom_site_fract_x
 _atom_site_fract_y
 _atom_site_fract_z
 _atom_site_occupancy
  Cr  Cr0  1  0.00401991  0.00399517  0.00344099  1
  Ni  Ni1  1  0.16994226  0.16993879  0.16945436  1
  Fe  Fe2  1  1.00177118  0.00318223  0.33630354  1
  Ni  Ni3  1  1.00113138  0.33391972  1.00254493  1
  Cr  Cr4  1  0.16945672  0.50054531  0.17019609  1
  Ni  Ni5  1  1.00224023  0.33555281  0.33602313  1
  Cr  Cr6  1  1.00006841  0.66943852  0.00266060  1
  Fe  Fe7  1  0.16998796  0.83832224  0.17153678  1
  Ni  Ni8  1  1.00005655  0.66919432  0.33590476  1
  Ni  Ni9  1  0.33726374  0.00512733  0.00281186  1
  Ni  Ni10  1  0.50240554  0.16881934  0.16888747  1
  Ni  Ni11  1  0.33709267  0.00415604  0.33502024  1
  Ni  Ni12  1  0.33703494  0.33208528  1.00211490  1
  Ni  Ni13  1  0.50374110  0.50104695  0.17045336  1
  Ni  Ni14  1  0.33649703  0.33372601  0.33687107  1
  Cr  Cr15  1  0.33819980  0.67196163  0.00423014  1
  Ni  Ni16  1  0.50363725  0.83785056  0.17062207  1
  Fe  Fe17  1  0.33761683  0.66969301  0.33723740  1
  Fe  Fe18  1  0.66785450  0.00417952  0.00326327  1
  Ni  Ni19  1  0.83525856  0.16982311  0.16991414  1
  Ni  Ni20  1  0.66819744  1.00194592  0.33575806  1
  Fe  Fe21  1  0.66893271  0.33413819  1.00261603  1
  Ni  Ni22  1  0.83521767  0.50125377  0.17019556  1
  Fe  Fe23  1  0.66895702  0.33557218  0.33712091  1
  Cr  Cr24  1  0.66933910  0.66949346  1.00196785  1
  Ni  Ni25  1  0.83436189  0.83678001  0.17114323  1
  Ni  Ni26  1  0.66990684  0.66948937  0.33618139  1
  Fe  Fe27  1  0.16943291  0.16913420  0.50245188  1
  Ni  Ni28  1  0.00351109  0.00363271  0.66847722  1
  Ni  Ni29  1  0.17006386  0.16901044  0.83492284  1
  Fe  Fe30  1  0.16860367  0.50274633  0.50262827  1
  Ni  Ni31  1  1.00157318  0.33474604  0.66846537  1
  Cr  Cr32  1  0.16852002  0.50117701  0.83452211  1
  Fe  Fe33  1  0.16930437  0.83599243  0.50352175  1
  Ni  Ni34  1  1.00161896  0.66948304  0.66922805  1
  Ni  Ni35  1  0.17050218  0.83752859  0.83431617  1
  Ni  Ni36  1  0.50299081  0.16807265  0.50309500  1
  Ni  Ni37  1  0.33607853  0.00296863  0.66985819  1
  Ni  Ni38  1  0.50265856  0.16782805  0.83596476  1
  Ni  Ni39  1  0.50258622  0.50300140  0.50338204  1
  Fe  Fe40  1  0.33734680  0.33447874  0.66825971  1
  Fe  Fe41  1  0.50202379  0.50123989  0.83416708  1
  Ni  Ni42  1  0.50335953  0.83668380  0.50320342  1
  Ni  Ni43  1  0.33728485  0.67089564  0.66814138  1
  Ni  Ni44  1  0.50273478  0.83832955  0.83430552  1
  Ni  Ni45  1  0.83578007  0.16874783  0.50287655  1
  Ni  Ni46  1  0.66831619  0.00307126  0.66938131  1
  Fe  Fe47  1  0.83592664  0.16921025  0.83430023  1
  Ni  Ni48  1  0.83693030  0.50304725  0.50283509  1
  Ni  Ni49  1  0.66949325  0.33586060  0.66853376  1
  Fe  Fe50  1  0.83449253  0.50042927  0.83398942  1
  Ni  Ni51  1  0.83550079  0.83597387  0.50377754  1
  Ni  Ni52  1  0.66886288  0.66887990  0.66929341  1
  Fe  Fe53  1  0.83586699  0.83815279  0.83318076  1
" 