1147,Ni63Fe13Cr23_9,-231.287628687169, 173.591220599689,Ni63Fe13Cr23,"# generated using pymatgen
 data_Cr13Fe7Ni34
_symmetry_space_group_name_H-M   'P 1'
_cell_length_a   7.45836385
_cell_length_b   7.45836385
_cell_length_c   10.54771931
_cell_angle_alpha   90.00000000
_cell_angle_beta   90.00000000
_cell_angle_gamma   90.00000000
_symmetry_Int_Tables_number   1
_chemical_formula_structural   Cr13Fe7Ni34
_chemical_formula_sum   'Cr13 Fe7 Ni34'
_cell_volume   586.73999927
_cell_formula_units_Z   1
loop_
 _symmetry_equiv_pos_site_id
 _symmetry_equiv_pos_as_xyz
  1  'x, y, z'
loop_
 _atom_site_type_symbol
 _atom_site_label
 _atom_site_symmetry_multiplicity
 _atom_site_fract_x
 _atom_site_fract_y
 _atom_site_fract_z
 _atom_site_occupancy
  Ni  Ni0  1  1.00008588  0.00074438  0.99866550  1
  Cr  Cr1  1  0.16736872  0.16658708  0.16819170  1
  Ni  Ni2  1  0.00112374  0.99844269  0.33418262  1
  Ni  Ni3  1  0.99806225  0.33417041  0.99930576  1
  Ni  Ni4  1  0.16998563  0.50255213  0.16692639  1
  Cr  Cr5  1  0.00262316  0.33573897  0.33488040  1
  Cr  Cr6  1  1.00015744  0.66665136  0.00148143  1
  Fe  Fe7  1  0.16800255  0.83274225  0.16777608  1
  Cr  Cr8  1  0.99875211  0.66732960  0.33371149  1
  Cr  Cr9  1  0.33369875  0.99891522  0.99891179  1
  Ni  Ni10  1  0.49999154  0.16773336  0.16941748  1
  Ni  Ni11  1  0.33487947  0.00215816  0.33317747  1
  Cr  Cr12  1  0.33501294  0.33533245  1.00017127  1
  Ni  Ni13  1  0.50013048  0.50279700  0.16738477  1
  Ni  Ni14  1  0.33554926  0.33340262  0.33551081  1
  Ni  Ni15  1  0.33549203  0.66703965  0.00097012  1
  Fe  Fe16  1  0.50081112  0.83105553  0.16899269  1
  Ni  Ni17  1  0.33592051  0.66618393  0.33184813  1
  Cr  Cr18  1  0.66753506  0.00071738  1.00008446  1
  Cr  Cr19  1  0.83400369  0.16637140  0.16515554  1
  Fe  Fe20  1  0.66586672  0.99810759  0.33367834  1
  Ni  Ni21  1  0.66848042  0.33627061  0.99967342  1
  Ni  Ni22  1  0.83163098  0.50328326  0.16521136  1
  Cr  Cr23  1  0.66417320  0.33583508  0.33391799  1
  Ni  Ni24  1  0.66643865  0.66501773  0.00086734  1
  Ni  Ni25  1  0.83329516  0.83298677  0.16876647  1
  Ni  Ni26  1  0.66682408  0.66815083  0.33333412  1
  Ni  Ni27  1  0.16885878  0.16896600  0.49998544  1
  Ni  Ni28  1  0.99789170  1.00022750  0.66889545  1
  Ni  Ni29  1  0.16473721  0.16620572  0.83335220  1
  Ni  Ni30  1  0.16956063  0.49867156  0.50237877  1
  Ni  Ni31  1  0.00140293  0.33538668  0.66776582  1
  Fe  Fe32  1  0.16687995  0.50014665  0.83206773  1
  Cr  Cr33  1  0.16540044  0.83420871  0.49984658  1
  Ni  Ni34  1  0.99924050  0.66613186  0.66711136  1
  Ni  Ni35  1  0.16611126  0.83435405  0.83416776  1
  Ni  Ni36  1  0.49825589  0.16945393  0.49981489  1
  Cr  Cr37  1  0.33484087  0.00287976  0.66935872  1
  Ni  Ni38  1  0.50164214  0.16941953  0.83251545  1
  Ni  Ni39  1  0.49906801  0.49969163  0.50061986  1
  Ni  Ni40  1  0.33396044  0.33539192  0.66583526  1
  Ni  Ni41  1  0.50138637  0.50134444  0.83374179  1
  Cr  Cr42  1  0.50252084  0.83238352  0.49980492  1
  Ni  Ni43  1  0.33350349  0.66350784  0.66892895  1
  Fe  Fe44  1  0.50157026  0.83190448  0.83319149  1
  Cr  Cr45  1  0.83490676  0.16493791  0.50181423  1
  Ni  Ni46  1  0.66900694  0.00068303  0.66798019  1
  Ni  Ni47  1  0.83536748  0.16716658  0.83427959  1
  Ni  Ni48  1  0.83311681  0.50330482  0.50235862  1
  Fe  Fe49  1  0.66655358  0.33449799  0.66852023  1
  Ni  Ni50  1  0.83199655  0.49997281  0.83417849  1
  Ni  Ni51  1  0.83360836  0.83329504  0.50108114  1
  Fe  Fe52  1  0.66894401  0.66637855  0.66774358  1
  Ni  Ni53  1  0.83520833  0.83460612  0.83190260  1
" 