578,Ni63Fe12Cr23_8,-230.547832535933, 170.415503788139,Ni63Fe12Cr23,"# generated using pymatgen
 data_Cr7Fe3Ni17
_symmetry_space_group_name_H-M   'P 1'
_cell_length_a   7.46568636
_cell_length_b   7.46568636
_cell_length_c   10.55807490
_cell_angle_alpha   90.00000000
_cell_angle_beta   90.00000000
_cell_angle_gamma   90.00000000
_symmetry_Int_Tables_number   1
_chemical_formula_structural   Cr7Fe3Ni17
_chemical_formula_sum   'Cr14 Fe6 Ni34'
_cell_volume   588.46985462
_cell_formula_units_Z   2
loop_
 _symmetry_equiv_pos_site_id
 _symmetry_equiv_pos_as_xyz
  1  'x, y, z'
loop_
 _atom_site_type_symbol
 _atom_site_label
 _atom_site_symmetry_multiplicity
 _atom_site_fract_x
 _atom_site_fract_y
 _atom_site_fract_z
 _atom_site_occupancy
  Ni  Ni0  1  0.99909034  0.00068494  0.99831775  1
  Cr  Cr1  1  0.16538387  0.16590426  0.16691708  1
  Ni  Ni2  1  0.99711951  0.00256966  0.33549113  1
  Ni  Ni3  1  0.99915065  0.33470932  0.00033017  1
  Ni  Ni4  1  0.16496673  0.49937817  0.16388645  1
  Ni  Ni5  1  0.99701039  0.33369283  0.33430645  1
  Ni  Ni6  1  0.00033298  0.66478276  0.99822936  1
  Cr  Cr7  1  0.16667797  0.83407954  0.16594401  1
  Cr  Cr8  1  0.00037070  0.66319254  0.33306231  1
  Ni  Ni9  1  0.33471257  0.00034153  0.99841855  1
  Ni  Ni10  1  0.50272444  0.16609185  0.16461051  1
  Ni  Ni11  1  0.33573836  0.99915156  0.33393009  1
  Ni  Ni12  1  0.33263116  0.33286633  0.99907519  1
  Cr  Cr13  1  0.50203949  0.49922178  0.16593137  1
  Cr  Cr14  1  0.33303720  0.33589807  0.33386513  1
  Ni  Ni15  1  0.33153481  0.66671696  0.99909525  1
  Cr  Cr16  1  0.50024447  0.83472672  0.16742148  1
  Ni  Ni17  1  0.33457092  0.66659649  0.33547137  1
  Ni  Ni18  1  0.66653912  0.00150487  0.99790111  1
  Ni  Ni19  1  0.83201765  0.16792295  0.16694271  1
  Ni  Ni20  1  0.66726154  0.00154897  0.33450397  1
  Ni  Ni21  1  0.66857383  0.33180579  0.00101509  1
  Ni  Ni22  1  0.83368608  0.49722106  0.16502315  1
  Ni  Ni23  1  0.66974962  0.33270874  0.33269827  1
  Ni  Ni24  1  0.66844452  0.66678499  0.99960447  1
  Cr  Cr25  1  0.83354547  0.83432162  0.16544548  1
  Fe  Fe26  1  0.66694991  0.66605558  0.33519529  1
  Ni  Ni27  1  0.16540107  0.16826859  0.49854791  1
  Cr  Cr28  1  0.99751398  0.99948630  0.66661709  1
  Ni  Ni29  1  0.16729131  0.16687885  0.83538569  1
  Ni  Ni30  1  0.16692634  0.49909680  0.50224545  1
  Cr  Cr31  1  0.00108100  0.33494194  0.66564857  1
  Ni  Ni32  1  0.16588558  0.50034629  0.83383367  1
  Cr  Cr33  1  0.16637795  0.83440190  0.49868645  1
  Ni  Ni34  1  0.99935670  0.66589424  0.66818462  1
  Ni  Ni35  1  0.16604391  0.83307090  0.83533707  1
  Cr  Cr36  1  0.49967993  0.16691260  0.50019884  1
  Cr  Cr37  1  0.33487572  0.00009458  0.66823888  1
  Fe  Fe38  1  0.49925175  0.16713310  0.83529434  1
  Ni  Ni39  1  0.50140649  0.50256204  0.50058909  1
  Ni  Ni40  1  0.33202781  0.33540989  0.66665513  1
  Cr  Cr41  1  0.50099069  0.50006339  0.83320242  1
  Ni  Ni42  1  0.50344141  0.83170150  0.49997137  1
  Ni  Ni43  1  0.33304581  0.66557920  0.66596774  1
  Fe  Fe44  1  0.49992559  0.83183338  0.83397106  1
  Fe  Fe45  1  0.83323255  0.16660840  0.49780850  1
  Ni  Ni46  1  0.66717359  0.99724153  0.66839133  1
  Fe  Fe47  1  0.83476147  0.16780605  0.83603263  1
  Ni  Ni48  1  0.83201814  0.50175131  0.49961269  1
  Cr  Cr49  1  0.66765013  0.33252190  0.66657232  1
  Ni  Ni50  1  0.83351897  0.50188188  0.83519635  1
  Ni  Ni51  1  0.83031014  0.83307095  0.50119331  1
  Ni  Ni52  1  0.66774038  0.66863069  0.66499516  1
  Fe  Fe53  1  0.83389033  0.83125491  0.83391214  1
" 