4771,Ni63Fe30Cr6_16,-239.525237817349, 208.872159924556,Ni63Fe30Cr6,"# generated using pymatgen
 data_Cr2Fe8Ni17
_symmetry_space_group_name_H-M   'P 1'
_cell_length_a   7.42267440
_cell_length_b   7.42267440
_cell_length_c   10.49724681
_cell_angle_alpha   90.00000000
_cell_angle_beta   90.00000000
_cell_angle_gamma   90.00000000
_symmetry_Int_Tables_number   1
_chemical_formula_structural   Cr2Fe8Ni17
_chemical_formula_sum   'Cr4 Fe16 Ni34'
_cell_volume   578.35731063
_cell_formula_units_Z   2
loop_
 _symmetry_equiv_pos_site_id
 _symmetry_equiv_pos_as_xyz
  1  'x, y, z'
loop_
 _atom_site_type_symbol
 _atom_site_label
 _atom_site_symmetry_multiplicity
 _atom_site_fract_x
 _atom_site_fract_y
 _atom_site_fract_z
 _atom_site_occupancy
  Ni  Ni0  1  1.00280183  0.00398792  1.00254941  1
  Ni  Ni1  1  0.16955771  0.17036892  0.16956965  1
  Ni  Ni2  1  0.00403077  0.00327217  0.33699162  1
  Fe  Fe3  1  1.00260778  0.33650708  0.00446649  1
  Ni  Ni4  1  0.16985441  0.50018542  0.17068584  1
  Ni  Ni5  1  1.00279201  0.33576871  0.33597085  1
  Cr  Cr6  1  1.00170115  0.67049096  0.00438799  1
  Fe  Fe7  1  0.17029259  0.83738663  0.17170473  1
  Ni  Ni8  1  1.00202379  0.66995980  0.33701608  1
  Ni  Ni9  1  0.33542367  0.00332235  0.00460311  1
  Ni  Ni10  1  0.50161693  0.16857204  0.17046953  1
  Ni  Ni11  1  0.33585410  0.00431175  0.33716283  1
  Ni  Ni12  1  0.33737030  0.33648314  0.00391288  1
  Ni  Ni13  1  0.50325654  0.50357825  0.16765793  1
  Ni  Ni14  1  0.33652557  0.33425231  0.33638280  1
  Fe  Fe15  1  0.33723315  0.67049462  0.00309788  1
  Ni  Ni16  1  0.50555384  0.83680822  0.17002875  1
  Ni  Ni17  1  0.33607221  0.67051935  0.33402076  1
  Fe  Fe18  1  0.66959434  1.00090585  0.00360841  1
  Fe  Fe19  1  0.83627001  0.16964132  0.17096699  1
  Fe  Fe20  1  0.66975695  1.00291400  0.33757187  1
  Fe  Fe21  1  0.67109427  0.33677745  0.00490592  1
  Ni  Ni22  1  0.83619449  0.50434365  0.17200382  1
  Ni  Ni23  1  0.66954186  0.33588822  0.33563381  1
  Ni  Ni24  1  0.66977587  0.66819356  1.00165963  1
  Ni  Ni25  1  0.83462971  0.83682106  0.17019786  1
  Ni  Ni26  1  0.67104023  0.66932494  0.33620015  1
  Ni  Ni27  1  0.16910095  0.17043183  0.50359486  1
  Fe  Fe28  1  1.00212906  0.99977930  0.66775137  1
  Cr  Cr29  1  0.16861257  0.17011970  0.83447403  1
  Ni  Ni30  1  0.16792720  0.50321899  0.50256943  1
  Fe  Fe31  1  1.00193360  0.33797570  0.66771774  1
  Ni  Ni32  1  0.16831891  0.50272701  0.83617429  1
  Ni  Ni33  1  0.16934519  0.83533359  0.50317501  1
  Ni  Ni34  1  1.00240579  0.66840486  0.66897499  1
  Fe  Fe35  1  0.17106962  0.83577026  0.83493867  1
  Ni  Ni36  1  0.50310465  0.16787300  0.50302491  1
  Ni  Ni37  1  0.33703488  1.00207281  0.66709262  1
  Cr  Cr38  1  0.50301260  0.16719668  0.83559348  1
  Cr  Cr39  1  0.50180626  0.50561643  0.50309910  1
  Fe  Fe40  1  0.33565306  0.33806756  0.66842224  1
  Fe  Fe41  1  0.50258314  0.50422818  0.83702122  1
  Ni  Ni42  1  0.50399041  0.83717200  0.50293681  1
  Ni  Ni43  1  0.33547587  0.67139650  0.67246467  1
  Ni  Ni44  1  0.50461294  0.83566782  0.83641408  1
  Ni  Ni45  1  0.83686272  0.16850312  0.50325505  1
  Ni  Ni46  1  0.66951417  1.00268636  0.66899635  1
  Fe  Fe47  1  0.83625030  0.17003786  0.83518164  1
  Fe  Fe48  1  0.83740822  0.50333684  0.50226598  1
  Fe  Fe49  1  0.67110713  0.33646308  0.66832138  1
  Ni  Ni50  1  0.83687184  0.50294966  0.83468601  1
  Ni  Ni51  1  0.83565294  0.83592569  0.50360127  1
  Ni  Ni52  1  0.67127577  0.67066655  0.67078100  1
  Fe  Fe53  1  0.83588185  0.83670660  0.83545185  1
" 