7320,Ni63Fe12Cr23_0,-230.631434829563, 170.880770278406,Ni63Fe12Cr23,"# generated using pymatgen
 data_Cr7Fe3Ni17
_symmetry_space_group_name_H-M   'P 1'
_cell_length_a   7.46396699
_cell_length_b   7.46396699
_cell_length_c   10.55564334
_cell_angle_alpha   90.00000000
_cell_angle_beta   90.00000000
_cell_angle_gamma   90.00000000
_symmetry_Int_Tables_number   1
_chemical_formula_structural   Cr7Fe3Ni17
_chemical_formula_sum   'Cr14 Fe6 Ni34'
_cell_volume   588.06336894
_cell_formula_units_Z   2
loop_
 _symmetry_equiv_pos_site_id
 _symmetry_equiv_pos_as_xyz
  1  'x, y, z'
loop_
 _atom_site_type_symbol
 _atom_site_label
 _atom_site_symmetry_multiplicity
 _atom_site_fract_x
 _atom_site_fract_y
 _atom_site_fract_z
 _atom_site_occupancy
  Fe  Fe0  1  0.99972713  0.00224128  0.00128992  1
  Ni  Ni1  1  0.16476943  0.16693642  0.16502436  1
  Ni  Ni2  1  0.99944917  1.00017194  0.33430696  1
  Ni  Ni3  1  0.00238497  0.33504121  0.00075197  1
  Ni  Ni4  1  0.16447729  0.50020023  0.16539624  1
  Ni  Ni5  1  0.99985503  0.33344206  0.33500466  1
  Ni  Ni6  1  0.99864165  0.66555885  0.99939743  1
  Cr  Cr7  1  0.16662926  0.83180703  0.16685273  1
  Ni  Ni8  1  1.00003154  0.66709755  0.33548622  1
  Ni  Ni9  1  0.33356174  0.00361633  0.00211004  1
  Ni  Ni10  1  0.50243509  0.16512058  0.16516370  1
  Ni  Ni11  1  0.33288352  1.00009530  0.33435894  1
  Ni  Ni12  1  0.33088560  0.33265539  1.00006542  1
  Cr  Cr13  1  0.50053334  0.50022885  0.16511417  1
  Cr  Cr14  1  0.33142598  0.33181554  0.33227309  1
  Ni  Ni15  1  0.33196378  0.66409505  0.99954196  1
  Cr  Cr16  1  0.49989324  0.83451841  0.16810773  1
  Fe  Fe17  1  0.33134107  0.66693454  0.33623955  1
  Ni  Ni18  1  0.66831409  0.99946757  0.00228718  1
  Ni  Ni19  1  0.83329332  0.16683139  0.16738723  1
  Ni  Ni20  1  0.66828934  0.00025118  0.33395893  1
  Ni  Ni21  1  0.66703221  0.33317263  0.00077181  1
  Cr  Cr22  1  0.83596003  0.49846342  0.16819681  1
  Ni  Ni23  1  0.66871890  0.33189113  0.33430676  1
  Ni  Ni24  1  0.66994919  0.66785362  0.99825273  1
  Fe  Fe25  1  0.83449196  0.83530988  0.16753266  1
  Fe  Fe26  1  0.66893969  0.66756736  0.33648487  1
  Ni  Ni27  1  0.16198837  0.16663427  0.50112784  1
  Ni  Ni28  1  0.99869644  0.00148581  0.66489997  1
  Ni  Ni29  1  0.16512526  0.16987718  0.83429497  1
  Ni  Ni30  1  0.16601723  0.50089129  0.50030484  1
  Ni  Ni31  1  0.00355385  0.33351978  0.66493307  1
  Ni  Ni32  1  0.16569104  0.49870902  0.83483246  1
  Ni  Ni33  1  0.16698487  0.83321114  0.49864725  1
  Cr  Cr34  1  1.00005389  0.66599980  0.66639476  1
  Cr  Cr35  1  0.16723069  0.83360043  0.83493294  1
  Cr  Cr36  1  0.50261278  0.16599809  0.49994725  1
  Cr  Cr37  1  0.33140126  0.00086638  0.66369623  1
  Cr  Cr38  1  0.49946394  0.16680589  0.83501473  1
  Ni  Ni39  1  0.49963544  0.50355678  0.50053460  1
  Ni  Ni40  1  0.32890201  0.33721169  0.66783827  1
  Fe  Fe41  1  0.49745686  0.49939019  0.83515545  1
  Ni  Ni42  1  0.49988406  0.83150909  0.49841280  1
  Ni  Ni43  1  0.33300083  0.66295441  0.66427415  1
  Cr  Cr44  1  0.49995863  0.83280825  0.83424431  1
  Ni  Ni45  1  0.83658717  0.16653308  0.49957657  1
  Ni  Ni46  1  0.67066112  0.99764674  0.66442897  1
  Cr  Cr47  1  0.83598326  0.16815611  0.83223901  1
  Ni  Ni48  1  0.83481061  0.49855353  0.49747697  1
  Cr  Cr49  1  0.66778343  0.33548569  0.66543126  1
  Ni  Ni50  1  0.83544549  0.49950696  0.83650848  1
  Ni  Ni51  1  0.83373992  0.83563664  0.49905737  1
  Cr  Cr52  1  0.66759682  0.66786825  0.66667711  1
  Fe  Fe53  1  0.83500096  0.83434257  0.83459804  1
" 