8394,Ni63Fe30Cr6_9,-239.35351235129, 207.914879543189,Ni63Fe30Cr6,"# generated using pymatgen
 data_Cr2Fe8Ni17
_symmetry_space_group_name_H-M   'P 1'
_cell_length_a   7.42049928
_cell_length_b   7.42049928
_cell_length_c   10.49417072
_cell_angle_alpha   90.00000000
_cell_angle_beta   90.00000000
_cell_angle_gamma   90.00000000
_symmetry_Int_Tables_number   1
_chemical_formula_structural   Cr2Fe8Ni17
_chemical_formula_sum   'Cr4 Fe16 Ni34'
_cell_volume   577.84901715
_cell_formula_units_Z   2
loop_
 _symmetry_equiv_pos_site_id
 _symmetry_equiv_pos_as_xyz
  1  'x, y, z'
loop_
 _atom_site_type_symbol
 _atom_site_label
 _atom_site_symmetry_multiplicity
 _atom_site_fract_x
 _atom_site_fract_y
 _atom_site_fract_z
 _atom_site_occupancy
  Ni  Ni0  1  0.00338986  0.00484396  0.00539486  1
  Fe  Fe1  1  0.17105819  0.17102093  0.16966832  1
  Fe  Fe2  1  0.00510698  0.00414943  0.33671277  1
  Ni  Ni3  1  1.00204957  0.33595945  0.00343973  1
  Fe  Fe4  1  0.17110461  0.50162736  0.17218424  1
  Fe  Fe5  1  0.00317981  0.33722678  0.33710466  1
  Cr  Cr6  1  0.00512283  0.66790238  1.00284804  1
  Ni  Ni7  1  0.17048434  0.83804044  0.17255232  1
  Ni  Ni8  1  0.00333098  0.66958555  0.33614218  1
  Ni  Ni9  1  0.33748774  1.00283765  0.00481531  1
  Ni  Ni10  1  0.50276242  0.17055967  0.16957942  1
  Fe  Fe11  1  0.33588301  1.00237288  0.33698517  1
  Fe  Fe12  1  0.33723790  0.33413744  1.00280968  1
  Ni  Ni13  1  0.50526403  0.50325967  0.17133408  1
  Ni  Ni14  1  0.33765505  0.33639632  0.33502248  1
  Cr  Cr15  1  0.33589452  0.66811209  1.00066185  1
  Ni  Ni16  1  0.50018071  0.83506306  0.16945026  1
  Ni  Ni17  1  0.33475033  0.66793597  0.33813805  1
  Ni  Ni18  1  0.66819341  0.00677513  1.00300615  1
  Ni  Ni19  1  0.83835098  0.17302350  0.16949711  1
  Cr  Cr20  1  0.66987000  0.00637934  0.33777986  1
  Ni  Ni21  1  0.66967362  0.33472449  0.00368907  1
  Ni  Ni22  1  0.83589831  0.50206159  0.17058168  1
  Fe  Fe23  1  0.66987569  0.33858078  0.33698239  1
  Fe  Fe24  1  0.66927591  0.66880894  1.00290640  1
  Fe  Fe25  1  0.83422204  0.83726096  0.16946075  1
  Fe  Fe26  1  0.66822562  0.66871940  0.33789982  1
  Ni  Ni27  1  0.17034516  0.16959292  0.50189641  1
  Ni  Ni28  1  0.00385304  0.00436135  0.66812192  1
  Ni  Ni29  1  0.16920000  0.16766181  0.83789299  1
  Fe  Fe30  1  0.17053870  0.50044298  0.50275537  1
  Ni  Ni31  1  0.00411925  0.33704010  0.66954395  1
  Fe  Fe32  1  0.16996951  0.50031629  0.83392233  1
  Fe  Fe33  1  0.16834643  0.83687366  0.50313319  1
  Ni  Ni34  1  0.00439913  0.66796681  0.66901462  1
  Ni  Ni35  1  0.17160869  0.84035044  0.83292333  1
  Ni  Ni36  1  0.50092231  0.16957062  0.50375610  1
  Ni  Ni37  1  0.33728030  0.00439051  0.66839598  1
  Ni  Ni38  1  0.50201173  0.16991409  0.83613641  1
  Fe  Fe39  1  0.50273861  0.50015313  0.50330489  1
  Ni  Ni40  1  0.33634858  0.33509432  0.67099227  1
  Ni  Ni41  1  0.50629157  0.50185007  0.83452699  1
  Ni  Ni42  1  0.49997013  0.83446889  0.50447960  1
  Fe  Fe43  1  0.33712217  0.66941549  0.66991106  1
  Ni  Ni44  1  0.50074202  0.83711346  0.83580994  1
  Ni  Ni45  1  0.83862005  0.17367332  0.50532263  1
  Ni  Ni46  1  0.66783259  0.00495297  0.66975904  1
  Ni  Ni47  1  0.83792830  0.17317161  0.83513121  1
  Ni  Ni48  1  0.83733702  0.50373916  0.50306427  1
  Ni  Ni49  1  0.66918179  0.33527346  0.66800045  1
  Ni  Ni50  1  0.83511480  0.49985089  0.83530867  1
  Fe  Fe51  1  0.83612400  0.83761500  0.50508634  1
  Ni  Ni52  1  0.66987428  0.66903682  0.66860023  1
  Cr  Cr53  1  0.83602072  0.83811399  0.83593246  1
" 