928,Ni63Fe26Cr10_8,-238.035696796638, 204.605465329611,Ni63Fe26Cr10,"# generated using pymatgen
 data_Cr3Fe7Ni17
_symmetry_space_group_name_H-M   'P 1'
_cell_length_a   7.42851972
_cell_length_b   7.42851972
_cell_length_c   10.50551334
_cell_angle_alpha   90.00000000
_cell_angle_beta   90.00000000
_cell_angle_gamma   90.00000000
_symmetry_Int_Tables_number   1
_chemical_formula_structural   Cr3Fe7Ni17
_chemical_formula_sum   'Cr6 Fe14 Ni34'
_cell_volume   579.72474708
_cell_formula_units_Z   2
loop_
 _symmetry_equiv_pos_site_id
 _symmetry_equiv_pos_as_xyz
  1  'x, y, z'
loop_
 _atom_site_type_symbol
 _atom_site_label
 _atom_site_symmetry_multiplicity
 _atom_site_fract_x
 _atom_site_fract_y
 _atom_site_fract_z
 _atom_site_occupancy
  Ni  Ni0  1  0.00364251  0.00349186  1.00255604  1
  Ni  Ni1  1  0.16885919  0.16890258  0.16905690  1
  Ni  Ni2  1  0.00268206  0.00445690  0.33463124  1
  Ni  Ni3  1  1.00220717  0.33602366  1.00163704  1
  Ni  Ni4  1  0.17291361  0.50129243  0.16819733  1
  Fe  Fe5  1  0.00331202  0.33523918  0.33539685  1
  Ni  Ni6  1  0.00399049  0.66799134  0.00388428  1
  Fe  Fe7  1  0.16898328  0.83654216  0.16888155  1
  Fe  Fe8  1  0.00275398  0.66684712  0.33389145  1
  Ni  Ni9  1  0.33599153  1.00211572  1.00233752  1
  Fe  Fe10  1  0.50254055  0.17036265  0.16975956  1
  Ni  Ni11  1  0.33653085  0.00363367  0.33641216  1
  Fe  Fe12  1  0.33492388  0.33473907  0.00390434  1
  Ni  Ni13  1  0.50227453  0.50342378  0.16933220  1
  Ni  Ni14  1  0.33613349  0.33654772  0.33574516  1
  Ni  Ni15  1  0.33455521  0.67061631  1.00243102  1
  Fe  Fe16  1  0.50206183  0.83605499  0.17022029  1
  Ni  Ni17  1  0.33626816  0.66781512  0.33615562  1
  Ni  Ni18  1  0.66793309  0.00407519  0.00382001  1
  Ni  Ni19  1  0.83690900  0.16704381  0.16838873  1
  Ni  Ni20  1  0.66856330  0.00384124  0.33542442  1
  Ni  Ni21  1  0.67056575  0.33442318  0.00345106  1
  Fe  Fe22  1  0.83592002  0.50127725  0.16862973  1
  Ni  Ni23  1  0.66887162  0.33576892  0.33652842  1
  Ni  Ni24  1  0.66866994  0.66920393  0.00377656  1
  Ni  Ni25  1  0.83496089  0.83713652  0.16892874  1
  Ni  Ni26  1  0.66777301  0.66807193  0.33597498  1
  Ni  Ni27  1  0.16859434  0.17098430  0.50249823  1
  Ni  Ni28  1  0.00429679  0.00588986  0.67037072  1
  Ni  Ni29  1  0.16887177  0.16877087  0.83598272  1
  Ni  Ni30  1  0.17182532  0.49914335  0.50218101  1
  Ni  Ni31  1  1.00239981  0.33513492  0.66877518  1
  Fe  Fe32  1  0.16731979  0.50083481  0.83728287  1
  Cr  Cr33  1  0.17059076  0.83884582  0.50061886  1
  Cr  Cr34  1  0.00406016  0.66636180  0.66970781  1
  Ni  Ni35  1  0.17129410  0.83835647  0.83739626  1
  Fe  Fe36  1  0.50168812  0.17099371  0.50096006  1
  Fe  Fe37  1  0.33459252  0.00544448  0.66987014  1
  Fe  Fe38  1  0.50264679  0.16965739  0.83713185  1
  Ni  Ni39  1  0.50203078  0.50274218  0.50249180  1
  Ni  Ni40  1  0.33527605  0.33577260  0.66894010  1
  Cr  Cr41  1  0.50245009  0.50206058  0.83676286  1
  Ni  Ni42  1  0.50180951  0.83348325  0.50266159  1
  Fe  Fe43  1  0.33664428  0.66875801  0.66903241  1
  Fe  Fe44  1  0.50130246  0.83754888  0.83707161  1
  Ni  Ni45  1  0.83828546  0.17102704  0.50205886  1
  Cr  Cr46  1  0.66807977  0.00535724  0.66878355  1
  Ni  Ni47  1  0.83781504  0.17111937  0.83672459  1
  Ni  Ni48  1  0.83383408  0.49925681  0.50109955  1
  Ni  Ni49  1  0.66961293  0.33554441  0.66796982  1
  Ni  Ni50  1  0.83372421  0.49966779  0.83754407  1
  Cr  Cr51  1  0.83472511  0.83767159  0.50079497  1
  Fe  Fe52  1  0.66893003  0.66605227  0.66819423  1
  Cr  Cr53  1  0.83654401  0.83661700  0.83777609  1
" 