1407,Ni63Fe26Cr10_2,-237.665780632861, 202.233942446288,Ni63Fe26Cr10,"# generated using pymatgen
 data_Cr3Fe7Ni17
_symmetry_space_group_name_H-M   'P 1'
_cell_length_a   7.43083899
_cell_length_b   7.43083899
_cell_length_c   10.50879327
_cell_angle_alpha   90.00000000
_cell_angle_beta   90.00000000
_cell_angle_gamma   90.00000000
_symmetry_Int_Tables_number   1
_chemical_formula_structural   Cr3Fe7Ni17
_chemical_formula_sum   'Cr6 Fe14 Ni34'
_cell_volume   580.26790587
_cell_formula_units_Z   2
loop_
 _symmetry_equiv_pos_site_id
 _symmetry_equiv_pos_as_xyz
  1  'x, y, z'
loop_
 _atom_site_type_symbol
 _atom_site_label
 _atom_site_symmetry_multiplicity
 _atom_site_fract_x
 _atom_site_fract_y
 _atom_site_fract_z
 _atom_site_occupancy
  Ni  Ni0  1  0.00279114  0.00284782  0.00375126  1
  Fe  Fe1  1  0.16990056  0.16905212  0.16777835  1
  Ni  Ni2  1  1.00172654  1.00061655  0.33572129  1
  Ni  Ni3  1  1.00033302  0.33530244  0.00278287  1
  Fe  Fe4  1  0.17118491  0.50296581  0.16866938  1
  Cr  Cr5  1  0.00355523  0.33470351  0.33721782  1
  Fe  Fe6  1  1.00227422  0.66885248  1.00178880  1
  Fe  Fe7  1  0.16804462  0.83529201  0.16878094  1
  Ni  Ni8  1  1.00232314  0.67179820  0.33521453  1
  Ni  Ni9  1  0.33515233  1.00166583  1.00154553  1
  Ni  Ni10  1  0.50209596  0.17145163  0.16735167  1
  Cr  Cr11  1  0.33441726  0.00298172  0.33820291  1
  Fe  Fe12  1  0.33625052  0.33564440  0.00405759  1
  Ni  Ni13  1  0.50105335  0.50144881  0.16878402  1
  Ni  Ni14  1  0.33666207  0.33706335  0.33485744  1
  Ni  Ni15  1  0.33537669  0.67030237  0.00266082  1
  Cr  Cr16  1  0.50388974  0.83430012  0.16899661  1
  Ni  Ni17  1  0.33586866  0.66751701  0.33666456  1
  Fe  Fe18  1  0.66962489  0.00365759  1.00090355  1
  Fe  Fe19  1  0.83527671  0.16807782  0.16725453  1
  Fe  Fe20  1  0.67110808  1.00126627  0.33753256  1
  Ni  Ni21  1  0.67051263  0.33553102  0.00289005  1
  Fe  Fe22  1  0.83425587  0.50367266  0.16696339  1
  Cr  Cr23  1  0.66694946  0.33645902  0.33690118  1
  Ni  Ni24  1  0.66932840  0.66784348  1.00233469  1
  Fe  Fe25  1  0.83643372  0.83555804  0.16950771  1
  Ni  Ni26  1  0.66911868  0.66942809  0.33689384  1
  Ni  Ni27  1  0.16851587  0.16973959  0.50309008  1
  Ni  Ni28  1  1.00149287  1.00232438  0.66783197  1
  Cr  Cr29  1  0.16886120  0.17014105  0.83491982  1
  Ni  Ni30  1  0.17086260  0.50296225  0.50259126  1
  Ni  Ni31  1  1.00138955  0.33579030  0.66832115  1
  Ni  Ni32  1  0.16747047  0.50399491  0.83647330  1
  Ni  Ni33  1  0.16738108  0.83460694  0.50264587  1
  Ni  Ni34  1  0.00288840  0.66919532  0.66986295  1
  Fe  Fe35  1  0.16842782  0.83431681  0.83566437  1
  Ni  Ni36  1  0.50238554  0.16977907  0.50344003  1
  Fe  Fe37  1  0.33684795  1.00205449  0.66814332  1
  Ni  Ni38  1  0.50403435  0.16763904  0.83651763  1
  Ni  Ni39  1  0.50048485  0.50337297  0.50179005  1
  Ni  Ni40  1  0.33598723  0.33586743  0.66732064  1
  Cr  Cr41  1  0.50205849  0.50208650  0.83601490  1
  Ni  Ni42  1  0.50393101  0.83415732  0.50299514  1
  Ni  Ni43  1  0.33519250  0.66982339  0.66798392  1
  Fe  Fe44  1  0.50313195  0.83675478  0.83570798  1
  Ni  Ni45  1  0.83640932  0.16629159  0.50380960  1
  Ni  Ni46  1  0.66930454  0.00311781  0.66941493  1
  Ni  Ni47  1  0.83457488  0.16813018  0.83646004  1
  Fe  Fe48  1  0.83569683  0.50424309  0.50454572  1
  Ni  Ni49  1  0.66993250  0.33447037  0.66859040  1
  Ni  Ni50  1  0.83765972  0.50340074  0.83593465  1
  Ni  Ni51  1  0.83599796  0.83650480  0.50072782  1
  Ni  Ni52  1  0.66922841  0.66972095  0.66807929  1
  Ni  Ni53  1  0.83590797  0.83577803  0.83667957  1
" 