6895,Ni63Fe26Cr10_0,-237.928080529516, 208.048107691161,Ni63Fe26Cr10,"# generated using pymatgen
 data_Cr3Fe7Ni17
_symmetry_space_group_name_H-M   'P 1'
_cell_length_a   7.42591849
_cell_length_b   7.42591849
_cell_length_c   10.50183464
_cell_angle_alpha   90.00000000
_cell_angle_beta   90.00000000
_cell_angle_gamma   90.00000000
_symmetry_Int_Tables_number   1
_chemical_formula_structural   Cr3Fe7Ni17
_chemical_formula_sum   'Cr6 Fe14 Ni34'
_cell_volume   579.11595644
_cell_formula_units_Z   2
loop_
 _symmetry_equiv_pos_site_id
 _symmetry_equiv_pos_as_xyz
  1  'x, y, z'
loop_
 _atom_site_type_symbol
 _atom_site_label
 _atom_site_symmetry_multiplicity
 _atom_site_fract_x
 _atom_site_fract_y
 _atom_site_fract_z
 _atom_site_occupancy
  Cr  Cr0  1  1.00217746  0.00437720  1.00244456  1
  Ni  Ni1  1  0.16990076  0.16969724  0.16949608  1
  Ni  Ni2  1  1.00191928  0.00299993  0.33532496  1
  Ni  Ni3  1  1.00242584  0.33661907  1.00200247  1
  Fe  Fe4  1  0.16851056  0.50188107  0.16831573  1
  Ni  Ni5  1  1.00154160  0.33481729  0.33566166  1
  Ni  Ni6  1  0.00406452  0.66696064  0.00439163  1
  Ni  Ni7  1  0.17053623  0.83672356  0.16934509  1
  Fe  Fe8  1  1.00078034  0.66843754  0.33668353  1
  Ni  Ni9  1  0.33735938  1.00217084  0.00484452  1
  Fe  Fe10  1  0.50299842  0.16972707  0.16954884  1
  Fe  Fe11  1  0.33678578  0.00402332  0.33530671  1
  Fe  Fe12  1  0.33481179  0.33691276  0.00337979  1
  Ni  Ni13  1  0.50406179  0.50166891  0.16937414  1
  Ni  Ni14  1  0.33711391  0.33552167  0.33484683  1
  Ni  Ni15  1  0.33603075  0.66921416  1.00259878  1
  Ni  Ni16  1  0.50187625  0.83730287  0.16848194  1
  Cr  Cr17  1  0.33724621  0.66901096  0.33756750  1
  Ni  Ni18  1  0.66851843  0.00380923  0.00335180  1
  Ni  Ni19  1  0.83567575  0.17188238  0.17034789  1
  Fe  Fe20  1  0.66951575  0.00334627  0.33590389  1
  Ni  Ni21  1  0.67077101  0.33528732  0.00373707  1
  Ni  Ni22  1  0.83625581  0.50103242  0.16966734  1
  Ni  Ni23  1  0.66965207  0.33668847  0.33647648  1
  Cr  Cr24  1  0.66862759  0.66959575  1.00226749  1
  Fe  Fe25  1  0.83618193  0.83607523  0.17094408  1
  Ni  Ni26  1  0.67020541  0.66884930  0.33612902  1
  Cr  Cr27  1  0.17069172  0.16971801  0.50364979  1
  Ni  Ni28  1  1.00160843  0.00294539  0.67001121  1
  Ni  Ni29  1  0.16848414  0.17279788  0.83541810  1
  Ni  Ni30  1  0.16763350  0.50354956  0.50292132  1
  Fe  Fe31  1  0.00339434  0.33757271  0.67063833  1
  Ni  Ni32  1  0.16874065  0.50107533  0.83716779  1
  Ni  Ni33  1  0.16895422  0.83490756  0.50403228  1
  Ni  Ni34  1  1.00165479  0.66993511  0.66784288  1
  Cr  Cr35  1  0.17083817  0.83487878  0.83475972  1
  Ni  Ni36  1  0.50367707  0.16905068  0.50160927  1
  Ni  Ni37  1  0.33569220  1.00214550  0.66798208  1
  Cr  Cr38  1  0.50254702  0.16801805  0.83789906  1
  Fe  Fe39  1  0.50337546  0.50266816  0.50297509  1
  Ni  Ni40  1  0.33610667  0.33754036  0.66955946  1
  Fe  Fe41  1  0.50160991  0.50380231  0.83561718  1
  Ni  Ni42  1  0.50374923  0.83753097  0.50433670  1
  Ni  Ni43  1  0.33775601  0.66862449  0.66876967  1
  Ni  Ni44  1  0.50398620  0.83557908  0.83549190  1
  Fe  Fe45  1  0.83506244  0.16889723  0.50218356  1
  Fe  Fe46  1  0.66964289  1.00051505  0.66934966  1
  Ni  Ni47  1  0.83661935  0.17061795  0.83488527  1
  Ni  Ni48  1  0.83639985  0.50362084  0.50276315  1
  Fe  Fe49  1  0.66985295  0.33701001  0.66846338  1
  Fe  Fe50  1  0.83757312  0.50223843  0.83570372  1
  Ni  Ni51  1  0.83559997  0.83431154  0.50210584  1
  Ni  Ni52  1  0.66889614  0.66951843  0.66969584  1
  Ni  Ni53  1  0.83385086  0.83584007  0.83526986  1
" 