8715,Ni63Fe14Cr22_14,-231.253805328883, 175.680535763978,Ni63Fe14Cr22,"# generated using pymatgen
 data_Cr13Fe7Ni34
_symmetry_space_group_name_H-M   'P 1'
_cell_length_a   7.45825928
_cell_length_b   7.45825928
_cell_length_c   10.54757142
_cell_angle_alpha   90.00000000
_cell_angle_beta   90.00000000
_cell_angle_gamma   90.00000000
_symmetry_Int_Tables_number   1
_chemical_formula_structural   Cr13Fe7Ni34
_chemical_formula_sum   'Cr13 Fe7 Ni34'
_cell_volume   586.71532047
_cell_formula_units_Z   1
loop_
 _symmetry_equiv_pos_site_id
 _symmetry_equiv_pos_as_xyz
  1  'x, y, z'
loop_
 _atom_site_type_symbol
 _atom_site_label
 _atom_site_symmetry_multiplicity
 _atom_site_fract_x
 _atom_site_fract_y
 _atom_site_fract_z
 _atom_site_occupancy
  Cr  Cr0  1  1.00005260  0.99983747  0.99971574  1
  Cr  Cr1  1  0.16736126  0.16608949  0.16957492  1
  Fe  Fe2  1  1.00015611  0.00112934  0.33474232  1
  Ni  Ni3  1  0.99766277  0.33329133  0.00073583  1
  Cr  Cr4  1  0.16694044  0.50164527  0.16641231  1
  Fe  Fe5  1  0.00068744  0.33260059  0.33570319  1
  Fe  Fe6  1  0.99908799  0.66774039  0.00083336  1
  Ni  Ni7  1  0.16975190  0.83367748  0.16694171  1
  Cr  Cr8  1  0.99934101  0.66849341  0.33417018  1
  Fe  Fe9  1  0.33698282  0.99839047  0.99986013  1
  Ni  Ni10  1  0.50284962  0.16495955  0.16694298  1
  Ni  Ni11  1  0.33414941  1.00054051  0.33367562  1
  Cr  Cr12  1  0.33577541  0.33298589  0.00068455  1
  Ni  Ni13  1  0.50301930  0.50312401  0.16717751  1
  Ni  Ni14  1  0.33388622  0.33327502  0.33569104  1
  Ni  Ni15  1  0.33484736  0.67055515  0.00136208  1
  Ni  Ni16  1  0.50055607  0.83368357  0.16674181  1
  Ni  Ni17  1  0.33552253  0.66795083  0.33499112  1
  Ni  Ni18  1  0.66670419  1.00047168  1.00003751  1
  Ni  Ni19  1  0.83222971  0.16819600  0.16650551  1
  Ni  Ni20  1  0.66720783  0.99940911  0.33404655  1
  Ni  Ni21  1  0.66882070  0.33267901  0.00211659  1
  Ni  Ni22  1  0.83223007  0.50006824  0.16492289  1
  Cr  Cr23  1  0.66607027  0.33441667  0.33342095  1
  Ni  Ni24  1  0.66666673  0.66861501  0.00312634  1
  Fe  Fe25  1  0.83090729  0.83396755  0.16725980  1
  Ni  Ni26  1  0.66595727  0.66895978  0.33346550  1
  Ni  Ni27  1  0.16615985  0.16939312  0.49775658  1
  Cr  Cr28  1  0.99900034  1.00002262  0.66701492  1
  Ni  Ni29  1  0.16674611  0.16615861  0.83500572  1
  Ni  Ni30  1  0.16691995  0.49979014  0.50146409  1
  Ni  Ni31  1  0.99908654  0.33415007  0.66550571  1
  Cr  Cr32  1  0.16483519  0.50180597  0.83372904  1
  Fe  Fe33  1  0.16842393  0.83260455  0.49991758  1
  Ni  Ni34  1  0.00226710  0.66716274  0.66701012  1
  Ni  Ni35  1  0.16816338  0.83368367  0.83433910  1
  Ni  Ni36  1  0.50112073  0.16589627  0.50009851  1
  Cr  Cr37  1  0.33517312  0.99935394  0.66891238  1
  Ni  Ni38  1  0.50252388  0.16352089  0.83472976  1
  Ni  Ni39  1  0.49918476  0.50210636  0.49981663  1
  Cr  Cr40  1  0.33458925  0.33421236  0.66556379  1
  Cr  Cr41  1  0.50168139  0.50147483  0.83417554  1
  Ni  Ni42  1  0.50132298  0.83376526  0.49942418  1
  Ni  Ni43  1  0.33166974  0.66819621  0.66540954  1
  Ni  Ni44  1  0.50053326  0.83689169  0.83560307  1
  Ni  Ni45  1  0.83448523  0.16725089  0.50183099  1
  Ni  Ni46  1  0.66800187  0.00242872  0.66768524  1
  Fe  Fe47  1  0.83213897  0.16657001  0.83400420  1
  Ni  Ni48  1  0.83566233  0.49999440  0.50211380  1
  Ni  Ni49  1  0.66903537  0.33081439  0.66634428  1
  Cr  Cr50  1  0.83525069  0.49991973  0.83427970  1
  Ni  Ni51  1  0.83216850  0.83452282  0.49963914  1
  Cr  Cr52  1  0.66717488  0.66853737  0.66459076  1
  Ni  Ni53  1  0.83307143  0.83483457  0.83499266  1
" 