2173,Ni63Fe13Cr23_17,-231.729429099968, 176.616143133245,Ni63Fe13Cr23,"# generated using pymatgen
 data_Cr13Fe7Ni34
_symmetry_space_group_name_H-M   'P 1'
_cell_length_a   7.45579016
_cell_length_b   7.45579016
_cell_length_c   10.54407956
_cell_angle_alpha   90.00000000
_cell_angle_beta   90.00000000
_cell_angle_gamma   90.00000000
_symmetry_Int_Tables_number   1
_chemical_formula_structural   Cr13Fe7Ni34
_chemical_formula_sum   'Cr13 Fe7 Ni34'
_cell_volume   586.13280180
_cell_formula_units_Z   1
loop_
 _symmetry_equiv_pos_site_id
 _symmetry_equiv_pos_as_xyz
  1  'x, y, z'
loop_
 _atom_site_type_symbol
 _atom_site_label
 _atom_site_symmetry_multiplicity
 _atom_site_fract_x
 _atom_site_fract_y
 _atom_site_fract_z
 _atom_site_occupancy
  Fe  Fe0  1  1.00023381  0.00228309  0.00107896  1
  Ni  Ni1  1  0.16440862  0.16785360  0.16703137  1
  Ni  Ni2  1  0.00109469  1.00031706  0.33160681  1
  Ni  Ni3  1  0.99940395  0.33465948  0.99955525  1
  Ni  Ni4  1  0.16868694  0.50228815  0.16810221  1
  Cr  Cr5  1  0.00077214  0.33203920  0.33535413  1
  Ni  Ni6  1  0.00110298  0.66633450  1.00045742  1
  Ni  Ni7  1  0.16399939  0.83227337  0.16741148  1
  Fe  Fe8  1  0.00191779  0.66776383  0.33364939  1
  Cr  Cr9  1  0.33208616  1.00065509  0.00093006  1
  Cr  Cr10  1  0.50152164  0.17356891  0.16905313  1
  Cr  Cr11  1  0.33105630  1.00054971  0.33514860  1
  Cr  Cr12  1  0.33213747  0.33648785  0.99947454  1
  Ni  Ni13  1  0.50003983  0.50102392  0.16770965  1
  Ni  Ni14  1  0.33372826  0.33737738  0.33479727  1
  Ni  Ni15  1  0.33204587  0.66519934  0.00187205  1
  Cr  Cr16  1  0.50085020  0.82931667  0.16785090  1
  Ni  Ni17  1  0.33351691  0.66534635  0.33440936  1
  Cr  Cr18  1  0.67094145  0.00187406  0.99974155  1
  Ni  Ni19  1  0.83671390  0.16732649  0.16708445  1
  Cr  Cr20  1  0.67105550  0.00187247  0.33591835  1
  Ni  Ni21  1  0.67035962  0.33484864  0.99955408  1
  Cr  Cr22  1  0.83217218  0.50048199  0.16754959  1
  Ni  Ni23  1  0.66747161  0.33634042  0.33539441  1
  Fe  Fe24  1  0.66858004  0.66463196  0.99956348  1
  Ni  Ni25  1  0.83809264  0.83334226  0.16695071  1
  Ni  Ni26  1  0.66633771  0.66555365  0.33383982  1
  Ni  Ni27  1  0.16767517  0.16600220  0.50221503  1
  Ni  Ni28  1  1.00052377  0.00289944  0.66837009  1
  Ni  Ni29  1  0.16617233  0.16887561  0.83253330  1
  Fe  Fe30  1  0.16711054  0.49871999  0.50117977  1
  Ni  Ni31  1  0.99968003  0.33315287  0.66792936  1
  Ni  Ni32  1  0.16580268  0.49910462  0.83334975  1
  Ni  Ni33  1  0.16634478  0.83469798  0.50007544  1
  Fe  Fe34  1  0.99985027  0.66476589  0.66827032  1
  Cr  Cr35  1  0.16467211  0.83455666  0.83427835  1
  Ni  Ni36  1  0.49979104  0.17146547  0.50263300  1
  Ni  Ni37  1  0.33285165  0.00252585  0.66576631  1
  Ni  Ni38  1  0.50106976  0.17074060  0.83080898  1
  Ni  Ni39  1  0.50224763  0.49900457  0.49904711  1
  Ni  Ni40  1  0.33379032  0.33323394  0.66787939  1
  Ni  Ni41  1  0.50242919  0.49858746  0.83538962  1
  Fe  Fe42  1  0.50094420  0.83336726  0.50150202  1
  Cr  Cr43  1  0.33475317  0.66482032  0.66627579  1
  Cr  Cr44  1  0.50157106  0.83370156  0.83256378  1
  Ni  Ni45  1  0.83456888  0.16903253  0.50175708  1
  Fe  Fe46  1  0.66822131  0.00376526  0.66757938  1
  Ni  Ni47  1  0.83511856  0.16873218  0.83328727  1
  Ni  Ni48  1  0.83167978  0.50060715  0.50188845  1
  Ni  Ni49  1  0.66862962  0.33570919  0.66740892  1
  Ni  Ni50  1  0.83408125  0.50049686  0.83351632  1
  Cr  Cr51  1  0.83684196  0.83237285  0.50192936  1
  Ni  Ni52  1  0.66864152  0.66529787  0.66863912  1
  Ni  Ni53  1  0.83537701  0.83292150  0.83360484  1
" 