3196,Ni63Fe30Cr6_15,-240.377666198011, 212.151905837085,Ni63Fe30Cr6,"# generated using pymatgen
 data_Cr2Fe8Ni17
_symmetry_space_group_name_H-M   'P 1'
_cell_length_a   7.42741985
_cell_length_b   7.42741985
_cell_length_c   10.50395789
_cell_angle_alpha   90.00000000
_cell_angle_beta   90.00000000
_cell_angle_gamma   90.00000000
_symmetry_Int_Tables_number   1
_chemical_formula_structural   Cr2Fe8Ni17
_chemical_formula_sum   'Cr4 Fe16 Ni34'
_cell_volume   579.46728283
_cell_formula_units_Z   2
loop_
 _symmetry_equiv_pos_site_id
 _symmetry_equiv_pos_as_xyz
  1  'x, y, z'
loop_
 _atom_site_type_symbol
 _atom_site_label
 _atom_site_symmetry_multiplicity
 _atom_site_fract_x
 _atom_site_fract_y
 _atom_site_fract_z
 _atom_site_occupancy
  Ni  Ni0  1  0.00278766  1.00175851  0.00485097  1
  Ni  Ni1  1  0.17000776  0.16918086  0.16931429  1
  Fe  Fe2  1  0.00273654  0.00367359  0.33560435  1
  Fe  Fe3  1  1.00186950  0.33670682  0.00426410  1
  Ni  Ni4  1  0.16910412  0.50090747  0.16816283  1
  Ni  Ni5  1  0.00351036  0.33568057  0.33564107  1
  Ni  Ni6  1  1.00244250  0.66837253  0.00321169  1
  Ni  Ni7  1  0.16942041  0.83791724  0.16742925  1
  Cr  Cr8  1  1.00165564  0.66814076  0.33581874  1
  Ni  Ni9  1  0.33628326  0.00441851  0.00387365  1
  Ni  Ni10  1  0.50129296  0.16916951  0.16873735  1
  Ni  Ni11  1  0.33727060  0.00406354  0.33594993  1
  Ni  Ni12  1  0.33652614  0.33567735  0.00386870  1
  Ni  Ni13  1  0.50373295  0.50245033  0.16878352  1
  Fe  Fe14  1  0.33650217  0.33542714  0.33571158  1
  Fe  Fe15  1  0.33493766  0.66981021  0.00357929  1
  Ni  Ni16  1  0.50342831  0.83638620  0.16935244  1
  Fe  Fe17  1  0.33804899  0.67004234  0.33621778  1
  Ni  Ni18  1  0.66892906  0.00385059  0.00436444  1
  Fe  Fe19  1  0.83615388  0.16885325  0.16932397  1
  Ni  Ni20  1  0.66773581  1.00210962  0.33573232  1
  Fe  Fe21  1  0.66908618  0.33575722  1.00261019  1
  Ni  Ni22  1  0.83517017  0.50303692  0.16820468  1
  Fe  Fe23  1  0.66917135  0.33624567  0.33605617  1
  Ni  Ni24  1  0.67112679  0.66812958  0.00464966  1
  Ni  Ni25  1  0.83515673  0.83547692  0.16808021  1
  Ni  Ni26  1  0.66885449  0.66988877  0.33622529  1
  Ni  Ni27  1  0.17014051  0.16870014  0.50260396  1
  Fe  Fe28  1  0.00369847  1.00119302  0.66801791  1
  Cr  Cr29  1  0.17109111  0.16789565  0.83617914  1
  Fe  Fe30  1  0.17040808  0.50224682  0.50348338  1
  Fe  Fe31  1  1.00209183  0.33744587  0.66791072  1
  Fe  Fe32  1  0.16950044  0.50449576  0.83616950  1
  Ni  Ni33  1  0.16959584  0.83831927  0.50452586  1
  Ni  Ni34  1  0.00292223  0.66789055  0.66887611  1
  Ni  Ni35  1  0.16897586  0.83539411  0.83605209  1
  Ni  Ni36  1  0.50104146  0.16941795  0.50348822  1
  Ni  Ni37  1  0.33690282  0.00384146  0.66818007  1
  Ni  Ni38  1  0.50277678  0.17100851  0.83577541  1
  Ni  Ni39  1  0.50421805  0.50253865  0.50325832  1
  Ni  Ni40  1  0.33640784  0.33595140  0.66794479  1
  Fe  Fe41  1  0.50238980  0.50142155  0.83571319  1
  Ni  Ni42  1  0.50313797  0.83604878  0.50291164  1
  Ni  Ni43  1  0.33432566  0.66821030  0.66873295  1
  Cr  Cr44  1  0.50108537  0.83690058  0.83587746  1
  Fe  Fe45  1  0.83547296  0.16862826  0.50244935  1
  Ni  Ni46  1  0.66856467  0.00405523  0.66790504  1
  Fe  Fe47  1  0.83423183  0.16982498  0.83623287  1
  Ni  Ni48  1  0.83455485  0.50308391  0.50374772  1
  Fe  Fe49  1  0.66818116  0.33672098  0.66933665  1
  Ni  Ni50  1  0.83590174  0.50194673  0.83605036  1
  Ni  Ni51  1  0.83527262  0.83514223  0.50411517  1
  Ni  Ni52  1  0.67075431  0.66838468  0.66712963  1
  Cr  Cr53  1  0.83746770  0.83421459  0.83576797  1
" 