5268,Ni63Fe26Cr10_5,-237.933757417287, 207.379139260501,Ni63Fe26Cr10,"# generated using pymatgen
 data_Cr3Fe7Ni17
_symmetry_space_group_name_H-M   'P 1'
_cell_length_a   7.42529813
_cell_length_b   7.42529813
_cell_length_c   10.50095731
_cell_angle_alpha   90.00000000
_cell_angle_beta   90.00000000
_cell_angle_gamma   90.00000000
_symmetry_Int_Tables_number   1
_chemical_formula_structural   Cr3Fe7Ni17
_chemical_formula_sum   'Cr6 Fe14 Ni34'
_cell_volume   578.97083040
_cell_formula_units_Z   2
loop_
 _symmetry_equiv_pos_site_id
 _symmetry_equiv_pos_as_xyz
  1  'x, y, z'
loop_
 _atom_site_type_symbol
 _atom_site_label
 _atom_site_symmetry_multiplicity
 _atom_site_fract_x
 _atom_site_fract_y
 _atom_site_fract_z
 _atom_site_occupancy
  Ni  Ni0  1  0.00304812  1.00137984  1.00271340  1
  Fe  Fe1  1  0.16912776  0.16906619  0.16917073  1
  Ni  Ni2  1  1.00187115  1.00097855  0.33566418  1
  Ni  Ni3  1  1.00228940  0.33621972  1.00242811  1
  Ni  Ni4  1  0.16958374  0.50259646  0.17051487  1
  Ni  Ni5  1  0.00474036  0.33620772  0.33615190  1
  Ni  Ni6  1  1.00259530  0.67083380  0.00299542  1
  Ni  Ni7  1  0.16825804  0.83444076  0.16921605  1
  Ni  Ni8  1  0.00392386  0.67125199  0.33603395  1
  Ni  Ni9  1  0.33333778  0.00426054  0.00395685  1
  Ni  Ni10  1  0.50274970  0.17006457  0.16954267  1
  Fe  Fe11  1  0.33339022  0.00455067  0.33610519  1
  Ni  Ni12  1  0.33730285  0.33653668  0.00429178  1
  Fe  Fe13  1  0.50155423  0.50158877  0.16931486  1
  Ni  Ni14  1  0.33584658  0.33711516  0.33551865  1
  Fe  Fe15  1  0.33296540  0.66711917  0.00313888  1
  Cr  Cr16  1  0.50307945  0.83693781  0.17033117  1
  Ni  Ni17  1  0.33346896  0.66714307  0.33601959  1
  Fe  Fe18  1  0.67288523  0.00483256  0.00410225  1
  Ni  Ni19  1  0.83617203  0.16874154  0.16794927  1
  Ni  Ni20  1  0.67195291  0.00335728  0.33581794  1
  Ni  Ni21  1  0.66884406  0.33699300  0.00338682  1
  Fe  Fe22  1  0.83789947  0.50357950  0.16785571  1
  Cr  Cr23  1  0.66812749  0.33486135  0.33641597  1
  Fe  Fe24  1  0.67216071  0.66768430  1.00201332  1
  Ni  Ni25  1  0.83710943  0.83677560  0.17005709  1
  Fe  Fe26  1  0.67162738  0.66971438  0.33688169  1
  Ni  Ni27  1  0.16791974  0.16948238  0.50112074  1
  Ni  Ni28  1  1.00229180  1.00105406  0.67005676  1
  Ni  Ni29  1  0.16682271  0.17040625  0.83786496  1
  Fe  Fe30  1  0.16853028  0.50424209  0.50127610  1
  Fe  Fe31  1  1.00077881  0.33556360  0.67003616  1
  Ni  Ni32  1  0.16803120  0.50288853  0.83616807  1
  Ni  Ni33  1  0.16869389  0.83603638  0.50350909  1
  Ni  Ni34  1  1.00259138  0.67146444  0.66940295  1
  Fe  Fe35  1  0.16660816  0.83658671  0.83587755  1
  Fe  Fe36  1  0.50306288  0.16874510  0.50268861  1
  Ni  Ni37  1  0.33343553  1.00189068  0.66792632  1
  Cr  Cr38  1  0.50371442  0.16887456  0.83561740  1
  Ni  Ni39  1  0.50222306  0.50365385  0.50324332  1
  Cr  Cr40  1  0.33724309  0.33682598  0.66871969  1
  Fe  Fe41  1  0.50444434  0.50287861  0.83604595  1
  Cr  Cr42  1  0.50307420  0.83548337  0.50275480  1
  Ni  Ni43  1  0.33436973  0.66939594  0.67051836  1
  Cr  Cr44  1  0.50319913  0.83515648  0.83534934  1
  Ni  Ni45  1  0.83760081  0.16883230  0.50467756  1
  Ni  Ni46  1  0.67270150  0.00416538  0.66907929  1
  Ni  Ni47  1  0.83814766  0.17017951  0.83580957  1
  Fe  Fe48  1  0.83733940  0.50392554  0.50439091  1
  Ni  Ni49  1  0.67063725  0.33684823  0.66879896  1
  Ni  Ni50  1  0.83751562  0.50253521  0.83574084  1
  Ni  Ni51  1  0.83686522  0.83672422  0.50241945  1
  Ni  Ni52  1  0.67146980  0.66741928  0.66917165  1
  Ni  Ni53  1  0.83658701  0.83572053  0.83595753  1
" 