6441,Ni63Fe26Cr10_16,-238.324623063902, 206.573453627394,Ni63Fe26Cr10,"# generated using pymatgen
 data_Cr3Fe7Ni17
_symmetry_space_group_name_H-M   'P 1'
_cell_length_a   7.43031580
_cell_length_b   7.43031580
_cell_length_c   10.50805337
_cell_angle_alpha   90.00000000
_cell_angle_beta   90.00000000
_cell_angle_gamma   90.00000000
_symmetry_Int_Tables_number   1
_chemical_formula_structural   Cr3Fe7Ni17
_chemical_formula_sum   'Cr6 Fe14 Ni34'
_cell_volume   580.14534799
_cell_formula_units_Z   2
loop_
 _symmetry_equiv_pos_site_id
 _symmetry_equiv_pos_as_xyz
  1  'x, y, z'
loop_
 _atom_site_type_symbol
 _atom_site_label
 _atom_site_symmetry_multiplicity
 _atom_site_fract_x
 _atom_site_fract_y
 _atom_site_fract_z
 _atom_site_occupancy
  Fe  Fe0  1  1.00133942  0.00373056  0.00604934  1
  Ni  Ni1  1  0.16838604  0.16978654  0.16883213  1
  Ni  Ni2  1  1.00217202  1.00070475  0.33603377  1
  Ni  Ni3  1  1.00123953  0.33846228  1.00213583  1
  Fe  Fe4  1  0.17008047  0.50284879  0.16883889  1
  Fe  Fe5  1  0.00255876  0.33466485  0.33591260  1
  Ni  Ni6  1  0.00281500  0.66701587  0.00438322  1
  Fe  Fe7  1  0.17031496  0.83680520  0.17010878  1
  Ni  Ni8  1  0.00351042  0.66902087  0.33575382  1
  Ni  Ni9  1  0.33787035  0.00334640  1.00197775  1
  Ni  Ni10  1  0.50078145  0.17129533  0.16850822  1
  Ni  Ni11  1  0.33575775  0.00284738  0.33807332  1
  Ni  Ni12  1  0.33564599  0.33557086  0.00448854  1
  Ni  Ni13  1  0.50236596  0.50111384  0.16920461  1
  Fe  Fe14  1  0.33549207  0.33475791  0.33576671  1
  Ni  Ni15  1  0.33390515  0.66865719  1.00223460  1
  Cr  Cr16  1  0.50448138  0.83492353  0.16874214  1
  Ni  Ni17  1  0.33290023  0.66828740  0.33786166  1
  Ni  Ni18  1  0.66825455  0.00455780  1.00243876  1
  Fe  Fe19  1  0.83398834  0.16898016  0.16942308  1
  Ni  Ni20  1  0.66955647  0.00535086  0.33696220  1
  Ni  Ni21  1  0.67018474  0.33399715  1.00208688  1
  Fe  Fe22  1  0.83433622  0.50151731  0.16966250  1
  Ni  Ni23  1  0.66854806  0.33472639  0.33666487  1
  Ni  Ni24  1  0.67113297  0.66837939  0.00282872  1
  Ni  Ni25  1  0.83777808  0.83543420  0.16923791  1
  Fe  Fe26  1  0.67003840  0.67011382  0.33607960  1
  Ni  Ni27  1  0.16749214  0.16898291  0.50152042  1
  Fe  Fe28  1  1.00030256  0.00336479  0.66633290  1
  Cr  Cr29  1  0.16756139  0.17079478  0.83598427  1
  Ni  Ni30  1  0.16797569  0.50216703  0.50124180  1
  Fe  Fe31  1  0.99982657  0.33663344  0.66852115  1
  Ni  Ni32  1  0.16750485  0.50231728  0.83697847  1
  Ni  Ni33  1  0.16829248  0.83599246  0.50203742  1
  Ni  Ni34  1  0.00429684  0.66782451  0.66774507  1
  Cr  Cr35  1  0.16958060  0.83519589  0.83690576  1
  Ni  Ni36  1  0.50312854  0.16921749  0.50091916  1
  Fe  Fe37  1  0.33829219  1.00133282  0.66772616  1
  Ni  Ni38  1  0.50425062  0.16805557  0.83788122  1
  Ni  Ni39  1  0.50387456  0.50293670  0.49997942  1
  Cr  Cr40  1  0.33739476  0.33574688  0.66672760  1
  Cr  Cr41  1  0.50255836  0.50326418  0.83789436  1
  Ni  Ni42  1  0.50349974  0.83521063  0.50260992  1
  Fe  Fe43  1  0.33681454  0.66975899  0.66737994  1
  Ni  Ni44  1  0.50352439  0.83656717  0.83618215  1
  Ni  Ni45  1  0.83646797  0.16944518  0.50148371  1
  Ni  Ni46  1  0.66790140  0.00476535  0.66812745  1
  Ni  Ni47  1  0.83508692  0.16985598  0.83689326  1
  Ni  Ni48  1  0.83554463  0.50244135  0.50242525  1
  Ni  Ni49  1  0.67034696  0.33270160  0.66907426  1
  Fe  Fe50  1  0.83712434  0.50102319  0.83529575  1
  Ni  Ni51  1  0.83567064  0.83553945  0.50161169  1
  Fe  Fe52  1  0.66926508  0.66883599  0.66753975  1
  Cr  Cr53  1  0.83446114  0.83660643  0.83616590  1
" 