3511,Ni63Fe13Cr23_2,-231.487386719754, 174.030359142388,Ni63Fe13Cr23,"# generated using pymatgen
 data_Cr13Fe7Ni34
_symmetry_space_group_name_H-M   'P 1'
_cell_length_a   7.46321003
_cell_length_b   7.46321003
_cell_length_c   10.55457284
_cell_angle_alpha   90.00000000
_cell_angle_beta   90.00000000
_cell_angle_gamma   90.00000000
_symmetry_Int_Tables_number   1
_chemical_formula_structural   Cr13Fe7Ni34
_chemical_formula_sum   'Cr13 Fe7 Ni34'
_cell_volume   587.88447179
_cell_formula_units_Z   1
loop_
 _symmetry_equiv_pos_site_id
 _symmetry_equiv_pos_as_xyz
  1  'x, y, z'
loop_
 _atom_site_type_symbol
 _atom_site_label
 _atom_site_symmetry_multiplicity
 _atom_site_fract_x
 _atom_site_fract_y
 _atom_site_fract_z
 _atom_site_occupancy
  Ni  Ni0  1  0.99996995  0.99972800  0.00045523  1
  Cr  Cr1  1  0.16560619  0.16667713  0.16686111  1
  Ni  Ni2  1  0.99887860  0.99873046  0.33388036  1
  Ni  Ni3  1  0.99928013  0.33269895  0.99832402  1
  Cr  Cr4  1  0.16757114  0.50118409  0.16796021  1
  Fe  Fe5  1  0.00095052  0.33266794  0.33641497  1
  Ni  Ni6  1  0.00138733  0.66834346  0.99933909  1
  Ni  Ni7  1  0.16710033  0.83303779  0.16647878  1
  Ni  Ni8  1  0.00292292  0.67012234  0.33602609  1
  Ni  Ni9  1  0.33198180  0.99873941  0.00036377  1
  Cr  Cr10  1  0.50112851  0.16578528  0.16655364  1
  Fe  Fe11  1  0.33149442  0.99784798  0.33359941  1
  Ni  Ni12  1  0.33444239  0.33546023  0.99868190  1
  Ni  Ni13  1  0.49876744  0.50206236  0.16490261  1
  Ni  Ni14  1  0.33268986  0.33642115  0.33535237  1
  Fe  Fe15  1  0.33282290  0.66721234  0.00099655  1
  Ni  Ni16  1  0.50037441  0.83316762  0.16598628  1
  Ni  Ni17  1  0.33158305  0.66553617  0.33280160  1
  Ni  Ni18  1  0.66881826  0.00084593  0.00287951  1
  Ni  Ni19  1  0.83312613  0.16389634  0.16577031  1
  Ni  Ni20  1  0.67076463  0.99983680  0.33233806  1
  Ni  Ni21  1  0.66704853  0.33404307  0.99935742  1
  Cr  Cr22  1  0.83485455  0.50020598  0.16514899  1
  Cr  Cr23  1  0.66645705  0.33276812  0.33418844  1
  Fe  Fe24  1  0.66642616  0.66644399  0.00144033  1
  Ni  Ni25  1  0.83329625  0.83611166  0.16634412  1
  Cr  Cr26  1  0.66629624  0.66808818  0.33315079  1
  Ni  Ni27  1  0.16650442  0.16875959  0.50000080  1
  Cr  Cr28  1  0.00121012  0.00080978  0.66695505  1
  Ni  Ni29  1  0.16668947  0.16918084  0.83429337  1
  Ni  Ni30  1  0.16552505  0.49929370  0.49900016  1
  Ni  Ni31  1  0.00055830  0.33491020  0.66650076  1
  Ni  Ni32  1  0.16553750  0.49886809  0.83437294  1
  Ni  Ni33  1  0.16496305  0.83271849  0.49884824  1
  Ni  Ni34  1  0.99886562  0.66463535  0.66540964  1
  Ni  Ni35  1  0.16698460  0.83272238  0.83544497  1
  Cr  Cr36  1  0.49916684  0.16654789  0.50166250  1
  Ni  Ni37  1  0.33258199  0.00229412  0.66655504  1
  Cr  Cr38  1  0.49994138  0.16687858  0.83255450  1
  Ni  Ni39  1  0.49930418  0.49929679  0.50123490  1
  Ni  Ni40  1  0.33233519  0.33377004  0.66673993  1
  Fe  Fe41  1  0.49995032  0.49866954  0.83425854  1
  Cr  Cr42  1  0.50099530  0.83465137  0.50094628  1
  Cr  Cr43  1  0.33207540  0.66539388  0.66682604  1
  Cr  Cr44  1  0.49999486  0.83467506  0.83352749  1
  Ni  Ni45  1  0.83481745  0.16706783  0.49999301  1
  Ni  Ni46  1  0.66781364  0.00060266  0.66555205  1
  Ni  Ni47  1  0.83410320  0.16963448  0.83500765  1
  Ni  Ni48  1  0.83594299  0.50084049  0.50300500  1
  Fe  Fe49  1  0.66872173  0.33491497  0.66666306  1
  Fe  Fe50  1  0.83554581  0.49856325  0.83325203  1
  Ni  Ni51  1  0.83481307  0.83286308  0.50022968  1
  Ni  Ni52  1  0.66894886  0.66488369  0.66575994  1
  Cr  Cr53  1  0.83395335  0.83277447  0.83369391  1
" 