8316,Ni63Fe12Cr23_17,-230.286090875752, 169.142230807917,Ni63Fe12Cr23,"# generated using pymatgen
 data_Cr7Fe3Ni17
_symmetry_space_group_name_H-M   'P 1'
_cell_length_a   7.46163108
_cell_length_b   7.46163108
_cell_length_c   10.55233987
_cell_angle_alpha   90.00000000
_cell_angle_beta   90.00000000
_cell_angle_gamma   90.00000000
_symmetry_Int_Tables_number   1
_chemical_formula_structural   Cr7Fe3Ni17
_chemical_formula_sum   'Cr14 Fe6 Ni34'
_cell_volume   587.51142492
_cell_formula_units_Z   2
loop_
 _symmetry_equiv_pos_site_id
 _symmetry_equiv_pos_as_xyz
  1  'x, y, z'
loop_
 _atom_site_type_symbol
 _atom_site_label
 _atom_site_symmetry_multiplicity
 _atom_site_fract_x
 _atom_site_fract_y
 _atom_site_fract_z
 _atom_site_occupancy
  Ni  Ni0  1  0.99851257  0.99826357  0.99810428  1
  Ni  Ni1  1  0.16770869  0.16878795  0.16736799  1
  Ni  Ni2  1  0.99825858  0.99948857  0.33452753  1
  Cr  Cr3  1  0.00248052  0.33429423  0.00067479  1
  Ni  Ni4  1  0.16801665  0.49888661  0.16805124  1
  Ni  Ni5  1  1.00023597  0.33564989  0.33338390  1
  Ni  Ni6  1  0.99923016  0.66868211  1.00018296  1
  Cr  Cr7  1  0.16499928  0.83392099  0.16809166  1
  Ni  Ni8  1  0.99987974  0.66594370  0.33436471  1
  Cr  Cr9  1  0.33414776  0.00306676  1.00031433  1
  Fe  Fe10  1  0.49993184  0.16856781  0.16773290  1
  Cr  Cr11  1  0.33460756  0.00095998  0.33305579  1
  Ni  Ni12  1  0.33404035  0.33394779  1.00010900  1
  Ni  Ni13  1  0.50025303  0.50063143  0.16836877  1
  Ni  Ni14  1  0.33445252  0.33602242  0.33233035  1
  Cr  Cr15  1  0.33289709  0.66444922  0.99966587  1
  Fe  Fe16  1  0.50363094  0.83237614  0.16800944  1
  Ni  Ni17  1  0.33337259  0.66411716  0.33432399  1
  Ni  Ni18  1  0.66851748  0.99913267  1.00012447  1
  Cr  Cr19  1  0.83490209  0.16581089  0.16833772  1
  Ni  Ni20  1  0.66825653  0.00057667  0.33357500  1
  Cr  Cr21  1  0.66488139  0.33304084  1.00013892  1
  Ni  Ni22  1  0.83283887  0.50327412  0.16848296  1
  Ni  Ni23  1  0.66641339  0.33441717  0.33525320  1
  Fe  Fe24  1  0.66875750  0.66817907  0.00162435  1
  Ni  Ni25  1  0.83228343  0.83254543  0.16654777  1
  Ni  Ni26  1  0.66783939  0.66610883  0.33216108  1
  Cr  Cr27  1  0.16515538  0.16758570  0.49970712  1
  Ni  Ni28  1  0.99770642  0.00132054  0.66845891  1
  Ni  Ni29  1  0.16633426  0.16677979  0.83350163  1
  Ni  Ni30  1  0.16711674  0.50083545  0.49893976  1
  Ni  Ni31  1  0.00036833  0.33230165  0.66726555  1
  Fe  Fe32  1  0.16825189  0.49850767  0.83370761  1
  Ni  Ni33  1  0.16489035  0.83243987  0.49906937  1
  Cr  Cr34  1  1.00010454  0.66755636  0.66615986  1
  Ni  Ni35  1  0.16369056  0.83551361  0.83428093  1
  Ni  Ni36  1  0.50335414  0.16951436  0.50028535  1
  Cr  Cr37  1  0.33349457  0.00197197  0.66774566  1
  Ni  Ni38  1  0.50026043  0.16921306  0.83329139  1
  Ni  Ni39  1  0.50132286  0.49913754  0.50012426  1
  Ni  Ni40  1  0.33462169  0.33437951  0.66863158  1
  Ni  Ni41  1  0.49969912  0.49846674  0.83259901  1
  Cr  Cr42  1  0.50117261  0.83247580  0.49953869  1
  Cr  Cr43  1  0.33335985  0.66469152  0.66660572  1
  Cr  Cr44  1  0.50258235  0.83287175  0.83414241  1
  Ni  Ni45  1  0.83264930  0.16733331  0.50081267  1
  Ni  Ni46  1  0.66965367  0.00194551  0.66740529  1
  Ni  Ni47  1  0.83450868  0.16394414  0.83203881  1
  Ni  Ni48  1  0.83266980  0.49926580  0.49904789  1
  Fe  Fe49  1  0.66661137  0.33272524  0.66602212  1
  Cr  Cr50  1  0.83221594  0.50095043  0.83377991  1
  Fe  Fe51  1  0.83402985  0.83420988  0.49963596  1
  Ni  Ni52  1  0.66758727  0.66655287  0.66723586  1
  Ni  Ni53  1  0.83484192  0.83596771  0.83466151  1
" 