705,Ni63Cr37_3,-213.842301983644, 141.051123769058,Ni63Cr37,"# generated using pymatgen
 data_Cr17Ni10
_symmetry_space_group_name_H-M   'P 1'
_cell_length_a   7.54898993
_cell_length_b   7.54898993
_cell_length_c   10.67588394
_cell_angle_alpha   90.00000000
_cell_angle_beta   90.00000000
_cell_angle_gamma   90.00000000
_symmetry_Int_Tables_number   1
_chemical_formula_structural   Cr17Ni10
_chemical_formula_sum   'Cr34 Ni20'
_cell_volume   608.38925578
_cell_formula_units_Z   2
loop_
 _symmetry_equiv_pos_site_id
 _symmetry_equiv_pos_as_xyz
  1  'x, y, z'
loop_
 _atom_site_type_symbol
 _atom_site_label
 _atom_site_symmetry_multiplicity
 _atom_site_fract_x
 _atom_site_fract_y
 _atom_site_fract_z
 _atom_site_occupancy
  Ni  Ni0  1  -0.00492705  -0.00276398  0.99285400  1
  Cr  Cr1  1  0.16398530  0.15959504  0.16017370  1
  Cr  Cr2  1  0.99385597  -0.00438153  0.32779089  1
  Cr  Cr3  1  -0.00488192  0.32106098  0.99386371  1
  Cr  Cr4  1  0.16021952  0.49455197  0.16185496  1
  Cr  Cr5  1  0.99297505  0.32406216  0.32637209  1
  Cr  Cr6  1  -0.00319995  0.66480921  0.99229754  1
  Cr  Cr7  1  0.16183223  0.82877407  0.16113191  1
  Ni  Ni8  1  0.99328605  0.66332154  0.32979985  1
  Ni  Ni9  1  0.32453558  -0.00314306  0.99223434  1
  Cr  Cr10  1  0.49353167  0.15846534  0.16027461  1
  Ni  Ni11  1  0.32758398  0.99424854  0.32790759  1
  Ni  Ni12  1  0.32893303  0.32589482  0.99338953  1
  Ni  Ni13  1  0.49304019  0.49280876  0.15971300  1
  Cr  Cr14  1  0.33054393  0.32888305  0.32779198  1
  Cr  Cr15  1  0.32935805  0.65889866  0.99228012  1
  Cr  Cr16  1  0.49363954  0.83231907  0.15914271  1
  Cr  Cr17  1  0.33028793  0.66027488  0.32784066  1
  Ni  Ni18  1  0.66414309  -0.00202009  0.99445525  1
  Ni  Ni19  1  0.82732069  0.15834301  0.15812963  1
  Cr  Cr20  1  0.66383816  -0.00403122  0.32897427  1
  Cr  Cr21  1  0.66040506  0.32758918  -0.00452295  1
  Cr  Cr22  1  0.83012653  0.49536853  0.16194478  1
  Cr  Cr23  1  0.66013561  0.32816506  0.32623949  1
  Cr  Cr24  1  0.65761056  0.65939920  0.99447632  1
  Cr  Cr25  1  0.82812597  0.82813996  0.16015330  1
  Cr  Cr26  1  0.65907428  0.66015815  0.32880787  1
  Cr  Cr27  1  0.16517560  0.16224085  0.49600801  1
  Cr  Cr28  1  -0.00472662  -0.00462863  0.66335725  1
  Ni  Ni29  1  0.16239329  0.16006559  0.82787548  1
  Cr  Cr30  1  0.15861362  0.49319586  0.49558492  1
  Ni  Ni31  1  -0.00485924  0.32576362  0.66361377  1
  Cr  Cr32  1  0.16009421  0.49161863  0.82592881  1
  Cr  Cr33  1  0.16064033  0.82748733  0.49357072  1
  Ni  Ni34  1  -0.00481369  0.66295675  0.66056284  1
  Ni  Ni35  1  0.16154035  0.83270632  0.82800791  1
  Cr  Cr36  1  0.49287164  0.16092947  0.49769971  1
  Ni  Ni37  1  0.32677360  -0.00327446  0.66326672  1
  Cr  Cr38  1  0.49446505  0.16069607  0.82624074  1
  Ni  Ni39  1  0.49486540  0.49183042  0.49726405  1
  Ni  Ni40  1  0.32866618  0.32699513  0.66273658  1
  Ni  Ni41  1  0.49326801  0.48987502  0.82686196  1
  Cr  Cr42  1  0.49513523  0.83337338  0.49546133  1
  Cr  Cr43  1  0.32814713  0.66167899  0.66339203  1
  Cr  Cr44  1  0.49422885  0.83343931  0.82935274  1
  Cr  Cr45  1  0.82578309  0.16274429  0.49782434  1
  Ni  Ni46  1  0.66248391  -0.00315015  0.66133441  1
  Ni  Ni47  1  0.82804453  0.16017718  0.82735908  1
  Cr  Cr48  1  0.83035035  0.49575932  0.49697778  1
  Ni  Ni49  1  0.65992209  0.32657854  0.66230222  1
  Cr  Cr50  1  0.82794335  0.49220348  0.82441590  1
  Ni  Ni51  1  0.82870526  0.82652781  0.49572966  1
  Cr  Cr52  1  0.65868095  0.66144099  0.66057980  1
  Cr  Cr53  1  0.82715051  0.82889961  0.82824211  1
" 