8323,Ni63Fe14Cr22_11,-231.573826982091, 173.133495729539,Ni63Fe14Cr22,"# generated using pymatgen
 data_Cr13Fe7Ni34
_symmetry_space_group_name_H-M   'P 1'
_cell_length_a   7.46363855
_cell_length_b   7.46363855
_cell_length_c   10.55517886
_cell_angle_alpha   90.00000000
_cell_angle_beta   90.00000000
_cell_angle_gamma   90.00000000
_symmetry_Int_Tables_number   1
_chemical_formula_structural   Cr13Fe7Ni34
_chemical_formula_sum   'Cr13 Fe7 Ni34'
_cell_volume   587.98574224
_cell_formula_units_Z   1
loop_
 _symmetry_equiv_pos_site_id
 _symmetry_equiv_pos_as_xyz
  1  'x, y, z'
loop_
 _atom_site_type_symbol
 _atom_site_label
 _atom_site_symmetry_multiplicity
 _atom_site_fract_x
 _atom_site_fract_y
 _atom_site_fract_z
 _atom_site_occupancy
  Ni  Ni0  1  0.00074092  0.99852069  0.00036674  1
  Ni  Ni1  1  0.16704773  0.16415388  0.16791510  1
  Ni  Ni2  1  0.99936457  0.99998667  0.33229235  1
  Cr  Cr3  1  0.00025442  0.33060382  0.00124976  1
  Cr  Cr4  1  0.16555284  0.50022766  0.16726628  1
  Ni  Ni5  1  0.99765969  0.33464334  0.33362468  1
  Ni  Ni6  1  0.99861380  0.67194361  0.00129594  1
  Ni  Ni7  1  0.16593808  0.83673779  0.16757265  1
  Ni  Ni8  1  1.00017238  0.66626335  0.33317712  1
  Ni  Ni9  1  0.33355354  0.00075181  0.00040609  1
  Fe  Fe10  1  0.50055994  0.16499121  0.16735815  1
  Ni  Ni11  1  0.33490778  0.99770797  0.33064568  1
  Ni  Ni12  1  0.33475186  0.32978380  0.00108622  1
  Ni  Ni13  1  0.50234839  0.50069657  0.16924725  1
  Fe  Fe14  1  0.33288450  0.33279552  0.33186234  1
  Cr  Cr15  1  0.33374290  0.67142425  0.00191567  1
  Ni  Ni16  1  0.50174542  0.83457883  0.16747280  1
  Fe  Fe17  1  0.33443545  0.66813829  0.33329769  1
  Ni  Ni18  1  0.66645582  0.99839089  1.00021456  1
  Ni  Ni19  1  0.83391170  0.16483672  0.16904683  1
  Ni  Ni20  1  0.66653444  0.00035198  0.33316398  1
  Cr  Cr21  1  0.66629463  0.33119730  0.00161890  1
  Ni  Ni22  1  0.83155886  0.50178957  0.16773971  1
  Ni  Ni23  1  0.66814513  0.33450318  0.33275707  1
  Ni  Ni24  1  0.66725626  0.67044185  0.00242529  1
  Ni  Ni25  1  0.83309230  0.83440423  0.16725329  1
  Fe  Fe26  1  0.66835104  0.66861858  0.33299910  1
  Cr  Cr27  1  0.16610684  0.16579510  0.49928964  1
  Ni  Ni28  1  0.00101523  0.99867238  0.66785842  1
  Ni  Ni29  1  0.16862741  0.16301436  0.83319431  1
  Ni  Ni30  1  0.16655532  0.50122559  0.49967422  1
  Cr  Cr31  1  0.99872747  0.33210149  0.66646467  1
  Cr  Cr32  1  0.16705510  0.50201171  0.83330213  1
  Cr  Cr33  1  0.16773112  0.83418638  0.49990200  1
  Ni  Ni34  1  0.00039727  0.66847060  0.66637376  1
  Ni  Ni35  1  0.16612698  0.83630633  0.83291194  1
  Cr  Cr36  1  0.49972056  0.16403894  0.49863486  1
  Ni  Ni37  1  0.33353325  0.99733416  0.66967442  1
  Ni  Ni38  1  0.49779226  0.16382879  0.83515846  1
  Fe  Fe39  1  0.50002148  0.50128934  0.49876526  1
  Fe  Fe40  1  0.33301294  0.33282348  0.66732437  1
  Cr  Cr41  1  0.50033924  0.50221638  0.83266201  1
  Ni  Ni42  1  0.50097373  0.83205508  0.49953084  1
  Ni  Ni43  1  0.33398706  0.66911122  0.66521334  1
  Ni  Ni44  1  0.50077824  0.83504030  0.83332546  1
  Ni  Ni45  1  0.83363329  0.16685233  0.49760924  1
  Cr  Cr46  1  0.66750137  0.99907172  0.66746715  1
  Ni  Ni47  1  0.83434088  0.16202000  0.83424985  1
  Ni  Ni48  1  0.83362405  0.50187376  0.49846049  1
  Cr  Cr49  1  0.66783014  0.33279503  0.66682269  1
  Cr  Cr50  1  0.83300569  0.50543657  0.83610971  1
  Fe  Fe51  1  0.83400403  0.83368223  0.49923320  1
  Ni  Ni52  1  0.66631176  0.66815756  0.66442516  1
  Ni  Ni53  1  0.83370527  0.83443822  0.83342354  1
" 