7427,Ni63Fe13Cr23_10,-231.421929045165, 176.402536786633,Ni63Fe13Cr23,"# generated using pymatgen
 data_Cr13Fe7Ni34
_symmetry_space_group_name_H-M   'P 1'
_cell_length_a   7.45887427
_cell_length_b   7.45887427
_cell_length_c   10.54844115
_cell_angle_alpha   90.00000000
_cell_angle_beta   90.00000000
_cell_angle_gamma   90.00000000
_symmetry_Int_Tables_number   1
_chemical_formula_structural   Cr13Fe7Ni34
_chemical_formula_sum   'Cr13 Fe7 Ni34'
_cell_volume   586.86046955
_cell_formula_units_Z   1
loop_
 _symmetry_equiv_pos_site_id
 _symmetry_equiv_pos_as_xyz
  1  'x, y, z'
loop_
 _atom_site_type_symbol
 _atom_site_label
 _atom_site_symmetry_multiplicity
 _atom_site_fract_x
 _atom_site_fract_y
 _atom_site_fract_z
 _atom_site_occupancy
  Ni  Ni0  1  0.00057209  0.00083322  0.00177517  1
  Ni  Ni1  1  0.16494517  0.16582542  0.16372088  1
  Fe  Fe2  1  0.99779875  0.99739882  0.33254811  1
  Fe  Fe3  1  0.00123295  0.33227232  1.00000836  1
  Ni  Ni4  1  0.16714803  0.50136269  0.16697149  1
  Cr  Cr5  1  0.99946070  0.33282213  0.33215250  1
  Ni  Ni6  1  0.00193083  0.66942846  0.99934191  1
  Ni  Ni7  1  0.16335569  0.83425736  0.16850491  1
  Ni  Ni8  1  0.00307620  0.66955166  0.33473636  1
  Ni  Ni9  1  0.33010089  1.00041918  0.99867581  1
  Cr  Cr10  1  0.50133139  0.16718715  0.16540959  1
  Cr  Cr11  1  0.33302932  0.99691265  0.33431545  1
  Fe  Fe12  1  0.33159750  0.33388376  0.00158023  1
  Ni  Ni13  1  0.50133240  0.50007283  0.16823439  1
  Cr  Cr14  1  0.33517651  0.33821504  0.33324849  1
  Cr  Cr15  1  0.33241590  0.66794088  0.00174354  1
  Cr  Cr16  1  0.50312605  0.83288084  0.16634591  1
  Ni  Ni17  1  0.33259174  0.66653799  0.33472133  1
  Ni  Ni18  1  0.67083089  0.00077047  0.99850218  1
  Ni  Ni19  1  0.83447638  0.16467538  0.16745103  1
  Ni  Ni20  1  0.67082308  0.00067603  0.33617027  1
  Ni  Ni21  1  0.66913244  0.33246249  0.00230515  1
  Cr  Cr22  1  0.83223056  0.50355762  0.16594495  1
  Ni  Ni23  1  0.66735626  0.33260545  0.33510860  1
  Ni  Ni24  1  0.66878584  0.66848235  1.00053848  1
  Ni  Ni25  1  0.83585517  0.83526752  0.16741407  1
  Ni  Ni26  1  0.66607019  0.66807608  0.33393428  1
  Cr  Cr27  1  0.16765133  0.16637939  0.50212863  1
  Cr  Cr28  1  0.99895005  1.00024807  0.66804204  1
  Ni  Ni29  1  0.16653878  0.16740590  0.83550870  1
  Ni  Ni30  1  0.16862791  0.50291145  0.50297306  1
  Ni  Ni31  1  0.00119689  0.33403157  0.66939735  1
  Ni  Ni32  1  0.16596078  0.49951463  0.83152726  1
  Ni  Ni33  1  0.16746196  0.83150516  0.49992349  1
  Fe  Fe34  1  0.00121213  0.66895653  0.66721402  1
  Ni  Ni35  1  0.16720153  0.83469049  0.83324742  1
  Fe  Fe36  1  0.50316801  0.16596616  0.50206845  1
  Ni  Ni37  1  0.33451524  0.99674096  0.66805446  1
  Cr  Cr38  1  0.49958378  0.16455823  0.83344982  1
  Ni  Ni39  1  0.50093624  0.50190903  0.50024064  1
  Fe  Fe40  1  0.33426542  0.33478231  0.66651865  1
  Cr  Cr41  1  0.50129607  0.50152428  0.83388141  1
  Ni  Ni42  1  0.50179497  0.83289980  0.50189832  1
  Ni  Ni43  1  0.33307736  0.66839152  0.66550296  1
  Ni  Ni44  1  0.50153210  0.83529983  0.83288295  1
  Fe  Fe45  1  0.83111394  0.16601233  0.50118536  1
  Ni  Ni46  1  0.66654660  0.99972104  0.66687415  1
  Ni  Ni47  1  0.83466573  0.16664062  0.83419300  1
  Cr  Cr48  1  0.83380807  0.50264906  0.50201676  1
  Ni  Ni49  1  0.66893631  0.33234869  0.66450056  1
  Cr  Cr50  1  0.83482471  0.50182480  0.83355020  1
  Ni  Ni51  1  0.83196374  0.83415452  0.49895701  1
  Ni  Ni52  1  0.66427931  0.66941407  0.66720043  1
  Ni  Ni53  1  0.83269437  0.83473006  0.83524576  1
" 