6378,Ni63Fe14Cr22_15,-231.431561702941, 175.934880972672,Ni63Fe14Cr22,"# generated using pymatgen
 data_Cr13Fe7Ni34
_symmetry_space_group_name_H-M   'P 1'
_cell_length_a   7.46167576
_cell_length_b   7.46167576
_cell_length_c   10.55240306
_cell_angle_alpha   90.00000000
_cell_angle_beta   90.00000000
_cell_angle_gamma   90.00000000
_symmetry_Int_Tables_number   1
_chemical_formula_structural   Cr13Fe7Ni34
_chemical_formula_sum   'Cr13 Fe7 Ni34'
_cell_volume   587.52197867
_cell_formula_units_Z   1
loop_
 _symmetry_equiv_pos_site_id
 _symmetry_equiv_pos_as_xyz
  1  'x, y, z'
loop_
 _atom_site_type_symbol
 _atom_site_label
 _atom_site_symmetry_multiplicity
 _atom_site_fract_x
 _atom_site_fract_y
 _atom_site_fract_z
 _atom_site_occupancy
  Ni  Ni0  1  0.00095337  0.00379006  0.00194852  1
  Ni  Ni1  1  0.16723349  0.16364300  0.16669734  1
  Fe  Fe2  1  0.00215843  1.00022728  0.33496949  1
  Ni  Ni3  1  0.99890651  0.32938614  0.99785607  1
  Cr  Cr4  1  0.16813871  0.50210404  0.16842488  1
  Cr  Cr5  1  0.00127820  0.32996224  0.33360381  1
  Cr  Cr6  1  0.00194952  0.66797658  0.99882955  1
  Ni  Ni7  1  0.16812385  0.83681900  0.16856441  1
  Ni  Ni8  1  0.00468818  0.67048152  0.33637117  1
  Ni  Ni9  1  0.33227192  1.00029689  0.00103392  1
  Ni  Ni10  1  0.49975796  0.16604891  0.16844273  1
  Ni  Ni11  1  0.33225949  0.00121180  0.33417100  1
  Cr  Cr12  1  0.33274853  0.33258402  0.00213696  1
  Ni  Ni13  1  0.49911472  0.49984350  0.16637910  1
  Fe  Fe14  1  0.33338985  0.33306776  0.33487373  1
  Ni  Ni15  1  0.33580479  0.66776972  0.99925607  1
  Cr  Cr16  1  0.49850120  0.83432908  0.16389571  1
  Ni  Ni17  1  0.33241837  0.66966544  0.33541105  1
  Ni  Ni18  1  0.66791577  0.00181968  1.00018498  1
  Ni  Ni19  1  0.83389249  0.16521255  0.16495715  1
  Fe  Fe20  1  0.66597670  0.00039456  0.33564488  1
  Ni  Ni21  1  0.66792930  0.33299059  0.00105241  1
  Cr  Cr22  1  0.83264654  0.50004968  0.16469040  1
  Cr  Cr23  1  0.66470334  0.32993847  0.33356934  1
  Ni  Ni24  1  0.66477388  0.66609823  0.99755581  1
  Cr  Cr25  1  0.83529344  0.83521947  0.16806479  1
  Cr  Cr26  1  0.66511522  0.66745770  0.33524839  1
  Ni  Ni27  1  0.16835163  0.16612381  0.50135193  1
  Ni  Ni28  1  1.00025188  0.00074479  0.66570083  1
  Ni  Ni29  1  0.16525175  0.16776789  0.83305809  1
  Fe  Fe30  1  0.16896660  0.50101272  0.50128536  1
  Fe  Fe31  1  0.00136361  0.33161111  0.66825448  1
  Ni  Ni32  1  0.16688088  0.49828429  0.83059954  1
  Fe  Fe33  1  0.16839053  0.83538778  0.50079291  1
  Ni  Ni34  1  0.00184011  0.66869748  0.66597516  1
  Cr  Cr35  1  0.16922711  0.83692699  0.83342585  1
  Ni  Ni36  1  0.49849891  0.16576472  0.50057165  1
  Ni  Ni37  1  0.33300757  0.00073328  0.66604001  1
  Cr  Cr38  1  0.49870274  0.16465939  0.83171346  1
  Ni  Ni39  1  0.49665404  0.49966925  0.50096165  1
  Ni  Ni40  1  0.33364870  0.33356041  0.66430419  1
  Ni  Ni41  1  0.50022428  0.50016834  0.83408833  1
  Ni  Ni42  1  0.49867322  0.83574012  0.50174938  1
  Ni  Ni43  1  0.33283365  0.66669707  0.66644353  1
  Ni  Ni44  1  0.50152208  0.83421375  0.83422207  1
  Ni  Ni45  1  0.83452340  0.16391699  0.50263097  1
  Ni  Ni46  1  0.66790044  0.00132698  0.66454938  1
  Fe  Fe47  1  0.83349022  0.16601335  0.83319834  1
  Cr  Cr48  1  0.83608280  0.50054839  0.50246092  1
  Ni  Ni49  1  0.66642620  0.33227725  0.66668660  1
  Ni  Ni50  1  0.83410070  0.49897282  0.83368585  1
  Ni  Ni51  1  0.83587407  0.83639239  0.50000289  1
  Cr  Cr52  1  0.66581856  0.66863567  0.66846821  1
  Ni  Ni53  1  0.83298852  0.83520306  0.83338274  1
" 