4192,Ni63Fe12Cr23_14,-230.491268402483, 170.21610187395,Ni63Fe12Cr23,"# generated using pymatgen
 data_Cr7Fe3Ni17
_symmetry_space_group_name_H-M   'P 1'
_cell_length_a   7.46543134
_cell_length_b   7.46543134
_cell_length_c   10.55771425
_cell_angle_alpha   90.00000000
_cell_angle_beta   90.00000000
_cell_angle_gamma   90.00000000
_symmetry_Int_Tables_number   1
_chemical_formula_structural   Cr7Fe3Ni17
_chemical_formula_sum   'Cr14 Fe6 Ni34'
_cell_volume   588.40955318
_cell_formula_units_Z   2
loop_
 _symmetry_equiv_pos_site_id
 _symmetry_equiv_pos_as_xyz
  1  'x, y, z'
loop_
 _atom_site_type_symbol
 _atom_site_label
 _atom_site_symmetry_multiplicity
 _atom_site_fract_x
 _atom_site_fract_y
 _atom_site_fract_z
 _atom_site_occupancy
  Ni  Ni0  1  1.00006061  0.00043697  0.99791162  1
  Cr  Cr1  1  0.16736098  0.16549241  0.16553357  1
  Cr  Cr2  1  0.00167529  0.00148214  0.33618552  1
  Ni  Ni3  1  0.99659628  0.33283268  0.99852940  1
  Cr  Cr4  1  0.16275689  0.50236085  0.16729453  1
  Ni  Ni5  1  0.99678061  0.33471221  0.33515203  1
  Ni  Ni6  1  0.99991856  0.66708138  0.99925672  1
  Fe  Fe7  1  0.16836547  0.83423047  0.16642955  1
  Fe  Fe8  1  0.99972050  0.66466987  0.33515715  1
  Ni  Ni9  1  0.33281925  0.99842850  0.00155919  1
  Ni  Ni10  1  0.50230181  0.16451057  0.16575098  1
  Ni  Ni11  1  0.33286417  0.99590246  0.33248288  1
  Cr  Cr12  1  0.33388940  0.33268310  0.99919780  1
  Fe  Fe13  1  0.50412808  0.49965481  0.16859100  1
  Cr  Cr14  1  0.33370194  0.33355879  0.33430324  1
  Cr  Cr15  1  0.33290490  0.66867134  0.99846602  1
  Ni  Ni16  1  0.49798174  0.83564998  0.16733158  1
  Ni  Ni17  1  0.33510731  0.66941514  0.33450477  1
  Ni  Ni18  1  0.66743493  0.00172306  0.00025203  1
  Ni  Ni19  1  0.83018923  0.17072607  0.16460112  1
  Cr  Cr20  1  0.66617037  1.00010349  0.33386617  1
  Ni  Ni21  1  0.67003870  0.33234318  0.00211300  1
  Ni  Ni22  1  0.83312261  0.49792101  0.16750867  1
  Ni  Ni23  1  0.66989927  0.33696096  0.33168145  1
  Cr  Cr24  1  0.66765783  0.66559011  0.99874010  1
  Cr  Cr25  1  0.83355998  0.83151829  0.16577738  1
  Ni  Ni26  1  0.66511809  0.66414166  0.33430533  1
  Ni  Ni27  1  0.16528376  0.16829153  0.50132327  1
  Ni  Ni28  1  0.99834848  0.00248306  0.66677614  1
  Ni  Ni29  1  0.16489395  0.16740531  0.83332949  1
  Ni  Ni30  1  0.16625509  0.50037735  0.50060359  1
  Ni  Ni31  1  0.00046446  0.33101166  0.66663328  1
  Ni  Ni32  1  0.16572101  0.50009225  0.83242506  1
  Ni  Ni33  1  0.16853594  0.83163568  0.49796291  1
  Cr  Cr34  1  0.00126052  0.66746192  0.66668258  1
  Ni  Ni35  1  0.16607447  0.83283269  0.83566583  1
  Cr  Cr36  1  0.50084150  0.16637580  0.50077229  1
  Cr  Cr37  1  0.33064934  0.99867086  0.66602875  1
  Cr  Cr38  1  0.50171020  0.16614250  0.83360984  1
  Fe  Fe39  1  0.50009548  0.50192293  0.50019763  1
  Ni  Ni40  1  0.33135385  0.33685939  0.66671928  1
  Fe  Fe41  1  0.50008237  0.49936955  0.83148669  1
  Ni  Ni42  1  0.49919449  0.83175781  0.49947812  1
  Ni  Ni43  1  0.33382988  0.66474800  0.66670462  1
  Fe  Fe44  1  0.50007799  0.83407945  0.83342803  1
  Ni  Ni45  1  0.83429488  0.16882270  0.50203974  1
  Ni  Ni46  1  0.67058308  1.00002674  0.66663563  1
  Ni  Ni47  1  0.83385588  0.16684078  0.83372184  1
  Ni  Ni48  1  0.83443809  0.49880549  0.49736688  1
  Ni  Ni49  1  0.66852688  0.33346639  0.66653033  1
  Ni  Ni50  1  0.83518180  0.49851093  0.83545502  1
  Ni  Ni51  1  0.83260700  0.83272296  0.50055194  1
  Cr  Cr52  1  0.66532978  0.66734353  0.66705560  1
  Ni  Ni53  1  0.83423055  0.83498675  0.83417831  1
" 