1810,Ni63Fe13Cr23_11,-231.62322667563, 177.778737886649,Ni63Fe13Cr23,"# generated using pymatgen
 data_Cr13Fe7Ni34
_symmetry_space_group_name_H-M   'P 1'
_cell_length_a   7.45612543
_cell_length_b   7.45612543
_cell_length_c   10.54455371
_cell_angle_alpha   90.00000000
_cell_angle_beta   90.00000000
_cell_angle_gamma   90.00000000
_symmetry_Int_Tables_number   1
_chemical_formula_structural   Cr13Fe7Ni34
_chemical_formula_sum   'Cr13 Fe7 Ni34'
_cell_volume   586.21187746
_cell_formula_units_Z   1
loop_
 _symmetry_equiv_pos_site_id
 _symmetry_equiv_pos_as_xyz
  1  'x, y, z'
loop_
 _atom_site_type_symbol
 _atom_site_label
 _atom_site_symmetry_multiplicity
 _atom_site_fract_x
 _atom_site_fract_y
 _atom_site_fract_z
 _atom_site_occupancy
  Ni  Ni0  1  0.00164064  0.99921645  0.99996166  1
  Ni  Ni1  1  0.16835126  0.16750824  0.16759437  1
  Ni  Ni2  1  0.99988275  0.00137229  0.33389942  1
  Cr  Cr3  1  0.00119058  0.33510095  0.00313153  1
  Ni  Ni4  1  0.16907320  0.50066232  0.16868506  1
  Ni  Ni5  1  0.99998883  0.33465956  0.33256276  1
  Ni  Ni6  1  0.99951258  0.66870562  1.00041907  1
  Cr  Cr7  1  0.16609811  0.83308074  0.16793575  1
  Ni  Ni8  1  0.99745616  0.66613617  0.33374153  1
  Ni  Ni9  1  0.33441620  0.00076334  0.00116884  1
  Ni  Ni10  1  0.50085093  0.16956287  0.16667817  1
  Fe  Fe11  1  0.33542803  0.00215462  0.33239426  1
  Ni  Ni12  1  0.33531349  0.33402631  0.00129978  1
  Ni  Ni13  1  0.50087444  0.49992311  0.16687711  1
  Ni  Ni14  1  0.33580692  0.33398666  0.33313041  1
  Ni  Ni15  1  0.33576855  0.66743447  1.00054737  1
  Fe  Fe16  1  0.50232538  0.83290842  0.16593699  1
  Fe  Fe17  1  0.33760792  0.66515746  0.33240853  1
  Ni  Ni18  1  0.66626183  0.99864000  0.00196901  1
  Ni  Ni19  1  0.83319001  0.16668890  0.16759999  1
  Cr  Cr20  1  0.66661979  0.99973043  0.33434565  1
  Ni  Ni21  1  0.66488171  0.33635518  0.00282375  1
  Ni  Ni22  1  0.83222965  0.50197232  0.16801983  1
  Ni  Ni23  1  0.66647846  0.33609387  0.33437204  1
  Ni  Ni24  1  0.66690348  0.66734720  1.00061821  1
  Ni  Ni25  1  0.83406143  0.83368734  0.16663141  1
  Ni  Ni26  1  0.66748211  0.66613637  0.33443616  1
  Cr  Cr27  1  0.16693543  0.16828458  0.49878834  1
  Cr  Cr28  1  0.99948553  0.99975033  0.66853288  1
  Ni  Ni29  1  0.16888284  0.16589201  0.83630427  1
  Cr  Cr30  1  0.16963031  0.50153959  0.49842010  1
  Cr  Cr31  1  0.99935323  0.33486615  0.66764414  1
  Cr  Cr32  1  0.17156205  0.50158828  0.83495020  1
  Cr  Cr33  1  0.16769177  0.83230010  0.49768414  1
  Cr  Cr34  1  0.99764969  0.66774372  0.66846522  1
  Ni  Ni35  1  0.16795653  0.83412600  0.83629149  1
  Fe  Fe36  1  0.50296726  0.16924525  0.50010360  1
  Cr  Cr37  1  0.33629972  0.99964254  0.66792963  1
  Cr  Cr38  1  0.50252102  0.16941832  0.83491266  1
  Ni  Ni39  1  0.50238481  0.50145461  0.50118673  1
  Fe  Fe40  1  0.33737276  0.33532643  0.66725867  1
  Ni  Ni41  1  0.50230368  0.50220695  0.83387340  1
  Ni  Ni42  1  0.50268134  0.83098409  0.50045991  1
  Fe  Fe43  1  0.33826167  0.66754080  0.66840102  1
  Ni  Ni44  1  0.50241877  0.83183065  0.83541627  1
  Ni  Ni45  1  0.83176607  0.16805255  0.49995809  1
  Ni  Ni46  1  0.66567622  0.99856773  0.66537848  1
  Cr  Cr47  1  0.83120892  0.16571675  0.83579492  1
  Ni  Ni48  1  0.83064351  0.50061996  0.49946241  1
  Ni  Ni49  1  0.66554841  0.33643979  0.66492482  1
  Fe  Fe50  1  0.82955491  0.50252918  0.83528444  1
  Ni  Ni51  1  0.83153773  0.83369614  0.50043831  1
  Ni  Ni52  1  0.66568029  0.66753091  0.66735229  1
  Ni  Ni53  1  0.83188230  0.83364662  0.83514612  1
" 