5272,Ni63Fe13Cr23_3,-231.601658717659, 175.250705090256,Ni63Fe13Cr23,"# generated using pymatgen
 data_Cr13Fe7Ni34
_symmetry_space_group_name_H-M   'P 1'
_cell_length_a   7.46367208
_cell_length_b   7.46367208
_cell_length_c   10.55522628
_cell_angle_alpha   90.00000000
_cell_angle_beta   90.00000000
_cell_angle_gamma   90.00000000
_symmetry_Int_Tables_number   1
_chemical_formula_structural   Cr13Fe7Ni34
_chemical_formula_sum   'Cr13 Fe7 Ni34'
_cell_volume   587.99366711
_cell_formula_units_Z   1
loop_
 _symmetry_equiv_pos_site_id
 _symmetry_equiv_pos_as_xyz
  1  'x, y, z'
loop_
 _atom_site_type_symbol
 _atom_site_label
 _atom_site_symmetry_multiplicity
 _atom_site_fract_x
 _atom_site_fract_y
 _atom_site_fract_z
 _atom_site_occupancy
  Ni  Ni0  1  0.00179727  0.99918319  0.00086004  1
  Ni  Ni1  1  0.16871295  0.16766565  0.16575889  1
  Cr  Cr2  1  0.99985228  0.00045690  0.33280687  1
  Ni  Ni3  1  0.00053314  0.33472223  0.00153404  1
  Ni  Ni4  1  0.16747563  0.49815541  0.16578077  1
  Cr  Cr5  1  0.00117738  0.33477506  0.33395151  1
  Ni  Ni6  1  0.00164121  0.66654531  0.99975553  1
  Fe  Fe7  1  0.16739473  0.83166182  0.16501971  1
  Ni  Ni8  1  0.00131694  0.66580790  0.33369896  1
  Fe  Fe9  1  0.33241692  0.99790203  0.00081256  1
  Fe  Fe10  1  0.49901890  0.16846558  0.16636624  1
  Fe  Fe11  1  0.33428783  0.00152110  0.33301789  1
  Ni  Ni12  1  0.33345175  0.33671009  0.00204859  1
  Ni  Ni13  1  0.49928735  0.50173711  0.16551530  1
  Ni  Ni14  1  0.33396678  0.33266563  0.33371977  1
  Ni  Ni15  1  0.33344643  0.66592398  0.99941762  1
  Ni  Ni16  1  0.49882434  0.83320350  0.16715292  1
  Cr  Cr17  1  0.33172628  0.66402257  0.33346043  1
  Cr  Cr18  1  0.66846538  0.99921178  0.00044296  1
  Ni  Ni19  1  0.83522631  0.16792863  0.16489995  1
  Ni  Ni20  1  0.66550809  0.00222336  0.33316146  1
  Ni  Ni21  1  0.66665321  0.33643484  0.00198014  1
  Ni  Ni22  1  0.83394463  0.50022074  0.16574696  1
  Cr  Cr23  1  0.66588222  0.33320538  0.33237435  1
  Ni  Ni24  1  0.66554793  0.66516664  0.99921738  1
  Cr  Cr25  1  0.83206470  0.83035995  0.16828765  1
  Ni  Ni26  1  0.66654545  0.66590383  0.33281593  1
  Fe  Fe27  1  0.16705838  0.16662127  0.50065293  1
  Ni  Ni28  1  0.00069851  0.99842792  0.66631793  1
  Cr  Cr29  1  0.16609121  0.16783705  0.83388464  1
  Ni  Ni30  1  0.16559293  0.49999769  0.50001828  1
  Fe  Fe31  1  0.99850051  0.33587058  0.66611372  1
  Ni  Ni32  1  0.16533002  0.50121646  0.83539476  1
  Ni  Ni33  1  0.16670031  0.83431649  0.50023997  1
  Ni  Ni34  1  0.00040983  0.66753015  0.66704430  1
  Ni  Ni35  1  0.16614657  0.83337422  0.83474221  1
  Fe  Fe36  1  0.50092274  0.16726946  0.50085104  1
  Ni  Ni37  1  0.33192796  0.99947987  0.66602488  1
  Cr  Cr38  1  0.49930458  0.16777920  0.83374957  1
  Ni  Ni39  1  0.50146106  0.49917850  0.49995689  1
  Cr  Cr40  1  0.33422389  0.33620379  0.66516785  1
  Ni  Ni41  1  0.50161916  0.50158678  0.83535874  1
  Cr  Cr42  1  0.50104840  0.83363142  0.50056641  1
  Cr  Cr43  1  0.33205968  0.66665570  0.66923692  1
  Ni  Ni44  1  0.50039165  0.83201711  0.83285663  1
  Ni  Ni45  1  0.83309165  0.16730504  0.50275278  1
  Ni  Ni46  1  0.66790384  0.00080290  0.66687326  1
  Cr  Cr47  1  0.83506730  0.16859333  0.83324587  1
  Ni  Ni48  1  0.83356345  0.49969316  0.50110624  1
  Ni  Ni49  1  0.66767521  0.33503009  0.66563946  1
  Ni  Ni50  1  0.83359683  0.50196145  0.83383969  1
  Cr  Cr51  1  0.83305284  0.83180683  0.50025009  1
  Ni  Ni52  1  0.66838371  0.66485920  0.66866020  1
  Ni  Ni53  1  0.83422279  0.83138520  0.83206136  1
" 