8671,Ni63Fe14Cr22_1,-231.681533633884, 180.98213254225,Ni63Fe14Cr22,"# generated using pymatgen
 data_Cr13Fe7Ni34
_symmetry_space_group_name_H-M   'P 1'
_cell_length_a   7.45652033
_cell_length_b   7.45652033
_cell_length_c   10.54511218
_cell_angle_alpha   90.00000000
_cell_angle_beta   90.00000000
_cell_angle_gamma   90.00000000
_symmetry_Int_Tables_number   1
_chemical_formula_structural   Cr13Fe7Ni34
_chemical_formula_sum   'Cr13 Fe7 Ni34'
_cell_volume   586.30502643
_cell_formula_units_Z   1
loop_
 _symmetry_equiv_pos_site_id
 _symmetry_equiv_pos_as_xyz
  1  'x, y, z'
loop_
 _atom_site_type_symbol
 _atom_site_label
 _atom_site_symmetry_multiplicity
 _atom_site_fract_x
 _atom_site_fract_y
 _atom_site_fract_z
 _atom_site_occupancy
  Ni  Ni0  1  0.99980637  0.99908121  0.99913855  1
  Fe  Fe1  1  0.16670991  0.16813449  0.16537833  1
  Cr  Cr2  1  0.00141411  1.00025130  0.33643777  1
  Ni  Ni3  1  0.99941475  0.33447509  0.00104096  1
  Cr  Cr4  1  0.16645075  0.50326124  0.16569082  1
  Cr  Cr5  1  0.99844151  0.33528291  0.33568357  1
  Ni  Ni6  1  0.99891287  0.66841301  0.99994414  1
  Ni  Ni7  1  0.16731116  0.83185952  0.16595830  1
  Ni  Ni8  1  0.99927218  0.66696710  0.33514414  1
  Cr  Cr9  1  0.33450584  0.99987539  0.00238042  1
  Ni  Ni10  1  0.50191347  0.16785609  0.16736579  1
  Cr  Cr11  1  0.33468817  0.99996019  0.33303333  1
  Ni  Ni12  1  0.33606749  0.33456832  0.00172520  1
  Ni  Ni13  1  0.50181095  0.50055981  0.16745614  1
  Cr  Cr14  1  0.33585695  0.33410376  0.33487239  1
  Ni  Ni15  1  0.33579567  0.66678382  0.00147309  1
  Fe  Fe16  1  0.50205198  0.83058943  0.16757873  1
  Ni  Ni17  1  0.33631049  0.66769846  0.33405689  1
  Ni  Ni18  1  0.66810530  0.99986874  1.00060220  1
  Cr  Cr19  1  0.83121646  0.16797773  0.16656529  1
  Fe  Fe20  1  0.66643033  0.00084775  0.33614287  1
  Cr  Cr21  1  0.66659817  0.33623607  0.99837251  1
  Ni  Ni22  1  0.83203500  0.50209767  0.16741726  1
  Ni  Ni23  1  0.66659956  0.33597273  0.33546604  1
  Ni  Ni24  1  0.66762177  0.66671441  1.00028257  1
  Cr  Cr25  1  0.83361064  0.83187526  0.16783365  1
  Ni  Ni26  1  0.66674793  0.66508545  0.33507973  1
  Ni  Ni27  1  0.16808150  0.16943906  0.50340390  1
  Ni  Ni28  1  0.99820465  1.00048355  0.66744134  1
  Cr  Cr29  1  0.16821639  0.16779575  0.83355510  1
  Ni  Ni30  1  0.16712799  0.50081655  0.50192679  1
  Ni  Ni31  1  0.99874729  0.33475252  0.66511450  1
  Cr  Cr32  1  0.16804166  0.50205942  0.83448498  1
  Cr  Cr33  1  0.16767828  0.83125477  0.50373212  1
  Ni  Ni34  1  0.99816177  0.66683360  0.66711589  1
  Ni  Ni35  1  0.16485663  0.83298793  0.83305669  1
  Ni  Ni36  1  0.50256948  0.16693579  0.50203526  1
  Ni  Ni37  1  0.33552988  0.00129974  0.66628918  1
  Ni  Ni38  1  0.50232451  0.16848880  0.83245425  1
  Fe  Fe39  1  0.50159675  0.50191384  0.50128920  1
  Ni  Ni40  1  0.33612699  0.33441728  0.66530761  1
  Ni  Ni41  1  0.50103101  0.49938629  0.83289486  1
  Ni  Ni42  1  0.50320948  0.83432003  0.50019036  1
  Ni  Ni43  1  0.33565323  0.66638481  0.66643294  1
  Cr  Cr44  1  0.50137243  0.83418560  0.83393066  1
  Ni  Ni45  1  0.83127577  0.16771098  0.50246784  1
  Ni  Ni46  1  0.66822962  0.00102242  0.66608862  1
  Fe  Fe47  1  0.83349601  0.16641570  0.83281570  1
  Ni  Ni48  1  0.83399332  0.50164070  0.50020860  1
  Fe  Fe49  1  0.66803160  0.33459955  0.66705997  1
  Ni  Ni50  1  0.83415906  0.50231182  0.83430779  1
  Ni  Ni51  1  0.83107373  0.83294717  0.50120307  1
  Fe  Fe52  1  0.66874181  0.66734495  0.66705370  1
  Ni  Ni53  1  0.83488855  0.83397361  0.83413752  1
" 