5966,Ni63Fe30Cr6_17,-240.04952166967, 213.927024483489,Ni63Fe30Cr6,"# generated using pymatgen
 data_Cr2Fe8Ni17
_symmetry_space_group_name_H-M   'P 1'
_cell_length_a   7.42221349
_cell_length_b   7.42221349
_cell_length_c   10.49659498
_cell_angle_alpha   90.00000000
_cell_angle_beta   90.00000000
_cell_angle_gamma   90.00000000
_symmetry_Int_Tables_number   1
_chemical_formula_structural   Cr2Fe8Ni17
_chemical_formula_sum   'Cr4 Fe16 Ni34'
_cell_volume   578.24957749
_cell_formula_units_Z   2
loop_
 _symmetry_equiv_pos_site_id
 _symmetry_equiv_pos_as_xyz
  1  'x, y, z'
loop_
 _atom_site_type_symbol
 _atom_site_label
 _atom_site_symmetry_multiplicity
 _atom_site_fract_x
 _atom_site_fract_y
 _atom_site_fract_z
 _atom_site_occupancy
  Ni  Ni0  1  1.00241644  1.00206342  0.00472338  1
  Ni  Ni1  1  0.16982014  0.16965296  0.16883416  1
  Fe  Fe2  1  1.00079355  1.00216653  0.33534890  1
  Cr  Cr3  1  0.00387663  0.33602651  0.00348390  1
  Ni  Ni4  1  0.17110796  0.50210562  0.17158665  1
  Ni  Ni5  1  1.00206225  0.33811893  0.33584745  1
  Cr  Cr6  1  0.00332417  0.67087431  0.00366717  1
  Fe  Fe7  1  0.17020420  0.83689979  0.17049455  1
  Ni  Ni8  1  0.00335540  0.66901528  0.33621916  1
  Fe  Fe9  1  0.33644107  0.00353515  0.00305298  1
  Ni  Ni10  1  0.50277582  0.16963569  0.16897440  1
  Fe  Fe11  1  0.33798251  1.00238863  0.33622552  1
  Ni  Ni12  1  0.33840522  0.33680949  0.00309480  1
  Ni  Ni13  1  0.50244032  0.50307403  0.16905940  1
  Fe  Fe14  1  0.33757335  0.33758113  0.33531348  1
  Ni  Ni15  1  0.33783996  0.66880418  0.00335157  1
  Ni  Ni16  1  0.50408688  0.83635194  0.16878145  1
  Fe  Fe17  1  0.33698101  0.66909062  0.33652077  1
  Ni  Ni18  1  0.66905485  1.00263106  0.00377720  1
  Ni  Ni19  1  0.83646248  0.16800814  0.17070657  1
  Ni  Ni20  1  0.66912845  0.00352527  0.33725303  1
  Fe  Fe21  1  0.66685703  0.33671901  0.00391972  1
  Ni  Ni22  1  0.83551171  0.50341693  0.16995348  1
  Ni  Ni23  1  0.66982568  0.33552963  0.33546761  1
  Fe  Fe24  1  0.66806932  0.67012269  0.00381706  1
  Ni  Ni25  1  0.83549679  0.83763672  0.16992123  1
  Ni  Ni26  1  0.67013508  0.67000679  0.33605754  1
  Cr  Cr27  1  0.16999663  0.17039275  0.50418890  1
  Ni  Ni28  1  0.00308167  1.00033487  0.66958579  1
  Fe  Fe29  1  0.17228017  0.16915487  0.83578504  1
  Ni  Ni30  1  0.16942199  0.50446663  0.50332290  1
  Fe  Fe31  1  0.00418017  0.33841741  0.66928147  1
  Ni  Ni32  1  0.17227024  0.50304730  0.83414801  1
  Ni  Ni33  1  0.16886710  0.83474430  0.50331145  1
  Ni  Ni34  1  0.00366485  0.67034581  0.66966414  1
  Fe  Fe35  1  0.17051048  0.83680014  0.83467228  1
  Ni  Ni36  1  0.50428742  0.16960539  0.50347759  1
  Ni  Ni37  1  0.33705031  1.00249451  0.67126578  1
  Ni  Ni38  1  0.50118522  0.17036779  0.83661247  1
  Ni  Ni39  1  0.50296116  0.50281630  0.50319407  1
  Ni  Ni40  1  0.33833832  0.33708892  0.67044435  1
  Ni  Ni41  1  0.50116131  0.50245773  0.83680234  1
  Ni  Ni42  1  0.50375926  0.83663761  0.50404653  1
  Ni  Ni43  1  0.33517509  0.66947781  0.66902642  1
  Fe  Fe44  1  0.50275868  0.83600169  0.83655170  1
  Fe  Fe45  1  0.83432156  0.16996509  0.50259617  1
  Fe  Fe46  1  0.66832843  1.00218538  0.66892044  1
  Cr  Cr47  1  0.83597444  0.16746246  0.83535064  1
  Ni  Ni48  1  0.83668033  0.50394083  0.50408538  1
  Ni  Ni49  1  0.66806096  0.33650192  0.66878371  1
  Fe  Fe50  1  0.83446484  0.50434417  0.83441416  1
  Ni  Ni51  1  0.83643225  0.83607251  0.50335652  1
  Fe  Fe52  1  0.66939974  0.66968831  0.66896614  1
  Ni  Ni53  1  0.83645351  0.83649140  0.83578681  1
" 