3820,Ni63Fe12Cr23_10,-230.566520762699, 170.312394534344,Ni63Fe12Cr23,"# generated using pymatgen
 data_Cr7Fe3Ni17
_symmetry_space_group_name_H-M   'P 1'
_cell_length_a   7.46194036
_cell_length_b   7.46194036
_cell_length_c   10.55277725
_cell_angle_alpha   90.00000000
_cell_angle_beta   90.00000000
_cell_angle_gamma   90.00000000
_symmetry_Int_Tables_number   1
_chemical_formula_structural   Cr7Fe3Ni17
_chemical_formula_sum   'Cr14 Fe6 Ni34'
_cell_volume   587.58448219
_cell_formula_units_Z   2
loop_
 _symmetry_equiv_pos_site_id
 _symmetry_equiv_pos_as_xyz
  1  'x, y, z'
loop_
 _atom_site_type_symbol
 _atom_site_label
 _atom_site_symmetry_multiplicity
 _atom_site_fract_x
 _atom_site_fract_y
 _atom_site_fract_z
 _atom_site_occupancy
  Cr  Cr0  1  0.99966853  0.99978643  0.00167582  1
  Ni  Ni1  1  0.16991659  0.16643593  0.16885848  1
  Ni  Ni2  1  0.00105450  0.00301241  0.33439084  1
  Cr  Cr3  1  0.99990768  0.33285977  0.00194450  1
  Fe  Fe4  1  0.16864575  0.49950259  0.16667615  1
  Ni  Ni5  1  0.00099888  0.33098496  0.33486982  1
  Ni  Ni6  1  0.00090848  0.66804222  0.99765123  1
  Ni  Ni7  1  0.16974823  0.83535645  0.16509948  1
  Cr  Cr8  1  0.00136461  0.66724952  0.33653345  1
  Ni  Ni9  1  0.33615635  0.00056308  1.00018754  1
  Ni  Ni10  1  0.49958591  0.16692740  0.16610298  1
  Ni  Ni11  1  0.33482080  0.00140001  0.33481389  1
  Ni  Ni12  1  0.33681247  0.33265577  0.00296807  1
  Fe  Fe13  1  0.50057720  0.49894932  0.16720081  1
  Ni  Ni14  1  0.33445377  0.33207281  0.33379588  1
  Ni  Ni15  1  0.33375834  0.66762886  0.00336718  1
  Ni  Ni16  1  0.49908594  0.83484480  0.16649203  1
  Cr  Cr17  1  0.33680592  0.66707154  0.33361529  1
  Ni  Ni18  1  0.66410852  0.00159566  0.00141026  1
  Ni  Ni19  1  0.83149366  0.16870777  0.16969695  1
  Ni  Ni20  1  0.66516080  0.00169040  0.33437708  1
  Ni  Ni21  1  0.66380924  0.33195494  1.00005977  1
  Cr  Cr22  1  0.83115755  0.49978134  0.16685809  1
  Ni  Ni23  1  0.66562896  0.33204987  0.33544648  1
  Ni  Ni24  1  0.66602641  0.66764588  1.00023279  1
  Cr  Cr25  1  0.83131052  0.83474333  0.16870477  1
  Ni  Ni26  1  0.66486683  0.66725626  0.33612033  1
  Ni  Ni27  1  0.16897076  0.16666595  0.49845808  1
  Cr  Cr28  1  0.99824139  0.99865766  0.66599703  1
  Cr  Cr29  1  0.17420483  0.16509445  0.83325240  1
  Fe  Fe30  1  0.16751477  0.49834204  0.49994865  1
  Cr  Cr31  1  0.99997421  0.33443342  0.66496801  1
  Cr  Cr32  1  0.16791682  0.50161698  0.83458873  1
  Ni  Ni33  1  0.16658210  0.83642441  0.50081154  1
  Ni  Ni34  1  0.99780135  0.66812681  0.66726465  1
  Ni  Ni35  1  0.16626386  0.83195151  0.83481319  1
  Ni  Ni36  1  0.49950823  0.16763523  0.50156323  1
  Fe  Fe37  1  0.33538468  1.00018720  0.66487334  1
  Ni  Ni38  1  0.50034118  0.16784415  0.83272218  1
  Ni  Ni39  1  0.50316565  0.49846649  0.49895978  1
  Ni  Ni40  1  0.33667047  0.33192033  0.66437220  1
  Cr  Cr41  1  0.50155034  0.49802142  0.83464141  1
  Ni  Ni42  1  0.50225942  0.83496448  0.49946212  1
  Cr  Cr43  1  0.33441102  0.66677053  0.66285680  1
  Cr  Cr44  1  0.50026427  0.83604345  0.83428590  1
  Ni  Ni45  1  0.83256245  0.16750847  0.49697945  1
  Ni  Ni46  1  0.66596873  0.00046254  0.66533901  1
  Cr  Cr47  1  0.82795539  0.16679475  0.83447464  1
  Ni  Ni48  1  0.83139770  0.50070999  0.50170611  1
  Fe  Fe49  1  0.66572646  0.33348023  0.66455919  1
  Fe  Fe50  1  0.83190678  0.50338242  0.83354291  1
  Ni  Ni51  1  0.83234163  0.83316976  0.49988276  1
  Ni  Ni52  1  0.66889312  0.66875475  0.66505838  1
  Ni  Ni53  1  0.83286984  0.83028120  0.83394824  1
" 