5222,Ni63Cr37_9,-213.823650294271, 134.496613190388,Ni63Cr37,"# generated using pymatgen
 data_Cr17Ni10
_symmetry_space_group_name_H-M   'P 1'
_cell_length_a   7.54670846
_cell_length_b   7.54670846
_cell_length_c   10.67265745
_cell_angle_alpha   90.00000000
_cell_angle_beta   90.00000000
_cell_angle_gamma   90.00000000
_symmetry_Int_Tables_number   1
_chemical_formula_structural   Cr17Ni10
_chemical_formula_sum   'Cr34 Ni20'
_cell_volume   607.83781681
_cell_formula_units_Z   2
loop_
 _symmetry_equiv_pos_site_id
 _symmetry_equiv_pos_as_xyz
  1  'x, y, z'
loop_
 _atom_site_type_symbol
 _atom_site_label
 _atom_site_symmetry_multiplicity
 _atom_site_fract_x
 _atom_site_fract_y
 _atom_site_fract_z
 _atom_site_occupancy
  Cr  Cr0  1  0.99246024  0.99431735  -0.00383066  1
  Cr  Cr1  1  0.16500062  0.15860799  0.16174065  1
  Cr  Cr2  1  0.99329751  0.99347624  0.32556283  1
  Cr  Cr3  1  0.99276780  0.32732520  0.99166874  1
  Cr  Cr4  1  0.16022897  0.49756844  0.16194321  1
  Cr  Cr5  1  0.99466412  0.32847194  0.33080131  1
  Cr  Cr6  1  0.99431769  0.66244754  0.99461667  1
  Ni  Ni7  1  0.16111003  0.82901072  0.16234028  1
  Ni  Ni8  1  0.99306122  0.66230160  0.32787973  1
  Ni  Ni9  1  0.33142701  0.99366816  -0.00402305  1
  Ni  Ni10  1  0.49625302  0.15708056  0.16042036  1
  Ni  Ni11  1  0.33172653  0.99276965  0.32692757  1
  Cr  Cr12  1  0.32952366  0.32692414  -0.00336411  1
  Cr  Cr13  1  0.49755200  0.49249676  0.16053635  1
  Cr  Cr14  1  0.32861194  0.32584629  0.32758174  1
  Cr  Cr15  1  0.32833485  0.66376696  0.99230263  1
  Cr  Cr16  1  0.49593301  0.82908314  0.16143794  1
  Cr  Cr17  1  0.32934809  0.66266643  0.32909648  1
  Ni  Ni18  1  0.65920690  -0.00363708  0.99464469  1
  Cr  Cr19  1  0.82384086  0.16026805  0.15989260  1
  Ni  Ni20  1  0.65808484  0.99165893  0.32698530  1
  Ni  Ni21  1  0.66215586  0.32455965  0.99350887  1
  Cr  Cr22  1  0.82673488  0.49768055  0.16248380  1
  Cr  Cr23  1  0.66106201  0.32616847  0.32780544  1
  Cr  Cr24  1  0.66188177  0.66379530  0.99379991  1
  Ni  Ni25  1  0.82744771  0.82827970  0.16339107  1
  Ni  Ni26  1  0.66387185  0.66474044  0.32917039  1
  Cr  Cr27  1  0.16336770  0.15930968  0.49511059  1
  Cr  Cr28  1  0.99201235  -0.00412765  0.66299474  1
  Cr  Cr29  1  0.16256154  0.15988120  0.82740401  1
  Ni  Ni30  1  0.15849955  0.49678010  0.49384163  1
  Cr  Cr31  1  0.99302091  0.32874997  0.66174372  1
  Ni  Ni32  1  0.15941403  0.49437314  0.82772611  1
  Cr  Cr33  1  0.16259814  0.82883286  0.49448613  1
  Cr  Cr34  1  0.99427476  0.65944958  0.66181780  1
  Cr  Cr35  1  0.16426550  0.82944401  0.82814743  1
  Cr  Cr36  1  0.49543488  0.15796614  0.49527535  1
  Ni  Ni37  1  0.33305463  0.99273024  0.66124657  1
  Cr  Cr38  1  0.49590060  0.16004636  0.82823546  1
  Cr  Cr39  1  0.49787430  0.49637422  0.49389361  1
  Cr  Cr40  1  0.32801355  0.32961183  0.65980911  1
  Cr  Cr41  1  0.49671850  0.49397616  0.82970984  1
  Ni  Ni42  1  0.49585745  0.83092637  0.49450376  1
  Cr  Cr43  1  0.32972287  0.66258102  0.66260075  1
  Ni  Ni44  1  0.49530531  0.83253110  0.82753503  1
  Cr  Cr45  1  0.82496745  0.16079574  0.49693576  1
  Ni  Ni46  1  0.65786653  -0.00445474  0.66250080  1
  Ni  Ni47  1  0.82349051  0.16290964  0.82786687  1
  Ni  Ni48  1  0.82861434  0.49600820  0.49401709  1
  Ni  Ni49  1  0.66387628  0.32742802  0.66277902  1
  Ni  Ni50  1  0.82720363  0.49127235  0.82781590  1
  Cr  Cr51  1  0.82553917  0.82732922  0.49228611  1
  Cr  Cr52  1  0.66068720  0.66270573  0.66113124  1
  Cr  Cr53  1  0.82494925  0.83022228  0.82826071  1
" 