2465,Ni63Cr37_4,-213.696072439454, 133.105729886665,Ni63Cr37,"# generated using pymatgen
 data_Cr17Ni10
_symmetry_space_group_name_H-M   'P 1'
_cell_length_a   7.55061408
_cell_length_b   7.55061408
_cell_length_c   10.67818084
_cell_angle_alpha   90.00000000
_cell_angle_beta   90.00000000
_cell_angle_gamma   90.00000000
_symmetry_Int_Tables_number   1
_chemical_formula_structural   Cr17Ni10
_chemical_formula_sum   'Cr34 Ni20'
_cell_volume   608.78202234
_cell_formula_units_Z   2
loop_
 _symmetry_equiv_pos_site_id
 _symmetry_equiv_pos_as_xyz
  1  'x, y, z'
loop_
 _atom_site_type_symbol
 _atom_site_label
 _atom_site_symmetry_multiplicity
 _atom_site_fract_x
 _atom_site_fract_y
 _atom_site_fract_z
 _atom_site_occupancy
  Cr  Cr0  1  -0.00477069  -0.00351176  -0.00382840  1
  Ni  Ni1  1  0.16038056  0.15995861  0.16022179  1
  Ni  Ni2  1  -0.00420708  -0.00448841  0.32721399  1
  Ni  Ni3  1  0.99337267  0.32614820  -0.00495546  1
  Cr  Cr4  1  0.16104369  0.49513185  0.16175904  1
  Cr  Cr5  1  -0.00462657  0.32512685  0.32635329  1
  Cr  Cr6  1  0.99307896  0.65837176  0.99353616  1
  Cr  Cr7  1  0.16210913  0.82770703  0.16319314  1
  Ni  Ni8  1  -0.00361952  0.66288966  0.32765041  1
  Ni  Ni9  1  0.33160095  -0.00536313  -0.00363617  1
  Ni  Ni10  1  0.49461761  0.15736714  0.15897560  1
  Cr  Cr11  1  0.32677400  0.99422848  0.32743486  1
  Cr  Cr12  1  0.32527531  0.32469074  -0.00360312  1
  Cr  Cr13  1  0.49286628  0.49462753  0.16328891  1
  Cr  Cr14  1  0.32761852  0.32725201  0.32888097  1
  Cr  Cr15  1  0.32897639  0.66480975  0.99419772  1
  Ni  Ni16  1  0.49347946  0.83118235  0.15979101  1
  Ni  Ni17  1  0.32891000  0.66248279  0.32901935  1
  Ni  Ni18  1  0.65735042  -0.00546474  -0.00330734  1
  Ni  Ni19  1  0.82837312  0.15988216  0.16007335  1
  Cr  Cr20  1  0.66118064  0.99417645  0.32613043  1
  Cr  Cr21  1  0.66393657  0.32682259  -0.00425184  1
  Cr  Cr22  1  0.82934242  0.49357385  0.16092219  1
  Cr  Cr23  1  0.66054917  0.32739379  0.32756950  1
  Cr  Cr24  1  0.66124005  0.66368009  0.99265828  1
  Cr  Cr25  1  0.82775915  0.83000212  0.16328653  1
  Cr  Cr26  1  0.65918077  0.66200844  0.32907203  1
  Ni  Ni27  1  0.15822237  0.16023878  0.49551506  1
  Ni  Ni28  1  -0.00443188  -0.00470658  0.65947045  1
  Cr  Cr29  1  0.16046233  0.16104113  0.82713751  1
  Cr  Cr30  1  0.16252454  0.49613886  0.49431183  1
  Ni  Ni31  1  -0.00551412  0.32823284  0.66170194  1
  Cr  Cr32  1  0.15898963  0.49459849  0.82723074  1
  Cr  Cr33  1  0.15989405  0.82748522  0.49386408  1
  Ni  Ni34  1  0.99334446  0.65997172  0.66218110  1
  Cr  Cr35  1  0.16273836  0.82765049  0.82627715  1
  Cr  Cr36  1  0.49398608  0.16203347  0.49480854  1
  Cr  Cr37  1  0.32677860  0.99255833  0.66076521  1
  Cr  Cr38  1  0.49489921  0.15819794  0.83067154  1
  Ni  Ni39  1  0.49314554  0.49940307  0.49533558  1
  Cr  Cr40  1  0.32600404  0.32846588  0.65832470  1
  Cr  Cr41  1  0.49512597  0.49602406  0.82556319  1
  Ni  Ni42  1  0.49323016  0.82294701  0.49567344  1
  Ni  Ni43  1  0.33042406  0.66220509  0.65993284  1
  Ni  Ni44  1  0.49472037  0.82748134  0.82802307  1
  Cr  Cr45  1  0.83053111  0.15931702  0.49533635  1
  Cr  Cr46  1  0.66055635  0.99078753  0.66109665  1
  Cr  Cr47  1  0.82809042  0.16214325  0.82736874  1
  Cr  Cr48  1  0.82747349  0.49596660  0.49575249  1
  Cr  Cr49  1  0.66247912  0.33128710  0.66013318  1
  Ni  Ni50  1  0.82975577  0.49454086  0.82576467  1
  Cr  Cr51  1  0.82950187  0.82796817  0.49437019  1
  Ni  Ni52  1  0.65970248  0.66110877  0.66128053  1
  Cr  Cr53  1  0.82675095  0.82740466  0.82564031  1
" 