8738,Ni63Fe26Cr10_13,-238.182666578863, 205.727789609199,Ni63Fe26Cr10,"# generated using pymatgen
 data_Cr3Fe7Ni17
_symmetry_space_group_name_H-M   'P 1'
_cell_length_a   7.42675861
_cell_length_b   7.42675861
_cell_length_c   10.50302275
_cell_angle_alpha   90.00000000
_cell_angle_beta   90.00000000
_cell_angle_gamma   90.00000000
_symmetry_Int_Tables_number   1
_chemical_formula_structural   Cr3Fe7Ni17
_chemical_formula_sum   'Cr6 Fe14 Ni34'
_cell_volume   579.31253051
_cell_formula_units_Z   2
loop_
 _symmetry_equiv_pos_site_id
 _symmetry_equiv_pos_as_xyz
  1  'x, y, z'
loop_
 _atom_site_type_symbol
 _atom_site_label
 _atom_site_symmetry_multiplicity
 _atom_site_fract_x
 _atom_site_fract_y
 _atom_site_fract_z
 _atom_site_occupancy
  Fe  Fe0  1  1.00157235  0.00373404  0.00295929  1
  Ni  Ni1  1  0.16902523  0.17051059  0.17028771  1
  Ni  Ni2  1  0.00387596  0.00296975  0.33634558  1
  Fe  Fe3  1  1.00232677  0.33610648  0.00362294  1
  Ni  Ni4  1  0.16899019  0.50068117  0.17107733  1
  Ni  Ni5  1  0.00309698  0.33652678  0.33465686  1
  Cr  Cr6  1  1.00246132  0.66859896  1.00114636  1
  Cr  Cr7  1  0.17123493  0.83698830  0.17088777  1
  Ni  Ni8  1  1.00151620  0.66864056  0.33693809  1
  Ni  Ni9  1  0.33766477  1.00125369  1.00232503  1
  Ni  Ni10  1  0.50151453  0.16793938  0.17060932  1
  Ni  Ni11  1  0.33502942  0.00441233  0.33668108  1
  Cr  Cr12  1  0.33580501  0.33655755  0.00297218  1
  Fe  Fe13  1  0.50328695  0.50403590  0.17057076  1
  Ni  Ni14  1  0.33598529  0.33526133  0.33554396  1
  Ni  Ni15  1  0.33766584  0.67089048  1.00223321  1
  Ni  Ni16  1  0.50334104  0.83536673  0.16836389  1
  Fe  Fe17  1  0.33648702  0.66836311  0.33634439  1
  Fe  Fe18  1  0.66815399  1.00065756  1.00260768  1
  Ni  Ni19  1  0.83759748  0.17030031  0.16975683  1
  Cr  Cr20  1  0.66993225  0.00325241  0.33488983  1
  Cr  Cr21  1  0.67023642  0.33576386  0.00321587  1
  Ni  Ni22  1  0.83601782  0.50250557  0.17169088  1
  Ni  Ni23  1  0.66905645  0.33762351  0.33568261  1
  Ni  Ni24  1  0.66823914  0.67109189  1.00230373  1
  Ni  Ni25  1  0.83345430  0.83533297  0.16938940  1
  Ni  Ni26  1  0.67049653  0.66768301  0.33547521  1
  Ni  Ni27  1  0.16937886  0.16887847  0.50197430  1
  Ni  Ni28  1  1.00126472  1.00164185  0.66891003  1
  Cr  Cr29  1  0.16836798  0.16867308  0.83603873  1
  Fe  Fe30  1  0.16769265  0.50230762  0.50276820  1
  Ni  Ni31  1  1.00116710  0.33702353  0.66983926  1
  Ni  Ni32  1  0.16930357  0.50489480  0.83418392  1
  Fe  Fe33  1  0.16759035  0.83659198  0.50315066  1
  Ni  Ni34  1  0.00400955  0.66947295  0.66991124  1
  Ni  Ni35  1  0.17165621  0.83482153  0.83483933  1
  Fe  Fe36  1  0.50309122  0.17032951  0.50317652  1
  Fe  Fe37  1  0.33634964  1.00199421  0.66914894  1
  Ni  Ni38  1  0.50437962  0.16734013  0.83370274  1
  Fe  Fe39  1  0.50385658  0.50204327  0.50291150  1
  Fe  Fe40  1  0.33629109  0.33678081  0.66885071  1
  Ni  Ni41  1  0.50303634  0.50542549  0.83477779  1
  Fe  Fe42  1  0.50286913  0.83576563  0.50335893  1
  Ni  Ni43  1  0.33475280  0.66929850  0.67071558  1
  Ni  Ni44  1  0.50176613  0.83537031  0.83660446  1
  Ni  Ni45  1  0.83759037  0.17041185  0.50329636  1
  Ni  Ni46  1  0.66965429  0.00437672  0.67063987  1
  Ni  Ni47  1  0.83524868  0.16969394  0.83508598  1
  Ni  Ni48  1  0.83560375  0.50298157  0.50238058  1
  Ni  Ni49  1  0.66947735  0.33456064  0.66967109  1
  Ni  Ni50  1  0.83579894  0.50227802  0.83406429  1
  Ni  Ni51  1  0.83658796  0.83474337  0.50342450  1
  Fe  Fe52  1  0.67045866  0.66921507  0.66951139  1
  Fe  Fe53  1  0.83516307  0.83650768  0.83495608  1
" 