4469,Ni63Fe26Cr10_12,-237.814737977405, 206.247878260173,Ni63Fe26Cr10,"# generated using pymatgen
 data_Cr3Fe7Ni17
_symmetry_space_group_name_H-M   'P 1'
_cell_length_a   7.43058593
_cell_length_b   7.43058593
_cell_length_c   10.50843539
_cell_angle_alpha   90.00000000
_cell_angle_beta   90.00000000
_cell_angle_gamma   90.00000000
_symmetry_Int_Tables_number   1
_chemical_formula_structural   Cr3Fe7Ni17
_chemical_formula_sum   'Cr6 Fe14 Ni34'
_cell_volume   580.20862411
_cell_formula_units_Z   2
loop_
 _symmetry_equiv_pos_site_id
 _symmetry_equiv_pos_as_xyz
  1  'x, y, z'
loop_
 _atom_site_type_symbol
 _atom_site_label
 _atom_site_symmetry_multiplicity
 _atom_site_fract_x
 _atom_site_fract_y
 _atom_site_fract_z
 _atom_site_occupancy
  Ni  Ni0  1  0.00505130  0.00379215  1.00130753  1
  Ni  Ni1  1  0.16821395  0.16973648  0.16912248  1
  Ni  Ni2  1  1.00131055  0.00395422  0.33681017  1
  Ni  Ni3  1  0.00279414  0.33536612  0.00332917  1
  Ni  Ni4  1  0.16867872  0.50123133  0.16820404  1
  Ni  Ni5  1  1.00207639  0.33540245  0.33464563  1
  Ni  Ni6  1  0.00460213  0.66827376  1.00141538  1
  Ni  Ni7  1  0.16749345  0.83641910  0.16699954  1
  Ni  Ni8  1  1.00210968  0.66801921  0.33671184  1
  Fe  Fe9  1  0.33240741  1.00164488  1.00094934  1
  Cr  Cr10  1  0.50130712  0.17244795  0.16951818  1
  Cr  Cr11  1  0.33567056  1.00238122  0.33536876  1
  Ni  Ni12  1  0.33433707  0.33755096  1.00111903  1
  Ni  Ni13  1  0.50356861  0.50167333  0.16799140  1
  Ni  Ni14  1  0.33476142  0.33671270  0.33757949  1
  Ni  Ni15  1  0.33541673  0.66924862  0.00320121  1
  Fe  Fe16  1  0.50135496  0.83218592  0.16770333  1
  Cr  Cr17  1  0.33582504  0.66761331  0.33493936  1
  Cr  Cr18  1  0.67013179  0.00273340  1.00115949  1
  Fe  Fe19  1  0.83919806  0.17235028  0.17064216  1
  Ni  Ni20  1  0.67077176  0.00293309  0.33793746  1
  Ni  Ni21  1  0.67028917  0.33794390  1.00173373  1
  Ni  Ni22  1  0.83510517  0.50238186  0.17019680  1
  Ni  Ni23  1  0.67049895  0.33594325  0.33608113  1
  Ni  Ni24  1  0.66720676  0.66693432  1.00140897  1
  Cr  Cr25  1  0.83768540  0.83361020  0.16994629  1
  Ni  Ni26  1  0.66934668  0.66847772  0.33670907  1
  Fe  Fe27  1  0.16815803  0.17022715  0.50310924  1
  Fe  Fe28  1  1.00141744  1.00204482  0.66942277  1
  Ni  Ni29  1  0.17041714  0.16868392  0.83535596  1
  Fe  Fe30  1  0.16672663  0.50006898  0.50180549  1
  Ni  Ni31  1  1.00177089  0.33592633  0.66940039  1
  Fe  Fe32  1  0.16713014  0.50284825  0.83728414  1
  Fe  Fe33  1  0.16636363  0.83710722  0.50320753  1
  Ni  Ni34  1  1.00156445  0.66828656  0.66925988  1
  Ni  Ni35  1  0.16776518  0.83797694  0.83684942  1
  Ni  Ni36  1  0.50271687  0.17144349  0.50404984  1
  Ni  Ni37  1  0.33670817  0.00328031  0.66982771  1
  Fe  Fe38  1  0.50194857  0.16904650  0.83431381  1
  Ni  Ni39  1  0.50378863  0.49926634  0.50230874  1
  Fe  Fe40  1  0.33648653  0.33420054  0.66871576  1
  Fe  Fe41  1  0.50361787  0.50285083  0.83699493  1
  Fe  Fe42  1  0.50665756  0.83740158  0.50407116  1
  Cr  Cr43  1  0.33537974  0.67033783  0.66886101  1
  Ni  Ni44  1  0.50285413  0.83585163  0.83591652  1
  Ni  Ni45  1  0.83500478  0.16770745  0.50172118  1
  Ni  Ni46  1  0.66798127  0.00298380  0.66867378  1
  Fe  Fe47  1  0.83729984  0.16932716  0.83449530  1
  Fe  Fe48  1  0.83474718  0.50180375  0.50270390  1
  Ni  Ni49  1  0.67029660  0.33462180  0.66961345  1
  Ni  Ni50  1  0.83486556  0.50372165  0.83525701  1
  Ni  Ni51  1  0.83659836  0.83560182  0.50312219  1
  Ni  Ni52  1  0.67038734  0.66967607  0.66931988  1
  Ni  Ni53  1  0.83662282  0.83323379  0.83409629  1
" 