7568,Ni63Fe13Cr23_16,-231.428555282266, 176.874361277028,Ni63Fe13Cr23,"# generated using pymatgen
 data_Cr13Fe7Ni34
_symmetry_space_group_name_H-M   'P 1'
_cell_length_a   7.45628038
_cell_length_b   7.45628038
_cell_length_c   10.54477284
_cell_angle_alpha   90.00000000
_cell_angle_beta   90.00000000
_cell_angle_gamma   90.00000000
_symmetry_Int_Tables_number   1
_chemical_formula_structural   Cr13Fe7Ni34
_chemical_formula_sum   'Cr13 Fe7 Ni34'
_cell_volume   586.24842578
_cell_formula_units_Z   1
loop_
 _symmetry_equiv_pos_site_id
 _symmetry_equiv_pos_as_xyz
  1  'x, y, z'
loop_
 _atom_site_type_symbol
 _atom_site_label
 _atom_site_symmetry_multiplicity
 _atom_site_fract_x
 _atom_site_fract_y
 _atom_site_fract_z
 _atom_site_occupancy
  Ni  Ni0  1  0.99707053  0.99976029  1.00003890  1
  Cr  Cr1  1  0.16721546  0.16902456  0.16814536  1
  Cr  Cr2  1  0.99855913  0.99986331  0.33428179  1
  Fe  Fe3  1  0.00184922  0.33296881  0.99989333  1
  Ni  Ni4  1  0.17000654  0.50017386  0.16673879  1
  Ni  Ni5  1  0.99956704  0.33542434  0.33517081  1
  Fe  Fe6  1  0.00233431  0.66958600  1.00061337  1
  Fe  Fe7  1  0.16614698  0.83208258  0.16686227  1
  Cr  Cr8  1  0.00207613  0.66703614  0.33539298  1
  Cr  Cr9  1  0.33308186  1.00034012  0.99936133  1
  Fe  Fe10  1  0.50315272  0.16939694  0.16891596  1
  Ni  Ni11  1  0.33678694  0.99979106  0.33505739  1
  Ni  Ni12  1  0.33291362  0.33761612  0.00173991  1
  Fe  Fe13  1  0.49925633  0.49940274  0.16717721  1
  Ni  Ni14  1  0.33527358  0.33547819  0.33272750  1
  Ni  Ni15  1  0.33247817  0.66450697  1.00049571  1
  Cr  Cr16  1  0.50178106  0.83342042  0.16862492  1
  Ni  Ni17  1  0.33293638  0.66689554  0.33368493  1
  Ni  Ni18  1  0.67240055  1.00019575  1.00056138  1
  Ni  Ni19  1  0.83245392  0.16655012  0.16655387  1
  Ni  Ni20  1  0.66695540  0.00255212  0.33463152  1
  Fe  Fe21  1  0.66715901  0.33217829  0.00205677  1
  Cr  Cr22  1  0.83368892  0.50024324  0.16709244  1
  Ni  Ni23  1  0.66732746  0.33157627  0.33344536  1
  Ni  Ni24  1  0.66778389  0.66918859  0.00077895  1
  Ni  Ni25  1  0.83246851  0.83578574  0.16540394  1
  Fe  Fe26  1  0.66656355  0.66820420  0.33504746  1
  Cr  Cr27  1  0.16876703  0.16905688  0.50113523  1
  Cr  Cr28  1  0.99961598  0.00119533  0.66815832  1
  Ni  Ni29  1  0.16583293  0.16887822  0.83390164  1
  Ni  Ni30  1  0.16688056  0.50033898  0.50057940  1
  Ni  Ni31  1  1.00058945  0.33442054  0.66738087  1
  Ni  Ni32  1  0.16847223  0.49943884  0.83484898  1
  Ni  Ni33  1  0.17105795  0.83264922  0.49953848  1
  Cr  Cr34  1  0.00161399  0.66660353  0.66639918  1
  Ni  Ni35  1  0.16881301  0.83384789  0.83580730  1
  Ni  Ni36  1  0.50204184  0.16512929  0.49976981  1
  Ni  Ni37  1  0.33603644  0.99922352  0.66739714  1
  Cr  Cr38  1  0.50068085  0.16587466  0.83275140  1
  Cr  Cr39  1  0.50093470  0.50144100  0.50086548  1
  Ni  Ni40  1  0.33263965  0.33447954  0.66769996  1
  Cr  Cr41  1  0.49945376  0.50323284  0.83408062  1
  Ni  Ni42  1  0.50083339  0.83563591  0.50141914  1
  Ni  Ni43  1  0.33400368  0.66846213  0.66798703  1
  Ni  Ni44  1  0.50133340  0.83323662  0.83238920  1
  Ni  Ni45  1  0.83134067  0.16930271  0.50034847  1
  Ni  Ni46  1  0.66661132  1.00024550  0.66697246  1
  Ni  Ni47  1  0.83566707  0.16618534  0.83526482  1
  Ni  Ni48  1  0.83432559  0.49913053  0.50059246  1
  Ni  Ni49  1  0.66893706  0.33238535  0.66616747  1
  Cr  Cr50  1  0.83437318  0.50020962  0.83393997  1
  Ni  Ni51  1  0.83027363  0.83373279  0.50023455  1
  Ni  Ni52  1  0.66655243  0.66953508  0.66633893  1
  Ni  Ni53  1  0.83202031  0.83587513  0.83652688  1
" 