4358,Ni63Fe30Cr6_13,-239.315654600387, 209.91147635829,Ni63Fe30Cr6,"# generated using pymatgen
 data_Cr2Fe8Ni17
_symmetry_space_group_name_H-M   'P 1'
_cell_length_a   7.41981481
_cell_length_b   7.41981481
_cell_length_c   10.49320274
_cell_angle_alpha   90.00000000
_cell_angle_beta   90.00000000
_cell_angle_gamma   90.00000000
_symmetry_Int_Tables_number   1
_chemical_formula_structural   Cr2Fe8Ni17
_chemical_formula_sum   'Cr4 Fe16 Ni34'
_cell_volume   577.68913015
_cell_formula_units_Z   2
loop_
 _symmetry_equiv_pos_site_id
 _symmetry_equiv_pos_as_xyz
  1  'x, y, z'
loop_
 _atom_site_type_symbol
 _atom_site_label
 _atom_site_symmetry_multiplicity
 _atom_site_fract_x
 _atom_site_fract_y
 _atom_site_fract_z
 _atom_site_occupancy
  Fe  Fe0  1  0.00337768  0.00341676  0.00336908  1
  Ni  Ni1  1  0.16909377  0.16832351  0.16916815  1
  Ni  Ni2  1  1.00209976  1.00077180  0.33510529  1
  Ni  Ni3  1  1.00116061  0.33631853  1.00302517  1
  Cr  Cr4  1  0.16899086  0.50284198  0.17137497  1
  Fe  Fe5  1  1.00065810  0.33502159  0.33551814  1
  Ni  Ni6  1  1.00288223  0.67106852  1.00212716  1
  Ni  Ni7  1  0.17045943  0.83848771  0.17039871  1
  Ni  Ni8  1  1.00233130  0.67253103  0.33669411  1
  Fe  Fe9  1  0.33593906  0.00342323  0.00345283  1
  Fe  Fe10  1  0.50345267  0.16808523  0.16973267  1
  Ni  Ni11  1  0.33711471  1.00147836  0.33515892  1
  Ni  Ni12  1  0.33734597  0.33549529  1.00111131  1
  Cr  Cr13  1  0.50402701  0.50397227  0.17011100  1
  Ni  Ni14  1  0.33967128  0.33544404  0.33658313  1
  Ni  Ni15  1  0.33561498  0.67188101  1.00174182  1
  Ni  Ni16  1  0.50299310  0.83775787  0.16919364  1
  Ni  Ni17  1  0.33608234  0.67262196  0.33736276  1
  Fe  Fe18  1  0.67023038  0.00358550  0.00354835  1
  Ni  Ni19  1  0.83704068  0.16978650  0.16984642  1
  Ni  Ni20  1  0.67033545  0.00435495  0.33679110  1
  Ni  Ni21  1  0.67104220  0.33517723  1.00256148  1
  Ni  Ni22  1  0.83630550  0.50231610  0.16951783  1
  Ni  Ni23  1  0.67042921  0.33521292  0.33736126  1
  Fe  Fe24  1  0.67106088  0.66963194  1.00292079  1
  Ni  Ni25  1  0.83609403  0.83744559  0.17044069  1
  Fe  Fe26  1  0.67005854  0.67102141  0.33732238  1
  Cr  Cr27  1  0.16901905  0.16831846  0.50394271  1
  Ni  Ni28  1  1.00238093  1.00197488  0.67077568  1
  Fe  Fe29  1  0.16943210  0.16988250  0.83626692  1
  Cr  Cr30  1  0.17080878  0.50445936  0.50216749  1
  Ni  Ni31  1  1.00013794  0.33592542  0.67145885  1
  Ni  Ni32  1  0.17089384  0.50355153  0.83624205  1
  Ni  Ni33  1  0.17131699  0.83649604  0.50289444  1
  Fe  Fe34  1  0.00363056  0.67035104  0.67092422  1
  Ni  Ni35  1  0.16986410  0.83503925  0.83625262  1
  Fe  Fe36  1  0.50477173  0.17040782  0.50347032  1
  Ni  Ni37  1  0.33654476  1.00115918  0.67045213  1
  Ni  Ni38  1  0.50395105  0.17074237  0.83611902  1
  Ni  Ni39  1  0.50477041  0.50399753  0.50359530  1
  Ni  Ni40  1  0.33909681  0.33705483  0.67185383  1
  Fe  Fe41  1  0.50262961  0.50267335  0.83623755  1
  Ni  Ni42  1  0.50247749  0.83569792  0.50362926  1
  Ni  Ni43  1  0.33701123  0.67133403  0.67044555  1
  Fe  Fe44  1  0.50256094  0.83679278  0.83631314  1
  Ni  Ni45  1  0.83479584  0.17039113  0.50345130  1
  Fe  Fe46  1  0.66960884  0.00437637  0.66983531  1
  Ni  Ni47  1  0.83556629  0.16971699  0.83625483  1
  Ni  Ni48  1  0.83399751  0.50179512  0.50318743  1
  Ni  Ni49  1  0.67031330  0.33639241  0.66962593  1
  Fe  Fe50  1  0.83723313  0.50255424  0.83683630  1
  Fe  Fe51  1  0.83688759  0.83645616  0.50279242  1
  Fe  Fe52  1  0.66932924  0.66936333  0.66930499  1
  Ni  Ni53  1  0.83695387  0.83749881  0.83600691  1
" 