119,Ni63Fe26Cr10_18,-237.757322135897, 205.75347207815,Ni63Fe26Cr10,"# generated using pymatgen
 data_Cr3Fe7Ni17
_symmetry_space_group_name_H-M   'P 1'
_cell_length_a   7.42799766
_cell_length_b   7.42799766
_cell_length_c   10.50477503
_cell_angle_alpha   90.00000000
_cell_angle_beta   90.00000000
_cell_angle_gamma   90.00000000
_symmetry_Int_Tables_number   1
_chemical_formula_structural   Cr3Fe7Ni17
_chemical_formula_sum   'Cr6 Fe14 Ni34'
_cell_volume   579.60252967
_cell_formula_units_Z   2
loop_
 _symmetry_equiv_pos_site_id
 _symmetry_equiv_pos_as_xyz
  1  'x, y, z'
loop_
 _atom_site_type_symbol
 _atom_site_label
 _atom_site_symmetry_multiplicity
 _atom_site_fract_x
 _atom_site_fract_y
 _atom_site_fract_z
 _atom_site_occupancy
  Ni  Ni0  1  1.00262459  1.00247996  1.00171774  1
  Ni  Ni1  1  0.16918238  0.16979248  0.16892127  1
  Ni  Ni2  1  0.00474292  0.00476888  0.33688803  1
  Ni  Ni3  1  0.00556569  0.33558997  0.00368463  1
  Ni  Ni4  1  0.17142130  0.50049612  0.16721153  1
  Fe  Fe5  1  0.00329824  0.33329411  0.33693131  1
  Ni  Ni6  1  0.00528014  0.66981829  1.00193881  1
  Fe  Fe7  1  0.17211901  0.83739550  0.16814208  1
  Cr  Cr8  1  0.00447606  0.66917152  0.33807106  1
  Ni  Ni9  1  0.33686611  0.00266753  0.00310284  1
  Ni  Ni10  1  0.50008821  0.16848285  0.16953434  1
  Ni  Ni11  1  0.33474653  1.00223286  0.33579433  1
  Ni  Ni12  1  0.33467007  0.33615875  0.00286266  1
  Ni  Ni13  1  0.50033862  0.50430393  0.16976848  1
  Fe  Fe14  1  0.33621190  0.33633573  0.33557545  1
  Fe  Fe15  1  0.33542231  0.66974211  0.00295211  1
  Ni  Ni16  1  0.50086256  0.83510420  0.16806633  1
  Ni  Ni17  1  0.33724308  0.66914395  0.33535262  1
  Ni  Ni18  1  0.66839617  1.00236682  1.00248574  1
  Ni  Ni19  1  0.83861848  0.16927312  0.16853178  1
  Cr  Cr20  1  0.66842466  0.00455769  0.33561487  1
  Cr  Cr21  1  0.66721833  0.33272740  0.00300373  1
  Cr  Cr22  1  0.83604521  0.50143014  0.17076489  1
  Ni  Ni23  1  0.66867534  0.33674582  0.33702353  1
  Fe  Fe24  1  0.66706037  0.67212753  0.00264254  1
  Cr  Cr25  1  0.83455272  0.83724497  0.16686811  1
  Ni  Ni26  1  0.66614363  0.66656184  0.33757613  1
  Ni  Ni27  1  0.16840898  0.16957270  0.50250528  1
  Fe  Fe28  1  0.00371204  0.00290462  0.66892365  1
  Ni  Ni29  1  0.16995327  0.16895061  0.83646171  1
  Ni  Ni30  1  0.16954608  0.50086533  0.50434751  1
  Ni  Ni31  1  0.00330683  0.33687971  0.66830893  1
  Fe  Fe32  1  0.17127275  0.50248245  0.83576049  1
  Fe  Fe33  1  0.16989725  0.83617611  0.50371444  1
  Ni  Ni34  1  0.00377789  0.66885323  0.66808928  1
  Ni  Ni35  1  0.16998672  0.83702322  0.83603683  1
  Fe  Fe36  1  0.50225453  0.17028456  0.50375688  1
  Ni  Ni37  1  0.33774606  1.00262304  0.66898899  1
  Ni  Ni38  1  0.50049265  0.16718447  0.83484956  1
  Ni  Ni39  1  0.50322296  0.50439695  0.50264293  1
  Ni  Ni40  1  0.33583553  0.33636494  0.66944757  1
  Fe  Fe41  1  0.49894772  0.50304012  0.83503451  1
  Ni  Ni42  1  0.50268156  0.83420968  0.50320248  1
  Ni  Ni43  1  0.33489108  0.66889695  0.66942370  1
  Ni  Ni44  1  0.50241506  0.83683657  0.83661437  1
  Ni  Ni45  1  0.83834932  0.17012238  0.50347764  1
  Ni  Ni46  1  0.66870311  0.00310207  0.66954337  1
  Fe  Fe47  1  0.83673705  0.16601189  0.83558348  1
  Ni  Ni48  1  0.83511164  0.50241167  0.50241479  1
  Fe  Fe49  1  0.66817620  0.33527768  0.66781335  1
  Cr  Cr50  1  0.83732919  0.50345417  0.83532957  1
  Ni  Ni51  1  0.83481816  0.83535186  0.50517389  1
  Fe  Fe52  1  0.66789873  0.67024917  0.66740338  1
  Fe  Fe53  1  0.83617551  0.83840231  0.83606701  1
" 