2867,Ni63Fe30Cr6_14,-239.410577655438, 209.550457961478,Ni63Fe30Cr6,"# generated using pymatgen
 data_Cr2Fe8Ni17
_symmetry_space_group_name_H-M   'P 1'
_cell_length_a   7.41920654
_cell_length_b   7.41920654
_cell_length_c   10.49234251
_cell_angle_alpha   90.00000000
_cell_angle_beta   90.00000000
_cell_angle_gamma   90.00000000
_symmetry_Int_Tables_number   1
_chemical_formula_structural   Cr2Fe8Ni17
_chemical_formula_sum   'Cr4 Fe16 Ni34'
_cell_volume   577.54706589
_cell_formula_units_Z   2
loop_
 _symmetry_equiv_pos_site_id
 _symmetry_equiv_pos_as_xyz
  1  'x, y, z'
loop_
 _atom_site_type_symbol
 _atom_site_label
 _atom_site_symmetry_multiplicity
 _atom_site_fract_x
 _atom_site_fract_y
 _atom_site_fract_z
 _atom_site_occupancy
  Ni  Ni0  1  1.00321956  1.00191745  0.00402159  1
  Cr  Cr1  1  0.16940240  0.17008916  0.16881212  1
  Ni  Ni2  1  1.00276874  1.00253441  0.33721769  1
  Ni  Ni3  1  1.00319576  0.33654566  0.00366492  1
  Ni  Ni4  1  0.16900294  0.50552208  0.16979349  1
  Fe  Fe5  1  1.00165543  0.33763303  0.33634783  1
  Ni  Ni6  1  0.00325252  0.67120855  0.00400134  1
  Ni  Ni7  1  0.16840717  0.83457328  0.17027382  1
  Ni  Ni8  1  1.00273239  0.67220807  0.33514251  1
  Fe  Fe9  1  0.33666683  0.00323744  1.00184242  1
  Ni  Ni10  1  0.50529437  0.17069368  0.16919024  1
  Fe  Fe11  1  0.33616468  1.00236901  0.33799536  1
  Ni  Ni12  1  0.33858544  0.33705441  1.00286403  1
  Ni  Ni13  1  0.50331137  0.50241346  0.16961508  1
  Fe  Fe14  1  0.33798738  0.33723529  0.33664826  1
  Ni  Ni15  1  0.33648591  0.66865606  1.00319938  1
  Cr  Cr16  1  0.50268886  0.83626240  0.16991831  1
  Ni  Ni17  1  0.33714482  0.66958937  0.33620393  1
  Fe  Fe18  1  0.66978215  0.00377618  0.00324499  1
  Ni  Ni19  1  0.83536395  0.17009422  0.17057066  1
  Fe  Fe20  1  0.67088149  1.00306100  0.33721984  1
  Ni  Ni21  1  0.66789416  0.33702200  0.00487425  1
  Ni  Ni22  1  0.83735954  0.50302689  0.16967127  1
  Fe  Fe23  1  0.67002901  0.33751334  0.33627029  1
  Ni  Ni24  1  0.66993429  0.66862975  1.00261055  1
  Fe  Fe25  1  0.83854413  0.83612746  0.17046885  1
  Ni  Ni26  1  0.66979533  0.66854228  0.33749114  1
  Ni  Ni27  1  0.17009073  0.16804484  0.50411680  1
  Ni  Ni28  1  0.00419378  1.00293821  0.66843364  1
  Fe  Fe29  1  0.17161646  0.17108070  0.83610687  1
  Cr  Cr30  1  0.16907487  0.50327951  0.50317425  1
  Ni  Ni31  1  1.00317688  0.33503593  0.66952665  1
  Ni  Ni32  1  0.16931289  0.50368723  0.83680151  1
  Fe  Fe33  1  0.16944112  0.83772246  0.50257746  1
  Ni  Ni34  1  1.00209319  0.67170014  0.67053057  1
  Fe  Fe35  1  0.17022641  0.83556781  0.83706717  1
  Ni  Ni36  1  0.50260640  0.16915686  0.50334440  1
  Fe  Fe37  1  0.33659048  0.00377873  0.66983309  1
  Ni  Ni38  1  0.50180348  0.16881100  0.83713957  1
  Ni  Ni39  1  0.50488980  0.50344519  0.50362607  1
  Ni  Ni40  1  0.33833266  0.33551743  0.67067934  1
  Ni  Ni41  1  0.50263019  0.50411215  0.83643303  1
  Fe  Fe42  1  0.50353464  0.83552992  0.50342574  1
  Ni  Ni43  1  0.33833171  0.67013385  0.67026845  1
  Ni  Ni44  1  0.50284322  0.83674483  0.83581713  1
  Fe  Fe45  1  0.83685849  0.17032791  0.50331155  1
  Fe  Fe46  1  0.66910095  1.00254170  0.66920677  1
  Cr  Cr47  1  0.83664084  0.17103763  0.83588365  1
  Ni  Ni48  1  0.83543728  0.50449525  0.50405590  1
  Ni  Ni49  1  0.66816375  0.33761467  0.66856837  1
  Ni  Ni50  1  0.83772953  0.50472624  0.83594419  1
  Ni  Ni51  1  0.83654719  0.83631812  0.50345451  1
  Ni  Ni52  1  0.66924661  0.66911674  0.66956984  1
  Fe  Fe53  1  0.83603922  0.83410238  0.83603267  1
" 