5770,Ni63Fe30Cr6_5,-239.840096239039, 214.978559711601,Ni63Fe30Cr6,"# generated using pymatgen
 data_Cr2Fe8Ni17
_symmetry_space_group_name_H-M   'P 1'
_cell_length_a   7.41924622
_cell_length_b   7.41924622
_cell_length_c   10.49239863
_cell_angle_alpha   90.00000000
_cell_angle_beta   90.00000000
_cell_angle_gamma   90.00000000
_symmetry_Int_Tables_number   1
_chemical_formula_structural   Cr2Fe8Ni17
_chemical_formula_sum   'Cr4 Fe16 Ni34'
_cell_volume   577.55633320
_cell_formula_units_Z   2
loop_
 _symmetry_equiv_pos_site_id
 _symmetry_equiv_pos_as_xyz
  1  'x, y, z'
loop_
 _atom_site_type_symbol
 _atom_site_label
 _atom_site_symmetry_multiplicity
 _atom_site_fract_x
 _atom_site_fract_y
 _atom_site_fract_z
 _atom_site_occupancy
  Ni  Ni0  1  0.00458001  1.00314123  1.00231582  1
  Ni  Ni1  1  0.16736052  0.16731574  0.17107634  1
  Ni  Ni2  1  0.00347851  1.00206860  0.33705899  1
  Fe  Fe3  1  1.00130244  0.33508776  0.00364776  1
  Fe  Fe4  1  0.16845077  0.50497817  0.17030083  1
  Ni  Ni5  1  1.00249175  0.33779441  0.33531034  1
  Fe  Fe6  1  1.00225149  0.67133044  0.00416431  1
  Ni  Ni7  1  0.16996834  0.83817954  0.16977457  1
  Ni  Ni8  1  1.00319408  0.66984236  0.33632448  1
  Ni  Ni9  1  0.33495221  1.00168516  1.00245846  1
  Fe  Fe10  1  0.50522106  0.16781147  0.17047926  1
  Ni  Ni11  1  0.33681123  1.00284164  0.33562544  1
  Cr  Cr12  1  0.33851577  0.33448430  0.00399683  1
  Ni  Ni13  1  0.50545762  0.50532972  0.17023562  1
  Fe  Fe14  1  0.33701490  0.33562022  0.33431947  1
  Ni  Ni15  1  0.33816604  0.67270542  0.00389547  1
  Ni  Ni16  1  0.50293015  0.83433837  0.17079929  1
  Fe  Fe17  1  0.33587813  0.67136492  0.33510380  1
  Fe  Fe18  1  0.66882720  1.00288011  0.00332015  1
  Ni  Ni19  1  0.83805336  0.16988846  0.17056843  1
  Ni  Ni20  1  0.66930094  0.00326791  0.33568052  1
  Ni  Ni21  1  0.67110802  0.33775638  1.00236469  1
  Ni  Ni22  1  0.83398170  0.50292036  0.17042904  1
  Ni  Ni23  1  0.67095533  0.33628246  0.33604004  1
  Ni  Ni24  1  0.66954200  0.66884737  1.00222467  1
  Ni  Ni25  1  0.83667081  0.83681724  0.17012890  1
  Ni  Ni26  1  0.67141639  0.67035674  0.33671781  1
  Cr  Cr27  1  0.16796745  0.16793943  0.50443260  1
  Fe  Fe28  1  0.99915961  1.00167471  0.67077298  1
  Ni  Ni29  1  0.16795816  0.16670219  0.83440463  1
  Fe  Fe30  1  0.16774594  0.50332065  0.50368408  1
  Ni  Ni31  1  1.00159260  0.33718978  0.67087118  1
  Cr  Cr32  1  0.16903189  0.50493484  0.83673484  1
  Ni  Ni33  1  0.16958809  0.83481747  0.50332240  1
  Ni  Ni34  1  1.00254340  0.67055053  0.66957368  1
  Ni  Ni35  1  0.17029172  0.83819810  0.83643920  1
  Ni  Ni36  1  0.50551946  0.17019015  0.50231996  1
  Fe  Fe37  1  0.33783347  1.00215610  0.67042742  1
  Ni  Ni38  1  0.50477813  0.16899691  0.83565950  1
  Cr  Cr39  1  0.50549065  0.50412235  0.50409393  1
  Fe  Fe40  1  0.33877012  0.33545141  0.67150130  1
  Ni  Ni41  1  0.50647708  0.50500478  0.83567405  1
  Fe  Fe42  1  0.50374087  0.84003912  0.50294159  1
  Fe  Fe43  1  0.33727927  0.67184835  0.67064706  1
  Ni  Ni44  1  0.50230228  0.83546177  0.83602794  1
  Ni  Ni45  1  0.83523400  0.17042111  0.50267518  1
  Ni  Ni46  1  0.66840195  0.00364436  0.67020067  1
  Ni  Ni47  1  0.83678294  0.17080024  0.83658122  1
  Fe  Fe48  1  0.83878115  0.50221003  0.50345899  1
  Ni  Ni49  1  0.67123834  0.33544793  0.67104731  1
  Ni  Ni50  1  0.83418067  0.50252669  0.83595789  1
  Fe  Fe51  1  0.83578446  0.83761012  0.50231731  1
  Ni  Ni52  1  0.67169753  0.67107051  0.67085382  1
  Fe  Fe53  1  0.83590601  0.83669189  0.83697599  1
" 