4102,Ni63Fe30Cr6_1,-239.846209267115, 213.434165137483,Ni63Fe30Cr6,"# generated using pymatgen
 data_Cr2Fe8Ni17
_symmetry_space_group_name_H-M   'P 1'
_cell_length_a   7.42171696
_cell_length_b   7.42171696
_cell_length_c   10.49589279
_cell_angle_alpha   90.00000000
_cell_angle_beta   90.00000000
_cell_angle_gamma   90.00000000
_symmetry_Int_Tables_number   1
_chemical_formula_structural   Cr2Fe8Ni17
_chemical_formula_sum   'Cr4 Fe16 Ni34'
_cell_volume   578.13353544
_cell_formula_units_Z   2
loop_
 _symmetry_equiv_pos_site_id
 _symmetry_equiv_pos_as_xyz
  1  'x, y, z'
loop_
 _atom_site_type_symbol
 _atom_site_label
 _atom_site_symmetry_multiplicity
 _atom_site_fract_x
 _atom_site_fract_y
 _atom_site_fract_z
 _atom_site_occupancy
  Fe  Fe0  1  0.00434022  1.00171641  0.00333166  1
  Ni  Ni1  1  0.17070278  0.16690765  0.17017822  1
  Ni  Ni2  1  1.00152840  1.00149313  0.33660428  1
  Fe  Fe3  1  0.00350105  0.33785150  0.00409309  1
  Fe  Fe4  1  0.16920658  0.50505349  0.17069155  1
  Cr  Cr5  1  1.00261092  0.33610524  0.33693539  1
  Fe  Fe6  1  0.00314092  0.66975632  1.00294993  1
  Ni  Ni7  1  0.16871996  0.83832722  0.16992683  1
  Ni  Ni8  1  0.00429436  0.67169820  0.33629442  1
  Ni  Ni9  1  0.33522123  1.00192987  1.00267199  1
  Ni  Ni10  1  0.50208638  0.16931307  0.16922342  1
  Fe  Fe11  1  0.33612809  0.00385899  0.33587209  1
  Cr  Cr12  1  0.33643704  0.33690296  1.00143762  1
  Cr  Cr13  1  0.50497646  0.50306818  0.17213081  1
  Ni  Ni14  1  0.33695854  0.33644222  0.33723485  1
  Ni  Ni15  1  0.33521543  0.67193912  1.00226461  1
  Fe  Fe16  1  0.50276705  0.83742234  0.16872024  1
  Ni  Ni17  1  0.33478497  0.67098030  0.33666979  1
  Fe  Fe18  1  0.66724884  1.00102086  0.00363909  1
  Fe  Fe19  1  0.83559937  0.16840099  0.16887711  1
  Ni  Ni20  1  0.67021278  0.00350495  0.33577279  1
  Ni  Ni21  1  0.67116750  0.33625504  0.00327372  1
  Ni  Ni22  1  0.83536729  0.50459024  0.16906216  1
  Ni  Ni23  1  0.66916337  0.33349738  0.33701813  1
  Ni  Ni24  1  0.67003124  0.66976566  1.00196871  1
  Ni  Ni25  1  0.83768002  0.83522552  0.16886288  1
  Fe  Fe26  1  0.67208326  0.67062482  0.33744329  1
  Ni  Ni27  1  0.17176224  0.16749929  0.50370521  1
  Ni  Ni28  1  0.00341695  1.00198016  0.66885589  1
  Ni  Ni29  1  0.17066803  0.16805479  0.83482195  1
  Ni  Ni30  1  0.17084508  0.50421887  0.50328251  1
  Fe  Fe31  1  1.00270710  0.33825371  0.66845641  1
  Fe  Fe32  1  0.16870567  0.50530836  0.83477934  1
  Ni  Ni33  1  0.16849019  0.83752234  0.50286281  1
  Ni  Ni34  1  0.00371057  0.67129148  0.67029581  1
  Ni  Ni35  1  0.16943273  0.83843376  0.83644971  1
  Ni  Ni36  1  0.50223535  0.17037047  0.50352985  1
  Fe  Fe37  1  0.33735471  1.00119789  0.67055795  1
  Fe  Fe38  1  0.50361574  0.16805812  0.83577611  1
  Ni  Ni39  1  0.50388448  0.50206232  0.50221408  1
  Fe  Fe40  1  0.33662786  0.33679764  0.66896525  1
  Ni  Ni41  1  0.50484418  0.50355513  0.83522453  1
  Fe  Fe42  1  0.50244931  0.83563270  0.50396805  1
  Ni  Ni43  1  0.33575124  0.66922117  0.67052268  1
  Ni  Ni44  1  0.50274383  0.83441597  0.83695366  1
  Fe  Fe45  1  0.83580037  0.16896150  0.50432666  1
  Ni  Ni46  1  0.67031022  1.00240086  0.67042354  1
  Cr  Cr47  1  0.83786637  0.16941307  0.83678699  1
  Ni  Ni48  1  0.83451725  0.50549075  0.50375371  1
  Ni  Ni49  1  0.66845952  0.33644258  0.66922565  1
  Ni  Ni50  1  0.83408529  0.50440086  0.83634037  1
  Ni  Ni51  1  0.83732012  0.83586771  0.50372309  1
  Ni  Ni52  1  0.66939224  0.66985023  0.66947111  1
  Ni  Ni53  1  0.83674094  0.83455819  0.83649004  1
" 