7066,Ni63Fe13Cr23_12,-231.417159410674, 174.869042407127,Ni63Fe13Cr23,"# generated using pymatgen
 data_Cr13Fe7Ni34
_symmetry_space_group_name_H-M   'P 1'
_cell_length_a   7.46009765
_cell_length_b   7.46009765
_cell_length_c   10.55017127
_cell_angle_alpha   90.00000000
_cell_angle_beta   90.00000000
_cell_angle_gamma   90.00000000
_symmetry_Int_Tables_number   1
_chemical_formula_structural   Cr13Fe7Ni34
_chemical_formula_sum   'Cr13 Fe7 Ni34'
_cell_volume   587.14928284
_cell_formula_units_Z   1
loop_
 _symmetry_equiv_pos_site_id
 _symmetry_equiv_pos_as_xyz
  1  'x, y, z'
loop_
 _atom_site_type_symbol
 _atom_site_label
 _atom_site_symmetry_multiplicity
 _atom_site_fract_x
 _atom_site_fract_y
 _atom_site_fract_z
 _atom_site_occupancy
  Ni  Ni0  1  0.99819750  0.00379965  0.00086087  1
  Ni  Ni1  1  0.16700731  0.16516576  0.16726924  1
  Ni  Ni2  1  0.99959588  0.00248892  0.33306404  1
  Ni  Ni3  1  0.99924616  0.33110702  0.99801203  1
  Cr  Cr4  1  0.16681540  0.49943439  0.16941661  1
  Ni  Ni5  1  0.00065266  0.33319941  0.33491919  1
  Fe  Fe6  1  0.99669489  0.66792876  0.99920657  1
  Cr  Cr7  1  0.16489535  0.83669927  0.16834777  1
  Ni  Ni8  1  0.99894226  0.66581786  0.33525553  1
  Ni  Ni9  1  0.33436222  0.00121397  0.00150850  1
  Fe  Fe10  1  0.50037207  0.16684332  0.16678065  1
  Ni  Ni11  1  0.33473578  0.00107397  0.33243792  1
  Cr  Cr12  1  0.33230403  0.33314424  1.00007455  1
  Ni  Ni13  1  0.50308281  0.49959223  0.16890905  1
  Fe  Fe14  1  0.33464703  0.33413525  0.33398769  1
  Cr  Cr15  1  0.33714326  0.66742055  0.99892860  1
  Fe  Fe16  1  0.50161768  0.83296026  0.16711521  1
  Ni  Ni17  1  0.33660110  0.66559782  0.33536183  1
  Ni  Ni18  1  0.66890160  0.99870836  0.00144431  1
  Fe  Fe19  1  0.83577954  0.16690361  0.16581830  1
  Cr  Cr20  1  0.66771745  0.99911691  0.33385540  1
  Ni  Ni21  1  0.66958069  0.33417966  0.00075073  1
  Cr  Cr22  1  0.83110621  0.50156594  0.16629912  1
  Fe  Fe23  1  0.66680217  0.33512543  0.33541986  1
  Ni  Ni24  1  0.66724637  0.66845538  0.99965074  1
  Ni  Ni25  1  0.83311012  0.83470344  0.16620381  1
  Ni  Ni26  1  0.66578952  0.66655031  0.33468394  1
  Cr  Cr27  1  0.16733723  0.16545117  0.49990121  1
  Ni  Ni28  1  0.99696247  0.00198576  0.66755207  1
  Ni  Ni29  1  0.16415084  0.16608347  0.83530887  1
  Ni  Ni30  1  0.16804412  0.50163140  0.49689810  1
  Cr  Cr31  1  0.99873399  0.33270062  0.66857202  1
  Ni  Ni32  1  0.16680710  0.49978966  0.83533948  1
  Cr  Cr33  1  0.16743108  0.83355489  0.49973558  1
  Cr  Cr34  1  0.99901649  0.66624029  0.66687292  1
  Cr  Cr35  1  0.16721720  0.83642605  0.83324990  1
  Ni  Ni36  1  0.50270350  0.16752597  0.50046548  1
  Ni  Ni37  1  0.33639110  0.99852971  0.66749523  1
  Cr  Cr38  1  0.50278240  0.16589817  0.83290252  1
  Ni  Ni39  1  0.50222432  0.50114094  0.49954052  1
  Cr  Cr40  1  0.33390583  0.33634416  0.66747305  1
  Ni  Ni41  1  0.50320888  0.50268659  0.83297475  1
  Ni  Ni42  1  0.50137131  0.83277302  0.50157293  1
  Ni  Ni43  1  0.33793958  0.66683773  0.66688456  1
  Ni  Ni44  1  0.50327167  0.83243504  0.83343734  1
  Ni  Ni45  1  0.83167201  0.16736955  0.50023920  1
  Ni  Ni46  1  0.66804531  0.99904940  0.66615279  1
  Ni  Ni47  1  0.83457450  0.16596191  0.83520201  1
  Ni  Ni48  1  0.83118822  0.50047885  0.49877265  1
  Ni  Ni49  1  0.66794872  0.33429601  0.66557618  1
  Fe  Fe50  1  0.83120355  0.50009644  0.83520814  1
  Ni  Ni51  1  0.83223553  0.83359897  0.50018337  1
  Ni  Ni52  1  0.66438687  0.66808840  0.66702144  1
  Ni  Ni53  1  0.83145280  0.83524780  0.83503931  1
" 