2996,Ni63Fe13Cr23_1,-231.524516609271, 175.299531524795,Ni63Fe13Cr23,"# generated using pymatgen
 data_Cr13Fe7Ni34
_symmetry_space_group_name_H-M   'P 1'
_cell_length_a   7.46026050
_cell_length_b   7.46026050
_cell_length_c   10.55040158
_cell_angle_alpha   90.00000000
_cell_angle_beta   90.00000000
_cell_angle_gamma   90.00000000
_symmetry_Int_Tables_number   1
_chemical_formula_structural   Cr13Fe7Ni34
_chemical_formula_sum   'Cr13 Fe7 Ni34'
_cell_volume   587.18773572
_cell_formula_units_Z   1
loop_
 _symmetry_equiv_pos_site_id
 _symmetry_equiv_pos_as_xyz
  1  'x, y, z'
loop_
 _atom_site_type_symbol
 _atom_site_label
 _atom_site_symmetry_multiplicity
 _atom_site_fract_x
 _atom_site_fract_y
 _atom_site_fract_z
 _atom_site_occupancy
  Fe  Fe0  1  0.99907335  0.99958247  0.99961774  1
  Ni  Ni1  1  0.16967499  0.16859367  0.16686479  1
  Cr  Cr2  1  0.99903101  0.00172122  0.33136807  1
  Cr  Cr3  1  0.99986769  0.33222341  0.00247777  1
  Ni  Ni4  1  0.16679044  0.49914503  0.16939233  1
  Ni  Ni5  1  1.00000691  0.33630903  0.33243321  1
  Ni  Ni6  1  1.00002250  0.66741759  1.00002115  1
  Cr  Cr7  1  0.16760701  0.83293989  0.16738078  1
  Ni  Ni8  1  0.00073526  0.66418917  0.33413969  1
  Ni  Ni9  1  0.33533970  0.00200117  0.99949550  1
  Ni  Ni10  1  0.49979157  0.16739884  0.16777088  1
  Ni  Ni11  1  0.33517509  1.00019143  0.33256002  1
  Fe  Fe12  1  0.33545739  0.33349333  0.00158898  1
  Ni  Ni13  1  0.50203851  0.49958652  0.16706421  1
  Ni  Ni14  1  0.33463279  0.33542433  0.33151900  1
  Cr  Cr15  1  0.33563241  0.66806446  1.00010341  1
  Ni  Ni16  1  0.50230516  0.83422717  0.16879072  1
  Ni  Ni17  1  0.33474106  0.66568183  0.33389947  1
  Fe  Fe18  1  0.66641913  1.00011898  0.00089327  1
  Ni  Ni19  1  0.83165832  0.16824127  0.16744483  1
  Ni  Ni20  1  0.66483852  0.00109301  0.32929468  1
  Ni  Ni21  1  0.66589244  0.33181247  0.00108334  1
  Ni  Ni22  1  0.83275307  0.50157517  0.16834363  1
  Ni  Ni23  1  0.66697329  0.33510407  0.33235512  1
  Ni  Ni24  1  0.66679373  0.66750048  0.00074923  1
  Ni  Ni25  1  0.83131785  0.83105492  0.16573320  1
  Ni  Ni26  1  0.66598045  0.66514780  0.33213965  1
  Cr  Cr27  1  0.16981744  0.16570499  0.49993571  1
  Ni  Ni28  1  0.00145143  0.00084936  0.67102179  1
  Ni  Ni29  1  0.16966199  0.16643698  0.83414388  1
  Fe  Fe30  1  0.16823350  0.50101600  0.49749996  1
  Cr  Cr31  1  0.99992280  0.33266582  0.66629527  1
  Ni  Ni32  1  0.16890236  0.49918815  0.83447699  1
  Ni  Ni33  1  0.16789322  0.83356152  0.49998711  1
  Cr  Cr34  1  0.00162498  0.66828550  0.66665139  1
  Ni  Ni35  1  0.16677681  0.83555526  0.83427520  1
  Cr  Cr36  1  0.50051026  0.16837655  0.49963801  1
  Fe  Fe37  1  0.33436759  1.00028591  0.66952290  1
  Ni  Ni38  1  0.49983526  0.16745122  0.83356484  1
  Ni  Ni39  1  0.50234055  0.49969152  0.50061078  1
  Fe  Fe40  1  0.33582889  0.33388505  0.66849692  1
  Fe  Fe41  1  0.50096547  0.49900798  0.83456341  1
  Cr  Cr42  1  0.50029175  0.83423351  0.49801104  1
  Cr  Cr43  1  0.33515579  0.66730264  0.66791553  1
  Ni  Ni44  1  0.50197676  0.83584444  0.83372985  1
  Cr  Cr45  1  0.83128717  0.16881834  0.50063551  1
  Ni  Ni46  1  0.66690016  0.00126150  0.67095384  1
  Ni  Ni47  1  0.83209731  0.16517475  0.83332641  1
  Ni  Ni48  1  0.83083774  0.50093017  0.49850750  1
  Ni  Ni49  1  0.66506125  0.33365470  0.66801895  1
  Cr  Cr50  1  0.83200825  0.50192741  0.83458593  1
  Cr  Cr51  1  0.83289054  0.83229189  0.50075160  1
  Ni  Ni52  1  0.66476801  0.66658115  0.66840254  1
  Ni  Ni53  1  0.83260680  0.83474274  0.83451623  1
" 