4025,Ni63Fe14Cr22_6,-231.360594835141, 176.618320716333,Ni63Fe14Cr22,"# generated using pymatgen
 data_Cr13Fe7Ni34
_symmetry_space_group_name_H-M   'P 1'
_cell_length_a   7.45882787
_cell_length_b   7.45882787
_cell_length_c   10.54837553
_cell_angle_alpha   90.00000000
_cell_angle_beta   90.00000000
_cell_angle_gamma   90.00000000
_symmetry_Int_Tables_number   1
_chemical_formula_structural   Cr13Fe7Ni34
_chemical_formula_sum   'Cr13 Fe7 Ni34'
_cell_volume   586.84951767
_cell_formula_units_Z   1
loop_
 _symmetry_equiv_pos_site_id
 _symmetry_equiv_pos_as_xyz
  1  'x, y, z'
loop_
 _atom_site_type_symbol
 _atom_site_label
 _atom_site_symmetry_multiplicity
 _atom_site_fract_x
 _atom_site_fract_y
 _atom_site_fract_z
 _atom_site_occupancy
  Ni  Ni0  1  0.99960178  0.00341086  0.00154018  1
  Ni  Ni1  1  0.16753521  0.16737669  0.16615777  1
  Ni  Ni2  1  0.99819598  0.00346122  0.33213055  1
  Ni  Ni3  1  0.00070349  0.33370548  0.00120178  1
  Ni  Ni4  1  0.16814354  0.49828726  0.16615267  1
  Cr  Cr5  1  0.00221096  0.33266892  0.33436350  1
  Cr  Cr6  1  0.00079442  0.66531409  1.00005977  1
  Cr  Cr7  1  0.16861833  0.83638124  0.16701540  1
  Cr  Cr8  1  0.99971358  0.66502105  0.33229210  1
  Ni  Ni9  1  0.33436298  0.00071231  0.00187555  1
  Ni  Ni10  1  0.49947825  0.16653919  0.16751302  1
  Ni  Ni11  1  0.33745650  0.00284009  0.33357844  1
  Ni  Ni12  1  0.33064451  0.33390322  0.00308841  1
  Cr  Cr13  1  0.49988052  0.49974481  0.16676248  1
  Ni  Ni14  1  0.33454831  0.33307593  0.33454745  1
  Ni  Ni15  1  0.33325506  0.66702464  0.99928580  1
  Ni  Ni16  1  0.50013863  0.83497317  0.16919295  1
  Ni  Ni17  1  0.33684895  0.66567564  0.33463773  1
  Cr  Cr18  1  0.66723742  0.00060940  1.00045654  1
  Ni  Ni19  1  0.83462009  0.16708824  0.16673997  1
  Ni  Ni20  1  0.66591378  0.00104277  0.33330244  1
  Fe  Fe21  1  0.66996089  0.33254192  0.00074071  1
  Ni  Ni22  1  0.83363504  0.49877882  0.16666521  1
  Fe  Fe23  1  0.66616145  0.33171460  0.33550479  1
  Cr  Cr24  1  0.66754124  0.66884258  0.00079009  1
  Ni  Ni25  1  0.83286048  0.83570107  0.16891035  1
  Fe  Fe26  1  0.66504546  0.66805511  0.33383852  1
  Ni  Ni27  1  0.16801963  0.16686015  0.50115431  1
  Ni  Ni28  1  0.99884761  0.00129805  0.66798156  1
  Cr  Cr29  1  0.16578533  0.16653396  0.83448419  1
  Fe  Fe30  1  0.16968241  0.49904285  0.50207371  1
  Fe  Fe31  1  0.99990200  0.33414982  0.66691527  1
  Ni  Ni32  1  0.16607779  0.50212691  0.83271415  1
  Cr  Cr33  1  0.16893178  0.83607372  0.50135436  1
  Ni  Ni34  1  0.00175973  0.66495841  0.66933641  1
  Fe  Fe35  1  0.16789001  0.83328638  0.83287120  1
  Ni  Ni36  1  0.50002305  0.16791568  0.50128183  1
  Ni  Ni37  1  0.33549528  1.00047796  0.66619396  1
  Cr  Cr38  1  0.50112110  0.16708502  0.83321138  1
  Ni  Ni39  1  0.50021902  0.49968016  0.50018738  1
  Ni  Ni40  1  0.33334328  0.33478526  0.66402133  1
  Cr  Cr41  1  0.49915673  0.50013369  0.83497505  1
  Ni  Ni42  1  0.49880631  0.83398244  0.49962692  1
  Ni  Ni43  1  0.33202955  0.66635153  0.66763685  1
  Ni  Ni44  1  0.49709931  0.83398166  0.83276719  1
  Ni  Ni45  1  0.83361038  0.16839577  0.50220198  1
  Ni  Ni46  1  0.66730034  0.00272909  0.66731745  1
  Ni  Ni47  1  0.83562525  0.16813620  0.83273583  1
  Ni  Ni48  1  0.83203589  0.49800847  0.50190385  1
  Ni  Ni49  1  0.66873925  0.33190301  0.66585093  1
  Ni  Ni50  1  0.83660232  0.49809218  0.83322751  1
  Cr  Cr51  1  0.83364374  0.83567611  0.49980083  1
  Cr  Cr52  1  0.66714921  0.66792217  0.66724501  1
  Fe  Fe53  1  0.83575126  0.83567741  0.83233981  1
" 