4136,Ni63Fe30Cr6_2,-239.764337847918, 210.918780275209,Ni63Fe30Cr6,"# generated using pymatgen
 data_Cr2Fe8Ni17
_symmetry_space_group_name_H-M   'P 1'
_cell_length_a   7.42206078
_cell_length_b   7.42206078
_cell_length_c   10.49637902
_cell_angle_alpha   90.00000000
_cell_angle_beta   90.00000000
_cell_angle_gamma   90.00000000
_symmetry_Int_Tables_number   1
_chemical_formula_structural   Cr2Fe8Ni17
_chemical_formula_sum   'Cr4 Fe16 Ni34'
_cell_volume   578.21388700
_cell_formula_units_Z   2
loop_
 _symmetry_equiv_pos_site_id
 _symmetry_equiv_pos_as_xyz
  1  'x, y, z'
loop_
 _atom_site_type_symbol
 _atom_site_label
 _atom_site_symmetry_multiplicity
 _atom_site_fract_x
 _atom_site_fract_y
 _atom_site_fract_z
 _atom_site_occupancy
  Ni  Ni0  1  1.00195516  0.00548388  1.00224755  1
  Ni  Ni1  1  0.16876939  0.16838707  0.16962496  1
  Ni  Ni2  1  1.00267920  0.00575618  0.33704917  1
  Ni  Ni3  1  0.00309186  0.33539150  0.00413604  1
  Ni  Ni4  1  0.16854360  0.50283123  0.16988849  1
  Ni  Ni5  1  1.00224731  0.33481238  0.33580794  1
  Fe  Fe6  1  1.00265079  0.67196991  0.00468311  1
  Ni  Ni7  1  0.16980601  0.83800350  0.17068125  1
  Fe  Fe8  1  1.00273996  0.67142010  0.33555867  1
  Ni  Ni9  1  0.33681638  1.00276182  0.00379439  1
  Fe  Fe10  1  0.50232361  0.16922507  0.16970871  1
  Ni  Ni11  1  0.33500162  1.00130246  0.33491120  1
  Fe  Fe12  1  0.33618471  0.33346313  0.00407170  1
  Ni  Ni13  1  0.50432381  0.50317762  0.17017024  1
  Ni  Ni14  1  0.33389948  0.33772414  0.33413120  1
  Cr  Cr15  1  0.33807621  0.66956001  0.00356563  1
  Ni  Ni16  1  0.50278442  0.83727504  0.17122728  1
  Ni  Ni17  1  0.33881276  0.67005568  0.33610762  1
  Ni  Ni18  1  0.67008842  1.00263786  1.00279071  1
  Ni  Ni19  1  0.83681252  0.17010431  0.16977110  1
  Ni  Ni20  1  0.67151289  1.00078938  0.33564387  1
  Fe  Fe21  1  0.66912139  0.33396683  1.00301617  1
  Ni  Ni22  1  0.83621968  0.50215386  0.16998639  1
  Fe  Fe23  1  0.67014912  0.33687319  0.33622040  1
  Fe  Fe24  1  0.67032447  0.67150591  0.00408771  1
  Fe  Fe25  1  0.83671670  0.83666648  0.17044689  1
  Ni  Ni26  1  0.66824362  0.66964353  0.33657885  1
  Ni  Ni27  1  0.16831824  0.16679015  0.50341554  1
  Fe  Fe28  1  1.00219857  1.00292240  0.66899108  1
  Fe  Fe29  1  0.17049167  0.16984421  0.83664667  1
  Cr  Cr30  1  0.17040511  0.50360546  0.50257455  1
  Ni  Ni31  1  1.00243089  0.33442004  0.66917754  1
  Fe  Fe32  1  0.17112921  0.50109145  0.83566399  1
  Ni  Ni33  1  0.16979073  0.83840766  0.50276850  1
  Fe  Fe34  1  1.00213333  0.67164030  0.66901465  1
  Fe  Fe35  1  0.17010756  0.83795473  0.83581730  1
  Cr  Cr36  1  0.50282599  0.16958916  0.50194905  1
  Ni  Ni37  1  0.33585005  1.00042503  0.67053588  1
  Ni  Ni38  1  0.50329535  0.16854165  0.83749908  1
  Ni  Ni39  1  0.50517374  0.50476759  0.50386439  1
  Fe  Fe40  1  0.33844161  0.33595454  0.67062315  1
  Ni  Ni41  1  0.50251807  0.50249978  0.83506437  1
  Fe  Fe42  1  0.50343949  0.83535819  0.50294716  1
  Ni  Ni43  1  0.33815059  0.67097747  0.66992184  1
  Ni  Ni44  1  0.50258033  0.83765675  0.83458366  1
  Ni  Ni45  1  0.83764689  0.16927058  0.50373798  1
  Ni  Ni46  1  0.67012407  1.00226167  0.67071109  1
  Ni  Ni47  1  0.83626933  0.16845528  0.83532195  1
  Ni  Ni48  1  0.83436689  0.50347088  0.50277415  1
  Ni  Ni49  1  0.67229209  0.33668824  0.66920524  1
  Cr  Cr50  1  0.83594938  0.50277551  0.83636756  1
  Ni  Ni51  1  0.83689845  0.83644410  0.50345887  1
  Ni  Ni52  1  0.66716375  0.67029458  0.66924633  1
  Fe  Fe53  1  0.83376676  0.83860375  0.83586443  1
" 