1108,Ni63Fe30Cr6_3,-239.34396733466, 208.102451871022,Ni63Fe30Cr6,"# generated using pymatgen
 data_Cr2Fe8Ni17
_symmetry_space_group_name_H-M   'P 1'
_cell_length_a   7.42215674
_cell_length_b   7.42215674
_cell_length_c   10.49651473
_cell_angle_alpha   90.00000000
_cell_angle_beta   90.00000000
_cell_angle_gamma   90.00000000
_symmetry_Int_Tables_number   1
_chemical_formula_structural   Cr2Fe8Ni17
_chemical_formula_sum   'Cr4 Fe16 Ni34'
_cell_volume   578.23631436
_cell_formula_units_Z   2
loop_
 _symmetry_equiv_pos_site_id
 _symmetry_equiv_pos_as_xyz
  1  'x, y, z'
loop_
 _atom_site_type_symbol
 _atom_site_label
 _atom_site_symmetry_multiplicity
 _atom_site_fract_x
 _atom_site_fract_y
 _atom_site_fract_z
 _atom_site_occupancy
  Ni  Ni0  1  1.00190188  0.00320914  1.00224284  1
  Cr  Cr1  1  0.16780324  0.16739150  0.16983502  1
  Ni  Ni2  1  1.00109866  1.00189731  0.33627675  1
  Ni  Ni3  1  0.00315130  0.33546759  1.00297226  1
  Fe  Fe4  1  0.16901043  0.50542580  0.16930654  1
  Ni  Ni5  1  1.00015766  0.33750559  0.33649782  1
  Ni  Ni6  1  0.00351557  0.67039703  0.00437615  1
  Ni  Ni7  1  0.17116725  0.83552031  0.17034800  1
  Ni  Ni8  1  1.00271603  0.66966983  0.33572754  1
  Fe  Fe9  1  0.33655404  1.00083200  1.00272875  1
  Ni  Ni10  1  0.50516951  0.16850942  0.16862588  1
  Ni  Ni11  1  0.33851139  1.00018441  0.33566121  1
  Fe  Fe12  1  0.33684234  0.33836353  1.00212038  1
  Ni  Ni13  1  0.50502790  0.50499588  0.16861366  1
  Cr  Cr14  1  0.33732136  0.33757109  0.33613540  1
  Ni  Ni15  1  0.33767931  0.66912028  0.00305991  1
  Ni  Ni16  1  0.50128754  0.83556642  0.16978138  1
  Ni  Ni17  1  0.33688790  0.67139210  0.33667258  1
  Fe  Fe18  1  0.67046236  1.00247040  0.00364795  1
  Ni  Ni19  1  0.83582723  0.17150147  0.17004051  1
  Ni  Ni20  1  0.66946279  1.00274410  0.33640897  1
  Fe  Fe21  1  0.66993305  0.33648560  0.00377651  1
  Ni  Ni22  1  0.83587268  0.50190735  0.16982365  1
  Fe  Fe23  1  0.67203931  0.33614083  0.33618085  1
  Ni  Ni24  1  0.66787717  0.67036798  0.00407710  1
  Fe  Fe25  1  0.83578489  0.83628503  0.17017318  1
  Ni  Ni26  1  0.66946909  0.67044838  0.33589583  1
  Cr  Cr27  1  0.16762962  0.16831926  0.50325324  1
  Ni  Ni28  1  1.00265207  1.00245950  0.67055511  1
  Fe  Fe29  1  0.16962993  0.16987305  0.83590156  1
  Ni  Ni30  1  0.16805267  0.50514554  0.50397072  1
  Ni  Ni31  1  0.00317859  0.33595524  0.66960238  1
  Fe  Fe32  1  0.17122713  0.50280179  0.83596140  1
  Ni  Ni33  1  0.17104072  0.83512992  0.50299130  1
  Ni  Ni34  1  1.00272851  0.67065785  0.66897142  1
  Fe  Fe35  1  0.16950809  0.83639698  0.83653925  1
  Fe  Fe36  1  0.50519313  0.16828055  0.50355008  1
  Ni  Ni37  1  0.33697114  0.00337675  0.67036149  1
  Fe  Fe38  1  0.50321909  0.17016099  0.83601485  1
  Fe  Fe39  1  0.50428013  0.50465192  0.50417608  1
  Ni  Ni40  1  0.33771759  0.33631355  0.67139522  1
  Ni  Ni41  1  0.50169139  0.50437797  0.83601253  1
  Ni  Ni42  1  0.50207318  0.83595143  0.50275866  1
  Fe  Fe43  1  0.33610883  0.66935973  0.66961979  1
  Ni  Ni44  1  0.50165940  0.83552770  0.83653287  1
  Ni  Ni45  1  0.83591100  0.17100867  0.50288121  1
  Fe  Fe46  1  0.67034148  0.00344860  0.66912497  1
  Ni  Ni47  1  0.83807545  0.16916708  0.83614883  1
  Ni  Ni48  1  0.83673413  0.50208737  0.50325901  1
  Ni  Ni49  1  0.66817984  0.33623281  0.66835024  1
  Cr  Cr50  1  0.83609115  0.50204914  0.83573963  1
  Ni  Ni51  1  0.83595861  0.83597757  0.50356388  1
  Ni  Ni52  1  0.66909243  0.66991025  0.66909977  1
  Fe  Fe53  1  0.83582488  0.83731048  0.83595991  1
" 