5992,Ni63Fe30Cr6_10,-239.677913541724, 210.205532189039,Ni63Fe30Cr6,"# generated using pymatgen
 data_Cr2Fe8Ni17
_symmetry_space_group_name_H-M   'P 1'
_cell_length_a   7.42369440
_cell_length_b   7.42369440
_cell_length_c   10.49868931
_cell_angle_alpha   90.00000000
_cell_angle_beta   90.00000000
_cell_angle_gamma   90.00000000
_symmetry_Int_Tables_number   1
_chemical_formula_structural   Cr2Fe8Ni17
_chemical_formula_sum   'Cr4 Fe16 Ni34'
_cell_volume   578.59577144
_cell_formula_units_Z   2
loop_
 _symmetry_equiv_pos_site_id
 _symmetry_equiv_pos_as_xyz
  1  'x, y, z'
loop_
 _atom_site_type_symbol
 _atom_site_label
 _atom_site_symmetry_multiplicity
 _atom_site_fract_x
 _atom_site_fract_y
 _atom_site_fract_z
 _atom_site_occupancy
  Ni  Ni0  1  1.00261599  1.00206292  0.00308272  1
  Ni  Ni1  1  0.17057028  0.17095612  0.16832785  1
  Cr  Cr2  1  1.00187720  1.00115084  0.33709235  1
  Fe  Fe3  1  0.00359685  0.33688048  1.00259260  1
  Ni  Ni4  1  0.17033734  0.50289954  0.16902071  1
  Cr  Cr5  1  0.00401801  0.33654837  0.33616423  1
  Ni  Ni6  1  1.00290770  0.67149078  0.00399399  1
  Ni  Ni7  1  0.17086189  0.83482282  0.16864816  1
  Ni  Ni8  1  0.00314072  0.67097063  0.33544014  1
  Fe  Fe9  1  0.33612289  1.00107887  1.00186511  1
  Fe  Fe10  1  0.50083402  0.16758747  0.16841045  1
  Fe  Fe11  1  0.33705833  0.00307515  0.33615905  1
  Ni  Ni12  1  0.33710494  0.33626110  0.00371724  1
  Fe  Fe13  1  0.50130801  0.50436047  0.16827598  1
  Ni  Ni14  1  0.33771301  0.33642625  0.33665731  1
  Ni  Ni15  1  0.33643453  0.66831085  1.00290187  1
  Ni  Ni16  1  0.50371358  0.83617607  0.16964713  1
  Fe  Fe17  1  0.33529939  0.66914981  0.33611165  1
  Ni  Ni18  1  0.67036488  1.00277554  0.00400146  1
  Ni  Ni19  1  0.83555948  0.16906690  0.16681660  1
  Fe  Fe20  1  0.66853063  1.00224104  0.33621371  1
  Fe  Fe21  1  0.66952536  0.33676208  1.00239074  1
  Fe  Fe22  1  0.83749222  0.50546576  0.16875996  1
  Cr  Cr23  1  0.66744161  0.33541599  0.33529497  1
  Ni  Ni24  1  0.66920970  0.67059669  0.00338197  1
  Ni  Ni25  1  0.83434625  0.83616551  0.16978603  1
  Fe  Fe26  1  0.67000714  0.67070956  0.33663664  1
  Fe  Fe27  1  0.17061275  0.16938100  0.50454221  1
  Ni  Ni28  1  1.00266381  0.00355722  0.66949002  1
  Ni  Ni29  1  0.17055347  0.17151354  0.83557546  1
  Ni  Ni30  1  0.17072702  0.50226912  0.50269315  1
  Ni  Ni31  1  0.00314145  0.33480555  0.66908497  1
  Ni  Ni32  1  0.16986640  0.50133186  0.83701987  1
  Fe  Fe33  1  0.17074623  0.83592873  0.50356098  1
  Cr  Cr34  1  0.00328050  0.67159884  0.67005006  1
  Ni  Ni35  1  0.17045410  0.83596063  0.83711682  1
  Ni  Ni36  1  0.50245074  0.16792164  0.50301609  1
  Ni  Ni37  1  0.33669094  0.00299643  0.67027738  1
  Ni  Ni38  1  0.50325363  0.16911249  0.83689553  1
  Fe  Fe39  1  0.50361454  0.50331789  0.50413089  1
  Ni  Ni40  1  0.33743971  0.33626046  0.66836323  1
  Fe  Fe41  1  0.50139511  0.50363617  0.83634396  1
  Ni  Ni42  1  0.50357812  0.83730033  0.50329058  1
  Ni  Ni43  1  0.33798002  0.66945591  0.66960004  1
  Ni  Ni44  1  0.50450576  0.83698561  0.83589569  1
  Ni  Ni45  1  0.83407763  0.16945483  0.50639890  1
  Ni  Ni46  1  0.66944652  0.00297422  0.66893048  1
  Fe  Fe47  1  0.83688649  0.16756892  0.83582208  1
  Ni  Ni48  1  0.83764168  0.50350186  0.50338292  1
  Ni  Ni49  1  0.66828611  0.33594493  0.67028588  1
  Fe  Fe50  1  0.83568100  0.50321030  0.83602799  1
  Ni  Ni51  1  0.83294069  0.83592704  0.50265000  1
  Ni  Ni52  1  0.66782662  0.66970651  0.66909427  1
  Ni  Ni53  1  0.83394272  0.83664610  0.83674567  1
" 