5213,Ni63Fe26Cr10_3,-237.77513436396, 204.606589795555,Ni63Fe26Cr10,"# generated using pymatgen
 data_Cr3Fe7Ni17
_symmetry_space_group_name_H-M   'P 1'
_cell_length_a   7.42761914
_cell_length_b   7.42761914
_cell_length_c   10.50423972
_cell_angle_alpha   90.00000000
_cell_angle_beta   90.00000000
_cell_angle_gamma   90.00000000
_symmetry_Int_Tables_number   1
_chemical_formula_structural   Cr3Fe7Ni17
_chemical_formula_sum   'Cr6 Fe14 Ni34'
_cell_volume   579.51392660
_cell_formula_units_Z   2
loop_
 _symmetry_equiv_pos_site_id
 _symmetry_equiv_pos_as_xyz
  1  'x, y, z'
loop_
 _atom_site_type_symbol
 _atom_site_label
 _atom_site_symmetry_multiplicity
 _atom_site_fract_x
 _atom_site_fract_y
 _atom_site_fract_z
 _atom_site_occupancy
  Ni  Ni0  1  1.00223358  1.00190091  1.00220995  1
  Fe  Fe1  1  0.16873937  0.16962302  0.16968474  1
  Fe  Fe2  1  0.00330803  1.00076611  0.33573430  1
  Ni  Ni3  1  0.00398529  0.33687889  1.00161170  1
  Ni  Ni4  1  0.16988127  0.50299180  0.16952165  1
  Ni  Ni5  1  0.00311541  0.33836736  0.33582391  1
  Ni  Ni6  1  1.00103792  0.66918352  0.00273571  1
  Ni  Ni7  1  0.16826394  0.83346372  0.17064012  1
  Ni  Ni8  1  0.00280859  0.66857700  0.33585062  1
  Cr  Cr9  1  0.33528743  0.00277571  1.00148991  1
  Cr  Cr10  1  0.50271540  0.17015971  0.17058691  1
  Ni  Ni11  1  0.33741589  1.00132600  0.33609173  1
  Ni  Ni12  1  0.33473869  0.33691562  1.00162528  1
  Fe  Fe13  1  0.50200296  0.50517433  0.16923800  1
  Ni  Ni14  1  0.33527443  0.33660689  0.33612011  1
  Fe  Fe15  1  0.33491798  0.66766800  0.00281812  1
  Ni  Ni16  1  0.50357641  0.83349099  0.17016966  1
  Ni  Ni17  1  0.33526898  0.67002637  0.33551520  1
  Fe  Fe18  1  0.67171162  1.00085945  1.00096102  1
  Cr  Cr19  1  0.83746014  0.16821599  0.16884678  1
  Ni  Ni20  1  0.66811940  1.00103011  0.33754036  1
  Fe  Fe21  1  0.66989113  0.33742764  1.00018343  1
  Fe  Fe22  1  0.83696385  0.50551500  0.16903064  1
  Fe  Fe23  1  0.66893938  0.33717850  0.33831337  1
  Ni  Ni24  1  0.67036077  0.66978175  0.00294499  1
  Ni  Ni25  1  0.83612047  0.83535724  0.16930212  1
  Fe  Fe26  1  0.66845638  0.67000855  0.33602039  1
  Cr  Cr27  1  0.16799981  0.17094408  0.50120274  1
  Fe  Fe28  1  0.99951673  1.00160348  0.67077573  1
  Ni  Ni29  1  0.16732803  0.17208683  0.83709331  1
  Ni  Ni30  1  0.17005648  0.50320160  0.50212382  1
  Fe  Fe31  1  1.00151852  0.33680097  0.67012865  1
  Ni  Ni32  1  0.16996870  0.50135435  0.83631701  1
  Ni  Ni33  1  0.16765777  0.83346869  0.50072078  1
  Ni  Ni34  1  1.00057774  0.66913350  0.66937777  1
  Ni  Ni35  1  0.16644211  0.83451940  0.83660383  1
  Fe  Fe36  1  0.50474454  0.16956270  0.50211747  1
  Cr  Cr37  1  0.33764938  0.00372899  0.67000834  1
  Ni  Ni38  1  0.50487353  0.17181324  0.83495900  1
  Ni  Ni39  1  0.50225076  0.50208847  0.50124300  1
  Ni  Ni40  1  0.33705252  0.33583787  0.67021736  1
  Ni  Ni41  1  0.50195661  0.50135636  0.83761089  1
  Ni  Ni42  1  0.50499341  0.83492160  0.50066028  1
  Cr  Cr43  1  0.33514542  0.66853550  0.67007065  1
  Ni  Ni44  1  0.50575851  0.83479274  0.83713397  1
  Ni  Ni45  1  0.83419159  0.16855147  0.50265349  1
  Ni  Ni46  1  0.67044289  0.00310033  0.67016660  1
  Ni  Ni47  1  0.83576152  0.16829171  0.83609873  1
  Fe  Fe48  1  0.83645999  0.50361752  0.50282684  1
  Ni  Ni49  1  0.66923660  0.33517404  0.66918479  1
  Fe  Fe50  1  0.83592799  0.50318069  0.83610176  1
  Ni  Ni51  1  0.83530845  0.83725861  0.50249965  1
  Ni  Ni52  1  0.67215196  0.66968897  0.66865302  1
  Ni  Ni53  1  0.83575943  0.83744182  0.83616553  1
" 