6688,Ni63Fe12Cr23_18,-230.205315467833, 167.36405711465,Ni63Fe12Cr23,"# generated using pymatgen
 data_Cr7Fe3Ni17
_symmetry_space_group_name_H-M   'P 1'
_cell_length_a   7.46948383
_cell_length_b   7.46948383
_cell_length_c   10.56344533
_cell_angle_alpha   90.00000000
_cell_angle_beta   90.00000000
_cell_angle_gamma   90.00000000
_symmetry_Int_Tables_number   1
_chemical_formula_structural   Cr7Fe3Ni17
_chemical_formula_sum   'Cr14 Fe6 Ni34'
_cell_volume   589.36829776
_cell_formula_units_Z   2
loop_
 _symmetry_equiv_pos_site_id
 _symmetry_equiv_pos_as_xyz
  1  'x, y, z'
loop_
 _atom_site_type_symbol
 _atom_site_label
 _atom_site_symmetry_multiplicity
 _atom_site_fract_x
 _atom_site_fract_y
 _atom_site_fract_z
 _atom_site_occupancy
  Ni  Ni0  1  0.99886746  0.99906090  0.99844752  1
  Fe  Fe1  1  0.16552107  0.16624703  0.16775401  1
  Ni  Ni2  1  0.00207988  0.00067028  0.33276301  1
  Cr  Cr3  1  0.99772687  0.33238952  0.00051691  1
  Ni  Ni4  1  0.16505441  0.49942672  0.16905239  1
  Fe  Fe5  1  0.00099283  0.33368492  0.33206213  1
  Ni  Ni6  1  0.99668544  0.66843515  0.00028957  1
  Cr  Cr7  1  0.16487155  0.83300567  0.16684489  1
  Fe  Fe8  1  0.00040254  0.66528864  0.33220540  1
  Ni  Ni9  1  0.33227196  0.00048310  0.99979307  1
  Ni  Ni10  1  0.50067943  0.16815476  0.16640451  1
  Fe  Fe11  1  0.33212549  0.00223690  0.33396730  1
  Cr  Cr12  1  0.33339928  0.33153406  0.00157842  1
  Fe  Fe13  1  0.50228211  0.49842732  0.16863769  1
  Ni  Ni14  1  0.33312643  0.33441836  0.33389396  1
  Cr  Cr15  1  0.33319659  0.66759605  0.99871760  1
  Cr  Cr16  1  0.50080212  0.83442395  0.16554106  1
  Ni  Ni17  1  0.33221168  0.66282442  0.33463654  1
  Ni  Ni18  1  0.66828735  0.99972216  0.99964370  1
  Ni  Ni19  1  0.83165364  0.16728902  0.16621270  1
  Cr  Cr20  1  0.66816212  0.00113372  0.33294438  1
  Ni  Ni21  1  0.66818909  0.33294834  0.00201935  1
  Ni  Ni22  1  0.83303827  0.49992799  0.16678277  1
  Ni  Ni23  1  0.66397708  0.33483065  0.33138978  1
  Ni  Ni24  1  0.66968135  0.66687298  -0.00004841  1
  Ni  Ni25  1  0.83388677  0.83226816  0.16554647  1
  Ni  Ni26  1  0.66560329  0.66308998  0.33149982  1
  Ni  Ni27  1  0.16783719  0.16739927  0.49832880  1
  Ni  Ni28  1  0.00018391  0.00047633  0.66825856  1
  Ni  Ni29  1  0.16392509  0.16357518  0.83329862  1
  Ni  Ni30  1  0.16882411  0.50003258  0.50014762  1
  Ni  Ni31  1  0.00019209  0.33213508  0.66690625  1
  Cr  Cr32  1  0.16383506  0.50072958  0.83047856  1
  Ni  Ni33  1  0.16639475  0.83209650  0.49889496  1
  Ni  Ni34  1  0.00121113  0.66690558  0.66683960  1
  Ni  Ni35  1  0.16487794  0.83466636  0.83337387  1
  Ni  Ni36  1  0.49804392  0.17000708  0.49978329  1
  Cr  Cr37  1  0.33151085  0.99895978  0.66584958  1
  Cr  Cr38  1  0.50164786  0.16495336  0.83331177  1
  Ni  Ni39  1  0.49763444  0.49801161  0.49917122  1
  Fe  Fe40  1  0.33221466  0.33385579  0.66345555  1
  Cr  Cr41  1  0.50268020  0.50092152  0.83200137  1
  Cr  Cr42  1  0.49897736  0.83201216  0.50000397  1
  Ni  Ni43  1  0.33238741  0.66582888  0.66531167  1
  Ni  Ni44  1  0.50129446  0.83362907  0.83354951  1
  Cr  Cr45  1  0.83308009  0.16725780  0.50161126  1
  Ni  Ni46  1  0.66820356  0.00027257  0.66802301  1
  Ni  Ni47  1  0.83376786  0.16562212  0.83229634  1
  Cr  Cr48  1  0.83318056  0.49971100  0.50039079  1
  Ni  Ni49  1  0.66723729  0.33343594  0.66609876  1
  Ni  Ni50  1  0.83269846  0.50065845  0.83274910  1
  Cr  Cr51  1  0.83528645  0.83256233  0.50019651  1
  Ni  Ni52  1  0.66594024  0.66584068  0.66805431  1
  Ni  Ni53  1  0.83335076  0.83324645  0.83371241  1
" 