4618,Ni63Fe26Cr10_19,-237.821435562247, 201.713126181816,Ni63Fe26Cr10,"# generated using pymatgen
 data_Cr3Fe7Ni17
_symmetry_space_group_name_H-M   'P 1'
_cell_length_a   7.43154897
_cell_length_b   7.43154897
_cell_length_c   10.50979734
_cell_angle_alpha   90.00000000
_cell_angle_beta   90.00000000
_cell_angle_gamma   90.00000000
_symmetry_Int_Tables_number   1
_chemical_formula_structural   Cr3Fe7Ni17
_chemical_formula_sum   'Cr6 Fe14 Ni34'
_cell_volume   580.43424706
_cell_formula_units_Z   2
loop_
 _symmetry_equiv_pos_site_id
 _symmetry_equiv_pos_as_xyz
  1  'x, y, z'
loop_
 _atom_site_type_symbol
 _atom_site_label
 _atom_site_symmetry_multiplicity
 _atom_site_fract_x
 _atom_site_fract_y
 _atom_site_fract_z
 _atom_site_occupancy
  Cr  Cr0  1  1.00118556  0.00311666  0.00400813  1
  Ni  Ni1  1  0.16967262  0.16847831  0.16970895  1
  Fe  Fe2  1  1.00123301  0.00345250  0.33614556  1
  Ni  Ni3  1  0.00242105  0.33667634  1.00106706  1
  Cr  Cr4  1  0.17005542  0.50147095  0.16766096  1
  Ni  Ni5  1  1.00155329  0.33374168  0.33685534  1
  Ni  Ni6  1  1.00138979  0.66749679  0.00248430  1
  Fe  Fe7  1  0.17085309  0.83679540  0.16904215  1
  Cr  Cr8  1  1.00158724  0.66919237  0.33585497  1
  Ni  Ni9  1  0.33810161  0.00342586  0.00267129  1
  Ni  Ni10  1  0.50229087  0.16890911  0.16898575  1
  Fe  Fe11  1  0.33625989  1.00230364  0.33485011  1
  Ni  Ni12  1  0.33627067  0.33518560  1.00211636  1
  Ni  Ni13  1  0.50367177  0.50264876  0.16910523  1
  Fe  Fe14  1  0.33748094  0.33567090  0.33575263  1
  Ni  Ni15  1  0.33687578  0.66855871  1.00222494  1
  Ni  Ni16  1  0.50298139  0.83562423  0.16860278  1
  Ni  Ni17  1  0.33750322  0.66966306  0.33678569  1
  Ni  Ni18  1  0.66740930  0.00242524  0.00252949  1
  Ni  Ni19  1  0.83522333  0.16920172  0.16955085  1
  Ni  Ni20  1  0.66898458  0.00289356  0.33524441  1
  Ni  Ni21  1  0.66849683  0.33538170  0.00243373  1
  Ni  Ni22  1  0.83361475  0.50209087  0.16804938  1
  Ni  Ni23  1  0.66932536  0.33487357  0.33602870  1
  Ni  Ni24  1  0.66891157  0.66935300  0.00254891  1
  Ni  Ni25  1  0.83398073  0.83588012  0.16944847  1
  Ni  Ni26  1  0.66736347  0.66939476  0.33614892  1
  Fe  Fe27  1  0.16691207  0.16870316  0.50202049  1
  Ni  Ni28  1  1.00041656  0.00428789  0.66752717  1
  Ni  Ni29  1  0.16946587  0.17053672  0.83530253  1
  Fe  Fe30  1  0.16876614  0.50232265  0.50208777  1
  Ni  Ni31  1  1.00179315  0.33412610  0.66923050  1
  Ni  Ni32  1  0.16981883  0.50092162  0.83660426  1
  Ni  Ni33  1  0.17006602  0.83727702  0.50229608  1
  Cr  Cr34  1  0.00268077  0.66804092  0.66833315  1
  Cr  Cr35  1  0.16926577  0.83583183  0.83685319  1
  Fe  Fe36  1  0.50457660  0.16812315  0.50173943  1
  Fe  Fe37  1  0.33538188  1.00201048  0.66906936  1
  Ni  Ni38  1  0.50265830  0.16926891  0.83651419  1
  Ni  Ni39  1  0.50298148  0.50313311  0.50129497  1
  Cr  Cr40  1  0.33510354  0.33687124  0.66894468  1
  Ni  Ni41  1  0.50242684  0.50228449  0.83678585  1
  Fe  Fe42  1  0.50336694  0.83513632  0.50181868  1
  Ni  Ni43  1  0.33735376  0.66915301  0.66815400  1
  Fe  Fe44  1  0.50308207  0.83575474  0.83641323  1
  Ni  Ni45  1  0.83618667  0.16887140  0.50295425  1
  Ni  Ni46  1  0.66959848  1.00228656  0.66938290  1
  Fe  Fe47  1  0.83526095  0.16985845  0.83484307  1
  Ni  Ni48  1  0.83360241  0.50086101  0.50270594  1
  Fe  Fe49  1  0.67030809  0.33570417  0.66874237  1
  Fe  Fe50  1  0.83565202  0.50129509  0.83693342  1
  Ni  Ni51  1  0.83549835  0.83739692  0.50239944  1
  Fe  Fe52  1  0.66837937  0.66907650  0.66879803  1
  Ni  Ni53  1  0.83367215  0.83593336  0.83531822  1
" 