7464,Ni63Fe26Cr10_1,-238.166627039507, 205.511298300733,Ni63Fe26Cr10,"# generated using pymatgen
 data_Cr3Fe7Ni17
_symmetry_space_group_name_H-M   'P 1'
_cell_length_a   7.43205162
_cell_length_b   7.43205162
_cell_length_c   10.51050820
_cell_angle_alpha   90.00000000
_cell_angle_beta   90.00000000
_cell_angle_gamma   90.00000000
_symmetry_Int_Tables_number   1
_chemical_formula_structural   Cr3Fe7Ni17
_chemical_formula_sum   'Cr6 Fe14 Ni34'
_cell_volume   580.55203346
_cell_formula_units_Z   2
loop_
 _symmetry_equiv_pos_site_id
 _symmetry_equiv_pos_as_xyz
  1  'x, y, z'
loop_
 _atom_site_type_symbol
 _atom_site_label
 _atom_site_symmetry_multiplicity
 _atom_site_fract_x
 _atom_site_fract_y
 _atom_site_fract_z
 _atom_site_occupancy
  Ni  Ni0  1  0.00241076  1.00087278  0.00280873  1
  Fe  Fe1  1  0.16872206  0.16674879  0.16957788  1
  Ni  Ni2  1  0.00482020  1.00196857  0.33503857  1
  Fe  Fe3  1  1.00215455  0.33512062  1.00134426  1
  Cr  Cr4  1  0.16703209  0.50391884  0.16979724  1
  Ni  Ni5  1  1.00204849  0.33560202  0.33503203  1
  Ni  Ni6  1  0.00278891  0.67091115  1.00177370  1
  Ni  Ni7  1  0.16870083  0.83661341  0.16992736  1
  Ni  Ni8  1  0.00321779  0.66949451  0.33594630  1
  Fe  Fe9  1  0.33595615  1.00206383  0.00271618  1
  Ni  Ni10  1  0.50213807  0.16666457  0.16968982  1
  Ni  Ni11  1  0.33353764  0.00258786  0.33430714  1
  Ni  Ni12  1  0.33426640  0.33409716  1.00066381  1
  Cr  Cr13  1  0.50128464  0.50054317  0.17107270  1
  Ni  Ni14  1  0.33573830  0.33441377  0.33729759  1
  Fe  Fe15  1  0.33333526  0.67122981  1.00141708  1
  Ni  Ni16  1  0.49963570  0.83974820  0.16824711  1
  Ni  Ni17  1  0.33395269  0.67006281  0.33664317  1
  Ni  Ni18  1  0.66955752  1.00160608  0.00243714  1
  Ni  Ni19  1  0.83555957  0.16828900  0.16956380  1
  Cr  Cr20  1  0.66887858  0.00342140  0.33453312  1
  Cr  Cr21  1  0.66904335  0.33414791  1.00211140  1
  Ni  Ni22  1  0.83869552  0.50131234  0.17048679  1
  Ni  Ni23  1  0.66927715  0.33601476  0.33601307  1
  Cr  Cr24  1  0.67105404  0.67142342  0.00276900  1
  Ni  Ni25  1  0.83872360  0.83746040  0.16815406  1
  Cr  Cr26  1  0.66993224  0.66742200  0.33466017  1
  Fe  Fe27  1  0.16951986  0.17048830  0.50232285  1
  Ni  Ni28  1  0.00247635  1.00223334  0.66921641  1
  Fe  Fe29  1  0.16805233  0.16911586  0.83516129  1
  Ni  Ni30  1  0.16902531  0.50322650  0.50193415  1
  Ni  Ni31  1  0.00276953  0.33575625  0.67031628  1
  Ni  Ni32  1  0.16880917  0.50356911  0.83567109  1
  Fe  Fe33  1  0.16955863  0.83525384  0.50167833  1
  Fe  Fe34  1  1.00181217  0.66852189  0.66963919  1
  Ni  Ni35  1  0.16849531  0.83430297  0.83564638  1
  Ni  Ni36  1  0.50186472  0.16995363  0.50248851  1
  Ni  Ni37  1  0.33546801  0.00289682  0.66958354  1
  Ni  Ni38  1  0.50261262  0.16809338  0.83488296  1
  Ni  Ni39  1  0.50110861  0.50015903  0.50307286  1
  Ni  Ni40  1  0.33575239  0.33567319  0.66910170  1
  Fe  Fe41  1  0.50126685  0.50188822  0.83353178  1
  Fe  Fe42  1  0.50068261  0.83479006  0.50359446  1
  Fe  Fe43  1  0.33573079  0.66863604  0.66854273  1
  Fe  Fe44  1  0.50270135  0.83678990  0.83492823  1
  Fe  Fe45  1  0.83624277  0.17144115  0.50330925  1
  Ni  Ni46  1  0.66911880  1.00131560  0.67002746  1
  Ni  Ni47  1  0.83446866  0.16777962  0.83421595  1
  Ni  Ni48  1  0.83692873  0.50155492  0.50245209  1
  Ni  Ni49  1  0.66854131  0.33696079  0.66909064  1
  Ni  Ni50  1  0.83837053  0.50225498  0.83412397  1
  Fe  Fe51  1  0.83682188  0.83491007  0.50415514  1
  Ni  Ni52  1  0.66920386  0.66878473  0.66954630  1
  Ni  Ni53  1  0.83727215  0.83702798  0.83487461  1
" 