2864,Ni63Fe14Cr22_17,-231.428732910822, 174.089782675394,Ni63Fe14Cr22,"# generated using pymatgen
 data_Cr13Fe7Ni34
_symmetry_space_group_name_H-M   'P 1'
_cell_length_a   7.45807525
_cell_length_b   7.45807525
_cell_length_c   10.54731116
_cell_angle_alpha   90.00000000
_cell_angle_beta   90.00000000
_cell_angle_gamma   90.00000000
_symmetry_Int_Tables_number   1
_chemical_formula_structural   Cr13Fe7Ni34
_chemical_formula_sum   'Cr13 Fe7 Ni34'
_cell_volume   586.67189065
_cell_formula_units_Z   1
loop_
 _symmetry_equiv_pos_site_id
 _symmetry_equiv_pos_as_xyz
  1  'x, y, z'
loop_
 _atom_site_type_symbol
 _atom_site_label
 _atom_site_symmetry_multiplicity
 _atom_site_fract_x
 _atom_site_fract_y
 _atom_site_fract_z
 _atom_site_occupancy
  Ni  Ni0  1  0.99853095  0.99920575  1.00010429  1
  Fe  Fe1  1  0.16628421  0.16566482  0.16743227  1
  Ni  Ni2  1  0.00077274  0.99925804  0.33489431  1
  Ni  Ni3  1  0.99944602  0.33423845  0.99961642  1
  Ni  Ni4  1  0.16732168  0.50220571  0.16595912  1
  Cr  Cr5  1  1.00005369  0.33214322  0.33410976  1
  Fe  Fe6  1  1.00008861  0.66806791  0.99933336  1
  Ni  Ni7  1  0.16504717  0.83292534  0.16711656  1
  Fe  Fe8  1  0.99917720  0.67003874  0.33454978  1
  Cr  Cr9  1  0.33361394  0.99754121  0.00179536  1
  Cr  Cr10  1  0.50302143  0.16679748  0.16856294  1
  Ni  Ni11  1  0.33155871  0.00157607  0.33372467  1
  Cr  Cr12  1  0.33422397  0.33682648  0.00109879  1
  Ni  Ni13  1  0.49992103  0.50191918  0.16755239  1
  Ni  Ni14  1  0.33345061  0.33180612  0.33285281  1
  Ni  Ni15  1  0.33366877  0.66665398  0.00115281  1
  Ni  Ni16  1  0.50167837  0.83319169  0.16751428  1
  Cr  Cr17  1  0.33449082  0.66807658  0.33120049  1
  Ni  Ni18  1  0.67044672  0.99868705  0.99980935  1
  Cr  Cr19  1  0.83387139  0.16479375  0.16456981  1
  Ni  Ni20  1  0.66881840  0.99928950  0.33410893  1
  Ni  Ni21  1  0.66914164  0.33563277  0.99714516  1
  Cr  Cr22  1  0.83362236  0.50219237  0.16714672  1
  Ni  Ni23  1  0.66690998  0.33416583  0.33622150  1
  Ni  Ni24  1  0.66655979  0.66743204  0.00088426  1
  Ni  Ni25  1  0.83466257  0.83448561  0.16774495  1
  Ni  Ni26  1  0.66950548  0.66847793  0.33350183  1
  Fe  Fe27  1  0.16703904  0.16563569  0.50171480  1
  Fe  Fe28  1  0.99782375  1.00032832  0.66685681  1
  Cr  Cr29  1  0.16537092  0.16800100  0.83277450  1
  Cr  Cr30  1  0.16532600  0.50019732  0.50178322  1
  Ni  Ni31  1  0.99811603  0.33448325  0.66767678  1
  Ni  Ni32  1  0.16517063  0.50142456  0.83433062  1
  Fe  Fe33  1  0.16495056  0.83673576  0.50065228  1
  Ni  Ni34  1  0.99791697  0.66796552  0.66781405  1
  Fe  Fe35  1  0.16434393  0.83292843  0.83464412  1
  Ni  Ni36  1  0.50029610  0.16617330  0.50091056  1
  Ni  Ni37  1  0.33295519  0.00254124  0.66592390  1
  Ni  Ni38  1  0.50305513  0.16785974  0.83156598  1
  Cr  Cr39  1  0.50272363  0.49776525  0.50116230  1
  Ni  Ni40  1  0.33402323  0.33152811  0.66798098  1
  Ni  Ni41  1  0.50140973  0.49958754  0.83368109  1
  Cr  Cr42  1  0.50275371  0.83724171  0.50041165  1
  Cr  Cr43  1  0.33319620  0.66793495  0.67043229  1
  Cr  Cr44  1  0.50327845  0.83525545  0.83402580  1
  Ni  Ni45  1  0.83271229  0.16590842  0.50180727  1
  Ni  Ni46  1  0.66875143  0.00195009  0.66755552  1
  Ni  Ni47  1  0.83307015  0.16667210  0.83446529  1
  Ni  Ni48  1  0.83491695  0.50153841  0.50151434  1
  Ni  Ni49  1  0.66957747  0.33282705  0.66817067  1
  Ni  Ni50  1  0.83525893  0.50097712  0.83308702  1
  Ni  Ni51  1  0.83555710  0.83468929  0.49999619  1
  Ni  Ni52  1  0.67199126  0.66689894  0.66767695  1
  Ni  Ni53  1  0.83500906  0.83413987  0.83416417  1
" 