839,Ni63Fe30Cr6_12,-239.880834007695, 212.167392634812,Ni63Fe30Cr6,"# generated using pymatgen
 data_Cr2Fe8Ni17
_symmetry_space_group_name_H-M   'P 1'
_cell_length_a   7.42523737
_cell_length_b   7.42523737
_cell_length_c   10.50087140
_cell_angle_alpha   90.00000000
_cell_angle_beta   90.00000000
_cell_angle_gamma   90.00000000
_symmetry_Int_Tables_number   1
_chemical_formula_structural   Cr2Fe8Ni17
_chemical_formula_sum   'Cr4 Fe16 Ni34'
_cell_volume   578.95661927
_cell_formula_units_Z   2
loop_
 _symmetry_equiv_pos_site_id
 _symmetry_equiv_pos_as_xyz
  1  'x, y, z'
loop_
 _atom_site_type_symbol
 _atom_site_label
 _atom_site_symmetry_multiplicity
 _atom_site_fract_x
 _atom_site_fract_y
 _atom_site_fract_z
 _atom_site_occupancy
  Fe  Fe0  1  1.00264998  1.00221567  0.00394791  1
  Fe  Fe1  1  0.16951549  0.16851152  0.16932676  1
  Fe  Fe2  1  1.00132583  0.00352567  0.33668938  1
  Fe  Fe3  1  1.00273396  0.33713641  1.00258800  1
  Cr  Cr4  1  0.16921210  0.50307626  0.16845736  1
  Ni  Ni5  1  1.00165321  0.33641419  0.33670448  1
  Ni  Ni6  1  1.00136822  0.66930833  1.00279751  1
  Fe  Fe7  1  0.16920773  0.83676825  0.16909243  1
  Ni  Ni8  1  1.00264059  0.66960765  0.33659710  1
  Fe  Fe9  1  0.33764553  1.00263376  0.00308926  1
  Ni  Ni10  1  0.50350357  0.16846871  0.16866443  1
  Fe  Fe11  1  0.33681592  0.00347376  0.33679962  1
  Ni  Ni12  1  0.33659521  0.33563456  1.00194413  1
  Ni  Ni13  1  0.50377418  0.50335958  0.16974971  1
  Fe  Fe14  1  0.33692061  0.33520750  0.33686521  1
  Ni  Ni15  1  0.33713313  0.66858932  0.00327326  1
  Ni  Ni16  1  0.50308223  0.83661839  0.16901803  1
  Fe  Fe17  1  0.33724972  0.66976361  0.33675931  1
  Ni  Ni18  1  0.66865936  1.00168302  0.00387304  1
  Ni  Ni19  1  0.83582069  0.16901209  0.17015724  1
  Ni  Ni20  1  0.66892991  0.00368845  0.33591120  1
  Fe  Fe21  1  0.66836897  0.33818862  0.00398833  1
  Ni  Ni22  1  0.83537071  0.50263624  0.16916191  1
  Ni  Ni23  1  0.66970352  0.33459820  0.33526429  1
  Ni  Ni24  1  0.66994425  0.67083655  0.00300657  1
  Ni  Ni25  1  0.83551472  0.83680086  0.16848526  1
  Fe  Fe26  1  0.67058540  0.66932781  0.33543296  1
  Ni  Ni27  1  0.16923011  0.17016799  0.50343000  1
  Ni  Ni28  1  0.00398601  1.00246686  0.66733779  1
  Ni  Ni29  1  0.17045715  0.17110735  0.83603925  1
  Ni  Ni30  1  0.16867024  0.50231545  0.50404113  1
  Ni  Ni31  1  0.00401782  0.33758249  0.66891040  1
  Ni  Ni32  1  0.16963511  0.50128309  0.83584363  1
  Fe  Fe33  1  0.16883108  0.83629967  0.50358654  1
  Ni  Ni34  1  0.00292344  0.66839407  0.66905208  1
  Cr  Cr35  1  0.17078760  0.83593957  0.83539239  1
  Ni  Ni36  1  0.50194429  0.16887929  0.50300517  1
  Ni  Ni37  1  0.33594655  0.00372946  0.66926362  1
  Fe  Fe38  1  0.49997807  0.17112812  0.83665744  1
  Fe  Fe39  1  0.50319762  0.50188009  0.50324750  1
  Ni  Ni40  1  0.33584756  0.33625785  0.66936411  1
  Ni  Ni41  1  0.50244787  0.50410607  0.83585683  1
  Ni  Ni42  1  0.50219877  0.83623193  0.50227072  1
  Ni  Ni43  1  0.33568006  0.66845961  0.66887465  1
  Ni  Ni44  1  0.50277381  0.83480748  0.83716354  1
  Ni  Ni45  1  0.83726844  0.17020578  0.50181172  1
  Cr  Cr46  1  0.66870303  0.00290131  0.66876817  1
  Cr  Cr47  1  0.83759625  0.17068934  0.83591294  1
  Ni  Ni48  1  0.83754163  0.50256845  0.50299177  1
  Ni  Ni49  1  0.66857884  0.33731667  0.66887374  1
  Ni  Ni50  1  0.83635918  0.50367535  0.83629210  1
  Ni  Ni51  1  0.83625181  0.83566912  0.50312799  1
  Fe  Fe52  1  0.66944717  0.66778254  0.67006993  1
  Fe  Fe53  1  0.83580811  0.83310238  0.83720250  1
" 