4907,Ni63Fe13Cr23_18,-231.555513924283, 177.971211001205,Ni63Fe13Cr23,"# generated using pymatgen
 data_Cr13Fe7Ni34
_symmetry_space_group_name_H-M   'P 1'
_cell_length_a   7.45743951
_cell_length_b   7.45743951
_cell_length_c   10.54641209
_cell_angle_alpha   90.00000000
_cell_angle_beta   90.00000000
_cell_angle_gamma   90.00000000
_symmetry_Int_Tables_number   1
_chemical_formula_structural   Cr13Fe7Ni34
_chemical_formula_sum   'Cr13 Fe7 Ni34'
_cell_volume   586.52187605
_cell_formula_units_Z   1
loop_
 _symmetry_equiv_pos_site_id
 _symmetry_equiv_pos_as_xyz
  1  'x, y, z'
loop_
 _atom_site_type_symbol
 _atom_site_label
 _atom_site_symmetry_multiplicity
 _atom_site_fract_x
 _atom_site_fract_y
 _atom_site_fract_z
 _atom_site_occupancy
  Ni  Ni0  1  0.00160587  0.00284803  1.00029890  1
  Ni  Ni1  1  0.16612399  0.16906094  0.16754994  1
  Ni  Ni2  1  0.00256487  0.00097308  0.33360782  1
  Ni  Ni3  1  0.99873293  0.33228749  0.00229116  1
  Ni  Ni4  1  0.16957084  0.49887965  0.16802483  1
  Ni  Ni5  1  0.00298895  0.33312552  0.33293644  1
  Cr  Cr6  1  0.00147718  0.66774207  0.99823776  1
  Ni  Ni7  1  0.16714138  0.83382992  0.16697291  1
  Fe  Fe8  1  0.00119702  0.66847440  0.33486635  1
  Cr  Cr9  1  0.33240094  0.99922615  0.00177660  1
  Ni  Ni10  1  0.49943932  0.16880753  0.16718990  1
  Cr  Cr11  1  0.33438494  0.00086373  0.33514802  1
  Fe  Fe12  1  0.33567354  0.33415890  0.00216676  1
  Ni  Ni13  1  0.49866713  0.50131317  0.16576507  1
  Ni  Ni14  1  0.33315113  0.33413959  0.33324312  1
  Ni  Ni15  1  0.33514672  0.66617520  0.00375825  1
  Ni  Ni16  1  0.50068152  0.83168824  0.16859186  1
  Fe  Fe17  1  0.33485760  0.66682604  0.33300451  1
  Cr  Cr18  1  0.66818292  0.00346606  0.00236258  1
  Fe  Fe19  1  0.83521746  0.16786617  0.16786680  1
  Ni  Ni20  1  0.66674703  0.99861150  0.33390585  1
  Ni  Ni21  1  0.66783126  0.33543129  0.99894315  1
  Cr  Cr22  1  0.83372702  0.50110907  0.16780787  1
  Cr  Cr23  1  0.66549988  0.33445670  0.33537090  1
  Ni  Ni24  1  0.66503977  0.66424520  0.99926102  1
  Cr  Cr25  1  0.83220820  0.83521648  0.16920622  1
  Ni  Ni26  1  0.66502711  0.66766956  0.33621098  1
  Ni  Ni27  1  0.16804327  0.16702325  0.50155286  1
  Fe  Fe28  1  0.99910501  1.00014927  0.66690698  1
  Cr  Cr29  1  0.16822882  0.16798975  0.83175041  1
  Cr  Cr30  1  0.16641382  0.49733519  0.49858295  1
  Ni  Ni31  1  0.99808256  0.33437918  0.66693015  1
  Cr  Cr32  1  0.16919064  0.49838598  0.83488266  1
  Ni  Ni33  1  0.16501005  0.83576086  0.50153385  1
  Fe  Fe34  1  0.99816118  0.66776105  0.66723043  1
  Fe  Fe35  1  0.16634490  0.83489568  0.83291221  1
  Ni  Ni36  1  0.49878109  0.16694826  0.50348117  1
  Ni  Ni37  1  0.33356522  0.00125172  0.66495854  1
  Ni  Ni38  1  0.50219102  0.16982104  0.83134711  1
  Ni  Ni39  1  0.50162867  0.50055728  0.50112383  1
  Ni  Ni40  1  0.33607194  0.33230439  0.66618113  1
  Ni  Ni41  1  0.50239260  0.49869101  0.83556107  1
  Ni  Ni42  1  0.50300686  0.83435761  0.49979317  1
  Cr  Cr43  1  0.33518776  0.66852460  0.66597021  1
  Cr  Cr44  1  0.50266988  0.83373247  0.83448869  1
  Cr  Cr45  1  0.83446218  0.16626956  0.49969521  1
  Ni  Ni46  1  0.66660474  1.00047976  0.66648774  1
  Ni  Ni47  1  0.83405441  0.16744987  0.83486474  1
  Ni  Ni48  1  0.83363171  0.50343504  0.50199526  1
  Ni  Ni49  1  0.66801111  0.33526896  0.66844533  1
  Ni  Ni50  1  0.83238860  0.50000725  0.83248612  1
  Ni  Ni51  1  0.83304967  0.83270018  0.50032173  1
  Ni  Ni52  1  0.66909180  0.66618393  0.66685008  1
  Ni  Ni53  1  0.83413054  0.83463178  0.83208738  1
" 