8593,Ni63Fe30Cr6_8,-239.422313456474, 206.516664350563,Ni63Fe30Cr6,"# generated using pymatgen
 data_Cr2Fe8Ni17
_symmetry_space_group_name_H-M   'P 1'
_cell_length_a   7.42029386
_cell_length_b   7.42029386
_cell_length_c   10.49388021
_cell_angle_alpha   90.00000000
_cell_angle_beta   90.00000000
_cell_angle_gamma   90.00000000
_symmetry_Int_Tables_number   1
_chemical_formula_structural   Cr2Fe8Ni17
_chemical_formula_sum   'Cr4 Fe16 Ni34'
_cell_volume   577.80102967
_cell_formula_units_Z   2
loop_
 _symmetry_equiv_pos_site_id
 _symmetry_equiv_pos_as_xyz
  1  'x, y, z'
loop_
 _atom_site_type_symbol
 _atom_site_label
 _atom_site_symmetry_multiplicity
 _atom_site_fract_x
 _atom_site_fract_y
 _atom_site_fract_z
 _atom_site_occupancy
  Fe  Fe0  1  1.00183857  1.00264964  1.00312105  1
  Fe  Fe1  1  0.17119201  0.16863557  0.17045810  1
  Ni  Ni2  1  0.00354774  1.00265709  0.33656481  1
  Fe  Fe3  1  1.00196145  0.33657641  1.00199038  1
  Fe  Fe4  1  0.17061411  0.50457078  0.17018741  1
  Fe  Fe5  1  0.00426618  0.33528571  0.33669584  1
  Ni  Ni6  1  0.00328704  0.67005472  1.00163411  1
  Ni  Ni7  1  0.16914583  0.83659005  0.17000969  1
  Ni  Ni8  1  0.00416951  0.67154515  0.33693347  1
  Fe  Fe9  1  0.33734316  1.00226297  1.00301530  1
  Ni  Ni10  1  0.50391916  0.17069252  0.16968176  1
  Ni  Ni11  1  0.33558226  0.00353405  0.33633555  1
  Fe  Fe12  1  0.33751831  0.33726111  0.00344117  1
  Ni  Ni13  1  0.50384941  0.50273711  0.17015337  1
  Ni  Ni14  1  0.33702247  0.33636957  0.33752033  1
  Fe  Fe15  1  0.33776461  0.66992738  1.00271740  1
  Ni  Ni16  1  0.50362480  0.83602187  0.16998725  1
  Ni  Ni17  1  0.33607707  0.66954672  0.33663855  1
  Ni  Ni18  1  0.66947560  0.00369190  1.00212826  1
  Fe  Fe19  1  0.83470343  0.16872120  0.16988808  1
  Ni  Ni20  1  0.67032020  0.00360113  0.33756621  1
  Ni  Ni21  1  0.66945206  0.33633922  1.00254325  1
  Fe  Fe22  1  0.83513601  0.50463137  0.16975347  1
  Ni  Ni23  1  0.66832616  0.33574752  0.33568887  1
  Ni  Ni24  1  0.67030890  0.66942057  0.00328206  1
  Ni  Ni25  1  0.83668176  0.83666336  0.16991141  1
  Ni  Ni26  1  0.66920638  0.67010279  0.33498138  1
  Ni  Ni27  1  0.17032298  0.16974117  0.50118336  1
  Cr  Cr28  1  0.00453139  1.00099970  0.66959923  1
  Ni  Ni29  1  0.16957874  0.17001219  0.83856074  1
  Ni  Ni30  1  0.17260950  0.50386639  0.50268447  1
  Cr  Cr31  1  0.00351242  0.33744890  0.67016541  1
  Ni  Ni32  1  0.17068777  0.50406482  0.83654885  1
  Ni  Ni33  1  0.17058262  0.83584653  0.50282639  1
  Ni  Ni34  1  0.00648353  0.67075930  0.67088523  1
  Ni  Ni35  1  0.17064487  0.83537631  0.83661444  1
  Fe  Fe36  1  0.50294427  0.16958974  0.50227722  1
  Ni  Ni37  1  0.33707365  1.00286179  0.67002918  1
  Fe  Fe38  1  0.50267955  0.16981138  0.83701782  1
  Ni  Ni39  1  0.50062171  0.50262440  0.50222409  1
  Fe  Fe40  1  0.33738022  0.33757154  0.66944817  1
  Ni  Ni41  1  0.50260815  0.50283001  0.83707682  1
  Ni  Ni42  1  0.50227930  0.83671564  0.50154819  1
  Ni  Ni43  1  0.33450225  0.67040861  0.66998913  1
  Ni  Ni44  1  0.50232096  0.83627411  0.83791314  1
  Ni  Ni45  1  0.83534696  0.16808161  0.50085734  1
  Fe  Fe46  1  0.66842456  0.00411627  0.66969037  1
  Ni  Ni47  1  0.83525296  0.17030009  0.83816664  1
  Cr  Cr48  1  0.83618366  0.50293028  0.50143226  1
  Ni  Ni49  1  0.66734215  0.33437752  0.67121506  1
  Fe  Fe50  1  0.83686692  0.50326881  0.83814102  1
  Ni  Ni51  1  0.83659029  0.83899951  0.50192050  1
  Cr  Cr52  1  0.66931062  0.66948176  0.67068045  1
  Fe  Fe53  1  0.83710530  0.83592556  0.83859743  1
" 