7652,Ni63Fe13Cr23_8,-231.441343800437, 175.119736584406,Ni63Fe13Cr23,"# generated using pymatgen
 data_Cr13Fe7Ni34
_symmetry_space_group_name_H-M   'P 1'
_cell_length_a   7.45549210
_cell_length_b   7.45549210
_cell_length_c   10.54365804
_cell_angle_alpha   90.00000000
_cell_angle_beta   90.00000000
_cell_angle_gamma   90.00000000
_symmetry_Int_Tables_number   1
_chemical_formula_structural   Cr13Fe7Ni34
_chemical_formula_sum   'Cr13 Fe7 Ni34'
_cell_volume   586.06251043
_cell_formula_units_Z   1
loop_
 _symmetry_equiv_pos_site_id
 _symmetry_equiv_pos_as_xyz
  1  'x, y, z'
loop_
 _atom_site_type_symbol
 _atom_site_label
 _atom_site_symmetry_multiplicity
 _atom_site_fract_x
 _atom_site_fract_y
 _atom_site_fract_z
 _atom_site_occupancy
  Ni  Ni0  1  0.00135097  0.00122445  1.00039012  1
  Fe  Fe1  1  0.16478630  0.16599063  0.16648861  1
  Ni  Ni2  1  1.00071102  0.00157040  0.33370180  1
  Ni  Ni3  1  0.00085165  0.33188192  0.00079106  1
  Ni  Ni4  1  0.16697536  0.50212757  0.16660715  1
  Fe  Fe5  1  0.99925467  0.33206604  0.33357403  1
  Fe  Fe6  1  0.00171345  0.66736215  0.99872042  1
  Ni  Ni7  1  0.16791349  0.83444132  0.16665155  1
  Cr  Cr8  1  0.00177072  0.67004081  0.33507766  1
  Fe  Fe9  1  0.33342975  1.00001185  0.99854121  1
  Cr  Cr10  1  0.50497919  0.16561740  0.16768030  1
  Ni  Ni11  1  0.33139379  0.99963078  0.33314364  1
  Cr  Cr12  1  0.33360525  0.33570926  0.99975743  1
  Ni  Ni13  1  0.50092679  0.50182935  0.16764275  1
  Cr  Cr14  1  0.33393566  0.33392133  0.33197017  1
  Ni  Ni15  1  0.33318215  0.66736965  1.00062853  1
  Cr  Cr16  1  0.50059274  0.83358436  0.16726899  1
  Ni  Ni17  1  0.33315415  0.66831736  0.33219333  1
  Ni  Ni18  1  0.67014924  0.00156203  0.99775606  1
  Ni  Ni19  1  0.83525832  0.16749427  0.16709056  1
  Ni  Ni20  1  0.67003525  0.00267345  0.33608750  1
  Ni  Ni21  1  0.66822284  0.33390035  0.99923953  1
  Cr  Cr22  1  0.83300633  0.49841336  0.16649164  1
  Ni  Ni23  1  0.66880252  0.33312946  0.33444315  1
  Ni  Ni24  1  0.66542536  0.66683527  0.99866886  1
  Cr  Cr25  1  0.83349700  0.83687688  0.16617196  1
  Ni  Ni26  1  0.66736957  0.66643792  0.33465890  1
  Cr  Cr27  1  0.16726727  0.16558880  0.50190787  1
  Ni  Ni28  1  1.00007954  0.99964623  0.66771094  1
  Ni  Ni29  1  0.16620514  0.16702133  0.83322046  1
  Cr  Cr30  1  0.16622184  0.50207286  0.50437408  1
  Ni  Ni31  1  1.00053963  0.33323561  0.66869501  1
  Ni  Ni32  1  0.16557491  0.50072201  0.83270512  1
  Ni  Ni33  1  0.16674355  0.83474819  0.50169262  1
  Ni  Ni34  1  0.00170962  0.66945744  0.66913243  1
  Ni  Ni35  1  0.16686241  0.83432528  0.83377276  1
  Ni  Ni36  1  0.50281563  0.16545025  0.50113187  1
  Ni  Ni37  1  0.33358455  1.00073345  0.66934362  1
  Ni  Ni38  1  0.50076917  0.16533419  0.83287416  1
  Cr  Cr39  1  0.49972037  0.50023264  0.49999844  1
  Ni  Ni40  1  0.33367645  0.33310134  0.67025658  1
  Ni  Ni41  1  0.50030730  0.50144439  0.83524385  1
  Cr  Cr42  1  0.49824978  0.83667564  0.49951850  1
  Ni  Ni43  1  0.33208574  0.66851609  0.66983897  1
  Ni  Ni44  1  0.50056478  0.83546157  0.83500713  1
  Ni  Ni45  1  0.83386304  0.16686286  0.50020007  1
  Ni  Ni46  1  0.66898646  0.00143828  0.66808354  1
  Fe  Fe47  1  0.83606705  0.16655743  0.83500888  1
  Fe  Fe48  1  0.83480731  0.49909163  0.50126064  1
  Cr  Cr49  1  0.66691683  0.33196608  0.66942097  1
  Ni  Ni50  1  0.83657165  0.50071379  0.83526936  1
  Fe  Fe51  1  0.83543895  0.83716603  0.50164281  1
  Cr  Cr52  1  0.66895837  0.66960220  0.66874741  1
  Ni  Ni53  1  0.83496733  0.83466293  0.83435315  1
" 