3582,Ni63Fe30Cr6_4,-239.379460187715, 210.342083613122,Ni63Fe30Cr6,"# generated using pymatgen
 data_Cr2Fe8Ni17
_symmetry_space_group_name_H-M   'P 1'
_cell_length_a   7.41943696
_cell_length_b   7.41943696
_cell_length_c   10.49266838
_cell_angle_alpha   90.00000000
_cell_angle_beta   90.00000000
_cell_angle_gamma   90.00000000
_symmetry_Int_Tables_number   1
_chemical_formula_structural   Cr2Fe8Ni17
_chemical_formula_sum   'Cr4 Fe16 Ni34'
_cell_volume   577.60087902
_cell_formula_units_Z   2
loop_
 _symmetry_equiv_pos_site_id
 _symmetry_equiv_pos_as_xyz
  1  'x, y, z'
loop_
 _atom_site_type_symbol
 _atom_site_label
 _atom_site_symmetry_multiplicity
 _atom_site_fract_x
 _atom_site_fract_y
 _atom_site_fract_z
 _atom_site_occupancy
  Ni  Ni0  1  0.00575249  0.00403227  1.00232790  1
  Fe  Fe1  1  0.17016418  0.16824162  0.16973727  1
  Ni  Ni2  1  0.00488045  1.00311267  0.33679507  1
  Ni  Ni3  1  0.00395763  0.33543660  0.00449357  1
  Ni  Ni4  1  0.16941179  0.50297113  0.16967387  1
  Fe  Fe5  1  1.00161439  0.33727739  0.33619638  1
  Ni  Ni6  1  1.00219461  0.66964888  1.00203700  1
  Ni  Ni7  1  0.17095941  0.83358222  0.17071097  1
  Ni  Ni8  1  0.00483179  0.67016217  0.33745116  1
  Fe  Fe9  1  0.33646596  1.00260030  1.00265054  1
  Ni  Ni10  1  0.50433079  0.16957370  0.16935815  1
  Fe  Fe11  1  0.33710697  0.00449583  0.33571161  1
  Fe  Fe12  1  0.33598646  0.33680667  0.00329203  1
  Fe  Fe13  1  0.50172703  0.50208535  0.16875920  1
  Ni  Ni14  1  0.33702972  0.33553083  0.33596573  1
  Fe  Fe15  1  0.33447880  0.67000518  1.00288558  1
  Ni  Ni16  1  0.50114379  0.83721367  0.16911584  1
  Fe  Fe17  1  0.33489600  0.66811783  0.33632571  1
  Fe  Fe18  1  0.67102885  0.00419823  1.00250880  1
  Ni  Ni19  1  0.83648298  0.17154389  0.16996041  1
  Ni  Ni20  1  0.67033730  0.00559533  0.33644208  1
  Fe  Fe21  1  0.67219785  0.33622912  1.00221818  1
  Fe  Fe22  1  0.83770642  0.50216888  0.16767483  1
  Ni  Ni23  1  0.66757006  0.33480027  0.33560057  1
  Ni  Ni24  1  0.66795665  0.66864448  1.00290017  1
  Cr  Cr25  1  0.83712523  0.83889293  0.16843889  1
  Cr  Cr26  1  0.67171751  0.66647176  0.33590522  1
  Ni  Ni27  1  0.16842962  0.17374748  0.50064560  1
  Ni  Ni28  1  0.00330047  0.00362770  0.67045972  1
  Ni  Ni29  1  0.16886707  0.17268701  0.83833203  1
  Ni  Ni30  1  0.16993961  0.50294715  0.50472445  1
  Ni  Ni31  1  0.00343683  0.33530200  0.66952860  1
  Fe  Fe32  1  0.16865004  0.50261303  0.83621348  1
  Fe  Fe33  1  0.16823412  0.83668174  0.50260651  1
  Ni  Ni34  1  1.00236917  0.67087915  0.67057655  1
  Fe  Fe35  1  0.16899329  0.83667213  0.83755144  1
  Ni  Ni36  1  0.50404706  0.17301646  0.50303782  1
  Cr  Cr37  1  0.33397059  0.00639055  0.66994087  1
  Ni  Ni38  1  0.50355117  0.17074806  0.83671241  1
  Ni  Ni39  1  0.49961052  0.50110255  0.50392428  1
  Ni  Ni40  1  0.33711499  0.33718735  0.67096687  1
  Ni  Ni41  1  0.50200640  0.50366750  0.83685457  1
  Cr  Cr42  1  0.50538920  0.83620012  0.50309557  1
  Ni  Ni43  1  0.33666463  0.66842099  0.67124245  1
  Ni  Ni44  1  0.50486562  0.83532688  0.83757756  1
  Ni  Ni45  1  0.83702208  0.16859576  0.50339488  1
  Fe  Fe46  1  0.67177388  0.00418657  0.67066526  1
  Ni  Ni47  1  0.83831414  0.16960544  0.83611596  1
  Fe  Fe48  1  0.83646441  0.50131153  0.50518810  1
  Ni  Ni49  1  0.66873263  0.33766771  0.67028416  1
  Ni  Ni50  1  0.83736348  0.50336976  0.83656018  1
  Ni  Ni51  1  0.83888222  0.83780384  0.50456999  1
  Ni  Ni52  1  0.67010444  0.66764145  0.67082182  1
  Ni  Ni53  1  0.83610661  0.83642030  0.83653158  1
" 