4799,Ni63Cr37_19,-213.678218301995, 135.307849244502,Ni63Cr37,"# generated using pymatgen
 data_Cr17Ni10
_symmetry_space_group_name_H-M   'P 1'
_cell_length_a   7.55425006
_cell_length_b   7.55425006
_cell_length_c   10.68332288
_cell_angle_alpha   90.00000000
_cell_angle_beta   90.00000000
_cell_angle_gamma   90.00000000
_symmetry_Int_Tables_number   1
_chemical_formula_structural   Cr17Ni10
_chemical_formula_sum   'Cr34 Ni20'
_cell_volume   609.66191699
_cell_formula_units_Z   2
loop_
 _symmetry_equiv_pos_site_id
 _symmetry_equiv_pos_as_xyz
  1  'x, y, z'
loop_
 _atom_site_type_symbol
 _atom_site_label
 _atom_site_symmetry_multiplicity
 _atom_site_fract_x
 _atom_site_fract_y
 _atom_site_fract_z
 _atom_site_occupancy
  Ni  Ni0  1  0.99221317  0.99330671  0.99299045  1
  Cr  Cr1  1  0.16134520  0.15966830  0.16035914  1
  Ni  Ni2  1  -0.00471557  0.99102250  0.32581263  1
  Cr  Cr3  1  0.99243776  0.32841493  -0.00491509  1
  Ni  Ni4  1  0.16006466  0.49570930  0.16090617  1
  Cr  Cr5  1  0.99348010  0.33189450  0.32454551  1
  Cr  Cr6  1  0.99407223  0.66150432  -0.00431304  1
  Ni  Ni7  1  0.15619260  0.82666752  0.16213572  1
  Ni  Ni8  1  -0.00571919  0.66253999  0.32413898  1
  Cr  Cr9  1  0.32634387  0.99282646  0.99394648  1
  Cr  Cr10  1  0.49432878  0.16294050  0.15824328  1
  Cr  Cr11  1  0.32946359  0.99147652  0.32902867  1
  Ni  Ni12  1  0.32975466  0.32917368  0.99201730  1
  Cr  Cr13  1  0.49674824  0.49292688  0.15628657  1
  Cr  Cr14  1  0.32806976  0.32923179  0.33015429  1
  Cr  Cr15  1  0.32559964  0.65932312  -0.00374699  1
  Cr  Cr16  1  0.49475109  0.82652505  0.15941221  1
  Cr  Cr17  1  0.32529376  0.66114900  0.32677426  1
  Cr  Cr18  1  0.66249272  -0.00454543  0.99003691  1
  Cr  Cr19  1  0.82660843  0.16110285  0.16139494  1
  Cr  Cr20  1  0.65864662  -0.00523426  0.33209992  1
  Ni  Ni21  1  0.66057020  0.32946120  0.99150479  1
  Ni  Ni22  1  0.82816100  0.49636731  0.15981032  1
  Cr  Cr23  1  0.66140256  0.32789945  0.32966813  1
  Ni  Ni24  1  0.66253278  0.65756819  0.99230908  1
  Cr  Cr25  1  0.82664961  0.82697782  0.16091248  1
  Cr  Cr26  1  0.66013803  0.65989575  0.32882300  1
  Cr  Cr27  1  0.16086330  0.16015484  0.49608617  1
  Ni  Ni28  1  0.99136137  0.99235894  0.66432062  1
  Cr  Cr29  1  0.16196935  0.16080552  0.82648530  1
  Cr  Cr30  1  0.16033448  0.49484842  0.49778611  1
  Cr  Cr31  1  0.99288889  0.32712810  0.66278826  1
  Cr  Cr32  1  0.16479975  0.49317848  0.82396190  1
  Cr  Cr33  1  0.15761116  0.82804713  0.49511544  1
  Ni  Ni34  1  0.99058478  0.66408120  0.66214575  1
  Cr  Cr35  1  0.15707351  0.82843492  0.82568730  1
  Ni  Ni36  1  0.49325298  0.16267920  0.49563094  1
  Cr  Cr37  1  0.33103436  -0.00523848  0.66015866  1
  Ni  Ni38  1  0.49586770  0.16531915  0.82883061  1
  Ni  Ni39  1  0.49454324  0.49479310  0.49768736  1
  Ni  Ni40  1  0.33296957  0.32765923  0.66105136  1
  Ni  Ni41  1  0.49658264  0.49049557  0.82796262  1
  Ni  Ni42  1  0.49514019  0.82524796  0.49559458  1
  Cr  Cr43  1  0.32955750  0.65998686  0.66021801  1
  Cr  Cr44  1  0.49832468  0.82181000  0.82906751  1
  Cr  Cr45  1  0.83053383  0.15859006  0.49241232  1
  Cr  Cr46  1  0.66091919  -0.00560002  0.66165509  1
  Ni  Ni47  1  0.82674084  0.15873953  0.82898317  1
  Cr  Cr48  1  0.82703105  0.49822907  0.49431369  1
  Cr  Cr49  1  0.66099477  0.32648008  0.66007809  1
  Cr  Cr50  1  0.82398962  0.49814772  0.82646812  1
  Cr  Cr51  1  0.82799193  0.82656602  0.49604616  1
  Ni  Ni52  1  0.66067916  0.66094739  0.66118633  1
  Ni  Ni53  1  0.82775950  0.82864172  0.82626806  1
" 